19
gdb 92572	3.80837	1.34942	1.11937	4.1269	76.9	-0.2142	0.058	0.2722	1127.845	0.162497	-419.235159	-419.227524	-419.22658	-419.267306	29.462	
C	 0.4567230334	 1.366304227	 0.131530003	-0.393916
C	-0.0979851486	-0.0319443349	-0.0963509991	 0.104734
C	 0.5591022748	-0.7885182104	-1.2817322153	-0.20632
N	 1.6105370996	-1.4955427178	-0.5776136783	-0.11889
C	 2.2462611097	-2.7496843775	-0.9730058055	-0.195392
C	 2.5739836507	-3.340993296	 0.4369253869	-0.160821
N	 1.6126158119	-2.719426515	 1.3730097895	-0.380654
C	 1.1477127797	-1.7377304371	 0.7169324222	 0.485087
O	 0.1888602719	-0.8656274313	 1.0624347113	-0.269465
H	 1.5492048415	 1.342910235	 0.1807947887	 0.137668
H	 0.1570038449	 2.0296419175	-0.6861741331	 0.119667
H	 0.0730917123	 1.777755397	 1.0685241369	 0.136796
H	-1.1862072831	-0.0025956234	-0.1921675672	 0.10101
H	-0.1528008692	-1.4761169952	-1.767544268	 0.100306
H	 0.9467163573	-0.0994604869	-2.0377662743	 0.116186
H	 1.5394071371	-3.3903864319	-1.5252207348	 0.095212
H	 3.1302624195	-2.5900285681	-1.5953956231	 0.110889
H	 2.4850971402	-4.4304289723	 0.4579903642	 0.110231
H	 3.6014895664	-3.0892642786	 0.7317039561	 0.107672
92.1157	162.1831	245.5872	250.5845	274.1467	329.8361	419.7873	481.1326	645.7542	695.9256	734.4186	747.1402	820.2782	842.2389	878.1231	920.4918	937.6859	953.2951	1040.7482	1060.3424	1105.9629	1111.1451	1120.4944	1153.266	1203.2128	1226.1371	1245.9217	1249.1399	1270.4014	1319.6529	1325.3728	1363.7645	1377.1473	1410.5014	1437.6093	1487.7693	1496.7221	1501.7591	1515.6077	1535.0984	1763.5026	2966.3683	2971.587	3016.6728	3043.232	3074.7475	3080.5437	3083.1852	3091.2754	3118.043	3130.3153
CC1CN2CCN=C2O1	C[C@H]1CN2CC[N][C]2O1	
InChI=1S/C6H10N2O/c1-5-4-8-3-2-7-6(8)9-5/h5H,2-4H2,1H3	InChI=1S/C6H10N2O/c1-5-4-8-3-2-7-6(8)9-5/h5H,2-4H2,1H3/t5-/m0/s1
