18
gdb 112153	3.27053	1.09529	0.8728	4.4819	75.92	-0.2388	-0.0187	0.2201	1324.0008	0.147301	-439.137574	-439.128298	-439.127353	-439.171967	33.513	
C	 0.0510865196	 1.516481673	 0.0182752058	-0.486045
C	-0.0390602766	 0.029128209	-0.0023931404	 0.209609
C	-1.0995409576	-0.7803145947	-0.0803203245	-0.222758
C	-0.6753336275	-2.2277685629	-0.0637167686	-0.01267
C	-1.0765197778	-3.0027521047	-1.3202466139	-0.079073
O	-0.553442438	-4.3146347296	-1.1753376292	-0.423267
N	 0.7596749564	-2.1160398743	 0.0713243902	-0.326677
C	 1.204077198	-0.815063462	 0.0606982126	 0.35507
O	 2.3559471121	-0.4319391101	 0.092277389	-0.385119
H	 0.6949456004	 1.8705293343	-0.7939289608	 0.146344
H	-0.9310620268	 1.9859188829	-0.0762782242	 0.118748
H	 0.5180510434	 1.8595226723	 0.9481475036	 0.145535
H	-2.1406700408	-0.4871751095	-0.1407861758	 0.108601
H	-1.1098050302	-2.7559442874	 0.7993182851	 0.105622
H	-2.1741901112	-3.0124229288	-1.4091911027	 0.091646
H	-0.6621259175	-2.4936697915	-2.2023865321	 0.100561
H	-0.6871306851	-4.7906873811	-1.9998466909	 0.294349
H	 1.3743511291	-2.9068927949	-0.0231469934	 0.259525
75.7978	103.2879	128.0075	139.1488	246.3603	249.688	274.4106	360.2551	407.9519	456.9761	504.796	551.7667	615.9286	738.9443	767.8123	798.6966	859.5785	924.6338	986.1261	1024.0118	1055.468	1066.7092	1084.5056	1135.3001	1168.4267	1211.825	1231.7862	1250.6611	1298.4608	1337.2628	1381.0837	1409.897	1413.2692	1447.6103	1471.0007	1483.0377	1513.2034	1710.0715	1815.9017	2977.364	2987.0475	3026.1714	3037.5372	3091.5797	3123.8576	3206.1121	3671.658	3836.8961
CC1=CC(CO)NC1=O	CC1=C[C@@H](CO)NC1=O	
InChI=1S/C6H9NO2/c1-4-2-5(3-8)7-6(4)9/h2,5,8H,3H2,1H3,(H,7,9)	InChI=1S/C6H9NO2/c1-4-2-5(3-8)7-6(4)9/h2,5,8H,3H2,1H3,(H,7,9)/t5-/m0/s1
