16
gdb 24110	6.71641	0.74465	0.7074	1.1626	75.27	-0.2378	0.0045	0.2422	1517.0002	0.126521	-396.977098	-396.969008	-396.968064	-397.011124	28.714	
N	-0.0094489211	-1.1641591879	 0.0067073389	-0.291947
C	-0.0306294574	-0.0093240678	-0.0181831406	 0.258979
C	-0.0179694381	 1.4500430312	-0.0469305018	-0.333771
C	 1.4207150686	 2.0107932299	 0.052890664	-0.182368
N	 1.4374418011	 3.4569601208	 0.0196928435	 0.022605
C	 1.3079560832	 4.2616605905	-1.095871886	-0.138051
C	 1.3102950697	 5.5470786548	-0.6248902384	-0.083746
N	 1.4346746669	 5.5609622626	 0.7453721314	-0.26618
C	 1.5036025838	 4.2991861885	 1.0959151136	 0.001532
H	-0.4881447262	 1.7957978744	-0.9733013402	 0.166989
H	-0.6218345997	 1.8344485508	 0.7816764146	 0.169226
H	 1.8813028111	 1.6805833075	 0.9869701273	 0.150246
H	 2.0282887884	 1.6204166005	-0.767948181	 0.14972
H	 1.2445715404	 3.846423232	-2.0886126359	 0.129675
H	 1.2392423883	 6.4621116201	-1.1928942235	 0.115313
H	 1.6129751912	 3.922403442	 2.1029782841	 0.131778
60.6381	64.6232	90.8116	177.828	330.8847	354.9953	402.0542	501.5075	638.5935	677.369	726.926	747.5809	773.6843	817.1992	862.516	914.4849	958.7164	1017.5465	1039.3994	1052.1998	1101.5238	1144.0553	1184.1903	1265.3543	1293.3503	1302.8888	1312.6559	1393.3885	1400.7153	1415.3388	1467.6785	1491.5876	1531.0155	1547.5015	2365.8388	3055.5082	3071.5882	3094.8006	3124.4429	3240.5153	3248.8025	3273.9455
N#CCCN1C=CN=C1	N#CCCn1ccnc1	
InChI=1S/C6H7N3/c7-2-1-4-9-5-3-8-6-9/h3,5-6H,1,4H2	InChI=1S/C6H7N3/c7-2-1-4-9-5-3-8-6-9/h3,5-6H,1,4H2
