29
gdb 100100	2.77153	0.82639	0.77287	0.0914	99.32	-0.2899	0.0726	0.3625	1742.5021	0.272676	-354.775601	-354.763443	-354.762499	-354.81242	46.063	
C	-1.2187132536	 1.4885558569	-0.477065566	-0.405032
C	-0.4651224655	 0.1763162842	-0.2298350287	-0.173674
C	 0.4097130551	-0.3705164154	-1.3902847847	 0.267057
C	-0.4570582673	-0.594216425	-2.6447801886	-0.410038
C	 1.5360942316	 0.6267769107	-1.7173948622	-0.409175
C	 0.9815126919	-1.7313552305	-0.9021173969	-0.201406
C	 2.0151521354	-2.4579955425	-1.802135956	 0.043445
C	 3.4609340191	-2.1990504845	-1.3496439642	-0.387276
C	 1.7408032741	-3.9693178722	-1.8400720893	-0.392195
H	-0.5412723377	 2.3174482007	-0.7040116005	 0.116088
H	-1.9319427946	 1.4043948696	-1.3025715363	 0.116553
H	-1.7867158779	 1.7698274659	 0.4155908166	 0.111375
H	 0.1794143122	 0.3023748792	 0.6503911553	 0.088396
H	-1.1936730821	-0.5995071639	 0.0412558407	 0.087911
H	-0.8524614345	 0.3492295761	-3.0329959632	 0.110948
H	 0.1169752445	-1.0569252828	-3.4538131506	 0.111572
H	-1.3078808569	-1.2492496827	-2.4243918443	 0.105504
H	 2.1633471222	 0.8212086026	-0.8401489785	 0.106882
H	 2.1826451874	 0.2540809763	-2.5174450128	 0.113253
H	 1.1307575622	 1.5854482927	-2.0554443368	 0.108586
H	 1.4264943314	-1.5848678134	 0.0917124167	 0.082663
H	 0.1226238395	-2.3960711977	-0.7425848851	 0.083532
H	 1.9149434991	-2.0845279678	-2.8293686348	 0.071265
H	 3.6270373244	-2.605648727	-0.344582843	 0.109511
H	 4.1782051286	-2.6805227333	-2.0234329558	 0.105647
H	 3.6978543507	-1.1323610884	-1.316735472	 0.1133
H	 0.741646324	-4.1835411243	-2.2337651728	 0.108648
H	 2.4702375897	-4.4915419048	-2.4687961916	 0.105598
H	 1.8005885468	-4.4025250187	-0.8341689145	 0.111062
61.0974	81.3221	97.1491	157.6072	215.5672	236.4819	254.379	264.8613	277.1087	284.4883	315.1578	323.7229	356.8888	385.0835	411.2605	422.3732	446.1755	551.005	729.0475	783.172	822.8265	867.0228	886.1664	928.4553	938.9557	948.6513	965.5733	984.6025	1000.5485	1032.4715	1047.2613	1075.5653	1128.7752	1135.6774	1193.09	1213.0328	1220.1419	1252.6281	1283.3558	1324.4097	1340.7143	1369.7141	1372.3748	1387.3533	1399.2715	1403.4076	1411.2693	1421.019	1429.5869	1476.0456	1483.0382	1486.6562	1489.0061	1492.7304	1496.7515	1504.0693	1508.9288	1509.5915	1511.7448	1515.0375	1518.9781	3002.5303	3010.095	3018.3217	3020.997	3027.1323	3028.5503	3033.1324	3037.1119	3040.7854	3045.5984	3083.6883	3091.1712	3094.1823	3095.9549	3096.3583	3099.1613	3101.1945	3106.5181	3112.7081	3115.2558
CCC(C)(C)CC(C)C	CCC(C)(C)CC(C)C	
InChI=1S/C9H20/c1-6-9(4,5)7-8(2)3/h8H,6-7H2,1-5H3	InChI=1S/C9H20/c1-6-9(4,5)7-8(2)3/h8H,6-7H2,1-5H3
