18
gdb 7376	2.61123	0.5128	0.45646	2.3418	66.76	-0.2102	0.0318	0.242	2369.8146	0.146733	-418.285103	-418.271591	-418.270647	-418.331811	39.517	
C	-0.1132497313	 2.5376656934	 0.6359597956	-0.298479
N	 0.2180377723	 1.1934139288	 1.1110799484	-0.502744
H	-0.2944077859	 0.9979439832	 1.965763537	 0.21903
H	-0.0915424902	 0.5026402391	 0.4326986834	 0.231707
C	 0.6001028378	-1.2085002918	-1.4917943776	-0.383819
C	 0.1471020877	-2.2504230814	-0.7810546224	 0.069267
N	-0.8856956153	-3.1082515111	-1.1289499969	-0.493255
C	 1.6973783662	-3.2430694023	-3.8641284587	 0.590614
O	 2.8252896891	-2.9982223295	-3.7385988266	-0.285815
O	 0.5720900708	-3.5046533618	-4.0151206495	-0.310827
H	 0.2323570342	 3.2784673457	 1.3650635643	 0.116894
H	 0.4221793445	 2.731336805	-0.299393617	 0.119394
H	-1.1838552553	 2.7272269674	 0.4505824735	 0.091624
H	 0.1946768813	-0.9576482789	-2.466858241	 0.090545
H	 1.3724963787	-0.5686627887	-1.0870307018	 0.131075
H	 0.5655554088	-2.4543965147	 0.2021420944	 0.108667
H	-1.0998239111	-3.1442762394	-2.1159932327	 0.257175
H	-0.8360117524	-4.0302594527	-0.7231494523	 0.248948
13.215	16.996	30.7019	36.0463	41.616	56.828	67.111	88.487	95.8112	131.9491	136.4595	348.0715	389.6073	471.5587	619.1056	671.3355	687.5422	731.7894	828.586	878.0778	971.5239	989.1096	1024.0936	1065.9382	1081.9715	1183.5136	1300.3007	1341.1691	1363.0023	1377.1419	1455.2121	1460.3264	1497.8826	1519.1538	1656.2309	1671.7972	1710.696	2432.8033	2960.9806	3056.9228	3095.5878	3155.5105	3163.5738	3256.294	3483.3015	3561.1844	3565.2893	3667.0155
C[NH2+]CC(N)C([O-])=O	CN.C=CN.C(=O)=O	
InChI=1S/C4H10N2O2/c1-6-2-3(5)4(7)8/h3,6H,2,5H2,1H3,(H,7,8)	InChI=1S/C2H5N.CH5N.CO2/c1-2-3;1-2;2-1-3/h2H,1,3H2;2H2,1H3;
