14
gdb 13477	3.35217	1.86922	1.26392	2.5921	59.19	-0.2395	-0.0421	0.1974	905.2494	0.106988	-415.878246	-415.870655	-415.869711	-415.91061	27.569	
N	 0.0555658072	 1.1657986736	 0.4907161919	-0.526562
C	 0.140962089	-0.0743025657	-0.0682116334	 0.395544
O	 1.1191175768	-0.5202365906	-0.6244177166	-0.349728
C	-1.1810855813	-0.8495347852	 0.011001964	-0.200251
N	-1.0793550417	-2.314045144	 0.1932934083	-0.304402
C	-2.100844092	-2.3312497351	 1.2731383542	-0.269311
C	-1.9962774618	-0.8031378943	 1.3112903984	 0.384134
O	-2.3230107242	 0.0731795856	 2.0587702627	-0.301526
H	 0.8967734757	 1.7191368838	 0.5326050654	 0.262834
H	-0.7050598199	 1.3888181503	 1.1167671008	 0.275949
H	-1.8055492272	-0.5224707105	-0.8361038876	 0.126227
H	-1.3062305628	-2.8619472142	-0.6262988905	 0.235926
H	-3.1088725587	-2.6600039988	 0.9813688554	 0.128248
H	-1.8037008492	-2.8660221448	 2.1815971469	 0.142918
61.1966	125.3033	162.3274	257.3822	389.2421	400.5346	436.0114	500.6029	571.8064	609.2814	639.4286	715.4741	763.3374	805.233	943.5965	993.9779	1020.0827	1069.1679	1090.4328	1096.8664	1126.671	1200.4169	1251.966	1303.5742	1343.0695	1377.9832	1474.5981	1628.0637	1822.3772	1895.6229	2981.7336	3006.5201	3072.5066	3557.0576	3571.3478	3697.6
NC(=O)C1NCC1=O	NC(=O)[C@H]1NCC1=O	
InChI=1S/C4H6N2O2/c5-4(8)3-2(7)1-6-3/h3,6H,1H2,(H2,5,8)	InChI=1S/C4H6N2O2/c5-4(8)3-2(7)1-6-3/h3,6H,1H2,(H2,5,8)/t3-/m0/s1
