14
gdb 126495	2.76153	1.49393	0.98106	2.7014	67.58	-0.2636	-0.1105	0.1531	1131.2326	0.097895	-469.927653	-469.91937	-469.918426	-469.961571	29.373	
C	 0.0950132134	 1.5451148816	 0.0078880493	-0.389404
C	-0.0341569844	 0.0230882629	 0.0033123674	-0.256448
C	-1.4426520414	-0.4957007335	 0.0130385093	 0.246216
N	-2.426643999	 0.3437659228	 0.0247534938	-0.093411
O	-3.6950561801	-0.1455776983	 0.0334089674	-0.230141
N	-3.9739306378	-1.5620400937	 0.0297892693	 0.086281
N	-3.0417988583	-2.3604337933	 0.0186714699	-0.145531
C	-1.6639986144	-1.9417012944	 0.0090611248	 0.379706
O	-0.7939190719	-2.7751480176	-0.0018564415	-0.286314
H	 1.1510731982	 1.8258552507	 0.0001746347	 0.123235
H	-0.385628069	 1.988883086	-0.86779831	 0.137511
H	-0.371022811	 1.9823568168	 0.8946788471	 0.137524
H	 0.4664840745	-0.4159621731	-0.8695373689	 0.145392
H	 0.4808136014	-0.4223496869	 0.8645193373	 0.145384
46.5333	65.3694	182.7864	207.8783	290.0464	333.3567	404.2077	480.7467	501.5044	514.6821	562.7522	589.359	740.3198	757.2785	837.6292	889.4759	962.2954	1001.4818	1096.3396	1099.6629	1118.3982	1273.7645	1297.4289	1402.4149	1419.0999	1452.3353	1494.9405	1500.1615	1597.6578	1639.332	1815.7662	3032.3674	3053.9728	3054.31	3126.8478	3128.532
CCC1=NON=NC1=O	CCc1nonnc1=O	
InChI=1S/C4H5N3O2/c1-2-3-4(8)5-7-9-6-3/h2H2,1H3	InChI=1S/C4H5N3O2/c1-2-3-4(8)5-7-9-6-3/h2H2,1H3
