19
gdb 84890	2.21597	1.76771	1.24881	2.1625	76.39	-0.2501	0.0075	0.2576	1062.829	0.159864	-423.017214	-423.008974	-423.00803	-423.049901	32.053	
O	 0.0513384662	 1.4737635043	-0.0746269738	-0.432604
C	-0.016496443	 0.0445593685	 0.007392794	 0.013653
C	 0.7470449842	-0.4650238551	 1.201230551	-0.101109
C	 0.1701054871	-1.0716253385	 2.240298556	-0.054493
C	-1.3086882498	-1.3404356779	 2.3387826201	-0.251996
C	-2.1138239138	-0.4518399742	 1.3776912681	-0.299299
C	-1.4595153829	-0.4495237192	 0.0150875808	 0.421125
C	-2.238334719	-0.3853355895	-1.2215419236	-0.245443
O	-1.6893909469	-1.6310192576	-0.7729331987	-0.286663
H	-0.0502018656	 1.816592158	 0.8197286353	 0.278354
H	 0.445993684	-0.3175821465	-0.917789024	 0.100208
H	 1.819615261	-0.2890674019	 1.1894314397	 0.095883
H	 0.7876044769	-1.4150249465	 3.0673837402	 0.094103
H	-1.4993800236	-2.3972234919	 2.1057321977	 0.132552
H	-1.6485209067	-1.1944082426	 3.3705871	 0.104446
H	-3.1491307907	-0.7949249992	 1.3001965473	 0.10539
H	-2.1355978701	 0.577380898	 1.7595879307	 0.097945
H	-3.3240087525	-0.3096261734	-1.1713641039	 0.1091
H	-1.785793185	 0.0300746349	-2.1208339668	 0.118848
79.3832	142.3977	232.8452	253.835	281.0157	320.8547	383.0382	410.7008	498.1367	523.4361	571.6338	693.6012	742.0962	767.1034	844.9171	875.6695	902.3801	938.6656	988.7671	1003.2247	1008.8954	1039.3558	1052.9601	1073.3121	1126.1807	1153.1637	1162.3613	1199.4395	1247.3825	1252.4269	1295.5939	1315.0129	1348.7049	1369.1834	1394.9205	1420.4513	1449.151	1469.2888	1480.9096	1532.3865	1713.66	3017.124	3025.4082	3049.766	3058.0525	3080.9257	3091.7542	3145.3215	3167.1424	3170.1152	3808.1376
OC1C=CCCC11CO1	O[C@H]1C=CCC[C@]21CO2	
InChI=1S/C7H10O2/c8-6-3-1-2-4-7(6)5-9-7/h1,3,6,8H,2,4-5H2	InChI=1S/C7H10O2/c8-6-3-1-2-4-7(6)5-9-7/h1,3,6,8H,2,4-5H2/t6-,7+/m0/s1
