12
gdb 132209	2.08264	1.85998	0.98278	5.4633	60.08	-0.2471	-0.0249	0.2221	1062.085	0.07754	-513.967726	-513.960378	-513.959434	-513.999729	27.272	
N	 0.1076651564	 1.3025521807	 0.11237259	-0.559508
C	-0.0370151549	-0.0392683339	 0.0382631316	 0.504723
N	-1.1663552516	-0.6331203518	 0.0187472721	-0.381279
C	-1.2161309186	-2.0415280984	-0.0058604498	 0.396383
O	-2.2681863391	-2.6398032685	-0.0184375969	-0.351124
C	 0.0902138578	-2.7274289243	-0.0209357035	-0.453927
C	 1.196206718	-1.9879511391	-0.0094614694	 0.400902
F	 2.4271660059	-2.4359500312	-0.0257583344	-0.032281
O	 1.2073923359	-0.6404882313	 0.021098736	-0.232459
H	 1.0008801917	 1.7128340127	-0.0990493476	 0.278563
H	-0.723874741	 1.8505889259	-0.0274012664	 0.28858
H	 0.1372131995	-3.8059710008	-0.0448495117	 0.141426
127.6504	180.2535	198.3276	295.649	330.1443	379.7692	489.112	497.7509	538.605	603.5616	654.5171	657.7802	722.6016	772.2441	856.4386	911.202	934.6925	1029.8522	1131.5361	1236.2563	1241.3463	1352.933	1411.2201	1601.5308	1685.434	1769.2716	1808.7335	3249.5062	3619.1352	3748.9235
NC1=NC(=O)C=C(F)O1	Nc1nc(=O)cc(F)o1	
InChI=1S/C4H3FN2O2/c5-2-1-3(8)7-4(6)9-2/h1H,(H2,6,7,8)	InChI=1S/C4H3FN2O2/c5-2-1-3(8)7-4(6)9-2/h1H,(H2,6,7,8)
