23
gdb 114694	2.86746	1.20077	1.02692	1.2097	85.62	-0.2231	0.0845	0.3076	1310.7616	0.205326	-388.296704	-388.287258	-388.286314	-388.331314	36.159	
C	-0.3232949357	 1.3843542079	-0.0657411498	-0.382143
C	-0.1721297598	-0.1333927154	-0.187104611	-0.179297
C	 0.923437199	-0.5499107463	-1.1706899841	 0.12991
C	 1.0690227601	-2.0892812711	-1.3439631483	-0.275723
C	 0.7435321134	-2.3463006693	-2.8051218032	-0.10431
C	-0.6391552632	-1.9391215131	-3.2940057601	-0.350772
C	 0.5385087316	-1.0058145285	-3.4459087343	 0.452124
C	 1.0671157786	-0.5820111586	-4.7876971274	-0.461431
O	 0.6639247798	 0.0038727837	-2.4726424131	-0.313639
H	 0.6028614471	 1.8447977078	 0.2968223254	 0.110259
H	-0.554737333	 1.8234861299	-1.0394305627	 0.134821
H	-1.1232193874	 1.6486170681	 0.6325285881	 0.106639
H	 0.0711353587	-0.5686323198	 0.7913523286	 0.091802
H	-1.1238323761	-0.5821343923	-0.4989535151	 0.096612
H	 1.8731411309	-0.1140182039	-0.8282436877	 0.073185
H	 2.0912036143	-2.4105908153	-1.1227865634	 0.104136
H	 0.4046081644	-2.6283215867	-0.6597548582	 0.102643
H	 1.2614606715	-3.1464468911	-3.3220816887	 0.085833
H	-1.014488059	-2.4324828254	-4.1850260891	 0.107155
H	-1.3996813345	-1.6937589526	-2.5602519695	 0.112243
H	 0.9597246183	-1.3895885691	-5.5173203116	 0.113939
H	 0.5181115438	 0.2885868422	-5.1617222426	 0.126219
H	 2.1257150973	-0.3107813912	-4.7197957123	 0.119795
34.9987	113.1784	151.5206	206.9346	224.4256	240.4707	317.583	383.9626	394.722	415.9525	465.0263	604.2466	699.3354	722.3352	783.526	813.2487	827.7762	849.2052	923.4521	934.9134	949.7391	994.8596	1012.515	1018.9183	1042.2114	1064.6969	1088.6807	1100.1606	1126.0482	1130.008	1156.1585	1230.0885	1243.9406	1273.3974	1295.5572	1313.6526	1325.0076	1375.6916	1393.3758	1402.59	1407.9475	1426.5553	1474.8093	1478.2129	1484.0551	1495.8624	1500.2698	1506.1592	1510.1399	2989.654	3017.0482	3034.4722	3035.0757	3041.7653	3055.6061	3082.5353	3098.9744	3099.4529	3114.5832	3124.1341	3124.8528	3167.7333	3213.9006
CCC1CC2CC2(C)O1	CC[C@H]1C[C@H]2C[C@@]2(C)O1	
InChI=1S/C8H14O/c1-3-7-4-6-5-8(6,2)9-7/h6-7H,3-5H2,1-2H3	InChI=1S/C8H14O/c1-3-7-4-6-5-8(6,2)9-7/h6-7H,3-5H2,1-2H3/t6-,7-,8+/m0/s1
