18
gdb 16766	5.17517	1.43879	1.27903	0.8644	67.63	-0.2438	0.0937	0.3375	1003.7165	0.153617	-384.924071	-384.91652	-384.915576	-384.956099	28.56	
C	 0.0468488322	 1.4460161642	 0.1660971615	-0.385992
C	 0.0503993472	-0.0786218621	 0.0311076928	-0.200301
C	 0.7075981779	-0.5463428291	-1.2505242455	 0.233089
O	 2.0858311958	-0.1832414591	-1.2723945359	-0.27261
C	 2.7328495582	-1.1656327147	-2.0456667275	 0.06252
C	 3.1000711106	-2.4387007819	-1.3152766023	-0.323666
C	 1.8053362609	-2.3360570106	-2.090960549	 0.058874
O	 0.6725012754	-1.9669883159	-1.3408016402	-0.273412
H	 1.0675011956	 1.8376937947	 0.1659997641	 0.137286
H	-0.4942921798	 1.9180907683	-0.6613309003	 0.115222
H	-0.4377425523	 1.7519638303	 1.0974425885	 0.11536
H	 0.5844821423	-0.5437349537	 0.8662865866	 0.109299
H	-0.9725445592	-0.4708248252	 0.0394137434	 0.109812
H	 0.208894878	-0.1141155981	-2.1379954602	 0.064744
H	 3.3071328242	-0.7936105074	-2.8870543593	 0.10395
H	 3.8924951606	-3.0499219556	-1.736128076	 0.113879
H	 3.0316343912	-2.4269032278	-0.2338110914	 0.128093
H	 1.6062388812	-2.9387217463	-2.9702874292	 0.103853
83.4781	114.4031	197.4661	239.7659	306.1146	399.323	474.7308	483.2652	696.3847	735.3267	775.1898	790.87	806.6344	883.4268	937.6627	949.3226	1003.1044	1009.0824	1019.5562	1066.8099	1088.846	1098.2296	1112.4119	1131.5758	1150.6742	1174.9967	1201.4604	1283.9316	1306.2639	1332.7498	1370.7118	1383.7566	1410.2801	1435.526	1456.672	1476.8982	1498.4809	1509.9687	2930.4843	3039.5147	3047.3203	3086.9295	3108.1315	3124.381	3130.6012	3163.0467	3172.5596	3231.9576
CCC1OC2CC2O1	CC[C@H]1O[C@H]2C[C@H]2O1	
InChI=1S/C6H10O2/c1-2-6-7-4-3-5(4)8-6/h4-6H,2-3H2,1H3	InChI=1S/C6H10O2/c1-2-6-7-4-3-5(4)8-6/h4-6H,2-3H2,1H3/t4-,5+,6-
