20
gdb 59512	3.41289	0.8109	0.71632	4.0657	77.14	-0.2404	-0.0195	0.2209	1597.9243	0.167526	-440.254388	-440.244178	-440.243233	-440.290509	36.312	
C	-0.0091767724	-3.0306074732	 1.0369802688	-0.408868
C	-0.2498830579	-1.6013247816	 1.5233730416	 0.11936
O	 0.7862528258	-0.7178817369	 1.0901291429	-0.430494
C	-1.6101326954	-1.0890960042	 1.0882112865	-0.001396
C	-2.7989375969	-1.1703428604	 1.9862721172	-0.264841
N	-2.2054201938	 0.1190935744	 1.6496569404	-0.101774
C	-1.5024422188	 0.8562392786	 2.6904284785	-0.231709
C	-2.3464527957	 2.0353364142	 3.1463803925	 0.154201
O	-2.2712626541	 2.5380330147	 4.2367822012	-0.242578
H	 0.99189064	-3.3615213474	 1.3248275477	 0.129597
H	-0.7450370408	-3.7210447624	 1.460732659	 0.12401
H	-0.0879292051	-3.0875605374	-0.0557393203	 0.110833
H	-0.1818249208	-1.5799136096	 2.6158054249	 0.091812
H	 0.7745110857	-0.6991727516	 0.1262250161	 0.279651
H	-1.7785664156	-1.1832460337	 0.0128842309	 0.08428
H	-3.7896086514	-1.3652957087	 1.5846460661	 0.120646
H	-2.6329514124	-1.556703595	 2.9920647815	 0.11392
H	-1.2205217405	 0.2700611915	 3.5770646532	 0.11466
H	-0.573891257	 1.2568060716	 2.2618691449	 0.152196
H	-3.0428117332	 2.412734207	 2.3647076863	 0.086492
48.9786	79.3111	91.3068	106.5253	205.0141	236.1478	276.6125	291.2989	319.3416	385.5199	406.6023	493.4617	511.53	600.8137	719.4282	780.5628	850.1965	898.347	923.6894	987.0494	1031.4059	1055.972	1074.3707	1093.8312	1100.9412	1116.9405	1133.0327	1167.4261	1193.6829	1250.7218	1271.2692	1325.9015	1327.2927	1341.9461	1402.4693	1404.5253	1414.6433	1433.4513	1457.2542	1490.6192	1494.5188	1511.1723	1838.5815	2892.1241	2996.9773	3028.0976	3053.4426	3060.6789	3077.8829	3086.7667	3100.6096	3124.255	3176.909	3794.1111
CC(O)C1CN1CC=O	C[C@@H](O)[C@H]1CN1CC=O	
InChI=1S/C6H11NO2/c1-5(9)6-4-7(6)2-3-8/h3,5-6,9H,2,4H2,1H3	InChI=1S/C6H11NO2/c1-5(9)6-4-7(6)2-3-8/h3,5-6,9H,2,4H2,1H3/t5-,6-,7?/m1/s1
