16
gdb 42766	2.68872	1.59939	1.2716	1.7529	76.54	-0.2384	-0.0093	0.2291	1015.7329	0.12486	-400.702212	-400.694596	-400.693652	-400.734172	29.729	
O	-0.0174050207	-0.0222620871	-0.1674537655	-0.313447
C	-0.0292093873	 1.1486211778	 0.0556103219	 0.381767
C	-1.0499497138	 2.3004756842	 0.0386632753	-0.132719
C	-0.8123183911	 3.000209176	 1.384356616	-0.212201
C	 0.7530265202	 3.0107190873	 1.3922815067	-0.252025
C	 1.018950259	 2.3147637006	 0.0385401025	 0.10802
N	-0.0307720692	 3.0144849775	-0.8283546337	-0.339262
C	 2.3573572533	 2.1684300123	-0.447546562	 0.07598
C	 3.479057369	 2.0141273783	-0.8518927436	-0.329962
H	-2.0628666777	 2.190677223	-0.3418751123	 0.098758
H	-1.2277764182	 4.0095314951	 1.377053899	 0.12028
H	-1.2434347108	 2.4448799099	 2.2204940646	 0.1159
H	 1.1646231271	 4.0211118211	 1.3878141672	 0.125524
H	 1.1896250561	 2.4524900777	 2.2228060401	 0.120452
H	-0.0156172162	 2.581352784	-1.7532659885	 0.240487
H	 4.4698318804	 1.8783510521	-1.2097137378	 0.192449
123.9551	144.1715	179.6323	255.1631	362.5775	463.1936	489.7079	498.1018	574.973	615.6207	672.9679	682.9097	710.2031	749.6991	807.3191	847.298	899.2498	912.8412	965.6333	996.892	1014.263	1077.1326	1104.9564	1138.7477	1179.5887	1217.9525	1250.4417	1270.2897	1298.1326	1314.9931	1352.9179	1479.6308	1498.6864	1892.2635	2239.2937	3071.8364	3082.212	3119.4135	3137.8295	3156.1604	3457.1793	3501.0645
O=C1C2CCC1(N2)C#C	O=C1[C@H]2CC[C@@]1(N2)C#C	
InChI=1S/C7H7NO/c1-2-7-4-3-5(8-7)6(7)9/h1,5,8H,3-4H2	InChI=1S/C7H7NO/c1-2-7-4-3-5(8-7)6(7)9/h1,5,8H,3-4H2/t5-,7+/m1/s1
