15
gdb 123692	4.03819	1.58647	1.23561	3.192	70.32	-0.2371	0.0134	0.2505	954.9068	0.116496	-416.80692	-416.800712	-416.799767	-416.837368	25.18	
C	-0.0513955841	 1.5640577092	-0.0058836246	-0.402059
C	 1.4542568782	 1.8918666539	-0.0319054852	 0.062262
O	 2.1742865846	 1.4547063259	 1.1188379848	-0.251112
C	 2.2626749781	 0.6492718226	-0.0800304791	-0.126602
C	 1.2746771715	-0.4525671653	-0.064144771	 0.371774
N	 1.3274695248	-1.7745181367	-0.078988193	-0.343243
N	 0.0220164948	-2.1226836584	 0.0078259978	-0.185883
C	-0.8349048221	-1.0589053607	 0.0782489946	-0.207997
C	-0.0384943678	 0.0583768213	 0.0223825503	 0.224937
H	-0.5292342281	 2.0196882732	 0.8682586799	 0.129224
H	-0.5445815128	 1.9696938418	-0.8973519112	 0.115796
H	 1.7936835289	 2.8307115178	-0.4626677773	 0.097013
H	 3.246709705	 0.5749363314	-0.5298266766	 0.105149
H	-0.2186717528	-3.0992016819	 0.0023732075	 0.274698
H	-1.9010510182	-1.207404734	 0.146617563	 0.136043
165.1051	242.9807	359.0192	437.9939	450.2915	482.2123	618.3094	653.6565	714.2748	755.8519	782.1387	785.9706	853.1405	855.5382	902.5361	971.0865	987.2508	1029.6184	1057.8142	1093.8349	1131.8812	1189.4488	1193.445	1241.3112	1267.7131	1309.3155	1319.1792	1384.9498	1432.0695	1466.9204	1476.6998	1520.4654	1632.4333	3035.3061	3074.1096	3143.9398	3180.9905	3259.7806	3677.2374
C1C2OC2C2=NNC=C12	C1[C@H]2O[C@H]2c2n[nH]cc12	
InChI=1S/C6H6N2O/c1-3-2-7-8-5(3)6-4(1)9-6/h2,4,6H,1H2,(H,7,8)	InChI=1S/C6H6N2O/c1-3-2-7-8-5(3)6-4(1)9-6/h2,4,6H,1H2,(H,7,8)/t4-,6-/m1/s1
