17
gdb 11927	3.22658	1.8414	1.46344	1.7702	76.42	-0.2375	0.0335	0.271	919.0573	0.141147	-326.660939	-326.653059	-326.652115	-326.692712	30.345	
C	 0.0132916292	 1.5427890074	 0.0085729062	-0.477096
C	-0.0521457778	 0.0485819347	 0.0755419413	 0.269973
C	-1.3199359746	-0.817398261	-0.0252375541	-0.285264
C	-0.6938914777	-1.8258399891	 0.9900146858	-0.29289
C	 0.5615468358	-0.934486747	 1.0667608227	 0.110794
N	 1.1268692299	-0.7296513677	-0.2749994131	-0.385051
C	 1.3730213913	-0.7303989656	 2.2201636406	 0.248902
C	 2.0206176842	-0.5679653081	 3.2213182277	-0.412906
H	 1.0007989278	 1.8921543203	 0.3195009238	 0.14207
H	-0.1638125289	 1.893147106	-1.0154402493	 0.122848
H	-0.7427116723	 1.9991211134	 0.6557652337	 0.119493
H	-2.2098532328	-0.3264657508	 0.3760488412	 0.1106
H	-1.5513404733	-1.1923856397	-1.0281373301	 0.098081
H	-1.2438516095	-1.8675275682	 1.9319304298	 0.118995
H	-0.5139147717	-2.8479325458	 0.6409155964	 0.100152
H	 0.9257199246	-1.5144002246	-0.8943480581	 0.223864
H	 2.6059603656	-0.4229756342	 4.0950677956	 0.187433
116.9245	155.515	189.1207	227.5254	310.384	357.8509	451.4683	532.7478	550.7946	567.1886	593.3053	652.4933	682.2687	758.4308	780.5703	817.5876	934.2738	947.9476	991.9193	1069.7391	1073.3435	1095.5027	1123.0733	1171.2263	1201.9339	1218.6754	1248.3684	1250.091	1330.7254	1403.7985	1449.4854	1478.7929	1483.1908	1490.7268	1502.9328	2235.2475	3029.7753	3042.3599	3051.8809	3090.9541	3099.6944	3121.5747	3126.4549	3444.9162	3503.5225
CC12CCC1(N2)C#C	C[C@]12CC[C@]1(N2)C#C	
InChI=1S/C7H9N/c1-3-7-5-4-6(7,2)8-7/h1,8H,4-5H2,2H3	InChI=1S/C7H9N/c1-3-7-5-4-6(7,2)8-7/h1,8H,4-5H2,2H3/t6-,7+/m0/s1
