23
gdb 118586	2.85083	0.72889	0.60749	2.0415	80.17	-0.2427	0.0811	0.3238	1873.9602	0.202331	-462.532604	-462.52082	-462.519876	-462.570834	40.089	
C	-1.0888067481	 0.7299115105	 0.6423607703	-0.230113
O	-0.8468723349	-0.6021062823	 0.2554129439	-0.235209
C	 0.0402380697	-0.7026466996	-0.8391388742	-0.0551
C	 0.286857005	-2.1743354255	-1.1728227628	 0.090151
C	 1.0012672437	-2.3167225719	-2.5194678474	-0.213481
C	 1.1808471894	-3.7745084401	-2.9489458862	-0.069739
O	 1.812176982	-3.8937458778	-4.21586731	-0.420246
O	 1.1047714959	-2.8102782393	-0.2012767306	-0.256444
C	 0.4343146282	-3.2828561114	 0.9525015401	-0.235363
H	-0.1652468263	 1.2369997122	 0.9631350984	 0.106679
H	-1.5338716999	 1.3163559539	-0.1771689433	 0.104991
H	-1.789293477	 0.7065434904	 1.4805948469	 0.127811
H	-0.3843637753	-0.1877972126	-1.7179896763	 0.083015
H	 1.0050521327	-0.2235819168	-0.6032576737	 0.092691
H	-0.6934792621	-2.6781772021	-1.2184917183	 0.073888
H	 0.4399643814	-1.7855010527	-3.2956910462	 0.104299
H	 1.9869758285	-1.8368740749	-2.4442404467	 0.094341
H	 1.7243244278	-4.3239232584	-2.1696965077	 0.106588
H	 0.2003732822	-4.251169695	-3.0631374364	 0.105596
H	 2.7194481012	-3.5877701194	-4.1191351186	 0.279947
H	-0.3849008391	-3.9684945823	 0.6862888262	 0.101107
H	 1.1735369788	-3.8335536464	 1.5405736584	 0.117298
H	 0.0203699461	-2.4663938987	 1.5523991342	 0.12729
58.7188	71.7727	84.494	92.4959	120.4785	122.9058	200.3892	231.4016	242.6894	294.603	306.8506	318.9837	370.4916	388.9952	522.68	605.8807	772.6972	861.8391	960.5388	968.0119	1016.4397	1073.5422	1080.0781	1099.1348	1114.3724	1144.9597	1161.614	1177.3787	1185.1012	1187.8396	1221.6094	1238.4623	1272.4618	1280.8306	1320.9015	1349.3416	1389.489	1403.3042	1419.4272	1423.6823	1473.3627	1476.6675	1480.4867	1485.5384	1486.6284	1497.9579	1516.0543	1517.6632	1522.4736	2951.7311	2965.766	2972.4834	2987.5632	2994.0249	3015.9844	3016.8828	3023.2151	3062.6265	3074.294	3086.6626	3114.86	3115.7184	3817.4098
COCC(CCO)OC	COC[C@@H](CCO)OC	
InChI=1S/C6H14O3/c1-8-5-6(9-2)3-4-7/h6-7H,3-5H2,1-2H3	InChI=1S/C6H14O3/c1-8-5-6(9-2)3-4-7/h6-7H,3-5H2,1-2H3/t6-/m1/s1
