18
gdb 11414	3.65411	1.51194	1.21354	4.0856	67.96	-0.2432	0.0616	0.3047	1030.6973	0.156119	-381.180649	-381.172715	-381.171771	-381.213074	29.633	
C	 0.0538906381	 1.5167380404	 0.1090493918	-0.395132
C	-0.0275247425	-0.0107215432	 0.0460373807	-0.173208
C	-1.460465447	-0.5465357765	-0.1079843974	 0.035931
C	-1.5259715892	-2.0962554526	-0.0795342541	-0.182617
N	-1.7712571191	-2.355441612	 1.3306675457	-0.337925
C	-2.401003121	-1.2707436626	 1.9314263589	 0.426913
O	-2.9004664625	-1.2398159735	 3.0334973012	-0.410881
N	-2.3409233422	-0.2306530013	 1.0125230565	-0.339666
H	 1.0930896595	 1.8516466153	 0.1734531797	 0.123274
H	-0.3894076726	 1.9764624078	-0.7817228786	 0.117453
H	-0.466803519	 1.9153676219	 0.986403591	 0.11696
H	 0.5592165633	-0.3708757949	-0.8087808395	 0.098354
H	 0.4192033732	-0.4513577678	 0.9454872284	 0.115922
H	-1.8858254224	-0.1638389559	-1.0431966546	 0.084263
H	-2.3406292326	-2.4625586188	-0.7200972219	 0.106345
H	-0.5889960153	-2.5469737545	-0.4204995755	 0.112252
H	-2.0435194696	-3.2706238383	 1.6516690313	 0.251655
H	-2.4175504989	 0.7060956066	 1.3743036264	 0.250109
85.0386	126.5313	175.4691	238.3266	250.3559	379.7669	445.6873	478.2428	520.1242	528.1155	701.6681	747.6768	768.3889	797.9205	838.1808	957.9126	978.9888	992.5981	1016.7863	1064.636	1089.5942	1144.5056	1154.0051	1228.5985	1258.703	1273.2445	1299.8072	1343.1868	1368.5458	1400.3613	1411.1501	1425.092	1442.1751	1482.3454	1500.2354	1507.6318	1529.1947	1851.1271	2998.1526	3022.9548	3030.4306	3032.2838	3065.5399	3073.1575	3097.8345	3107.7163	3646.666	3651.5978
CCC1CNC(=O)N1	CC[C@H]1CNC(=O)N1	
InChI=1S/C5H10N2O/c1-2-4-3-6-5(8)7-4/h4H,2-3H2,1H3,(H2,6,7,8)	InChI=1S/C5H10N2O/c1-2-4-3-6-5(8)7-4/h4H,2-3H2,1H3,(H2,6,7,8)/t4-/m0/s1
