21
gdb 92511	2.53779	1.56221	1.10499	1.5052	86.99	-0.2181	0.0162	0.2343	1175.1068	0.182207	-387.076747	-387.067956	-387.067012	-387.109969	33.807	
C	 0.0260232948	 1.5240720069	-0.0116474965	-0.393026
C	-0.0565094941	 0.0019526277	 0.0256529807	 0.061145
O	 0.6038538998	-0.5221511438	-1.1513274193	-0.293222
C	 1.313532347	-1.6793983685	-0.7631229766	 0.095962
C	 2.8847263289	-1.7748963811	-0.714798367	-0.24954
C	 2.7511985505	-2.2906100229	 0.7704812259	-0.315012
C	 1.3722003891	-1.6627685921	 0.7249084503	 0.117289
C	 0.6701646558	-0.6453567478	 1.2158557123	 0.153454
C	 0.6324932859	-0.0889005887	 2.6026426899	-0.499486
H	 1.0649709396	 1.8574772742	 0.0728858664	 0.116469
H	-0.3754054472	 1.8887459694	-0.9610710567	 0.127567
H	-0.5575592417	 1.9700749986	 0.7999530508	 0.111748
H	-1.120011925	-0.2935434981	-0.008910635	 0.074253
H	 0.8830495085	-2.5755314998	-1.2339982128	 0.07214
H	 3.3715019387	-2.4391216346	-1.4331953759	 0.099048
H	 3.332438537	-0.7800991932	-0.7515612522	 0.114594
H	 2.7429988132	-3.3840926911	 0.8167915152	 0.113187
H	 3.4553515685	-1.9097076567	 1.5128696566	 0.110705
H	 0.9280880585	 0.9665699847	 2.6292862888	 0.128301
H	-0.3789751742	-0.1410841932	 3.0267539578	 0.128576
H	 1.2978125062	-0.64694646	 3.2668915773	 0.125846
90.4215	143.1031	160.8588	217.0579	237.3819	254.2069	338.0116	390.1103	428.8118	508.3369	588.0432	678.9244	695.8569	724.1485	799.0769	831.8166	881.8783	901.7808	919.9419	996.3419	1016.7809	1043.7063	1075.7404	1086.4338	1104.7439	1120.8444	1141.9739	1150.5568	1175.3858	1214.2128	1235.7592	1253.579	1284.0393	1314.9743	1361.048	1372.7446	1399.7497	1413.3483	1468.2418	1476.6742	1484.6751	1487.6748	1491.196	1497.414	1764.5912	2939.6034	2989.2913	3017.1003	3038.1227	3053.9801	3064.0253	3064.8442	3109.6457	3110.7229	3113.0944	3119.4414	3137.5896
CC1OC2CCC2=C1C	C[C@H]1O[C@H]2CC[C]2[C]1C	
InChI=1S/C8H12O/c1-5-6(2)9-8-4-3-7(5)8/h6,8H,3-4H2,1-2H3	InChI=1S/C8H12O/c1-5-6(2)9-8-4-3-7(5)8/h6,8H,3-4H2,1-2H3/t6-,8+/m1/s1
