17
gdb 91510	2.70682	1.3719	1.14619	3.174	69.38	-0.2511	-0.033	0.2182	1118.1971	0.133339	-458.942045	-458.9332	-458.932256	-458.976064	32.298	
C	 0.5086150037	 0.5663477591	 1.1071900379	-0.484997
C	-0.1723413319	 0.3669122908	-0.2287437778	 0.268877
O	 0.260677426	 0.8050495923	-1.27197596	-0.30287
C	-1.4395347708	-0.4155238869	-0.2380929113	 0.279558
O	-2.1279374197	-0.7041508347	 0.9949576835	-0.291477
C	-1.7115752449	-1.8133415683	 0.1994482975	-0.034407
C	-2.7546825566	-2.0238767133	-0.8960421259	-0.29503
C	-2.5025746459	-0.5320785963	-1.3488416546	 0.083952
O	-3.5650815897	 0.3716393176	-1.2867595677	-0.430326
H	 1.4857860836	 1.024264905	 0.9508697495	 0.142473
H	-0.1083269861	 1.2140617347	 1.7395733074	 0.155824
H	 0.6126119558	-0.3814478528	 1.6445281312	 0.140071
H	-1.0336185266	-2.5228872938	 0.6598723995	 0.119432
H	-2.4545711319	-2.7512832157	-1.6533343393	 0.120272
H	-3.7627350871	-2.2513080736	-0.5413407823	 0.115853
H	-2.063114655	-0.4618978803	-2.3443672777	 0.124148
H	-3.8591371929	 0.3896365463	-0.3673206299	 0.288646
62.2096	108.8682	124.3317	172.1216	181.6592	304.612	393.8831	443.3013	463.8862	493.4939	569.6427	601.5615	677.0164	727.4974	820.2579	867.5052	893.88	929.4863	964.9883	987.4133	1032.42	1049.5169	1085.2412	1122.9169	1153.2663	1191.5622	1218.2527	1256.3028	1287.3488	1321.9508	1382.7041	1408.0965	1439.2054	1455.3926	1468.6554	1472.0479	1793.8143	3044.8579	3070.9978	3106.2973	3120.2331	3134.098	3157.0279	3189.3453	3780.0715
CC(=O)C12OC1CC2O	CC(=O)[C@]12O[C@H]1C[C@H]2O	
InChI=1S/C6H8O3/c1-3(7)6-4(8)2-5(6)9-6/h4-5,8H,2H2,1H3	InChI=1S/C6H8O3/c1-3(7)6-4(8)2-5(6)9-6/h4-5,8H,2H2,1H3/t4-,5+,6-/m1/s1
