21
gdb 116469	2.10488	1.67746	1.10012	0.917	75.26	-0.2381	0.0861	0.3242	1181.5672	0.18227	-461.359588	-461.350344	-461.3494	-461.393482	34.32	
C	-0.0412075152	 1.4484156704	 0.0142280124	-0.239543
O	 0.0052021214	 0.0331272689	 0.0459365608	-0.238769
C	-1.2537739888	-0.5735965503	-0.0347864806	 0.204426
O	-1.878115214	-0.3446456306	-1.2850258902	-0.27002
C	-1.2133036776	-1.0109690393	-2.3600146677	-0.090469
C	-1.1279736904	-2.5023179409	-2.0758471483	-0.077154
O	-0.4529338573	-2.7277557475	-0.8502506712	-0.26055
C	-1.1026353438	-2.0802169652	 0.2360051148	 0.096284
C	-0.3186270292	-2.3904244628	 1.4996822897	-0.407433
H	 0.9884008154	 1.8034880948	 0.0941310505	 0.126908
H	-0.4840723514	 1.8180125128	-0.9176755253	 0.124605
H	-0.623673306	 1.8455691165	 0.8594145073	 0.106762
H	-1.9430320461	-0.1287619145	 0.6998995952	 0.069729
H	-1.8039973792	-0.8088935329	-3.2581274646	 0.104359
H	-0.2041228105	-0.6011308284	-2.4944120221	 0.110195
H	-2.1433924742	-2.9315253511	-2.038732188	 0.090834
H	-0.5576044418	-3.0190926744	-2.853925353	 0.106808
H	-2.1317742758	-2.4710855279	 0.3224522922	 0.067232
H	 0.6934415492	-1.9899414267	 1.4206033305	 0.143098
H	-0.8043435083	-1.9437200788	 2.3728507235	 0.11137
H	-0.2656017862	-3.4721765321	 1.6466449642	 0.121329
95.9879	115.4515	157.1455	196.3595	223.3576	227.1968	292.369	337.084	356.123	440.3122	470.1976	588.4349	603.2622	711.9777	829.9501	878.3572	891.9837	952.405	970.6018	1004.808	1075.1763	1091.0744	1119.3103	1127.6023	1140.8447	1159.7504	1182.1105	1192.8339	1219.6426	1277.4998	1302.0653	1346.0773	1374.4163	1381.85	1387.7057	1407.9061	1414.8937	1420.6346	1475.2161	1483.0975	1484.2053	1486.3522	1489.0238	1499.2447	1513.035	2949.2816	2968.7506	2987.3432	2993.7265	3026.9575	3050.483	3064.9161	3083.642	3095.6797	3119.4007	3125.7674	3146.4157
COC1OCCOC1C	CO[C@H]1OCCO[C@H]1C	
InChI=1S/C6H12O3/c1-5-6(7-2)9-4-3-8-5/h5-6H,3-4H2,1-2H3	InChI=1S/C6H12O3/c1-5-6(7-2)9-4-3-8-5/h5-6H,3-4H2,1-2H3/t5-,6-/m0/s1
