14
gdb 16197	3.27876	2.35184	1.5197	3.3859	64.08	-0.2441	-0.0387	0.2054	805.3384	0.10693	-382.543501	-382.536853	-382.535909	-382.574417	25.12	
O	 0.0629380885	 0.0373783635	-0.0211016217	-0.30211
C	 0.0055446531	 1.2371875985	 0.00871042	 0.338028
C	-1.2568142601	 2.1105738558	-0.0042229178	-0.386678
C	-0.7031030268	 3.5140925971	-0.0066375426	-0.091059
C	 0.6326929331	 3.5485992904	 0.0317373469	-0.154454
C	 1.1999773241	 2.1829297436	 0.0719162839	 0.320613
C	 2.4652165925	 1.759057266	 0.7022086783	-0.234842
O	 2.3535698916	 1.8380564288	-0.7105964739	-0.264197
H	-1.8793315861	 1.8811683153	-0.877766957	 0.145908
H	-1.8708687328	 1.8859457476	 0.877151662	 0.144059
H	-1.3430265771	 4.3882212642	-0.0343387845	 0.112626
H	 1.2497132384	 4.438382715	 0.0304938585	 0.116029
H	 3.0988936508	 2.5104002154	 1.1724648804	 0.119805
H	 2.5243113209	 0.7508747089	 1.1096221775	 0.136272
86.9688	239.9157	252.2168	259.6839	457.0772	478.2529	565.1011	625.6435	664.5283	735.795	766.7724	840.5345	882.6694	950.761	965.1195	980.4698	995.3856	1054.3318	1129.991	1133.1893	1153.4885	1168.0237	1255.0288	1283.1716	1335.2738	1428.6155	1442.8001	1508.911	1665.2153	1859.2489	3033.8707	3063.5395	3080.0033	3176.8576	3196.8911	3221.3865
O=C1CC=CC11CO1	O=C1CC=C[C@]21CO2	
InChI=1S/C6H6O2/c7-5-2-1-3-6(5)4-8-6/h1,3H,2,4H2	InChI=1S/C6H6O2/c7-5-2-1-3-6(5)4-8-6/h1,3H,2,4H2/t6-/m1/s1
