20
gdb 36709	5.44029	0.69526	0.64382	4.1749	84.73	-0.2477	0.0177	0.2654	1699.6402	0.172084	-366.046904	-366.038035	-366.037091	-366.081527	32.585	
N	-0.0823766326	-1.1722829858	-0.1579037723	-0.305796
C	-0.0722181786	-0.0193997799	-0.0784706832	 0.258429
C	-0.0347559446	 1.4378820827	 0.0211571704	-0.345984
C	 1.3999381423	 2.0015726995	-0.0474374467	-0.2051
C	 1.4374909376	 3.5288127523	 0.0404224647	 0.033835
C	 0.9235968167	 4.125201099	 1.3828861431	-0.262936
C	 1.8095830576	 5.3304839887	 1.5907001975	-0.064287
C	 2.8555852459	 5.3303042639	 0.7670345136	-0.058833
C	 2.8615333841	 4.1250016166	-0.1414948938	-0.283055
H	-0.6439788929	 1.8568803553	-0.7887623092	 0.150266
H	-0.517369356	 1.7313685864	 0.9601415739	 0.155106
H	 1.9941079176	 1.567934035	 0.7657817406	 0.118971
H	 1.8635086715	 1.6699684665	-0.9832901341	 0.119209
H	 0.8080258006	 3.9355512471	-0.7617630212	 0.078759
H	-0.1421002027	 4.3794877476	 1.3494101447	 0.103749
H	 1.0426666591	 3.4111022042	 2.2127076556	 0.104765
H	 1.612345344	 6.0732579264	 2.3556738664	 0.094432
H	 3.6453155735	 6.0733001915	 0.755885873	 0.095037
H	 3.6393391527	 3.4106149916	 0.1683173894	 0.107025
H	 3.0748051339	 4.3714428415	-1.1878862125	 0.106409
50.3409	87.0614	106.0805	137.5348	224.6319	350.2594	389.6417	394.72	422.1676	528.6751	633.3343	717.3672	765.671	781.7511	836.3144	919.6429	930.1487	944.6761	972.4277	977.6732	981.2976	1018.8884	1060.0643	1100.3161	1104.5814	1133.9015	1156.6718	1171.83	1246.915	1276.2548	1294.3655	1312.7195	1320.8232	1334.146	1361.3189	1379.8129	1391.6488	1468.0711	1484.467	1488.6652	1498.6106	1690.1885	2361.9545	2986.3937	2995.8223	3013.3023	3033.6842	3043.4772	3049.6955	3055.7472	3068.9916	3090.055	3183.0688	3208.36
N#CCCC1CC=CC1	N#CCC[C@H]1CC=CC1	
InChI=1S/C8H11N/c9-7-3-6-8-4-1-2-5-8/h1-2,8H,3-6H2	InChI=1S/C8H11N/c9-7-3-6-8-4-1-2-5-8/h1-2,8H,3-6H2
