20
gdb 62655	2.56794	1.62198	1.47528	1.7263	79.02	-0.2382	0.0687	0.3068	1026.0683	0.16938	-403.061096	-403.052449	-403.051504	-403.093539	34.172	
C	-0.1017423342	 1.5483243342	-0.0252771388	-0.464194
C	-0.0635313166	 0.0267594243	 0.0537338243	 0.276907
C	-1.3963294099	-0.5707704232	-0.3776419581	-0.454496
N	 1.1590478106	-0.5985504827	-0.6487185182	-0.188726
C	 2.0711318171	-0.2608117728	 0.5573075034	-0.076875
C	 2.6022666875	-1.6931591704	 0.6230436039	-0.280326
C	 1.1104235535	-1.8211357264	 0.3120481735	-0.037673
C	 0.6949422101	-0.6350711782	 1.2184287974	 0.315034
O	 0.3630619407	-0.762359029	 2.5575989286	-0.469347
H	 0.8317325951	 2.0127628074	 0.3023980832	 0.112967
H	-0.2903020906	 1.8685677791	-1.0554711716	 0.129025
H	-0.9120445726	 1.9448763271	 0.5967094598	 0.113604
H	-1.6278701725	-0.2789109187	-1.4075544454	 0.123165
H	-1.4046457434	-1.661632877	-0.3260882268	 0.119501
H	-2.2032831821	-0.2020124324	 0.2644078493	 0.117232
H	 2.619605123	 0.6802993229	 0.5951992047	 0.08085
H	 3.2883647212	-1.9903451485	-0.1738973268	 0.105892
H	 2.9294977375	-2.0516472077	 1.6009219575	 0.10809
H	 0.5326770562	-2.7085035963	 0.0567520673	 0.086202
H	 0.3249806194	 0.1167148584	 2.9509536227	 0.283167
149.9307	189.0093	190.6068	229.6943	257.4745	283.8851	311.0762	370.0973	375.7546	535.8857	546.7407	611.9779	639.9352	753.918	826.0587	873.2384	898.4082	904.0197	928.566	944.6345	947.9736	996.4808	1001.1814	1026.6276	1058.854	1099.915	1141.9408	1160.0027	1164.8737	1204.6316	1214.1549	1235.9662	1256.4404	1284.487	1327.1546	1380.1948	1404.1646	1418.0263	1479.9406	1481.8113	1490.8886	1504.4218	1507.2589	3033.2008	3039.7281	3065.4573	3093.9447	3101.0255	3107.0953	3117.5752	3120.1199	3129.3333	3132.4818	3800.8376
CC1(C)N2C3CC2C13O	CC1(C)N2[C@@H]3C[C@H]2[C@]13O	
InChI=1S/C7H11NO/c1-6(2)7(9)4-3-5(7)8(4)6/h4-5,9H,3H2,1-2H3	InChI=1S/C7H11NO/c1-6(2)7(9)4-3-5(7)8(4)6/h4-5,9H,3H2,1-2H3/t4-,5+,7+
