19
gdb 100638	2.60151	1.09454	0.96753	4.0454	72.08	-0.2713	0.03	0.3013	1287.7272	0.157593	-456.342175	-456.331762	-456.330817	-456.377199	38.144	
C	-0.0694570774	 1.5827614868	 0.1281584385	-0.414202
C	 0.0156908131	 0.0494024935	 0.0514646827	 0.063503
N	 0.7133046479	-0.4625957287	 1.2406696448	-0.52905
C	-1.3631573854	-0.4982670117	-0.0324412103	 0.273613
N	-2.4235399112	-0.9591518765	-0.0222716253	-0.346774
C	 0.7935987139	-0.4318596513	-1.2013830986	 0.127546
O	 0.1152882992	 0.0363815362	-2.3439661421	-0.438103
C	 2.2586744861	 0.0213045751	-1.244190004	-0.109167
O	 2.8135784223	-0.3248648393	-2.5135319027	-0.422012
H	 0.9145449657	 1.9956399299	 0.3609072169	 0.132543
H	-0.4208438897	 1.9828785411	-0.8234518577	 0.15888
H	-0.7648132594	 1.8865871758	 0.9154179395	 0.1293
H	 0.2638266105	-0.1049440568	 2.0788534549	 0.243711
H	 0.628515835	-1.4750652428	 1.2851929404	 0.241563
H	 0.7854014964	-1.5387794619	-1.1788279581	 0.06203
H	 0.7607124176	-0.0083025847	-3.0630310559	 0.293708
H	 2.3218867127	 1.1108967253	-1.1893653047	 0.122762
H	 2.8278420844	-0.4031218698	-0.4116295871	 0.118575
H	 2.9762837382	-1.2743821005	-2.5210058613	 0.291576
73.7457	108.7236	130.6548	190.5102	232.0514	240.8346	268.1275	283.752	320.8191	335.5586	374.6287	427.8401	432.1154	522.6739	540.0977	604.7545	629.1569	756.6083	878.4512	901.0992	928.3933	994.7193	1019.9901	1049.7627	1070.5497	1141.407	1158.8295	1184.1075	1218.3339	1288.5501	1342.9133	1359.1273	1380.1376	1395.1602	1411.2456	1441.3842	1492.2297	1498.9674	1501.0199	1660.6059	2344.0146	2912.9982	3055.5334	3059.1757	3115.4894	3128.856	3158.9254	3487.6115	3565.066	3749.3586	3808.5978
CC(N)(C#N)C(O)CO	C[C@@](N)(C#N)[C@@H](O)CO	
InChI=1S/C5H10N2O2/c1-5(7,3-6)4(9)2-8/h4,8-9H,2,7H2,1H3	InChI=1S/C5H10N2O2/c1-5(7,3-6)4(9)2-8/h4,8-9H,2,7H2,1H3/t4-,5+/m0/s1
