17
gdb 55072	3.25119	0.95228	0.87332	4.9512	72.91	-0.2356	0.0092	0.2448	1351.6405	0.13589	-455.195515	-455.186298	-455.185354	-455.230497	33.025	
N	 0.0487200324	 0.2681417778	 2.3619352485	-0.535018
C	 0.0442975938	-0.368500597	 1.1606394758	 0.44749
O	 1.0354916966	-0.3911570926	 0.4385499383	-0.403047
C	-1.2369039531	-1.0390582055	 0.7931796764	-0.174339
C	-1.6008830561	-1.0719889012	-0.688402607	-0.314807
C	-1.1616347136	-2.3313193707	-0.0246359878	 0.065799
N	 0.1021948108	-2.9203150082	-0.3209267571	-0.283163
C	 0.2809104414	-4.2666717626	-0.3321075697	 0.149023
O	-0.5926465087	-5.0949977449	-0.1689915052	-0.333766
H	 0.8961741482	 0.7240146367	 2.6578339418	 0.266155
H	-0.7565217896	 0.2986847818	 2.9610991568	 0.264521
H	-2.0490605101	-0.9653607447	 1.5090152715	 0.088905
H	-2.6453902221	-0.9536301464	-0.9527467568	 0.126159
H	-0.890184887	-0.5860330763	-1.34769586	 0.142536
H	-1.9013017118	-3.0900388449	 0.1973402464	 0.143117
H	 0.8933207397	-2.2902499839	-0.3699267248	 0.274409
H	 1.3385676791	-4.5332738273	-0.5226744373	 0.076025
36.0966	90.2831	152.767	160.0745	217.8921	234.6241	276.2573	376.1698	411.7186	485.1261	584.8552	651.51	660.3614	727.6112	762.5091	803.1908	832.4811	875.5537	951.4112	1008.9448	1029.495	1062.63	1074.5032	1121.0079	1127.6772	1152.2744	1210.7153	1261.9563	1291.3558	1360.1929	1429.798	1441.6904	1467.5581	1548.6908	1615.9721	1753.685	1796.04	2945.5859	3139.1222	3157.6562	3208.288	3235.6945	3564.7612	3607.6374	3745.454
NC(=O)C1CC1NC=O	NC(=O)[C@H]1C[C@H]1NC=O	
InChI=1S/C5H8N2O2/c6-5(9)3-1-4(3)7-2-8/h2-4H,1H2,(H2,6,9)(H,7,8)	InChI=1S/C5H8N2O2/c6-5(9)3-1-4(3)7-2-8/h2-4H,1H2,(H2,6,9)(H,7,8)/t3-,4+/m0/s1
