20
gdb 120354	3.13558	0.96416	0.78164	3.0913	81.34	-0.2152	-0.0011	0.2141	1493.7402	0.171147	-403.20307	-403.193828	-403.192884	-403.237772	34.025	
C	 0.0485517803	 1.6192165807	 0.0822226056	-0.38163
C	 0.0042606037	 0.0895021696	 0.0299873142	-0.175012
C	 0.6690507727	-0.4776378657	-1.2278396324	-0.16325
C	 0.6531976334	-2.0163727117	-1.2987415226	-0.179699
C	-0.6817686413	-2.6694734107	-1.5693452234	-0.144393
C	-0.5792946568	-3.4196042168	-2.670663548	-0.02767
N	 0.7164987872	-3.3616633535	-3.2063538457	-0.32505
C	 1.5286413725	-2.5224943416	-2.4649818826	 0.410539
O	 2.6801982683	-2.2434768213	-2.7098182487	-0.378573
H	 1.080901375	 1.9852116676	 0.0633724803	 0.118535
H	-0.4730483459	 2.0597090418	-0.7747022144	 0.115223
H	-0.424729468	 2.001046204	 0.9921553438	 0.111548
H	 0.5015771383	-0.3232408763	 0.9178204168	 0.096394
H	-1.0393449393	-0.2464473423	 0.0812987768	 0.095952
H	 0.1759449748	-0.0736145269	-2.1212839856	 0.097414
H	 1.7167255031	-0.1576337138	-1.2766273142	 0.120367
H	 1.0996393894	-2.4055338144	-0.3716773275	 0.113427
H	-1.5670756385	-2.5577513472	-0.9624845401	 0.10756
H	-1.3248322606	-4.0319414555	-3.157860152	 0.127895
H	 1.0230608317	-3.8025948961	-4.0573155103	 0.260423
68.853	82.1735	109.6244	144.7243	247.2752	265.1258	288.2685	337.3941	465.0916	509.4721	580.8814	651.5317	692.1393	728.9726	749.6756	808.0871	847.3442	892.5466	908.4767	918.5069	974.7239	1039.2499	1069.5158	1085.624	1112.8212	1125.7905	1146.6419	1198.8038	1235.7832	1242.607	1308.1023	1326.1414	1338.5632	1374.3703	1390.8846	1410.8723	1413.6118	1483.6716	1494.5017	1500.046	1510.3365	1665.7258	1831.5897	3003.6986	3013.974	3026.825	3031.6632	3042.3118	3073.702	3098.6861	3103.1921	3232.0844	3257.147	3665.4166
CCCC1C=CNC1=O	CCC[C@H]1C=CNC1=O	
InChI=1S/C7H11NO/c1-2-3-6-4-5-8-7(6)9/h4-6H,2-3H2,1H3,(H,8,9)	InChI=1S/C7H11NO/c1-2-3-6-4-5-8-7(6)9/h4-6H,2-3H2,1H3,(H,8,9)/t6-/m0/s1
