15
gdb 76604	3.11769	1.11741	1.07315	3.4687	73.32	-0.247	-0.0757	0.1714	1161.519	0.109563	-457.715888	-457.707156	-457.706212	-457.749354	32.618	
O	 0.1542382436	 1.3767079319	-0.0120840015	-0.411822
C	 0.0674442045	 0.0072628053	 0.0487777072	 0.089416
C	-0.3999481094	-0.7277943884	 1.241887545	 0.089462
O	-0.7929334968	-0.112882792	 2.4055120704	-0.411826
C	-1.3354053966	-0.7109042992	-0.0288012494	-0.303746
C	-2.4922932902	 0.1631580172	 0.0558771349	 0.281169
O	-2.4753066802	 1.217172329	 0.7109351628	-0.419695
C	-3.6832401716	-0.2359915326	-0.6560191881	 0.245523
C	-4.6715381324	-0.5765139847	-1.2526018549	-0.358415
H	-0.6550137285	 1.7496526834	 0.3763772283	 0.305778
H	 0.8247630878	-0.4625339355	-0.5712692144	 0.127937
H	 0.0368746012	-1.7017368811	 1.4401808652	 0.12796
H	-1.3589518153	 0.6425154313	 2.1733825624	 0.305759
H	-1.429392376	-1.6123018603	-0.6207899228	 0.113846
H	-5.5516014002	-0.8647829242	-1.7749347253	 0.218654
63.4963	142.8639	177.7725	198.8992	262.9713	287.2331	364.1299	400.4015	454.8422	537.5836	615.8489	626.6598	633.814	651.3529	690.089	703.2163	767.0677	806.0516	881.5985	955.8107	958.238	1059.7994	1095.8161	1144.7594	1148.7423	1246.1683	1350.3705	1372.0459	1395.041	1425.2339	1497.0212	1639.5546	2217.8945	3160.7595	3169.4638	3197.1529	3493.4444	3639.7127	3659.5829
OC1C(O)C1C(=O)C#C	O[C@H]1[C@@H](O)[C@H]1C(=O)C#C	
InChI=1S/C6H6O3/c1-2-3(7)4-5(8)6(4)9/h1,4-6,8-9H	InChI=1S/C6H6O3/c1-2-3(7)4-5(8)6(4)9/h1,4-6,8-9H/t4-,5+,6-
