17
gdb 124529	3.58445	1.16852	1.09105	2.9759	75.76	-0.251	-0.0884	0.1627	1174.3779	0.135644	-414.17611	-414.167603	-414.166659	-414.21009	30.49	
C	-0.0302309271	 1.541465233	 0.0226626399	-0.396161
C	 0.0229800759	 0.002489106	 0.002530842	-0.055201
C	 0.7196257161	-0.5188742767	-1.2682120483	-0.396144
C	 0.7177239423	-0.5175512336	 1.235057897	 0.406892
N	 0.0458783601	-1.2973337675	 2.0834381911	-0.270246
C	 0.7677577243	-1.6883231468	 3.1276902468	 0.109824
N	 2.0417668016	-1.3683922406	 3.3628471778	-0.173607
N	 2.6471082899	-0.589530405	 2.4772013389	-0.053324
N	 2.0040295486	-0.1581265767	 1.4150983397	-0.203577
H	 0.9794460948	 1.9607841187	 0.0298198341	 0.145918
H	-0.5520988215	 1.9070056845	-0.8665711723	 0.121973
H	-0.5622538368	 1.911791727	 0.9042535826	 0.122798
H	-0.9962008602	-0.3936531312	 0.0424897607	 0.101955
H	 1.7559052536	-0.1725883509	-1.3078881564	 0.145817
H	 0.7212496907	-1.612562286	-1.3033588919	 0.122852
H	 0.1963675353	-0.1519672869	-2.1560593851	 0.122025
H	 0.2905570623	-2.3280900574	 3.8660769232	 0.148205
33.2395	105.3567	203.7655	225.3871	260.1663	264.9236	305.8073	308.5733	480.491	587.6005	599.2294	706.3965	807.7222	876.1413	907.3317	937.9208	950.528	972.062	1004.5656	1034.2852	1090.5162	1114.0417	1159.7363	1187.16	1266.8177	1309.6576	1345.1744	1372.309	1393.2882	1405.9792	1427.7705	1486.7485	1491.7383	1500.8375	1511.9214	1538.2074	1568.5506	3040.1805	3042.719	3066.6449	3110.8656	3113.1801	3123.5394	3129.2228	3172.6774
CC(C)C1=NC=NN=N1	CC(C)c1ncnnn1	
InChI=1S/C5H8N4/c1-4(2)5-6-3-7-9-8-5/h3-4H,1-2H3	InChI=1S/C5H8N4/c1-4(2)5-6-3-7-9-8-5/h3-4H,1-2H3
