21
gdb 119896	4.13292	0.7896	0.71163	1.9681	81.72	-0.2357	0.0229	0.2586	1606.784	0.182989	-424.227005	-424.217693	-424.216749	-424.26182	34.238	
O	-0.0968238654	 1.4842498335	-0.1230442534	-0.417703
C	 0.0314029299	 0.0723971863	-0.058273216	-0.063712
C	-1.3755411445	-0.5124842424	 0.0934515723	-0.280205
C	-1.3976668133	-2.0202590949	 0.0807863263	 0.296979
C	-1.5370742513	-2.7482565672	 1.1901326549	-0.171203
C	-1.5891800912	-4.2517538113	 1.1865241092	-0.115961
O	-1.7234156969	-4.8103960057	-0.1055582541	-0.24526
C	-0.8724895797	-4.1887518596	-1.0517630604	-0.081587
C	-1.2547496521	-2.7216312898	-1.2532648532	-0.297229
H	 0.7836946366	 1.8638063356	-0.1951546135	 0.285848
H	 0.5125773363	-0.3239393594	-0.9666870422	 0.085078
H	 0.647946421	-0.2384960953	 0.7995762019	 0.089046
H	-1.8044087883	-0.1313695209	 1.025765587	 0.108568
H	-1.9892813005	-0.1172317142	-0.726666855	 0.108832
H	-1.6261380226	-2.2672133619	 2.1620778176	 0.082746
H	-0.6916981713	-4.6576834472	 1.69163992	 0.092905
H	-2.4552977072	-4.604540609	 1.7598084028	 0.116127
H	 0.1790846189	-4.2574835105	-0.7254387209	 0.085433
H	-0.9753912659	-4.7604940152	-1.978458143	 0.105266
H	-2.1989977064	-2.6521802728	-1.8110964923	 0.116185
H	-0.4970502362	-2.226441368	-1.874033488	 0.099848
63.6735	81.5975	95.5586	193.245	257.3999	266.9687	319.379	329.537	333.0359	469.0439	526.9265	555.7455	721.8304	789.7069	814.1975	843.2761	870.4827	929.6473	991.0243	1004.4584	1030.4216	1038.7226	1069.1401	1076.2855	1098.3206	1159.5511	1181.5773	1215.468	1229.2702	1242.1658	1258.6408	1299.7037	1310.8843	1334.0645	1340.8488	1374.1897	1390.4434	1423.5558	1454.291	1468.3577	1486.2676	1488.6472	1502.4909	1526.3573	1740.0775	2921.0484	2963.7396	2969.1019	2996.5929	3011.5411	3026.4172	3044.0258	3048.0313	3082.8742	3085.2607	3147.848	3830.1106
OCCC1=CCOCC1	OCCC1=CCOCC1	
InChI=1S/C7H12O2/c8-4-1-7-2-5-9-6-3-7/h2,8H,1,3-6H2	InChI=1S/C7H12O2/c8-4-1-7-2-5-9-6-3-7/h2,8H,1,3-6H2
