18
gdb 25629	3.41989	0.96164	0.75768	2.0732	93.5	-0.188	0.0263	0.2144	1504.1472	0.147399	-364.843212	-364.833622	-364.832678	-364.879257	33.913	
C	-0.0435976501	 1.4925887292	-0.0395968751	-0.509057
C	-0.0114002449	 0.0377430933	-0.0430886402	 0.183223
C	 0.0115015287	-1.1698743251	-0.0462846335	-0.117624
C	 0.0249290685	-2.5851775817	-0.0510385887	 0.119669
C	 1.1569073139	-3.387870186	 0.0305842444	 0.188446
C	 2.5958168624	-3.0144347529	 0.1400107047	-0.522597
N	 0.7294583504	-4.6891056649	-0.0067699547	-0.286252
C	-0.6422356804	-4.7453034959	-0.1098666445	-0.081219
C	-1.1097629696	-3.4592256494	-0.1396915834	-0.279713
H	 0.5192638494	 1.9119075563	-0.8820121129	 0.142428
H	-1.0718061089	 1.8642550565	-0.1157256549	 0.14584
H	 0.3861148534	 1.904729904	 0.8811595567	 0.142427
H	 3.0551699204	-3.3981677488	 1.0597568657	 0.125559
H	 3.1874318636	-3.3909529617	-0.7040364001	 0.12556
H	 2.6829628713	-1.9260222227	 0.1509974187	 0.151265
H	 1.337409443	-5.4885247871	 0.0355677807	 0.258463
H	-1.1579021036	-5.6908183622	-0.1523866692	 0.117812
H	-2.1400908072	-3.1503905808	-0.2157013037	 0.095771
19.9271	86.0677	98.9648	111.0952	225.9641	258.118	279.0361	350.7182	469.9002	473.7472	487.6042	543.0249	630.1787	684.9803	686.8993	721.6145	826.9879	907.8179	968.1167	987.3836	1052.5681	1052.7256	1061.1253	1103.4076	1111.9302	1169.5194	1275.2334	1332.9118	1400.3921	1413.6699	1424.7194	1476.6153	1477.0607	1480.2614	1484.1063	1496.8388	1527.1239	1611.4458	2351.9082	3014.7112	3017.7363	3058.907	3072.01	3079.9694	3129.0824	3254.5087	3274.8529	3677.2417
CC#CC1=C(C)NC=C1	CC#Cc1c(C)[nH]cc1	
InChI=1S/C8H9N/c1-3-4-8-5-6-9-7(8)2/h5-6,9H,1-2H3	InChI=1S/C8H9N/c1-3-4-8-5-6-9-7(8)2/h5-6,9H,1-2H3
