16
gdb 19448	3.17345	2.13383	1.57012	3.1722	64.86	-0.2587	0.0468	0.3056	842.586	0.129292	-383.677803	-383.670608	-383.669663	-383.70992	27.012	
C	 0.1246798112	 1.4989838813	-0.0587807777	-0.265942
O	 1.2263768934	 0.5840823568	 0.0013696638	-0.258982
C	-0.0779053899	 0.0485802535	-0.0028599068	 0.397369
C	-0.681346728	-0.820044744	 1.1110513521	-0.330185
C	-1.3845533994	-1.6860962355	 0.0139649386	-0.322723
C	-0.6219252029	-0.8992658613	-1.0640850528	 0.367573
C	-0.8703091463	-0.7139999517	-2.4939885735	-0.268425
O	 0.2096019251	-1.52908794	-2.0218983882	-0.257556
H	-0.03706397	 2.0976888362	 0.8371191951	 0.11713
H	 0.0102175921	 2.0308234933	-1.0025191987	 0.115146
H	 0.0854779016	-1.3661022448	 1.6654004066	 0.12694
H	-1.3364414651	-0.3075997094	 1.8184187874	 0.109906
H	-1.1463884115	-2.7510807985	 0.0320148466	 0.12507
H	-2.4690570902	-1.5611615046	-0.028831513	 0.112209
H	-1.6900038418	-1.2504136482	-2.9713927823	 0.116416
H	-0.5737378682	 0.213039967	-2.9837493671	 0.116054
33.6975	186.4198	218.0234	286.9826	348.9209	418.9932	502.9222	577.7526	598.1608	746.9477	836.0381	867.8093	873.9407	875.2777	914.9403	933.7598	982.9587	1096.1144	1104.6115	1114.4506	1125.0135	1137.108	1159.8426	1166.1724	1174.7429	1223.1142	1244.2196	1252.9911	1409.4912	1443.9787	1466.0899	1489.3463	1524.7204	1542.52	3068.6848	3073.4299	3075.1609	3077.7936	3118.2524	3134.5522	3160.9887	3165.5538
C1OC11CCC11CO1	C1O[C@]21CC[C@]12CO1	
InChI=1S/C6H8O2/c1-2-6(4-8-6)5(1)3-7-5/h1-4H2	InChI=1S/C6H8O2/c1-2-6(4-8-6)5(1)3-7-5/h1-4H2/t5-,6+
