22
gdb 6418	4.17722	0.89799	0.89501	2.7638	75.15	-0.2575	0.0657	0.3232	1443.9935	0.197461	-387.34825	-387.337799	-387.336855	-387.383541	37.941	
C	-0.0777832008	 1.5853903912	-0.0023856671	-0.378999
C	 0.0333872803	 0.0590602458	-0.0073872695	-0.192456
C	 0.7262229539	-0.4998020837	 1.241002681	 0.144265
O	 0.0558290265	-0.0952347428	 2.4367189489	-0.431582
C	 0.884498659	-2.0247316768	 1.1953531962	-0.217876
C	 1.7521198264	-2.5687295153	 2.3383364337	 0.142199
C	 1.7530868814	-4.0956072332	 2.4006228339	-0.406444
O	 3.0822406541	-2.0556032163	 2.258583361	-0.430988
H	 0.9144542338	 2.0497601617	-0.0062762825	 0.115579
H	-0.6209012056	 1.9477857813	-0.8804035458	 0.106664
H	-0.5986739403	 1.9308821622	 0.8943654338	 0.12621
H	-0.9686698836	-0.3900605294	-0.0851554681	 0.080776
H	 0.583391478	-0.2760215112	-0.8959242006	 0.093232
H	 1.7252915104	-0.0576970512	 1.3308004906	 0.100489
H	-0.8432046425	-0.4415564288	 2.3946397257	 0.272969
H	-0.1107716269	-2.4918031592	 1.2320846318	 0.079911
H	 1.3288461141	-2.3231537372	 0.2345555138	 0.080153
H	 1.3634140305	-2.1634367963	 3.2785807843	 0.103077
H	 2.1185043798	-4.5253728545	 1.4586740822	 0.102534
H	 2.4043385155	-4.4412667289	 3.2080619146	 0.124188
H	 0.7457122054	-4.4881807654	 2.5740017279	 0.113303
H	 3.4946193206	-2.4389011117	 1.475989714	 0.272798
65.8655	80.3875	122.6112	144.0169	221.2602	243.0842	258.3644	295.1982	309.239	326.9221	366.6165	450.7465	452.8303	489.9697	555.9645	780.6037	829.6055	855.6888	899.0188	938.76	978.3467	1020.4082	1046.8441	1066.5157	1086.912	1107.3685	1132.6351	1174.425	1182.5266	1264.794	1272.0511	1321.472	1328.4351	1365.747	1378.8801	1392.5233	1403.7478	1408.7126	1428.0916	1429.0555	1465.0768	1483.1005	1491.6735	1495.518	1496.9853	1509.4296	2991.6874	2997.3304	3020.332	3029.4817	3037.9309	3043.4142	3062.2486	3064.9288	3092.551	3102.1122	3116.6802	3121.6404	3786.5045	3790.3657
CCC(O)CC(C)O	CC[C@@H](O)C[C@@H](C)O	
InChI=1S/C6H14O2/c1-3-6(8)4-5(2)7/h5-8H,3-4H2,1-2H3	InChI=1S/C6H14O2/c1-3-6(8)4-5(2)7/h5-8H,3-4H2,1-2H3/t5-,6-/m1/s1
