18
gdb 54323	2.22457	1.52512	1.11859	4.1374	73.22	-0.2411	-0.0159	0.2252	1133.6375	0.145608	-439.120003	-439.110617	-439.109673	-439.154643	34.06	
C	 0.1549737873	 1.3822831975	-0.2926987245	-0.497872
C	 0.1023028738	-0.1223867589	-0.1479627136	 0.363806
O	 1.0840869586	-0.8216933913	-0.2787186946	-0.321484
C	-1.2266471379	-0.751018537	 0.2026667579	 0.236934
C	-1.418773414	-2.1964852177	-0.2305910397	-0.300978
C	-1.1530322612	-1.89900321	 1.2044343991	-0.25019
N	-2.3990282718	 0.0759049041	 0.2290816541	-0.364102
C	-2.7313824546	 0.8968714834	 1.2669715189	 0.134495
O	-2.0722026617	 1.0530261358	 2.2709784588	-0.316039
H	 1.1698079337	 1.6809708006	-0.5554513633	 0.139931
H	-0.5468833838	 1.7273468135	-1.0592360469	 0.126998
H	-0.1452723833	 1.84879125	 0.6515377032	 0.172444
H	-2.4229164752	-2.4850292042	-0.5214929153	 0.116536
H	-0.6113376156	-2.6136819627	-0.8199655409	 0.147085
H	-0.1657346528	-2.1148222719	 1.5932198422	 0.147257
H	-1.9684934141	-1.9610057151	 1.9136558158	 0.135296
H	-3.0109104714	 0.0659266375	-0.572921039	 0.250183
H	-3.6922872962	 1.4180422464	 1.0818643977	 0.0797
50.1007	76.5781	153.5414	199.3681	207.421	265.4587	273.1644	343.5991	382.8405	457.4923	530.434	539.3846	611.9123	642.8483	778.3235	806.7774	860.3502	913.741	956.8289	998.2095	1004.3224	1034.8461	1055.3433	1068.8377	1100.4375	1160.7169	1179.5458	1204.1086	1308.2831	1329.3547	1383.1029	1430.5589	1444.287	1464.4486	1475.6375	1476.8351	1504.3897	1791.312	1807.2986	2932.5951	3042.162	3107.3138	3140.2164	3157.2502	3159.0084	3236.7344	3256.5591	3610.6085
CC(=O)C1(CC1)NC=O	CC(=O)C1(CC1)NC=O	
InChI=1S/C6H9NO2/c1-5(9)6(2-3-6)7-4-8/h4H,2-3H2,1H3,(H,7,8)	InChI=1S/C6H9NO2/c1-5(9)6(2-3-6)7-4-8/h4H,2-3H2,1H3,(H,7,8)
