18
gdb 31826	4.95359	1.01599	0.85316	1.891	86.74	-0.2053	-0.0312	0.1741	1364.8445	0.148746	-398.188689	-398.179784	-398.17884	-398.222769	32.101	
C	-0.037535458	 1.4433696137	 0.1002588235	-0.324817
N	 0.0164428949	 0.0046904996	-0.0231094428	-0.34859
C	 0.6320762509	-0.6469418752	-1.0579192796	 0.388861
C	 1.0454795275	 0.0017612675	-2.2423602497	-0.095691
N	 1.60818361	-0.6593617099	-3.2427141679	-0.286615
C	 1.785852487	-1.9828688934	-3.10663339	 0.298065
C	 2.42160361	-2.7307018654	-4.2465400133	-0.471751
C	 1.3841279903	-2.6103936577	-1.9273480359	-0.061702
N	 0.8174637034	-1.9654880698	-0.9100697389	-0.329972
H	 0.9575087888	 1.9128351282	 0.1025725655	 0.124573
H	-0.6194211714	 1.8892023581	-0.7150871212	 0.136683
H	-0.5370376053	 1.6965545656	 1.0372325143	 0.132865
H	-0.0701345726	-0.5519004825	 0.8122040072	 0.247195
H	 0.9139168266	 1.0720878339	-2.3723760019	 0.100608
H	 2.530335032	-3.7932289994	-4.0126729576	 0.117993
H	 1.8202082378	-2.6394023692	-5.15729451	 0.135202
H	 3.4125492251	-2.324727058	-4.4751619031	 0.134993
H	 1.5292477128	-3.681045716	-1.7968812185	 0.102098
71.4088	76.7903	126.2178	180.9129	200.4599	331.3894	346.4778	404.1667	442.4212	468.4479	554.2578	559.476	663.3169	750.4285	792.9163	872.4215	900.6045	957.382	1005.76	1037.7201	1061.7863	1092.7687	1157.9777	1179.2142	1251.3961	1278.2224	1313.7749	1337.3599	1404.0257	1414.8615	1466.962	1474.4777	1476.4448	1484.9908	1495.6981	1523.1905	1552.6586	1587.7523	1631.5872	2991.7274	3035.7014	3053.812	3093.0549	3117.6134	3127.5351	3145.1031	3164.1148	3635.2257
CNC1=CN=C(C)C=N1	CNc1cnc(C)cn1	
InChI=1S/C6H9N3/c1-5-3-9-6(7-2)4-8-5/h3-4H,1-2H3,(H,7,9)	InChI=1S/C6H9N3/c1-5-3-9-6(7-2)4-8-5/h3-4H,1-2H3,(H,7,9)
