13
gdb 42262	3.07428	1.18572	1.01522	4.5005	71.66	-0.2797	-0.071	0.2087	1146.3069	0.087177	-415.564508	-415.555969	-415.555024	-415.598385	29.912	
O	-0.3157739119	 0.0008277672	-0.3208386602	-0.301136
C	-0.2625069742	 1.1657329778	-0.0203299005	 0.326453
C	 0.9840604707	 1.9475803179	-0.152144472	 0.234296
N	 1.965050548	 2.5430954252	-0.2881216936	-0.315944
N	-1.2796730713	 1.8985032588	 0.5542788344	-0.093625
C	-1.7835953131	 3.1872581887	 0.1408189813	-0.245524
C	-2.6668118215	 1.9547044264	 0.1093530608	-0.202898
C	-3.0512083585	 1.3807669989	-1.1490030278	 0.350032
C	-3.3920712101	 0.9016348366	-2.1962515829	-0.425651
H	-1.9227466003	 3.9177151416	 0.9320538697	 0.149852
H	-1.4514313346	 3.5798561402	-0.8159485276	 0.160591
H	-3.3851253025	 1.8364729791	 0.9170223456	 0.145464
H	-3.6853752606	 0.4700314118	-3.1218987471	 0.218091
56.1198	96.6707	136.3986	206.048	235.7354	266.0201	321.1624	462.57	508.699	552.916	621.8919	642.386	684.2709	712.5244	766.9963	819.2413	912.5682	998.7028	1058.8805	1103.1588	1128.2499	1153.4253	1169.1128	1363.4492	1415.4622	1505.4655	1792.6298	2248.162	2347.2882	3119.8875	3142.2552	3217.7918	3499.9975
O=C(C#N)N1CC1C#C	O=C(C#N)N1C[C@H]1C#C	
InChI=1S/C6H4N2O/c1-2-5-4-8(5)6(9)3-7/h1,5H,4H2	InChI=1S/C6H4N2O/c1-2-5-4-8(5)6(9)3-7/h1,5H,4H2/t5-,8?/m1/s1
