19
gdb 69744	2.84255	1.51151	1.26183	2.9213	79.25	-0.2263	-0.021	0.2053	1066.921	0.15871	-385.86058	-385.852681	-385.851736	-385.892761	31.434	
C	-0.0029931298	 1.5592707064	 0.0428073195	-0.500558
C	 0.040341872	 0.0588176793	 0.0123937341	 0.367893
C	-0.883240731	-0.8119137879	 0.8173553909	-0.355186
C	 0.6038513298	-0.9575625185	 1.017118095	-0.102122
C	 1.2791824541	-1.7577903816	-0.1204991183	-0.027118
C	 0.5048674983	-2.9317952902	-0.7887794404	-0.376682
C	-0.118120742	-1.9044653034	-1.7700126964	 0.393008
O	-0.8985381599	-1.9940166225	-2.6721270202	-0.297971
C	 0.6943412097	-0.7436427239	-1.1540032217	-0.212728
H	 0.9732810763	 1.9951372182	-0.1983917565	 0.11757
H	-0.729234601	 1.9488947625	-0.6807297055	 0.129251
H	-0.2969463763	 1.9213715716	 1.0336952248	 0.119203
H	-1.3897670716	-0.2921057555	 1.62539419	 0.112881
H	-1.4908561709	-1.5923330151	 0.3678939797	 0.120789
H	 1.0569025183	-0.7757522873	 1.9851102777	 0.086482
H	 2.3563145094	-1.8764993837	-0.0189940851	 0.078218
H	 1.1585402752	-3.6292973809	-1.3240414368	 0.130338
H	-0.194129636	-3.5129439998	-0.1815371557	 0.129189
H	 1.3196359253	-0.1547703476	-1.8264747251	 0.087544
102.314	146.4401	209.5794	255.0809	328.3953	371.8355	437.3938	471.4359	517.795	591.3115	665.0728	736.5203	771.9186	803.7828	856.2431	882.442	893.9698	934.085	967.8767	988.2383	996.7644	1036.9128	1052.8942	1065.5429	1086.2266	1112.9369	1118.1853	1135.0061	1170.7944	1208.0707	1218.6326	1254.413	1286.9572	1303.0564	1392.2683	1420.2542	1431.8826	1483.2672	1497.8593	1507.2015	1883.7964	3019.9144	3051.2152	3080.0846	3094.3034	3105.7218	3108.655	3116.6075	3129.0373	3171.2529	3194.4068
CC12CC1C1CC(=O)C21	C[C@]12C[C@H]1[C@H]1CC(=O)[C@@H]21	
InChI=1S/C8H10O/c1-8-3-5(8)4-2-6(9)7(4)8/h4-5,7H,2-3H2,1H3	InChI=1S/C8H10O/c1-8-3-5(8)4-2-6(9)7(4)8/h4-5,7H,2-3H2,1H3/t4-,5+,7+,8+/m1/s1
