20
gdb 116767	4.49816	0.6115	0.58889	3.0641	81.28	-0.2541	-0.037	0.2171	1940.1322	0.166606	-440.289984	-440.279194	-440.27825	-440.327393	36.98	
C	 0.2889041327	 0.7863885256	-0.5996452226	-0.397279
C	-0.3407296953	 0.1252315691	 0.6307147902	-0.112125
N	-1.4829235716	-0.7548652771	 0.4478522117	-0.226465
C	-1.9613143661	-0.9635198045	-0.6916670565	 0.128901
O	-3.0484354457	-1.7648768645	-0.8318687168	-0.218081
C	-3.4600866059	-2.0741809733	-2.1598878484	 0.014972
C	-2.8075266239	-3.3452204564	-2.6904809536	-0.393112
C	-4.9838010396	-2.1659528628	-2.1214152792	 0.150005
O	-5.6364922956	-2.7747646376	-2.926039522	-0.239841
H	 1.1321454065	 1.4097419164	-0.2877992072	 0.118905
H	 0.6704441152	 0.0460820948	-1.3112433283	 0.118935
H	-0.4221202284	 1.4318048979	-1.1267154516	 0.119163
H	 0.4250605668	-0.4563653425	 1.1606148011	 0.116387
H	-0.6500676088	 0.9031145125	 1.3412710622	 0.116406
H	-1.6016068379	-0.5466411041	-1.6417043819	 0.079499
H	-3.2259177301	-1.2250556543	-2.8251135841	 0.109471
H	-3.2617311114	-3.6147690244	-3.6467077223	 0.146882
H	-1.7328954161	-3.2013090124	-2.8291719478	 0.121837
H	-2.9622394113	-4.1669717762	-1.9864161967	 0.142366
H	-5.4405167636	-1.5993440062	-1.2816658059	 0.103173
34.014	58.0043	74.0366	125.6982	171.1586	205.6302	231.6068	234.4564	283.7426	322.1648	394.0036	407.4287	446.1087	573.7032	655.4602	779.2335	837.6343	895.0707	916.007	961.5368	977.6516	1067.5225	1087.4189	1128.11	1130.6347	1147.0005	1150.4479	1235.4437	1314.6379	1325.7337	1339.1714	1378.2685	1390.4154	1399.5699	1408.6811	1427.3256	1483.8966	1484.2677	1495.2066	1495.4256	1506.9173	1783.2005	1841.525	2913.0879	2963.4484	3017.0329	3026.8808	3035.0836	3038.4583	3053.1972	3099.3083	3108.5342	3129.8288	3141.3466
CCN=COC(C)C=O	CCN=CO[C@@H](C)C=O	
InChI=1S/C6H11NO2/c1-3-7-5-9-6(2)4-8/h4-6H,3H2,1-2H3	InChI=1S/C6H11NO2/c1-3-7-5-9-6(2)4-8/h4-6H,3H2,1-2H3/t6-/m0/s1
