16
gdb 123472	5.22	0.98902	0.87817	4.0045	70.07	-0.2605	0.0076	0.2681	1276.788	0.126449	-434.060382	-434.052738	-434.051794	-434.094772	27.056	
C	 0.1128075872	 1.342201774	 0.6018801272	-0.181468
C	-0.0265881508	-0.0659977287	 0.0754693412	 0.081361
C	-1.3253237799	-0.5830752808	-0.3692234242	-0.176886
O	-0.3351974911	-0.1764711336	-1.316012413	-0.228583
N	 1.3862928975	 1.9362799373	 0.2277919685	 0.03632
C	 1.8801839358	 2.2031518565	-1.0008432485	 0.018037
N	 3.083706623	 2.738703303	-0.9075672619	-0.273717
C	 3.2850944803	 2.7763115816	 0.4378438644	 0.037402
N	 2.2910052658	 2.302736373	 1.1718069277	-0.251351
H	-0.7063392646	 1.9592663459	 0.2185293694	 0.132079
H	 0.0809367037	 1.3556797034	 1.6932399853	 0.150102
H	 0.7289866117	-0.7698650919	 0.4244610795	 0.117499
H	-1.5201698271	-1.6527560493	-0.3252390077	 0.128577
H	-2.2073506961	 0.0533864021	-0.3122123227	 0.122204
H	 1.334999444	 1.9829510253	-1.9058777795	 0.160844
H	 4.1860279608	 3.1636114223	 0.8898079245	 0.12758
17.4384	73.3354	114.3201	280.7336	308.5947	366.5268	459.5537	661.4229	696.8864	758.6628	801.4449	866.8276	871.6422	906.664	951.3369	957.2104	975.5381	1036.7488	1096.5864	1117.2259	1159.4019	1164.2878	1167.1327	1215.7974	1228.7431	1291.0964	1311.401	1334.1053	1362.0004	1395.2349	1445.0906	1452.6642	1478.3896	1528.4296	1549.895	3057.7576	3089.4645	3116.7412	3131.4256	3178.7601	3259.9998	3268.0906
C(C1CO1)N1C=NC=N1	C([C@H]1CO1)n1cncn1	
InChI=1S/C5H7N3O/c1(5-2-9-5)8-4-6-3-7-8/h3-5H,1-2H2	InChI=1S/C5H7N3O/c1(5-2-9-5)8-4-6-3-7-8/h3-5H,1-2H2/t5-/m0/s1
