18
gdb 42942	2.42819	2.10699	1.46444	2.6924	75.34	-0.2357	-0.0197	0.216	929.8286	0.150593	-401.927336	-401.920671	-401.919727	-401.958149	27.765	
O	-0.0134943897	-0.0138339088	 0.0192925638	-0.334341
C	 0.0026569823	 1.1945782408	 0.0420118718	 0.404877
C	-1.2642098727	 2.0161274743	-0.0004619009	-0.123784
C	-1.6947034146	 2.9015016504	 1.130466537	-0.253622
N	-1.1173391469	 3.4808474989	-0.0721582118	-0.092618
C	 0.2905300431	 3.9210056751	-0.0323180663	 0.019412
C	 1.2009396984	 3.1898545268	 1.0012471577	-0.260101
C	 1.273005399	 2.0262876229	-0.0268354489	-0.11109
C	 1.0527099999	 3.1263091257	-1.1243391648	-0.231949
H	-2.0410018706	 1.5806920829	-0.6240132997	 0.116799
H	-2.7588540484	 3.0769796925	 1.2607634661	 0.127665
H	-1.1271088591	 2.8892667355	 2.0544228019	 0.125208
H	 0.3084644891	 5.0120029271	-0.0509123072	 0.082397
H	 2.1652077251	 3.6995082515	 1.068833418	 0.112309
H	 0.8474745771	 2.9853776582	 2.0131530295	 0.107466
H	 2.1507746043	 1.3816575834	-0.0665348324	 0.083388
H	 0.4952695789	 2.8628366545	-2.0261037961	 0.116117
H	 1.9999324647	 3.5974064483	-1.3953114578	 0.111864
129.8036	237.2256	345.8861	423.2917	430.7459	448.0635	486.1145	578.5586	681.9796	730.1025	755.9163	818.061	872.0759	881.6575	897.0016	905.4959	958.683	968.2017	1003.4458	1037.3874	1049.6356	1076.3298	1102.2412	1113.231	1135.8497	1152.0464	1169.7912	1234.1159	1244.8672	1263.8197	1269.0232	1285.9742	1323.4899	1341.86	1367.4368	1473.5505	1497.7671	1523.8688	1813.333	3067.2298	3068.9302	3093.4725	3116.5657	3119.8633	3125.7115	3129.1268	3143.5186	3210.4518
O=C1C2CN2C2CC1C2	O=C1[C@H]2CN2[C@H]2C[C@@H]1C2	
InChI=1S/C7H9NO/c9-7-4-1-5(2-4)8-3-6(7)8/h4-6H,1-3H2	InChI=1S/C7H9NO/c9-7-4-1-5(2-4)8-3-6(7)8/h4-6H,1-3H2/t4-,5+,6-,8?/m1/s1
