18
gdb 119206	1.85944	1.40053	0.93459	3.6098	74.1	-0.2664	0.0081	0.2745	1302.43	0.144936	-439.069252	-439.05949	-439.058545	-439.104322	35.019	
C	 0.171093281	 1.5024094926	 0.2245150947	-0.391373
C	 0.339633067	 0.011241963	 0.0047619271	-0.065129
O	 0.4713477905	-0.6135865301	 1.2894412395	-0.301279
C	 0.6647113225	-1.9908627206	 1.2621983321	 0.208616
C	 2.0729380828	-2.5096363465	 0.9605788895	-0.373321
C	 1.5786707515	-2.4692167081	 2.3809368912	 0.1049
O	 2.041219537	-1.5228492362	 3.2768998984	-0.42364
C	-0.4814930451	-2.7756684285	 0.8682386493	 0.257338
N	-1.398066572	-3.4029882502	 0.5437678636	-0.34844
H	 1.0429753841	 1.9230325946	 0.7339264018	 0.127403
H	 0.0563425897	 2.0098137977	-0.7375607228	 0.128944
H	-0.7156915731	 1.704794886	 0.830981854	 0.138992
H	-0.5308616297	-0.4126498394	-0.5127900479	 0.125458
H	 1.2306342714	-0.206550257	-0.6001147248	 0.1043
H	 2.1688691544	-3.4674851775	 0.4622352748	 0.141118
H	 2.7892817235	-1.7500455816	 0.6668477004	 0.13498
H	 1.3301164261	-3.4104233959	 2.8601919153	 0.131417
H	 1.7160777184	-0.6645776123	 2.970793874	 0.299715
63.2853	89.5312	138.998	150.8448	166.0751	245.3958	299.8487	310.2238	370.9251	403.2837	444.117	499.7321	575.4158	628.2856	707.0978	821.4602	826.4029	878.9448	921.1728	946.895	1020.0733	1044.192	1087.6948	1102.8407	1142.5009	1152.5556	1186.5489	1243.6412	1272.0473	1298.5554	1354.8076	1402.9847	1423.8061	1432.9681	1463.3727	1484.612	1499.3144	1525.2393	2343.9252	3007.7202	3047.2202	3049.1522	3122.1999	3128.2337	3138.2874	3172.1715	3236.8219	3747.932
CCOC1(CC1O)C#N	CCO[C@]1(C[C@H]1O)C#N	
InChI=1S/C6H9NO2/c1-2-9-6(4-7)3-5(6)8/h5,8H,2-3H2,1H3	InChI=1S/C6H9NO2/c1-2-9-6(4-7)3-5(6)8/h5,8H,2-3H2,1H3/t5-,6-/m1/s1
