21
gdb 60111	3.9451	0.96551	0.87434	3.1772	79.3	-0.2501	0.0747	0.3248	1406.2315	0.181182	-424.196112	-424.186914	-424.18597	-424.23038	35.104	
C	-0.0597858619	 1.633824158	 0.2651263147	-0.384505
C	-0.0924690056	 0.110782197	 0.3021819239	 0.159948
O	 0.0794029831	-0.2779466772	 1.6547314466	-0.44886
C	-1.411949429	-0.4533993547	-0.2644151122	-0.353977
C	-1.3758880286	-1.943384405	-0.433312498	 0.423797
C	-0.9144302995	-2.781741648	-1.642412102	-0.284261
C	-1.8703754309	-3.9278330873	-1.1558752775	-0.239765
C	-2.2593092605	-3.032919399	 0.0262238412	-0.042867
O	-1.044160282	-2.7388375487	 0.734143968	-0.301257
H	 0.857006689	 1.996610191	 0.73741147	 0.125194
H	-0.092329962	 2.0037962811	-0.7643155509	 0.105245
H	-0.9112998455	 2.0470384902	 0.8155494258	 0.118311
H	 0.7403508477	-0.2741559402	-0.313686144	 0.060653
H	-0.1648235725	-1.2099156762	 1.7227101442	 0.29778
H	-2.21924311	-0.1732489608	 0.4224549761	 0.111359
H	-1.6288143696	 0.0044804512	-1.2366109672	 0.101322
H	-1.2243195273	-2.3574650284	-2.6005341691	 0.108206
H	 0.1539300084	-3.0068157364	-1.6705992164	 0.113466
H	-2.695781944	-4.1068270517	-1.8487234592	 0.109128
H	-1.4078388946	-4.8788459155	-0.8831703683	 0.115432
H	-3.1783072843	-3.0075916095	 0.6016248842	 0.105651
49.1181	96.6127	143.6675	229.3511	241.8216	306.2982	311.0153	379.1974	449.6883	463.0708	477.2268	508.7246	705.6006	723.6337	772.89	838.1057	872.5681	892.0617	920.9394	940.7476	946.1511	960.6429	1004.7358	1051.349	1066.9606	1077.9702	1140.1025	1166.0224	1181.265	1212.2515	1219.1684	1247.2604	1260.6484	1299.7539	1310.8031	1333.3316	1380.9163	1400.0041	1437.3451	1457.5604	1463.1726	1464.6566	1484.9037	1491.3083	1500.2094	2933.9268	3030.6886	3039.2671	3065.2976	3072.8133	3078.412	3111.1714	3117.3085	3120.9434	3133.4215	3180.9242	3764.8607
CC(O)CC12CCC1O2	C[C@@H](O)C[C@]12CC[C@H]1O2	
InChI=1S/C7H12O2/c1-5(8)4-7-3-2-6(7)9-7/h5-6,8H,2-4H2,1H3	InChI=1S/C7H12O2/c1-5(8)4-7-3-2-6(7)9-7/h5-6,8H,2-4H2,1H3/t5-,6-,7-/m1/s1
