22
gdb 118430	2.06733	0.98829	0.75039	5.2019	79.14	-0.2436	0.0245	0.2681	1607.8595	0.193264	-441.522766	-441.512102	-441.511158	-441.559526	37.75	
C	 0.0487208366	 1.5409263653	-0.0754148061	-0.381232
C	 0.0589066123	 0.009913354	-0.045909264	-0.183259
C	-1.3523794064	-0.5845033745	 0.0390931092	-0.195332
C	-1.3923445369	-2.1226233671	 0.0566099518	-0.111711
N	-0.9023713286	-2.6731647423	 1.3262385703	-0.319001
H	-0.2974840952	-2.0076041164	 1.7912416394	 0.232563
H	-2.7305761136	-3.0287428843	 1.6112537887	 0.302715
C	-0.2285106868	-3.9676571131	 1.207674021	-0.329378
C	-2.8482575549	-2.5823098731	-0.1759953797	 0.425554
O	-3.4068512804	-2.4773775332	-1.2350923056	-0.348412
O	-3.4349606375	-3.0727021358	 0.9240207554	-0.368444
H	 1.0635187903	 1.943512898	-0.1469250308	 0.116332
H	-0.5207365094	 1.9137192472	-0.9334245607	 0.124309
H	-0.4111347497	 1.9520814496	 0.8298631705	 0.117971
H	 0.5536035196	-0.3742658129	-0.9471490751	 0.106238
H	 0.6715233853	-0.3275505593	 0.8014768567	 0.087868
H	-1.8680332882	-0.206964338	 0.932976556	 0.103523
H	-1.9396572144	-0.2550418106	-0.8237238466	 0.136133
H	-0.8099253868	-2.493874284	-0.7997082712	 0.094208
H	-0.9373344219	-4.7151975345	 0.8374917188	 0.143544
H	 0.6328417412	-3.9492146647	 0.5224302497	 0.116919
H	 0.1151194453	-4.2918165105	 2.1935649023	 0.12889
45.9749	78.1877	96.356	125.1271	135.8736	209.2417	247.3618	263.6017	288.8952	322.7217	349.8478	491.82	529.5051	653.153	732.1973	740.5878	761.3316	841.4054	884.0206	898.5428	924.45	974.0652	1033.9259	1064.063	1102.9316	1117.2719	1139.8478	1155.2291	1204.007	1234.7976	1265.1343	1285.035	1328.0815	1340.9101	1363.8185	1393.2661	1415.3737	1418.8451	1464.5291	1469.124	1483.6968	1491.8218	1497.7203	1500.0495	1509.9373	1516.8728	1869.3192	2988.563	2996.7248	3008.9453	3020.9365	3033.7024	3045.5619	3076.7488	3089.5891	3102.1484	3107.6866	3117.1449	3433.1103	3552.1415
CCCC([NH2+]C)C([O-])=O	CCC[C@@H](NC)C(=O)O	
InChI=1S/C6H13NO2/c1-3-4-5(7-2)6(8)9/h5,7H,3-4H2,1-2H3,(H,8,9)	InChI=1S/C6H13NO2/c1-3-4-5(7-2)6(8)9/h5,7H,3-4H2,1-2H3,(H,8,9)/t5-/m1/s1
