19
gdb 93527	2.34296	1.54179	1.11083	5.3153	71.95	-0.2545	0.017	0.2715	1138.0147	0.159106	-460.211305	-460.202445	-460.201501	-460.244939	33.276	
C	 0.2109810409	 1.5250963698	-0.1614070035	-0.399009
C	 0.1304917193	 0.0164978751	 0.0141594184	 0.148777
O	 0.5845032166	-0.5618859875	-1.2308255466	-0.245608
C	 1.1300595205	-1.7969828249	-1.3433023852	 0.408736
O	 1.2901597724	-2.2639565166	-2.4381854525	-0.325303
C	 1.5906123059	-2.5006812084	-0.0754989701	-0.317811
C	 0.8957430486	-2.0333934135	 1.2044434893	-0.266277
C	 0.882418215	-0.5043773576	 1.2385875316	 0.096147
O	 2.1967500652	 0.0364077594	 1.2162525518	-0.4307
H	 1.2517655668	 1.837959324	-0.2581657161	 0.149283
H	-0.3382658223	 1.8250332239	-1.0567152722	 0.130933
H	-0.2280587603	 2.0297811918	 0.7047471362	 0.113223
H	-0.9193581675	-0.2842388414	 0.1364222883	 0.08924
H	 1.4838089058	-3.5738121174	-0.2437525724	 0.133188
H	 2.6643757711	-2.2939942786	-0.0034913797	 0.144217
H	-0.1371167059	-2.4002326693	 1.2458212179	 0.111577
H	 1.4058217952	-2.4357562545	 2.0878055971	 0.096333
H	 0.3316321528	-0.149062416	 2.1236674335	 0.074439
H	 2.6640150099	-0.2763173082	 1.9972485941	 0.288617
71.3005	96.9831	202.5385	231.4615	256.0946	280.8393	315.0429	364.6815	429.7933	492.1253	526.3019	567.906	615.5102	720.5077	768.6155	832.7208	910.6562	922.7523	973.7113	992.5104	1027.7577	1068.3275	1092.741	1129.3444	1155.1225	1196.9679	1222.6564	1243.4625	1255.2384	1330.0198	1353.1886	1370.6834	1384.9781	1398.6838	1410.2002	1439.0923	1456.9545	1485.192	1492.5912	1498.1072	1841.409	2978.3182	3010.0263	3030.5628	3053.1173	3054.4243	3069.5107	3120.3978	3125.0414	3151.0169	3822.4488
CC1OC(=O)CCC1O	C[C@H]1OC(=O)CC[C@H]1O	
InChI=1S/C6H10O3/c1-4-5(7)2-3-6(8)9-4/h4-5,7H,2-3H2,1H3	InChI=1S/C6H10O3/c1-4-5(7)2-3-6(8)9-4/h4-5,7H,2-3H2,1H3/t4-,5-/m1/s1
