21
gdb 61805	3.21848	0.90413	0.80016	2.0297	79.55	-0.2488	-0.0216	0.2272	1474.3555	0.179198	-424.219383	-424.209123	-424.208179	-424.255328	37.535	
C	 0.1212307843	 1.511270672	-0.3647253368	-0.420446
C	-0.0471607258	 0.0183243542	-0.0529363806	-0.044083
C	 0.5853500438	-0.3296478591	 1.3155542717	-0.283486
C	 2.0814286079	-0.1259649073	 1.3290675221	 0.15659
O	 2.6865004424	 0.5436959852	 2.1262458771	-0.242681
C	-1.4875783424	-0.4939871295	-0.1093252131	 0.41936
O	-1.5632344044	-1.8988128672	-0.004208086	-0.47067
C	-2.6508940294	 0.2781169387	 0.4596349625	-0.326215
C	-2.5157652863	 0.0800755866	-1.0389035923	-0.312288
H	 1.1778071327	 1.7934390351	-0.32689675	 0.130931
H	-0.2466913531	 1.7612587985	-1.3627515013	 0.124273
H	-0.4018638276	 2.1398652856	 0.3637292764	 0.125882
H	 0.4954948819	-0.5547001749	-0.8182829824	 0.09024
H	 0.1402519894	 0.2558801016	 2.1263087417	 0.116562
H	 0.4149143799	-1.3964350941	 1.5168624166	 0.10801
H	 2.6184739228	-0.6652356484	 0.5120142883	 0.072173
H	-1.609493522	-2.1291616853	 0.9292216032	 0.284212
H	-3.4170024091	-0.2939133403	 0.9719928509	 0.113119
H	-2.483254426	 1.2707374812	 0.8618877957	 0.11716
H	-2.2699938037	 0.9407834983	-1.6483983007	 0.116127
H	-3.1762103452	-0.6394341009	-1.5077591031	 0.12523
49.5814	64.5759	75.159	178.1912	230.6728	257.6233	278.1506	281.2169	340.8717	373.4253	433.7793	459.7782	484.2149	559.3011	700.9827	774.7723	794.2282	893.0478	901.1214	928.6436	932.8393	957.7541	979.3791	1021.2086	1049.0745	1080.6877	1102.7449	1117.8553	1150.7757	1188.3974	1215.1032	1237.0766	1277.4649	1318.5339	1345.7587	1358.591	1368.8718	1421.5183	1430.2478	1450.9864	1463.7937	1496.4983	1505.2308	1506.8689	1833.7444	2845.1265	3006.9207	3017.1303	3043.447	3092.6041	3104.8638	3119.9498	3136.4407	3149.7616	3220.9302	3240.7015	3810.6716
CC(CC=O)C1(O)CC1	C[C@@H](CC=O)C1(O)CC1	
InChI=1S/C7H12O2/c1-6(2-5-8)7(9)3-4-7/h5-6,9H,2-4H2,1H3	InChI=1S/C7H12O2/c1-6(2-5-8)7(9)3-4-7/h5-6,9H,2-4H2,1H3/t6-/m0/s1
