14
gdb 75675	2.99176	1.29158	1.11984	3.9616	71.11	-0.236	-0.0407	0.1953	1082.8364	0.099017	-436.609396	-436.601285	-436.600341	-436.642161	30.494	
O	 0.042114444	 1.4544258882	-0.1010645133	-0.420734
C	 0.0638534108	 0.0711665504	 0.0069325725	-0.029287
C	 0.2811410123	-0.6233250612	 1.4084126446	 0.422729
O	 1.2053917672	-0.697525923	 2.1594635125	-0.297477
C	-1.07364648	-1.2925283263	 1.3235436311	-0.252906
N	-2.0241827317	-0.1532915748	 1.1165495701	-0.379233
C	-1.2909152997	-0.6874053905	-0.0520611505	 0.19144
C	-1.9359675416	-1.2577672923	-1.179032396	 0.10879
C	-2.4707187825	-1.7177834482	-2.1538003121	-0.361951
H	-0.6513167741	 1.76570592	 0.4959409228	 0.300092
H	 0.7909583548	-0.3191197811	-0.7115649351	 0.130271
H	-1.4157535156	-2.2418909733	 1.7146261643	 0.135517
H	-2.9642881452	-0.5486068842	 1.1064055356	 0.254718
H	-2.9402502988	-2.1280341537	-3.0138312465	 0.19803
79.5078	135.7106	181.4935	229.5236	276.2877	405.8299	472.4174	497.5458	507.3573	538.45	588.2864	610.2384	664.2493	685.0162	718.4901	819.166	830.7787	947.4689	962.5651	1010.1184	1037.074	1113.901	1148.1356	1164.7607	1240.6138	1268.0435	1326.1897	1378.6324	1435.8061	1906.0864	2237.2776	3084.9376	3211.9462	3481.3889	3499.079	3768.9713
OC1C(=O)C2NC12C#C	O[C@H]1C(=O)[C@H]2N[C@@]12C#C	
InChI=1S/C6H5NO2/c1-2-6-4(7-6)3(8)5(6)9/h1,4-5,7,9H	InChI=1S/C6H5NO2/c1-2-6-4(7-6)3(8)5(6)9/h1,4-5,7,9H/t4-,5+,6-/m1/s1
