21
gdb 59480	2.97128	1.02087	0.95738	1.9725	78.99	-0.2332	0.0676	0.3008	1356.9312	0.182602	-420.34907	-420.339448	-420.338504	-420.384076	35.646	
C	 0.5133949626	 1.202602453	 0.3833976042	-0.411118
C	-0.1430577174	-0.1248993592	 0.0032852998	 0.123522
O	-1.5439096805	 0.0247618927	-0.2275828604	-0.446186
C	 0.4152644668	-0.669324598	-1.2933917842	 0.003036
N	 1.7327027699	-1.3235196197	-1.2381897707	-0.358687
C	 0.5437227833	-2.1204970527	-1.5887484724	-0.053356
C	 0.1585587316	-3.2004974734	-0.6179150167	-0.002848
C	 1.0963946712	-4.3233053715	-0.3658623994	-0.243803
N	 0.8518664514	-3.3079495847	 0.6727896581	-0.316676
H	 1.5907714555	 1.07085737	 0.5224690251	 0.128896
H	 0.3459421429	 1.9519970475	-0.3974749824	 0.117121
H	 0.0978875038	 1.5886062184	 1.3213129498	 0.105274
H	 0.0351136582	-0.8580355696	 0.8008144584	 0.093726
H	-1.9350667386	 0.3942663443	 0.5701225202	 0.282716
H	 0.2136040115	-0.0218083806	-2.1463444773	 0.087491
H	 2.2855661222	-1.1035108379	-2.060494315	 0.236885
H	 0.4206781415	-2.397561848	-2.6353094669	 0.089045
H	-0.9109517163	-3.3936715396	-0.5662259674	 0.101288
H	 0.7157988537	-5.316395808	-0.1440962747	 0.114095
H	 2.0523476621	-4.3040141177	-0.8838825651	 0.108356
H	 1.6264268045	-2.6442880252	 0.6485914971	 0.241225
46.1781	92.179	110.4999	190.226	247.9775	259.1779	263.8143	294.4913	352.6724	421.9681	493.4613	560.2308	634.7239	744.4975	823.9896	854.4794	881.3167	892.6562	931.8654	967.1156	970.6144	995.0752	1032.6302	1044.2478	1088.2207	1110.8875	1124.4929	1131.2218	1151.4141	1182.6919	1196.9899	1219.3124	1258.9297	1289.5486	1295.4251	1319.9339	1361.0424	1375.8203	1396.1424	1400.0469	1438.6219	1478.5752	1492.5073	1506.2099	1511.5911	3024.9806	3027.3136	3095.0149	3104.0346	3105.3054	3113.5529	3118.438	3130.7482	3190.6288	3462.9083	3523.0694	3821.3947
CC(O)C1NC1C1CN1	C[C@@H](O)[C@H]1N[C@H]1[C@H]1CN1	
InChI=1S/C6H12N2O/c1-3(9)5-6(8-5)4-2-7-4/h3-9H,2H2,1H3	InChI=1S/C6H12N2O/c1-3(9)5-6(8-5)4-2-7-4/h3-9H,2H2,1H3/t3-,4-,5-,6+/m1/s1
