18
gdb 50843	3.7183	0.90629	0.75196	4.1863	75.07	-0.2512	-0.0232	0.228	1467.9694	0.148923	-435.26783	-435.258945	-435.258001	-435.302256	32.055	
N	 0.4357107137	 0.8560510239	-1.6859672294	-0.495713
C	-0.1296015708	 0.3432665987	-0.6743059229	 0.353644
C	-1.608745079	-0.0121604672	-0.724915319	-0.28215
C	-2.3418232349	 0.1784144211	 0.5827601475	-0.000241
C	-3.5657468193	-0.5802631833	 0.9155390187	-0.249388
N	-2.3006548264	-0.8883962274	 1.6177235078	-0.330101
N	 0.4937505879	 0.0198006751	 0.5561162505	-0.346109
C	 1.8223680482	 0.1762048188	 0.8642475666	 0.164575
O	 2.6837621162	 0.581508562	 0.1162319805	-0.298654
H	 1.4306681388	 1.0012739291	-1.5105954572	 0.252633
H	-2.0440579922	 0.5981519442	-1.5201657714	 0.146925
H	-1.7069832273	-1.0606900809	-1.0412455747	 0.116065
H	-2.2468964772	 1.1725687418	 1.0158230508	 0.11069
H	-4.3333611024	-0.1249055692	 1.533469021	 0.131114
H	-3.9341474057	-1.3020037908	 0.1914989075	 0.122558
H	-1.915871495	-1.7363030959	 1.2027771529	 0.230841
H	-0.1061708747	-0.2893980045	 1.3096802608	 0.276891
H	 2.0306623198	-0.1238126855	 1.9092098301	 0.096418
67.9258	83.8792	113.0313	175.9851	240.5762	265.7915	312.8634	351.8746	469.5406	507.1864	610.7559	686.753	763.0949	792.7966	835.8846	908.3884	936.4575	947.3409	978.5644	1002.1679	1028.2233	1054.7388	1088.6758	1130.8394	1150.1557	1188.1486	1201.7746	1262.2494	1273.9054	1310.5572	1313.628	1352.5096	1431.2854	1440.7851	1462.1405	1510.4162	1526.1303	1733.492	1812.4473	2950.9548	3012.7483	3104.0077	3116.3161	3128.7521	3203.9283	3466.9051	3484.7913	3578.388
N=C(CC1CN1)NC=O	N=C(C[C@H]1CN1)NC=O	
InChI=1S/C5H9N3O/c6-5(8-3-9)1-4-2-7-4/h3-4,7H,1-2H2,(H2,6,8,9)	InChI=1S/C5H9N3O/c6-5(8-3-9)1-4-2-7-4/h3-4,7H,1-2H2,(H2,6,8,9)/t4-/m0/s1
