17
gdb 99830	2.05157	1.43377	1.2276	4.8328	69.36	-0.2653	-0.0049	0.2605	1127.7028	0.133213	-455.179131	-455.168893	-455.167949	-455.214537	36.12	
C	 0.0379181257	 1.2013779409	-0.6788187722	-0.264309
O	-0.1835361894	-0.1904562538	-0.4880240821	-0.282873
C	-1.3992897503	-0.5662679464	 0.140204969	 0.127705
C	-1.5185565688	-0.0757351358	 1.5902683011	-0.426754
C	-2.5499896667	-0.0813158715	-0.6600464739	 0.280955
N	-3.4211614957	 0.3269184157	-1.3003333724	-0.340365
C	-1.4700896156	-2.1319775655	 0.1294531798	 0.382344
N	-0.608578525	-2.7151214362	-0.7294972629	-0.518764
O	-2.264332546	-2.7151136761	 0.8349903002	-0.360424
H	 0.9662293996	 1.2844281906	-1.2466403786	 0.140353
H	-0.7771373441	 1.6628320055	-1.249411431	 0.144545
H	 0.1563133839	 1.7280082746	 0.2752198172	 0.126403
H	-1.665758021	 1.0047867475	 1.6370228811	 0.131777
H	-2.3663882303	-0.5754688294	 2.0594112273	 0.172783
H	-0.605224536	-0.3425120449	 2.128824069	 0.135362
H	 0.0639854059	-2.1567082331	-1.2262309897	 0.280506
H	-0.5878387662	-3.7197792021	-0.7831038617	 0.270756
42.3855	97.2271	140.2664	164.0387	196.5132	234.3894	240.1961	299.957	324.6895	373.0957	400.4886	444.8462	454.4663	574.0061	615.9075	639.6277	676.768	768.1794	882.4306	918.2836	1070.3283	1105.0109	1130.5025	1167.6819	1175.612	1184.1594	1231.554	1358.697	1395.4892	1475.6882	1486.3122	1487.7116	1498.4052	1510.0567	1593.0723	1818.1409	2349.3044	3018.8735	3058.8807	3084.6139	3134.9951	3138.9245	3162.568	3604.8436	3744.5721
COC(C)(C#N)C(N)=O	CO[C@@](C)(C#N)C(=O)N	
InChI=1S/C5H8N2O2/c1-5(3-6,9-2)4(7)8/h1-2H3,(H2,7,8)	InChI=1S/C5H8N2O2/c1-5(3-6,9-2)4(7)8/h1-2H3,(H2,7,8)/t5-/m0/s1
