18
gdb 71655	3.15143	1.90424	1.89023	0.6329	72.27	-0.2364	0.0813	0.3177	846.866	0.150351	-401.917174	-401.910916	-401.909972	-401.947335	26.96	
C	 0.0132531704	 1.4626934148	 0.0651121763	-0.500924
C	 0.0328337792	-0.0418527353	-0.0254118077	 0.37699
C	 0.7878826997	-0.7443215527	-1.1810812885	-0.240728
C	 0.3840907922	-2.1335239141	-0.711190144	-0.040052
C	 0.3661163964	-1.9874696456	 0.8661855924	 0.03957
O	 0.6994550005	-0.6315873566	 1.116288531	-0.283557
C	-1.1652409858	-2.0254669892	 0.7431978685	-0.049739
C	-1.331570613	-0.7986442444	-0.0655046224	-0.099107
N	-1.1353350152	-2.11921165	-0.7511711044	-0.157589
H	 1.0318021536	 1.8538911998	 0.1376968319	 0.131051
H	-0.4590737933	 1.8920259424	-0.8232316289	 0.123841
H	-0.5427295361	 1.7914791806	 0.9478167797	 0.130474
H	 0.3830276599	-0.5204741563	-2.1716970832	 0.10876
H	 1.8606345154	-0.5412127954	-1.1445520697	 0.105604
H	 0.821043949	-3.0176072143	-1.1691478829	 0.081206
H	 0.9113921278	-2.6653362068	 1.5178334497	 0.084828
H	-1.9132774297	-2.5078732506	 1.3615943428	 0.094594
H	-2.2817258511	-0.3039540863	-0.2202262106	 0.094777
203.3224	270.9272	286.2194	442.5664	549.5043	577.5824	602.0575	671.9398	713.6236	784.6592	792.154	826.703	840.3567	859.4971	870.6787	904.9141	937.0013	943.2168	976.4094	999.5061	1023.2503	1039.3364	1054.3133	1096.5892	1144.0869	1169.596	1172.8738	1200.8314	1217.3324	1249.839	1262.3388	1279.0807	1308.4444	1323.921	1370.2396	1418.0871	1469.1802	1483.456	1497.0146	3044.9288	3065.7518	3117.9592	3119.9756	3127.8968	3148.4063	3157.3643	3179.1804	3202.247
CC12CC3C(O1)C1C2N31	C[C@@]12C[C@H]3[C@@H](O1)[C@H]1[C@@H]2N31	
InChI=1S/C7H9NO/c1-7-2-3-5(9-7)4-6(7)8(3)4/h3-6H,2H2,1H3	InChI=1S/C7H9NO/c1-7-2-3-5(9-7)4-6(7)8(3)4/h3-6H,2H2,1H3/t3-,4-,5+,6-,7-,8?/m0/s1
