20
gdb 71766	3.1428	1.83646	1.59242	1.5642	80.33	-0.2275	0.09	0.3175	934.6939	0.174238	-366.011475	-366.004641	-366.003697	-366.04215	29.054	
C	-0.066058806	 1.4832008277	 0.0177999509	-0.48371
C	 0.0245396215	-0.0218504007	-0.0210264119	 0.337749
C	-0.042134727	-0.7208912458	-1.3753863615	-0.300159
C	-0.578515965	-2.1018306779	-1.0462269787	-0.069654
C	 0.1145152164	-2.8522081211	 0.073517606	-0.069677
C	 1.2778142159	-2.1449074549	 0.7477400328	-0.254259
C	 0.7109014169	-0.7714923791	 1.0651789601	-0.083565
N	-0.7801975944	-0.7783998237	 0.9847201825	-0.160046
C	-1.1389277225	-2.0543696668	 0.3576693212	-0.025527
H	 0.7839382695	 1.9403903975	-0.5019618322	 0.113735
H	-0.9849194457	 1.8320978546	-0.4666208794	 0.118298
H	-0.0702278688	 1.8446069468	 1.0493856407	 0.126042
H	-0.7332405793	-0.1880044097	-2.0390095798	 0.101849
H	 0.9342236835	-0.7446538615	-1.8748862898	 0.102983
H	-1.0636953162	-2.6819464214	-1.8232948185	 0.083084
H	 0.0934272506	-3.9360012648	 0.0487465983	 0.083358
H	 1.5608077838	-2.6629373864	 1.6707293036	 0.106353
H	 2.1730372909	-2.0889661962	 0.1162672969	 0.104441
H	 1.1340436174	-0.2171139113	 1.8995577318	 0.08042
H	-2.0848751812	-2.4876448551	 0.655008557	 0.088284
186.8865	226.251	268.906	314.0293	425.6147	457.9082	565.8619	677.8275	703.9758	716.9746	727.2333	777.0092	797.3192	821.609	870.6392	911.3093	935.3513	970.088	989.4317	1015.4077	1020.2051	1045.007	1054.8126	1063.9625	1089.7372	1112.9711	1116.0532	1133.6518	1191.9204	1206.9499	1227.7032	1276.4604	1289.1623	1300.0305	1337.508	1345.3306	1404.5586	1414.9102	1432.127	1483.9995	1488.4963	1492.7871	1501.638	3025.1621	3029.1403	3031.3558	3061.6729	3067.745	3088.6338	3116.1794	3133.2013	3166.423	3174.7393	3197.9803
CC12CC3C4CC1N2C34	C[C@@]12C[C@H]3[C@H]4C[C@@H]1N2[C@@H]34	
InChI=1S/C8H11N/c1-8-3-5-4-2-6(8)9(8)7(4)5/h4-7H,2-3H2,1H3	InChI=1S/C8H11N/c1-8-3-5-4-2-6(8)9(8)7(4)5/h4-7H,2-3H2,1H3/t4-,5+,6+,7-,8-,9?/m1/s1
