19
gdb 57149	3.41593	0.70167	0.60907	4.0363	88.35	-0.2617	-0.0566	0.2051	1811.5027	0.156811	-385.858591	-385.848467	-385.847523	-385.896346	34.974	
C	 0.0576582822	 1.3564877115	 0.1881540565	-0.390289
C	-0.0438564325	-0.1723397608	-0.0085774168	-0.199001
C	-1.4424975419	-0.5967858338	 0.0145654699	 0.146774
C	-2.6035180755	-0.9327271034	 0.0335782369	 0.001433
C	-3.9849078685	-1.3343315309	 0.016528281	 0.016817
O	-4.624973036	-1.6458041903	 0.9954426626	-0.231326
C	 0.6473388795	-0.6223313393	-1.2914751803	 0.049251
C	 2.1352652646	-0.8619872054	-1.2918885662	-0.278747
C	 1.1797717362	-2.0235139097	-1.422030513	-0.268343
H	 1.1096138777	 1.6540208006	 0.2061028378	 0.125889
H	-0.4369075881	 1.8839612679	-0.6326043261	 0.12927
H	-0.4128193785	 1.6651538842	 1.1249191251	 0.132073
H	 0.4656132879	-0.6567549696	 0.8366221943	 0.111133
H	-4.4418893407	-1.3395685171	-0.9946153058	 0.094969
H	 0.2254849847	-0.1791608931	-2.1894352666	 0.092545
H	 2.7055785554	-0.5581937962	-2.1623839216	 0.116975
H	 2.6679937408	-0.7494750616	-0.3527945224	 0.114053
H	 1.0719720205	-2.6874035843	-0.570471502	 0.118862
H	 1.094102472	-2.5190208388	-2.3823294632	 0.117664
10.6503	63.2441	79.9287	127.4827	171.8237	231.2306	242.7055	256.7549	322.485	411.7087	470.3338	565.0579	616.3153	752.1867	801.3422	828.7059	835.0785	935.273	946.9623	984.0196	1022.5027	1042.7438	1060.7021	1079.2664	1085.8319	1137.5036	1158.9802	1196.4414	1209.0964	1226.4784	1293.4014	1321.0951	1399.3689	1412.9646	1423.3639	1470.7153	1491.1136	1498.3683	1506.4228	1765.4285	2323.9745	2911.2355	3005.4346	3045.1052	3121.0667	3127.2485	3129.6099	3135.3083	3145.0913	3208.9161	3224.0186
CC(C#CC=O)C1CC1	C[C@@H](C#CC=O)C1CC1	
InChI=1S/C8H10O/c1-7(3-2-6-9)8-4-5-8/h6-8H,4-5H2,1H3	InChI=1S/C8H10O/c1-7(3-2-6-9)8-4-5-8/h6-8H,4-5H2,1H3/t7-/m0/s1
