21
gdb 108880	3.44807	0.88801	0.80313	1.136	92.04	-0.2339	0.0232	0.2571	1524.227	0.181869	-349.94432	-349.934787	-349.933843	-349.979078	35.731	
C	 0.2524067545	 1.4316489556	 0.4765738495	-0.373114
C	 0.0328899248	 0.070714638	-0.2082820667	-0.288552
C	-1.3709588685	-0.4458899235	-0.082269338	 0.335357
C	-2.2423477435	-0.6329492335	-1.0744696525	-0.18326
C	-3.5568419475	-1.2316943494	-0.5976770571	-0.185553
C	-3.4688147354	-1.0260218399	 0.9464828536	-0.220193
C	-1.9597817438	-0.888717362	 1.2452826202	-0.312359
C	-4.7478950665	-0.6474760246	-1.2050912729	 0.316469
C	-5.7282529517	-0.160731431	-1.7031340238	-0.471041
H	 1.286585438	 1.7658249993	 0.3490303508	 0.114053
H	-0.4067183291	 2.193153498	 0.0485377628	 0.122985
H	 0.050867366	 1.3804592865	 1.5510545072	 0.119179
H	 0.2945164113	 0.1527788944	-1.269070921	 0.102982
H	 0.7281498438	-0.6601963246	 0.2285560024	 0.101649
H	-2.0544803197	-0.4360321769	-2.1239247974	 0.095243
H	-3.5607473945	-2.3093890709	-0.8266964167	 0.10536
H	-3.9819190023	-0.0945186605	 1.1999022137	 0.117452
H	-3.9535984331	-1.8329757428	 1.500594494	 0.102928
H	-1.5140463999	-1.8468058999	 1.5511580506	 0.104122
H	-1.7623352186	-0.186677239	 2.0626483921	 0.105013
H	-6.5934218144	 0.2678370065	-2.1445226208	 0.19128
52.1213	101.7028	126.6434	150.3883	214.5469	237.4851	313.5106	348.5452	457.5465	510.2381	552.1819	565.152	610.0873	628.7864	642.8912	785.402	835.7831	851.7135	879.7403	892.7924	959.7733	975.8782	1022.2222	1032.8643	1063.3523	1070.9139	1100.5606	1155.3509	1191.2318	1233.0238	1259.8003	1277.9074	1298.296	1304.7274	1341.0161	1354.2528	1369.9463	1405.7821	1479.5835	1483.8899	1497.1464	1499.4172	1507.8761	1715.5093	2233.746	2970.058	3000.2819	3008.4247	3037.6376	3056.3989	3061.3385	3069.708	3108.094	3111.8657	3114.6871	3196.1695	3505.3898
CCC1=CC(CC1)C#C	CCC1=C[C@@H](CC1)C#C	
InChI=1S/C9H12/c1-3-8-5-6-9(4-2)7-8/h1,7-8H,4-6H2,2H3	InChI=1S/C9H12/c1-3-8-5-6-9(4-2)7-8/h1,7-8H,4-6H2,2H3/t8-/m1/s1
