22
gdb 91802	2.27233	1.70929	1.25113	1.4596	81.26	-0.2187	0.0658	0.2845	1111.1102	0.194245	-404.338985	-404.329819	-404.328875	-404.372026	35.999	
C	 0.084349301	 1.6212256156	 0.0032612408	-0.402636
C	 0.1333405197	 0.0919615734	 0.0290755026	-0.028189
C	 0.8650063682	-0.5629266241	-1.1657834221	 0.053875
O	 1.9268507807	 0.2907692613	-1.5931065794	-0.419483
C	 1.3616217521	-1.9041681869	-0.576895117	-0.182395
N	 1.5043693001	-1.7646172554	 0.8815776525	-0.143814
C	 2.2804728127	-0.571886364	 1.2834752585	-0.298553
C	 0.7926582335	-0.525673213	 1.2672343446	 0.334071
C	 0.0014441456	-0.5470054828	 2.5522836605	-0.479812
H	 1.0892732227	 2.0474811122	 0.0125243533	 0.134886
H	-0.4245232577	 1.9834298522	-0.8954532629	 0.112655
H	-0.4620097099	 2.0024739608	 0.8717678644	 0.109698
H	-0.8988539115	-0.2853222498	 0.0071991836	 0.073033
H	 0.1727901951	-0.7275798999	-2.0037356015	 0.066652
H	 2.3959663168	-0.157685455	-2.3033509147	 0.283779
H	 0.6213250537	-2.6915695464	-0.7636391878	 0.103285
H	 2.3067475489	-2.2241679264	-1.0312649033	 0.093502
H	 2.7952998083	-0.6823274061	 2.2346851199	 0.103201
H	 2.8272682421	-0.0298953062	 0.5194562727	 0.130706
H	-0.1655368007	 0.4681469454	 2.929820463	 0.116815
H	-0.9785133613	-1.0154523535	 2.4031419573	 0.113165
H	 0.5324297797	-1.1130091717	 3.321740725	 0.125559
119.5269	181.5304	206.0042	217.0521	243.9417	269.5477	281.0393	312.2129	402.4119	419.3066	450.1366	543.017	616.5663	670.9759	770.3038	784.5311	799.7533	875.1623	916.0591	938.2159	974.8649	1003.0487	1013.8459	1051.4502	1076.3634	1093.7324	1122.8791	1130.5029	1145.8027	1184.4234	1216.1075	1249.5607	1271.1097	1314.8515	1331.3804	1340.8892	1369.4877	1394.0482	1406.0269	1418.3636	1426.5056	1481.2443	1486.1709	1493.7025	1497.1154	1499.798	1504.9918	2988.8435	3007.6775	3026.6071	3029.022	3043.1705	3068.0254	3086.6422	3102.6957	3109.4457	3117.9003	3135.8481	3209.0904	3823.2441
CC1C(O)CN2CC12C	C[C@H]1[C@@H](O)CN2C[C@@]12C	
InChI=1S/C7H13NO/c1-5-6(9)3-8-4-7(5,8)2/h5-6,9H,3-4H2,1-2H3	InChI=1S/C7H13NO/c1-5-6(9)3-8-4-7(5,8)2/h5-6,9H,3-4H2,1-2H3/t5-,6-,7-,8?/m0/s1
