24
gdb 100719	2.66936	0.94501	0.8304	3.2579	85.97	-0.2399	0.0368	0.2767	1537.5885	0.215165	-405.59961	-405.58789	-405.586946	-405.637107	41.976	
C	 0.1321667939	 1.5839446971	 0.1335638123	-0.390508
C	-0.0334508055	 0.0698443226	-0.0440191371	-0.192354
C	 0.7478523502	-0.523228042	-1.2316437064	 0.069479
C	 2.2579369647	-0.2650834287	-1.103988781	-0.413696
C	 0.4776687847	-2.0398262305	-1.4148403261	-0.079759
C	-1.0143203044	-2.4095521173	-1.5134292581	-0.405761
C	 1.1451683525	-2.5173616538	-2.7098494064	 0.408422
N	 2.0001103836	-3.5745471172	-2.5810072697	-0.526281
O	 0.8997855888	-2.0118599468	-3.7896084238	-0.380475
H	 1.1544648108	 1.8607059621	 0.4064928033	 0.117745
H	-0.1225383965	 2.1184438563	-0.7886369327	 0.116767
H	-0.528289653	 1.9542717027	 0.9239965444	 0.1103
H	 0.2695611224	-0.4415209092	 0.8813352337	 0.085647
H	-1.0996081336	-0.1411626899	-0.1732432406	 0.099206
H	 0.3975702733	-0.038278442	-2.1522506769	 0.096518
H	 2.6555373427	-0.7073411338	-0.1813689257	 0.101376
H	 2.8088729946	-0.6915692239	-1.947025525	 0.125598
H	 2.4826754291	 0.80406948	-1.0805876484	 0.117899
H	 0.9152746575	-2.5750702478	-0.5598670504	 0.05502
H	-1.5458422795	-2.2002095004	-0.5828417032	 0.116948
H	-1.4877522909	-1.8517226651	-2.3262417676	 0.13895
H	-1.1324198833	-3.4765779377	-1.7284534168	 0.11452
H	 2.2732951309	-3.9374302743	-1.6853900008	 0.256748
H	 2.4751447969	-3.9061263206	-3.405163337	 0.25769
43.284	53.7006	84.5996	150.9081	164.2954	213.5416	217.7515	223.2961	264.8535	282.4218	309.888	345.4314	400.6312	434.1414	513.1093	593.6441	621.9243	761.1764	784.0016	801.4549	832.766	901.6704	964.3407	985.6299	995.1665	1035.2226	1061.0424	1068.3222	1113.2347	1152.1037	1179.7355	1190.5048	1251.0835	1295.8194	1312.2037	1340.514	1373.9621	1381.1832	1394.397	1406.7321	1412.2209	1415.9269	1483.048	1495.0641	1497.4291	1498.6587	1505.3582	1507.9412	1518.1406	1613.9077	1788.7708	2998.1453	3004.3096	3022.8005	3034.2827	3035.0919	3042.4831	3070.7896	3097.5438	3098.5852	3107.4475	3110.6329	3119.7118	3130.3439	3598.7314	3739.514
CCC(C)C(C)C(N)=O	CC[C@@H](C)[C@@H](C)C(=O)N	
InChI=1S/C7H15NO/c1-4-5(2)6(3)7(8)9/h5-6H,4H2,1-3H3,(H2,8,9)	InChI=1S/C7H15NO/c1-4-5(2)6(3)7(8)9/h5-6H,4H2,1-3H3,(H2,8,9)/t5-,6-/m1/s1
