17
gdb 84718	2.79197	1.80146	1.32849	1.4027	67.64	-0.2565	-0.0001	0.2564	956.4843	0.138376	-458.96731	-458.960188	-458.959244	-458.999036	27.921	
O	-0.0914339588	 1.4608064521	 0.0265564109	-0.435287
C	 0.0277679575	 0.0557760179	 0.0388879182	 0.087963
C	 0.583768967	-0.514927337	 1.3275701948	-0.102455
C	-0.1237231215	-1.5469351283	 1.7831095743	-0.110044
C	-1.3275853918	-1.8400734188	 0.9194047806	 0.038162
O	-2.575032999	-1.7187492248	 1.6080397717	-0.245404
C	-2.8641166252	-0.34951719	 1.6060231577	 0.013422
O	-2.4062045855	 0.1676119547	 0.3599945478	-0.278937
C	-1.3429990278	-0.6719007348	-0.1017160999	 0.025104
H	-0.9846123972	 1.6447205446	 0.3500183552	 0.288046
H	 0.6795778627	-0.2121732486	-0.8036359701	 0.090806
H	 1.4819441316	-0.1078905009	 1.7791811112	 0.110789
H	 0.0904765784	-2.1311722435	 2.6708585473	 0.108165
H	-1.3146067367	-2.8368136641	 0.4710066011	 0.098735
H	-3.9470479725	-0.2128247379	 1.6736577498	 0.12432
H	-2.3576931878	 0.1717109565	 2.4345664787	 0.094078
H	-1.5686959733	-0.9657703072	-1.1289054095	 0.092536
80.3459	178.6601	255.3955	295.9051	388.2182	446.7541	494.4959	531.4964	636.349	734.1081	757.9098	813.4262	831.8429	877.9357	895.792	956.9061	988.3746	997.0353	1026.8165	1029.7673	1076.1772	1102.4814	1109.6925	1146.1538	1177.7027	1228.0857	1242.6334	1278.0123	1292.6189	1326.4464	1345.7943	1350.9835	1379.6235	1424.0992	1441.96	1539.4755	1678.8941	2969.178	3014.1301	3077.5366	3088.2581	3093.8049	3187.4342	3211.8196	3739.5533
OC1C=CC2OCOC12	O[C@H]1C=C[C@H]2OCO[C@@H]12	
InChI=1S/C6H8O3/c7-4-1-2-5-6(4)9-3-8-5/h1-2,4-7H,3H2	InChI=1S/C6H8O3/c7-4-1-2-5-6(4)9-3-8-5/h1-2,4-7H,3H2/t4-,5+,6-/m0/s1
