15
gdb 45025	2.44164	1.87488	1.22649	1.8095	68.2	-0.2561	-0.0288	0.2273	983.1203	0.114032	-453.960023	-453.952864	-453.95192	-453.991903	27.346	
N	-0.2038442305	 1.2788085596	-0.3458154193	-0.500431
C	-0.144058551	 0.0430937839	-0.1052031509	 0.40315
O	 1.0724633569	-0.6313278533	-0.0915449935	-0.235836
C	 1.1717021605	-1.9818323995	-0.3489126696	 0.38385
O	 2.2403767523	-2.5085248304	-0.2775686678	-0.292962
C	-0.1226928804	-2.6781543966	-0.7501266316	-0.288382
N	-1.3457940626	-2.1889128838	-0.125931919	-0.098783
C	-1.2665357758	-1.8096709283	 1.2769576822	-0.261661
C	-1.3459753257	-0.7602686449	 0.2103320679	-0.073847
H	 0.725538522	 1.6571644279	-0.5364717415	 0.238251
H	-0.2285863146	-2.5729998008	-1.8373828419	 0.154116
H	 0.001902787	-3.7412138477	-0.5336579174	 0.156511
H	-2.1535356831	-2.0210235015	 1.8654864808	 0.140133
H	-0.32356844	-1.9250340718	 1.8070691327	 0.142307
H	-2.274446245	-0.2280331529	 0.0386815188	 0.133584
97.1094	119.9029	249.9767	350.9399	377.2231	448.9359	486.5558	534.8897	584.4319	647.5537	695.7325	751.6125	858.0156	869.2152	911.3113	925.4009	992.4655	1024.1691	1052.065	1094.0461	1111.7272	1131.7923	1163.7145	1170.1482	1273.4283	1304.4914	1334.2411	1349.9653	1386.5628	1464.2751	1511.8648	1760.9155	1876.6399	3039.9955	3111.0857	3118.4829	3186.1454	3204.9212	3482.1075
N=C1OC(=O)CN2CC12	[NH][C]1OC(=O)CN2C[C@@H]12	
InChI=1S/C5H6N2O2/c6-5-3-1-7(3)2-4(8)9-5/h3,6H,1-2H2	InChI=1S/C5H6N2O2/c6-5-3-1-7(3)2-4(8)9-5/h3,6H,1-2H2/t3-,7?/m0/s1
