21
gdb 83358	2.12529	1.93573	1.52779	1.4512	76.29	-0.2415	0.0761	0.3176	1002.1344	0.184533	-424.243642	-424.235606	-424.234662	-424.275478	32.792	
C	-0.0092844167	 1.4887282376	 0.053379919	-0.494173
C	-0.0010619243	-0.0269603675	-0.0003584808	 0.270963
C	 0.6268355935	-0.6753510331	-1.2564244367	-0.258744
C	 0.1518622692	-2.1631836927	-1.1640138871	-0.233984
C	-0.7544520319	-2.1366789863	 0.0753014162	 0.05213
O	 0.057669035	-2.0358108807	 1.2616452777	-0.299489
C	 0.6410405325	-0.7130922005	 1.2260861794	-0.12593
C	-1.3865391791	-0.7399709738	 0.0234048199	 0.140237
O	-2.2119173143	-0.4280251256	 1.1207801839	-0.462483
H	 1.0022133729	 1.8950993631	 0.1665021719	 0.112318
H	-0.4343657421	 1.912680333	-0.8627700796	 0.114657
H	-0.613931767	 1.8352015876	 0.8973877181	 0.129665
H	 0.2479772492	-0.1922282786	-2.1630074757	 0.097577
H	 1.7161901969	-0.5770414389	-1.2675465569	 0.099799
H	-0.3995412887	-2.4754037905	-2.0559079541	 0.102121
H	 0.9745673547	-2.866282393	-1.0157451252	 0.111943
H	-1.4258553825	-2.9868515928	 0.2013503053	 0.076384
H	 1.7321898028	-0.786685631	 1.1399201558	 0.099426
H	 0.4047501953	-0.1945170069	 2.163489073	 0.097524
H	-1.9640207218	-0.5493233816	-0.8864476944	 0.078622
H	-1.8673600937	-0.9247357878	 1.8734186703	 0.291436
179.4955	205.8932	215.6595	234.7448	315.9358	328.9978	396.2075	411.344	454.985	558.073	597.8071	637.795	769.5759	794.1396	824.8527	874.8466	890.9935	920.2454	938.5774	960.4911	993.2771	1004.4791	1024.0155	1055.2735	1103.4917	1136.5863	1168.4595	1179.8	1215.8756	1227.0658	1242.5722	1264.6873	1289.2721	1303.5746	1310.8189	1323.9061	1344.0978	1393.9731	1410.1825	1436.4355	1479.7684	1493.1852	1498.4313	1503.4062	1529.4463	3013.4639	3028.0142	3043.7917	3050.7571	3059.6144	3071.5946	3084.019	3090.813	3105.3868	3112.4534	3116.7355	3781.3284
CC12CCC(OC1)C2O	C[C@@]12CC[C@@H](OC1)[C@H]2O	
InChI=1S/C7H12O2/c1-7-3-2-5(6(7)8)9-4-7/h5-6,8H,2-4H2,1H3	InChI=1S/C7H12O2/c1-7-3-2-5(6(7)8)9-4-7/h5-6,8H,2-4H2,1H3/t5-,6-,7-/m1/s1
