18
gdb 81491	2.28549	1.94624	1.21367	4.7104	76.8	-0.2708	0.0338	0.3046	1034.4484	0.147276	-401.904266	-401.895835	-401.894891	-401.936856	32.465	
C	-0.1572270324	 1.5452452639	 0.0102981161	-0.470937
C	-0.0158511512	 0.0138371387	 0.0058442303	 0.203843
C	-1.3654855262	-0.5047588622	-0.2388298488	 0.230474
N	-2.4744118963	-0.7402191181	-0.4699345398	-0.361494
C	 1.1693807245	-0.6693358608	-0.7781269079	-0.138985
C	 2.1291368492	-0.1475838745	 0.3280095335	-0.259307
C	 0.8880859934	-0.6945704013	 1.0927605455	-0.106655
C	 1.0031002606	-1.9220602862	 0.1515730525	 0.148453
O	-0.1125213227	-2.7549783711	 0.0848588475	-0.418127
H	 0.7848188779	 2.0638180052	 0.1860504447	 0.122969
H	-0.56098655	 1.8850576772	-0.9477692416	 0.140947
H	-0.8634227921	 1.849292632	 0.7882444169	 0.142542
H	 1.3213077887	-0.6506709584	-1.8585412522	 0.084685
H	 3.0519883304	-0.715877256	 0.4614825476	 0.105576
H	 2.3272868394	 0.9194396359	 0.3694474819	 0.112515
H	 0.7130800146	-0.704100071	 2.1685566841	 0.092393
H	 1.927289053	-2.5011320088	 0.2760047426	 0.077259
H	-0.1448772008	-3.1838747545	-0.776227013	 0.293849
119.2268	162.2834	175.927	217.4894	262.9705	289.6278	362.2995	384.8524	507.6387	541.5938	554.4263	632.1171	666.3515	776.9438	797.3084	882.8693	892.9573	898.0802	931.5422	1020.7119	1035.5494	1067.6286	1076.7176	1093.1793	1141.7386	1156.1511	1180.787	1191.9009	1210.7411	1213.629	1251.7448	1263.8466	1321.5396	1416.3122	1437.191	1489.1048	1491.7323	1540.6006	2340.4022	3017.4641	3054.4727	3086.3236	3105.0378	3115.7588	3121.1196	3147.2668	3178.7264	3822.8214
CC1(C#N)C2CC1C2O	C[C@@]1(C#N)[C@H]2C[C@@H]1[C@H]2O	
InChI=1S/C7H9NO/c1-7(3-8)4-2-5(7)6(4)9/h4-6,9H,2H2,1H3	InChI=1S/C7H9NO/c1-7(3-8)4-2-5(7)6(4)9/h4-6,9H,2H2,1H3/t4-,5+,6-,7+
