19
gdb 46513	3.57934	1.21445	1.03891	2.8383	75.28	-0.2382	-0.0145	0.2237	1169.6978	0.160168	-423.04686	-423.038884	-423.03794	-423.079542	30.98	
O	 0.004802752	-0.0397503266	 0.1693509385	-0.304857
C	-0.0134274856	 1.162693091	 0.0473853639	 0.38667
C	-1.3090362399	 1.9636959775	-0.0146695919	-0.298341
C	-1.3262138247	 2.9365680234	-1.2135774399	-0.285224
C	-0.0668187928	 3.7799309146	-1.2320666655	 0.436776
C	-0.0924189866	 5.1654915637	-1.7123405	-0.249557
O	-0.0695704508	 4.8849455069	-0.3087890714	-0.282729
C	 1.2153867779	 2.9716144539	-1.2479471557	-0.285224
C	 1.257455263	 1.999086122	-0.0493754227	-0.298341
H	-2.1518327613	 1.2698123064	-0.0393035784	 0.11901
H	-1.3789982987	 2.5546988309	 0.9084247846	 0.133231
H	-1.3917756662	 2.368119342	-2.149948644	 0.112294
H	-2.2070936322	 3.5825442598	-1.1608791708	 0.111974
H	 0.8149420328	 5.6161665196	-2.1131071055	 0.113904
H	-1.0223625428	 5.5908317956	-2.0882613531	 0.113904
H	 1.2712553208	 2.4048398005	-2.1859601929	 0.112294
H	 2.0792261021	 3.641648912	-1.2188426551	 0.111974
H	 1.3360282945	 2.592137639	 0.8717100161	 0.133231
H	 2.1180863311	 1.3286913077	-0.0970440761	 0.11901
75.4806	142.8856	151.1209	303.0243	364.6902	382.0106	397.7498	463.6877	497.3922	523.9312	678.2525	706.2455	758.3678	763.1438	848.2457	879.7491	941.04	941.9386	984.033	1005.3454	1007.3124	1102.2815	1103.186	1134.4767	1148.7548	1164.8914	1219.2369	1237.6499	1239.4344	1286.1142	1330.3018	1334.6051	1346.2898	1370.3405	1437.8742	1461.7359	1475.3296	1475.7725	1491.1535	1533.0685	1819.2798	3024.5146	3030.7641	3031.6465	3037.9468	3078.94	3089.2807	3092.3911	3113.7358	3115.2485	3163.9149
O=C1CCC2(CO2)CC1	O=C1CCC2(CO2)CC1	
InChI=1S/C7H10O2/c8-6-1-3-7(4-2-6)5-9-7/h1-5H2	InChI=1S/C7H10O2/c8-6-1-3-7(4-2-6)5-9-7/h1-5H2
