21
gdb 36789	7.62616	0.50049	0.49117	1.3768	86.46	-0.2471	0.0568	0.3039	2232.9164	0.179796	-387.032322	-387.022058	-387.021114	-387.068928	36.783	
C	 0.0005320893	-1.1551682575	-0.0753786805	-0.432698
C	 0.0509699209	 0.0278343692	 0.130583715	 0.291787
C	 0.1380225067	 1.4636264605	 0.3661262158	-0.355825
C	 1.4174072333	 2.0906059115	-0.2207177567	-0.190347
C	 1.4896933386	 3.5882041698	 0.0437172716	-0.058761
O	 2.6831392722	 4.0825961186	-0.5358344148	-0.250494
C	 2.8593575663	 5.4518285599	-0.354727624	 0.148471
C	 3.4786208697	 5.9531079126	 0.9264500036	-0.287922
C	 4.2672276933	 5.9472837514	-0.3697303339	-0.287115
H	-0.0537240146	-2.200555694	-0.2522420992	 0.193717
H	-0.7443097895	 1.9560890118	-0.0641666992	 0.130704
H	 0.0946396489	 1.6576939498	 1.4462680576	 0.130501
H	 2.2982971603	 1.6056673514	 0.2117404728	 0.119578
H	 1.4549478003	 1.9129326387	-1.3000598044	 0.121243
H	 0.6137941973	 4.0987770985	-0.392585562	 0.085371
H	 1.4760720509	 3.7942296245	 1.126437847	 0.089534
H	 2.0880970919	 6.0678362689	-0.8202793603	 0.081414
H	 3.1458158754	 6.9011247884	 1.3346770744	 0.11204
H	 3.7465737082	 5.2063424515	 1.6656471675	 0.11855
H	 5.0395435032	 5.1938300837	-0.4729184757	 0.126302
H	 4.4801970277	 6.8900344608	-0.8605841046	 0.113951
39.0154	68.8063	82.1036	109.9227	149.6189	173.9439	289.5617	324.3821	346.0043	430.6609	474.7148	545.6113	616.5808	635.8443	756.3868	757.995	817.6146	832.571	867.9772	942.7564	972.3575	981.2985	1039.5042	1049.0475	1071.7236	1082.0874	1106.2009	1117.9263	1130.0335	1193.3243	1203.9844	1218.9033	1244.734	1275.3407	1297.4022	1309.311	1366.4522	1384.9668	1441.0192	1452.7125	1475.4485	1498.2275	1499.7713	1527.2446	2240.7924	2953.986	2987.4223	3013.3543	3041.0855	3056.8311	3085.3856	3102.6865	3134.7942	3142.3878	3219.4233	3234.7617	3507.4856
C#CCCCOC1CC1	C#CCCCOC1CC1	
InChI=1S/C8H12O/c1-2-3-4-7-9-8-5-6-8/h1,8H,3-7H2	InChI=1S/C8H12O/c1-2-3-4-7-9-8-5-6-8/h1,8H,3-7H2
