17
gdb 41426	3.43615	1.87238	1.53116	1.4737	69.89	-0.2339	0.0707	0.3046	873.8548	0.138428	-421.754789	-421.748638	-421.747694	-421.785017	25.828	
C	 0.050916245	 1.4755945667	-0.0665842367	-0.181561
O	 1.4947851056	 1.3727792314	 0.0104071099	-0.308015
C	 1.4224385678	-0.0305867317	 0.3888957607	 0.116127
C	 1.7131069967	-1.0477567994	-0.6838324688	-0.147873
C	 0.5856236034	-2.0922260265	-0.6177696523	 0.107996
O	-0.1943843384	-2.2511885622	 0.5581648121	-0.278809
C	-0.9323116747	-1.0258506374	 0.7545994166	-0.170078
C	-0.0828588258	-0.0405748369	-0.0157693355	 0.224953
C	 0.3216723328	-0.8122175565	-1.3005023757	-0.159948
H	-0.3596619389	 1.9955998665	 0.8108214335	 0.101317
H	-0.2860192739	 1.9818145004	-0.9776259131	 0.107749
H	 1.7849127542	-0.1862166277	 1.4097645589	 0.079906
H	 2.6544770562	-1.2561125362	-1.1809457472	 0.091396
H	 0.7345927549	-3.0207499748	-1.1547425421	 0.111336
H	-1.9569094579	-1.1287957002	 0.3674988644	 0.09736
H	-0.9735614918	-0.8243492462	 1.8295202626	 0.11374
H	-0.0071097152	-0.6389358892	-2.3166943472	 0.094403
205.9948	260.5845	318.7094	384.2847	472.7401	533.647	695.6848	717.5328	752.6412	772.1337	800.8457	855.1412	900.1988	924.9149	957.7241	975.7882	992.1911	999.7146	1014.012	1021.2006	1053.6492	1068.7944	1118.1445	1126.7037	1146.2195	1188.7723	1197.2744	1218.4291	1258.2332	1267.6827	1304.2411	1326.1262	1355.8802	1379.6107	1399.1748	1514.2746	1519.4172	2992.5055	2998.9373	3059.896	3065.0332	3080.7736	3169.6714	3192.9262	3204.8791
C1OC2C3C4OCC12C34	C1O[C@@H]2[C@H]3[C@H]4OC[C@@]12[C@@H]34	
InChI=1S/C7H8O2/c1-7-2-9-6(7)3-4(7)5(3)8-1/h3-6H,1-2H2	InChI=1S/C7H8O2/c1-7-2-9-6(7)3-4(7)5(3)8-1/h3-6H,1-2H2/t3-,4+,5-,6-,7+/m1/s1
