20
gdb 97204	2.47187	1.35723	0.91945	2.5857	79.26	-0.2408	0.0207	0.2616	1301.6479	0.1704	-440.293422	-440.284076	-440.283132	-440.328078	33.902	
C	-0.202810683	 1.4548445411	-0.038460111	-0.327189
N	-0.11011506	 0.0043469474	-0.0593595263	-0.289122
C	 0.6406293552	-0.5682089786	-0.8964136716	 0.377548
C	 0.665518838	-2.0819768034	-0.9762730434	-0.173913
O	 1.9137258548	-2.6068101346	-1.3908675732	-0.242999
C	 2.3316874405	-1.9977627691	-2.5951233273	-0.091203
C	 2.5587030544	-0.5097128479	-2.3738946157	 0.120507
C	 2.9164228077	 0.2481733004	-3.640384271	-0.404318
O	 1.3661176835	 0.1065867024	-1.8391071929	-0.274667
H	 0.637480075	 1.9633786357	-0.5237907334	 0.117293
H	-1.1268752125	 1.7700231024	-0.5393660606	 0.125081
H	-0.2751200663	 1.787539907	 1.0017015983	 0.121477
H	 0.4391773034	-2.4913533469	 0.0077834705	 0.14224
H	-0.126886763	-2.4011350525	-1.6762542766	 0.109459
H	 3.2653066805	-2.4824439546	-2.8949635131	 0.116249
H	 1.584204149	-2.1508447601	-3.3927642944	 0.092384
H	 3.3531340279	-0.3948529945	-1.6233414147	 0.094507
H	 2.1371204267	 0.1250072066	-4.3986221187	 0.128533
H	 3.0200486257	 1.3147362774	-3.4260686861	 0.135152
H	 3.8638584726	-0.1162826883	-4.0487419188	 0.122981
58.9512	89.4642	117.5717	196.264	220.9714	235.848	316.7468	325.4183	422.2971	439.9834	479.5543	545.3712	580.0417	670.9798	830.1723	883.1395	950.7402	957.3258	976.7813	1013.0375	1051.3078	1120.7563	1128.6632	1140.0816	1151.9949	1163.9096	1179.1265	1241.4441	1269.4727	1319.8559	1339.6657	1374.0662	1386.1185	1411.1659	1422.7965	1435.9966	1475.5106	1483.2592	1490.094	1490.3856	1496.9406	1499.8018	1776.8019	2952.6513	2963.0539	3013.6226	3016.6375	3044.8983	3073.8426	3091.1331	3095.3957	3118.8226	3126.5523	3140.2812
CN=C1COCC(C)O1	CN=C1COC[C@@H](C)O1	
InChI=1S/C6H11NO2/c1-5-3-8-4-6(7-2)9-5/h5H,3-4H2,1-2H3	InChI=1S/C6H11NO2/c1-5-3-8-4-6(7-2)9-5/h5H,3-4H2,1-2H3/t5-/m1/s1
