15
gdb 23533	2.06197	1.79771	1.08614	4.0717	73.75	-0.2527	-0.0108	0.2419	1080.2837	0.112372	-416.743748	-416.735791	-416.734847	-416.776482	29.699	
O	-0.1316528349	 1.2934771942	 0.0170813128	-0.387084
N	 0.0472448649	-0.0948855938	-0.063701863	-0.249842
C	-1.0547256921	-0.701701416	 0.0632382942	 0.440037
C	-1.4066248311	-2.1371978195	-0.0474417056	-0.143997
C	-2.3037498879	-2.531713062	 1.1119262573	-0.287888
C	-2.9033056238	-1.7477481409	-0.0063898881	-0.053484
C	-2.5295487609	-0.2502647877	 0.1237016389	-0.265657
C	-3.0071157273	 0.4638769255	 1.3005763553	 0.302577
N	-3.3941467578	 1.0023912275	 2.2472514597	-0.335302
H	 0.7678805107	 1.6254991039	-0.0766536586	 0.314521
H	-0.8970926829	-2.8690432596	-0.6592733317	 0.118992
H	-2.5655225107	-3.5844124664	 1.1307976355	 0.132615
H	-2.1686454682	-2.084145107	 2.0919338259	 0.145913
H	-3.7084683249	-2.1123494957	-0.6289904424	 0.117724
H	-2.7670148929	 0.3260667475	-0.7757759001	 0.150874
90.4299	125.6575	164.0668	226.1439	308.7582	378.2163	424.3463	447.7389	520.0092	599.3884	605.7281	689.1346	771.6196	832.1994	854.9764	911.3345	974.107	987.2751	995.9355	1021.1949	1054.8553	1070.5289	1094.035	1141.4029	1175.0817	1194.0917	1292.0238	1313.5031	1336.8272	1419.5929	1491.6302	1788.3401	2357.587	3075.4134	3128.1816	3210.2871	3212.455	3222.8297	3818.601
ON=C1C2CC2C1C#N	ON=C1[C@H]2C[C@H]2[C@H]1C#N	
InChI=1S/C6H6N2O/c7-2-5-3-1-4(3)6(5)8-9/h3-5,9H,1H2	InChI=1S/C6H6N2O/c7-2-5-3-1-4(3)6(5)8-9/h3-5,9H,1H2/t3-,4+,5-/m1/s1
