17
gdb 78675	2.68376	1.57153	1.21809	2.4153	67.69	-0.2389	0.071	0.3099	1030.6028	0.134836	-458.893255	-458.885092	-458.884148	-458.92535	32.163	
O	-0.0125751848	 1.3146254465	 0.0984834774	-0.44893
C	 0.0443335284	-0.0913411467	-0.0517525828	 0.142913
C	-1.3649632851	-0.6511468096	-0.1383622381	-0.151026
C	-1.3747563772	-0.5594598292	-1.6529398436	-0.124746
C	 0.1977201801	-0.5568102724	-1.5315957888	-0.180681
C	 0.1306777759	-2.1140598009	-1.4550275094	 0.04347
O	 0.9686075461	-2.8110944442	-0.5575377423	-0.442128
C	-1.3053884355	-1.9188023845	-1.0133867207	 0.368708
O	-2.3082926499	-2.8622532911	-1.001531084	-0.464668
H	 0.884796743	 1.6536768655	 0.0170540741	 0.277715
H	 0.7348513639	-0.5436519254	 0.6719281299	 0.070478
H	-2.1953527106	-0.4999850291	 0.5391981487	 0.092439
H	-2.0728590036	-0.1344900564	-2.3564113633	 0.101933
H	 0.8921918472	-0.0527159447	-2.2019641698	 0.063669
H	 0.1549736756	-2.5580077557	-2.4598397403	 0.074861
H	 1.8110032597	-2.9794674333	-0.9906637379	 0.283648
H	-2.2257048231	-3.3766015287	-0.1905855788	 0.292347
180.1553	206.9584	228.4976	258.9791	263.5177	281.4988	325.7588	371.2569	438.847	517.5236	605.3612	668.68	751.3433	797.8014	841.5204	857.0428	901.1902	923.8776	945.0608	972.3872	996.2382	1015.2011	1094.8154	1107.677	1125.2574	1137.5303	1157.3105	1198.01	1214.396	1227.1366	1266.5961	1293.7673	1323.2738	1331.3734	1410.1635	1432.7643	1476.9006	3013.5318	3020.0094	3127.597	3203.9988	3247.8037	3794.5532	3809.9018	3823.0076
OC1C2C3C1C(O)C23O	O[C@H]1[C@H]2[C@H]3[C@@H]1[C@@H](O)[C@@]23O	
InChI=1S/C6H8O3/c7-4-1-2-3(4)6(2,9)5(1)8/h1-5,7-9H	InChI=1S/C6H8O3/c7-4-1-2-3(4)6(2,9)5(1)8/h1-5,7-9H/t1-,2+,3+,4+,5+,6-/m0/s1
