23
gdb 118080	2.08796	0.99103	0.84284	2.1354	79.33	-0.2498	0.0809	0.3307	1551.6515	0.202165	-462.541653	-462.530036	-462.529092	-462.579329	40.409	
C	-0.5038299361	 1.2188561902	-0.6216600901	-0.222732
O	-0.6608595505	-0.1777571509	-0.5591171548	-0.23845
C	-0.828853169	-0.6568802263	 0.7593520675	-0.081236
C	-0.9997645139	-2.1770020609	 0.7067455643	 0.094306
O	-1.0027609074	-2.7097714023	 2.0207693576	-0.445557
C	-2.2727209151	-2.5928263038	-0.0482094522	 0.117809
C	-2.2954561003	-4.0899622604	-0.3539307813	-0.411524
O	-3.3446785085	-2.2103009169	 0.8185063719	-0.272089
C	-4.6111517113	-2.1109765063	 0.2101316819	-0.235936
H	-0.3834085704	 1.490067261	-1.6735981835	 0.124427
H	-1.3808234538	 1.7478066275	-0.2156716835	 0.103263
H	 0.3847865054	 1.5549449908	-0.0642771458	 0.105295
H	 0.0481608072	-0.4196255464	 1.3811874782	 0.092878
H	-1.7135965996	-0.2011093951	 1.2323956439	 0.089343
H	-0.1306346446	-2.6011043211	 0.1916024452	 0.089145
H	-1.8985307703	-2.5686906757	 2.3540926105	 0.291254
H	-2.329344566	-2.009057005	-0.9776644238	 0.087227
H	-1.4934923215	-4.3429282475	-1.0546784168	 0.119335
H	-2.1464553597	-4.6627630096	 0.5652134125	 0.132888
H	-3.2414394879	-4.3939140022	-0.8103688042	 0.11171
H	-5.3026180134	-1.7282383694	 0.9653186537	 0.1269
H	-4.5952088168	-1.4146803171	-0.641746922	 0.110373
H	-4.9861278564	-3.0818289827	-0.1436324492	 0.111371
45.3358	71.1591	80.9736	112.0407	170.6555	188.3635	206.0499	219.743	233.8818	272.4952	319.8601	359.9824	430.5714	448.9133	470.5132	553.7974	654.5843	786.8845	883.2405	988.9331	993.5049	1015.2867	1070.05	1085.6145	1125.5522	1144.0066	1161.678	1165.7928	1182.5167	1186.8541	1211.4121	1228.0766	1244.9481	1289.7028	1332.9289	1372.9618	1379.063	1401.1259	1416.3121	1438.2028	1477.3091	1479.4177	1483.086	1484.3001	1494.6408	1501.1794	1502.4088	1512.4517	1525.2494	2965.2518	2977.6093	2984.9148	3009.4909	3014.0119	3015.9406	3035.1105	3044.5744	3058.586	3109.6627	3110.3778	3112.7573	3127.3892	3770.794
COCC(O)C(C)OC	COC[C@@H](O)[C@@H](C)OC	
InChI=1S/C6H14O3/c1-5(9-3)6(7)4-8-2/h5-7H,4H2,1-3H3	InChI=1S/C6H14O3/c1-5(9-3)6(7)4-8-2/h5-7H,4H2,1-3H3/t5-,6-/m1/s1
