17
gdb 126104	6.63524	0.64865	0.59523	2.2901	88.58	-0.2142	0.0082	0.2224	1837.9887	0.137535	-380.875972	-380.867232	-380.866288	-380.911104	31.156	
C	 0.0720966483	 1.5549085466	 0.0095088101	-0.364143
C	 0.00234323	 0.0167276993	 0.0025757972	-0.326852
C	-1.3639706448	-0.4927588809	 0.0120179817	 0.213039
C	-2.5022924048	-0.8947085044	 0.019963671	-0.126588
C	-3.8245440889	-1.3942260958	 0.0296207921	 0.126011
C	-5.012340994	-0.6755763739	 0.0413027817	-0.167245
N	-6.010705082	-1.58630404	 0.04717375	-0.177482
N	-5.5733441626	-2.8615994986	 0.0401286658	-0.208248
C	-4.2524464246	-2.7519517035	 0.0294327046	-0.129453
H	 1.1138501242	 1.8889542145	 0.002014889	 0.114462
H	-0.4297369351	 1.9705357222	-0.8685296363	 0.127506
H	-0.4142411001	 1.96186909	 0.9002360657	 0.127515
H	 0.5301440643	-0.3685839062	-0.8799605695	 0.129042
H	 0.5454073486	-0.3772070776	 0.8719430462	 0.129051
H	-5.1981554419	 0.3861206473	 0.0456260726	 0.139117
H	-7.0012115709	-1.4119697403	 0.0558929513	 0.278201
H	-3.6318042757	-3.6351668987	 0.0218386868	 0.116066
25.1712	71.9483	103.3624	184.3256	219.0584	312.3789	413.8731	477.5683	490.94	524.0075	568.9382	659.8179	695.5145	787.1854	789.1764	877.5861	888.1207	947.9742	988.8343	1041.413	1074.6427	1098.7997	1103.4262	1168.9119	1237.7831	1284.1657	1327.628	1346.4242	1368.077	1408.878	1415.3516	1476.3191	1494.5546	1494.9063	1506.1868	1600.2177	2355.4809	3013.625	3039.195	3044.2511	3117.6395	3122.8324	3256.2698	3270.9532	3677.0759
CCC#CC1=CNN=C1	CCC#Cc1c[nH]nc1	
InChI=1S/C7H8N2/c1-2-3-4-7-5-8-9-6-7/h5-6H,2H2,1H3,(H,8,9)	InChI=1S/C7H8N2/c1-2-3-4-7-5-8-9-6-7/h5-6H,2H2,1H3,(H,8,9)
