21
gdb 15826	3.53359	1.11134	0.9492	1.2449	75.48	-0.2247	0.0847	0.3094	1289.5446	0.18732	-366.222953	-366.213366	-366.212422	-366.25816	34.445	
C	 0.2144860416	 1.5760763213	 0.0053257252	-0.420261
C	 0.0885060232	 0.0457247149	-0.0751020953	 0.054322
C	 0.7280662877	-0.6091877414	 1.1572705742	-0.159916
C	 0.8331264887	-2.1257990975	 1.0641492496	-0.076272
O	 1.4930763913	-2.5830284411	 2.238946135	-0.426152
N	-1.2661244372	-0.5094180675	-0.2417701147	-0.067855
C	-2.4351580279	 0.1795125692	 0.286828406	-0.221155
C	-2.2050162658	 0.0736591765	-1.183200111	-0.22708
H	 1.2721173245	 1.8551395945	-0.0196514518	 0.120579
H	-0.2736253184	 2.0812141775	-0.8334490941	 0.114467
H	-0.2047234493	 1.9706886916	 0.9365251827	 0.120602
H	 0.6388176975	-0.2873320922	-0.9663391978	 0.080715
H	 1.734221836	-0.1997586898	 1.304778138	 0.099358
H	 0.1482670632	-0.3481001372	 2.0515184347	 0.102259
H	-0.1697177021	-2.5603025359	 0.9659606972	 0.103838
H	 1.4004685343	-2.4019924387	 0.1590834596	 0.07573
H	 1.4880200575	-3.5442365229	 2.2267214689	 0.282964
H	-3.1698146311	-0.4510460554	 0.7808440674	 0.113221
H	-2.3177115642	 1.1654412849	 0.7304093328	 0.109815
H	-1.9359997798	 0.989795992	-1.7055636646	 0.107712
H	-2.7675057998	-0.6362151928	-1.7847404521	 0.113111
36.8934	69.8661	108.7786	165.2187	240.873	261.7885	276.6302	292.5145	348.0647	394.7479	511.0978	535.6307	695.2071	805.7215	821.5372	888.7802	913.9707	946.7687	989.9299	1017.6966	1031.3039	1058.266	1093.5865	1110.2436	1119.0113	1142.9271	1154.6662	1176.9952	1181.2481	1226.6769	1251.1107	1308.5285	1316.4716	1332.9979	1375.9615	1378.336	1404.7473	1456.6697	1483.2599	1486.5728	1495.9534	1510.1631	1524.5011	1529.7808	2957.7726	3006.0448	3030.9147	3035.7787	3039.672	3076.3369	3093.9746	3103.3359	3108.4007	3110.2247	3170.2301	3187.3755	3832.3289
CC(CCO)N1CC1	C[C@@H](CCO)N1CC1	
InChI=1S/C6H13NO/c1-6(2-5-8)7-3-4-7/h6,8H,2-5H2,1H3	InChI=1S/C6H13NO/c1-6(2-5-8)7-3-4-7/h6,8H,2-5H2,1H3/t6-/m0/s1
