16
gdb 49102	2.04392	1.58742	0.90677	4.9924	87.13	-0.2114	-0.0578	0.1536	1224.0413	0.124189	-400.745166	-400.7367	-400.735756	-400.778408	31.174	
O	-0.0299054845	-0.1086238067	 0.1564437005	-0.304276
C	-0.0110858286	 1.1103877254	 0.123056498	 0.024172
C	 1.1916616861	 1.8947453363	 0.0127537011	 0.076573
C	 1.2718414626	 3.2560905354	-0.0588399424	 0.187018
N	 2.5730427251	 3.6897018862	-0.2345108485	-0.365256
C	 3.4850043736	 2.5704685603	 0.0650606144	-0.183727
C	 2.5873482465	 1.3230061928	-0.1246607927	-0.299412
C	 0.2136854088	 4.1970518216	-0.0057288747	 0.266435
C	-0.6566792373	 5.026898131	 0.0488900751	-0.415316
H	-0.9505626302	 1.7010822981	 0.1866413509	 0.062325
H	 2.8105202036	 4.6163476196	 0.0871075146	 0.249761
H	 4.3493867024	 2.5875339316	-0.6029246876	 0.120251
H	 3.8494208034	 2.6390650776	 1.099677127	 0.112264
H	 2.7942942182	 0.5360108147	 0.6037501974	 0.132237
H	 2.7235501132	 0.8797146693	-1.1190341255	 0.127311
H	-1.4403288628	 5.7429277866	 0.0945366925	 0.209641
121.3022	125.5313	144.4331	177.4336	205.8646	328.1323	395.179	429.751	507.8953	560.1331	599.4915	625.3159	671.2802	686.0343	714.7136	787.3125	877.5347	952.3897	1018.4171	1043.1884	1051.457	1076.527	1185.0882	1226.1932	1270.1063	1296.3823	1327.0147	1364.5159	1419.1049	1473.81	1490.2018	1523.6152	1628.0941	1746.231	2231.311	2892.645	3003.2937	3030.8717	3091.7943	3103.6746	3497.4033	3611.9193
O=CC1=C(NCC1)C#C	O=CC1=C(NCC1)C#C	
InChI=1S/C7H7NO/c1-2-7-6(5-9)3-4-8-7/h1,5,8H,3-4H2	InChI=1S/C7H7NO/c1-2-7-6(5-9)3-4-8-7/h1,5,8H,3-4H2
