17
gdb 76273	2.38836	1.63667	1.10821	2.6475	69.7	-0.2539	-0.0154	0.2385	1091.0724	0.136695	-455.196912	-455.188275	-455.187331	-455.230385	31.891	
C	 0.2538651426	 1.5814374542	 0.2060304882	-0.382774
C	-0.0488731331	 0.0931606483	-0.0330904933	-0.162148
C	 0.711744149	-0.5232799024	-1.2349753904	-0.075491
N	 1.0526213118	 0.3762998564	-2.3213939414	-0.524515
C	 1.9495551146	-1.0843087914	-0.5639846746	 0.424498
N	 3.0502640726	-1.2998529049	-1.1304468155	-0.532947
O	 1.678147656	-1.3256106795	 0.7651361418	-0.218923
C	 0.4730120632	-0.7278361733	 1.1365503256	 0.428108
O	 0.0317698137	-0.8695860564	 2.2322297162	-0.311642
H	 1.3281771924	 1.7569143662	 0.3154201485	 0.132991
H	-0.0860874847	 2.1693274526	-0.6475898271	 0.138917
H	-0.2506174324	 1.9240763751	 1.1127440728	 0.135137
H	-1.1293829012	-0.0523886968	-0.1014970235	 0.110566
H	 0.1357813752	-1.4019839635	-1.571762135	 0.106351
H	 1.9685559069	 0.1164396178	-2.6771536212	 0.256453
H	 0.3915199205	 0.2888318206	-3.0838641388	 0.234745
H	 3.744140903	-1.6789866729	-0.4856375225	 0.240673
61.496	136.9894	192.2542	219.4882	244.9493	255.0335	288.9878	381.2431	471.0032	546.8477	606.3155	641.7374	717.4848	747.3962	781.2604	860.8138	879.7199	901.9208	917.0182	998.4175	1071.7308	1076.1469	1104.0641	1142.422	1159.4686	1215.3267	1266.2133	1316.417	1329.8837	1351.4361	1404.8359	1412.251	1488.7599	1494.3954	1655.3408	1789.78	1920.4989	2953.1576	3053.1515	3086.7047	3125.8973	3147.713	3492.9868	3502.8956	3590.3319
CC1C(N)C(=N)OC1=O	C[C@H]1[C@@H](N)[C]([NH])OC1=O	
InChI=1S/C5H8N2O2/c1-2-3(6)4(7)9-5(2)8/h2-3,7H,6H2,1H3	InChI=1S/C5H8N2O2/c1-2-3(6)4(7)9-5(2)8/h2-3,7H,6H2,1H3/t2-,3+/m0/s1
