17
gdb 39537	4.15712	1.54569	1.2933	2.2885	77.45	-0.2337	-0.0026	0.231	973.4907	0.139007	-380.862489	-380.856019	-380.855075	-380.892995	26.739	
C	-0.0525209948	 1.5084884025	-0.0030712766	-0.300594
C	 1.3871670215	 1.9841949271	 0.058905353	-0.071256
C	 2.2556169338	 0.9700292229	 0.0397324365	-0.176159
C	 1.5390945206	-0.3334522828	 0.000737812	 0.332672
C	 2.0615805296	-1.6886156277	-0.4409991938	-0.275695
N	 1.306985135	-2.6748809084	 0.35779824	-0.208633
C	 0.5899300731	-2.0174149609	 1.1790822538	 0.03535
N	 0.6712466702	-0.5961079747	 1.2127774872	-0.173896
C	 0.0854064415	-0.0090362324	-0.0309081541	-0.077424
H	-0.6349515061	 1.8492551315	 0.8610488969	 0.12909
H	-0.5668048484	 1.8740534249	-0.9011890266	 0.114132
H	 1.6487286602	 3.0321784267	 0.1469508149	 0.103818
H	 3.3348681155	 1.0497000248	 0.0856550305	 0.102101
H	 1.9215847655	-1.8890262925	-1.5086531111	 0.12075
H	 3.1345307811	-1.7944835134	-0.2325880348	 0.11889
H	-0.062577624	-2.5001055996	 1.9022120649	 0.123857
H	-0.6295519444	-0.6214580979	-0.5708889527	 0.102999
199.1026	232.0047	281.6533	359.9714	465.1771	478.1994	525.898	684.0951	724.3634	738.948	793.8835	831.3987	878.0851	908.8534	923.4245	948.1691	953.8237	964.1261	992.4632	999.5075	1024.1047	1064.1513	1096.1067	1132.5681	1181.9981	1194.2565	1227.4722	1278.9768	1303.487	1320.7314	1322.475	1364.7758	1405.0038	1458.5708	1488.7507	1661.3879	1672.3844	3023.1816	3026.7739	3064.8906	3065.6006	3164.4584	3177.2287	3195.2916	3219.2294
C1C=CC23CN=CN2C13	C1C=C[C@@]23CN=CN2[C@@H]13	
InChI=1S/C7H8N2/c1-2-6-7(3-1)4-8-5-9(6)7/h1,3,5-6H,2,4H2	InChI=1S/C7H8N2/c1-2-6-7(3-1)4-8-5-9(6)7/h1,3,5-6H,2,4H2/t6-,7-,9?/m0/s1
