24
gdb 9426	5.66694	0.75412	0.7046	0.8886	83.46	-0.2486	0.0866	0.3352	1723.9796	0.220987	-351.413403	-351.402553	-351.401608	-351.449853	38.112	
C	-0.0407272573	 1.5069326004	-0.0079238626	-0.384891
C	-0.013736843	-0.0123631215	 0.0062916802	-0.026176
O	-1.3425502491	-0.4876005605	 0.0171870126	-0.246806
C	-1.4369185833	-1.896019387	 0.0254927992	-0.052595
C	-2.9098671776	-2.3069253728	-0.0137067	 0.0247
C	-3.5861199185	-1.7806606244	-1.2865514769	-0.389057
C	-3.0291615057	-3.833459147	 0.1423955413	-0.169102
C	-4.4648868205	-4.3465297326	 0.2928554698	-0.390106
H	 0.9774210481	 1.907522081	-0.0158745294	 0.112884
H	-0.5651075384	 1.8726871457	-0.8954232037	 0.125325
H	-0.5580945747	 1.8895333502	 0.8765034861	 0.125689
H	 0.5217324723	-0.3979498412	-0.8784584824	 0.08309
H	 0.5302619042	-0.3807796659	 0.8932729923	 0.082562
H	-0.9024221638	-2.3198430059	-0.8444358561	 0.077596
H	-0.9522452008	-2.3033267523	 0.9298758516	 0.078136
H	-3.3918884068	-1.8339979892	 0.8538079795	 0.077717
H	-3.4110878015	-0.7077865474	-1.392003856	 0.130012
H	-3.1805142677	-2.2785618192	-2.1764633969	 0.103979
H	-4.6660664222	-1.9510728296	-1.2717214791	 0.10996
H	-2.5571975713	-4.3205334849	-0.7224789055	 0.092116
H	-2.4482701819	-4.1453710842	 1.0203205846	 0.090787
H	-4.4773365766	-5.4285342659	 0.4573977357	 0.110894
H	-4.9651115899	-3.8750302269	 1.1463478647	 0.113744
H	-5.0661793742	-4.1431380489	-0.5981555492	 0.119541
52.2522	71.0085	91.1949	113.1768	152.9373	212.9738	243.9014	251.2094	260.8593	311.6989	324.7154	418.9747	485.5282	515.3254	777.477	819.6243	828.2634	905.2567	924.5114	929.705	979.0258	1023.0901	1031.6751	1058.5651	1129.4242	1159.9767	1167.5048	1183.9018	1187.4582	1201.4587	1266.3826	1293.5957	1297.2181	1312.4049	1377.0805	1380.7631	1389.3263	1403.7127	1409.3193	1414.2704	1450.2672	1483.2704	1484.9741	1493.2803	1499.2603	1500.7751	1506.8189	1512.2294	1513.6841	1537.1724	2933.0121	2951.7086	2964.4375	2972.0397	3005.237	3011.9072	3028.9898	3033.8313	3043.8416	3044.2218	3098.2418	3098.4434	3109.7074	3118.415	3120.3596	3129.3252
CCOCC(C)CC	CCOC[C@@H](C)CC	
InChI=1S/C7H16O/c1-4-7(3)6-8-5-2/h7H,4-6H2,1-3H3	InChI=1S/C7H16O/c1-4-7(3)6-8-5-2/h7H,4-6H2,1-3H3/t7-/m0/s1
