21
gdb 61929	4.27593	0.7049	0.64964	4.2031	84.32	-0.2162	0.0365	0.2527	1734.8874	0.1817	-383.250793	-383.240732	-383.239788	-383.287083	35.993	
C	 0.1322005577	 1.5461653429	-0.3549320059	-0.339917
N	 0.0784978365	 0.1132813028	-0.1175216872	-0.066926
C	 0.6435625214	-0.2766167808	 1.1685874139	-0.139059
C	 2.1878520512	-0.2937731378	 1.12583392	-0.341472
C	 2.7639657177	-0.7403640105	 2.3911289492	 0.256693
N	 3.198535673	-1.0981397734	 3.40043417	-0.306034
C	-1.1958784239	-0.5300864456	-0.3517098293	 0.060692
C	-2.5026026783	-0.110156164	 0.2991809787	-0.280988
C	-2.2909246075	 0.0563755625	-1.1912064525	-0.297366
H	 1.1514978223	 1.9069612088	-0.192992437	 0.120401
H	-0.1230512531	 1.7672621313	-1.3931479614	 0.132436
H	-0.5309003576	 2.1354278826	 0.3048233145	 0.101977
H	 0.3061709015	 0.3714257784	 1.9960076531	 0.104185
H	 0.298764787	-1.2868441976	 1.4043306592	 0.123689
H	 2.5174180619	-0.9588740158	 0.321153498	 0.158482
H	 2.5858006516	 0.7008504401	 0.9000319214	 0.151428
H	-1.0679335675	-1.6047923911	-0.458158776	 0.09633
H	-3.1753604163	-0.882184039	 0.6557052457	 0.114976
H	-2.510615622	 0.7969483953	 0.8938813817	 0.115577
H	-2.192869901	 1.0685420556	-1.5638215814	 0.117762
H	-2.8092215746	-0.6095609647	-1.8721756947	 0.117132
49.6559	50.8034	80.1031	121.0399	196.7044	220.5294	288.845	310.199	378.3407	407.2027	436.5873	510.2318	564.2971	739.1681	772.8666	793.2441	820.3415	898.0054	940.0109	957.1628	1008.6667	1038.192	1047.7527	1056.2307	1083.3852	1110.8276	1141.4982	1145.7688	1193.0108	1196.7252	1225.4309	1251.2643	1280.698	1307.7198	1357.7199	1398.751	1416.4795	1460.1925	1463.9698	1469.864	1496.4267	1500.7565	1504.1789	1510.4203	2362.0437	2938.0337	2956.3843	3055.5638	3081.3045	3084.8894	3103.0441	3122.9954	3126.221	3134.3865	3145.3225	3214.8449	3230.9652
CN(CCC#N)C1CC1	CN(CCC#N)C1CC1	
InChI=1S/C7H12N2/c1-9(6-2-5-8)7-3-4-7/h7H,2-4,6H2,1H3	InChI=1S/C7H12N2/c1-9(6-2-5-8)7-3-4-7/h7H,2-4,6H2,1H3
