22
gdb 7439	2.79585	1.44193	1.18573	2.4198	78.29	-0.2379	-0.0082	0.2298	1157.0103	0.196849	-350.240916	-350.23047	-350.229526	-350.27635	37.449	
C	-0.0705053181	 1.5483513963	-0.0273918851	-0.408708
C	 0.0761883812	 0.0210914767	-0.053146776	 0.06166
C	 0.8953260346	-0.4107459437	-1.2793941664	-0.40572
C	 0.6984903502	-0.5386470721	 1.2466065649	-0.061816
C	-0.0364181275	-0.0886459918	 2.5276724889	-0.410865
C	 0.6824637996	-2.0729778695	 1.2487399288	 0.396886
C	 1.9126964343	-2.7673026281	 1.8037239546	-0.483176
O	-0.2777683718	-2.6956452292	 0.8540983254	-0.319942
H	 0.8986635804	 2.0383546149	 0.1299014956	 0.107992
H	-0.4671959793	 1.9077232225	-0.9825786514	 0.112881
H	-0.7503579439	 1.8892458632	 0.7577857008	 0.115015
H	-0.9207193726	-0.4275844859	-0.1389050605	 0.095809
H	 1.9125391603	-0.0013458233	-1.2376796935	 0.105333
H	 0.9680149028	-1.49939331	-1.3546225574	 0.124075
H	 0.433611535	-0.0471585836	-2.2029182254	 0.112602
H	 1.7425204295	-0.2023930238	 1.3151576166	 0.066998
H	-1.0974752414	-0.3500537141	 2.4681950801	 0.135531
H	 0.3782384463	-0.5763511161	 3.4164056848	 0.114294
H	 0.0503181771	 0.9898492117	 2.6765948784	 0.123595
H	 2.2042385094	-2.338044372	 2.7684130474	 0.135515
H	 1.7291916111	-3.8374474524	 1.9077924852	 0.139505
H	 2.7562115628	-2.6066920094	 1.1211866743	 0.142535
41.8278	71.9332	152.7552	173.8717	208.0724	221.8067	229.696	257.148	289.2297	336.4654	388.4019	417.5609	455.1881	594.4255	606.18	772.6076	815.6899	918.8053	929.1896	952.0759	965.2558	988.061	997.5687	1044.6874	1108.8028	1146.3708	1163.4585	1193.0961	1207.0181	1305.4917	1327.1039	1354.4383	1376.5326	1386.0583	1397.4413	1405.0547	1420.2339	1461.5982	1474.9597	1486.7083	1490.1114	1498.2842	1503.892	1504.4339	1517.09	1806.2498	3007.9037	3022.7237	3025.6375	3032.9053	3038.0615	3043.4989	3086.5175	3093.2451	3094.3952	3101.5945	3109.4608	3111.0171	3126.4304	3150.2138
CC(C)C(C)C(C)=O	CC(C)[C@@H](C)C(=O)C	
InChI=1S/C7H14O/c1-5(2)6(3)7(4)8/h5-6H,1-4H3	InChI=1S/C7H14O/c1-5(2)6(3)7(4)8/h5-6H,1-4H3/t6-/m1/s1
