17
gdb 30316	3.00299	1.64269	1.12734	1.8563	74.26	-0.2188	0.0027	0.2215	1059.1677	0.138812	-418.02418	-418.01671	-418.015766	-418.056371	28.386	
C	 0.0800340511	 1.5985989754	-0.0259538786	-0.36685
C	-0.0212400438	 0.0733305101	 0.0777283432	-0.106346
N	 0.6542033433	-0.6048216852	-1.0755537029	-0.325695
C	 1.5481452291	-1.7254925525	-0.649407996	-0.287441
C	 1.6007466637	-1.5105468404	 0.8270007956	 0.234948
C	 0.7445994843	-0.5458057283	 1.1928492255	 0.318959
O	 0.8219857235	-0.3703449742	 2.5379313156	-0.201939
C	 1.7666506115	-1.2919999812	 2.9072869947	 0.033197
N	 2.2674157375	-1.9970713137	 1.9404186201	-0.33899
H	 1.1277736086	 1.9037830865	-0.087661121	 0.12486
H	-0.4339336176	 1.9506208334	-0.9252077908	 0.115721
H	-0.3815943174	 2.0783421006	 0.8438286708	 0.115581
H	-1.0883298456	-0.2007186612	 0.1332313107	 0.082789
H	-0.0278702759	-0.9235912641	-1.7499181328	 0.222744
H	 1.1392087458	-2.7126182906	-0.9122560108	 0.107669
H	 2.5279635871	-1.642275534	-1.1369272747	 0.122048
H	 1.9969342847	-1.3388974005	 3.9598866314	 0.148746
78.6978	149.9831	231.1673	238.9737	291.229	434.4313	466.1439	556.0437	648.5833	663.9829	683.7897	724.7763	774.9661	812.5649	921.9416	942.7403	984.5302	1039.3338	1049.3555	1075.0207	1083.0111	1095.1971	1134.8767	1185.2518	1254.2972	1279.025	1305.7932	1362.0891	1394.9621	1401.9329	1407.9399	1457.4452	1491.9022	1496.6749	1520.4585	1523.9708	1679.4716	2947.8959	2986.8587	3026.3248	3036.9582	3109.1757	3126.3138	3279.1145	3576.2817
CC1NCC2=C1OC=N2	C[C@H]1NCc2c1ocn2	
InChI=1S/C6H8N2O/c1-4-6-5(2-7-4)8-3-9-6/h3-4,7H,2H2,1H3	InChI=1S/C6H8N2O/c1-4-6-5(2-7-4)8-3-9-6/h3-4,7H,2H2,1H3/t4-/m1/s1
