13
gdb 131427	4.74855	0.88363	0.79048	2.8779	61.21	-0.2676	-0.0506	0.217	1346.0826	0.088164	-489.893495	-489.885531	-489.884587	-489.927798	27.495	
O	-0.0655520519	 1.2774384308	 0.1322440837	-0.395843
C	-0.04691803	-0.0387368569	-0.0579832404	 0.440551
N	 0.0320429263	-0.5590058569	-1.2567300221	-0.196816
O	 0.0174808939	-1.9415238301	-0.9755462117	-0.192275
C	-0.0604756853	-2.0714360352	 0.3484873753	 0.423213
C	-0.1220083652	-3.440064437	 0.9264039723	-0.403819
C	-1.3861421744	-3.6639231629	 1.7653200016	 0.159525
O	-1.9592795615	-4.7157198721	 1.8152169276	-0.216816
N	-0.1063916835	-0.9349142074	 0.9816916243	-0.391246
H	-0.1212757661	 1.430268283	 1.083538199	 0.322136
H	-0.0599573122	-4.2005036012	 0.1469611483	 0.165799
H	 0.7288188263	-3.5726706608	 1.608594646	 0.171258
H	-1.7150285162	-2.7760759634	 2.3443379961	 0.114334
34.1762	60.1621	125.7138	243.9449	321.9723	387.9891	415.5413	424.8415	496.9711	643.0755	715.5769	744.1975	786.6954	830.4479	933.6882	1014.9221	1038.3856	1044.1095	1086.4704	1176.2882	1217.1414	1263.7884	1360.9514	1412.7294	1435.5043	1454.4151	1598.0475	1673.2232	1846.2031	2925.1655	3034.0919	3139.8679	3813.2191
OC1=NOC(CC=O)=N1	Oc1noc(CC=O)n1	
InChI=1S/C4H4N2O3/c7-2-1-3-5-4(8)6-9-3/h2H,1H2,(H,6,8)	InChI=1S/C4H4N2O3/c7-2-1-3-5-4(8)6-9-3/h2H,1H2,(H,6,8)
