17
gdb 127377	3.86398	1.10062	1.08998	3.9633	74.93	-0.2422	-0.009	0.2333	1164.747	0.137666	-414.15005	-414.142094	-414.14115	-414.18401	29.199	
C	-0.4185176546	 1.4207861528	-0.0682652886	-0.318043
N	-0.1131077428	 0.0003059632	 0.0387379975	-0.07312
C	 1.2278238485	-0.4212639061	-0.3236439795	-0.265353
C	 0.8018753665	-0.4498053696	 1.1084752292	-0.107923
C	 1.3653616658	 0.4633263539	 2.1225800923	 0.345765
C	 1.0093030499	 0.6890348517	 3.4361350341	-0.155931
N	 1.833005743	 1.6288467065	 3.9736813708	-0.183079
N	 2.6913217063	 2.0073518528	 3.0707216724	-0.11498
N	 2.4146829719	 1.3107074749	 1.9514984242	-0.245026
H	 0.4350446354	 2.0868040891	 0.1326195224	 0.103466
H	-0.7768915956	 1.619857281	-1.082507232	 0.13139
H	-1.2182234097	 1.6715162385	 0.6344013113	 0.136612
H	 1.3133550234	-1.3489127159	-0.8833239765	 0.128662
H	 1.9363942468	 0.3491514678	-0.6305153169	 0.098952
H	 0.4992246416	-1.4060055288	 1.5277916571	 0.11333
H	 0.2188059494	 0.2320927747	 4.0096079249	 0.127765
H	 2.9997515342	 1.4332682935	 1.1407772573	 0.277513
19.5006	113.6605	179.7527	218.7558	290.1898	355.8529	434.9942	493.1164	583.1898	644.7861	724.1649	728.2296	774.4398	858.2349	870.7907	972.5716	995.7371	1030.5185	1057.6055	1080.2531	1099.6854	1128.0752	1134.1034	1145.3719	1166.7205	1204.9991	1238.837	1300.0964	1327.1742	1378.8188	1384.0955	1444.5762	1453.5653	1491.0243	1495.4557	1510.5804	1603.4709	2983.6944	3078.5399	3080.0225	3115.8987	3136.4944	3171.1799	3269.4299	3660.3223
CN1CC1C1=CN=NN1	CN1C[C@H]1c1cnn[nH]1	
InChI=1S/C5H8N4/c1-9-3-5(9)4-2-6-8-7-4/h2,5H,3H2,1H3,(H,6,7,8)	InChI=1S/C5H8N4/c1-9-3-5(9)4-2-6-8-7-4/h2,5H,3H2,1H3,(H,6,7,8)/t5-,9?/m0/s1
