14
gdb 123612	3.16056	2.33062	1.54931	5.1922	65.88	-0.2302	-0.0668	0.1634	802.1984	0.103002	-432.74096	-432.734958	-432.734014	-432.771225	23.837	
C	-0.1147575505	 1.5150752169	-0.0688169598	-0.172279
C	 1.4326325474	 1.7192893687	 0.0441674872	-0.116688
C	 2.1487704925	 2.1227958011	 1.3833261132	-0.097024
O	 2.2635641575	 0.9044940222	 2.2125093464	-0.256068
C	 1.5667618496	-0.0328576379	 1.5234017974	 0.315365
C	 1.3924726432	 0.230307102	 0.2102448324	 0.016
N	 0.0433419274	-0.0518656902	-0.0592143967	-0.08856
N	-0.4310143498	-0.7412851218	 1.0919735963	-0.109716
N	 0.4910684639	-0.7648191622	 1.9955142347	-0.180268
H	-0.6905039786	 1.8151969638	 0.8065392469	 0.159488
H	-0.579679029	 1.8486669772	-0.9948713681	 0.152432
H	 1.8921942382	 2.1803425597	-0.8300549466	 0.107006
H	 3.1618387988	 2.474955916	 1.1739436577	 0.139426
H	 1.6223315494	 2.8791800846	 1.9757571492	 0.130885
142.3287	295.2341	331.2566	346.3391	498.5793	639.909	674.7176	705.8874	741.6748	772.2913	827.9966	855.1106	856.5954	887.6428	935.7173	1019.4901	1032.1636	1062.3737	1128.6661	1148.5754	1173.3712	1198.1213	1220.2127	1261.0374	1300.8308	1322.1838	1332.5272	1395.0878	1471.2213	1501.714	1594.7916	3046.6903	3096.9188	3101.7493	3114.7695	3179.0151
C1C2COC3=C2N1N=N3	C1[C@H]2CO[C]3[C]2N1[N][N]3	
InChI=1S/C5H5N3O/c1-3-2-9-5-4(3)8(1)7-6-5/h3H,1-2H2	InChI=1S/C5H5N3O/c1-3-2-9-5-4(3)8(1)7-6-5/h3H,1-2H2/t3-/m0/s1
