15
gdb 70168	2.69143	1.76051	1.20035	4.4742	68.89	-0.2477	-0.0663	0.1814	991.7589	0.112898	-453.946853	-453.939129	-453.938185	-453.978911	29.824	
O	 0.1193179447	 1.3533722933	-0.2282762728	-0.468953
C	-0.0019227301	-0.0076229549	-0.0452604396	 0.352139
C	-0.4730277227	-0.8829069047	-1.2043934628	-0.353059
C	-1.3112649053	-0.7546357425	 0.04306201	-0.098096
N	-1.1363477413	-1.7959237345	 1.0350388935	-0.337009
C	 0.1742363893	-1.8808633419	 1.493803994	 0.263016
N	 0.7606367827	-2.7583382552	 2.2022751388	-0.505077
C	 0.8737807628	-0.6238219648	 0.9919964043	 0.300827
O	 1.8783905085	-0.1127083759	 1.4188827747	-0.319037
H	 0.9291482319	 1.6046506725	 0.2410638048	 0.302674
H	-0.7763900148	-0.3010075764	-2.0684199807	 0.143439
H	 0.0150253451	-1.8278965646	-1.4196265969	 0.131227
H	-2.2604893402	-0.2322517489	 0.0343668324	 0.127587
H	-1.6476397647	-2.6595738135	 0.9111469389	 0.245674
H	 0.1342293941	-3.529560768	 2.4459858514	 0.214647
94.4147	157.6228	279.7244	309.071	323.9309	335.0171	442.0089	451.0958	522.4704	539.2117	584.1942	673.1317	696.4003	803.1432	860.0141	881.3973	901.5836	924.9095	994.602	1013.2481	1050.3664	1067.3095	1087.7382	1152.4295	1204.3266	1265.7969	1375.4544	1389.1225	1396.2841	1429.3546	1486.2134	1738.6853	1837.4701	3128.7217	3187.3093	3227.3944	3442.5139	3577.4776	3725.2506
OC12CC1NC(=N)C2=O	O[C@]12C[C@H]1N[C]([NH])C2=O	
InChI=1S/C5H6N2O2/c6-4-3(8)5(9)1-2(5)7-4/h2,9H,1H2,(H2,6,7)	InChI=1S/C5H6N2O2/c6-4-3(8)5(9)1-2(5)7-4/h2,9H,1H2,(H2,6,7)/t2-,5-/m1/s1
