18
gdb 38520	2.94282	2.04209	1.46521	3.7811	74.38	-0.2391	0.0096	0.2487	908.6137	0.151037	-401.918287	-401.911877	-401.910933	-401.948762	26.972	
C	-0.0800210537	 1.4892185601	-0.1624933054	-0.263607
C	 1.479223663	 1.6472807421	 0.0536516792	-0.003699
C	 2.0542348645	 2.4879934943	 1.2270402398	-0.228842
C	 2.4959289588	 1.5832533479	 2.416914643	-0.1637
N	 1.359095079	 0.7205143909	 2.7941623651	-0.267093
C	 1.0077148329	 0.0662256333	 1.7798734546	 0.374217
O	-0.2436665442	-0.4313947399	 1.473478769	-0.275293
C	 0.0117623796	-0.0558173836	 0.071115543	 0.084122
C	 1.511438383	 0.1264268235	 0.3565236057	-0.192442
H	-0.7220035804	 2.0025130004	 0.5565377943	 0.128422
H	-0.3986361638	 1.7487323433	-1.1742312926	 0.11203
H	 1.9696128685	 1.9070093959	-0.8866734281	 0.080657
H	 2.9098498639	 3.0830142649	 0.8904064338	 0.09887
H	 1.298192226	 3.1932784811	 1.5890613114	 0.113934
H	 3.3825005837	 1.00082527	 2.1245679378	 0.099998
H	 2.7801053372	 2.1922929651	 3.2779937827	 0.108577
H	-0.4532589016	-0.751098093	-0.6245352578	 0.096342
H	 2.3131374535	-0.5341289963	 0.0323877845	 0.097508
153.2435	293.156	331.5467	390.4407	434.8756	515.8273	543.0962	645.035	722.6216	744.1709	781.4167	842.1166	863.9047	877.4242	905.2029	923.3498	945.8218	959.5098	1006.9519	1052.7989	1063.097	1089.4329	1125.6599	1144.6025	1163.4991	1178.7965	1207.4692	1234.1714	1252.1337	1265.8305	1287.8113	1322.7278	1332.5774	1343.2949	1355.9843	1461.2768	1483.6809	1507.3649	1774.3085	2991.8561	3040.0595	3070.1949	3075.31	3088.3764	3096.8084	3130.0479	3132.6787	3145.9342
C1C2CCN=C3OC1C23	C1[C@H]2CC[N][C]3O[C@@H]1[C@@H]23	
InChI=1S/C7H9NO/c1-2-8-7-6-4(1)3-5(6)9-7/h4-6H,1-3H2	InChI=1S/C7H9NO/c1-2-8-7-6-4(1)3-5(6)9-7/h4-6H,1-3H2/t4-,5+,6-/m1/s1
