14
gdb 27596	3.49109	1.30511	0.95033	3.6207	82.41	-0.2365	-0.0415	0.195	1157.0978	0.102374	-395.759849	-395.752217	-395.751273	-395.791787	29.328	
N	-0.0483925396	 1.3554630273	 0.132904883	-0.576184
C	 0.0231212016	-0.0052861047	 0.0504156157	 0.387143
N	-1.1411114474	-0.6653792991	 0.0412095913	-0.346338
C	-1.0761082429	-2.002077417	 0.0039799161	 0.180041
N	 0.0301299001	-2.7554232476	-0.0327608302	-0.304679
C	 1.1810963961	-2.0709308378	-0.0274678483	 0.000736
C	 1.2508147737	-0.6930902525	 0.0145097545	-0.180456
C	-2.3311722087	-2.6996848336	-0.0016084258	 0.252204
C	-3.3815996779	-3.2844929907	-0.0062548265	-0.343956
H	 0.7515738037	 1.9053685639	-0.1298643171	 0.259409
H	-0.9555591077	 1.7597353393	-0.0377413655	 0.265072
H	 2.0909940702	-2.6661795372	-0.0588966791	 0.114267
H	 2.1997860725	-0.1698199795	 0.0227517211	 0.098209
H	-4.3080664235	-3.8037349009	-0.0098290291	 0.194532
129.2616	150.63	201.3666	348.2264	357.8795	377.4179	462.4771	504.4332	516.6123	562.2415	570.5952	643.3451	644.5823	721.0655	760.1945	819.0661	845.2723	970.9207	991.5744	1003.4561	1096.2717	1120.6711	1282.9685	1296.8364	1384.4088	1419.5995	1484.6062	1595.8701	1610.9515	1648.1239	2239.6976	3154.5586	3196.7469	3502.8382	3598.4327	3723.8319
NC1=NC(=NC=C1)C#C	Nc1nc(ncc1)C#C	
InChI=1S/C6H5N3/c1-2-6-8-4-3-5(7)9-6/h1,3-4H,(H2,7,8,9)	InChI=1S/C6H5N3/c1-2-6-8-4-3-5(7)9-6/h1,3-4H,(H2,7,8,9)
