16
gdb 20116	5.09833	1.3528	1.19916	2.6236	67.83	-0.2539	-0.0085	0.2454	1015.4845	0.131428	-379.890274	-379.882688	-379.881744	-379.922805	27.133	
O	-0.0988243242	 0.2433959368	 0.5699181463	-0.365687
C	-0.1626512957	 1.4558225124	 0.5047358794	 0.383492
C	 1.0591678403	 2.3182352378	 0.4664840967	-0.101831
C	 2.1659073862	 1.9431360121	 1.4003365191	-0.218115
N	 2.295256139	 1.6914434877	-0.029890606	-0.30794
N	-1.3646029893	 2.1536586227	 0.5388218755	-0.087106
C	-1.8980282381	 2.9374655526	-0.5646271652	-0.234872
C	-2.5594455091	 1.6695427182	-0.1098830825	-0.217484
H	 0.9176261494	 3.3603843715	 0.1997750627	 0.098163
H	 2.8021008625	 2.7288056503	 1.7970865229	 0.124876
H	 1.9811663978	 1.101230018	 2.0608834521	 0.135227
H	 2.0745691269	 0.7095479196	-0.2004247492	 0.247319
H	-2.3239021596	 3.9015402532	-0.3014625626	 0.131904
H	-1.3613382015	 2.9120398692	-1.5098561134	 0.138063
H	-2.4542698635	 0.784648295	-0.7313446975	 0.142769
H	-3.4714675411	 1.7211474829	 0.4771400019	 0.131222
71.5653	91.9923	179.3154	206.2252	288.5956	308.3695	434.4481	595.3468	765.1459	774.7596	818.4393	849.2882	873.5436	937.6976	969.5516	985.2138	1018.1963	1049.1575	1110.2185	1126.8515	1129.3534	1136.3656	1151.2076	1173.814	1179.8025	1187.2294	1288.479	1317.5727	1367.6302	1428.267	1495.5029	1496.909	1523.8728	1766.6305	3109.0077	3116.217	3119.8146	3165.1829	3195.3261	3210.9122	3212.0332	3465.1932
O=C(C1CN1)N1CC1	O=C([C@H]1CN1)N1CC1	
InChI=1S/C5H8N2O/c8-5(4-3-6-4)7-1-2-7/h4,6H,1-3H2	InChI=1S/C5H8N2O/c8-5(4-3-6-4)7-1-2-7/h4,6H,1-3H2/t4-/m1/s1
