20
gdb 64025	2.13583	1.87724	1.38284	2.8754	80.12	-0.2268	0.0183	0.2451	1034.203	0.170885	-403.134772	-403.126146	-403.125202	-403.167369	34.304	
C	-0.0442586182	 1.5440619809	-0.0189877213	-0.438237
C	 0.0166990631	 0.0130793283	 0.0015737943	 0.29624
O	-1.2972076227	-0.5366056216	 0.0104033361	-0.480624
C	 0.9009333998	-0.5102128419	-1.1705835716	-0.324371
C	 2.2376377521	-0.7701258005	-0.5176939614	-0.083322
C	 2.1509656105	-0.767812311	 0.8125903471	-0.123254
C	 0.7590541808	-0.5035675382	 1.2596077821	 0.318733
C	 0.3376107139	-0.1186820857	 2.6289204644	-0.300991
N	 0.1279482539	-1.4946011783	 2.155250248	-0.370253
H	 0.9621606264	 1.9698987788	 0.0294173634	 0.131406
H	-0.5101809779	 1.8979667359	-0.947617906	 0.103113
H	-0.6227175047	 1.9264143734	 0.8259201319	 0.120593
H	-1.8389379557	-0.0419728644	-0.6119597291	 0.28107
H	 0.4687901382	-1.4358955167	-1.5717494142	 0.117264
H	 0.9566603832	 0.2056243467	-1.9993815216	 0.093901
H	 3.1387220798	-0.9663797194	-1.0876079685	 0.095136
H	 2.954317174	-0.973566305	 1.5095822977	 0.099985
H	 1.0775225111	-0.0076934705	 3.4181331325	 0.110304
H	-0.5289089144	 0.5309184866	 2.7292701687	 0.107438
H	-0.8407607533	-1.6002400476	 1.8578468172	 0.24587
88.0401	211.8101	229.9016	253.5024	269.6069	294.9075	330.0958	375.7575	426.193	476.114	541.5879	571.5667	635.3284	731.6705	769.8984	857.9017	893.8136	909.1101	939.8	949.5901	969.0986	970.9145	981.2602	995.1829	1076.0347	1088.4223	1109.4023	1132.2245	1139.7856	1179.5175	1233.3211	1280.293	1291.2456	1302.847	1331.7006	1378.1794	1403.2246	1423.8513	1480.1868	1492.4611	1495.3591	1507.9437	1677.8072	3020.0796	3023.8146	3057.1292	3093.92	3096.5073	3124.2363	3178.7283	3188.9794	3215.4918	3488.6089	3825.7496
CC1(O)CC=CC11CN1	C[C@@]1(O)CC=C[C@]21CN2	
InChI=1S/C7H11NO/c1-6(9)3-2-4-7(6)5-8-7/h2,4,8-9H,3,5H2,1H3	InChI=1S/C7H11NO/c1-6(9)3-2-4-7(6)5-8-7/h2,4,8-9H,3,5H2,1H3/t6-,7-/m1/s1
