18
gdb 124557	2.56249	1.37199	1.01233	4.5782	73.82	-0.2444	-0.0241	0.2203	1206.5747	0.147215	-435.239893	-435.230845	-435.229901	-435.273751	33.49	
C	-0.4538752391	 1.2343980839	 0.1078706084	-0.389691
C	 0.1246129557	-0.1767231119	-0.1280795631	-0.099164
C	 1.0870534138	-0.1869962574	-1.3226572131	-0.38451
C	 0.7697921253	-0.6988859385	 1.124524645	 0.317182
N	 2.0573538276	-0.7343976294	 1.3260748233	-0.155112
O	 2.2466260669	-1.2602824614	 2.5686627382	-0.167375
N	 1.0421850271	-1.5566689032	 3.1738900962	-0.168318
C	 0.1297678205	-1.2257663289	 2.2986794764	 0.271136
N	-1.2208134535	-1.4528665235	 2.4832237993	-0.593188
H	 0.3505600307	 1.9482027699	 0.3107559098	 0.137175
H	-1.0004083145	 1.5748801127	-0.7767588697	 0.123679
H	-1.1429240956	 1.2642584124	 0.9590392935	 0.10632
H	-0.7149344512	-0.8499666969	-0.3511890821	 0.094799
H	 1.9427511118	 0.4679590932	-1.1376755203	 0.139934
H	 1.473040554	-1.1918521491	-1.5116249174	 0.129158
H	 0.5726337644	 0.1625757282	-2.2227400593	 0.110597
H	-1.4589082471	-1.6840944886	 3.4382860513	 0.267078
H	-1.8240769068	-0.7348933814	 2.1089789437	 0.260301
55.4732	148.5107	168.1044	223.7703	254.506	272.3774	298.0319	304.9791	377.121	466.7097	516.7004	614.1893	617.805	670.9043	748.4966	791.3436	888.7886	920.4188	932.0638	944.5273	970.407	1032.6044	1114.2174	1127.0662	1153.5877	1171.3356	1243.0474	1337.7559	1377.7197	1399.9984	1421.7757	1465.4098	1482.8501	1489.0147	1499.6451	1507.6735	1553.1995	1626.0456	1664.7915	3008.8184	3032.5725	3046.202	3098.1789	3114.1466	3119.2139	3126.2432	3561.138	3660.2361
CC(C)C1=NON=C1N	CC(C)c1nonc1N	
InChI=1S/C5H9N3O/c1-3(2)4-5(6)8-9-7-4/h3H,1-2H3,(H2,6,8)	InChI=1S/C5H9N3O/c1-3(2)4-5(6)8-9-7-4/h3H,1-2H3,(H2,6,8)
