13
gdb 128143	2.27214	1.36038	0.85552	1.7255	73.83	-0.2603	-0.0928	0.1675	1248.5504	0.087747	-448.94249	-448.933136	-448.932192	-448.977739	30.925	
C	-0.1445609886	 1.4970890907	-0.1520215542	-0.339434
N	 0.0089729048	 0.0823035972	 0.1335459166	-0.360177
C	 0.7940689334	-0.3663428992	 1.1446548676	 0.423848
C	 0.8177037606	-1.8604666327	 1.2746241155	 0.013245
N	 1.5745432612	-2.3225083106	 2.2483894459	 0.212075
N	 2.235081995	-2.6516700067	 3.0978018155	-0.163171
O	 1.4395711762	 0.3319308446	 1.9043234546	-0.3976
C	 0.1193350346	-2.7761715213	 0.4640171933	 0.248489
N	-0.4907746903	-3.4575346972	-0.2517880711	-0.357334
H	 0.4626854495	 2.0465348701	 0.5673853401	 0.177123
H	 0.1974928821	 1.7325004881	-1.1651914844	 0.137065
H	-1.1898463562	 1.8072212324	-0.0509146151	 0.13707
H	-0.4832413623	-0.5873212955	-0.4368342044	 0.2688
64.3455	85.366	114.6476	119.3351	136.4157	206.1783	282.8705	385.2818	456.963	461.5226	514.2194	534.7586	553.4115	621.1692	743.5089	822.6818	1029.0991	1153.711	1167.6674	1201.8887	1257.9863	1334.3675	1444.5407	1495.785	1498.4294	1572.9319	1775.6743	2240.2876	2321.1964	3036.3366	3091.9309	3161.3292	3630.5914
CNC1=C(N=NO1)C#N	CNC(=O)[C]([N][N])C#N	
InChI=1S/C4H4N4O/c1-6-4-3(2-5)7-8-9-4/h6H,1H3	InChI=1S/C4H4N4O/c1-7-4(9)3(2-5)8-6/h1H3,(H,7,9)
