16
gdb 20894	5.52459	1.28368	1.14057	0.8421	67.72	-0.2063	0.0252	0.2315	1055.611	0.131423	-379.937846	-379.929962	-379.929017	-379.970663	28.528	
C	-0.0950530715	 1.5252778343	-0.3002336472	-0.372306
C	-0.0619746643	 0.0704129674	 0.1711630926	-0.139817
N	-1.3637670675	-0.571915726	 0.1062179006	 0.066559
C	-1.8603688547	-1.3413460095	-0.9033899961	-0.117009
C	-3.1621562287	-1.6399941547	-0.5524619226	 0.215228
O	-4.0152307243	-2.4065558849	-1.2885215053	-0.444441
C	-3.361995702	-0.9986303799	 0.6865428905	-0.116265
N	-2.2618028748	-0.3487471486	 1.0747995171	-0.261487
H	 0.8991269731	 1.973936944	-0.2107715441	 0.118321
H	-0.410940051	 1.5921887867	-1.3455552548	 0.125293
H	-0.7943173296	 2.1022054104	 0.3099150048	 0.145392
H	 0.6278614246	-0.522628215	-0.4365452957	 0.117971
H	 0.2713331993	 0.0126105022	 1.2106025187	 0.133278
H	-1.2727399462	-1.6197724109	-1.7622420416	 0.128547
H	-4.8537672431	-2.4654922059	-0.8215909277	 0.299393
H	-4.2459838292	-0.9916948697	 1.3086650507	 0.101343
43.6717	113.8382	211.8266	216.3557	306.3759	310.8375	408.748	451.2107	608.4843	648.4051	674.1559	741.8937	755.7039	795.0249	828.3003	959.9911	1009.592	1036.5168	1097.4439	1106.5211	1161.6342	1204.0575	1253.5125	1284.5604	1381.9704	1393.4232	1400.3539	1409.5279	1441.4136	1480.1253	1488.6585	1501.6997	1507.9743	1645.4284	3043.9705	3061.611	3104.1587	3118.6461	3134.9692	3231.6612	3272.4824	3841.4089
CCN1C=C(O)C=N1	CCn1cc(O)cn1	
InChI=1S/C5H8N2O/c1-2-7-4-5(8)3-6-7/h3-4,8H,2H2,1H3	InChI=1S/C5H8N2O/c1-2-7-4-5(8)3-6-7/h3-4,8H,2H2,1H3
