20
gdb 66429	2.73375	1.58873	1.25901	1.826	83.56	-0.202	0.0789	0.2809	1105.1236	0.16871	-365.914724	-365.905894	-365.90495	-365.947449	34.177	
C	 0.0418350489	 1.4954481236	 0.0407442789	-0.522472
C	-0.0220776775	 0.0112046629	-0.0730539086	 0.371494
C	 0.8610731064	-0.9882399037	-0.7331612995	-0.185549
N	 0.8131805882	-0.9149980309	 0.7757307313	-0.251092
C	-0.3380177888	-1.9273032003	 0.7409439328	 0.336747
C	-0.6271496722	-2.8924973937	 1.8366046149	-0.520659
C	-1.2012820227	-0.9987368394	-0.0837201291	-0.295491
C	-0.2841349333	-2.0348384717	-0.7660701487	 0.296478
C	-0.6279034799	-3.141056093	-1.7070038768	-0.528755
H	 1.084249569	 1.8186338515	 0.1247758192	 0.132794
H	-0.4001145832	 1.980739763	-0.8367855663	 0.120162
H	-0.4937224724	 1.8455655208	 0.9304640014	 0.125055
H	 1.7902529568	-0.8826963064	-1.2836515999	 0.087245
H	-0.8512539734	-2.3675461508	 2.7719930655	 0.129131
H	-1.4906232043	-3.5168906717	 1.5832595753	 0.121028
H	 0.2301201247	-3.551277223	 2.0153478389	 0.128353
H	-2.2763400324	-0.8955720258	-0.1521664142	 0.086189
H	-0.8286410866	-2.7641817456	-2.7169375788	 0.12309
H	 0.1832661599	-3.8753573369	-1.7795921453	 0.123865
H	-1.5252164172	-3.6716360588	-1.369704571	 0.122386
172.0041	179.4985	200.0195	203.3181	207.8918	220.4289	267.8394	342.3718	385.1586	557.6572	580.707	676.3609	680.1917	750.3423	756.003	827.4932	844.3339	863.6986	892.412	927.0659	952.3785	1007.6043	1012.1956	1079.9595	1099.3816	1102.7595	1112.0505	1144.2136	1165.1109	1210.1815	1259.5308	1332.933	1395.4808	1406.7444	1414.8747	1439.1394	1473.5164	1477.0537	1478.3815	1484.067	1491.2159	1494.2436	1510.8891	3017.5381	3024.5851	3025.8168	3075.0011	3088.3467	3088.6214	3089.1979	3099.7643	3106.6704	3160.8577	3199.8974
CC12C3N1C1(C)C2C31C	C[C@@]12[C@H]3N1[C@@]1(C)[C@@H]2[C@@]31C	
InChI=1S/C8H11N/c1-6-4-7(2)5(6)9(7)8(4,6)3/h4-5H,1-3H3	InChI=1S/C8H11N/c1-6-4-7(2)5(6)9(7)8(4,6)3/h4-5H,1-3H3/t4-,5+,6+,7-,8+,9?/m1/s1
