15
gdb 12348	3.27375	2.23595	1.38529	4.0405	64.29	-0.2475	-0.0184	0.2291	845.4506	0.121394	-396.001485	-395.99453	-395.993586	-396.032507	26.707	
O	-0.0131440364	 1.4029798606	 0.0909779522	-0.435845
C	 0.0184574927	 0.0075627174	-0.0103164643	 0.074068
C	-1.3981712723	-0.5814685905	 0.0032069461	-0.182745
N	-1.4250972107	-2.0260622541	-0.2227401642	-0.238435
C	-0.5232047298	-2.4936557836	-0.9804196554	 0.087658
N	 0.5002871968	-1.7624438167	-1.5908856384	-0.35379
C	 0.7473954868	-0.4403241975	-1.2668759824	 0.3754
N	 1.510594445	 0.384394898	-1.8646510805	-0.554749
H	 0.6499589354	 1.7223897292	-0.5422152452	 0.296533
H	 0.5750630341	-0.4352832109	 0.8368025153	 0.096615
H	-1.8757462231	-0.3599172555	 0.9610171539	 0.124403
H	-1.9988649577	-0.0848183072	-0.7721503928	 0.122415
H	-0.5057995815	-3.5550501582	-1.2256508564	 0.122586
H	 1.0573501077	-2.2059130359	-2.3058972034	 0.251822
H	 1.9613618731	-0.0013060351	-2.6942524343	 0.214063
120.5782	156.2087	312.4364	353.4237	412.3525	448.8007	470.6264	507.0669	539.0679	573.5246	662.5231	778.5092	850.7063	897.7657	937.853	976.9619	1043.3564	1047.8572	1083.2962	1146.8243	1160.8435	1211.6935	1294.0142	1304.182	1330.274	1396.6624	1430.4752	1456.2969	1460.2976	1489.7359	1732.5759	1747.3301	2930.7163	3017.9708	3092.2731	3140.1881	3477.3323	3612.745	3680.3611
OC1CN=CNC1=N	O[C@H]1CN=CN[C]1[NH]	
InChI=1S/C4H7N3O/c5-4-3(8)1-6-2-7-4/h2-3,8H,1H2,(H2,5,6,7)	InChI=1S/C4H7N3O/c5-4-3(8)1-6-2-7-4/h2-3,8H,1H2,(H2,5,6,7)/t3-/m0/s1
