19
gdb 81387	2.14543	1.87695	1.58139	2.5001	69.16	-0.2334	0.0458	0.2792	960.3993	0.161492	-460.14613	-460.138394	-460.137449	-460.178023	31.132	
O	 0.1390624911	 1.5424619645	 0.1709528108	-0.428014
C	 0.0194149922	 0.1338436384	 0.0780272072	 0.093652
C	 0.1377609342	-0.6621325347	 1.3877928232	 0.070992
C	-0.5003564521	 0.0976194812	 2.5552871601	-0.237309
C	-2.0297445922	 0.1905580362	 2.3238308762	-0.230173
C	-2.4340420245	 0.2051037209	 0.8256598415	 0.126519
O	-2.6541676064	 1.4986262499	 0.2841690903	-0.44917
C	-1.3669855641	-0.5554959492	 0.0144564646	 0.002992
O	-0.8102658378	-1.6256472464	 0.8335672107	-0.300178
H	 0.3677840334	 1.8903830658	-0.696000245	 0.300223
H	 0.6871372171	-0.2703288253	-0.6884774676	 0.091944
H	 1.0966181772	-1.1257539284	 1.6326343573	 0.07862
H	-0.2950017812	-0.4136776868	 3.5003819886	 0.101063
H	-0.0365820813	 1.0877143418	 2.6187912474	 0.117873
H	-2.4952952994	-0.6852518441	 2.7831325213	 0.111817
H	-2.4570314449	 1.0726108325	 2.8085391051	 0.104583
H	-3.3936187217	-0.3121027353	 0.7237139269	 0.08537
H	-1.798276652	 1.9476612854	 0.3073066632	 0.281574
H	-1.7348474176	-0.9129229962	-0.9505694819	 0.077621
101.1496	226.5376	243.4254	246.876	331.4376	375.688	419.1394	464.0638	571.8556	593.4562	602.5194	666.8292	747.3716	793.7802	831.3088	857.7389	921.5075	946.6763	979.69	1009.3081	1016.5505	1066.9108	1087.3498	1114.9005	1139.2572	1159.291	1188.3703	1221.9935	1243.1231	1267.256	1304.8028	1317.0302	1333.0435	1343.4914	1353.8892	1372.1469	1385.0241	1438.1541	1468.3289	1480.5004	1494.3224	3046.5333	3049.0794	3059.5959	3065.186	3078.4697	3084.2613	3089.1424	3109.1451	3743.201	3835.9608
OC1C2CCC(O)C1O2	O[C@H]1[C@H]2CC[C@@H](O)[C@@H]1O2	
InChI=1S/C6H10O3/c7-3-1-2-4-5(8)6(3)9-4/h3-8H,1-2H2	InChI=1S/C6H10O3/c7-3-1-2-4-5(8)6(3)9-4/h3-8H,1-2H2/t3-,4-,5+,6+/m1/s1
