19
gdb 84943	2.06439	1.70303	1.32188	3.4252	76.66	-0.2319	-0.0237	0.2082	1064.4017	0.160212	-423.047778	-423.039297	-423.038353	-423.080647	32.567	
O	-0.0523335677	 1.4247891154	-0.2190883334	-0.435437
C	 0.0251615193	 0.0065674683	-0.0725235854	-0.00193
C	 0.7439286743	-0.4080256727	 1.1984424495	-0.118571
C	 0.3684341999	-0.039312587	 2.4257072665	-0.046308
C	-0.8457995464	 0.7971731442	 2.7720144442	-0.243292
C	-2.1836050106	 0.1918330212	 2.3009672705	-0.199231
C	-2.4262253622	 0.2301549331	 0.7747173843	-0.289592
C	-1.4057489696	-0.5551599747	-0.0305295274	 0.390129
O	-1.6667865178	-1.5932184394	-0.5913672358	-0.314056
H	 0.8039358791	 1.7866117301	 0.0320248704	 0.286202
H	 0.5138621679	-0.4493994757	-0.9420290006	 0.088792
H	 1.6120379477	-1.048663943	 1.0734821234	 0.100194
H	 0.9754462931	-0.3775862139	 3.2626480825	 0.099814
H	-0.8868040465	 0.9244651878	 3.8580602956	 0.100313
H	-0.7400912333	 1.7997451091	 2.3406817209	 0.119953
H	-2.257151938	-0.8437489485	 2.653472979	 0.112429
H	-3.0016095079	 0.7438980847	 2.7779175621	 0.103499
H	-3.407599686	-0.1948378489	 0.5487157016	 0.114523
H	-2.4041075254	 1.2714211201	 0.437282252	 0.132569
104.5418	117.724	216.8977	223.0495	260.4826	317.1965	346.5924	389.2479	470.6061	501.5712	585.3829	650.2392	679.4263	750.5008	802.3426	852.1458	897.5656	910.0943	939.087	991.0144	993.7197	1052.9462	1060.4952	1092.811	1143.0259	1186.9093	1227.3668	1254.0107	1266.4195	1291.1593	1345.5096	1355.2301	1364.3985	1379.7977	1382.6066	1413.1698	1467.3903	1482.7711	1489.2613	1703.9117	1814.5247	3029.8654	3032.4391	3035.727	3052.7992	3073.5481	3081.1731	3112.7377	3145.8107	3174.7723	3812.809
OC1C=CCCCC1=O	O[C@H]1C=CCCCC1=O	
InChI=1S/C7H10O2/c8-6-4-2-1-3-5-7(6)9/h2,4,6,8H,1,3,5H2	InChI=1S/C7H10O2/c8-6-4-2-1-3-5-7(6)9/h2,4,6,8H,1,3,5H2/t6-/m0/s1
