23
gdb 122119	3.09093	0.73066	0.62213	3.4852	84.52	-0.2433	-0.0151	0.2282	1885.4129	0.201948	-425.436753	-425.425256	-425.424312	-425.474907	39.312	
C	-0.045498308	 1.5150779557	 0.0596557127	-0.385257
C	-0.0009020473	-0.0017192874	-0.0064196353	-0.030115
O	-1.327924347	-0.4923261828	-0.0040961236	-0.246336
C	-1.41159069	-1.8974431687	-0.0665238234	-0.078891
C	-2.8853852646	-2.2870539074	-0.0029754323	-0.07487
C	-3.0611819714	-3.8232076445	-0.0375013302	-0.199792
C	-4.5112248071	-4.2675385844	-0.2487005984	-0.389464
C	-3.4972323338	-1.7443400971	 1.2763992526	 0.182752
O	-4.588693345	-1.247641662	 1.3699597209	-0.255178
H	 0.9684002597	 1.926010392	 0.0607806943	 0.115693
H	-0.5846369436	 1.9205449292	-0.8010080973	 0.12969
H	-0.5558272967	 1.8442960659	 0.9690709013	 0.130671
H	 0.5229631294	-0.3360066234	-0.917879091	 0.087299
H	 0.5556287455	-0.4127544152	 0.8529097515	 0.086993
H	-0.9550467407	-2.2803941014	-0.9941894772	 0.091807
H	-0.8613068052	-2.3556990884	 0.7756456521	 0.0858
H	-3.4198875175	-1.8341628326	-0.8446503551	 0.101596
H	-2.4300463197	-4.2243914312	-0.8399433498	 0.104024
H	-2.6707192485	-4.2510598633	 0.8960482887	 0.102426
H	-4.5890946895	-5.3586723917	-0.2316494616	 0.114285
H	-5.1707659967	-3.8673299459	 0.526621022	 0.138594
H	-4.8910514723	-3.9180258169	-1.2142758968	 0.121925
H	-2.8516475301	-1.8876628485	 2.1772053056	 0.066349
47.6399	69.991	74.7822	88.9351	104.941	149.3703	217.9096	244.4464	245.9566	281.4341	317.845	349.2514	445.1516	478.597	584.969	775.8992	821.1322	860.6379	898.4753	916.7231	977.8228	1020.4225	1028.6208	1047.9671	1107.184	1134.0904	1158.2686	1169.1318	1171.8828	1191.6314	1251.4732	1264.8074	1296.853	1299.3004	1352.1725	1367.9904	1384.5789	1406.4683	1419.3338	1428.8377	1447.3183	1483.4047	1487.9565	1499.0944	1499.157	1505.9919	1512.856	1535.7045	1837.328	2835.0815	2939.1923	2957.6443	2978.8089	2981.4072	3015.0603	3040.5299	3046.4849	3048.8093	3069.2298	3107.9863	3118.0036	3121.1235	3123.8854
CCOCC(CC)C=O	CCOC[C@@H](CC)C=O	
InChI=1S/C7H14O2/c1-3-7(5-8)6-9-4-2/h5,7H,3-4,6H2,1-2H3	InChI=1S/C7H14O2/c1-3-7(5-8)6-9-4-2/h5,7H,3-4,6H2,1-2H3/t7-/m0/s1
