12
gdb 25324	2.36618	1.58695	0.94988	4.3664	74.57	-0.2577	-0.0791	0.1787	1116.4697	0.076826	-435.490231	-435.482744	-435.4818	-435.522631	26.839	
O	-0.0193856673	-0.0764659688	-0.0028090019	-0.249337
C	 0.0152965605	 1.1297014769	 0.0077069035	 0.066074
C	 1.2460572103	 1.9306586371	 0.001388683	 0.049286
C	 1.3313973011	 3.3043569135	 0.0128426733	 0.176922
O	 2.6602942648	 3.6299137609	 0.001086619	-0.177914
C	 3.2996657866	 2.4318567932	-0.0166989397	 0.068151
N	 2.5286669641	 1.4001480107	-0.0174858845	-0.274213
C	 0.3786667368	 4.3318922776	 0.0325817465	 0.268117
C	-0.4526428043	 5.202908021	 0.0495635803	-0.394079
H	-0.9098559874	 1.7443262052	 0.023404344	 0.085389
H	 4.3780494205	 2.4669018805	-0.0282623099	 0.16718
H	-1.1868776256	 5.9711277324	 0.0645517763	 0.214424
121.0927	129.5632	164.9632	222.9238	282.0237	426.866	454.1801	580.3728	595.6057	596.1836	663.4892	698.7458	742.5116	810.6155	864.9822	950.652	1033.371	1066.6488	1116.1509	1235.5211	1307.3064	1375.712	1426.0428	1556.9569	1581.2915	1804.1885	2234.4612	2906.5919	3278.0177	3495.6317
O=CC1=C(OC=N1)C#C	O=Cc1c(ocn1)C#C	
InChI=1S/C6H3NO2/c1-2-6-5(3-8)7-4-9-6/h1,3-4H	InChI=1S/C6H3NO2/c1-2-6-5(3-8)7-4-9-6/h1,3-4H
