19
gdb 83654	2.36114	1.72194	1.26542	2.7096	74.19	-0.2475	0.0516	0.299	1047.9232	0.159164	-422.970339	-422.962287	-422.961343	-423.002972	31.442	
O	 0.7030777655	 0.7918295338	-0.7132920678	-0.423899
C	 0.1728941614	-0.324010245	-0.0489773518	 0.046526
C	 0.2755449258	-0.4747719407	 1.4970947361	-0.061186
C	-0.09239338	 0.7835719411	 2.3341204009	-0.242055
C	-1.5362787165	 0.2363775893	 2.5456320385	-0.21947
C	-1.2407196713	-0.9123773091	 1.5507240244	-0.134602
C	-1.3472423822	-0.51024833	 0.071842678	 0.409009
C	-2.4122155761	 0.2068117936	-0.6364925072	-0.275387
O	-2.132224569	-1.1742157579	-0.899981447	-0.27608
H	 0.3240949726	 1.5850715126	-0.3198950281	 0.281389
H	 0.6098819425	-1.2001845519	-0.539827818	 0.106694
H	 1.0922436299	-1.0872692092	 1.8773117383	 0.072452
H	 0.4896724975	 0.9019886519	 3.2498527254	 0.111665
H	-0.0301293219	 1.7321090513	 1.7890703402	 0.083092
H	-1.6913292897	-0.1283006255	 3.5640959574	 0.106877
H	-2.3664667605	 0.9011249786	 2.2902676953	 0.097401
H	-1.5760602619	-1.9226183093	 1.7853915962	 0.082617
H	-3.3605221731	 0.404784917	-0.1381208199	 0.115657
H	-2.150123043	 0.8937631596	-1.440488611	 0.119302
66.7694	189.1204	205.2897	232.3278	278.3555	292.5192	419.0725	455.4166	559.8394	595.3681	663.576	761.9164	796.7646	805.964	848.4743	884.0285	898.2679	953.0773	957.2531	986.8555	1033.5311	1077.4428	1093.8701	1107.1351	1128.5282	1136.2705	1158.3074	1172.8003	1205.5395	1224.3624	1236.2402	1260.49	1270.5024	1285.7054	1306.1001	1315.1422	1416.1333	1436.5432	1478.6895	1497.2063	1524.3743	3039.5767	3054.5652	3061.7826	3078.0525	3095.3967	3109.892	3111.5881	3122.9769	3166.4412	3809.6039
OC1C2CCC2C11CO1	O[C@H]1[C@H]2CC[C@H]2[C@]21CO2	
InChI=1S/C7H10O2/c8-6-4-1-2-5(4)7(6)3-9-7/h4-6,8H,1-3H2	InChI=1S/C7H10O2/c8-6-4-1-2-5(4)7(6)3-9-7/h4-6,8H,1-3H2/t4-,5+,6-,7-/m0/s1
