22
gdb 83276	2.66251	1.29488	1.15813	2.3222	81.43	-0.2099	0.0711	0.281	1189.7746	0.195467	-404.327557	-404.318607	-404.317663	-404.360862	34.794	
C	-0.4574749083	 1.4226855589	 0.1234455234	-0.426168
C	-0.0723716441	-0.0317940478	-0.0250146488	 0.014773
C	 0.6173339054	-0.5862535795	-1.2247556722	-0.023286
C	 1.0857484587	 0.2449835808	-2.4177133742	-0.245707
C	 2.2261713215	 1.2344824147	-2.1047545644	-0.235535
C	 3.1776385546	 0.6662412783	-1.051864623	 0.129168
O	 4.2250760083	 1.5692923756	-0.7268160448	-0.435574
C	 2.4205286553	 0.4040381717	 0.2497100028	-0.154235
N	 1.3060105467	-0.5356895485	 0.0770157823	-0.125688
H	-1.5109319073	 1.5474877775	-0.1490604816	 0.121023
H	-0.348484455	 1.7536248784	 1.163004623	 0.126755
H	 0.1256762686	 2.0975638405	-0.5047728219	 0.124141
H	-0.7769882458	-0.6959240519	 0.4769385159	 0.082497
H	 0.3475968185	-1.6035355043	-1.5078338188	 0.08368
H	 1.4441569799	-0.4610880758	-3.17532195	 0.106564
H	 0.2400891522	 0.7716002081	-2.8760686372	 0.105997
H	 2.7740151405	 1.4585683798	-3.0288942829	 0.083598
H	 1.846694149	 2.1922859382	-1.7314615787	 0.110568
H	 3.5910913044	-0.2899824374	-1.4156221194	 0.067863
H	 4.7167583594	 1.7581169754	-1.532288138	 0.27986
H	 3.1123385951	-0.0198303305	 0.9851118748	 0.108837
H	 2.0930820422	 1.3738291777	 0.6475085936	 0.100871
92.5636	143.3677	174.4251	195.3919	266.1262	268.2211	336.0225	412.4532	438.4386	459.0829	477.173	537.4699	670.426	725.2116	773.9785	826.238	835.8478	920.299	947.5626	963.4143	993.4648	1042.8142	1074.0799	1087.2084	1106.023	1123.2641	1135.7177	1160.7143	1184.7521	1194.1564	1234.8896	1249.0072	1290.9377	1324.3342	1350.7342	1353.877	1368.794	1388.0824	1402.9808	1417.1191	1435.8148	1444.3649	1481.244	1490.4469	1497.2801	1506.2553	1523.0086	2955.0418	3018.2793	3020.9201	3031.5678	3034.9656	3052.7677	3062.2767	3074.1073	3084.8736	3089.2725	3098.2938	3136.8439	3815.933
CC1C2CCC(O)CN12	C[C@H]1[C@H]2CC[C@@H](O)CN12	
InChI=1S/C7H13NO/c1-5-7-3-2-6(9)4-8(5)7/h5-7,9H,2-4H2,1H3	InChI=1S/C7H13NO/c1-5-7-3-2-6(9)4-8(5)7/h5-7,9H,2-4H2,1H3/t5-,6+,7+,8?/m0/s1
