21
gdb 70539	2.55349	1.44584	1.15652	2.9894	82.04	-0.2349	-0.0106	0.2243	1156.7273	0.18337	-387.119876	-387.111301	-387.110356	-387.153174	33.419	
C	 0.0112887158	 1.5374013898	 0.0021514749	-0.462366
C	 0.005487558	 0.0219617335	 0.03358266	 0.330265
C	-0.8639007153	-0.6596688358	 1.0601139627	-0.322474
C	 0.6416847675	-0.6795023251	 1.2227781578	-0.05707
C	 1.4084632427	-1.9933703569	 1.0744270486	-0.24107
C	 1.7360964721	-2.3545714853	-0.3920749827	-0.287592
C	 0.5471006702	-2.0921769893	-1.2990492619	 0.373132
O	-0.003105434	-2.9565992121	-1.9410099406	-0.313607
C	 0.1152746687	-0.6328900382	-1.3418971647	-0.359688
H	 0.9473232704	 1.9238794439	-0.4186347316	 0.113521
H	-0.8119692953	 1.9215315878	-0.6119576156	 0.119177
H	-0.1018338715	 1.9555566689	 1.0073312537	 0.114348
H	-1.4516203825	-0.0424685212	 1.7316282333	 0.107719
H	-1.3465274748	-1.5924356425	 0.7805313146	 0.118718
H	 1.0315571476	-0.0160158778	 1.9892333036	 0.083023
H	 2.3448726199	-1.9382653621	 1.6380812443	 0.106721
H	 0.8313582254	-2.8109472673	 1.5214380905	 0.116492
H	 2.563814213	-1.7208244241	-0.7372481626	 0.111904
H	 2.038027907	-3.3995771901	-0.4883105393	 0.117157
H	-0.8239443481	-0.5577603956	-1.8987838713	 0.117865
H	 0.8829312833	-0.1016360105	-1.9247865238	 0.113826
58.3559	110.8477	199.0199	232.243	303.6825	355.1082	372.9105	400.4087	463.672	495.538	537.4372	621.553	745.4365	772.6399	785.4145	863.4901	876.718	907.235	931.018	952.3866	990.4692	1021.0084	1042.7387	1059.2579	1114.7896	1120.7625	1129.1069	1171.103	1219.813	1224.8947	1240.4741	1250.7384	1320.8954	1331.2239	1335.4033	1373.158	1411.2246	1417.92	1463.0725	1476.4218	1488.0074	1490.9231	1498.42	1506.0337	1818.5077	3000.3588	3019.0837	3025.1118	3036.3862	3076.2926	3078.3751	3080.617	3097.612	3113.6579	3115.352	3144.1586	3201.4971
CC12CC1CCC(=O)C2	C[C@]12C[C@H]1CCC(=O)C2	
InChI=1S/C8H12O/c1-8-4-6(8)2-3-7(9)5-8/h6H,2-5H2,1H3	InChI=1S/C8H12O/c1-8-4-6(8)2-3-7(9)5-8/h6H,2-5H2,1H3/t6-,8-/m1/s1
