12
gdb 42676	2.84751	1.64777	1.2059	3.5777	63.47	-0.261	-0.0342	0.2268	955.2896	0.076649	-435.403831	-435.39717	-435.396225	-435.435175	25.29	
O	 0.0023672408	-0.0971239467	 0.0940849467	-0.303288
C	-0.013776527	 1.0907347189	 0.0360652048	 0.467167
C	-1.0250719511	 2.2354623457	 0.0220050742	-0.301411
C	-0.02244602	 3.1153183653	 0.8570645455	 0.066976
O	-0.0554408124	 4.2477987531	-0.0575034732	-0.33917
C	-0.0580526142	 3.0715735236	-0.9079151459	 0.441675
C	-0.0890534754	 3.2049310181	-2.3387128659	 0.187207
N	-0.113763787	 3.2924218115	-3.4906013643	-0.326654
C	 0.9669668893	 2.2605422609	-0.0188112137	-0.301413
H	-2.1100468886	 2.2832559156	 0.0279816052	 0.133652
H	-0.0027207787	 3.2919114455	 1.9282448104	 0.141609
H	 2.0497300542	 2.3356242485	-0.0572445739	 0.133651
103.3475	179.7812	220.6955	388.5139	499.5716	500.4144	540.655	602.0377	651.8734	669.5804	770.7875	794.6417	816.4474	849.515	929.7158	955.3048	1010.6618	1063.9301	1088.4215	1096.2165	1131.3379	1179.5374	1187.924	1254.2969	1323.2455	1938.5279	2362.0474	3172.0394	3179.368	3184.7445
O=C1C2C3OC2(C#N)C13	O=C1[C@H]2[C@@H]3O[C@@]2(C#N)[C@H]13	
InChI=1S/C6H3NO2/c7-1-6-2-4(8)3(6)5(2)9-6/h2-3,5H	InChI=1S/C6H3NO2/c7-1-6-2-4(8)3(6)5(2)9-6/h2-3,5H/t2-,3+,5-,6+
