19
gdb 118374	1.68514	1.21133	0.73488	3.1718	82.98	-0.241	0.0129	0.2539	1531.5596	0.15722	-382.041682	-382.031323	-382.030379	-382.077797	36.609	
C	 0.0111270477	 1.5647726951	 0.0634681917	-0.39141
C	 0.1964658607	 0.0519439241	 0.1187632896	-0.113076
N	 0.5356643814	-0.4710123911	-1.2059835046	-0.298106
C	 0.6685865416	-1.9249810055	-1.2614536966	-0.162671
C	 0.8745783638	-2.3641377605	-2.7376102252	-0.344313
C	-0.2756825899	-2.0223012054	-3.5707754565	 0.255824
N	-1.199074079	-1.7328597371	-4.2030644949	-0.311016
C	 1.8099017094	-2.3871284658	-0.4673831175	 0.365246
C	 2.7462188679	-2.7982122457	 0.1630200064	-0.44813
H	 0.9165324854	 2.0504840295	-0.3109738822	 0.130429
H	-0.8184793672	 1.8382831438	-0.5986491066	 0.118304
H	-0.2136812399	 1.962055691	 1.0574173105	 0.118709
H	 1.0181543175	-0.2002425882	 0.7976958819	 0.120542
H	-0.7120469645	-0.4223589963	 0.5340849976	 0.08191
H	-0.1907818731	-0.1970184253	-1.8631225673	 0.233102
H	-0.2329269199	-2.4446859251	-0.8839563772	 0.104334
H	 1.7659886996	-1.8667889999	-3.1310631854	 0.171554
H	 1.042378734	-3.4437650797	-2.7798127084	 0.163532
H	 3.5702085146	-3.1528827477	 0.7320901148	 0.205234
64.5814	83.8675	88.6956	125.0477	154.7065	207.3024	251.3854	261.4113	379.25	386.6836	395.7246	498.7857	563.1276	594.2388	641.862	674.3924	768.2229	818.664	850.5207	934.884	944.5724	983.3212	1037.3406	1058.8373	1135.878	1154.9483	1188.2007	1234.7117	1286.8892	1298.0777	1338.9258	1372.3353	1390.612	1415.5191	1454.5972	1486.5961	1498.4387	1513.5464	1526.5037	2240.6783	2358.5478	2912.1975	2931.1208	3035.5243	3064.3402	3068.0393	3103.8454	3116.1038	3121.9999	3494.8992	3500.9252
CCNC(CC#N)C#C	CCN[C@@H](CC#N)C#C	
InChI=1S/C7H10N2/c1-3-7(5-6-8)9-4-2/h1,7,9H,4-5H2,2H3	InChI=1S/C7H10N2/c1-3-7(5-6-8)9-4-2/h1,7,9H,4-5H2,2H3/t7-/m1/s1
