17
gdb 50246	2.5909	1.63145	1.45705	3.6495	72.34	-0.2419	-0.0272	0.2147	972.9064	0.136334	-421.819223	-421.811705	-421.810761	-421.851981	28.172	
O	 0.3762118542	-0.1805561026	-0.5355808418	-0.233336
C	 0.1711546382	 0.9657963184	-0.2406930867	 0.142537
C	 1.2325576068	 2.0270226233	-0.051051963	 0.041127
O	 2.5776840657	 1.5530060909	-0.1258080506	-0.287806
C	 2.8637791187	 2.4063170397	-1.270722019	 0.092436
C	 2.9170192918	 1.6757273361	-2.5814692202	-0.071166
C	 1.8020302416	 1.852953631	-3.2894289554	-0.049526
C	 0.7908345708	 2.7447340808	-2.6025223778	-0.28736
C	 1.4431454435	 3.0304141856	-1.2327391837	-0.119127
H	-0.8640265371	 1.3540344031	-0.0774273953	 0.067548
H	 1.0276314686	 2.5285766195	 0.9082515179	 0.092253
H	 3.7336737751	 3.0392301396	-1.0650890949	 0.082777
H	 3.767307166	 1.074186244	-2.8795994193	 0.106534
H	 1.6081504265	 1.4163528552	-4.2633702479	 0.104983
H	 0.6256979395	 3.6724462148	-3.1651020455	 0.112699
H	-0.1916000967	 2.2635199672	-2.5257714826	 0.117333
H	 1.3718839569	 4.0732280634	-0.9272771742	 0.088095
57.1784	84.3208	209.6127	260.426	286.6108	430.3516	480.9182	637.1594	696.4688	732.5943	776.2296	796.9139	853.0217	868.4059	926.893	937.9602	956.4669	978.0251	984.2437	1021.1501	1047.4817	1077.9027	1118.0645	1129.9033	1164.0903	1219.1238	1236.3916	1277.2505	1308.8193	1315.7724	1338.66	1360.4242	1382.5764	1418.7893	1487.5198	1680.5172	1841.9985	2831.8309	2980.3569	3024.651	3049.3935	3051.8624	3120.8423	3188.0324	3216.6344
O=CC1OC2C=CCC12	O=C[C@H]1O[C@H]2C=CC[C@@H]12	
InChI=1S/C7H8O2/c8-4-7-5-2-1-3-6(5)9-7/h1,3-7H,2H2	InChI=1S/C7H8O2/c8-4-7-5-2-1-3-6(5)9-7/h1,3-7H,2H2/t5-,6+,7-/m1/s1
