23
gdb 70738	2.41964	1.52508	1.15661	1.2347	85.16	-0.2418	0.0852	0.327	1175.2605	0.207864	-388.289225	-388.280761	-388.279817	-388.321627	34.387	
C	-0.0505151458	 1.5114955727	 0.0927565694	-0.461782
C	-0.0114251663	-0.0033735754	-0.0010263889	 0.382164
C	-0.8466587207	-0.7825693115	 0.9876257264	-0.363004
C	 0.6605919439	-0.747522981	 1.1305159534	-0.045988
C	 1.4982915468	-1.9790495014	 0.8531179779	-0.107781
O	 2.6674208493	-1.6987473911	 0.0971710275	-0.240049
C	 2.4761785529	-1.7071909862	-1.3051409635	-0.065085
C	 1.6424707058	-0.5527995153	-1.8773026365	-0.193083
C	 0.1727372327	-0.5417708524	-1.4182314629	-0.28607
H	 0.8533869099	 1.9641659409	-0.330783678	 0.118306
H	-0.911098549	 1.9170791723	-0.4528063286	 0.112624
H	-0.1282257989	 1.8439830796	 1.1327001937	 0.112004
H	-1.445795186	-0.2350041996	 1.7080599378	 0.106656
H	-1.2980050222	-1.71294381	 0.6552084769	 0.105373
H	 1.0527121093	-0.1228432085	 1.9290865126	 0.08184
H	 1.8459401963	-2.4105844893	 1.7984988118	 0.102915
H	 0.8996829027	-2.7519480587	 0.3462063818	 0.082306
H	 3.4832874884	-1.6745103081	-1.734651639	 0.101792
H	 2.0189047045	-2.6653423317	-1.6110884402	 0.080058
H	 2.1251452622	 0.3982559232	-1.6231659671	 0.104123
H	 1.6836347837	-0.6422830317	-2.9710451105	 0.089655
H	-0.2324987747	-1.5579263976	-1.4982647669	 0.090815
H	-0.4235975148	 0.0703990007	-2.1063137272	 0.09221
140.8838	165.3023	219.8234	252.4481	309.5815	344.7873	367.4147	382.196	422.2874	447.5498	532.3817	564.2625	691.1949	797.7673	808.8951	873.8583	897.9066	907.0209	941.3329	950.0318	982.3687	999.5833	1042.4075	1056.4063	1061.595	1076.2611	1117.1268	1124.8039	1138.854	1187.7675	1203.6631	1252.141	1288.5387	1295.5331	1319.6317	1342.1688	1377.155	1381.225	1391.8645	1414.8786	1421.4947	1435.9193	1473.5311	1483.9575	1487.8715	1492.1778	1493.2966	1503.2944	1508.9336	2944.5941	2982.2409	3015.1414	3019.7289	3024.7198	3052.2572	3058.4059	3064.3111	3070.6462	3081.1387	3097.1127	3119.6812	3137.3928	3203.0482
CC12CC1COCCC2	C[C@]12C[C@H]1COCCC2	
InChI=1S/C8H14O/c1-8-3-2-4-9-6-7(8)5-8/h7H,2-6H2,1H3	InChI=1S/C8H14O/c1-8-3-2-4-9-6-7(8)5-8/h7H,2-6H2,1H3/t7-,8-/m0/s1
