17
gdb 15376	3.87324	1.16684	1.01805	4.0862	66.04	-0.2348	-0.0165	0.2182	1155.7176	0.139673	-400.959456	-400.950563	-400.949618	-400.993957	30.678	
O	 0.0068694035	 1.5046601001	 0.1713427285	-0.404276
C	 0.0435555901	 0.0885259216	 0.2579526198	-0.116147
C	-1.3276924056	-0.5044819584	 0.0037480047	 0.010602
C	-2.5563826082	 0.3365251363	 0.0197944833	-0.2524
N	-2.0948216296	-0.2896504739	-1.2208167909	-0.104492
C	-1.5667875504	 0.5651406268	-2.2740685455	-0.240161
C	-2.6601534804	 0.8733495367	-3.2839509282	 0.159296
O	-2.6169228778	 1.7873248423	-4.0654313764	-0.244684
H	 0.9102574391	 1.8333981393	 0.1985675717	 0.294145
H	 0.7630862662	-0.3332134861	-0.4626691856	 0.098546
H	 0.3648609739	-0.2364912149	 1.2604637373	 0.101388
H	-1.3965615012	-1.5284690574	 0.3701060203	 0.095329
H	-3.4860686468	-0.0501910022	 0.4282643429	 0.114397
H	-2.4045646725	 1.4065516418	 0.1339750882	 0.137701
H	-1.1107281232	 1.5018871915	-1.9305057052	 0.139104
H	-0.7898278739	 0.0066469204	-2.8178187141	 0.125989
H	-3.5139819231	 0.159703246	-3.2527381908	 0.085664
56.3173	70.6546	117.0559	131.7099	226.0958	249.9736	271.4981	386.9394	454.9411	502.1925	622.5541	720.4745	764.1218	831.8364	929.3433	965.9285	1033.6031	1044.6547	1059.2018	1095.4975	1120.1057	1125.313	1167.2512	1173.2039	1231.9087	1256.2073	1276.116	1330.1528	1338.9143	1402.8059	1419.3004	1456.0822	1463.4988	1508.7459	1514.0889	1837.4029	2886.713	2965.9217	2991.5997	3002.6929	3058.2538	3107.0545	3110.569	3198.5192	3832.1927
OCC1CN1CC=O	OC[C@H]1CN1CC=O	
InChI=1S/C5H9NO2/c7-2-1-6-3-5(6)4-8/h2,5,8H,1,3-4H2	InChI=1S/C5H9NO2/c7-2-1-6-3-5(6)4-8/h2,5,8H,1,3-4H2/t5-,6?/m1/s1
