18
gdb 32882	4.44449	0.79924	0.7147	2.5773	76.3	-0.182	0.0371	0.219	1561.5068	0.149108	-435.300612	-435.291333	-435.290389	-435.335623	33.826	
N	-0.0389747758	 1.4162681407	-0.0423220979	-0.59813
C	-0.0443669651	 0.0183643207	-0.0168398145	 0.28452
C	-1.1050446896	-0.8512299171	-0.1105072324	-0.195185
N	-0.5235715421	-2.1122107797	-0.1029387532	-0.276359
C	 0.8212356861	-1.9530329927	-0.0062957376	 0.342449
C	 1.7924103865	-3.0875053864	-0.0165568596	-0.326021
C	 2.5304732377	-3.2158473954	-1.3626459129	-0.05562
O	 3.4461559597	-4.2970645797	-1.3749008946	-0.415896
N	 1.1404740045	-0.6711011868	 0.0476385918	-0.347125
H	 0.8277524749	 1.7734688781	 0.3388044196	 0.246284
H	-0.8279286051	 1.8319927864	 0.4341703071	 0.2392
H	-2.1695605789	-0.7087445066	-0.17773623	 0.113347
H	-1.0150282509	-2.9884926964	-0.147856648	 0.260104
H	 2.5321196414	-2.9259582486	 0.7767881948	 0.11603
H	 1.2852135737	-4.033864623	 0.2012435374	 0.10204
H	 1.8100163411	-3.4223798649	-2.1609900803	 0.111553
H	 3.0157609523	-2.2589274961	-1.5985673252	 0.115411
H	 4.1695990396	-4.0767796925	-0.7795333545	 0.283398
33.8259	97.4008	99.2719	217.5202	270.8578	292.5407	301.9362	353.5296	369.7367	446.1357	498.0981	629.2939	651.554	685.519	714.6272	778.1329	786.235	799.5008	1003.5703	1009.2624	1017.4909	1057.5417	1075.1169	1105.4211	1113.2346	1150.5587	1257.2467	1299.2869	1315.5841	1330.5233	1393.4205	1412.8426	1418.3692	1476.737	1490.8682	1512.1316	1558.3678	1621.8182	1648.9473	3014.9934	3032.5498	3068.8692	3091.7147	3281.5167	3542.6869	3638.5504	3669.2839	3816.7802
NC1=CNC(CCO)=N1	Nc1c[nH]c(CCO)n1	
InChI=1S/C5H9N3O/c6-4-3-7-5(8-4)1-2-9/h3,9H,1-2,6H2,(H,7,8)	InChI=1S/C5H9N3O/c6-4-3-7-5(8-4)1-2-9/h3,9H,1-2,6H2,(H,7,8)
