14
gdb 132542	3.10444	1.32755	0.93529	3.4838	67.78	-0.2503	-0.0344	0.216	1150.7676	0.100092	-486.000483	-485.99291	-485.991966	-486.03302	27.861	
C	-0.0100497886	 1.5186759217	 0.0070711909	-0.496464
C	-0.001372996	 0.0122427124	 0.0076309984	 0.273767
C	-0.0903468467	-0.7204609072	-1.1720623464	-0.073829
N	-0.086928803	-2.0601072248	-1.2255949785	-0.313462
C	 0.0054625661	-2.718525993	-0.1029263463	 0.221079
F	 0.0091344929	-4.0451911601	-0.1524328431	-0.054665
C	 0.1005342358	-2.0966358389	 1.1458992162	 0.129879
F	 0.1919918461	-2.8320474021	 2.2511029285	-0.054365
C	 0.0969390884	-0.7193246036	 1.1997440319	-0.28308
H	 0.9067549868	 1.9239973377	 0.4489395932	 0.138985
H	-0.0923586114	 1.9094639887	-1.0101777265	 0.133915
H	-0.851015493	 1.9139169079	 0.5872749524	 0.138992
H	-0.1686611424	-0.20908616	-2.1277481492	 0.115109
H	 0.1703434548	-0.2288428587	 2.1647400085	 0.124138
75.9473	141.6123	222.2742	279.3117	300.0182	388.0398	472.5894	478.7742	507.0389	600.1665	609.0188	715.9753	760.6586	809.0321	912.7011	946.9884	994.2048	1019.627	1067.6189	1174.0906	1220.2953	1311.7073	1326.9254	1336.4613	1417.6277	1456.1177	1484.2651	1499.3172	1526.1087	1629.9573	1650.4435	3034.6892	3089.1753	3120.1174	3164.519	3191.782
CC1=CN=C(F)C(F)=C1	Cc1cnc(F)c(F)c1	
InChI=1S/C6H5F2N/c1-4-2-5(7)6(8)9-3-4/h2-3H,1H3	InChI=1S/C6H5F2N/c1-4-2-5(7)6(8)9-3-4/h2-3H,1H3
