21
gdb 111873	2.72759	1.28452	1.18075	0.8039	78.48	-0.225	0.0757	0.3006	1188.9645	0.183244	-424.198655	-424.189872	-424.188928	-424.232999	32.872	
C	-0.1669039839	 1.662695144	 0.0620032129	-0.376426
C	-0.0481268612	 0.175800431	 0.4165368208	-0.189885
C	-1.3529457256	-0.568144633	 0.2275122827	-0.080305
C	-1.7513685548	-1.1453136041	-1.1185042855	 0.031137
O	-0.8204400874	-1.0965699408	-2.1625704563	-0.250586
C	-0.3140642764	-2.3982117141	-2.4363334333	-0.097016
C	 0.4753027123	-2.9023380888	-1.2398103319	-0.061457
O	-0.2680135663	-2.8624579524	-0.0224026346	-0.267895
C	-1.4202514961	-2.0689976181	 0.0246942341	 0.052549
H	 0.7794328784	 2.1860325642	 0.2318179705	 0.108184
H	-0.4398903234	 1.7886418546	-0.9903551235	 0.127785
H	-0.9341272656	 2.1570429451	 0.6684532462	 0.109329
H	 0.7312885341	-0.2793376338	-0.1991251222	 0.106476
H	 0.2763102299	 0.0633386853	 1.45834588	 0.098561
H	-2.1853823652	-0.1606745629	 0.7984772647	 0.081108
H	-2.7835743298	-1.0556181376	-1.4558020986	 0.086609
H	-1.1381919424	-3.0841422101	-2.6828029502	 0.099318
H	 0.3403691357	-2.3123160288	-3.3082678309	 0.113318
H	 0.7858447194	-3.942450989	-1.3947411847	 0.105446
H	 1.3819412797	-2.2905632684	-1.1279447375	 0.105494
H	-2.2314156613	-2.6073511822	 0.5071284672	 0.098256
37.896	90.3717	124.1896	189.9878	258.3363	281.5799	337.7513	457.6008	507.1293	553.0054	594.5275	732.4183	755.2448	760.3333	799.3088	837.8822	898.4788	922.4286	982.2348	1009.2583	1027.1973	1074.5494	1085.8382	1092.1372	1121.7321	1136.3726	1143.7405	1185.9962	1195.4033	1254.7763	1266.5717	1294.1726	1308.8444	1330.3369	1347.4972	1388.4606	1406.0075	1409.498	1415.7022	1444.9339	1481.3508	1494.0285	1498.8362	1506.242	1512.0521	2995.0147	3003.788	3031.2516	3035.0597	3056.7209	3087.3793	3095.5551	3097.7757	3104.6413	3110.7208	3123.5644	3140.9205
CCC1C2OCCOC12	CC[C@H]1[C@H]2OCCO[C@@H]12	
InChI=1S/C7H12O2/c1-2-5-6-7(5)9-4-3-8-6/h5-7H,2-4H2,1H3	InChI=1S/C7H12O2/c1-2-5-6-7(5)9-4-3-8-6/h5-7H,2-4H2,1H3/t5-,6+,7-
