21
gdb 99635	2.23297	1.10162	0.86343	1.222	84.81	-0.2587	0.0478	0.3065	1449.0321	0.179199	-387.045653	-387.035145	-387.0342	-387.081693	38.005	
C	 0.1851099125	 1.5168382097	-0.1189558096	-0.394141
C	 0.1922067273	-0.0017266413	 0.0582952714	-0.174721
C	 0.5457076221	-0.4543666919	 1.4967685143	-0.187903
C	-0.4354847973	 0.004410203	 2.4790016615	 0.33759
C	-1.2623590839	 0.3535274528	 3.2792274432	-0.479781
C	 0.6580089334	-1.9729479696	 1.5541608414	 0.052696
O	 1.8047420268	-2.5525796989	 0.9299450427	-0.268196
C	 1.6476017159	-2.715470951	 2.3492176408	 0.080337
C	 2.6884815449	-2.0973290882	 3.2463670792	-0.423185
H	 1.1678609931	 1.9461497064	 0.1059369235	 0.114528
H	-0.0678393397	 1.7867571656	-1.1485768828	 0.114935
H	-0.5459222308	 1.987860609	 0.5448563404	 0.13035
H	-0.7877266582	-0.4154316017	-0.2080809094	 0.103602
H	 0.9265083005	-0.4598024887	-0.6130273763	 0.118586
H	 1.5234416	-0.0261332047	 1.7476232055	 0.104615
H	-1.9823962669	 0.6721142366	 3.9917198732	 0.196924
H	-0.2806886987	-2.4811629791	 1.3224734724	 0.09542
H	 1.3652051051	-3.7318442035	 2.6325615366	 0.08945
H	 2.954652435	-1.0863252594	 2.9327102864	 0.129003
H	 2.3229804503	-2.058070691	 4.2779525242	 0.129471
H	 3.6000246186	-2.7038197341	 3.2355482714	 0.130421
42.1248	96.2307	117.7409	147.9922	166.0779	172.5752	246.9925	268.8471	322.8669	388.4851	456.8609	472.4475	525.1427	577.6713	632.3015	643.4565	769.7717	780.845	852.8477	878.9834	955.2041	977.2978	996.5172	1045.1685	1067.2171	1102.4495	1119.867	1139.63	1176.5366	1187.5484	1262.7791	1274.6292	1303.2762	1343.9785	1367.5357	1397.5037	1412.628	1417.611	1466.6294	1488.4415	1489.5001	1497.2197	1507.0848	1510.1752	2232.0995	3031.9148	3034.9044	3039.9273	3043.7038	3076.8826	3079.219	3091.2755	3103.3553	3103.4471	3115.5796	3136.2206	3503.8711
CCC(C#C)C1OC1C	CC[C@@H](C#C)[C@H]1O[C@H]1C	
InChI=1S/C8H12O/c1-4-7(5-2)8-6(3)9-8/h1,6-8H,5H2,2-3H3	InChI=1S/C8H12O/c1-4-7(5-2)8-6(3)9-8/h1,6-8H,5H2,2-3H3/t6-,7+,8-/m0/s1
