21
gdb 116935	7.21022	0.48274	0.47464	1.3868	90.25	-0.2386	0.0555	0.2941	2338.2276	0.181865	-387.050369	-387.040169	-387.039225	-387.08801	35.888	
O	 0.1156261373	 1.5245032572	-0.3907922751	-0.415787
C	 0.1420189776	 0.1070540559	-0.3649456201	-0.062433
C	-1.2039375391	-0.3565335976	 0.2027350717	-0.325877
C	-1.3076043076	-1.8078669762	 0.283852139	 0.06538
C	-1.3642545305	-3.0111727481	 0.33826986	 0.054153
C	-1.4707037965	-4.4531939049	 0.4264906736	-0.141184
C	-1.6435275565	-5.1268018374	 1.8283075861	-0.213218
C	-2.6218521741	-6.1396202502	 1.1778853363	-0.216569
C	-2.802109121	-5.1530431597	-0.0054006313	-0.213059
H	 0.9541460064	 1.8354876039	-0.7433966519	 0.288129
H	 0.2789793797	-0.3167875408	-1.3709831917	 0.096604
H	 0.9561490071	-0.2741892	 0.2693836868	 0.09662
H	-1.3335214787	 0.0956009802	 1.1939352724	 0.133859
H	-2.0028212977	 0.0523207007	-0.428427644	 0.134179
H	-0.6303197154	-4.9230055862	-0.0977762898	 0.094901
H	-0.7421542958	-5.5108515956	 2.3109468878	 0.099905
H	-2.1552750962	-4.4518482275	 2.5188328605	 0.111103
H	-2.1101076191	-7.0554084262	 0.8678039113	 0.102369
H	-3.5130143094	-6.4160952821	 1.7448378198	 0.099451
H	-3.6538294417	-4.4855538142	 0.1468826814	 0.111294
H	-2.8460551491	-5.5583351813	-1.0186617828	 0.10018
13.4847	64.0845	74.7611	126.1668	134.087	217.9708	239.2668	312.7239	333.8413	466.3529	507.075	512.694	593.3311	733.3932	787.8235	793.835	880.3748	912.9845	934.5639	939.7124	992.7728	1011.3535	1021.4751	1079.0479	1088.0354	1120.7032	1189.0832	1202.3158	1221.6881	1234.8284	1238.5167	1245.8245	1254.31	1275.2485	1277.9574	1303.8232	1331.1155	1363.2845	1454.0199	1478.6405	1478.8932	1487.6489	1509.9547	1527.9955	2360.1596	2983.0175	3013.3703	3026.7405	3033.2377	3059.0152	3063.2349	3063.7916	3068.3029	3106.2181	3119.6908	3129.8041	3835.7497
OCCC#CC1CCC1	OCCC#CC1CCC1	
InChI=1S/C8H12O/c9-7-2-1-4-8-5-3-6-8/h8-9H,2-3,5-7H2	InChI=1S/C8H12O/c9-7-2-1-4-8-5-3-6-8/h8-9H,2-3,5-7H2
