18
gdb 52662	3.47685	0.82038	0.6887	5.9629	81.94	-0.269	0.0146	0.2836	1616.6047	0.144417	-401.938649	-401.927748	-401.926804	-401.976188	37.08	
C	-0.1001478486	 1.4913820266	 0.0108493082	-0.501935
C	-0.0190158889	 0.0381216063	 0.0084643974	 0.107939
C	 0.0519775774	-1.1645125049	 0.029078921	 0.014466
C	 0.0764592148	-2.6277042677	 0.0170811122	-0.036315
O	-1.2215637672	-3.1833367137	 0.1481996892	-0.40914
C	 0.7939036954	-3.1586127971	-1.2642956622	-0.158477
C	 2.2567201137	-2.6896345863	-1.3615467271	-0.400317
C	 0.7183960274	-4.6223115337	-1.302054966	 0.277786
N	 0.698070468	-5.7767916885	-1.344993912	-0.323395
H	 0.7162188993	 1.9295211439	 0.5948974436	 0.158145
H	-0.0404005445	 1.8970945336	-1.0046259385	 0.153757
H	-1.0433805717	 1.8309471585	 0.4519110094	 0.158542
H	 0.6340955648	-2.9982486638	 0.8857912171	 0.131262
H	-1.8130281176	-2.6954845517	-0.4357621782	 0.287411
H	 0.2350840511	-2.7775196429	-2.1285029173	 0.123121
H	 2.2943824424	-1.5983783843	-1.3696155778	 0.138345
H	 2.8372988337	-3.053827247	-0.5089113286	 0.138528
H	 2.7221777704	-3.0670854672	-2.2746773403	 0.140278
25.5476	48.9654	80.7614	146.1026	161.3738	211.9976	245.7671	251.9849	280.9487	319.9513	340.4357	409.5909	469.6866	532.591	557.8034	596.0384	796.0257	841.4406	914.2729	1036.0966	1051.3447	1053.5579	1069.3227	1088.9673	1128.9792	1174.6309	1250.1057	1280.3345	1321.0796	1359.1159	1410.9677	1413.3925	1421.7778	1475.4834	1476.8054	1495.5029	1498.0175	2360.0106	2365.2703	3029.6328	3032.2701	3046.9866	3053.6242	3095.6144	3096.2458	3127.4701	3140.8546	3806.9583
CC#CC(O)C(C)C#N	CC#C[C@@H](O)[C@@H](C)C#N	
InChI=1S/C7H9NO/c1-3-4-7(9)6(2)5-8/h6-7,9H,1-2H3	InChI=1S/C7H9NO/c1-3-4-7(9)6(2)5-8/h6-7,9H,1-2H3/t6-,7+/m0/s1
