15
gdb 13067	4.29906	1.1272	0.94877	2.2525	72.13	-0.2351	-0.0274	0.2077	1221.6241	0.117024	-362.624751	-362.616244	-362.6153	-362.65977	28.987	
C	 0.125762943	 1.5598168927	-0.2528511651	-0.500371
C	 0.0744125331	 0.1172339172	-0.0723769424	 0.108776
C	 0.0305899848	-1.0758863462	 0.0844109501	 0.105982
C	-0.0550014132	-2.5108780748	 0.2494159894	-0.311755
N	-0.0774895664	-3.0411709723	 1.6499482665	-0.306078
C	-1.222489111	-3.9475783291	 1.3828799513	-0.287272
C	-1.4319914841	-3.2210606901	 0.0479109835	 0.395124
O	-2.282202024	-3.1849006663	-0.7827025772	-0.269406
H	 1.0272513972	 1.864777974	-0.7954301263	 0.148848
H	-0.7414739654	 1.9174974443	-0.8186746106	 0.154249
H	 0.1268156657	 2.0764898576	 0.713145182	 0.153089
H	 0.6841233151	-3.0141710624	-0.39592037	 0.115832
H	 0.7783246997	-3.5143541729	 1.9145788116	 0.228168
H	-0.9784293147	-5.0090187265	 1.2314273318	 0.124409
H	-2.0406808999	-3.8756725454	 2.1073171255	 0.140405
18.1066	82.0387	86.1211	157.6395	245.2205	320.0089	398.6064	421.2134	486.5847	572.277	618.8354	705.3594	796.0059	896.1807	973.3818	993.0994	1021.6583	1050.0117	1053.9551	1067.6696	1093.9486	1187.573	1203.497	1273.4028	1337.5949	1369.669	1413.4835	1475.5212	1475.7957	1477.695	1927.5239	2369.3092	2963.5881	3005.5482	3027.9249	3071.2534	3089.3854	3090.8593	3550.1905
CC#CC1NCC1=O	CC#C[C@H]1NCC1=O	
InChI=1S/C6H7NO/c1-2-3-5-6(8)4-7-5/h5,7H,4H2,1H3	InChI=1S/C6H7NO/c1-2-3-5-6(8)4-7-5/h5,7H,4H2,1H3/t5-/m1/s1
