23
gdb 76895	2.18029	1.73896	1.37581	1.469	83.81	-0.2475	0.0706	0.318	1091.7524	0.20795	-388.291773	-388.283286	-388.282342	-388.324743	33.891	
C	-0.1653730921	 1.5141679343	 0.3470606565	-0.419425
C	 0.2038001213	 0.0415386382	 0.2054560927	 0.016261
C	 1.1134152324	-0.4020208144	-0.9968295522	 0.016253
C	 1.5982133025	 0.6542151882	-1.9839059849	-0.419424
C	 2.1489897537	-1.0012127247	 0.0102608814	-0.050424
C	 3.4462128273	-0.221540054	 0.2425639295	-0.096699
O	 3.0901289951	 0.9005698031	 1.0451424981	-0.250293
C	 2.1301605597	 0.42026092	 1.9820635181	-0.096698
C	 1.2416346142	-0.558729992	 1.2095702379	-0.050427
H	 0.7169837	 2.1596845649	 0.3583133714	 0.135126
H	-0.8073640382	 1.8366620662	-0.4795507927	 0.110273
H	-0.7189575183	 1.6879526132	 1.2769040784	 0.108858
H	-0.7191425697	-0.547090454	 0.2196034127	 0.06585
H	 0.6290934245	-1.2045157107	-1.5624624621	 0.065849
H	 2.1102519667	 1.480292081	-1.4831228633	 0.135128
H	 2.2958386592	 0.2178636528	-2.7079098259	 0.108857
H	 0.7596788489	 1.0725923205	-2.5507058253	 0.110272
H	 2.3337907744	-2.0706387488	-0.1082167898	 0.064492
H	 4.1755377073	-0.8554194925	 0.7738995597	 0.083533
H	 3.9205146555	 0.15715432	-0.6664389086	 0.107307
H	 2.6342466234	-0.1037715431	 2.8111131007	 0.083533
H	 1.6053510434	 1.286192577	 2.3936393637	 0.107306
H	 0.8482559589	-1.3461871751	 1.8553450341	 0.064492
51.4108	187.0394	234.2091	245.8862	283.7075	297.1614	339.1462	433.3097	451.0923	486.7872	574.6259	723.7535	738.3922	761.1572	822.9244	834.9194	873.5647	937.3807	971.9062	976.7916	995.9409	1003.9233	1025.1794	1047.683	1071.81	1112.7204	1127.0463	1168.0399	1176.3534	1183.9265	1212.3705	1244.4592	1249.7899	1286.2095	1293.6832	1322.8067	1333.4184	1350.7643	1361.4314	1373.0191	1398.2101	1406.5782	1417.9079	1487.8907	1492.7672	1504.0677	1511.4623	1512.4812	1526.3118	2962.5828	2968.8491	3028.2501	3032.3987	3032.8678	3050.0089	3081.5276	3086.8353	3091.2518	3093.7926	3095.494	3098.5341	3113.1052	3120.7482
CC1C(C)C2COCC12	C[C@H]1[C@@H](C)[C@H]2COC[C@@H]12	
InChI=1S/C8H14O/c1-5-6(2)8-4-9-3-7(5)8/h5-8H,3-4H2,1-2H3	InChI=1S/C8H14O/c1-5-6(2)8-4-9-3-7(5)8/h5-8H,3-4H2,1-2H3/t5-,6+,7-,8+
