21
gdb 68858	2.38409	1.80203	1.35975	0.4913	81.83	-0.2266	0.0834	0.31	1049.8119	0.183899	-383.243942	-383.235584	-383.23464	-383.276135	33.652	
C	-0.1671501387	 1.5166994119	 0.0092963267	-0.497582
C	 0.0940310019	 0.0330480513	-0.0115182936	 0.294695
C	 0.3813905199	-0.6290620987	-1.3642962256	-0.263047
C	 1.2791684136	-1.8096641322	-1.0205324993	-0.022577
N	 2.5888425844	-1.3998940341	-0.4540077908	-0.350431
C	 1.5070280852	-1.8702944686	 0.4399666118	-0.097873
C	 0.777519678	-0.7208078867	 1.0815858702	 0.315058
C	 1.3418169341	-0.1203616172	 2.3416997206	-0.502503
N	-0.6865222114	-0.869456492	 0.8800201181	-0.42142
H	 0.6629751404	 2.0650931775	-0.4489587391	 0.128813
H	-1.0752685225	 1.7572752787	-0.5564137262	 0.122762
H	-0.3019476393	 1.8971880669	 1.0263213522	 0.111563
H	-0.5486587073	-0.962211393	-1.8371942441	 0.102124
H	 0.8851658916	 0.065682196	-2.045249255	 0.100291
H	 1.2371340917	-2.7129593197	-1.6196721263	 0.083425
H	 3.2564634707	-2.1555251568	-0.5909969284	 0.22751
H	 1.6162567949	-2.8111662262	 0.9719489172	 0.083071
H	 2.3957824365	 0.1383589089	 2.1967974832	 0.137976
H	 0.8067069884	 0.7850902916	 2.6425597081	 0.11237
H	 1.2815446406	-0.8327151594	 3.1732406984	 0.119174
H	-1.1663737228	-0.298460448	 1.575049192	 0.216601
155.9132	189.7369	203.7647	206.5744	254.3328	344.5228	373.2999	435.1401	463.799	493.5334	553.4672	645.9779	701.6057	759.0553	812.4588	861.0617	881.2848	890.3408	928.0876	957.5738	977.2353	990.0396	1036.1629	1044.6683	1071.163	1106.9311	1119.639	1134.3331	1158.2807	1179.0273	1230.4614	1250.4354	1276.8051	1303.7206	1351.3389	1387.18	1409.2605	1416.9813	1428.4305	1444.5383	1472.8254	1480.9873	1492.528	1494.4258	1511.8239	3024.6029	3028.5326	3038.8782	3082.5468	3085.4877	3088.9627	3101.9562	3110.593	3148.4575	3169.0487	3467.9874	3494.3405
CC12CC3NC3C1(C)N2	C[C@@]12C[C@H]3N[C@H]3[C@]1(C)N2	
InChI=1S/C7H12N2/c1-6-3-4-5(8-4)7(6,2)9-6/h4-5,8-9H,3H2,1-2H3	InChI=1S/C7H12N2/c1-6-3-4-5(8-4)7(6,2)9-6/h4-5,8-9H,3H2,1-2H3/t4-,5-,6-,7+/m1/s1
