16
gdb 54645	4.10258	1.01866	0.82434	0.4496	75.76	-0.2323	-0.053	0.1793	1318.0313	0.123632	-437.961505	-437.952986	-437.952041	-437.995175	30.92	
C	 0.017732883	 1.5146414758	 0.0087069143	-0.488382
C	 0.0591576188	-0.0040962216	 0.0034190259	 0.294
O	 1.1158145836	-0.6123251609	-0.007091118	-0.330983
C	-1.2300903308	-0.7073969558	 0.0112309172	 0.14857
C	-1.3386155344	-2.0540876448	 0.0076268165	-0.052502
N	-2.6572609922	-2.4641943121	 0.0167855908	-0.325177
C	-3.5353368189	-1.3768043537	 0.0273097861	 0.441685
O	-4.7374093334	-1.4486576591	 0.0368081138	-0.349664
C	-2.629517453	-0.1340773783	 0.0241239551	-0.493512
H	 1.0356817219	 1.9047926665	 0.0011147366	 0.141885
H	-0.525981121	 1.8906451275	-0.8657393028	 0.135078
H	-0.5104877251	 1.8847545294	 0.8950948902	 0.135112
H	-0.5308436196	-2.7716736417	-0.0011070906	 0.164403
H	-2.9789420519	-3.4187542284	 0.0164691756	 0.271464
H	-2.8565695639	 0.4751467756	 0.9063831828	 0.15401
H	-2.8704347831	 0.4806501316	-0.8506194135	 0.154012
78.3535	105.0395	130.1904	160.8376	237.8149	358.1069	410.782	413.9846	529.8221	554.9735	576.0003	605.804	609.0072	724.9177	838.2717	884.7468	928.9724	952.8144	968.2282	1042.2354	1075.8345	1111.4385	1154.6207	1171.4059	1238.3696	1323.2247	1346.0222	1384.8806	1419.6177	1434.7046	1463.3465	1475.9266	1635.8363	1757.0598	1852.6087	3032.1599	3047.0998	3079.9348	3090.7331	3154.9791	3252.1863	3655.4515
CC(=O)C1=CNC(=O)C1	CC(=O)C1=CNC(=O)C1	
InChI=1S/C6H7NO2/c1-4(8)5-2-6(9)7-3-5/h3H,2H2,1H3,(H,7,9)	InChI=1S/C6H7NO2/c1-4(8)5-2-6(9)7-3-5/h3H,2H2,1H3,(H,7,9)
