18
gdb 117729	2.10828	1.08717	0.88287	2.9462	73.22	-0.2765	-0.0505	0.226	1367.5827	0.144261	-439.100396	-439.089855	-439.088911	-439.136616	36.192	
C	-0.0723770483	 1.6600163905	-0.1589478547	-0.41595
C	 0.032779931	 0.1264400948	-0.0942594736	-0.025517
C	 0.7465167336	-0.3857791588	 1.1909414173	-0.200433
C	 2.2254709782	-0.0200715349	 1.2940264101	-0.098486
O	 2.6964797958	-0.6072353702	 2.4949195279	-0.416594
C	-1.3767771117	-0.5097425004	-0.0660083278	 0.154667
O	-2.3834129571	 0.1160158957	 0.1086017232	-0.230634
C	 0.7118703386	-0.4023159511	-1.2854378481	 0.266513
N	 1.2253440719	-0.8309458585	-2.2286863989	-0.335838
H	 0.9162413136	 2.1193734992	-0.2090112447	 0.134946
H	-0.6438549849	 1.9688349291	-1.0364182824	 0.147761
H	-0.5941528473	 2.0241325715	 0.728422546	 0.143238
H	 0.2139646961	 0.0197733919	 2.0574962357	 0.131088
H	 0.6681366393	-1.4774758909	 1.2437406221	 0.128754
H	 2.7646557191	-0.4046736376	 0.4157091596	 0.117099
H	 2.3500878257	 1.0730585352	 1.3100349248	 0.096437
H	 3.6377122207	-0.4254822826	 2.5715438126	 0.293035
H	-1.3769108745	-1.6136731428	-0.1877893991	 0.109915
64.3708	79.1796	91.2419	140.5635	177.5037	201.0047	233.3435	245.2048	281.3346	329.0848	353.6799	403.026	523.5329	562.9605	658.2671	751.1557	802.4484	897.8337	916.7932	1005.3615	1035.4987	1040.945	1078.6927	1149.2999	1179.8402	1200.6704	1255.8238	1268.753	1327.9883	1341.6838	1406.5148	1422.3104	1464.2796	1481.1566	1489.4141	1497.7958	1530.2906	1844.8739	2347.4508	2913.1811	2984.3884	3018.1505	3044.4445	3064.3831	3094.9057	3143.3725	3146.7206	3832.3887
CC(CCO)(C=O)C#N	C[C@@](CCO)(C=O)C#N	
InChI=1S/C6H9NO2/c1-6(4-7,5-9)2-3-8/h5,8H,2-3H2,1H3	InChI=1S/C6H9NO2/c1-6(4-7,5-9)2-3-8/h5,8H,2-3H2,1H3/t6-/m0/s1
