18
gdb 33727	3.25421	1.51335	1.28439	1.7363	82.12	-0.2293	0.0459	0.2752	1019.7993	0.149418	-364.724596	-364.717555	-364.71661	-364.755691	29.77	
C	 0.0061986574	-1.1879457099	-0.0419176471	-0.349262
C	 0.0251330633	 0.0149668216	-0.0257106337	 0.031038
C	 0.0420570874	 1.4541287872	 0.0024613838	 0.281872
C	-0.279988029	 2.2857871823	 1.3093702298	-0.252103
C	 0.4541998479	 3.4150569827	 0.5092747783	-0.079057
C	 1.3674762576	 2.2848435705	-0.0351696865	-0.26081
C	-0.5626335252	 3.6235341602	-0.6319426394	-0.034269
N	-0.1410773336	 3.0958833933	-1.9533303922	-0.34117
C	-0.8615914385	 2.2240683652	-1.0003848553	-0.09389
H	-0.0040438095	-2.2493770255	-0.0584532884	 0.177137
H	-1.3356382353	 2.4323391527	 1.5556110247	 0.093745
H	 0.2749534986	 1.9301339425	 2.1802268257	 0.106253
H	 0.8634622532	 4.2970081037	 0.9996277895	 0.068268
H	 2.0687076553	 1.92947127	 0.720622442	 0.100554
H	 1.8506644225	 2.4198941994	-0.999620144	 0.132099
H	-1.3168352764	 4.3995120921	-0.5709078726	 0.091941
H	-0.8031062556	 3.4161529739	-2.6577031994	 0.230577
H	-1.8484042803	 1.8444477181	-1.2360778751	 0.097077
140.2871	156.3691	360.5262	397.1935	488.7665	502.7163	522.8731	539.0444	601.9821	626.2246	630.1232	670.7971	784.1701	807.7496	854.4188	876.9244	903.7201	919.1385	928.9015	938.5348	970.7481	1000.6989	1039.7205	1073.4833	1088.5475	1124.013	1144.4533	1166.0314	1186.9088	1221.5188	1228.3709	1238.5391	1257.598	1300.0297	1341.7269	1394.0378	1475.4719	1511.7086	2233.9549	3055.9445	3096.0743	3123.4484	3128.5236	3174.4916	3177.2818	3189.8578	3489.8379	3503.3731
C#CC12CC(C1)C1NC21	C#C[C@@]12C[C@@H](C1)[C@H]1N[C@@H]21	
InChI=1S/C8H9N/c1-2-8-3-5(4-8)6-7(8)9-6/h1,5-7,9H,3-4H2	InChI=1S/C8H9N/c1-2-8-3-5(4-8)6-7(8)9-6/h1,5-7,9H,3-4H2/t5-,6-,7-,8+/m1/s1
