21
gdb 52874	1.99857	1.13795	0.91846	1.9462	87.87	-0.2444	0.0338	0.2782	1442.4018	0.17878	-387.055594	-387.044677	-387.043732	-387.093305	38.444	
C	 0.1143002752	 1.4595726302	 0.2748605365	-0.504785
C	 0.0937190815	 0.0075615226	 0.1783985353	 0.12136
C	 0.0592469411	-1.1943223913	 0.1004839752	 0.035066
C	 0.0501816023	-2.6362081447	-0.0048147751	 0.21781
C	-0.8098527341	-3.411873854	 0.9135998803	-0.226363
O	-1.2009404209	-3.2125162721	-0.4407901726	-0.279569
C	 1.2896681891	-3.2918512482	-0.611241998	-0.043358
C	 1.4761584741	-2.8582188539	-2.0709753487	-0.398047
C	 2.5381228873	-3.0125702875	 0.235421313	-0.398603
H	 0.8994248117	 1.8895463631	-0.3564097074	 0.151068
H	-0.8415872325	 1.8869679158	-0.0472003492	 0.155278
H	 0.295703886	 1.7890840874	 1.3038777829	 0.150324
H	-0.5188119049	-4.4290297367	 1.1762443187	 0.110632
H	-1.4073935682	-2.887552555	 1.6571740081	 0.116977
H	 1.0881272392	-4.3700976828	-0.5978981945	 0.080012
H	 1.667184098	-1.7821361617	-2.1369803256	 0.122833
H	 2.3243289171	-3.3816095155	-2.5233036286	 0.108576
H	 0.5814910156	-3.0815188205	-2.6591882819	 0.129606
H	 2.4101249643	-3.3596149819	 1.266042182	 0.111476
H	 3.409473142	-3.5222326257	-0.187358382	 0.113148
H	 2.7556527262	-1.9402370876	 0.2669536914	 0.126558
13.8947	64.2481	83.8205	128.8634	211.4505	226.25	231.687	260.3252	290.3527	318.6189	341.3916	446.1998	452.6785	543.4581	588.2785	597.2617	816.1791	842.0652	909.458	932.2263	953.8337	974.9572	1022.6315	1051.2881	1054.4826	1105.747	1124.6391	1144.0311	1162.0109	1195.1994	1287.8908	1312.4142	1341.135	1396.2867	1401.9753	1413.7641	1417.9586	1476.1929	1477.6057	1487.8874	1490.7423	1500.7249	1513.044	1519.1044	2365.1351	3028.0082	3029.4751	3032.9125	3037.2585	3076.8335	3088.9018	3091.481	3102.1368	3104.3583	3110.3641	3115.0044	3169.21
CC#CC1(CO1)C(C)C	CC#C[C@]1(CO1)C(C)C	
InChI=1S/C8H12O/c1-4-5-8(6-9-8)7(2)3/h7H,6H2,1-3H3	InChI=1S/C8H12O/c1-4-5-8(6-9-8)7(2)3/h7H,6H2,1-3H3/t8-/m0/s1
