20
gdb 88732	3.4851	0.93969	0.81387	2.8581	83.19	-0.2375	-0.0282	0.2093	1446.3458	0.169082	-403.1104	-403.101104	-403.10016	-403.145123	34.225	
C	 0.1882351669	 1.643949913	-0.0772237293	-0.40132
C	 0.0274073702	 0.1408297419	-0.0663042188	-0.012109
C	 1.2290976765	-0.7658302549	-0.1998920842	-0.31056
C	 0.4830300599	-0.7008033155	 1.106698636	 0.038881
N	 1.1298783005	-0.0240063663	 2.2020220472	-0.07462
C	 0.6053999367	-0.1897124622	 3.5299925085	-0.255539
C	 1.9518013861	-0.7684240519	 3.1742909761	-0.089044
C	 2.0844070353	-2.2464128912	 3.1240252909	 0.164492
O	 3.0745023954	-2.837809596	 3.4790962771	-0.266629
H	 1.0790080165	 1.9447615217	 0.4784162728	 0.13294
H	 0.2769543685	 2.0167631763	-1.1032237207	 0.115035
H	-0.6745300516	 2.1374137129	 0.3838917456	 0.113387
H	-0.8812824694	-0.2193958364	-0.5420758232	 0.086455
H	 1.1562746577	-1.6695308195	-0.7945379541	 0.114987
H	 2.2034997397	-0.2889377225	-0.2179108992	 0.12363
H	-0.1522557976	-1.5497686422	 1.3606418395	 0.082105
H	 0.5674981155	 0.6934592275	 4.1621210895	 0.132228
H	-0.2135125987	-0.8950811953	 3.6765263258	 0.120024
H	 2.8539604414	-0.2556862293	 3.4969750516	 0.113309
H	 1.1939594606	-2.7917860102	 2.7412681489	 0.072346
43.4907	101.2381	142.751	187.2387	206.8846	232.8949	301.0916	364.4245	409.1287	454.58	475.3134	598.1541	726.8573	785.8425	844.9013	865.381	871.0633	909.7999	951.3985	988.6435	1021.7963	1050.7213	1073.213	1077.9644	1106.3711	1116.3522	1124.8683	1147.8027	1178.1905	1186.155	1196.7462	1229.0074	1308.4473	1344.9879	1381.2675	1409.3651	1420.9864	1446.3549	1483.8755	1495.4373	1502.7802	1505.501	1813.9189	2889.0769	3034.2206	3081.7275	3085.4879	3090.6668	3123.72	3134.9103	3142.4749	3152.8172	3177.736	3222.4374
CC1CC1N1CC1C=O	C[C@H]1C[C@H]1N1C[C@H]1C=O	
InChI=1S/C7H11NO/c1-5-2-7(5)8-3-6(8)4-9/h4-7H,2-3H2,1H3	InChI=1S/C7H11NO/c1-5-2-7(5)8-3-6(8)4-9/h4-7H,2-3H2,1H3/t5-,6-,7+,8?/m0/s1
