19
gdb 111439	2.91821	1.55503	1.22365	3.1482	75.04	-0.2193	0.0611	0.2805	1067.0382	0.160765	-419.130068	-419.122234	-419.12129	-419.162576	30.422	
C	 0.1976996413	 1.2297417928	 0.2291999721	-0.227837
O	-0.1662481285	-0.0768558993	-0.1456582012	-0.2323
C	 0.5795583563	-0.587178227	-1.2238490742	 0.172283
C	 2.0960841012	-0.74834579	-0.9989861575	-0.106134
N	 2.4778986589	-1.6296298792	 0.1196190358	-0.296759
C	 2.4719526004	-2.1643496611	-1.2551752775	-0.044642
C	 1.214672003	-2.9292260795	-1.6331094149	-0.046164
N	 0.2076863128	-3.0048607548	-0.5583780031	-0.293484
C	 0.0715547276	-1.9791200294	-1.6066087401	-0.101136
H	 1.2273283965	 1.2791087666	 0.6121693905	 0.109115
H	 0.1060440034	 1.9389098815	-0.6107587498	 0.092925
H	-0.4851187536	 1.5386240964	 1.0243913799	 0.126655
H	 0.4585663208	 0.0711522737	-2.104674607	 0.056052
H	 2.7530127197	 0.0733221217	-1.2683959096	 0.084014
H	 3.4377759982	-1.4188768822	 0.3854864666	 0.227611
H	 3.4105658143	-2.4335074986	-1.7280290336	 0.082964
H	 1.2869663218	-3.7280462201	-2.3633917278	 0.082235
H	-0.4406351608	-3.7621343207	-0.7636711464	 0.228703
H	-0.7604910432	-2.0460601407	-2.3004286723	 0.0859
80.136	140.9465	176.3508	231.0619	311.74	334.5134	465.7715	538.8026	571.8569	684.6585	728.4398	773.1456	849.5747	853.6636	863.7682	886.0566	898.1151	926.7174	979.664	1010.803	1025.5256	1061.1006	1078.3215	1133.7047	1139.4547	1160.7476	1172.425	1180.1989	1190.8573	1228.1228	1231.0233	1253.2117	1326.0128	1348.6936	1359.9708	1397.9889	1427.6008	1434.8316	1478.9278	1487.8259	1507.8749	2926.6424	2963.5279	3021.972	3112.87	3146.3027	3154.4408	3161.4461	3174.7836	3485.5818	3490.0809
COC1C2NC2C2NC12	CO[C@H]1[C@H]2N[C@H]2[C@H]2N[C@@H]12	
InChI=1S/C6H10N2O/c1-9-6-4-2(7-4)3-5(6)8-3/h2-8H,1H3	InChI=1S/C6H10N2O/c1-9-6-4-2(7-4)3-5(6)8-3/h2-8H,1H3/t2-,3+,4-,5+,6-
