15
gdb 37760	2.69747	1.81248	1.21124	5.3978	73.17	-0.2228	-0.0654	0.1573	987.6719	0.113527	-416.809323	-416.802145	-416.801201	-416.84115	27.727	
C	-1.0972600474	 1.4382878588	-0.8548278317	-0.460044
O	 2.5934977469	 1.7328212748	 0.5942378173	-0.294144
C	 2.1160451068	 0.6498552314	 0.4254157551	 0.401702
N	 2.3202604099	-0.4649673424	 1.3319942286	-0.222672
C	 1.6934470138	-1.4786181955	 0.8703129375	 0.03858
C	 0.923492928	-1.2735264058	-0.4210187731	-0.064466
N	-0.4905122059	-0.900369515	-0.1504977259	-0.354368
C	-0.2793208303	 0.4250281771	-0.6046622326	 0.389046
C	 1.2268511491	 0.2013552894	-0.7451545059	-0.265164
H	-2.1699707967	 1.3489302683	-0.7287116569	 0.105054
H	-0.702528285	 2.3875822497	-1.1920512884	 0.121544
H	 1.684743766	-2.4217059632	 1.4161769277	 0.134456
H	 1.0846447521	-2.0389383136	-1.1842076706	 0.100363
H	-1.2554996	-1.4588537934	-0.5038495462	 0.245182
H	 1.6637056827	 0.4708002195	-1.7054707049	 0.124932
84.8976	134.5002	252.0392	330.5887	402.9412	444.3416	461.5081	585.3567	638.6133	701.1557	714.6774	763.679	823.421	830.436	853.8375	872.216	917.4251	948.3216	996.34	1002.0566	1030.0134	1109.5688	1169.2119	1192.8137	1220.8933	1283.0183	1288.4261	1325.071	1361.4484	1442.5786	1658.5911	1757.49	1872.0388	3080.2607	3133.1016	3143.8653	3166.2751	3256.3556	3583.1983
C1OC2=NC3C4NC13C24	C=C1N[C@@H]2C=NC(=O)[C@H]12	
InChI=1S/C6H6N2O/c1-6-2-3(8-6)4(6)7-5(2)9-1/h2-4,8H,1H2	InChI=1S/C6H6N2O/c1-3-5-4(8-3)2-7-6(5)9/h2,4-5,8H,1H2/t4-,5-/m1/s1
