12
gdb 27727	2.93918	1.36754	0.93329	2.3767	69.16	-0.2033	-0.0079	0.1954	1135.8036	0.076777	-472.628692	-472.620917	-472.619973	-472.660885	29.098	
O	-0.1145820032	 1.2197687342	-0.0089691566	-0.392539
C	 0.0489898893	-0.0953112726	 0.0122883207	 0.474789
N	 1.1687852485	-0.7572754305	 0.0691589263	-0.455419
C	 0.7487796579	-2.0710851196	 0.0644356189	 0.226654
O	 1.6189885685	-3.0849500735	 0.1139567097	-0.411903
C	-0.6145088281	-2.1524723393	 0.0046313585	 0.085194
O	-1.0631000299	-0.8113063128	-0.0295787008	-0.198856
C	-1.54266178	-3.1904187973	-0.0256369789	 0.257573
C	-2.341110084	-4.0940513124	-0.0515637367	-0.414411
H	 0.7648431139	 1.6179936383	 0.0259009128	 0.326365
H	 2.5033741994	-2.7002125473	 0.1490619073	 0.311206
H	-3.0392563923	-4.8933350473	-0.0741351111	 0.191346
133.5929	135.2253	239.0568	324.8427	347.346	379.9259	419.3039	420.9144	444.4247	509.6823	563.1625	625.4659	668.6045	708.6131	714.2008	756.6054	829.1916	1060.0269	1085.5746	1175.9067	1211.9954	1324.5029	1419.1423	1514.5422	1640.6748	1709.2547	2222.1255	3503.3825	3806.0777	3807.745
OC1=NC(O)=C(O1)C#C	Oc1nc(O)c(o1)C#C	
InChI=1S/C5H3NO3/c1-2-3-4(7)6-5(8)9-3/h1,7H,(H,6,8)	InChI=1S/C5H3NO3/c1-2-3-4(7)6-5(8)9-3/h1,7H,(H,6,8)
