23
gdb 107661	3.01092	1.22946	1.03548	1.4494	85.19	-0.235	0.0847	0.3197	1272.0389	0.207101	-388.289492	-388.280663	-388.279719	-388.322695	34.843	
C	-0.4069760259	 1.4597380515	-0.0223779186	-0.378385
C	 0.2087112785	 0.0572812477	 0.0622069312	-0.254411
C	 0.8044210118	-0.4334523697	-1.2501497818	 0.317464
C	-0.1610865135	-1.0503948151	-2.2460433593	-0.345948
C	 0.805321848	-1.9272127047	-1.485969289	 0.058932
O	 1.8294544153	-2.5543168314	-2.2060631932	-0.259764
C	 3.0684476708	-1.8609940751	-2.2115003589	-0.057784
C	 2.8946578713	-0.4339942733	-2.7223943891	-0.226793
C	 2.0076804224	 0.3604483525	-1.750816965	-0.270869
H	 0.3433751841	 2.2145437068	-0.2778327887	 0.117635
H	-1.1914410473	 1.4996988931	-0.7855994869	 0.118113
H	-0.8532678826	 1.7489026145	 0.9340912556	 0.111183
H	 0.9877825676	 0.0455594711	 0.8369785716	 0.092792
H	-0.5604169674	-0.651699264	 0.3929426347	 0.092454
H	-1.2151316117	-1.0808861692	-1.9884098554	 0.103501
H	 0.0413531678	-0.9343549413	-3.3053497883	 0.111841
H	 0.410624833	-2.5662565484	-0.6978999324	 0.084871
H	 3.5120283982	-1.8482624048	-1.2013831228	 0.08341
H	 3.7271971529	-2.4445331237	-2.8610163654	 0.104516
H	 3.8698979078	 0.0547503931	-2.8238120741	 0.09583
H	 2.4484982986	-0.4742201541	-3.7230078785	 0.10636
H	 1.6874479071	 1.3046787506	-2.2062390081	 0.100042
H	 2.615615283	 0.6302344437	-0.8757810177	 0.095011
96.143	129.2786	168.0798	218.8871	258.4847	337.0014	354.711	373.217	415.1292	489.8738	513.6749	607.8439	687.2645	778.0482	799.5441	871.6246	874.4424	910.3998	921.1446	949.9005	960.0295	998.3855	1033.8889	1053.2651	1064.7288	1076.0663	1098.014	1113.564	1137.2142	1183.4587	1201.6611	1252.9032	1263.7047	1280.8481	1305.0361	1343.7148	1364.3452	1370.9571	1383.6928	1402.6158	1409.208	1421.8714	1472.8758	1484.0434	1485.2688	1497.269	1502.1295	1504.6695	1509.2064	2962.4675	3006.0094	3010.639	3034.7699	3036.086	3046.5325	3053.213	3080.4384	3085.5102	3103.8284	3105.5695	3113.2669	3125.4633	3213.5727
CCC12CC1OCCC2	CC[C@]12C[C@H]1OCCC2	
InChI=1S/C8H14O/c1-2-8-4-3-5-9-7(8)6-8/h7H,2-6H2,1H3	InChI=1S/C8H14O/c1-2-8-4-3-5-9-7(8)6-8/h7H,2-6H2,1H3/t7-,8+/m1/s1
