23
gdb 119417	3.19234	0.93291	0.84398	1.6299	87.11	-0.2237	0.0848	0.3085	1525.2229	0.204083	-388.264308	-388.254333	-388.253389	-388.299458	37.164	
C	 0.0491291541	 1.5322580901	 0.0534842372	-0.38552
C	-0.030759113	 0.0077919017	 0.1585205298	-0.15471
C	-1.4421671671	-0.5359155206	-0.1167949946	-0.297959
C	-1.5045082694	-2.0296890586	-0.0585117463	 0.46088
C	-1.6402685039	-2.8894921639	 1.1671710631	-0.381357
C	-2.6128363624	-3.0643442115	 0.0105417641	 0.182126
C	-4.1042538773	-2.9607207646	 0.1341941226	-0.493646
C	-1.8562290664	-3.7473930008	-1.1250405694	-0.123123
O	-0.7908543867	-2.7628982439	-1.0706387265	-0.332034
H	 1.0635053174	 1.8922296608	 0.251567965	 0.112032
H	-0.2360855516	 1.87612731	-0.9471061499	 0.114615
H	-0.6221542365	 2.0166989718	 0.771925395	 0.110373
H	 0.6666145289	-0.4526862803	-0.5505052208	 0.118557
H	 0.2877374921	-0.315312773	 1.1573230903	 0.097876
H	-2.1496395382	-0.1242820937	 0.6143214431	 0.096269
H	-1.7762868248	-0.2009746709	-1.107579569	 0.101092
H	-0.8867713588	-3.6427401429	 1.3845182212	 0.107238
H	-2.0668141483	-2.4014279171	 2.0391394039	 0.107327
H	-4.3874742762	-2.1922763323	 0.8607588013	 0.120395
H	-4.5695968553	-2.7019403187	-0.8237805796	 0.11866
H	-4.5442938949	-3.9066234065	 0.4733524346	 0.122044
H	-1.4908147091	-4.7687371941	-0.9593288674	 0.098364
H	-2.379152993	-3.696434331	-2.0885151975	 0.100504
65.5026	89.4074	97.2952	188.2215	210.3139	243.6224	251.7256	313.9654	327.5014	374.7569	448.7825	495.9282	606.8846	735.6823	751.9692	794.5554	847.8748	871.8645	903.1995	920.5542	954.5599	981.1992	993.7088	1019.3019	1038.569	1045.2008	1066.3383	1116.6622	1121.8866	1157.2273	1193.3622	1234.4689	1263.3874	1290.2699	1303.0595	1335.7735	1352.7166	1387.7237	1409.5716	1412.3282	1429.0702	1471.3786	1486.0296	1492.7879	1496.6466	1499.5166	1503.4312	1509.6689	1522.8925	3008.6382	3014.6214	3020.585	3027.2535	3032.9046	3050.2362	3055.9886	3071.3297	3077.1208	3095.97	3097.0977	3101.5389	3104.4163	3196.08
CCCC12CC1(C)CO2	CCC[C@@]12C[C@]1(C)CO2	
InChI=1S/C8H14O/c1-3-4-8-5-7(8,2)6-9-8/h3-6H2,1-2H3	InChI=1S/C8H14O/c1-3-4-8-5-7(8,2)6-9-8/h3-6H2,1-2H3/t7-,8-/m1/s1
