12
gdb 43662	2.99681	1.28785	1.03874	4.4052	59.8	-0.2796	-0.1068	0.1728	1084.2815	0.076976	-472.670769	-472.663173	-472.662229	-472.704451	26.569	
O	-0.0110148815	 0.0079375418	-0.1809592762	-0.247435
C	-0.0577615244	 1.1948520235	-0.0477120169	 0.295227
C	-1.2756651094	 2.0842628542	 0.119834468	-0.380927
C	-0.6901404604	 3.5148738758	 0.0461318735	-0.03978
O	 0.7485811808	 3.4030596897	 0.1163840247	-0.209404
C	 1.1813326846	 2.1140652362	 0.0083802652	 0.352836
O	 2.3289401558	 1.8029671483	-0.0085448788	-0.284525
C	-1.0587987177	 4.2147196423	-1.1913542049	 0.285135
N	-1.3793494752	 4.7569636739	-2.1590073401	-0.291018
H	-2.02572488	 1.8830385423	-0.6459658519	 0.184152
H	-1.7293294912	 1.8953928591	 1.09715604	 0.172704
H	-0.9983313215	 4.130799733	 0.8944326275	 0.163036
25.6063	92.4315	193.1638	261.3826	327.4715	384.5871	474.8544	503.2306	611.0056	618.4997	660.244	718.5502	762.0691	841.7403	980.6453	1005.5347	1037.566	1064.3823	1165.8866	1204.081	1262.574	1327.4464	1370.113	1444.7834	1877.6313	1900.833	2368.6596	3075.621	3089.0996	3139.0315
O=C1CC(OC1=O)C#N	O=C1C[C@@H](OC1=O)C#N	
InChI=1S/C5H3NO3/c6-2-3-1-4(7)5(8)9-3/h3H,1H2	InChI=1S/C5H3NO3/c6-2-3-1-4(7)5(8)9-3/h3H,1H2/t3-/m1/s1
