19
gdb 114602	3.09145	1.13553	0.96788	3.6506	78.31	-0.2441	-0.0242	0.2199	1271.3656	0.157613	-423.000337	-422.991354	-422.99041	-423.03432	32.745	
C	-0.020127248	 1.4042013472	-0.3888395987	-0.237311
O	-0.001945848	 0.1469649041	 0.2522718648	-0.24355
C	-1.2239691574	-0.5362672523	 0.1728507893	 0.039313
C	-1.614832542	-1.2251032237	-1.1859910332	-0.270366
C	-1.6392926828	-2.5761706147	-0.4679264502	-0.081665
C	-0.3259711808	-2.8764860626	 0.1474336143	-0.318322
C	-1.2120812105	-1.885986681	 0.8741334858	 0.243416
C	-1.7608611614	-2.1774068929	 2.2050882592	 0.049956
O	-1.8438109063	-3.282819183	 2.6912889271	-0.278659
H	 0.9656625837	 1.8535703315	-0.24999096	 0.132257
H	-0.2198259681	 1.3145962214	-1.4670709282	 0.109521
H	-0.7803035288	 2.0704460032	 0.0480382153	 0.107143
H	-2.0449519211	 0.1008119409	 0.5385219854	 0.072178
H	-2.5855647007	-0.9014769718	-1.5654058129	 0.110493
H	-0.8688331164	-1.1398332677	-1.982079462	 0.109648
H	-2.4215345916	-3.320354267	-0.5456913677	 0.114379
H	-0.2492923604	-3.8267098274	 0.6642637896	 0.145879
H	 0.5900101698	-2.5050444652	-0.3019015362	 0.128674
H	-2.1340237294	-1.2808766791	 2.7521747087	 0.067019
88.5146	108.594	137.0838	179.3443	204.1618	217.5832	304.2895	364.9334	407.0527	476.6003	596.3988	699.8305	742.8074	778.0426	834.2355	891.4776	924.3346	987.4539	1007.9156	1022.6796	1053.1516	1059.1933	1085.3784	1109.6821	1140.953	1181.5282	1185.3138	1201.3286	1228.3576	1243.6124	1277.7947	1309.1258	1373.6065	1396.9907	1435.1324	1468.8707	1481.1778	1487.8181	1491.5988	1508.3853	1794.9584	2862.4832	2972.7533	2980.4786	3025.9916	3056.2194	3120.0545	3120.2576	3129.0693	3201.4437	3228.1064
COC1CC2CC12C=O	CO[C@H]1C[C@H]2C[C@@]12C=O	
InChI=1S/C7H10O2/c1-9-6-2-5-3-7(5,6)4-8/h4-6H,2-3H2,1H3	InChI=1S/C7H10O2/c1-9-6-2-5-3-7(5,6)4-8/h4-6H,2-3H2,1H3/t5-,6-,7-/m0/s1
