18
gdb 73608	2.23229	1.62108	1.29651	3.2631	75.78	-0.2643	0.0301	0.2944	1050.4865	0.149013	-401.966764	-401.958657	-401.957712	-401.999197	31.45	
O	-0.0705598304	 1.4192367926	 0.1762352989	-0.463939
C	-0.0289185614	 0.0486004202	-0.0442266313	 0.403679
C	 0.8350356665	-0.4862631082	-1.1778975482	-0.290952
C	 0.2088648298	-1.8470441812	-1.5686374232	-0.241657
C	-1.2704474671	-1.7803607803	-1.1023914225	-0.225437
C	-1.299487383	-0.7357874741	 0.0016257755	-0.093593
C	-0.3030843091	-0.8571862483	 1.1651539369	-0.271672
C	 0.4363085716	-2.0469350058	 1.4651285146	 0.303241
N	 1.0439040411	-3.0001102425	 1.7176623907	-0.359931
H	 0.8023626493	 1.707300069	 0.4666299425	 0.289865
H	 0.7604872057	 0.238052251	-1.9966302584	 0.115756
H	 1.8930092927	-0.5763513776	-0.9097236752	 0.110521
H	 0.2885018024	-2.0364106342	-2.6416239683	 0.105575
H	 0.7283178996	-2.6610853259	-1.060851322	 0.144316
H	-1.9209723315	-1.4351726638	-1.9136390499	 0.111365
H	-1.644915481	-2.7564198974	-0.779685193	 0.11869
H	-2.2335974767	-0.2465546797	 0.252834245	 0.108362
H	-0.5999993185	-0.2957678438	 2.0453238577	 0.135811
113.0594	137.7364	211.6662	225.5953	307.4727	351.6141	389.4633	409.4264	540.4744	551.6852	585.2952	669.6243	712.2333	779.788	845.074	873.3276	896.5521	925.0959	944.7479	989.3436	1028.2162	1053.9202	1089.3254	1116.5162	1158.6261	1194.9313	1225.1593	1251.5096	1255.3352	1310.2191	1327.2788	1333.1235	1338.7912	1364.2746	1455.9626	1488.3225	1495.3033	1515.3746	2339.8448	3041.2216	3044.8629	3079.5997	3081.8682	3086.9055	3129.92	3165.0741	3184.0744	3794.3488
OC12CCCC1C2C#N	O[C@]12CCC[C@H]1[C@H]2C#N	
InChI=1S/C7H9NO/c8-4-6-5-2-1-3-7(5,6)9/h5-6,9H,1-3H2	InChI=1S/C7H9NO/c8-4-6-5-2-1-3-7(5,6)9/h5-6,9H,1-3H2/t5-,6+,7+/m0/s1
