20
gdb 107510	1.97506	1.61543	1.08939	4.2395	83.1	-0.2699	0.0296	0.2994	1192.8323	0.171155	-366.00976	-366.000824	-365.99988	-366.043659	33.506	
C	-0.2583673034	 1.5232012878	-0.0575219252	-0.376456
C	 0.1160977164	 0.0391341477	 0.0624578692	-0.303531
C	 0.7759260021	-0.5051386963	-1.1747251272	 0.386588
C	 0.0223629328	-0.9865421406	-2.3845532205	-0.334079
C	 0.9515471552	-1.9398288824	-1.6835073986	-0.116274
C	 2.3951048092	-1.6604611227	-2.1065089035	-0.243809
C	 2.2391122821	-0.1871954434	-1.5741491528	-0.217756
C	 2.4628970272	 0.905048975	-2.512382001	 0.279737
N	 2.6263958843	 1.7617278805	-3.2722880356	-0.341138
H	 0.6229295276	 2.1425217525	-0.2535350495	 0.13022
H	-0.9627368693	 1.6843782497	-0.8794159614	 0.12594
H	-0.7223153826	 1.8849623691	 0.8648911848	 0.114588
H	 0.7811283095	-0.1043738985	 0.9249735005	 0.09728
H	-0.7838248553	-0.5533690616	 0.2696987373	 0.102454
H	-1.0354620229	-1.160013299	-2.2136782801	 0.117455
H	 0.2568999853	-0.6153647942	-3.3795695341	 0.126148
H	 0.5997457986	-2.860671449	-1.23449931	 0.094475
H	 3.1439503308	-2.2104308936	-1.5345050769	 0.117504
H	 2.6149431897	-1.7614975158	-3.1726925941	 0.119763
H	 2.8638577929	-0.0266014452	-0.6913053311	 0.12089
76.2547	89.5285	134.7815	204.2042	214.3816	286.0897	337.8052	392.3088	425.8878	529.88	543.972	661.2777	719.7591	781.7542	808.7146	851.5874	872.3326	948.9181	974.7892	990.2128	1000.0482	1024.7784	1044.0292	1053.8404	1084.2944	1097.7827	1117.078	1158.3372	1198.4839	1226.5444	1256.313	1281.984	1317.0553	1335.4721	1357.2408	1407.7075	1417.4584	1478.8094	1485.6667	1498.4439	1504.5751	1506.7157	2348.0183	3012.3294	3038.5226	3049.6093	3065.0397	3074.2097	3108.1308	3110.3769	3112.3199	3125.7426	3185.4624	3201.4429
CCC12CC1CC2C#N	CC[C@]12C[C@H]1C[C@H]2C#N	
InChI=1S/C8H11N/c1-2-8-4-6(8)3-7(8)5-9/h6-7H,2-4H2,1H3	InChI=1S/C8H11N/c1-2-8-4-6(8)3-7(8)5-9/h6-7H,2-4H2,1H3/t6-,7+,8+/m1/s1
