18
gdb 44607	2.82202	1.85287	1.48116	2.5904	73.52	-0.2308	-0.0202	0.2106	927.9167	0.150679	-401.959861	-401.95315	-401.952206	-401.991043	27.429	
O	 0.0306953934	 0.0242635968	 0.1948661081	-0.312708
C	-0.0228887896	 1.2091010076	 0.0047139206	 0.405954
C	-1.2965706871	 2.0461392759	-0.2142348123	-0.285798
N	-0.8802541746	 3.3568788331	-0.7057222305	-0.108879
C	-0.108812751	 4.2369863741	 0.1973942314	-0.017312
C	 0.259690844	 3.7810765808	 1.6078974027	-0.24848
C	 1.3713995361	 2.7218211543	 1.405430159	-0.209698
C	 1.1582833705	 2.1914016404	-0.0426938427	-0.163509
C	 0.5987780902	 3.39165068	-0.8053438285	-0.067567
H	-1.9319027024	 1.5608325921	-0.9622617163	 0.137846
H	-1.8770872587	 2.1004548727	 0.7145300482	 0.132515
H	-0.305721601	 5.2912148349	 0.0272821952	 0.095648
H	 0.6117218136	 4.6301858074	 2.1995850806	 0.110137
H	-0.605168759	 3.3698395636	 2.1413771347	 0.111922
H	 2.3537553473	 3.2018830403	 1.4559360942	 0.111844
H	 1.3562228018	 1.9197285499	 2.1497326742	 0.116926
H	 2.048607693	 1.7229729799	-0.461625215	 0.09613
H	 1.0371584835	 3.7473021062	-1.7315231537	 0.095029
79.773	227.7212	275.8594	421.7015	437.0131	501.4013	608.0974	640.6602	683.5311	727.2705	742.625	786.3762	831.1488	868.773	899.1913	925.8994	934.0769	955.9307	1013.7103	1034.2686	1051.8304	1076.9101	1100.4545	1147.1633	1185.1379	1194.175	1205.1599	1249.5187	1264.7904	1277.0402	1291.1952	1304.5137	1315.7816	1353.1755	1381.6989	1458.5099	1490.8623	1507.2362	1852.668	3038.5517	3044.1184	3048.1328	3080.7757	3085.8751	3100.1427	3121.4715	3150.8567	3167.5346
O=C1CN2C3CCC1C23	O=C1CN2[C@H]3CC[C@@H]1[C@@H]23	
InChI=1S/C7H9NO/c9-6-3-8-5-2-1-4(6)7(5)8/h4-5,7H,1-3H2	InChI=1S/C7H9NO/c9-6-3-8-5-2-1-4(6)7(5)8/h4-5,7H,1-3H2/t4-,5-,7+,8?/m0/s1
