19
gdb 97136	3.97901	1.15712	1.03775	3.6211	79.65	-0.242	0.0335	0.2755	1229.2686	0.158958	-419.200515	-419.191654	-419.19071	-419.234295	32.552	
C	 0.1712092236	 1.4094822338	 0.1221706789	-0.328561
N	 0.1992435439	-0.0419973466	 0.0750534288	-0.325785
C	 0.4628465955	-0.6182152147	-1.0065797801	 0.460872
O	 0.7601108133	 0.0133913885	-2.2006163664	-0.257848
C	 0.7582379334	-0.9354430543	-3.2661907173	-0.154048
C	 0.7574430935	-2.2966858993	-2.5829700326	 0.306391
C	 0.0406475066	-3.4399633966	-3.2520139847	-0.480361
C	 1.8366751184	-2.5039766912	-1.591048468	-0.29257
N	 0.4914750816	-2.0355742343	-1.1525850536	-0.187102
H	 1.0782292982	 1.7786338203	 0.6170684304	 0.123683
H	 0.0987576144	 1.889449592	-0.8608962991	 0.119337
H	-0.6769744569	 1.7263959813	 0.7374864131	 0.123171
H	-0.1465885642	-0.806168598	-3.8739604717	 0.115115
H	 1.6341003856	-0.7541518127	-3.8971398262	 0.121961
H	 0.5359186095	-3.7111821174	-4.1910144998	 0.125051
H	 0.0309705902	-4.3197516382	-2.604476165	 0.139156
H	-0.9964957021	-3.1715554984	-3.4785554624	 0.130308
H	 2.0803549909	-3.5081362941	-1.2595057443	 0.128895
H	 2.6542667747	-1.78902396	-1.5466745098	 0.132335
70.3688	95.8785	165.8298	185.2533	218.0893	258.5826	334.0123	370.7392	401.6906	517.3222	591.2458	693.0104	719.5152	772.5115	814.6666	841.116	933.4462	944.1245	1006.5724	1027.0199	1062.8009	1075.3459	1083.1404	1122.1518	1130.1682	1134.8984	1153.642	1214.7557	1224.9583	1300.4698	1364.8447	1407.1799	1424.2077	1439.5957	1486.7276	1492.3729	1493.3184	1499.6633	1506.3751	1524.1218	1814.8618	3013.0373	3022.224	3036.0353	3070.7188	3077.2544	3089.8323	3099.2323	3114.4747	3126.995	3208.0327
CN=C1OCC2(C)CN12	CN=C1OC[C@@]2(C)CN12	
InChI=1S/C6H10N2O/c1-6-3-8(6)5(7-2)9-4-6/h3-4H2,1-2H3	InChI=1S/C6H10N2O/c1-6-3-8(6)5(7-2)9-4-6/h3-4H2,1-2H3/t6-,8?/m1/s1
