23
gdb 111284	2.98178	1.16532	1.00085	1.5443	85.64	-0.2482	0.0657	0.3139	1322.5783	0.204671	-388.271711	-388.261776	-388.260831	-388.306022	37.838	
C	-0.0102167338	 1.5809872921	 0.0509730001	-0.383918
C	 0.1131517157	 0.0540349755	 0.1141937671	-0.190047
C	 0.698636985	-0.5405539569	-1.1647004234	-0.011888
C	 0.852756773	-2.0614307514	-1.2959586904	-0.12102
C	-0.4910956514	-2.735276582	-1.3077716072	-0.349686
C	 0.0023742543	-2.0837418907	-2.5762347702	 0.334767
C	 0.1847885795	-2.8396185046	-3.8623197413	-0.504094
C	-0.1786094835	-0.5651424907	-2.4804710445	 0.054321
O	-1.4870441292	-0.0338494474	-2.4691041204	-0.430865
H	 0.9677144403	 2.0488862675	-0.11045382	 0.107736
H	-0.6666336226	 1.8776296522	-0.7716273727	 0.137458
H	-0.4220078009	 1.9858656469	 0.980852409	 0.105504
H	 0.7488289288	-0.2373307504	 0.9605978064	 0.093756
H	-0.8737059505	-0.3788318372	 0.3190970874	 0.080529
H	 1.649219895	-0.0399834358	-1.3812701814	 0.066552
H	 1.7618086477	-2.6162847326	-1.0934631922	 0.082668
H	-0.4690550651	-3.8206438252	-1.3265720519	 0.112101
H	-1.324011984	-2.3396060059	-0.7294615689	 0.092964
H	 0.4956675474	-3.8732027521	-3.6770880282	 0.115676
H	-0.7483552692	-2.8734693426	-4.4373688589	 0.124458
H	 0.9459538752	-2.3698204387	-4.4958206236	 0.117002
H	 0.3322052824	-0.0488027224	-3.2977765073	 0.085814
H	-2.0359155541	-0.6054755676	-1.9225825574	 0.280214
94.8723	111.5854	161.3481	185.8997	217.8796	233.7931	261.8689	280.6784	322.2239	333.8194	481.1877	492.3677	582.1393	649.1435	702.3047	765.4277	809.9682	824.8906	897.2633	937.0244	952.0579	982.6899	987.6503	1020.3086	1036.7178	1072.2464	1082.5754	1106.8107	1111.6684	1131.9623	1161.1293	1202.8216	1231.9109	1260.4289	1286.2419	1297.7337	1309.4082	1337.9239	1380.9122	1395.2492	1406.6627	1420.7969	1443.4993	1483.4769	1485.0062	1498.4169	1498.9057	1504.5618	1514.2973	3018.2446	3020.3974	3031.6745	3032.7889	3051.6386	3074.9992	3079.8747	3093.1036	3095.511	3098.4986	3119.8119	3172.7733	3188.022	3813.2207
CCC1C2CC2(C)C1O	CC[C@H]1[C@H]2C[C@@]2(C)[C@H]1O	
InChI=1S/C8H14O/c1-3-5-6-4-8(6,2)7(5)9/h5-7,9H,3-4H2,1-2H3	InChI=1S/C8H14O/c1-3-5-6-4-8(6,2)7(5)9/h5-7,9H,3-4H2,1-2H3/t5-,6+,7-,8+/m0/s1
