20
gdb 73406	2.60663	2.00787	1.51763	1.9119	77.34	-0.2227	0.0688	0.2915	946.5917	0.174404	-403.132241	-403.125102	-403.124158	-403.163208	29.937	
O	-0.0413075392	 1.4299429358	 0.0626611625	-0.496359
C	 0.0106546408	 0.0366554851	 0.0157706413	 0.437698
C	 0.9010330586	-0.7164089773	 1.0087336692	-0.319267
C	 0.4967414316	-2.1487364462	 0.5612051765	-0.16292
N	-0.4876709721	-1.9040287406	-0.5317360876	-0.136793
C	-1.323323786	-0.7569299579	 0.0248593257	-0.029601
C	-2.1125199776	-0.2743055915	-1.1894117614	-0.227169
C	-0.9526839771	-0.2799926295	-2.2312546922	-0.223553
C	 0.1639148396	-0.7762179158	-1.3180624143	-0.061047
H	 0.8550720863	 1.7719206185	 0.1433349178	 0.282111
H	 1.9654897852	-0.4983929467	 0.8648835553	 0.088693
H	 0.6440362654	-0.4888828527	 2.0475285649	 0.103508
H	 1.3345977985	-2.7333148362	 0.1718627876	 0.103821
H	 0.0206703803	-2.7275711253	 1.3569796647	 0.105609
H	-1.8613788924	-0.9507302841	 0.9555329776	 0.061836
H	-2.9165557362	-0.9668349367	-1.4472967859	 0.103832
H	-2.5375684676	 0.7190435682	-1.0290139677	 0.109557
H	-1.1327774472	-0.9622941197	-3.0646329379	 0.102897
H	-0.7364464905	 0.7149778694	-2.6282801363	 0.101384
H	 1.1428912396	-0.9912699469	-1.7539220398	 0.055766
224.4819	232.5281	257.6959	260.8986	344.019	414.7328	420.026	608.5312	643.6713	692.731	723.1498	786.6891	820.0227	832.5845	893.1218	925.4011	930.0193	948.9813	985.3233	997.2929	1007.6916	1014.7602	1031.2825	1070.876	1122.2535	1149.9348	1170.6282	1191.9949	1213.5829	1240.8765	1250.0306	1258.7007	1267.5152	1287.9217	1299.461	1322.2153	1335.6134	1337.0236	1399.6005	1473.6901	1496.7799	1498.5484	1516.3684	3035.8888	3060.1839	3065.3079	3072.7458	3081.7535	3085.6009	3096.8425	3108.1063	3109.6359	3126.8906	3812.2731
OC12CCN3C1CCC23	O[C@@]12CCN3[C@@H]1CC[C@@H]23	
InChI=1S/C7H11NO/c9-7-3-4-8-5(7)1-2-6(7)8/h5-6,9H,1-4H2	InChI=1S/C7H11NO/c9-7-3-4-8-5(7)1-2-6(7)8/h5-6,9H,1-4H2/t5-,6+,7+
