21
gdb 98019	4.09758	0.58962	0.56107	3.402	91.87	-0.2512	-0.042	0.2092	2104.4824	0.178862	-387.097273	-387.085933	-387.084989	-387.136328	38.901	
C	-0.1445948591	 1.5409912437	 0.0455950642	-0.384014
C	-0.1162898666	 0.0303931385	-0.170004631	-0.276359
C	 0.9955734529	-0.4247284512	-1.1042157864	 0.213004
O	 1.7800756888	 0.3463416485	-1.6174378534	-0.294587
C	 1.0580011342	-1.8539705359	-1.3437617279	-0.074312
C	 1.0981681852	-3.045764572	-1.5384187644	 0.211524
C	 1.1875076349	-4.4824783331	-1.7885030883	-0.139051
C	 1.6066329055	-4.7651996392	-3.2453123395	-0.376029
C	 2.153641033	-5.1456198119	-0.7839142731	-0.377341
H	 0.7988551963	 1.8926654504	 0.4706556377	 0.132455
H	-0.2901736734	 2.0681999203	-0.9006369224	 0.132208
H	-0.9559749591	 1.8167163598	 0.7249490084	 0.108272
H	 0.0075425989	-0.5110347216	 0.777766122	 0.127246
H	-1.0654875413	-0.3372883748	-0.5829064411	 0.127337
H	 0.1896420934	-4.9142739831	-1.6302250454	 0.111253
H	 0.9075789388	-4.3113352279	-3.9522295419	 0.128956
H	 2.6026734357	-4.3591979307	-3.4442711693	 0.133242
H	 1.6299514294	-5.8444845337	-3.4250827137	 0.116773
H	 1.8405917624	-4.962058653	 0.2469969986	 0.127356
H	 2.1793532441	-6.2266523366	-0.9514756648	 0.119012
H	 3.1669327761	-4.7527978464	-0.9084501084	 0.133054
12.3489	46.9934	66.4203	98.0156	173.5133	190.343	223.6651	243.8114	260.9035	269.3254	331.5722	428.0162	502.0236	541.1118	582.3777	594.7341	710.8932	806.2136	834.4486	931.8175	933.1946	966.0916	1006.5108	1070.4249	1087.121	1115.5234	1119.4659	1165.6876	1212.6474	1270.3673	1320.8459	1348.4075	1367.8889	1395.2227	1412.0142	1417.5409	1448.5881	1485.3318	1488.0866	1491.3372	1497.6997	1497.9614	1509.9778	1760.6477	2325.7061	3010.5432	3022.3445	3040.4561	3043.4019	3049.3633	3051.3381	3114.0028	3118.4017	3122.6932	3123.1131	3125.2393	3127.6837
CCC(=O)C#CC(C)C	CCC(=O)C#CC(C)C	
InChI=1S/C8H12O/c1-4-8(9)6-5-7(2)3/h7H,4H2,1-3H3	InChI=1S/C8H12O/c1-4-8(9)6-5-7(2)3/h7H,4H2,1-3H3
