15
gdb 24101	7.2575	0.74528	0.67965	2.8713	72.62	-0.2138	0.0127	0.2265	1526.8064	0.113822	-416.827643	-416.819641	-416.818697	-416.861122	28.986	
N	-0.0734394587	-1.1390943559	-0.0609920603	-0.289718
C	-0.0213728484	 0.0137485945	-0.0222674332	 0.255804
C	 0.0477299642	 1.4735111102	 0.0544797328	-0.274168
N	 1.4064742591	 1.9425925907	-0.1544904001	-0.406232
C	 1.6010635068	 3.3218460781	-0.0426528781	 0.282277
C	 0.663239334	 4.3145908764	 0.0002016418	-0.088654
O	 1.2786320766	 5.5371087328	 0.0413144013	-0.151991
C	 2.610730587	 5.3095774058	 0.0397405291	 0.023262
C	 2.8786903989	 3.9803527223	-0.0138567503	-0.296669
H	-0.595103387	 1.8936039918	-0.7299504825	 0.16616
H	-0.3831743793	 1.7942296098	 1.0194912076	 0.145548
H	 2.0886910437	 1.4009899219	 0.358940209	 0.250956
H	-0.4122946212	 4.3316532088	-0.0061591469	 0.128592
H	 3.2384560971	 6.1847360668	 0.0765529082	 0.141086
H	 3.8508151374	 3.5132403962	-0.0385935085	 0.113746
54.9015	103.2308	112.8104	224.3356	317.8286	395.8655	409.0111	505.2895	602.8737	612.7103	642.259	693.5441	756.3793	769.7755	820.0525	888.4138	956.5047	1004.0935	1019.2756	1064.5377	1095.0122	1124.2707	1216.5203	1237.6249	1269.7753	1308.881	1365.2032	1415.4109	1498.0378	1502.1198	1550.3474	1655.0648	2372.6383	2951.5323	3039.5264	3253.7116	3282.6356	3292.3608	3577.8891
N#CCNC1=COC=C1	N#CCNc1cocc1	
InChI=1S/C6H6N2O/c7-2-3-8-6-1-4-9-5-6/h1,4-5,8H,3H2	InChI=1S/C6H6N2O/c7-2-3-8-6-1-4-9-5-6/h1,4-5,8H,3H2
