19
gdb 121594	4.3954	0.72444	0.63	1.0143	75.65	-0.2447	-0.0322	0.2125	1779.6105	0.157926	-456.38822	-456.377911	-456.376967	-456.424771	36.182	
C	 0.04263267	 1.4438648669	 0.0058705702	-0.385654
C	-0.0454889262	-0.0846174486	-0.018400806	-0.189354
C	-1.4862376061	-0.5658790697	-0.0305714735	-0.048846
O	-1.4661986461	-2.0082289981	-0.0497181551	-0.216073
C	-2.6513916423	-2.6032291274	-0.0652224084	 0.465368
O	-3.7172769949	-2.0265085746	-0.0728040565	-0.38608
C	-2.5570522907	-4.1224278015	-0.0637251843	 0.219123
N	-3.7935036963	-4.6806189792	-0.2586219831	-0.532116
N	-1.4229007428	-4.688461503	 0.0866448866	-0.493941
H	 1.0852354807	 1.7730994715	 0.0160845537	 0.122021
H	-0.4373308701	 1.8866306828	-0.8736937377	 0.120097
H	-0.4458106805	 1.8587399671	 0.8943453607	 0.120012
H	 0.4673005537	-0.4815878197	-0.9014911431	 0.115468
H	 0.461805407	-0.5094326869	 0.8548457715	 0.116518
H	-2.0378752	-0.2313638903	 0.854844429	 0.121295
H	-2.031339	-0.2075578197	-0.9106368421	 0.121872
H	-4.5806567271	-4.0582653531	-0.154387523	 0.271805
H	-3.9305519175	-5.6507597188	-0.030407234	 0.252447
H	-1.5178032807	-5.7070221576	 0.0775109253	 0.206038
42.1038	68.4973	80.5	103.8236	178.2441	236.879	244.9119	316.5671	355.9485	381.0229	446.6056	489.5696	523.3967	566.9726	634.5603	759.3052	822.2813	878.3432	886.896	894.1988	930.5712	1008.308	1053.6945	1100.6205	1134.141	1148.8415	1187.8064	1269.2329	1284.5318	1314.7098	1334.7048	1407.7194	1417.3197	1447.3422	1491.253	1501.4177	1503.7923	1518.9429	1605.9012	1727.0532	1788.9204	3034.0662	3039.1196	3047.6668	3069.3734	3088.8501	3107.1	3113.0575	3438.7189	3582.9055	3713.337
CCCOC(=O)C(N)=N	CCCOC(=O)C(=N)N	
InChI=1S/C5H10N2O2/c1-2-3-9-5(8)4(6)7/h2-3H2,1H3,(H3,6,7)	InChI=1S/C5H10N2O2/c1-2-3-9-5(8)4(6)7/h2-3H2,1H3,(H3,6,7)
