17
gdb 13914	3.75145	1.7367	1.47646	2.4983	69.25	-0.2597	0.0234	0.2831	901.4763	0.143371	-363.850733	-363.843522	-363.842578	-363.88245	27.141	
N	 0.3680460052	 1.1544952741	-0.175051172	-0.555204
C	 0.1663854336	-0.0628996821	 0.0484637776	 0.38302
O	 1.0169777454	-1.0539282625	 0.4973986799	-0.263272
C	-0.055826699	-2.048395125	 0.4410712067	-0.140886
C	-1.0358479668	-0.9681378541	-0.0621876259	 0.216456
C	-2.374125414	-0.6806393216	 0.6688851099	-0.284675
C	-3.1419849797	-1.2609258147	-0.5497934581	-0.212414
C	-1.8349450479	-1.1462161105	-1.3804596897	-0.284675
H	 1.3351425582	 1.4191642618	 0.0192625365	 0.227195
H	 0.1913321998	-2.8472433349	-0.2638112391	 0.117879
H	-0.2553191737	-2.4615644219	 1.4338446611	 0.117879
H	-2.5157564851	-1.1622002949	 1.6398815015	 0.103062
H	-2.5232984562	 0.3959075548	 0.783455064	 0.130568
H	-3.4427387683	-2.3003395714	-0.3927840747	 0.104677
H	-4.0087741721	-0.7005643857	-0.9051494387	 0.10676
H	-1.7970855304	-0.2311699928	-1.9767727883	 0.130568
H	-1.5545896545	-1.9921581827	-2.0133713678	 0.103062
91.4697	122.6606	174.7499	265.3434	336.9439	426.251	571.1874	661.1818	685.6886	759.6565	789.2091	859.5478	871.7688	889.9895	910.024	943.1194	964.1314	969.6414	1009.1609	1057.1795	1143.6636	1163.7998	1168.2131	1196.1173	1214.8546	1241.8112	1257.74	1276.046	1283.5283	1297.96	1372.5359	1470.2436	1481.8934	1502.3313	1513.5035	1820.7621	3048.8847	3058.4133	3059.8312	3066.6274	3105.0846	3107.5035	3116.2205	3127.7836	3478.4725
N=C1OCC11CCC1	[NH][C]1OCC21CCC2	
InChI=1S/C6H9NO/c7-5-6(4-8-5)2-1-3-6/h7H,1-4H2	InChI=1S/C6H9NO/c7-5-6(4-8-5)2-1-3-6/h7H,1-4H2
