23
gdb 97842	3.76334	0.69682	0.64161	0.0839	96.46	-0.2353	0.0563	0.2916	1883.6047	0.204786	-351.131654	-351.121148	-351.120204	-351.170129	37.842	
C	-0.6305333932	 1.6524187851	-0.3036544328	-0.361982
C	 0.1154535082	 0.3733159318	 0.1183884235	-0.315083
C	 0.879593759	-0.2313776987	-0.9684206385	 0.095938
C	 1.5058061163	-0.7053131357	-1.8841489885	 0.038936
C	 2.2650761123	-1.3007067064	-2.96492107	-0.160952
C	 3.6812835455	-1.8917884774	-2.6692455177	-0.221095
C	 3.3615165576	-3.0595489691	-3.6376136845	-0.227772
C	 1.8473823475	-2.709489802	-3.5387633494	 0.016073
C	 1.0617730903	-3.5912654447	-2.5760555837	-0.389482
H	 0.0713929261	 2.4109169543	-0.6608352338	 0.126506
H	-1.3366473902	 1.4411596677	-1.1113655189	 0.126114
H	-1.1872874317	 2.0680204054	 0.5418127532	 0.111387
H	 0.7892296605	 0.6033044476	 0.9542723054	 0.12563
H	-0.6052646267	-0.3569688458	 0.5091158599	 0.125393
H	 2.3383267025	-0.5908338743	-3.7967647707	 0.093628
H	 4.5364552874	-1.2532334439	-2.9009170375	 0.099366
H	 3.7635508678	-2.2213888916	-1.631252859	 0.110364
H	 3.7628818751	-2.8874159372	-4.640211133	 0.097969
H	 3.6504044682	-4.0640819579	-3.3178179728	 0.095486
H	 1.3202660542	-2.652291172	-4.4957252034	 0.067751
H	 1.567823649	-3.6844836544	-1.6092583555	 0.117007
H	 0.0662738433	-3.1789218987	-2.385539587	 0.120922
H	 0.9431037711	-4.5981878822	-2.9909901555	 0.107896
4.3697	71.8581	86.9908	124.8257	186.4412	210.9474	237.4729	286.8996	344.6814	359.3709	468.0464	485.6869	534.897	645.7013	730.3923	784.6167	786.5427	846.5385	885.9453	914.7355	952.5484	956.157	989.1148	1019.8811	1075.0276	1083.3682	1103.636	1116.6525	1161.4228	1190.6157	1217.368	1243.1563	1257.4153	1274.3348	1280.7364	1286.0937	1340.9807	1355.2035	1368.9669	1407.6457	1412.4394	1475.5381	1481.111	1493.1947	1494.2477	1494.5311	1500.0252	1505.6499	2354.4828	3014.6726	3030.3698	3031.1279	3040.499	3042.1379	3049.3869	3058.6491	3069.2735	3097.3367	3100.6424	3106.3084	3114.8005	3121.7619	3125.3355
CCC#CC1CCC1C	CCC#C[C@H]1CC[C@H]1C	
InChI=1S/C9H14/c1-3-4-5-9-7-6-8(9)2/h8-9H,3,6-7H2,1-2H3	InChI=1S/C9H14/c1-3-4-5-9-7-6-8(9)2/h8-9H,3,6-7H2,1-2H3/t8-,9+/m1/s1
