21
gdb 92367	2.14505	1.96925	1.53995	1.3966	76.49	-0.2478	0.0801	0.3279	1006.1483	0.183686	-424.252969	-424.244795	-424.24385	-424.285146	32.718	
C	-0.2012253009	 1.5559507693	-0.0158028845	-0.410272
C	 0.0065462484	 0.043880328	-0.0300338781	-0.001455
C	 0.9203356427	-0.4914297188	-1.1792177709	-0.250676
C	 1.9761521384	-1.2763725464	-0.3728913677	 0.038211
C	 2.878586726	-0.2796618131	 0.3743995288	-0.086732
O	 1.9809310178	 0.2268483633	 1.3719185086	-0.309008
C	 0.7665344616	-0.5274560395	 1.2009352817	 0.469035
C	 0.0335968031	-0.6337743395	 2.5122767393	-0.477255
O	 1.2114786017	-1.7907183048	 0.7286919084	-0.281523
H	 0.7548637577	 2.0774223791	 0.0806562221	 0.128318
H	-0.6890828287	 1.8916981409	-0.9364434303	 0.111021
H	-0.8353160261	 1.8638415651	 0.8226957664	 0.11319
H	-0.9670572596	-0.4555101487	-0.0766372426	 0.075294
H	 0.3751250438	-1.1530287073	-1.8559357429	 0.10478
H	 1.3647045023	 0.3116585792	-1.7744147874	 0.09845
H	 2.4889534945	-2.0850427864	-0.8918761249	 0.083652
H	 3.7305844994	-0.7726558303	 0.8576807941	 0.102869
H	 3.2446937389	 0.5342151647	-0.2613963107	 0.098473
H	-0.2553306469	 0.3599800449	 2.8629410617	 0.13204
H	-0.8667061123	-1.2417874315	 2.3942852135	 0.126486
H	 0.6820187482	-1.0934258482	 3.2610705553	 0.1351
117.4231	185.093	226.9362	242.3936	268.9082	321.2829	373.8253	395.9453	517.7048	584.4974	611.6308	638.1159	768.8407	809.9916	847.7034	863.258	875.8901	911.8443	921.0998	968.2474	1003.9711	1016.1528	1042.0705	1055.0526	1103.8581	1123.5416	1144.9986	1189.8731	1191.8364	1208.6756	1241.5512	1294.6689	1315.1983	1321.4565	1350.5464	1363.9591	1373.3517	1408.2582	1421.8874	1480.5205	1488.0725	1493.0946	1495.6418	1503.0229	1524.911	3023.2381	3034.9717	3043.569	3057.9129	3060.4267	3068.8958	3095.9744	3108.9058	3119.7704	3133.6985	3134.5646	3140.1746
CC1CC2COC1(C)O2	C[C@H]1C[C@H]2CO[C@]1(C)O2	
InChI=1S/C7H12O2/c1-5-3-6-4-8-7(5,2)9-6/h5-6H,3-4H2,1-2H3	InChI=1S/C7H12O2/c1-5-3-6-4-8-7(5,2)9-6/h5-6H,3-4H2,1-2H3/t5-,6-,7+/m0/s1
