15
gdb 123886	4.5429	1.25904	1.03054	3.2416	76.06	-0.2336	-0.0666	0.167	1108.429	0.114669	-412.965343	-412.958268	-412.957323	-412.997465	26.187	
C	-0.1277564218	 1.3040962946	-0.3168393812	-0.235855
C	 1.2862659207	 0.9507275432	 0.0106281832	-0.212896
N	 0.2349748522	-0.0436608664	 0.1226111695	-0.120376
C	-0.1499703274	-0.5326633165	 1.3645272918	 0.358236
C	-1.4914653566	-0.8926404832	 1.6080130171	-0.039515
N	-1.8470337077	-1.427560943	 2.7570156186	-0.226035
C	-0.8441426094	-1.5984175291	 3.6366516024	 0.094959
N	 0.4278436737	-1.2716127588	 3.4570727499	-0.176803
N	 0.7836934342	-0.7185741134	 2.2966534509	-0.251448
H	-0.6623268859	 1.9355062572	 0.3890475878	 0.131773
H	-0.4518639433	 1.3860704576	-1.3496146675	 0.133076
H	 2.0005158027	 0.7809064309	-0.7887971457	 0.133286
H	 1.7063998317	 1.3292489734	 0.9373509852	 0.14837
H	-2.2556801994	-0.7342908142	 0.8499506873	 0.129133
H	-1.0912646736	-2.0445792926	 4.5944910007	 0.134094
67.994	130.8056	201.7656	262.0393	405.2304	466.1814	524.15	584.8126	639.8039	785.1113	798.4962	816.6021	930.4255	933.8554	937.4024	991.7769	1036.8997	1051.5155	1092.8191	1125.2008	1134.5176	1170.5566	1173.3652	1183.3058	1216.0719	1248.8405	1371.1623	1424.5611	1464.141	1494.7216	1517.961	1541.3334	1607.6647	3110.9181	3126.269	3152.5978	3193.898	3200.2852	3218.6616
C1CN1C1=CN=CN=N1	C1CN1c1cncnn1	
InChI=1S/C5H6N4/c1-2-9(1)5-3-6-4-7-8-5/h3-4H,1-2H2	InChI=1S/C5H6N4/c1-2-9(1)5-3-6-4-7-8-5/h3-4H,1-2H2
