16
gdb 11341	5.44501	1.23352	1.08544	5.4405	68.36	-0.2635	-0.0375	0.226	1089.5426	0.130961	-383.799137	-383.791532	-383.790588	-383.831695	27.448	
C	-0.2357666096	 1.5235361981	-0.0575514892	-0.380457
C	 0.095595467	 0.0206798734	 0.0154925599	-0.294939
C	 0.8158829697	-0.4866315221	-1.1934639336	 0.32426
C	 2.0575042018	-0.9667508899	-1.3053794368	-0.374021
C	 2.3198976757	-1.3465287095	-2.7099420208	 0.458422
O	 3.2996494926	-1.8102093469	-3.2198098149	-0.350754
O	 1.1756378488	-1.0713902898	-3.429964108	-0.233765
C	 0.1857675207	-0.531290496	-2.563986089	-0.16574
H	 0.6748512803	 2.1195078839	-0.1681151731	 0.132913
H	-0.8929180514	 1.7520750522	-0.9020012079	 0.125544
H	-0.7445201552	 1.8443609833	 0.8555840907	 0.127382
H	 0.7021326255	-0.1800946824	 0.9041173397	 0.120797
H	-0.8387386986	-0.5438600886	 0.1378202919	 0.119101
H	 2.8004616638	-1.0909770093	-0.5308713977	 0.126183
H	-0.7061623953	-1.1718979718	-2.586690845	 0.131497
H	-0.1066962059	 0.4615681253	-2.9283591961	 0.133576
49.4154	134.9079	207.5715	213.8479	277.0802	323.995	480.4845	534.2655	598.4443	707.7485	743.0384	790.3346	890.6921	893.1306	898.6626	964.6667	1005.1284	1048.2547	1089.0531	1101.8434	1142.5464	1184.4443	1209.4554	1267.8639	1341.1245	1350.1381	1378.131	1411.1979	1483.2471	1491.9935	1499.5081	1507.5811	1697.3642	1873.2519	3017.4525	3021.8786	3043.5571	3052.3935	3077.3744	3117.0147	3120.2176	3245.1518
CCC1=CC(=O)OC1	CCC1=CC(=O)OC1	
InChI=1S/C6H8O2/c1-2-5-3-6(7)8-4-5/h3H,2,4H2,1H3	InChI=1S/C6H8O2/c1-2-5-3-6(7)8-4-5/h3H,2,4H2,1H3
