19
gdb 122801	4.53588	0.52995	0.48009	1.6095	73.71	-0.2514	-0.0946	0.1568	2168.5719	0.155418	-460.178092	-460.167388	-460.166444	-460.21578	35.914	
O	-0.2197641442	 1.4534024266	 0.3445972713	-0.421045
C	-0.048221121	 0.0810939461	 0.0264568859	-0.074437
C	-1.3979899319	-0.6074058224	 0.1817406812	-0.173076
C	-1.3387811595	-2.1035390505	-0.1358664425	-0.190234
C	-2.6949826332	-2.7891604106	 0.0207610243	-0.307387
C	-2.6668761319	-4.2661225085	-0.2851063592	 0.280196
O	-1.6871903077	-4.8891439158	-0.6254940929	-0.275646
C	-3.9906962328	-5.035231491	-0.1520165796	 0.094405
O	-5.0285511525	-4.525645204	 0.1782982458	-0.218429
H	 0.6290708394	 1.8941206982	 0.2460896035	 0.286275
H	 0.3173356328	-0.0477263703	-1.0057147216	 0.085855
H	 0.6898277571	-0.3949615912	 0.6930134514	 0.085849
H	-1.7513834494	-0.4494928622	 1.2082746226	 0.106868
H	-2.1200827418	-0.106681299	-0.475097378	 0.106819
H	-0.9755289545	-2.2592637504	-1.1586537505	 0.112315
H	-0.6098398494	-2.6002096017	 0.5154606586	 0.112358
H	-3.0974548252	-2.6689556217	 1.0364136851	 0.141011
H	-3.4593782151	-2.3321749531	-0.6233309777	 0.141
H	-3.8842918893	-6.1141743587	-0.3941760977	 0.107304
44.0916	56.1212	81.0194	117.2462	134.5728	139.1302	188.6549	234.8663	267.6801	372.8934	448.9703	459.5869	518.7241	651.7816	725.9868	784.434	821.7324	895.1708	989.3382	1010.4964	1045.3305	1065.7665	1092.9193	1122.0698	1153.6494	1199.3287	1235.8532	1267.2786	1299.2149	1318.2718	1321.9449	1363.2246	1366.0118	1406.2566	1437.0028	1464.6837	1487.8267	1502.9691	1529.4404	1801.9134	1825.4494	2921.1942	2958.8275	2983.7553	3022.3345	3027.0036	3039.7058	3042.8244	3060.3787	3084.1534	3831.3664
OCCCCC(=O)C=O	OCCCCC(=O)C=O	
InChI=1S/C6H10O3/c7-4-2-1-3-6(9)5-8/h5,7H,1-4H2	InChI=1S/C6H10O3/c7-4-2-1-3-6(9)5-8/h5,7H,1-4H2
