17
gdb 33571	2.25816	1.52337	1.17557	1.2202	79.63	-0.2493	0.0278	0.2771	1106.2963	0.134125	-384.616559	-384.607591	-384.606646	-384.6504	33.292	
C	-0.2050894148	-1.330788816	-0.4425867283	-0.412308
C	-0.1113472714	-0.1550422456	-0.2150867545	 0.25053
C	 0.035339489	 1.2677933034	 0.0839082577	-0.105625
C	-0.4108271953	 1.6379214327	 1.5331979468	-0.260204
C	 0.404678305	 2.907172746	 1.8232526812	-0.083099
O	 1.5370362791	 2.8848327206	 0.9484536324	-0.26004
C	 1.5308411265	 1.7021674188	 0.1799062663	-0.082085
C	-0.6782256176	 2.0873830182	-0.9012973736	 0.33999
C	-1.2614623983	 2.777968597	-1.6923090131	-0.479621
H	-0.2975893682	-2.3673501958	-0.6544352388	 0.196309
H	-1.4881474689	 1.7883218882	 1.6080230226	 0.12653
H	-0.1250907884	 0.8197462391	 2.1991051427	 0.121674
H	-0.1699421085	 3.8168836534	 1.6149600982	 0.115928
H	 0.7406452162	 2.943590587	 2.8665026779	 0.105087
H	 2.0997061385	 0.8935713162	 0.6631624381	 0.09898
H	 1.968411924	 1.9132912272	-0.7981909211	 0.127048
H	-1.774922507	 3.3796747295	-2.4010125148	 0.200908
69.7878	120.9737	133.8767	152.5797	184.6467	283.3553	428.9607	461.2904	501.6768	549.6747	564.7716	631.9807	633.2862	646.913	651.8743	693.8162	739.5566	848.2908	917.5766	946.5715	985.2969	1016.8082	1079.2459	1096.8544	1132.1531	1184.8503	1210.8487	1235.193	1277.9866	1313.5003	1364.0033	1398.7139	1488.8141	1514.5769	1530.7718	2237.4377	2242.8367	2991.0059	3025.6673	3058.6338	3077.7031	3107.3233	3138.8747	3501.3851	3502.1805
C#CC1(CCOC1)C#C	C#CC1(CCOC1)C#C	
InChI=1S/C8H8O/c1-3-8(4-2)5-6-9-7-8/h1-2H,5-7H2	InChI=1S/C8H8O/c1-3-8(4-2)5-6-9-7-8/h1-2H,5-7H2
