17
gdb 122741	5.40693	0.47857	0.45003	2.7996	78.3	-0.2727	-0.0674	0.2053	2305.2437	0.132523	-458.915619	-458.905242	-458.904298	-458.953352	34.126	
O	-0.0239871324	 1.4337933062	-0.1028093249	-0.417905
C	 0.0101164539	 0.0254291634	-0.0047329398	-0.062152
C	-1.3903528456	-0.5651905727	 0.0249937004	-0.064324
O	-2.012436892	-0.1915813773	-1.1969629657	-0.257918
C	-3.3761746664	-0.5506014259	-1.2558409767	-0.206771
C	-3.9569559131	-0.1247029982	-2.5188603118	 0.044269
C	-4.4766164517	 0.21293532	-3.5548291328	 0.090257
C	-5.0565392016	 0.6324623503	-4.8050006991	 0.021946
O	-6.2078615548	 0.4420431571	-5.1218157864	-0.226182
H	-0.5896961357	 1.6348076227	-0.8573811674	 0.29137
H	 0.5711639148	-0.4269682163	-0.8376664707	 0.099131
H	 0.5310665201	-0.2226999605	 0.9256187288	 0.11367
H	-1.3550582942	-1.662001825	 0.1260902331	 0.094531
H	-1.953799997	-0.1550850866	 0.8778526299	 0.102187
H	-3.4991282202	-1.6423962959	-1.1521437772	 0.135595
H	-3.940065617	-0.092246424	-0.4251287461	 0.136923
H	-4.347468377	 1.1586785926	-5.4755376236	 0.105374
39.3736	50.2301	64.7195	93.2621	148.1643	181.9998	195.2673	265.5225	331.3122	396.6139	417.5587	468.0762	558.8665	619.2586	837.7363	875.7512	912.0727	1010.0687	1021.0266	1047.9235	1083.9406	1136.216	1137.0488	1164.3829	1236.9967	1248.8636	1267.4622	1372.3095	1389.1508	1420.5123	1428.5668	1442.4574	1482.4243	1497.8805	1512.3994	1769.5309	2334.1477	2924.1636	2956.5862	2972.3369	2976.8954	2983.5773	3015.976	3083.0395	3799.4128
OCCOCC#CC=O	OCCOCC#CC=O	
InChI=1S/C6H8O3/c7-3-1-2-5-9-6-4-8/h3,8H,4-6H2	InChI=1S/C6H8O3/c7-3-1-2-5-9-6-4-8/h3,8H,4-6H2
