14
gdb 133057	5.03169	0.98895	0.83746	5.022	65.94	-0.2622	-0.0491	0.2132	1256.9758	0.101656	-478.019753	-478.012121	-478.011177	-478.053023	27.321	
O	 0.099699335	 1.1590742062	 0.776361543	-0.411264
C	-0.0306217526	 0.1184670121	-0.176195142	-0.180618
C	-1.4249552117	-0.4455158316	-0.0892891914	 0.210502
C	-2.1846245818	-0.3843976908	 1.0786929389	-0.031846
N	-3.4091103477	-0.9091572611	 1.1721721151	-0.307397
C	-3.8527552439	-1.4949858239	 0.0751754124	 0.352729
F	-5.0577165116	-2.0265920345	 0.1596073555	-0.056271
N	-3.2577274488	-1.6176053274	-1.0980480117	-0.306841
C	-2.0383851767	-1.0800542263	-1.1660284693	-0.048572
H	 1.0265385822	 1.4097925038	 0.8259610065	 0.297091
H	 0.1537345575	 0.4796003889	-1.2005643638	 0.106389
H	 0.7014612414	-0.6834105748	 0.0146952544	 0.113302
H	-1.795616249	 0.1137427437	 1.9605063106	 0.143148
H	-1.5343125125	-1.1598793844	-2.1278804683	 0.119647
35.8045	118.9118	202.0764	244.0122	332.2292	397.9315	428.2361	489.3871	535.0979	587.4849	664.4643	770.0759	824.7002	900.5013	955.6112	1013.8528	1048.4695	1055.4795	1087.4817	1210.9175	1247.732	1257.2699	1280.3472	1306.4983	1369.6387	1413.9922	1462.3945	1493.3415	1514.6303	1605.5385	1640.8779	2962.2759	2987.0571	3143.8093	3195.6703	3838.1227
OCC1=CN=C(F)N=C1	OCc1cnc(F)nc1	
InChI=1S/C5H5FN2O/c6-5-7-1-4(3-9)2-8-5/h1-2,9H,3H2	InChI=1S/C5H5FN2O/c6-5-7-1-4(3-9)2-8-5/h1-2,9H,3H2
