19
gdb 83839	2.04866	1.80995	1.26796	3.2138	75.18	-0.2296	-0.0211	0.2085	1066.2362	0.16011	-423.030901	-423.022733	-423.021789	-423.06368	31.363	
C	-0.2243599245	 1.4721565293	 0.2567914249	-0.420952
C	 0.0155445231	-0.0024198408	 0.0203464891	-0.013414
C	 0.5445438304	-0.5955785725	-1.2587257284	-0.087553
C	 1.0650706066	 0.2768982597	-2.3971396418	-0.107468
O	 2.4809528326	 0.3830435286	-2.4076706862	-0.233606
C	 2.9858213697	 0.9750050915	-1.2300122471	-0.19336
C	 2.6446113327	 0.1838705826	 0.0388436453	 0.367271
O	 3.3813006063	 0.2057481271	 0.9994099014	-0.317513
C	 1.4029123014	-0.6438297637	-0.003520684	-0.150601
H	 0.5049545924	 2.1138072451	-0.242078162	 0.122422
H	-1.2174925138	 1.7615590416	-0.104199926	 0.124297
H	-0.1786599074	 1.6983607483	 1.3267976676	 0.135063
H	-0.7134646903	-0.6309230451	 0.525609017	 0.10079
H	 0.1072099236	-1.5388122458	-1.5695052782	 0.098238
H	 0.7982205218	-0.1724021463	-3.3565004326	 0.118229
H	 0.6172596208	 1.2828064316	-2.3691579663	 0.096155
H	 4.0741470584	 1.0108502327	-1.3179284072	 0.138937
H	 2.6265764672	 2.0141378832	-1.1161679194	 0.11058
H	 1.5013770789	-1.5774238869	 0.5397993639	 0.112487
81.0155	140.7944	178.1213	212.6817	318.2388	360.2934	417.8577	453.6816	472.6413	512.3796	603.8683	710.3849	738.4961	758.8933	840.883	904.4071	943.2558	952.5527	985.6375	1010.0412	1049.326	1084.491	1099.3249	1126.5341	1145.5483	1174.265	1217.6252	1241.9295	1264.2799	1318.6777	1344.4335	1360.5727	1373.9857	1407.4699	1422.5549	1431.6844	1463.3485	1489.5675	1500.4163	1507.7039	1802.7367	2942.9429	2980.7417	3039.7846	3096.3051	3098.3246	3109.0826	3120.9023	3140.7682	3155.8766	3173.0402
CC1C2COCC(=O)C12	C[C@H]1[C@H]2COCC(=O)[C@@H]12	
InChI=1S/C7H10O2/c1-4-5-2-9-3-6(8)7(4)5/h4-5,7H,2-3H2,1H3	InChI=1S/C7H10O2/c1-4-5-2-9-3-6(8)7(4)5/h4-5,7H,2-3H2,1H3/t4-,5+,7-/m0/s1
