22
gdb 71394	3.15872	1.36569	1.2887	1.6341	85.55	-0.2349	0.0841	0.319	1135.7834	0.193657	-367.172361	-367.163542	-367.162597	-367.204925	35.175	
C	-0.0645196474	 1.4700852994	 0.0986374332	-0.49542
C	 0.0414313159	-0.0134021401	-0.0782395229	 0.324042
C	-0.6329697313	-0.8669421094	-1.1429941057	-0.306162
C	-0.3987560813	-2.0177185813	-0.1526359107	-0.04354
N	-0.33846205	-0.9792467861	 1.0171619995	-0.200376
C	 1.098855746	-0.8435345306	 0.5868102293	-0.121151
C	 1.1362993936	-2.2405028356	-0.0270617532	 0.329428
C	 1.4344764946	-3.301272175	 1.0387962147	-0.441693
C	 1.9747373539	-2.4807917026	-1.2808517398	-0.466342
H	 0.5204696739	 1.9991077543	-0.6624355785	 0.119983
H	-1.1055610878	 1.8006290288	 0.0178093892	 0.123447
H	 0.3085504337	 1.7705712077	 1.0826308054	 0.128412
H	-1.6963192362	-0.6153028435	-1.2040327854	 0.10525
H	-0.216057542	-0.9291376976	-2.1526668765	 0.093033
H	-1.0866502428	-2.8598359146	-0.0815659347	 0.073115
H	 1.8350835842	-0.3952348671	 1.2480897343	 0.080384
H	 0.8236567567	-3.1449196504	 1.931904625	 0.135504
H	 1.2284719246	-4.3055304578	 0.6512286974	 0.108854
H	 2.4886331643	-3.2719676368	 1.3367973314	 0.1089
H	 3.0410048643	-2.5029409426	-1.0279956594	 0.11491
H	 1.7282979541	-3.4464723575	-1.7376692533	 0.113861
H	 1.833613659	-1.7029220915	-2.0352045194	 0.115562
154.3026	182.1632	184.3956	226.4093	258.5884	272.9685	325.9866	350.8458	391.8386	460.5824	529.9323	587.2008	651.501	758.3369	795.3787	798.3665	866.5806	892.2023	933.1663	950.9569	975.0651	990.3655	1001.4311	1004.4215	1021.1799	1061.858	1068.5266	1137.8294	1167.9595	1195.0725	1217.6685	1219.2478	1255.0003	1260.0619	1309.4345	1332.4693	1398.5426	1400.362	1417.7099	1431.563	1482.7811	1484.1245	1486.8291	1493.018	1501.4155	1504.7791	1517.3049	3025.3195	3028.3663	3029.9093	3045.094	3084.7832	3089.6804	3091.5575	3093.3043	3106.3707	3113.2937	3117.0438	3120.2444	3153.1098
CC12CC3N1C2C3(C)C	C[C@]12C[C@@H]3N1[C@H]2C3(C)C	
InChI=1S/C8H13N/c1-7(2)5-4-8(3)6(7)9(5)8/h5-6H,4H2,1-3H3	InChI=1S/C8H13N/c1-7(2)5-4-8(3)6(7)9(5)8/h5-6H,4H2,1-3H3/t5-,6-,8+,9?/m0/s1
