18
gdb 99507	2.19607	1.29565	0.86628	3.2586	76.47	-0.253	0.0093	0.2623	1346.0005	0.143717	-439.024137	-439.013664	-439.01272	-439.060616	36.268	
C	-0.0632814756	 1.3691189126	-0.079425881	-0.237927
O	-0.1637757542	-0.0416619324	-0.1259382984	-0.241573
C	 0.5508383338	-0.6561727333	-1.1960263253	-0.201713
C	 1.2377951327	-1.8441533642	-0.6994237695	 0.380353
C	 1.8474729392	-2.7827517143	-0.2669701066	-0.419485
C	-0.4193093232	-0.9586880139	-2.3394741377	 0.447111
N	-0.7585784812	-2.1329873776	-2.6565430782	-0.522938
O	-0.8208656902	 0.2245688769	-2.8804490218	-0.233912
C	-1.8046173922	 0.1772237129	-3.9043296519	-0.268026
H	 0.9846881426	 1.6959925705	-0.0031602954	 0.10897
H	-0.5199557111	 1.8438305064	-0.9560701584	 0.119271
H	-0.5958232328	 1.6874084543	 0.8200678887	 0.129936
H	 1.3005053875	 0.0482902935	-1.5885384489	 0.109644
H	 2.3675262338	-3.6291991089	 0.1080144947	 0.195542
H	-1.428817192	-2.1621541144	-3.4236898687	 0.219926
H	-1.9997304407	 1.2124845111	-4.1855858533	 0.143645
H	-1.4415123303	-0.3738396708	-4.7802505001	 0.133599
H	-2.7313700961	-0.2845235783	-3.5440714481	 0.137577
33.4277	72.2023	111.3406	141.1358	170.2253	202.2662	219.4803	266.0255	314.7497	374.2581	385.5427	439.5549	529.3992	629.3943	640.1773	671.9319	730.4082	865.8789	916.8112	948.0336	985.9651	1060.4156	1118.9873	1136.6812	1176.4879	1178.8022	1210.6943	1218.0674	1261.2594	1358.243	1367.1995	1471.7529	1476.6635	1485.3973	1491.8676	1506.2938	1513.2015	1744.9651	2252.5264	2984.6901	2991.7899	3018.211	3060.4066	3083.195	3119.1952	3146.207	3497.8725	3505.393
COC(C#C)C(=N)OC	CO[C@@H](C#C)[C]([NH])OC	
InChI=1S/C6H9NO2/c1-4-5(8-2)6(7)9-3/h1,5,7H,2-3H3	InChI=1S/C6H9NO2/c1-4-5(8-2)6(7)9-3/h1,5,7H,2-3H3/t5-/m0/s1
