20
gdb 40861	3.87644	1.42772	1.31838	1.7905	81.48	-0.2332	0.0801	0.3133	1036.8814	0.172927	-365.930113	-365.923038	-365.922094	-365.96149	29.218	
C	-0.0602482764	 1.4835794383	-0.0944182723	-0.210582
C	 1.4891258909	 1.4825807161	 0.0315176762	-0.296474
C	 1.4005447275	 0.0593752333	 0.6462734663	 0.423107
C	-0.0512644622	-0.0551886973	 0.1162743315	-0.307757
C	 2.5597484522	-0.9027993482	 0.4318174029	-0.140043
C	 3.1771268504	-0.5297230037	 1.7278191588	-0.043536
C	 1.7364448705	-0.0538324483	 2.1610027629	-0.166002
C	 1.4796823505	-1.5393450855	 2.4527158099	-0.157408
N	 2.630087693	-1.9036466584	 1.5566707584	-0.157266
H	-0.5400042329	 2.0100592148	 0.7350097937	 0.102543
H	-0.4816697859	 1.8586236089	-1.0294376912	 0.098304
H	 1.9775734707	 1.4723662989	-0.9482838645	 0.099227
H	 1.9544220656	 2.2632440698	 0.6398737188	 0.09762
H	-0.7983644661	-0.4777827244	 0.7943690858	 0.096374
H	-0.098377206	-0.6050634048	-0.8290372529	 0.102805
H	 3.0319406987	-1.1954037255	-0.4980420619	 0.089086
H	 4.1894874245	-0.3033864311	 2.0342436099	 0.096152
H	 1.4687550897	 0.7456070084	 2.8509509534	 0.069982
H	 1.7347513724	-1.8360834713	 3.4734176392	 0.106034
H	 0.5103304627	-1.9680117201	 2.1718008751	 0.097831
102.8298	178.5246	221.1787	322.2514	423.5027	467.211	548.7178	685.3851	751.832	765.9432	781.3426	810.5278	831.785	846.225	886.5417	924.6185	937.1411	940.8679	956.0202	975.7576	993.0624	1022.9175	1042.5027	1052.2053	1107.9057	1122.7732	1157.824	1169.1313	1185.0514	1190.0218	1204.3573	1217.5396	1252.5579	1260.8895	1264.9378	1275.4607	1292.8365	1312.7528	1349.2074	1471.8778	1482.5848	1504.557	1507.7273	3032.7305	3043.4925	3047.9264	3062.5103	3089.9563	3094.813	3099.2683	3118.092	3121.7955	3188.4622	3208.1733
C1CC2(C1)C1C3C2CN13	C1CC2(C1)[C@H]1[C@H]3[C@@H]2CN13	
InChI=1S/C8H11N/c1-2-8(3-1)5-4-9-6(5)7(8)9/h5-7H,1-4H2	InChI=1S/C8H11N/c1-2-8(3-1)5-4-9-6(5)7(8)9/h5-7H,1-4H2/t5-,6+,7+,9?/m0/s1
