17
gdb 38321	3.59001	1.68655	1.49162	0.5993	65.76	-0.2481	0.0743	0.3224	900.0906	0.139118	-458.932947	-458.926678	-458.925734	-458.963561	25.528	
C	-0.0755194333	 1.6118978054	 0.0736245024	-0.234628
C	 1.4462403882	 1.3839125547	 0.0141759697	 0.041008
O	 1.2557850976	 0.1344959595	 0.7632383549	-0.304699
C	-0.0113292303	 0.0742062022	 0.0221602905	 0.041008
C	 0.5312461535	-0.2398615425	-1.3888234973	 0.088372
O	-0.3145642938	 0.1623083461	-2.4554967244	-0.267079
C	 0.4813497555	 0.9716212397	-3.2952802855	 0.019104
O	 1.3759294297	 1.68131118	-2.4647569324	-0.267079
C	 1.6921542749	 0.8032784312	-1.3951828831	 0.088372
H	-0.3866258958	 1.9641215407	 1.0568679427	 0.115136
H	-0.5673715023	 2.1543630174	-0.7327984044	 0.119229
H	 2.182617964	 2.0615383162	 0.4433819014	 0.087135
H	-0.760939513	-0.5834100556	 0.4595063778	 0.087135
H	 0.845957258	-1.2822410099	-1.4952089628	 0.086795
H	 1.0382581483	 0.3474398092	-4.0169286609	 0.090595
H	-0.1597452737	 1.6818667493	-3.8246341423	 0.1228
H	 2.6944062826	 0.3786925465	-1.5053354263	 0.086795
161.1338	186.6816	314.8871	388.1153	507.3696	529.4384	606.5096	732.0934	786.3254	835.6572	848.1792	873.0729	891.8035	921.0812	970.9077	985.3735	1010.8844	1025.3275	1032.931	1059.5567	1073.0637	1101.7768	1111.9731	1184.3908	1186.0116	1224.9847	1225.7263	1232.7848	1279.3921	1283.2797	1292.8193	1335.6644	1352.5174	1358.7564	1427.9227	1479.6379	1539.3675	2943.8202	3059.212	3071.6586	3092.7986	3097.3129	3136.1391	3140.064	3167.1261
C1C2OC1C1OCOC21	C1[C@H]2O[C@@H]1[C@H]1OCO[C@@H]21	
InChI=1S/C6H8O3/c1-3-5-6(4(1)9-3)8-2-7-5/h3-6H,1-2H2	InChI=1S/C6H8O3/c1-3-5-6(4(1)9-3)8-2-7-5/h3-6H,1-2H2/t3-,4+,5+,6-
