16
gdb 77635	2.15691	1.46325	1.31093	5.4316	71.76	-0.2457	-0.0064	0.2393	1071.4203	0.12235	-437.847624	-437.838767	-437.837823	-437.88111	32.133	
C	-0.0193297767	 1.537528638	-0.0095160153	-0.424324
C	 0.0605748306	 0.030758275	-0.1097257798	-0.164631
C	 0.6864632137	-0.7484405488	-1.232578108	 0.268121
O	 0.0816929372	-1.7328645407	-1.96698312	-0.436597
C	 1.9918111512	-0.1126513067	-1.6886524031	-0.142208
O	 2.4800011406	-0.0289393953	-0.3194439799	-0.311519
C	 1.3451798388	-0.7443816327	 0.1668224765	 0.25865
C	 1.505157766	-1.7267736077	 1.1823984	 0.225091
N	 1.6062158516	-2.5379836448	 2.0025473459	-0.3516
H	 0.9465248648	 1.9929632659	-0.2383195061	 0.147251
H	-0.7686242875	 1.9401813908	-0.6987633255	 0.123876
H	-0.2969123249	 1.8372714333	 1.0052723698	 0.136851
H	-0.7961906529	-0.5097500006	 0.2940911393	 0.113226
H	-0.8738726321	-1.6334686038	-1.911655091	 0.302419
H	 2.6059283033	-0.8051638938	-2.2725698369	 0.137419
H	 1.9457362162	 0.8654789921	-2.177885126	 0.117974
100.553	146.0948	146.78	172.6935	221.5345	239.3535	299.8633	376.9311	431.2073	502.0003	549.2965	590.4021	650.4187	716.6954	765.5608	783.9319	955.025	980.2927	993.5697	1043.2646	1090.0452	1111.2914	1122.3075	1146.5547	1182.0714	1261.9896	1287.9342	1331.4133	1392.7411	1409.7888	1474.489	1489.9016	1503.3103	1518.3194	2340.0712	3043.0884	3046.3162	3103.211	3107.5034	3115.2916	3135.1769	3827.2992
CC1C2(O)COC12C#N	C[C@H]1[C@@]2(O)CO[C@@]12C#N	
InChI=1S/C6H7NO2/c1-4-5(8)3-9-6(4,5)2-7/h4,8H,3H2,1H3	InChI=1S/C6H7NO2/c1-4-5(8)3-9-6(4,5)2-7/h4,8H,3H2,1H3/t4-,5-,6-/m0/s1
