18
gdb 105720	2.39063	1.44911	1.19625	3.828	78.28	-0.2693	-0.0158	0.2535	1122.1142	0.147302	-401.96126	-401.952418	-401.951473	-401.995042	32.346	
C	-0.2681551102	 1.2383451998	-0.0191669632	-0.261653
O	-0.0246434417	-0.1521892038	-0.156322258	-0.268887
C	 0.8436008955	-0.5316799491	-1.2201211541	 0.227804
C	 0.8557220473	-2.0839511791	-1.264372906	-0.261796
C	-0.1250296053	-2.4729046371	-2.394540961	-0.269408
C	-0.235296232	-1.2070961864	-3.2038920656	-0.064759
C	 0.3109777714	-0.1565552583	-2.5962160741	-0.109037
C	 2.1936461012	 0.0301158471	-0.9780199171	 0.24373
N	 3.2408386873	 0.4819513778	-0.7893291404	-0.351972
H	 0.6645930269	 1.8026942292	 0.114022202	 0.132553
H	-0.814669302	 1.6470561415	-0.8792213019	 0.113728
H	-0.8830257806	 1.3537575101	 0.8755682111	 0.136442
H	 1.8624032141	-2.4332689467	-1.5034656745	 0.130222
H	 0.5823916911	-2.4737397344	-0.2829470055	 0.131351
H	 0.2441219446	-3.3166723244	-2.9868646238	 0.117299
H	-1.1074758189	-2.7710123779	-2.0071322177	 0.126651
H	-0.7304452492	-1.172130818	-4.1683945223	 0.111156
H	 0.3524287105	 0.8557793096	-2.9767068677	 0.116577
73.4489	105.1455	156.8786	166.1347	212.0577	272.5847	301.5579	412.85	493.5107	504.576	561.2777	621.5632	710.8722	773.0155	796.4598	843.7642	925.6205	937.783	981.7031	986.7424	1058.1621	1089.3724	1108.142	1119.3851	1173.962	1181.9879	1194.5981	1230.34	1249.9277	1314.5762	1321.6745	1379.4694	1470.4446	1478.0359	1489.2297	1491.1655	1508.3192	1681.8924	2347.5478	3002.6223	3032.5465	3060.9962	3068.8969	3085.0122	3127.9202	3138.2281	3190.7915	3225.3493
COC1(CCC=C1)C#N	CO[C@]1(CCC=C1)C#N	
InChI=1S/C7H9NO/c1-9-7(6-8)4-2-3-5-7/h2,4H,3,5H2,1H3	InChI=1S/C7H9NO/c1-9-7(6-8)4-2-3-5-7/h2,4H,3,5H2,1H3/t7-/m1/s1
