24
gdb 117080	2.76044	0.94797	0.89336	3.2456	86.84	-0.2357	0.0379	0.2736	1517.8242	0.214946	-405.600364	-405.588903	-405.587959	-405.63801	41.802	
C	 0.4574272112	 0.6199400586	 0.8500064811	-0.370283
C	-0.1456292012	 0.5961637004	-0.5571836651	-0.144301
N	 0.6693035858	-0.1336242	-1.5181640592	-0.32962
C	 0.4845322168	-1.4625020398	-1.7584256677	 0.418666
O	-0.4061310754	-2.0982023003	-1.2146454937	-0.407416
C	 1.432455205	-2.1476281408	-2.7713273918	 0.160498
C	 2.0778095684	-3.3431628655	-2.0411086096	-0.395425
C	 0.5461816875	-2.6665884708	-3.9231229417	-0.39633
C	 2.5300824725	-1.2310110739	-3.3355542969	-0.447084
H	 0.5594044409	-0.3984959382	 1.2342800987	 0.140274
H	 1.4463317908	 1.0908557676	 0.8521348801	 0.10787
H	-0.1867019454	 1.183046659	 1.5331308264	 0.116581
H	-1.1207128649	 0.1047714478	-0.5371200002	 0.144441
H	-0.2864541571	 1.6161020195	-0.9317332113	 0.100422
H	 1.4536835429	 0.3378410867	-1.9331292564	 0.243251
H	 1.304842928	-3.9750567874	-1.599642532	 0.141671
H	 2.6707332739	-3.9417593638	-2.7405938094	 0.104811
H	 2.7421981392	-3.0062914616	-1.2376665189	 0.107905
H	 0.0945716304	-1.8389441186	-4.4809704504	 0.109761
H	 1.1423543739	-3.2607063044	-4.6238129083	 0.105589
H	-0.2585917072	-3.2890529746	-3.5267944788	 0.140927
H	 3.1952997995	-0.853901226	-2.5500995826	 0.112965
H	 3.1540108485	-1.7897758124	-4.040599607	 0.12049
H	 2.1131973059	-0.3787850815	-3.8841475153	 0.114338
24.889	34.8808	85.0519	195.4327	217.8156	249.0222	258.0817	276.5545	301.6783	308.508	332.7951	365.5837	370.7951	431.6733	474.3807	500.9231	575.0012	748.9105	775.8047	815.8659	896.3917	908.2995	938.4696	944.9687	963.9559	1038.0829	1046.7661	1071.9104	1114.5222	1171.2562	1219.0292	1228.0081	1252.8124	1288.3958	1332.9628	1389.156	1392.9323	1393.9665	1408.2369	1426.1201	1472.8579	1476.6683	1491.5002	1492.5141	1493.5416	1499.4601	1502.5105	1508.3568	1525.5482	1543.3211	1750.8547	3020.5711	3030.2291	3035.0429	3035.6888	3045.0605	3087.0436	3092.8292	3094.3056	3098.2919	3098.7618	3117.1985	3128.7679	3132.355	3136.5171	3670.8208
CCNC(=O)C(C)(C)C	CCNC(=O)C(C)(C)C	
InChI=1S/C7H15NO/c1-5-8-6(9)7(2,3)4/h5H2,1-4H3,(H,8,9)	InChI=1S/C7H15NO/c1-5-8-6(9)7(2,3)4/h5H2,1-4H3,(H,8,9)
