21
gdb 67374	2.44268	1.68462	1.61303	0.3457	86.49	-0.2289	0.0262	0.2552	1011.7928	0.184964	-349.946253	-349.938622	-349.937678	-349.97781	31.43	
C	 0.0196759997	 1.5439132427	 0.0367874484	-0.511061
C	 0.0308428216	 0.0444219379	-0.0109081988	 0.356527
C	 0.4880896859	-0.9356358522	-1.0921951516	-0.123957
C	 1.2649008834	-1.759636328	-0.0676189443	-0.235742
C	 0.6636198532	-0.8620478528	 1.0801612411	-0.126101
C	-0.342604916	-1.5444075362	 1.9642466668	-0.066406
C	-1.4825948605	-2.0070651469	 1.4519101677	-0.057162
C	-1.8342390019	-1.8439608745	-0.0060464522	-0.292691
C	-0.9798451473	-0.8018796113	-0.7286227388	-0.079292
H	 1.0237526191	 1.950039623	 0.2088298397	 0.112716
H	-0.3542193658	 1.9661129383	-0.9022277158	 0.115143
H	-0.6272560986	 1.9098811883	 0.8438413363	 0.12025
H	 0.8216625535	-0.7220544253	-2.1021406543	 0.074788
H	 1.0474798023	-2.8307855169	-0.0070945405	 0.093093
H	 2.3455457699	-1.624060616	-0.1636891082	 0.097919
H	 1.4394218489	-0.3567553374	 1.6582942555	 0.065121
H	-0.1118926464	-1.6813029687	 3.0171172248	 0.080664
H	-2.2066340458	-2.5209724356	 2.0789689833	 0.082699
H	-1.7699478709	-2.8159497393	-0.5176111863	 0.111169
H	-2.8903942573	-1.5528848091	-0.0844283053	 0.10346
H	-1.5245059471	-0.2523161001	-1.4932313075	 0.078864
146.0593	190.4135	207.449	272.6357	308.7106	427.2834	467.5714	501.3861	553.7056	630.6846	705.4814	724.1192	756.2797	823.5666	861.5785	893.4098	905.6142	926.83	957.7901	977.9634	992.2217	1009.5735	1040.6585	1051.1806	1074.6725	1113.8176	1121.0765	1148.899	1186.823	1199.8403	1226.9958	1237.5921	1247.485	1286.3993	1321.7441	1339.61	1359.5141	1405.9199	1412.1569	1468.4811	1472.8702	1485.2101	1496.1714	1503.8148	1710.9763	2994.9451	3014.7075	3024.2386	3044.0713	3071.8726	3082.1768	3089.0051	3099.6433	3131.3005	3148.5301	3164.5297	3172.7257
CC12C3CC1C=CCC23	C[C@@]12[C@H]3C[C@@H]1C=CC[C@@H]23	
InChI=1S/C9H12/c1-9-6-3-2-4-7(9)8(9)5-6/h2-3,6-8H,4-5H2,1H3	InChI=1S/C9H12/c1-9-6-3-2-4-7(9)8(9)5-6/h2-3,6-8H,4-5H2,1H3/t6-,7+,8-,9+/m0/s1
