17
gdb 124871	3.63942	1.30498	1.18716	2.9781	73.59	-0.28	-0.0224	0.2576	1084.6012	0.137126	-414.164235	-414.156379	-414.155435	-414.197749	29.058	
C	-0.1622415265	 1.4783653722	 0.1932129216	-0.449755
C	 0.0200256343	-0.0130633748	 0.0154747012	 0.3638
C	 1.3546143904	-0.5877900931	-0.3900315882	-0.286558
C	 0.8117451605	-0.8262343811	 0.9986084315	-0.299753
N	-1.1458912152	-0.6637542649	-0.5442285524	 0.085437
N	-1.5846779022	-0.4070423353	-1.7735672258	-0.246795
C	-2.6678564652	-1.1697035585	-1.8289345296	 0.071413
N	-2.8815141559	-1.8607396646	-0.686923003	-0.209279
N	-1.909208597	-1.5239811872	 0.1239168205	-0.123248
H	 0.7531864067	 1.9196962021	 0.5955587041	 0.125589
H	-0.3856561946	 1.9569023045	-0.7642132487	 0.147832
H	-0.980521548	 1.6910281621	 0.8885623958	 0.136159
H	 1.3514570364	-1.4202870504	-1.083440825	 0.134802
H	 2.1719850478	 0.1116856838	-0.5237087078	 0.125724
H	 1.2513089319	-0.2872334902	 1.8299845955	 0.126883
H	 0.4465738408	-1.8155806514	 1.2409909188	 0.151504
H	-3.3049255842	-1.2310376931	-2.6963604985	 0.146242
23.2134	134.3011	206.4275	229.4945	302.4963	316.5665	410.4922	511.799	547.2153	721.6643	730.7965	775.9606	835.4282	886.7108	902.9184	947.4068	958.7338	1025.3241	1039.0456	1047.681	1074.482	1087.353	1133.0846	1160.7938	1186.8363	1200.6392	1234.8274	1267.8488	1321.7758	1346.645	1409.7285	1416.8367	1465.7747	1483.5614	1489.0819	1498.8809	1510.6902	3043.1007	3114.6907	3126.6225	3145.452	3153.0834	3232.012	3248.7542	3284.9201
CC1(CC1)N1N=CN=N1	CC1(CC1)n1ncnn1	
InChI=1S/C5H8N4/c1-5(2-3-5)9-7-4-6-8-9/h4H,2-3H2,1H3	InChI=1S/C5H8N4/c1-5(2-3-5)9-7-4-6-8-9/h4H,2-3H2,1H3
