21
gdb 86730	3.59277	1.03687	0.92283	2.2879	85.04	-0.2275	-0.0135	0.214	1366.2894	0.181439	-387.131031	-387.121455	-387.120511	-387.166483	35.047	
C	 0.048367292	 1.6593429231	 0.1061099718	-0.398974
C	 0.0028584437	 0.127053586	 0.0897060726	-0.004609
C	 0.6812079995	-0.5067866528	-1.1566409007	-0.23859
C	 1.4160893406	-1.7729565391	-0.6577087026	-0.147249
C	 1.5233721903	-1.5312792694	 0.8413130191	-0.102077
C	 0.7453414513	-0.5255042411	 1.2346380156	-0.049213
C	 0.6310044959	-3.070299408	-0.9131626701	 0.385752
C	 1.38710436	-4.3673695546	-0.6858355438	-0.479408
O	-0.5247125533	-3.059443628	-1.2679817343	-0.298668
H	 1.0827540779	 2.0203602589	 0.0843979786	 0.11328
H	-0.4722403131	 2.0749671225	-0.7630617439	 0.116244
H	-0.4300095922	 2.0636494068	 1.0046996895	 0.111055
H	-1.0515881939	-0.180895539	 0.1324759514	 0.09473
H	-0.037175292	-0.7457019186	-1.9421557292	 0.118531
H	 1.4154867199	 0.1958495492	-1.564327416	 0.092225
H	 2.4089211649	-1.8937801342	-1.1114860588	 0.080246
H	 2.1321885953	-2.1501301586	 1.4910823761	 0.094429
H	 0.6295777856	-0.1964628312	 2.26260079	 0.092746
H	 2.1943986842	-4.4568178083	-1.4224608603	 0.13997
H	 1.8578086283	-4.3797267771	 0.3027511817	 0.138142
H	 0.710278135	-5.2166817765	-0.7855125366	 0.14144
39.2906	53.2092	110.5027	150.0565	236.791	239.2915	293.8712	341.0148	389.4218	494.5562	551.4335	577.9798	674.0396	743.4656	779.0015	785.2445	846.0917	907.1975	921.1019	949.1956	963.9659	975.6094	1017.9459	1051.5536	1074.101	1106.5424	1132.7369	1144.5783	1182.0904	1214.1116	1261.0104	1300.591	1308.7837	1330.7414	1348.4043	1380.0215	1381.3766	1408.3897	1462.2907	1476.2876	1476.5188	1496.1083	1499.929	1681.2403	1810.5653	3001.5203	3011.6286	3025.9251	3037.0695	3053.5552	3095.5275	3098.0076	3098.254	3124.6145	3151.692	3174.6877	3201.7725
CC1CC(C=C1)C(C)=O	C[C@H]1C[C@@H](C=C1)C(=O)C	
InChI=1S/C8H12O/c1-6-3-4-8(5-6)7(2)9/h3-4,6,8H,5H2,1-2H3	InChI=1S/C8H12O/c1-6-3-4-8(5-6)7(2)9/h3-4,6,8H,5H2,1-2H3/t6-,8-/m1/s1
