21
gdb 112129	2.56931	1.3776	1.1361	0.8444	86.16	-0.2356	-0.0012	0.2343	1195.2429	0.183402	-387.080623	-387.071787	-387.070843	-387.114149	33.676	
C	 0.0788233899	 1.4766066405	-0.0192308582	-0.233459
O	-0.2100866467	 0.1023681437	-0.1521540488	-0.24242
C	 0.5882798166	-0.5599852425	-1.1459009717	 0.039734
C	 2.0573455304	-0.6352097451	-0.7610719947	-0.078196
C	 2.5129005868	-1.3404893594	 0.2723201418	-0.053547
C	 1.6236416136	-2.1968628767	 1.1387692411	-0.260622
C	 1.042011796	-3.3914928424	 0.3649302084	-0.24294
C	 0.135557598	-3.0603097798	-0.7911312307	-0.01744
C	-0.0651469508	-1.8984638049	-1.414578277	-0.086987
H	 1.1034798131	 1.6540361895	 0.3370006101	 0.108014
H	-0.0542379191	 2.0129096238	-0.9730014005	 0.09781
H	-0.6243003591	 1.8828583399	 0.7123325801	 0.123595
H	 0.5177175689	 0.0292530163	-2.074427303	 0.059805
H	 2.7512217964	-0.061271641	-1.3698948038	 0.086701
H	 3.5782714291	-1.3325556331	 0.4920406798	 0.088579
H	 2.180708009	-2.5706689286	 2.003306046	 0.089948
H	 0.7940066302	-1.5910198094	 1.5186939143	 0.133597
H	 1.8588733113	-4.0323406727	-0.0021158251	 0.108996
H	 0.4759810425	-4.0221252752	 1.0639155563	 0.105801
H	-0.4341911145	-3.9144512783	-1.1566036224	 0.085365
H	-0.8037191316	-1.8795412446	-2.2122925019	 0.087664
71.1003	114.1504	174.7909	221.1617	233.1246	280.0785	332.5379	380.1404	426.2631	497.2493	595.7237	640.1888	711.7804	744.0829	782.5224	835.0899	898.8811	910.0293	950.4237	978.8459	993.2884	1008.7024	1051.2959	1064.7394	1091.5431	1119.6147	1179.3202	1196.4324	1213.2027	1237.978	1254.2223	1290.3068	1357.6561	1363.1558	1376.5137	1393.7365	1415.2354	1434.7032	1463.5166	1472.5975	1484.0224	1488.768	1510.8901	1722.1556	1731.0115	2962.6367	2971.6862	2991.0772	3025.6568	3028.2141	3047.9555	3089.0013	3110.458	3121.8705	3140.574	3156.3694	3166.1002
COC1C=CCCC=C1	CO[C@H]1C=CCCC=C1	
InChI=1S/C8H12O/c1-9-8-6-4-2-3-5-7-8/h4-8H,2-3H2,1H3	InChI=1S/C8H12O/c1-9-8-6-4-2-3-5-7-8/h4-8H,2-3H2,1H3
