20
gdb 17493	2.89343	2.37302	1.60988	0.4368	78.25	-0.1994	0.0911	0.2905	886.602	0.176479	-311.808108	-311.800256	-311.799311	-311.839481	31.509	
C	-0.0346176056	 1.5300895277	 0.0850460735	-0.493358
C	 0.0095754377	 0.0296366038	 0.015295272	 0.304552
C	-0.9057744682	-0.8471076482	 0.8315904978	-0.353918
C	 0.5870081616	-0.9679430972	 1.0068621306	-0.099014
C	 1.2979622598	-1.7221153262	-0.1469835208	-0.099064
C	 0.3670114055	-2.196815231	-1.2340759032	-0.353925
C	 0.7317974533	-0.7360861418	-1.1564374688	 0.30458
C	 1.4229135467	-0.0149333768	-2.2791478849	-0.49337
H	 0.9438627015	 1.9803514375	-0.1158597237	 0.116141
H	-0.7452862475	 1.9487013756	-0.6388390508	 0.116689
H	-0.349072813	 1.8588095702	 1.0810115514	 0.115084
H	-1.400443388	-0.3186616572	 1.6424335457	 0.104392
H	-1.5165019717	-1.6380932727	 0.4111448511	 0.107402
H	 1.0687273825	-0.7658987128	 1.9558962481	 0.082043
H	 2.3145547361	-2.0875240992	-0.0660173115	 0.082045
H	 0.8689147654	-2.7251662319	-2.0405234735	 0.104392
H	-0.6264651241	-2.5818666716	-1.0336756492	 0.107401
H	 0.7039502398	 0.4135217796	-2.9889434285	 0.116693
H	 2.0543668241	 0.8033627084	-1.9155716678	 0.11615
H	 2.065989544	-0.7023343861	-2.8384496576	 0.115086
140.8284	196.9583	201.0622	261.2327	302.2752	369.9445	386.0048	460.2165	493.1792	594.0211	603.538	760.5387	784.3194	852.3239	862.8984	885.7458	909.3235	960.7766	963.5191	973.2573	996.3819	1007.0152	1054.718	1059.3298	1097.1857	1104.9025	1112.0347	1129.4772	1185.6221	1257.0701	1267.8914	1295.9393	1354.1928	1388.0813	1417.2041	1419.421	1478.2034	1484.2498	1491.7391	1498.8233	1505.8209	1521.6591	3014.5088	3019.8903	3070.0406	3077.6158	3092.6293	3096.433	3116.997	3129.4704	3174.6481	3186.0377	3194.0547	3204.0466
CC12CC1C1CC21C	C[C@]12C[C@H]1[C@H]1C[C@@]21C	
InChI=1S/C8H12/c1-7-3-5(7)6-4-8(6,7)2/h5-6H,3-4H2,1-2H3	InChI=1S/C8H12/c1-7-3-5(7)6-4-8(6,7)2/h5-6H,3-4H2,1-2H3/t5-,6+,7-,8+
