20
gdb 104254	2.1899	1.30046	1.09494	4.4621	79.37	-0.2458	0.0156	0.2614	1228.4936	0.171232	-399.315163	-399.305485	-399.304541	-399.349538	35.768	
C	-0.1920474943	 1.5883100627	 0.1000644077	-0.404372
C	 0.1762341171	 0.1055935047	-0.0081718969	-0.222435
C	 0.8134801088	-0.4694304608	 1.2653721673	 0.263216
N	 2.0448879383	 0.173412405	 1.7040731631	-0.561102
C	-0.2081594576	-0.713571857	 2.4126856263	-0.196441
N	-0.3502429938	-2.1198658918	 1.9663900106	-0.309287
C	 0.931282675	-2.0409951398	 1.2349265668	-0.144204
C	 0.9705653795	-2.7356310943	-0.051514129	 0.297706
N	 1.0275702895	-3.2700258623	-1.0751178184	-0.338645
H	 0.6902109422	 2.2131000361	 0.2726838351	 0.107995
H	-0.6630499488	 1.9355620918	-0.8236719408	 0.12588
H	-0.8982282918	 1.7718092313	 0.917415775	 0.119482
H	-0.7163168486	-0.482549747	-0.2491410357	 0.125072
H	 0.8738675501	-0.0422025062	-0.8429369369	 0.109084
H	 2.6610294765	 0.3278869892	 0.9085035825	 0.231777
H	 1.8377769432	 1.0946977391	 2.0803082347	 0.234794
H	 0.2675018535	-0.5900977837	 3.3937600042	 0.104018
H	-1.1416287965	-0.1433037521	 2.3838958058	 0.109347
H	-0.3784744472	-2.8187632476	 2.7002534935	 0.231068
H	 1.8131552249	-2.3345250974	 1.8183181053	 0.117046
93.586	114.7429	127.8495	168.4891	203.4324	225.2426	267.5974	343.4669	357.2548	401.039	446.6905	546.8806	581.131	637.4053	702.6758	788.5995	860.4705	876.728	907.1821	943.3661	994.8353	1006.51	1027.5315	1051.2248	1072.589	1097.1908	1144.8622	1161.5263	1217.8296	1252.1718	1280.9439	1321.1118	1350.9441	1367.9202	1372.5121	1393.9429	1412.4431	1481.9149	1501.6514	1506.7152	1512.9104	1653.1308	2352.1994	3018.9747	3025.3783	3026.6719	3036.1732	3069.7793	3079.5159	3102.1077	3111.7317	3472.9502	3536.5526	3553.8875
CCC1(N)CNC1C#N	CC[C@@]1(N)CN[C@H]1C#N	
InChI=1S/C6H11N3/c1-2-6(8)4-9-5(6)3-7/h5,9H,2,4,8H2,1H3	InChI=1S/C6H11N3/c1-2-6(8)4-9-5(6)3-7/h5,9H,2,4,8H2,1H3/t5-,6+/m0/s1
