21
gdb 118455	1.75783	1.47571	1.06986	2.3653	75.7	-0.2357	-0.0133	0.2224	1276.8863	0.178383	-461.355065	-461.344013	-461.343069	-461.391621	38.185	
C	 0.2563806458	 0.6224338405	-0.303198492	-0.242711
O	-0.6686408442	 0.2552830217	 0.7104628223	-0.238542
C	-1.6930728217	-0.6141717059	 0.2860727027	-0.100789
C	-1.2329758243	-2.0666524191	 0.0474057604	-0.010035
O	-0.7124944337	-2.155499326	-1.2534459136	-0.232711
C	-0.5499463181	-3.4738833903	-1.7453107221	-0.244286
C	-0.2234067784	-2.4909448846	 1.1353079652	 0.389812
C	-0.71108712	-2.4262877969	 2.5699360955	-0.486721
O	 0.8952332518	-2.8432012337	 0.8475912948	-0.303613
H	 0.9317741552	 1.3557871098	 0.1436446754	 0.122876
H	 0.8309079412	-0.2368726454	-0.6637391054	 0.142307
H	-0.259465997	 1.083758168	-1.1582552427	 0.105465
H	-2.4449737558	-0.5994626775	 1.0810496983	 0.110237
H	-2.1615758099	-0.2604308303	-0.6442742119	 0.108821
H	-2.1209111716	-2.7202786752	 0.1476094601	 0.078095
H	-0.2529143799	-3.3835248411	-2.7927633121	 0.127499
H	 0.2218509188	-4.0219909819	-1.1965434788	 0.137632
H	-1.4982927019	-4.0322333322	-1.6951030054	 0.097874
H	-1.7365999217	-2.7954077886	 2.6719037206	 0.127059
H	-0.0395811653	-2.9996943698	 3.2104117165	 0.143019
H	-0.7003293592	-1.3780996017	 2.8885232821	 0.168713
64.8327	78.9336	118.3167	128.3567	154.0974	165.7041	194.6188	213.8513	265.3496	287.2523	375.0235	396.949	420.2665	492.9023	598.5871	671.6148	801.0168	861.7552	929.4835	951.067	1015.6627	1042.339	1087.9749	1146.7866	1156.3328	1176.8435	1186.1354	1193.4205	1222.7879	1240.521	1271.8595	1338.6226	1368.5862	1379.236	1403.5159	1464.251	1472.8504	1477.0157	1479.7644	1482.4215	1485.364	1494.6072	1510.8021	1516.5148	1817.7694	2923.1839	2982.039	2995.9456	3003.2634	3041.2413	3079.5312	3080.5321	3084.8364	3108.9247	3124.6181	3125.0984	3150.0521
COCC(OC)C(C)=O	COC[C@@H](OC)C(=O)C	
InChI=1S/C6H12O3/c1-5(7)6(9-3)4-8-2/h6H,4H2,1-3H3	InChI=1S/C6H12O3/c1-5(7)6(9-3)4-8-2/h6H,4H2,1-3H3/t6-/m1/s1
