21
gdb 71836	2.38914	1.74564	1.50957	0.6006	87.31	-0.2124	0.0221	0.2345	1032.1867	0.183182	-349.941766	-349.933609	-349.932664	-349.97372	33.059	
C	-0.0966328652	 1.513604285	 0.017817526	-0.502387
C	-0.0400009684	 0.013716294	-0.0411451185	 0.293743
C	 0.7382526756	-0.795210025	-1.0708935888	-0.276064
C	-0.1924943517	-2.0326030287	-0.7551746713	-0.150875
C	 0.4699342503	-2.8217040108	 0.3503583586	-0.097075
C	 0.4460078415	-2.0915251558	 1.4714512124	-0.081597
C	-0.3295480986	-0.8434875111	 1.2312100958	-0.174699
C	-1.1495894438	-1.0200582379	-0.0251115858	 0.306841
C	-2.6389904814	-0.914842364	-0.1533084337	-0.521697
H	 0.8651728336	 1.9334179437	 0.3365844566	 0.121015
H	-0.3360516264	 1.9449716697	-0.9614632054	 0.114411
H	-0.8562146604	 1.8594490793	 0.7273229769	 0.114352
H	 0.5410190393	-0.4079917404	-2.0750559585	 0.095591
H	 1.8167055051	-0.9377503151	-0.9377749761	 0.084718
H	-0.563727427	-2.5910424107	-1.6144594125	 0.062301
H	 1.0114930058	-3.7463467842	 0.191495242	 0.090153
H	 0.9344526631	-2.3270910799	 2.4091563463	 0.090746
H	-0.7509988886	-0.2777927763	 2.0560911591	 0.072392
H	-3.0203729067	-0.0503500306	 0.400787183	 0.118213
H	-2.9464236392	-0.7994776606	-1.199570262	 0.115962
H	-3.1370441068	-1.8081495906	 0.2422088258	 0.123958
170.9864	191.1476	201.3806	208.1039	285.1881	298.3861	362.0523	463.7291	543.5212	579.4991	611.3746	708.8326	752.8465	762.146	797.1469	834.1034	869.6295	908.0557	928.1676	943.146	963.6248	972.82	1018.1354	1038.4149	1071.2501	1106.2189	1115.3939	1141.4065	1163.0295	1180.0767	1201.9217	1224.3448	1269.8019	1283.596	1329.7906	1357.2749	1408.627	1414.7493	1455.6278	1482.0212	1487.3022	1492.5649	1495.034	1506.3262	1641.0072	3016.2897	3018.4647	3030.8256	3074.7171	3075.9322	3087.2846	3088.1328	3091.368	3109.7826	3163.3427	3193.313	3218.5315
CC12CC3C=CC1C23C	C[C@@]12C[C@H]3C=C[C@@H]1[C@@]23C	
InChI=1S/C9H12/c1-8-5-6-3-4-7(8)9(6,8)2/h3-4,6-7H,5H2,1-2H3	InChI=1S/C9H12/c1-8-5-6-3-4-7(8)9(6,8)2/h3-4,6-7H,5H2,1-2H3/t6-,7+,8-,9+/m1/s1
