18
gdb 27146	2.90352	1.33761	0.97913	1.0396	80.86	-0.1965	0.0329	0.2293	1210.077	0.148322	-401.967742	-401.959257	-401.958313	-402.001441	31.401	
C	-0.2614238628	 1.5874755829	 0.2503477501	-0.509478
C	-0.0639315268	 0.1082553774	 0.0984194443	 0.183761
C	 0.1359734243	-0.5894460796	-1.0786876126	 0.239967
N	 0.3127569176	-1.916197999	-0.763576132	-0.299007
C	 0.2084602895	-2.0881126907	 0.590197974	-0.088113
C	-0.0125209904	-0.852668274	 1.1522082701	-0.228143
C	 0.2084921077	-0.1544529657	-2.4834148088	-0.046286
C	 1.3367308693	-0.4985010135	-3.3718871511	-0.179897
O	 0.0951333045	-1.2027912022	-3.4631724118	-0.249639
H	 0.6520529167	 2.0936737647	 0.5869287622	 0.126115
H	-0.5602502605	 2.0574643752	-0.6919246075	 0.116436
H	-1.0397116081	 1.8082643048	 0.9885795569	 0.125296
H	 0.348696038	-2.6372466982	-1.4646378528	 0.266157
H	 0.2878664545	-3.066725795	 1.0356610696	 0.116437
H	-0.1278437755	-0.6478175362	 2.2063173849	 0.090221
H	-0.3530516347	 0.7475450102	-2.724220113	 0.102678
H	 1.5729284884	 0.1393260468	-4.222898147	 0.118431
H	 2.1703374282	-1.0704641379	-2.9676904954	 0.115065
73.7238	79.294	152.6667	167.6379	252.8378	279.2679	415.2551	484.5604	546.0616	604.9517	649.3399	690.6847	715.5898	727.3903	823.2591	833.9404	896.073	923.7044	984.1745	1002.8869	1059.5534	1073.6466	1094.333	1102.3155	1148.35	1168.5846	1183.796	1255.8203	1272.6387	1316.6305	1389.467	1419.4627	1442.5943	1482.2565	1492.622	1499.4442	1507.7769	1523.0949	1630.6694	3021.3927	3072.7503	3081.3933	3098.7101	3116.7061	3173.8881	3238.1356	3267.8383	3668.5723
CC1=C(NC=C1)C1CO1	Cc1c([nH]cc1)[C@H]1CO1	
InChI=1S/C7H9NO/c1-5-2-3-8-7(5)6-4-9-6/h2-3,6,8H,4H2,1H3	InChI=1S/C7H9NO/c1-5-2-3-8-7(5)6-4-9-6/h2-3,6,8H,4H2,1H3/t6-/m1/s1
