19
gdb 94720	3.3838	1.30487	1.11735	1.4883	71.6	-0.2449	0.0697	0.3146	1137.6259	0.158522	-460.147536	-460.139098	-460.138153	-460.180115	33.029	
C	 0.0525404449	 1.4964438413	 0.032850837	-0.408763
C	 0.0303591329	-0.0151470764	-0.0107108671	 0.21872
O	 0.6662565277	-0.4432323714	-1.1944080495	-0.245905
C	 0.4954856872	-1.8374423649	-1.3979914577	-0.156604
C	 0.8882233767	-2.6325237074	-0.1639678126	 0.319167
O	 0.3295109363	-3.9151687652	-0.0972541259	-0.460868
C	 2.2173952505	-2.387487126	 0.5104050658	-0.36343
C	 0.9331186807	-1.8728851378	 1.130116892	 0.061348
O	 0.709619159	-0.4905760309	 1.1343857612	-0.258838
H	 1.0867166205	 1.8466805931	-0.0090548944	 0.134862
H	-0.4977983124	 1.9027841743	-0.8185404805	 0.124865
H	-0.4045441181	 1.8484083252	 0.9602610918	 0.128603
H	-1.0034327765	-0.4075562383	-0.0057455202	 0.063082
H	-0.5565157482	-2.0721655389	-1.6250570055	 0.103157
H	 1.104107392	-2.1013307259	-2.2696632496	 0.104565
H	 0.8781921836	-4.5057315227	-0.6256081016	 0.286063
H	 2.7012784143	-3.2352400009	 0.9828531241	 0.112289
H	 2.8732882341	-1.6399098151	 0.0779123061	 0.129111
H	 0.5572759246	-2.3746624822	 2.0171243465	 0.108578
103.2326	182.5088	212.0615	260.7853	289.329	304.4656	370.8235	396.1099	401.4582	492.8341	523.7659	570.3501	649.4277	755.456	795.2501	860.0705	911.7146	927.235	938.2157	1010.9152	1033.6681	1061.2553	1072.7916	1093.9075	1110.3311	1135.9764	1174.3429	1192.0244	1230.4865	1281.5066	1306.3427	1341.7203	1366.3662	1388.7205	1404.3622	1414.2412	1431.3605	1475.4079	1483.0882	1488.9284	1503.9578	2931.7449	2984.6695	3059.0031	3066.1359	3134.156	3140.8259	3142.3652	3152.3309	3232.8096	3792.3177
CC1OCC2(O)CC2O1	C[C@H]1OC[C@@]2(O)C[C@H]2O1	
InChI=1S/C6H10O3/c1-4-8-3-6(7)2-5(6)9-4/h4-5,7H,2-3H2,1H3	InChI=1S/C6H10O3/c1-4-8-3-6(7)2-5(6)9-4/h4-5,7H,2-3H2,1H3/t4-,5+,6-/m0/s1
