19
gdb 53193	3.02952	1.11187	1.02224	1.2555	84.55	-0.2282	0.0562	0.2844	1282.6117	0.159465	-385.858059	-385.849153	-385.848208	-385.893128	32.031	
C	 0.1282682856	 1.560425308	-0.1058673555	-0.499859
C	 0.0666680117	 0.1066951725	-0.0677763872	 0.054132
C	 0.0022718909	-1.095857326	-0.0262400319	 0.117918
C	-0.0376905681	-2.5304267313	-0.004302143	-0.222549
C	-0.43275117	-3.3355847611	 1.2277517821	-0.078159
C	-1.1948113692	-2.6063246562	 2.3166779225	-0.093649
O	-2.2671233846	-1.9290252831	 1.6709623204	-0.249692
C	-2.5902584423	-2.5959209739	 0.4559016815	-0.09365
C	-1.3353954684	-3.3288553839	 0.0241131205	-0.078162
H	 1.0813495722	 1.9322559848	 0.2872275695	 0.144297
H	 0.0224933279	 1.9400629732	-1.128530927	 0.144297
H	-0.672958551	 2.0038320636	 0.4957964593	 0.151221
H	 0.7437993846	-3.0050297347	-0.5929915907	 0.107703
H	 0.1679967105	-4.1964228773	 1.4967499686	 0.093488
H	-1.5664544549	-3.3343367576	 3.0562612987	 0.090232
H	-0.6039367721	-1.8485647179	 2.8423100893	 0.114355
H	-3.4082403715	-3.3205940082	 0.6003224336	 0.090234
H	-2.9252569019	-1.8312549888	-0.2531013135	 0.114355
H	-1.429949489	-4.1845106922	-0.6340758171	 0.093488
28.561	79.6962	90.0265	196.8072	221.7416	240.4358	357.7352	375.3207	505.9427	533.7045	681.8319	721.3067	759.6422	783.5671	872.1696	919.9149	929.614	971.5057	1004.9966	1028.7906	1052.0203	1053.7084	1071.0098	1074.2796	1121.024	1121.8163	1128.3523	1227.5584	1227.5653	1243.5628	1322.8436	1354.5792	1360.5989	1376.2916	1413.6681	1437.9745	1477.9982	1479.1867	1505.5985	1517.7853	2367.9555	2967.7619	2974.1356	3023.5456	3064.2386	3067.174	3081.2895	3085.9054	3130.8236	3176.4743	3186.8269
CC#CC1C2COCC12	CC#C[C@H]1[C@H]2COC[C@@H]12	
InChI=1S/C8H10O/c1-2-3-6-7-4-9-5-8(6)7/h6-8H,4-5H2,1H3	InChI=1S/C8H10O/c1-2-3-6-7-4-9-5-8(6)7/h6-8H,4-5H2,1H3/t6-,7+,8-
