21
gdb 109983	1.77858	1.63723	1.17036	1.12	84.76	-0.2391	0.0473	0.2864	1203.3903	0.180291	-387.038657	-387.028709	-387.027765	-387.073321	36.848	
C	-0.5662291312	 1.6570135331	 0.0549116739	-0.243217
O	-0.3281908544	 0.3491792875	-0.4236875726	-0.229995
C	-1.3649359844	-0.5415567897	-0.1623447143	 0.160526
C	-1.1417604621	-1.9800888725	-0.6935781742	-0.033347
C	 0.3201294513	-2.3531087778	-0.9290632136	-0.390656
C	-1.7341041901	-2.5239057997	 0.6394513614	-0.240519
C	-1.5662765489	-1.1115305049	 1.3021587991	-0.26277
C	-0.4276534781	-0.9781579599	 2.1874097508	 0.374409
C	 0.5123694646	-0.8666877773	 2.9305707485	-0.485876
H	 0.2851538834	 2.2707738905	-0.2480135475	 0.127603
H	-1.4852890545	 2.0815684987	-0.3790439811	 0.101307
H	-0.6485908218	 1.6800750742	 1.1496871487	 0.12038
H	-2.3252896461	-0.128243268	-0.5102886475	 0.062831
H	-1.7293479144	-2.214763043	-1.5860382268	 0.069158
H	 0.9325562361	-2.1443882255	-0.0480449922	 0.136022
H	 0.4015629218	-3.4210506991	-1.1584756684	 0.105163
H	 0.7380741733	-1.7873653605	-1.7661693402	 0.122986
H	-2.7856101286	-2.8095598817	 0.5631767267	 0.10225
H	-1.1796350987	-3.3334774286	 1.116811154	 0.112393
H	-2.463805575	-0.737653191	 1.8039465812	 0.097059
H	 1.3442769678	-0.7693502547	 3.5829542041	 0.194292
73.2691	108.1283	141.2159	175.8388	192.7113	214.9971	238.7405	305.5265	354.7956	381.1444	474.3238	528.1456	606.5953	618.5153	623.585	754.4862	779.3198	818.8194	852.0448	926.902	946.7236	1014.5478	1037.3689	1076.5224	1089.5547	1123.3698	1149.9392	1176.0669	1184.9702	1213.9566	1244.1458	1257.7791	1277.6449	1283.6863	1345.4801	1367.826	1387.4926	1412.7752	1480.0688	1484.5814	1489.05	1494.6288	1500.0735	1507.2814	2227.3145	2964.3574	2980.4773	3039.0203	3044.4956	3054.1835	3054.8087	3073.1771	3108.308	3119.1622	3125.1311	3129.9533	3503.6564
COC1C(C)CC1C#C	CO[C@H]1[C@@H](C)C[C@H]1C#C	
InChI=1S/C8H12O/c1-4-7-5-6(2)8(7)9-3/h1,6-8H,5H2,2-3H3	InChI=1S/C8H12O/c1-4-7-5-6(2)8(7)9-3/h1,6-8H,5H2,2-3H3/t6-,7+,8-/m0/s1
