21
gdb 101875	2.06437	1.04119	0.84219	0.5728	79.82	-0.2504	0.0267	0.277	1481.396	0.178804	-424.175835	-424.164847	-424.163903	-424.213315	39.047	
C	 0.096431089	 1.065220541	-1.6461614788	-0.383298
C	 0.0771491468	-0.3617183086	-1.0940735355	-0.179895
C	 1.4526310357	-1.0296890476	-1.1133660133	 0.109151
O	 2.4111123897	-0.3331937599	-0.3187111879	-0.4311
C	 1.402782689	-2.4921302218	-0.6385972895	-0.100718
O	 0.498427034	-3.3222461123	-1.352439314	-0.22724
C	 1.0155690684	-3.945536473	-2.5122913824	-0.229063
C	 1.0516530033	-3.0971645178	-3.7082573163	 0.317849
C	 1.0704773565	-2.4216983963	-4.7026400869	-0.457329
H	 0.8213694544	 1.6805054354	-1.1058605676	 0.122496
H	 0.380934969	 1.0705393659	-2.7040356989	 0.115963
H	-0.8869713524	 1.5374308784	-1.5622491068	 0.108259
H	-0.2941111025	-0.3603238753	-0.0571922838	 0.077145
H	-0.6157246089	-0.9896163907	-1.6636197868	 0.118695
H	 1.8555754183	-0.9961721521	-2.1308576814	 0.100257
H	 2.0444251199	-0.2442751898	 0.5687326531	 0.277106
H	 2.4195446732	-2.9100324241	-0.6607730551	 0.099641
H	 1.0585129156	-2.5110455098	 0.4046766023	 0.093002
H	 2.0242472426	-4.3433043416	-2.3178180294	 0.123283
H	 0.3619626591	-4.8038391591	-2.7057917146	 0.140959
H	 1.0911043593	-1.8214413609	-5.5787429065	 0.204836
21.1262	69.9615	85.9684	113.8281	184.1557	218.7061	235.3174	272.2814	305.4114	327.8025	377.0328	431.3454	482.7516	517.7578	576.9598	617.1839	679.8908	773.4057	823.3873	906.868	959.3243	974.2936	988.6075	1029.4515	1038.4351	1087.8987	1117.9162	1139.7271	1158.1041	1251.115	1269.3286	1312.8112	1332.4858	1336.2645	1386.0591	1397.5858	1405.0526	1408.1331	1423.673	1470.7078	1482.1993	1489.3174	1497.1413	1508.3396	2231.1401	2982.0508	2990.5813	2996.3334	3037.5695	3039.9338	3059.4541	3071.1024	3081.1859	3102.9588	3117.9895	3502.5874	3787.8824
CCC(O)COCC#C	CC[C@@H](O)COCC#C	
InChI=1S/C7H12O2/c1-3-5-9-6-7(8)4-2/h1,7-8H,4-6H2,2H3	InChI=1S/C7H12O2/c1-3-5-9-6-7(8)4-2/h1,7-8H,4-6H2,2H3/t7-/m1/s1
