22
gdb 97801	3.64726	0.6351	0.57175	1.227	94.4	-0.231	0.0456	0.2766	2052.5218	0.192887	-367.170938	-367.160228	-367.159284	-367.208467	37.882	
C	-0.0136376712	 1.6680002111	-0.1601167923	-0.36361
C	 0.0178381347	 0.1355432734	-0.0140364797	-0.316456
C	-1.3118932004	-0.4635459723	 0.0287269714	 0.104837
C	-2.4194538616	-0.9390800012	 0.0485774286	 0.116352
C	-3.7455380539	-1.4906898584	 0.1115272956	-0.270085
N	-4.2179581277	-2.3074568648	-1.0380591958	-0.324377
C	-4.015827314	-2.9571333617	 0.2619987696	 0.016579
C	-2.9175286289	-3.9904593693	 0.3408449801	-0.186021
C	-3.3506846403	-5.3395696457	-0.2426143007	-0.377236
H	 1.0037156291	 2.0696537166	-0.1892780022	 0.11314
H	-0.5268162877	 1.9593612506	-1.0804813555	 0.129481
H	-0.5415481788	 2.1276281251	 0.6799266168	 0.126319
H	 0.5823414592	-0.2999272743	-0.848666452	 0.130952
H	 0.5710270203	-0.1342348514	 0.8951449099	 0.126752
H	-4.480156417	-0.8325491219	 0.572686602	 0.10145
H	-5.2043259077	-2.1193106742	-1.1980285543	 0.231282
H	-4.910984148	-3.2000299016	 0.8361903614	 0.080525
H	-2.0429016223	-3.6112517577	-0.196032951	 0.116668
H	-2.6191309885	-4.1099395757	 1.3903419799	 0.095306
H	-4.2100777166	-5.7526013683	 0.2980679677	 0.107143
H	-3.6367948983	-5.2278507131	-1.2929853614	 0.129877
H	-2.5404391504	-6.0728186751	-0.1868539181	 0.111125
26.2705	61.5736	74.5958	123.1388	139.922	213.3659	232.2589	238.6188	324.168	360.0306	435.672	494.7887	536.4183	588.6835	717.6081	765.5457	786.1827	819.3184	867.9729	899.9303	945.7805	965.3736	1030.5105	1032.342	1078.3817	1094.7595	1103.9426	1130.3733	1154.7464	1207.8521	1239.0948	1263.8579	1286.5338	1304.5246	1342.3721	1351.2359	1405.3194	1409.0588	1412.7961	1462.5136	1474.9274	1478.1338	1494.7034	1498.8858	1505.8171	1509.0826	2362.784	3017.7153	3029.9556	3031.3655	3043.8705	3044.8646	3080.1519	3093.6262	3105.1572	3112.3878	3116.0051	3116.9101	3123.6809	3499.9532
CCC#CC1NC1CC	CCC#C[C@H]1N[C@H]1CC	
InChI=1S/C8H13N/c1-3-5-6-8-7(4-2)9-8/h7-9H,3-4H2,1-2H3	InChI=1S/C8H13N/c1-3-5-6-8-7(4-2)9-8/h7-9H,3-4H2,1-2H3/t7-,8+/m0/s1
