16
gdb 9064	5.65692	0.90759	0.81193	2.551	68.22	-0.2583	-0.0321	0.2262	1348.6399	0.125712	-383.698069	-383.688689	-383.687745	-383.733088	31.985	
C	 0.0143759037	 1.3872768184	-0.2210946837	-0.408848
C	 0.0479343062	-0.1266093012	-0.0152841254	 0.056242
O	 0.6997952334	-0.5460636215	 1.16993279	-0.261612
C	 2.1129363347	-0.4392612469	 1.1306352642	-0.21647
C	 2.6856027755	-1.0723022109	 2.3107737981	 0.283601
C	 3.1838609102	-1.5844758171	 3.2755257268	-0.409391
C	-1.3556233451	-0.7237204127	 0.0624130667	 0.147641
O	-2.2937862715	-0.3225263002	-0.5732142479	-0.243921
H	 1.0024031884	 1.7865858355	-0.4631770554	 0.119618
H	-0.6671805509	 1.6177613226	-1.0433367593	 0.147805
H	-0.353344742	 1.88012185	 0.6834459273	 0.135286
H	 0.5289264919	-0.6046678888	-0.8908003438	 0.096079
H	 2.5045770053	-0.9247910383	 0.2203792655	 0.120783
H	 2.4295634822	 0.6141648202	 1.0908691373	 0.128665
H	 3.6191444386	-2.0400622451	 4.1305024989	 0.204448
H	-1.4267034706	-1.5871640939	 0.7582316906	 0.100074
49.0637	77.0827	89.5775	134.6155	208.5837	253.4113	270.2181	329.9779	394.6224	423.777	514.0984	613.9057	634.4259	681.1224	834.3427	913.1727	933.4089	976.9001	1031.8103	1076.2932	1122.8624	1138.5371	1163.0596	1254.5941	1325.4027	1335.5148	1383.2743	1403.1086	1425.905	1488.4721	1494.1222	1504.4524	1841.3594	2249.3104	2911.862	2922.4669	2960.2294	2998.6421	3050.2799	3124.6897	3136.8476	3505.8762
CC(OCC#C)C=O	C[C@@H](OCC#C)C=O	
InChI=1S/C6H8O2/c1-3-4-8-6(2)5-7/h1,5-6H,4H2,2H3	InChI=1S/C6H8O2/c1-3-4-8-6(2)5-7/h1,5-6H,4H2,2H3/t6-/m1/s1
