23
gdb 63626	2.70724	1.13976	1.06464	2.4905	85.86	-0.2329	0.0663	0.2992	1308.2566	0.204601	-384.427885	-384.417781	-384.416837	-384.463198	38.469	
C	-1.2028055066	 0.745017457	 0.7615910397	-0.435642
C	-0.1703887373	-0.1854340351	 0.1587458784	 0.333656
C	-0.7530857779	-1.3641262091	-0.5976460435	-0.460635
N	 0.9934482316	 0.5033379065	-0.4214993517	-0.363451
C	 1.1907248814	-0.3486013416	 0.7658517153	-0.17025
C	 1.7028842853	 0.3002602197	 2.0356875133	 0.333297
C	 2.6653625903	 1.4528544176	 1.8402281749	-0.429991
C	 0.8733335066	 0.2332420572	 3.2715784367	-0.268423
N	 2.0695932568	-0.6171942109	 3.1359971607	-0.357737
H	-0.7287217897	 1.5771986188	 1.2838856899	 0.133917
H	-1.8373446177	 1.159533162	-0.029995883	 0.115554
H	-1.8533998612	 0.2151884996	 1.4659635776	 0.110073
H	-1.3662891104	-1.0195321218	-1.4389082268	 0.122098
H	 0.0336986916	-2.0136838656	-0.9954070576	 0.111921
H	-1.3956753317	-1.9722551756	 0.0487890804	 0.121796
H	 1.3209275063	 0.025364617	-1.2573183565	 0.225307
H	 1.6587013132	-1.316790176	 0.5752993111	 0.07852
H	 2.1815978605	 2.2742224944	 1.3058431694	 0.12979
H	 3.0274304447	 1.8091545634	 2.8078463965	 0.116591
H	 3.5317080241	 1.1364707044	 1.2489273437	 0.112464
H	 0.9513317579	 1.0181861416	 4.0199450777	 0.112451
H	-0.1033350241	-0.2374700556	 3.2130485304	 0.107401
H	 1.7794361865	-1.5654441574	 2.9032916735	 0.221293
21.3098	147.1078	171.6064	193.8144	217.2133	246.3052	291.5187	311.1185	368.681	376.7136	383.3257	410.2133	492.7405	529.6258	713.6519	729.8024	817.9629	833.4486	915.2553	929.9764	951.7238	959.8897	977.7713	982.3431	1021.5268	1047.9795	1065.9155	1085.2765	1104.8094	1113.4578	1146.6355	1157.1408	1205.718	1269.9261	1308.92	1341.8791	1355.0081	1359.744	1412.3221	1413.8163	1425.3435	1447.7424	1477.0033	1478.9857	1490.6152	1495.8001	1497.7663	1511.3656	1514.324	3021.9841	3033.9417	3039.3583	3073.7816	3084.921	3091.1548	3097.6009	3105.6012	3107.2784	3131.1723	3138.9935	3193.36	3474.7257	3493.44
CC1(C)NC1C1(C)CN1	CC1(C)N[C@H]1[C@@]1(C)CN1	
InChI=1S/C7H14N2/c1-6(2)5(9-6)7(3)4-8-7/h5,8-9H,4H2,1-3H3	InChI=1S/C7H14N2/c1-6(2)5(9-6)7(3)4-8-7/h5,8-9H,4H2,1-3H3/t5-,7-/m1/s1
