20
gdb 31531	3.1704	1.12116	0.85247	1.1705	86.23	-0.1687	0.0467	0.2154	1403.8164	0.169845	-403.186399	-403.176342	-403.175398	-403.221713	35.907	
C	-0.1877778028	 1.431903295	-0.2732174394	-0.329057
N	 0.3233828732	 0.1063272516	 0.0655551901	-0.387537
C	 0.7333266513	-0.7265295738	-0.961510683	 0.417164
C	 0.6939250253	-2.076042947	-1.1421373461	-0.403592
C	 1.3939073098	-2.3352262609	-2.3781289968	 0.202427
C	 1.6134599569	-3.6826911428	-2.9926768075	-0.505123
C	 1.7902050869	-1.1267199438	-2.8579036987	 0.248103
C	 2.5169938935	-0.6680190944	-4.0690251478	-0.493893
O	 1.388492579	-0.1281323979	-1.9854089734	-0.217535
H	 0.5823189396	 1.9895465067	-0.8091770933	 0.150514
H	-1.0928572314	 1.4093841515	-0.8995938561	 0.111762
H	-0.4137903476	 1.9660557648	 0.6526657618	 0.122199
H	-0.264422601	-0.3892644788	 0.7204727809	 0.240268
H	 0.2296621444	-2.8014359059	-0.4922342628	 0.087172
H	 0.6627883284	-4.1910741977	-3.1934476161	 0.124318
H	 2.1566074159	-3.6133296843	-3.9389734916	 0.119312
H	 2.1899641801	-4.3369045644	-2.3277644934	 0.125642
H	 1.9063825134	 0.0075973948	-4.6812286485	 0.127975
H	 3.4386113386	-0.1300921311	-3.8142199843	 0.129823
H	 2.7903952966	-1.5249978016	-4.6888052338	 0.130058
53.758	108.4573	130.2812	140.2681	179.3168	207.5994	225.8566	263.0021	326.0241	375.9439	497.2075	558.2943	631.482	635.4173	681.1393	700.429	723.7376	792.814	957.527	986.1483	1010.0645	1058.1962	1065.5245	1071.8584	1139.9847	1150.4133	1162.785	1197.9038	1241.5706	1350.0182	1394.1881	1417.4517	1425.1226	1451.4555	1469.744	1481.441	1485.8229	1490.1064	1495.7061	1499.5099	1516.6515	1653.5017	1689.3105	2984.5216	3015.9017	3023.2575	3058.5148	3069.0333	3093.656	3108.3884	3123.3657	3137.8744	3246.895	3598.6838
CNC1=CC(C)=C(C)O1	CNc1cc(C)c(C)o1	
InChI=1S/C7H11NO/c1-5-4-7(8-3)9-6(5)2/h4,8H,1-3H3	InChI=1S/C7H11NO/c1-5-4-7(8-3)9-6(5)2/h4,8H,1-3H3
