20
gdb 89496	2.97635	1.40642	1.16765	3.6065	79.72	-0.2439	0.0177	0.2617	1139.29	0.171455	-403.136082	-403.127751	-403.126807	-403.168522	32.657	
C	-0.1704567889	 1.5207791495	 0.0578962255	-0.382977
C	 0.0875794015	 0.0201519342	 0.0567421363	 0.061361
C	 0.7743090453	-0.5007283731	-1.2673832656	-0.3187
C	 1.4985211198	-1.7546347497	-0.7402141421	 0.188058
C	 0.7200342227	-3.0583763544	-0.9217924333	-0.456642
C	 3.0409665411	-1.9888895794	-0.6235289969	-0.164167
O	 2.9619213482	-1.7989961928	 0.8498354364	-0.278515
C	 1.7102521669	-1.2778180145	 0.6586426045	 0.402719
N	 1.0431371429	-0.335966724	 1.1647885102	-0.324068
H	 0.7705400677	 2.0712440922	-0.042779603	 0.118519
H	-0.8270302657	 1.7998762584	-0.7734170198	 0.107717
H	-0.6438250283	 1.8306338261	 0.993247727	 0.127748
H	-0.866543833	-0.5028178039	 0.2127858545	 0.080987
H	 0.0613456913	-0.6976415065	-2.0730200311	 0.099688
H	 1.4845396345	 0.2585835147	-1.6138872217	 0.104862
H	 0.7818317403	-3.3985971952	-1.9612578591	 0.122685
H	 1.1159204199	-3.8515549428	-0.280185819	 0.13019
H	-0.3374708379	-2.9232681177	-0.6765065505	 0.130624
H	 3.4085429744	-2.9875512391	-0.8657698627	 0.123251
H	 3.6766836874	-1.212198952	-1.0564159797	 0.126659
116.0134	191.5741	230.0706	241.3985	245.8334	293.2015	339.9695	361.9663	481.9614	525.1617	590.2541	680.0906	728.1998	788.6171	815.4332	861.2928	892.7169	917.1579	928.5105	948.07	979.5154	1033.0736	1076.7295	1107.3693	1138.6571	1142.9113	1166.5507	1206.9402	1243.5393	1271.703	1285.273	1301.9979	1355.4232	1370.9379	1407.0671	1415.8043	1481.7698	1486.4103	1493.5339	1496.89	1498.0122	1504.6215	1769.129	3001.0786	3033.6182	3034.5511	3042.9487	3062.4808	3098.1584	3101.2743	3105.2679	3113.0609	3119.7685	3136.4385
CC1CC2(C)COC2=N1	C[C@H]1C[C@@]2(C)CO[C]2[N]1	
InChI=1S/C7H11NO/c1-5-3-7(2)4-9-6(7)8-5/h5H,3-4H2,1-2H3	InChI=1S/C7H11NO/c1-5-3-7(2)4-9-6(7)8-5/h5H,3-4H2,1-2H3/t5-,7-/m0/s1
