12
gdb 23757	3.43195	2.26138	1.36316	2.1644	59.06	-0.241	-0.0217	0.2193	803.1687	0.085149	-422.679561	-422.673468	-422.672524	-422.709693	23.425	
O	 0.0831268001	 1.3668663186	-0.0718006509	-0.435327
C	 0.0555618842	 0.0118365155	-0.0388581604	 0.224438
C	 0.0179507874	-0.7307832732	-1.2188831856	-0.054776
N	-0.0102949811	-2.0632401737	-1.2482714797	-0.262357
C	-0.0020577658	-2.7184302766	-0.0854845146	 0.001583
C	 0.0344481068	-2.0834116916	 1.155199783	-0.249194
C	 0.0631604976	-0.7033432255	 1.1568742011	 0.196814
F	 0.0992559846	 0.0000635069	 2.3004114702	-0.089695
H	 0.1067399527	 1.6902959807	 0.8371797096	 0.307099
H	 0.0110778464	-0.2020986677	-2.1685555414	 0.124914
H	-0.0255965357	-3.8029989215	-0.1390093995	 0.11573
H	 0.0404995529	-2.635086782	 2.0874257083	 0.120771
193.7423	287.1249	299.7108	412.2158	440.0017	459.9573	555.5215	603.2433	611.4612	757.0574	793.7286	844.4719	868.62	937.3337	967.8279	1059.3673	1163.9491	1224.3522	1257.5464	1309.4764	1321.6328	1369.5955	1476.7663	1540.5333	1628.2795	1646.6113	3166.3636	3170.9515	3211.3139	3797.2693
OC1=CN=CC=C1F	Oc1cnccc1F	
InChI=1S/C5H4FNO/c6-4-1-2-7-3-5(4)8/h1-3,8H	InChI=1S/C5H4FNO/c6-4-1-2-7-3-5(4)8/h1-3,8H
