14
gdb 130040	3.32421	1.66202	1.11632	1.1903	69.74	-0.2387	-0.0367	0.2021	998.5829	0.104148	-432.867473	-432.860769	-432.859825	-432.898383	26.364	
N	 0.0205298382	 1.3413395599	 0.1136962511	-0.57384
C	-0.0014787526	-0.02010899	 0.0333419361	 0.309553
N	-1.0722163424	-0.7420663523	 0.0113931255	-0.318803
C	-0.7102219447	-2.1734867623	-0.0041160168	-0.290357
C	 0.7944239404	-2.1924592569	-0.0100763888	 0.127493
C	 1.9630329935	-2.8720007098	-0.0330138121	-0.089083
O	 3.0010362731	-1.9954039983	-0.0225526023	-0.172898
N	 2.5153760199	-0.6835687623	 0.0102546138	-0.266769
C	 1.2189610284	-0.8433641197	 0.0171592172	 0.316521
H	 0.8561522061	 1.8109182309	-0.1942802491	 0.271542
H	-0.8498707187	 1.8110215624	-0.0819480659	 0.264034
H	-1.1407021822	-2.6736266711	 0.8719874527	 0.133212
H	-1.1492864798	-2.6537389735	-0.8867739914	 0.132051
H	 2.2493064908	-3.9116345669	-0.0574383601	 0.157344
194.9057	226.8757	264.2067	296.3391	401.8896	483.444	528.9113	588.6176	626.3212	637.6282	644.7405	784.8162	793.5744	827.1416	896.413	959.0898	971.4279	985.4271	1092.3083	1119.8716	1157.0996	1187.9425	1263.9041	1277.003	1379.7461	1456.3494	1478.357	1555.7909	1618.0348	1663.7632	1691.1124	3033.0999	3058.1923	3268.5756	3591.5953	3711.0912
NC1=NCC2=CON=C12	NC1=NCc2conc12	
InChI=1S/C5H5N3O/c6-5-4-3(1-7-5)2-9-8-4/h2H,1H2,(H2,6,7)	InChI=1S/C5H5N3O/c6-5-4-3(1-7-5)2-9-8-4/h2H,1H2,(H2,6,7)
