22
gdb 99892	2.22122	1.27562	1.02043	3.9465	85.85	-0.2946	0.044	0.3385	1305.636	0.192904	-367.222536	-367.212307	-367.211362	-367.257733	37.968	
C	-0.1474092605	 1.4890904429	 0.1208433567	-0.411948
C	-0.0334174211	-0.0187576811	-0.115103364	-0.184015
C	 0.7787696377	-0.4523474171	-1.3714511076	 0.065796
C	 0.1620652107	 0.1386602554	-2.6575305064	-0.434073
C	 2.157761005	 0.0594518874	-1.2439788277	 0.285933
N	 3.2366724567	 0.4609928144	-1.1355087993	-0.355521
C	 0.8648165189	-1.987708111	-1.3775000543	 0.026141
C	-0.1751948967	-2.8689588661	-2.0223837641	-0.289692
C	 1.2237994913	-2.8084276832	-2.5862678969	-0.281731
H	 0.8399831293	 1.9567162545	 0.1859407326	 0.143441
H	-0.7084350468	 1.9900280415	-0.6734228976	 0.120003
H	-0.6707930508	 1.6824935068	 1.0618200959	 0.120223
H	 0.4287293346	-0.4869230037	 0.7612434639	 0.111015
H	-1.0300505227	-0.4639029414	-0.2162654835	 0.106568
H	 0.2304985446	 1.2279401852	-2.6507559245	 0.140855
H	 0.6798553509	-0.2155721555	-3.5514497631	 0.135761
H	-0.8942120387	-0.1342395581	-2.7300944187	 0.12536
H	 1.2659887799	-2.3638146835	-0.4402619825	 0.099412
H	-0.4858873452	-3.7591287769	-1.4869459778	 0.118208
H	-0.9659095542	-2.4063995373	-2.6015281521	 0.116383
H	 1.3590942126	-2.3071913767	-3.5377457821	 0.120882
H	 1.8836319746	-3.6559899964	-2.4401968668	 0.121
50.7284	99.7212	146.4557	154.683	211.3336	217.6032	267.7902	289.0856	321.6557	372.6442	405.8549	456.4677	560.1606	594.5749	664.563	780.0831	788.4246	830.6667	851.2436	889.1143	948.0925	958.1195	995.0679	1017.7618	1059.742	1074.9166	1083.8511	1104.5782	1147.3005	1152.7477	1196.0099	1208.8867	1219.9692	1253.7933	1319.3296	1364.9611	1392.7876	1415.5377	1418.954	1467.3127	1479.7014	1495.0606	1498.0221	1506.2315	1509.0772	1514.5825	2347.415	3034.3018	3042.3148	3054.7669	3072.521	3110.7029	3116.0814	3128.5649	3135.9986	3139.9569	3142.0672	3146.1614	3217.5704	3231.5111
CCC(C)(C#N)C1CC1	CC[C@@](C)(C#N)C1CC1	
InChI=1S/C8H13N/c1-3-8(2,6-9)7-4-5-7/h7H,3-5H2,1-2H3	InChI=1S/C8H13N/c1-3-8(2,6-9)7-4-5-7/h7H,3-5H2,1-2H3/t8-/m0/s1
