19
gdb 56978	2.84998	1.27008	0.98436	5.2992	79.	-0.245	0.0338	0.2788	1224.4616	0.159727	-382.038208	-382.02957	-382.028626	-382.071819	32.318	
C	-0.0371746881	 1.5587970629	 0.0379406661	-0.396007
C	-0.1104869114	 0.0181419928	 0.0348686425	-0.169425
C	-1.5058594459	-0.4296660455	-0.0397636634	 0.285055
N	-2.6129104916	-0.7561306868	-0.0971090337	-0.322418
C	 0.7041147239	-0.5715509106	-1.12636358	 0.075137
C	 2.253905366	-0.4406205261	-1.1162275693	-0.295846
C	 2.2789923877	-1.9630618902	-1.2378502845	-0.007995
C	 1.5577007752	-2.5885796392	-0.11803738	-0.242462
N	 0.7592671469	-2.0733027425	-1.248930106	-0.135675
H	 1.0033094312	 1.8818708326	 0.130864228	 0.12953
H	-0.4461068107	 1.9687833092	-0.8896922364	 0.140583
H	-0.6046940428	 1.9742976158	 0.8735881415	 0.141272
H	 0.293824948	-0.3483929777	 0.9857784083	 0.122347
H	 0.2839818899	-0.194097086	-2.0625221822	 0.104327
H	 2.6409574673	 0.0896374091	-1.9871367962	 0.11966
H	 2.725293719	-0.0295272818	-0.2172833163	 0.105548
H	 2.8892061884	-2.5272371041	-1.934702704	 0.1037
H	 1.5343709829	-3.6723387608	-0.069109501	 0.131837
H	 1.526820564	-2.0981571412	 0.8522181167	 0.110833
58.1884	125.005	171.2716	211.2935	223.6308	272.7395	352.4187	390.825	465.1241	537.0083	591.1602	723.8033	762.2308	780.7062	810.2556	871.7672	929.0448	958.9113	988.7398	1000.5081	1051.5363	1065.2003	1087.7732	1103.2711	1110.5217	1131.2226	1140.2997	1198.0422	1229.7922	1267.7681	1289.9269	1292.9096	1324.8891	1365.1491	1391.2549	1414.2007	1487.5648	1494.3033	1499.4968	1506.5596	2358.4743	3041.3321	3047.4518	3050.0042	3071.5346	3111.0893	3123.4344	3125.6563	3131.999	3172.2354	3202.6634
CC(C#N)C1CC2CN12	C[C@@H](C#N)[C@H]1C[C@H]2CN12	
InChI=1S/C7H10N2/c1-5(3-8)7-2-6-4-9(6)7/h5-7H,2,4H2,1H3	InChI=1S/C7H10N2/c1-5(3-8)7-2-6-4-9(6)7/h5-7H,2,4H2,1H3/t5-,6-,7+,9?/m0/s1
