18
gdb 111190	2.75932	1.24428	0.99673	2.4374	79.34	-0.2415	0.0171	0.2587	1215.8237	0.14753	-401.81756	-401.809269	-401.808325	-401.850661	32.024	
O	 0.0476722213	 1.4118648344	 0.6230118447	-0.419024
C	 0.1754073557	 0.0962030573	 0.1098839366	-0.117662
C	-1.196487983	-0.5462864102	 0.0190813064	 0.054859
C	-1.4927698748	-2.0671155549	 0.0362289858	-0.10079
C	-1.1076793937	-2.0168883237	 1.527088446	-0.185194
N	-1.9408166042	-0.7283994987	 1.374874096	-0.18024
C	-2.9016281732	-1.6459421524	 0.5556181608	-0.160588
C	-3.8750236911	-1.0105561435	-0.3058086063	 0.337078
C	-4.7210119738	-0.5275454622	-1.0108266733	-0.427671
H	-0.5301540353	 1.3496666295	 1.3936229287	 0.296225
H	 0.5957368128	 0.1898672627	-0.8979886224	 0.111423
H	 0.8900955321	-0.4940840248	 0.7003239247	 0.089479
H	-1.8046122159	 0.041601855	-0.6726794089	 0.102583
H	-1.2622100508	-2.8265058098	-0.7178911255	 0.076597
H	-1.5663943937	-2.747801508	 2.1982285891	 0.105887
H	-0.0682346262	-1.8459327078	 1.7994022351	 0.111253
H	-3.3933159609	-2.3733119802	 1.2085864346	 0.10495
H	-5.4617770355	-0.0897084827	-1.6336219822	 0.200837
75.2443	122.3793	159.6337	200.4491	336.9914	399.9125	427.0294	482.3806	491.4477	535.2743	623.2479	635.6733	658.7931	741.9076	764.6892	834.8296	881.5707	904.329	913.4042	1014.1979	1043.4173	1061.0426	1076.2768	1113.0085	1133.7799	1147.6088	1161.9139	1173.1	1219.1159	1222.4755	1247.7831	1269.7852	1352.4286	1388.8668	1419.9163	1453.0641	1508.0798	1550.0109	2232.4651	3001.1502	3051.5405	3059.2278	3062.9055	3075.1022	3089.5323	3158.1672	3501.5132	3781.5548
OCC1C2CN1C2C#C	OC[C@H]1[C@H]2CN1[C@H]2C#C	
InChI=1S/C7H9NO/c1-2-6-5-3-8(6)7(5)4-9/h1,5-7,9H,3-4H2	InChI=1S/C7H9NO/c1-2-6-5-3-8(6)7(5)4-9/h1,5-7,9H,3-4H2/t5-,6-,7-/m0/s1
