20
gdb 107999	3.50417	1.46462	1.3443	1.9585	80.83	-0.2224	0.0731	0.2954	1043.2926	0.172156	-365.930356	-365.922968	-365.922023	-365.962123	30.017	
C	 0.0337471964	 1.5253775062	-0.0116665833	-0.382926
C	-0.0352042931	-0.0078891518	-0.004201795	-0.305811
C	-1.4471279196	-0.5408888887	-0.0243693257	 0.351172
C	-2.4278453942	-0.3731652977	-1.219702383	-0.286697
C	-3.1507071137	-1.5679501332	-0.5840778495	 0.00537
C	-1.8261118221	-2.084668901	 0.0514339671	-0.148104
C	-2.4588092155	-1.8747934407	 1.4480822726	-0.056068
C	-2.344443013	-0.4137467818	 1.2324688358	-0.096767
N	-3.5931777787	-1.1348850539	 0.8112208038	-0.15482
H	 1.0715447305	 1.8714270308	 0.0032505295	 0.114508
H	-0.443255544	 1.9384182732	-0.906540921	 0.121537
H	-0.4715654425	 1.9530945759	 0.8606197059	 0.119637
H	 0.5095958878	-0.4015229038	-0.8720613897	 0.095538
H	 0.4815055144	-0.395666576	 0.8840136751	 0.099039
H	-2.9754432632	 0.5669826547	-1.3325824056	 0.101833
H	-1.9546585728	-0.6531462972	-2.1672882365	 0.098412
H	-3.895528336	-2.1739504176	-1.0975540252	 0.073842
H	-1.1898930568	-2.8865339499	-0.3152194514	 0.069037
H	-2.5690056643	-2.4804579574	 2.3395283222	 0.092675
H	-2.4515418596	 0.4143071596	 1.9228426941	 0.088593
90.1822	164.168	198.6457	300.2402	346.5478	420.8536	549.4714	598.7245	742.9994	753.2838	785.1752	788.6028	794.4284	839.8299	871.9018	890.5337	910.2196	935.7036	948.207	971.3113	982.0201	1012.2116	1029.7127	1041.3399	1084.3203	1091.6657	1116.8478	1158.532	1179.0847	1201.1665	1215.3266	1242.2111	1251.1787	1258.4115	1299.3054	1322.3868	1342.3397	1375.2854	1409.982	1477.506	1484.0083	1499.531	1506.9891	3012.8015	3035.7969	3042.1464	3044.5833	3102.3004	3103.5137	3107.4336	3125.8577	3145.3312	3175.9476	3189.8174
CCC12CC3C1C1C2N31	CC[C@@]12C[C@H]3[C@@H]1[C@H]1[C@@H]2N31	
InChI=1S/C8H11N/c1-2-8-3-4-5(8)6-7(8)9(4)6/h4-7H,2-3H2,1H3	InChI=1S/C8H11N/c1-2-8-3-4-5(8)6-7(8)9(4)6/h4-7H,2-3H2,1H3/t4-,5+,6-,7-,8+,9?/m0/s1
