18
gdb 26187	3.60443	0.56716	0.55438	7.8499	95.7	-0.1827	-0.1038	0.0789	2084.9076	0.141326	-439.058129	-439.046411	-439.045467	-439.098896	38.397	
C	-0.2303113146	 1.1159053524	 0.3981408177	-0.472642
C	-0.8504389637	 0.2192347108	-0.6131318256	-0.141661
N	 2.5132762385	-0.6332464693	 1.8050730146	-0.697699
H	 2.1785978347	-1.5401942053	 2.1199035387	 0.246169
H	 3.3171100477	-0.8230642682	 1.2122846682	 0.244204
H	 2.8801159267	-0.1695235183	 2.6320812283	 0.244994
C	-2.109270059	-0.2713807661	-0.6003575462	 0.438503
C	-2.8588790531	-1.1245866396	-1.4288026296	-0.430276
C	-4.1787883798	-1.2963562976	-0.8943291101	 0.339741
O	-5.171261291	-1.9346264031	-1.252128705	-0.440192
C	-4.0867135971	-0.455603207	 0.3043081822	-0.057144
O	-2.9320515387	 0.1299852382	 0.490295371	-0.147291
H	 0.6460613627	 0.6255348896	 0.850204409	 0.195822
H	 0.1411531305	 2.0305579152	-0.0831749714	 0.13447
H	-0.9328334146	 1.3943588541	 1.1843565387	 0.135657
H	-0.2333909868	-0.0942545817	-1.4513613167	 0.123747
H	-2.4774567734	-1.5759697771	-2.3320230462	 0.119892
H	-4.8480342989	-0.2570866371	 1.0515124824	 0.163705
18.5894	22.732	32.5118	86.2231	125.6485	149.0645	172.5497	193.8052	250.4591	270.6775	320.1557	392.4676	508.6238	574.1852	643.5896	687.9239	709.023	776.2629	841.4813	852.3147	911.4325	948.4029	973.1018	1059.7096	1105.3588	1111.2943	1143.3618	1185.7323	1259.9841	1299.4774	1363.7781	1414.0171	1436.054	1477.8981	1497.1309	1679.7602	1680.7631	1695.3036	1726.2719	2985.0355	3043.0885	3141.8209	3174.515	3207.7056	3252.1358	3466.3057	3583.3418	3583.8301
CC([NH3+])C1=CC([O-])=CO1	CC=C1[CH]C(=O)[CH]O1.N	
InChI=1S/C6H9NO2/c1-4(7)6-2-5(8)3-9-6/h2-4,8H,7H2,1H3	InChI=1S/C6H6O2.H3N/c1-2-6-3-5(7)4-8-6;/h2-4H,1H3;1H3
