16
gdb 14649	12.07463	0.59473	0.59077	4.3665	71.86	-0.2591	0.0051	0.2642	1826.028	0.127733	-383.740502	-383.730899	-383.729954	-383.777829	30.874	
C	 0.0912320748	 1.4054029363	-0.1226156295	-0.496643
C	-0.0121573979	-0.0421406525	-0.0060012132	 0.083729
C	-0.0797434702	-1.240351775	 0.0892389003	 0.035715
C	-0.2119379891	-2.6866232972	 0.2101237209	-0.342994
C	-1.6743038213	-3.1035058548	 0.4201722798	-0.081153
O	-1.7577480003	-4.5194357981	 0.6065316602	-0.170191
C	-2.2656818177	-5.2627321507	-0.3954967486	 0.169591
O	-2.3410633564	-6.4524867554	-0.3445377276	-0.270804
H	 0.5236014488	 1.6968742221	-1.0860031912	 0.151178
H	-0.8923416595	 1.8812709892	-0.0435781215	 0.150002
H	 0.7256668039	 1.8235281766	 0.6664584662	 0.151714
H	 0.1741526569	-3.1854879091	-0.6880484232	 0.135082
H	 0.3813545759	-3.062927496	 1.0520779728	 0.147037
H	-2.0795170535	-2.6389825814	 1.3221170162	 0.137609
H	-2.2889836664	-2.7914851283	-0.4325857019	 0.122093
H	-2.606382968	-4.6483828859	-1.2528361998	 0.078035
15.398	45.5506	51.3137	93.1398	161.0345	217.5264	285.8456	345.8367	373.0389	399.5947	478.1168	667.2167	780.7914	790.823	1034.2272	1039.9937	1046.9732	1051.8053	1054.9697	1081.1001	1157.3605	1170.0978	1267.6611	1312.594	1326.3237	1403.1449	1415.4482	1431.4856	1477.194	1477.6977	1478.6113	1506.5117	1869.1824	2376.0829	2938.8886	3024.6497	3028.5268	3038.8744	3061.6213	3089.8321	3090.4025	3111.8495
CC#CCCOC=O	CC#CCCOC=O	
InChI=1S/C6H8O2/c1-2-3-4-5-8-6-7/h6H,4-5H2,1H3	InChI=1S/C6H8O2/c1-2-3-4-5-8-6-7/h6H,4-5H2,1H3
