21
gdb 115954	3.12991	1.29493	1.05623	2.6226	78.19	-0.2397	0.0705	0.3102	1209.6955	0.183632	-424.208078	-424.199603	-424.198659	-424.241535	31.963	
C	-0.1274010799	 1.3496929569	 0.0955084585	-0.234549
O	 0.3030377859	 0.0219131487	-0.0925365323	-0.244993
C	 0.6957722666	-0.6292836513	 1.0883093146	 0.160157
C	-0.4301665848	-1.0141785239	 2.0721468492	-0.260093
C	 0.2341944965	-2.090342889	 2.9538357907	-0.232376
C	 1.1422297461	-2.8835880546	 1.9940936554	-0.070589
C	 0.4082407138	-3.7929404886	 0.9882569095	-0.074602
O	 0.5437010177	-2.8203863914	-0.0684552233	-0.287405
C	 1.3629751122	-1.966829422	 0.7606954162	 0.095291
H	 0.6434713081	 1.9615150498	 0.5916854343	 0.099615
H	-0.3240302534	 1.7678805851	-0.8947328202	 0.128051
H	-1.0500592813	 1.4109142649	 0.6911264622	 0.106539
H	 1.442910308	-0.0152367799	 1.6274663713	 0.05562
H	-0.811579499	-0.1703597863	 2.6520029615	 0.094586
H	-1.2609069195	-1.4334921219	 1.4947634724	 0.121941
H	 0.8455671035	-1.6141860833	 3.729119438	 0.100763
H	-0.4910927672	-2.7296051208	 3.4670339156	 0.101165
H	 2.0150934588	-3.3218089664	 2.4785643715	 0.074208
H	 0.9262053172	-4.7300158849	 0.7455349381	 0.097484
H	-0.6428952205	-4.016187464	 1.2140936209	 0.097862
H	 2.3705549812	-1.8564071672	 0.3465683961	 0.071326
74.3233	104.7242	160.3613	197.5223	222.0051	318.6844	350.8426	401.8114	501.1976	580.1693	658.1534	786.7417	848.2491	855.1152	886.9901	893.7403	950.1234	957.0196	975.4543	1019.3209	1030.7549	1074.982	1100.9046	1120.6874	1159.804	1161.8315	1180.2713	1186.6609	1192.7161	1228.9809	1247.7971	1261.9012	1301.3203	1309.3567	1332.1308	1341.5724	1366.4352	1370.3825	1395.7525	1481.1034	1485.2336	1490.0936	1496.7142	1509.3722	1524.2615	2917.842	2971.1348	3002.2496	3022.3926	3036.8429	3043.2698	3053.2673	3055.0625	3081.4688	3105.4444	3109.4581	3113.2189
COC1CCC2COC12	CO[C@H]1CC[C@H]2CO[C@@H]12	
InChI=1S/C7H12O2/c1-8-6-3-2-5-4-9-7(5)6/h5-7H,2-4H2,1H3	InChI=1S/C7H12O2/c1-8-6-3-2-5-4-9-7(5)6/h5-7H,2-4H2,1H3/t5-,6-,7+/m0/s1
