19
gdb 109280	2.67637	1.25042	0.91584	3.4489	79.14	-0.2064	0.0175	0.2239	1300.6773	0.160912	-419.274267	-419.265122	-419.264178	-419.308999	33.34	
C	 0.1848772225	 1.5480348679	-0.1223788353	-0.372976
C	-0.0914343478	 0.0491047764	 0.0881304897	-0.291109
C	 0.6151490385	-0.5318683444	 1.2828810962	 0.389313
C	 0.0046210684	-0.9579970722	 2.3924899062	-0.196789
C	 0.7764491689	-1.5383452444	 3.5434215671	-0.202214
N	 2.1987046766	-1.2418284511	 3.4014947546	-0.353785
C	 2.848951001	-0.9080265017	 2.2437843148	 0.442396
O	 4.0606577601	-0.8504839891	 2.1425396255	-0.41043
N	 2.007126705	-0.6062590335	 1.181361735	-0.419464
H	 1.2513163455	 1.7503051692	-0.2630504181	 0.120517
H	-0.3420196211	 1.915434276	-1.0077719624	 0.120621
H	-0.1503159189	 2.1279271493	 0.7424869968	 0.128514
H	-1.1657394029	-0.1149972968	 0.2090485721	 0.115617
H	 0.2115901242	-0.5065184176	-0.81021035	 0.111025
H	-1.0736568043	-0.9131975846	 2.4721096089	 0.089736
H	 0.4210887302	-1.1149772064	 4.49349114	 0.114165
H	 0.6077109165	-2.6279602973	 3.6145484166	 0.108561
H	 2.826166899	-1.5242263885	 4.1371793625	 0.252337
H	 2.4831881586	-0.264490511	 0.3632652799	 0.253964
53.5024	69.5976	118.9323	169.7771	191.8983	298.7295	346.4464	424.2452	477.3156	505.5993	535.5198	553.747	660.3683	723.487	751.3587	770.603	792.8666	906.4186	952.6193	977.2662	1029.9539	1051.8806	1079.9117	1106.7566	1138.697	1197.4864	1241.6232	1274.3866	1309.7943	1343.3414	1357.6226	1411.4265	1427.659	1471.1081	1485.3088	1491.4736	1496.2216	1506.525	1536.0296	1755.1546	1814.9538	2928.6919	3000.9712	3016.3207	3040.5422	3085.7672	3111.852	3117.9315	3213.5921	3646.0057	3663.073
CCC1=CCNC(=O)N1	CCC1=CCNC(=O)N1	
InChI=1S/C6H10N2O/c1-2-5-3-4-7-6(9)8-5/h3H,2,4H2,1H3,(H2,7,8,9)	InChI=1S/C6H10N2O/c1-2-5-3-4-7-6(9)8-5/h3H,2,4H2,1H3,(H2,7,8,9)
