21
gdb 38675	2.52325	1.86703	1.42936	1.6687	80.73	-0.251	0.0793	0.3303	998.4249	0.186152	-387.075878	-387.068763	-387.067819	-387.106959	29.881	
C	 0.0998663674	 1.4513918049	-0.5598384025	-0.240875
C	 1.5250119293	 1.5276260609	 0.0652727029	 0.001068
C	 1.1497512595	 0.3126248232	 0.9593885399	-0.230153
C	-0.0180349476	-0.0041292156	-0.0165392141	 0.001068
C	 0.3026363914	-1.1160175029	-1.0163801238	-0.246385
C	 1.5341769025	-0.9729132961	-1.8897832751	 0.05789
O	 1.5647827616	 0.097581585	-2.8422840258	-0.254969
C	 2.5831160808	 0.0683498094	-1.8341687186	 0.05789
C	 2.6867244223	 1.2506235521	-0.8899768648	-0.246385
H	-0.5939321324	 2.1228709978	-0.0462025558	 0.089383
H	 0.0123228711	 1.5970946455	-1.6366692224	 0.118405
H	 1.745570848	 2.4524587387	 0.6065660429	 0.061739
H	 1.9119484898	-0.4623772856	 1.0939401306	 0.087007
H	 0.7914633001	 0.6208938992	 1.9453263085	 0.095149
H	-0.9717096643	-0.2449370232	 0.4624976138	 0.061739
H	 0.4056481011	-2.0599194671	-0.4633699826	 0.099105
H	-0.5495180007	-1.2570183083	-1.6956653611	 0.110556
H	 1.8464021155	-1.9264428849	-2.3249461448	 0.084053
H	 3.5566321279	-0.2287285001	-2.2342700415	 0.084053
H	 2.8687959929	 2.1362797299	-1.5144285069	 0.110556
H	 3.5991625437	 1.1102244072	-0.294051409	 0.099105
150.7941	266.1462	279.0542	350.2868	360.1442	364.3333	396.1206	552.3009	714.1337	715.3753	782.9592	798.1567	812.8142	832.3206	866.9769	870.7237	884.5433	954.6663	970.6564	977.3146	1048.15	1076.9921	1086.2977	1099.8456	1122.6058	1143.712	1165.6094	1174.3146	1191.8261	1247.3783	1259.6669	1286.3046	1293.8235	1308.695	1330.511	1345.1783	1346.886	1391.0104	1404.3726	1417.7992	1465.1013	1468.1748	1474.5816	1491.0582	1502.6825	3006.3654	3006.8199	3038.5972	3040.7649	3042.2459	3049.613	3053.2742	3058.3977	3067.4883	3073.0138	3097.5564	3134.847
C1C2CC1CC1OC1C2	C1[C@H]2C[C@@H]1C[C@H]1O[C@H]1C2	
InChI=1S/C8H12O/c1-5-2-6(1)4-8-7(3-5)9-8/h5-8H,1-4H2	InChI=1S/C8H12O/c1-5-2-6(1)4-8-7(3-5)9-8/h5-8H,1-4H2/t5-,6+,7-,8+
