20
gdb 23136	1.79459	1.65227	0.90321	2.3302	78.3	-0.2459	-0.0007	0.2452	1289.4271	0.171533	-440.26351	-440.254543	-440.253598	-440.297332	34.107	
O	-0.0769491492	 1.5181744532	-0.1987064893	-0.426275
C	 0.0124656482	 0.1142731757	-0.1034015711	-0.07025
C	-1.3572100731	-0.5597861531	 0.0439453077	-0.082847
C	-1.3306747137	-2.102795365	 0.0638752177	-0.230586
C	-2.6276749465	-2.4982190201	 0.7957951825	-0.223988
C	-2.7722221353	-1.4385780392	 1.9068847061	-0.304065
C	-2.0696309426	-0.2237354539	 1.3448430026	 0.423885
N	-2.0069678143	 0.9446018166	 1.8485471201	-0.244429
O	-2.7033634101	 1.0270115024	 3.0662919563	-0.395068
H	-0.5847923498	 1.8055673883	 0.5743162023	 0.285283
H	 0.4941860429	-0.2355622885	-1.0236602914	 0.101195
H	 0.6524804033	-0.1985310685	 0.7398889397	 0.078556
H	-1.9872696889	-0.2185527085	-0.7900798544	 0.101582
H	-1.253101535	-2.5341396918	-0.9372251609	 0.104816
H	-0.4591068588	-2.4459864179	 0.637035492	 0.103576
H	-3.476262372	-2.4305033897	 0.1054262953	 0.107502
H	-2.6061561918	-3.5196905243	 1.1833543197	 0.10303
H	-3.8047249645	-1.2141977991	 2.1880665581	 0.130531
H	-2.2645794498	-1.746061949	 2.8302844206	 0.130736
H	-2.590779009	 1.9524155626	 3.3085553763	 0.306816
65.2836	145.4843	176.2665	189.3576	233.251	262.2346	357.5979	383.8021	437.9334	497.9849	554.0938	571.4509	593.1941	626.1914	770.0281	845.8913	885.1324	923.2314	947.7964	971.928	1003.5036	1020.7612	1070.3506	1078.796	1101.5161	1159.3847	1198.2496	1214.632	1223.0814	1240.3595	1288.8784	1304.5766	1334.7175	1343.1075	1351.1681	1391.6396	1409.1928	1462.0549	1464.7403	1491.5882	1503.4047	1508.0316	1747.0051	2953.1947	3006.3961	3026.3156	3034.3505	3044.4199	3058.6627	3091.6719	3097.4182	3103.9655	3709.3332	3819.573
OCC1CCCC1=NO	OC[C@H]1CCCC1=NO	
InChI=1S/C6H11NO2/c8-4-5-2-1-3-6(5)7-9/h5,8-9H,1-4H2	InChI=1S/C6H11NO2/c8-4-5-2-1-3-6(5)7-9/h5,8-9H,1-4H2/t5-/m1/s1
