20
gdb 45436	2.46761	1.67113	1.62634	2.6326	76.61	-0.2054	-0.012	0.1934	974.6678	0.17514	-403.176349	-403.16907	-403.168126	-403.208109	29.443	
O	-0.0021360152	-0.0436553451	 0.0038768677	-0.329197
C	 0.0065936995	 1.1633415429	 0.0099543574	 0.406187
C	-1.2594584295	 2.0325576734	 0.0317524084	-0.29051
N	-0.9259366053	 3.4596174991	 0.0347667926	-0.069999
C	-0.118837942	 3.7654418893	 1.225240511	-0.169504
C	 1.2038143993	 2.9338145979	 1.2594699279	-0.2378
C	 1.2524851463	 2.0385223311	-0.0024188288	-0.101141
C	 1.1695479153	 2.947022783	-1.2530239993	-0.237803
C	-0.1514902991	 3.7781598364	-1.1739225924	-0.169501
H	-1.8768179644	 1.7919180574	-0.841830276	 0.129749
H	-1.8529199369	 1.7825948247	 0.9191676924	 0.129755
H	 0.0927740539	 4.838992193	 1.2223160805	 0.105455
H	-0.7301179515	 3.5611557319	 2.1096907745	 0.106815
H	 2.0830700473	 3.5871839435	 1.263665259	 0.103677
H	 1.2613931398	 2.3188738256	 2.1626609261	 0.111303
H	 2.142532377	 1.4066353692	-0.0178744029	 0.08527
H	 2.0485075141	 3.6004520642	-1.2744083833	 0.103677
H	 1.2022694091	 2.3415955048	-2.1638543714	 0.111298
H	-0.7866707504	 3.583300347	-2.0435337608	 0.106814
H	 0.0603762327	 4.8516295906	-1.1652991025	 0.105455
78.0654	152.3362	272.6652	380.0414	381.8698	441.485	516.3544	536.7092	575.8143	601.7167	720.9433	803.0226	807.4426	824.0098	857.4111	876.177	942.2304	971.073	993.2928	1001.3045	1063.2772	1066.1397	1087.9612	1105.5521	1171.5215	1196.9913	1227.3273	1241.0624	1258.3511	1301.2189	1320.0223	1332.2292	1338.9936	1355.1733	1360.412	1362.3031	1380.3175	1441.0253	1483.7326	1494.0333	1497.1392	1511.1594	1831.6665	3032.4717	3036.4856	3036.5867	3046.1575	3049.9867	3073.3392	3074.5672	3077.6651	3094.9814	3095.2348	3098.6903
O=C1CN2CCC1CC2	O=C1CN2CC[C@@H]1CC2	
InChI=1S/C7H11NO/c9-7-5-8-3-1-6(7)2-4-8/h6H,1-5H2	InChI=1S/C7H11NO/c9-7-5-8-3-1-6(7)2-4-8/h6H,1-5H2
