20
gdb 82205	2.38611	1.8133	1.34125	2.5743	77.04	-0.2264	0.0703	0.2967	1027.6472	0.171404	-403.103764	-403.095621	-403.094676	-403.135787	32.978	
C	 0.0527556684	 1.6131802081	-0.0102557348	-0.403737
C	 0.0661908661	 0.0810924904	 0.0014895399	-0.073763
C	 0.7652126255	-0.5832490887	-1.1878911914	-0.029535
C	 2.2228598001	-0.4269244713	-1.4243671473	-0.254366
N	 1.7227289215	-1.6136057339	-0.7175350201	-0.105083
C	 1.7165600587	-1.5620620409	 0.7427870657	-0.053387
C	 2.1673427404	-0.3345225883	 1.5248676822	-0.372517
C	 0.7066309492	-0.570103744	 1.2420918108	 0.392062
O	-0.1464354216	-0.8964288077	 2.2988279256	-0.467067
H	 1.0664080558	 2.0255381706	 0.0055506	 0.114643
H	-0.4485902029	 1.9963983388	-0.9046006751	 0.11962
H	-0.4830227922	 2.0055544308	 0.861287477	 0.108834
H	-0.9716310414	-0.2721058851	 0.006190641	 0.092728
H	 0.1345216878	-0.8721991103	-2.0252001643	 0.090946
H	 2.6234676938	-0.6340592969	-2.4132638204	 0.114709
H	 2.7808372495	 0.3262295684	-0.8783884873	 0.110213
H	 1.8347218864	-2.5275695078	 1.2206824835	 0.105754
H	 2.485556364	-0.5420932305	 2.5417947455	 0.114485
H	 2.7050874295	 0.4790807615	 1.0531159104	 0.112923
H	-0.2017005886	-0.1344967235	 2.8854165191	 0.282538
140.8873	200.7024	221.6991	241.5049	277.0901	322.8715	399.8494	432.5122	490.8294	546.4982	608.3116	663.8844	676.3797	755.0561	812.4854	839.5429	885.638	925.3217	938.0866	982.9147	1006.2965	1025.1858	1043.4962	1066.931	1085.6668	1092.4334	1114.9622	1130.4126	1136.061	1165.3794	1213.8945	1275.9288	1282.9597	1304.1892	1324.4678	1362.6836	1388.0796	1397.6979	1413.498	1476.0406	1494.3611	1499.3809	1521.267	3031.3132	3040.8223	3095.3576	3106.5055	3115.9044	3131.3617	3135.6178	3179.1368	3197.7833	3220.5996	3799.9393
CC1C2CN2C2CC12O	C[C@H]1[C@H]2CN2[C@H]2C[C@@]12O	
InChI=1S/C7H11NO/c1-4-5-3-8(5)6-2-7(4,6)9/h4-6,9H,2-3H2,1H3	InChI=1S/C7H11NO/c1-4-5-3-8(5)6-2-7(4,6)9/h4-6,9H,2-3H2,1H3/t4-,5+,6-,7+,8?/m0/s1
