20
gdb 94948	3.37809	1.30805	1.12755	2.4929	78.44	-0.2285	-0.0247	0.2038	1140.4228	0.171741	-403.158252	-403.150088	-403.149144	-403.191054	31.752	
C	 0.2753672644	 1.4812596068	-0.2040044518	-0.388882
C	-0.0611587976	 0.0112267895	 0.0575220373	 0.042446
C	 0.4550910728	-0.9316412281	-1.0611135423	-0.228391
C	 1.9066095508	-1.2373941984	-0.6428777884	-0.240663
C	 1.8619441765	-1.1676069893	 0.9002306964	-0.111065
N	 0.5973264804	-0.4513180792	 1.2960628334	-0.099652
C	 0.0202668168	-1.6784554086	 1.9169114463	-0.306559
C	 1.3348312296	-2.4146095544	 1.6250760389	 0.39703
O	 1.7662877942	-3.506312927	 1.8478092018	-0.290449
H	 1.3519993541	 1.6232089323	-0.3464504572	 0.115377
H	-0.2342669854	 1.8430204465	-1.1032048713	 0.10975
H	-0.0308737273	 2.0969372259	 0.6454921159	 0.12374
H	-1.1448648187	-0.0821352359	 0.1868452626	 0.077291
H	-0.1351993064	-1.8545615233	-1.0757057492	 0.103858
H	 0.3859868735	-0.4870683687	-2.0572865094	 0.103556
H	 2.2607274646	-2.2100324558	-0.9937209748	 0.122922
H	 2.5965313155	-0.4813885433	-1.0286655037	 0.113004
H	 2.777216966	-0.7504575546	 1.3317508728	 0.103004
H	-0.2373017045	-1.5651091366	 2.9757834915	 0.132153
H	-0.8443968994	-2.1103135578	 1.3925838614	 0.121533
67.9811	139.1199	217.0956	229.5811	259.7467	330.8021	413.8913	449.1633	533.2173	601.1972	660.8136	700.6796	734.4065	813.292	847.8763	873.6035	920.7323	940.368	981.8166	993.5573	1021.6684	1037.0382	1069.1996	1091.7606	1113.9718	1129.5089	1169.9006	1187.0571	1204.608	1247.455	1262.5691	1284.1317	1308.6963	1318.7046	1350.004	1376.849	1409.7773	1463.8004	1483.9371	1491.1716	1499.3524	1503.6407	1905.7495	3004.2303	3034.5966	3041.5686	3052.4146	3053.6017	3064.873	3065.6379	3096.1633	3102.8595	3109.5535	3120.7533
CC1CCC2N1CC2=O	C[C@H]1CC[C@H]2N1CC2=O	
InChI=1S/C7H11NO/c1-5-2-3-6-7(9)4-8(5)6/h5-6H,2-4H2,1H3	InChI=1S/C7H11NO/c1-5-2-3-6-7(9)4-8(5)6/h5-6H,2-4H2,1H3/t5-,6+/m0/s1
