19
gdb 120405	2.67345	1.02428	0.91641	4.2006	73.12	-0.2318	-0.024	0.2078	1373.8974	0.156533	-460.156573	-460.146938	-460.145994	-460.191782	34.721	
C	-0.1184337941	 1.4714824883	-0.0669053344	-0.388665
C	-0.09431175	-0.0228454836	 0.2021571408	-0.040219
O	-1.3048120773	-0.5856424238	-0.2813204202	-0.272474
C	-1.4156063576	-1.9819917556	-0.128320295	 0.059526
C	-1.907976321	-2.3936053855	 1.289816005	-0.376017
C	-3.3480671388	-2.271494739	 0.7365719579	 0.347183
O	-4.4116106952	-2.0460950448	 1.2289304907	-0.285549
C	-2.8127831223	-2.3627430129	-0.721216381	 0.048027
O	-3.3399148306	-1.6047055019	-1.7547089668	-0.421587
H	 0.8057526894	 1.9348494835	 0.2903490626	 0.122099
H	-0.2134723655	 1.6683132496	-1.1384720967	 0.130151
H	-0.96224572	 1.9413102194	 0.4461836303	 0.132114
H	 0.7598595457	-0.4993187102	-0.304710325	 0.096508
H	 0.0144369936	-0.2209301352	 1.2793084249	 0.096848
H	-0.5357978419	-2.4994280277	-0.527807632	 0.073797
H	-1.6498653892	-3.4231542789	 1.5572981837	 0.131032
H	-1.6542930678	-1.7313113073	 2.1192891651	 0.135017
H	-2.8181881201	-3.4172077254	-1.0246794355	 0.115573
H	-3.0901208075	-0.689581089	-1.5713641944	 0.296636
55.428	81.3114	114.9526	139.668	212.6662	250.0017	274.5106	341.4358	395.3577	419.3515	463.3418	558.	582.0473	714.4272	752.7174	821.0395	836.5626	881.2163	930.6902	975.4726	1028.9222	1052.5462	1085.643	1114.9442	1151.2195	1172.6612	1187.0881	1188.54	1236.5044	1252.6395	1298.9194	1325.7862	1356.5437	1403.5213	1421.5382	1437.764	1441.2659	1484.5633	1499.8807	1528.0181	1902.8958	2976.8609	3009.0008	3037.2184	3046.2343	3046.8056	3067.1904	3122.5772	3123.7849	3132.6728	3775.9211
CCOC1CC(=O)C1O	CCO[C@H]1CC(=O)[C@H]1O	
InChI=1S/C6H10O3/c1-2-9-5-3-4(7)6(5)8/h5-6,8H,2-3H2,1H3	InChI=1S/C6H10O3/c1-2-9-5-3-4(7)6(5)8/h5-6,8H,2-3H2,1H3/t5-,6+/m0/s1
