17
gdb 55718	2.28869	1.43661	1.01398	3.0515	74.81	-0.2452	0.016	0.2613	1177.0758	0.134888	-417.977633	-417.968374	-417.96743	-418.012363	34.265	
N	 0.5760559793	 0.5950608752	 0.4887524462	-0.505873
C	-0.3828868773	 0.1729788509	-0.3876311333	 0.402182
O	-0.4160846454	 0.5103723472	-1.556302439	-0.361971
C	-1.4242111325	-0.7831012616	 0.1947300551	-0.393967
C	-0.903756933	-2.2226010098	 0.1475260319	 0.083862
C	-1.7702590269	-3.2741478218	-0.4714288331	-0.270139
N	-0.5850627511	-2.793551742	-1.1816683024	-0.32882
C	 0.0048755234	-2.5695332691	 1.2154625393	 0.352397
C	 0.7378251779	-2.814509269	 2.1377118065	-0.46031
H	 1.3759831916	 1.0612238453	 0.087924983	 0.260812
H	 0.7251681486	 0.0832288205	 1.3445144196	 0.26399
H	-1.6896347365	-0.5172698884	 1.2221520625	 0.122941
H	-2.3132957576	-0.692865196	-0.4324946229	 0.128168
H	-1.7030266633	-4.2965644853	-0.1123711882	 0.131114
H	-2.7582070871	-2.9656897721	-0.8042609321	 0.121003
H	-0.8310058088	-2.1070571513	-1.8936497126	 0.253213
H	 1.3892706387	-3.0671308027	 2.9377757297	 0.201398
42.0109	68.5749	128.9226	181.7324	232.0906	321.1082	362.625	432.1816	449.2546	524.1122	536.6653	559.0686	587.9895	614.0572	658.5426	664.8068	776.4216	841.9573	887.9033	905.0157	942.1346	973.2553	994.6285	1081.5109	1117.1948	1144.5552	1181.1514	1245.2996	1292.6935	1318.3114	1372.3378	1379.9122	1474.7128	1506.591	1630.3469	1795.8935	2231.3309	3061.821	3108.9866	3123.7096	3201.185	3485.0665	3499.1447	3572.7026	3699.479
NC(=O)CC1(CN1)C#C	NC(=O)C[C@]1(CN1)C#C	
InChI=1S/C6H8N2O/c1-2-6(4-8-6)3-5(7)9/h1,8H,3-4H2,(H2,7,9)	InChI=1S/C6H8N2O/c1-2-6(4-8-6)3-5(7)9/h1,8H,3-4H2,(H2,7,9)/t6-/m0/s1
