19
gdb 88627	3.71676	1.0401	0.97127	2.9502	75.5	-0.2395	0.0736	0.3131	1281.9768	0.15845	-422.954397	-422.946045	-422.945101	-422.988175	31.357	
C	-0.6281289596	 1.224148556	 0.476248002	-0.417829
C	 0.1817360318	 0.0455739726	-0.0011420399	 0.072286
O	 1.4358506512	 0.3180806876	-0.6370950068	-0.268736
C	 1.447828455	-0.3989224118	 0.6076486661	 0.03603
C	 2.1089978954	 0.2879753883	 1.7574477713	-0.065451
C	 2.0495471892	-0.1863621333	 3.2048803285	-0.154344
C	 2.1655051018	-1.7057146533	 3.2683884443	-0.09349
O	 3.3406428033	-1.6910486246	 2.4110959868	-0.282054
C	 3.3396051085	-0.2599095464	 2.4200160723	 0.070628
H	-0.0159717225	 1.9439301682	 1.0232690698	 0.123124
H	-1.0816153825	 1.7418690694	-0.375466953	 0.129488
H	-1.4381334973	 0.8872681024	 1.1324326589	 0.120781
H	-0.4040458686	-0.7200861652	-0.5157302973	 0.084429
H	 1.7174351556	-1.4495604583	 0.5060609462	 0.106555
H	 2.1194323338	 1.3717418496	 1.6852926632	 0.104143
H	 1.750240155	 0.4600787073	 4.0185973455	 0.101426
H	 2.4309150941	-2.0744913909	 4.2652195244	 0.114471
H	 1.3503303423	-2.3108880416	 2.8558984429	 0.109828
H	 4.2943343534	 0.246184174	 2.5045781247	 0.108715
38.7107	134.9828	159.9156	185.4663	225.7495	326.3	408.0807	433.2786	545.5594	589.5141	763.2301	774.0162	796.4168	804.7868	862.1653	933.9084	964.6129	965.9427	978.4855	1002.5287	1010.8259	1051.5783	1065.2075	1079.4425	1098.5177	1119.2225	1155.754	1164.581	1183.7111	1203.8866	1257.6418	1299.2881	1307.283	1323.1726	1379.9237	1408.4038	1431.4385	1477.4988	1488.4595	1514.2764	1518.9739	3029.3754	3038.6999	3075.4822	3077.42	3099.4006	3121.4994	3131.6035	3159.723	3180.6019	3205.0491
CC1OC1C1C2COC12	C[C@H]1O[C@H]1[C@H]1[C@H]2CO[C@@H]12	
InChI=1S/C7H10O2/c1-3-6(9-3)5-4-2-8-7(4)5/h3-7H,2H2,1H3	InChI=1S/C7H10O2/c1-3-6(9-3)5-4-2-8-7(4)5/h3-7H,2H2,1H3/t3-,4-,5-,6-,7-/m1/s1
