22
gdb 109736	2.0102	1.44691	0.98573	3.4572	84.29	-0.2369	0.018	0.2549	1314.0715	0.191803	-404.366077	-404.355473	-404.354529	-404.401855	38.044	
C	-0.2346862773	 1.5244993785	 0.45994517	-0.387522
C	-0.087596578	 0.0392762282	 0.1048665619	-0.195646
C	-1.424063818	-0.6207441499	-0.1712984666	-0.005434
C	-1.6465873352	-2.1188324719	-0.1420804325	-0.036533
C	-0.5412361014	-3.101792643	 0.172774193	-0.415117
N	-2.2151471708	-1.2443043786	 0.8661038217	-0.08777
C	-2.0636273557	-1.2070584294	 2.2387791735	 0.372448
C	-2.4213787205	-2.503896223	 2.9461692787	-0.472744
O	-1.747394244	-0.1988026917	 2.8393868459	-0.351329
H	 0.74574161	 1.9851930764	 0.6144939625	 0.107524
H	-0.7371027224	 2.0740211242	-0.3440116848	 0.107001
H	-0.8205583195	 1.6312214841	 1.3751374878	 0.160414
H	 0.5346729141	-0.0706536812	-0.7933585401	 0.097354
H	 0.4311006446	-0.4773528763	 0.9168795365	 0.108418
H	-2.0307822122	-0.0720029187	-0.8940097467	 0.094345
H	-2.3855187751	-2.5083579969	-0.8436028934	 0.095441
H	 0.1900916092	-2.6938204247	 0.873921595	 0.130782
H	-0.9475496731	-4.0229297849	 0.6029280814	 0.128491
H	-0.0146250267	-3.374681415	-0.747974376	 0.12996
H	-1.5492331047	-3.1665452358	 2.9692678066	 0.139813
H	-2.7040785513	-2.2770701986	 3.9746655098	 0.146436
H	-3.2317765922	-3.0322302718	 2.4383664958	 0.133668
75.2511	90.56	119.3504	129.5707	152.8284	175.8949	231.3742	244.6923	282.2391	354.5989	448.9068	460.285	510.5036	606.0641	629.2992	674.3858	779.1472	804.7389	857.3549	973.1523	989.7088	1002.7507	1031.9628	1048.3841	1066.3092	1092.4868	1135.7084	1153.5444	1168.1712	1200.4372	1221.3519	1296.0957	1340.6766	1380.0603	1397.8055	1406.6353	1409.6756	1417.7596	1460.3967	1472.8599	1475.8078	1480.0246	1492.2626	1498.1886	1506.5647	1518.2866	1768.7713	3022.406	3036.608	3040.1182	3046.9132	3079.2598	3089.5809	3094.9528	3098.7358	3105.6714	3115.0214	3132.0874	3141.4416	3156.0704
CCC1C(C)N1C(C)=O	CC[C@H]1[C@@H](C)N1C(=O)C	
InChI=1S/C7H13NO/c1-4-7-5(2)8(7)6(3)9/h5,7H,4H2,1-3H3	InChI=1S/C7H13NO/c1-4-7-5(2)8(7)6(3)9/h5,7H,4H2,1-3H3/t5-,7+,8?/m1/s1
