15
gdb 52374	6.66408	0.58509	0.5415	4.4225	70.85	-0.2618	-0.0675	0.1943	1883.836	0.106887	-457.723353	-457.713312	-457.712368	-457.760425	32.907	
O	-0.1441042076	 0.2140771696	 0.6361586666	-0.23486
C	 0.0831687149	 1.0997276472	-0.1431848378	 0.137961
C	 1.3794920426	 1.8944316639	-0.1480773492	-0.143906
O	 1.3038594415	 2.8405645998	-1.1859532209	-0.229499
C	 2.4400764531	 3.6412058893	-1.2983380258	-0.165625
C	 2.2650907957	 4.6312169561	-2.4441976162	 0.229196
O	 1.2773731673	 4.6891239207	-3.1340311558	-0.252846
C	 3.4095856486	 5.508867364	-2.6319653032	 0.247229
C	 4.3635629714	 6.2283709109	-2.775918845	-0.422454
H	-0.63601137	 1.4153045214	-0.9293922198	 0.109971
H	 1.5080353156	 2.3710644571	 0.8381672254	 0.126567
H	 2.2234128299	 1.1974784291	-0.2836438297	 0.126586
H	 2.6390372778	 4.2162122062	-0.3760168489	 0.125064
H	 3.3515759288	 3.0481138477	-1.4940677357	 0.125078
H	 5.1981410205	 6.8721296073	-2.916744694	 0.221539
38.7972	58.0776	80.2444	88.1995	124.2488	159.4536	250.2327	265.0363	351.7083	465.2966	572.9245	581.2949	609.0832	666.3046	712.3868	742.6703	857.7473	1012.2536	1014.4922	1071.0408	1115.1148	1122.8164	1205.2287	1234.8156	1252.7099	1341.7348	1394.0519	1420.2086	1464.4662	1499.6847	1795.183	1846.1669	2213.6303	2913.858	2947.3076	2967.4152	2971.2131	2998.0833	3492.9135
O=CCOCC(=O)C#C	O=CCOCC(=O)C#C	
InChI=1S/C6H6O3/c1-2-6(8)5-9-4-3-7/h1,3H,4-5H2	InChI=1S/C6H6O3/c1-2-6(8)5-9-4-3-7/h1,3H,4-5H2
