23
gdb 104613	2.87276	0.966	0.86649	3.1046	81.96	-0.2493	0.0797	0.3289	1487.9118	0.203577	-425.417226	-425.406809	-425.405865	-425.452827	38.897	
C	-0.0025749243	 1.6560736135	-0.1564919466	-0.398082
C	 0.4308686527	 0.1935918169	-0.2772595614	-0.248096
C	 0.7736906526	-0.5069309737	 1.0302007316	 0.396068
C	 1.0526944364	-2.0013626577	 0.9130367884	-0.299736
C	-0.2246607265	-2.8648378102	 0.9235833956	 0.159547
C	 0.0692394277	-4.3189231373	 0.5727545698	-0.383054
O	-0.8258728411	-2.8586917342	 2.2077029364	-0.44923
C	 1.3130564987	 0.2362742231	 2.180295934	-0.229816
O	-0.0678669176	-0.15052686	 2.1592447924	-0.28058
H	 0.8257493855	 2.3044645648	 0.145485832	 0.11624
H	-0.3691166652	 2.0237003213	-1.118860996	 0.11635
H	-0.8034502592	 1.7607702143	 0.5796209729	 0.140379
H	-0.3678557844	-0.3815883511	-0.7630237834	 0.11388
H	 1.303115463	 0.1088245851	-0.9382374526	 0.107335
H	 1.6139885592	-2.1786722991	-0.012111524	 0.098457
H	 1.6808606827	-2.3376652259	 1.7451740088	 0.103688
H	-0.9295538302	-2.463081296	 0.1734709031	 0.060162
H	 0.4442304279	-4.4105333885	-0.4512562586	 0.10448
H	 0.8142431395	-4.7343110267	 1.2592561937	 0.117443
H	-0.8438360151	-4.9131418642	 0.6648414017	 0.124538
H	-0.824772443	-1.9415481223	 2.5140128697	 0.293034
H	 1.931421062	-0.2864042934	 2.9084063797	 0.118369
H	 1.4810425386	 1.3089065513	 2.119488423	 0.118625
59.3985	69.8351	106.4685	189.7085	224.7914	228.4348	263.8437	304.1995	333.2736	369.0681	409.1349	454.3571	494.5153	538.5197	567.3823	698.1887	771.5108	818.9072	859.3519	905.6225	918.0514	939.7841	966.6265	1018.8497	1054.3033	1075.092	1099.1726	1116.3549	1139.6307	1161.8201	1178.6099	1202.038	1259.1322	1302.2226	1311.3573	1335.7498	1379.4626	1385.184	1397.5591	1403.8776	1422.0154	1459.5795	1469.8358	1482.6144	1485.9799	1496.4762	1499.3912	1510.7818	1532.1471	2933.8324	3021.6754	3032.2087	3039.1041	3045.1762	3053.5745	3079.1854	3093.7152	3109.6269	3110.5683	3120.4429	3129.1531	3182.5442	3739.1303
CCC1(CC(C)O)CO1	CC[C@@]1(C[C@@H](C)O)CO1	
InChI=1S/C7H14O2/c1-3-7(5-9-7)4-6(2)8/h6,8H,3-5H2,1-2H3	InChI=1S/C7H14O2/c1-3-7(5-9-7)4-6(2)8/h6,8H,3-5H2,1-2H3/t6-,7-/m1/s1
