22
gdb 70567	2.462	1.68159	1.371	1.3174	84.75	-0.216	0.0838	0.2999	1069.4609	0.196638	-367.18368	-367.175765	-367.174821	-367.215382	32.944	
C	-0.0503128154	 1.4806174714	-0.0131008208	-0.477317
C	-0.037031491	-0.0367168023	 0.0285931057	 0.360858
C	-0.84501513	-0.715590206	 1.1099485771	-0.344206
C	 0.6629880403	-0.7154032394	 1.1934402174	-0.053344
C	 1.4752263307	-1.9694597585	 0.8986285581	-0.259962
C	 2.1516254886	-1.8931389848	-0.4858691351	-0.135776
N	 1.2900116478	-1.5504679412	-1.6204588363	-0.098335
C	-0.0611304201	-2.1099082367	-1.6381135123	-0.274266
C	 0.143672408	-0.6650867415	-1.3344947723	-0.065004
H	 0.8633837913	 1.8735155288	-0.474095415	 0.120248
H	-0.9022347373	 1.853856759	-0.5941375176	 0.116734
H	-0.1253685489	 1.9029373424	 0.993652641	 0.111195
H	-1.3949230385	-0.0800968951	 1.7965975006	 0.105957
H	-1.3431413714	-1.6520487873	 0.8802855975	 0.107116
H	 1.0985400305	-0.0451407122	 1.9287532888	 0.081019
H	 2.2558023704	-2.0966415411	 1.6554309594	 0.100925
H	 0.8505462359	-2.8672898945	 0.9662980714	 0.102521
H	 2.9418703431	-1.1324261281	-0.4549225571	 0.102186
H	 2.6365859076	-2.84809473	-0.7180188614	 0.102169
H	-0.4275443115	-2.4088764507	-2.6172165132	 0.109966
H	-0.3717978938	-2.7697304588	-0.8330637333	 0.105468
H	-0.0512696765	 0.0316739266	-2.1484276425	 0.081847
153.2965	204.7411	237.6473	294.0714	325.8446	339.884	432.4612	449.9399	483.5743	505.7177	599.8535	693.7454	737.964	781.2384	842.1988	862.6422	898.0609	929.159	945.7729	952.6904	988.4086	1017.2532	1049.3049	1059.3756	1066.9773	1112.2903	1120.125	1130.3876	1135.5035	1153.1017	1173.7705	1228.5648	1246.8669	1274.5595	1310.8702	1331.3005	1363.1038	1378.6608	1401.9755	1417.1898	1429.8334	1482.1138	1488.9465	1491.1297	1495.9783	1503.3613	1520.9792	3020.3732	3023.0554	3033.5984	3065.5707	3076.049	3080.252	3098.7555	3105.6254	3108.9947	3123.6327	3142.0818	3186.4635	3207.3521
CC12CC1CCN1CC21	C[C@]12C[C@H]1CCN1C[C@@H]21	
InChI=1S/C8H13N/c1-8-4-6(8)2-3-9-5-7(8)9/h6-7H,2-5H2,1H3	InChI=1S/C8H13N/c1-8-4-6(8)2-3-9-5-7(8)9/h6-7H,2-5H2,1H3/t6-,7+,8+,9?/m1/s1
