18
gdb 76110	2.9872	1.37583	1.13499	3.216	76.36	-0.2432	0.0089	0.2521	1113.0152	0.147977	-398.095943	-398.087116	-398.086172	-398.129158	33.137	
C	 0.0887506207	 1.5314968195	 0.0559721878	-0.50012
C	-0.0542091499	 0.0419555296	-0.0324448733	 0.374722
C	-0.9245968674	-0.7514890345	 0.8589361382	-0.301237
N	 0.5380226616	-0.9189238223	 1.0061615389	-0.170775
C	 0.9568467022	-1.8334921522	-0.1168176966	-0.166431
C	 0.3393641451	-3.149506927	-0.1438466746	 0.302362
N	-0.1950234432	-4.1729796011	-0.2198009121	-0.334782
C	 0.4416331718	-0.7952248547	-1.2098755759	-0.059698
N	-0.4999151083	-1.1053439012	-2.2489721475	-0.513158
H	 1.1004826537	 1.8499638925	-0.2165446661	 0.124845
H	-0.6153872101	 2.0194191898	-0.6270320649	 0.138752
H	-0.1187117272	 1.885072453	 1.0697057354	 0.133105
H	-1.36369438	-0.228049319	 1.702421088	 0.131136
H	-1.5199093615	-1.5876751375	 0.5002784099	 0.130753
H	 2.0435569204	-1.9394767123	-0.1117692542	 0.125941
H	 1.3161431252	-0.3273271329	-1.6693255365	 0.102229
H	-0.0639914207	-1.6235140563	-3.0044258467	 0.240081
H	-1.2712784723	-1.6681541835	-1.9057191798	 0.242274
104.509	127.2066	169.2119	193.5979	235.4665	279.5867	309.8536	368.1617	439.388	500.046	546.0303	626.184	675.3844	737.3821	750.8103	799.0958	855.1504	879.5547	946.3064	973.8105	1021.2572	1056.5872	1081.7358	1128.1278	1133.5962	1135.6984	1181.952	1212.7737	1258.9849	1313.0256	1341.1479	1375.9392	1418.0582	1449.7635	1482.1392	1491.9005	1510.7455	1668.2574	2342.4307	3033.2471	3077.4174	3094.3655	3097.9554	3113.0946	3116.2621	3201.1717	3510.9336	3589.2482
CC12CN1C(C#N)C2N	C[C@]12CN1[C@@H](C#N)[C@H]2N	
InChI=1S/C6H9N3/c1-6-3-9(6)4(2-7)5(6)8/h4-5H,3,8H2,1H3	InChI=1S/C6H9N3/c1-6-3-9(6)4(2-7)5(6)8/h4-5H,3,8H2,1H3/t4-,5+,6+,9?/m0/s1
