15
gdb 131484	3.98921	1.15062	0.96815	5.1657	67.42	-0.249	-0.0308	0.2182	1165.5988	0.112376	-453.898952	-453.891327	-453.890382	-453.931854	28.395	
O	 0.0408838809	 1.3945679011	 0.6984778735	-0.417661
C	 0.0570774493	 0.1041077219	 0.159307852	 0.09741
C	-0.5095069949	-1.038570379	 0.9534831272	-0.33016
C	-1.2708164778	-0.4769944924	-0.2461073101	-0.147651
C	-2.5329341985	 0.2627332961	-0.0785721707	 0.273498
C	-2.8782569686	 1.3933080885	 0.5971303245	-0.049862
O	-4.1757229128	 1.6314052171	 0.413623698	-0.164501
N	-4.6593193261	 0.5912615444	-0.4312695459	-0.008053
N	-3.6945201804	-0.172140862	-0.6914038332	-0.18885
H	 0.7173390293	 1.4391959503	 1.382417439	 0.294937
H	 0.8997414916	-0.0993494952	-0.5003551482	 0.101088
H	-0.0616779179	-2.0220157594	 0.8652547585	 0.124514
H	-0.9141410973	-0.7980511041	 1.9307131079	 0.124385
H	-1.2695447233	-1.0940234662	-1.1377588912	 0.116625
H	-2.3169729935	 2.0854316387	 1.1979273586	 0.174283
44.2625	152.1453	172.5185	284.4305	314.7101	363.9897	448.7048	531.4352	648.3491	651.1029	692.0761	733.0288	788.0943	844.5878	862.7898	943.1243	988.3461	1005.2256	1034.8269	1055.6501	1085.4837	1132.4088	1144.3557	1175.4616	1207.131	1239.7886	1291.7399	1322.0146	1391.6342	1422.1124	1461.5577	1495.1387	1622.5139	3108.5087	3135.5326	3174.63	3229.7736	3319.5593	3808.8013
OC1CC1C1=CON=N1	O[C@H]1C[C@H]1c1conn1	
InChI=1S/C5H6N2O2/c8-5-1-3(5)4-2-9-7-6-4/h2-3,5,8H,1H2	InChI=1S/C5H6N2O2/c8-5-1-3(5)4-2-9-7-6-4/h2-3,5,8H,1H2/t3-,5-/m0/s1
