19
gdb 106654	2.83512	1.28586	1.05268	3.5493	77.68	-0.2383	-0.0072	0.2311	1203.2232	0.156728	-423.011048	-423.001652	-423.000707	-423.045388	34.239	
C	 0.1687226825	 1.2862619435	 0.2135964849	-0.259278
O	-0.1699472469	-0.0495004688	-0.1317256516	-0.283439
C	 0.5177373612	-0.5287853585	-1.2177937708	 0.412899
C	 1.9139824625	-1.0425390177	-1.1409263263	-0.386678
C	 0.7861040902	-2.028011068	-1.4988568751	 0.117597
C	 0.517783109	-3.2711580528	-0.7014148755	-0.497242
C	 0.3844959528	-1.775622642	-2.9232663334	 0.386975
O	 0.151790306	-2.5000461577	-3.8499974397	-0.316195
C	 0.1389986647	-0.2588245158	-2.6850747033	-0.435757
H	 1.2374305629	 1.379014866	 0.4498089136	 0.115817
H	-0.0754197538	 1.9863223656	-0.5970996824	 0.118551
H	-0.4207260691	 1.5432325235	 1.0958383286	 0.134075
H	 2.6711492579	-0.7626124956	-1.8685773309	 0.118345
H	 2.290482104	-1.2046292144	-0.1350982085	 0.126386
H	 0.579100825	-3.061897631	 0.3708402579	 0.129168
H	-0.4804912082	-3.6644502633	-0.9154994434	 0.1348
H	 1.2439502718	-4.0560736742	-0.9366184682	 0.134403
H	-0.9241514161	-0.0350195883	-2.81622059	 0.134941
H	 0.7404524537	 0.4583895595	-3.2513096059	 0.114631
75.9898	101.1475	141.6363	154.7	188.0156	235.4595	279.9728	353.2041	423.8519	447.8311	515.4932	566.972	629.9466	664.4506	747.0891	790.2068	853.2529	957.6287	971.2031	987.7308	1020.1216	1051.0214	1070.6498	1102.3891	1118.0835	1173.4162	1180.2334	1190.5513	1220.6042	1241.0717	1347.4282	1383.1911	1415.393	1454.2098	1478.2159	1482.4282	1488.2622	1497.3266	1504.0491	1508.5883	1877.0308	2997.9823	3037.2172	3051.1276	3054.9988	3102.7943	3109.4571	3109.6694	3112.5403	3129.3159	3200.6534
COC12CC1(C)C(=O)C2	CO[C@@]12C[C@]1(C)C(=O)C2	
InChI=1S/C7H10O2/c1-6-4-7(6,9-2)3-5(6)8/h3-4H2,1-2H3	InChI=1S/C7H10O2/c1-6-4-7(6,9-2)3-5(6)8/h3-4H2,1-2H3/t6-,7+/m1/s1
