16
gdb 17004	3.547	2.30844	2.17203	1.0031	62.72	-0.2279	0.0515	0.2794	721.294	0.131612	-383.671744	-383.66549	-383.664546	-383.701875	25.009	
C	 0.0726860515	 1.6062502673	-0.2711214744	-0.368011
C	 1.2979705783	 0.7831720213	 0.0083460251	 0.336815
C	 1.9089509886	 0.6379551531	 1.3857315728	-0.322736
C	 0.915478808	-0.347632925	 2.0855391774	-0.085018
O	-0.3449739422	-0.2431211385	 1.3812946138	-0.292021
C	-0.0540211778	 0.1404481759	 0.0804353207	 0.257189
C	 0.4660474358	-0.7687615059	-1.0381795836	-0.147509
O	 1.7100036418	-0.0073060668	-1.1221096674	-0.324136
H	-0.2347045802	 2.2840708408	 0.5170712456	 0.129021
H	-0.1202997089	 1.9424727915	-1.2854951616	 0.122737
H	 2.9177224621	 0.2235158513	 1.3295186129	 0.128657
H	 1.9618137728	 1.5936544145	 1.9140039387	 0.118178
H	 1.2895026754	-1.3787995142	 2.0231381686	 0.107342
H	 0.7264090301	-0.1138531048	 3.1368550151	 0.114967
H	 0.6511986466	-1.7940405928	-0.6987099916	 0.114008
H	-0.0766030819	-0.7815969377	-1.989971182	 0.110514
132.5006	228.5158	354.228	370.2154	426.24	554.625	618.1935	656.0353	769.7604	798.4655	840.9575	870.5169	904.6676	913.4403	940.4073	977.587	979.3018	1003.4906	1035.1539	1067.0122	1141.8946	1155.5012	1189.8002	1224.9969	1240.3527	1282.8838	1301.9696	1325.3927	1359.8088	1388.6123	1459.3373	1475.6514	1508.0345	1516.7108	3010.779	3026.9803	3066.7501	3081.2659	3094.1372	3124.5616	3126.0574	3228.3748
C1C23CCOC12CO3	C1[C@@]23CCO[C@@]12CO3	
InChI=1S/C6H8O2/c1-2-7-6-3-5(1,6)8-4-6/h1-4H2	InChI=1S/C6H8O2/c1-2-7-6-3-5(1,6)8-4-6/h1-4H2/t5-,6+/m0/s1
