19
gdb 95277	2.68347	1.71079	1.24543	0.9713	75.41	-0.2361	0.0248	0.2609	1031.9387	0.161388	-423.037929	-423.030231	-423.029287	-423.070282	30.161	
O	 0.0683320351	 1.4306463146	-0.1056605332	-0.430603
C	 0.0429812098	 0.022875774	 0.0367213405	 0.103984
C	 0.5251039837	-0.4985296591	 1.3984790041	-0.116601
O	-0.0640910193	-1.7810355513	 1.5302790234	-0.268722
C	-1.3430366508	-1.7896020421	 0.875579864	 0.107079
C	-2.5130492185	-1.6853805701	 1.8858375451	-0.271227
C	-2.9855115885	-0.260456118	 1.7451635184	-0.080172
C	-2.3989891138	 0.3729881196	 0.7307220882	-0.051345
C	-1.4058759485	-0.5020112725	 0.0027603776	-0.120411
H	 0.9870365108	 1.7131865633	-0.1442948945	 0.287716
H	 0.6225016649	-0.461151137	-0.7634345121	 0.071091
H	 1.6114194979	-0.6185575688	 1.4667137182	 0.09562
H	 0.1960616656	 0.1952171354	 2.1874752706	 0.098652
H	-1.3886279942	-2.7159928592	 0.2960535856	 0.076648
H	-3.3146350474	-2.3985425033	 1.650462787	 0.102839
H	-2.1582237435	-1.9326413006	 2.8927707936	 0.116861
H	-3.7381669361	 0.171592996	 2.396327765	 0.092032
H	-2.5825928198	 1.3970068349	 0.4311418191	 0.105941
H	-1.7225755975	-0.6969774257	-1.0273470207	 0.080616
67.1817	168.635	200.7056	257.1929	318.4183	414.7874	416.6309	504.8259	606.0544	614.3447	733.3105	770.5493	817.5265	839.2431	863.8976	923.2008	955.8846	977.6333	985.1549	996.2042	1034.8642	1073.6698	1081.5192	1111.0044	1129.5842	1135.0202	1192.058	1218.4737	1231.0328	1245.7934	1274.3465	1310.9477	1330.5511	1332.2842	1367.771	1373.9194	1390.0498	1431.3704	1472.3556	1517.7839	1683.9959	2983.2028	2993.2591	3016.2377	3044.9483	3062.4247	3067.3775	3073.0558	3183.6088	3221.6678	3825.7616
OC1COC2CC=CC12	O[C@H]1CO[C@H]2CC=C[C@@H]12	
InChI=1S/C7H10O2/c8-6-4-9-7-3-1-2-5(6)7/h1-2,5-8H,3-4H2	InChI=1S/C7H10O2/c8-6-4-9-7-3-1-2-5(6)7/h1-2,5-8H,3-4H2/t5-,6-,7-/m0/s1
