21
gdb 62634	2.65299	1.82159	1.61002	1.2659	80.08	-0.2543	0.0758	0.3301	960.6724	0.184908	-387.106231	-387.098717	-387.097773	-387.137391	32.008	
C	-0.1259307826	 1.5532572137	 0.0014040581	-0.466279
C	 0.0087235933	 0.0301051362	 0.0098481006	 0.433106
O	-1.2906194691	-0.5546787763	-0.1021013757	-0.48793
C	 0.8851645791	-0.5392878549	-1.0999274752	-0.068233
C	 2.3007262731	-0.6228553972	-0.5607125969	-0.064421
C	 2.2723557589	-0.1157464223	 0.8799773809	-0.234525
C	 0.828577107	-0.5683861785	 1.1998507444	-0.1112
C	 0.8799890934	-2.0649462777	 0.8109212914	-0.219205
C	 1.4263861534	-1.8626242538	-0.6009159793	-0.062245
H	 0.8401515386	 2.0619997027	-0.016705147	 0.123484
H	-0.6913074749	 1.8650298234	-0.8819545614	 0.122984
H	-0.669867057	 1.9002204737	 0.8894869548	 0.100725
H	-1.8396459233	-0.1798846702	 0.5951370361	 0.270602
H	 0.6675828181	-0.3555445251	-2.1439650942	 0.07945
H	 3.1621960337	-0.5089004761	-1.2057120773	 0.078363
H	 3.0118057649	-0.614137421	 1.5166013563	 0.093332
H	 2.4246521459	 0.9631827191	 0.9696834354	 0.092548
H	 0.4512561525	-0.3329791998	 2.1963089482	 0.049172
H	 1.557382125	-2.6381361105	 1.4529623825	 0.084317
H	-0.1071608469	-2.5299390751	 0.818733458	 0.107296
H	 1.6296869867	-2.6827805905	-1.2765477798	 0.07866
190.0351	221.5105	261.0472	289.5783	367.0074	387.9075	448.6712	461.7029	548.341	587.4682	692.7387	717.8703	814.317	820.5767	844.3823	889.6679	918.3927	926.6797	938.2978	950.209	961.0948	990.6617	995.3003	1034.3048	1068.8036	1074.2284	1076.8405	1108.1408	1149.8071	1155.2929	1165.7353	1187.4389	1235.5692	1254.2159	1280.5034	1285.1168	1309.0624	1326.6938	1390.939	1400.3642	1404.1515	1483.2237	1489.159	1493.9	1515.1722	3023.5091	3043.5158	3050.8134	3088.4348	3094.4494	3103.5487	3119.9478	3128.4976	3193.3971	3195.8334	3209.1852	3801.761
CC1(O)C2C3CC1CC23	C[C@@]1(O)[C@H]2[C@H]3C[C@@H]1C[C@@H]23	
InChI=1S/C8H12O/c1-8(9)4-2-5-6(3-4)7(5)8/h4-7,9H,2-3H2,1H3	InChI=1S/C8H12O/c1-8(9)4-2-5-6(3-4)7(5)8/h4-7,9H,2-3H2,1H3/t4-,5+,6-,7+,8-/m0/s1
