19
gdb 107226	3.88282	1.21528	1.10282	1.7444	73.75	-0.2214	0.0582	0.2795	1138.2095	0.161406	-419.147084	-419.139293	-419.138349	-419.179585	30.744	
O	 0.1463789984	 1.2938733779	-0.3780467968	-0.421176
C	 0.066600913	 0.0166669229	 0.2360171358	-0.13181
C	-1.3438847274	-0.5185080963	 0.2054229051	 0.297729
C	-2.412615482	 0.0841721722	 1.1238533322	-0.250737
N	-3.3487001794	-0.9889394081	 1.5408433078	-0.090992
C	-4.2313265047	-1.5301589381	 0.5035888584	-0.26716
C	-2.9542282494	-2.2207720155	 0.8196237284	-0.021744
C	-1.7161789268	-1.9497588491	-0.0062218672	-0.107064
N	-1.7669821518	-0.9978699073	-1.125316131	-0.378925
H	-0.1549508873	 1.1716068047	-1.2860189863	 0.28883
H	 0.7357133107	-0.7063022108	-0.2529991732	 0.093558
H	 0.4074985497	 0.1514210878	 1.2679064337	 0.109011
H	-1.9348146624	 0.4790687226	 2.0265439839	 0.118949
H	-2.9552311142	 0.9149936962	 0.6584666054	 0.114122
H	-5.169178725	-1.9356121742	 0.8760187779	 0.121928
H	-4.3381655821	-1.0007404232	-0.4411072766	 0.106878
H	-2.963318238	-3.1470405838	 1.3879170266	 0.095834
H	-0.9891631379	-2.74947909	-0.108829746	 0.096537
H	-2.7207628634	-0.7290134279	-1.3452785181	 0.226231
62.3331	136.4593	241.9851	279.9092	345.6561	375.8871	439.0951	447.0264	549.4918	655.0903	700.9654	735.2578	766.6762	816.4363	866.4412	886.1959	932.0228	959.495	988.1009	1020.6018	1030.7293	1055.3454	1068.8094	1105.6742	1109.8852	1122.5989	1148.9381	1163.5776	1197.5369	1231.6945	1271.8425	1291.0888	1314.9488	1333.9823	1371.9239	1384.3448	1419.9856	1439.508	1491.992	1499.2696	1517.5017	2998.3371	3038.9659	3073.8659	3080.6299	3093.8407	3140.1969	3160.58	3170.4322	3521.8848	3794.0197
OCC12CN3CC3C1N2	OC[C@]12CN3C[C@H]3[C@H]1N2	
InChI=1S/C6H10N2O/c9-3-6-2-8-1-4(8)5(6)7-6/h4-5,7,9H,1-3H2	InChI=1S/C6H10N2O/c9-3-6-2-8-1-4(8)5(6)7-6/h4-5,7,9H,1-3H2/t4-,5+,6+,8?/m0/s1
