14
gdb 12291	3.16154	2.34532	1.35748	5.1837	67.63	-0.2181	-0.0592	0.1589	848.4694	0.108405	-378.750293	-378.743235	-378.742291	-378.783294	26.037	
N	-0.0332701282	 1.224153905	 0.5154388061	-0.474712
C	 0.0246349188	 0.0469293963	 0.0277323197	 0.27736
N	 1.1776289961	-0.6731842669	-0.2405673931	-0.373333
C	 1.2152393729	-1.960422566	-0.7745564982	 0.014743
C	 0.1201608647	-2.6500220911	-1.0905654764	-0.124203
C	-1.2478416655	-2.0754503413	-0.8884871442	-0.377811
C	-1.2956357013	-0.6639556273	-0.3032055678	 0.356738
O	-2.3445338991	-0.1107572185	-0.1015280918	-0.274988
H	 0.900351818	 1.6018790075	 0.6975156583	 0.206295
H	 2.0535871827	-0.2213274845	-0.0292406746	 0.246943
H	 2.2156836193	-2.3532249481	-0.9109491423	 0.117721
H	 0.2160080603	-3.6468552557	-1.5022898624	 0.102116
H	-1.8138052948	-2.0400098379	-1.8302459759	 0.151565
H	-1.856828184	-2.7067345215	-0.2258409673	 0.151566
12.5763	107.0463	365.0116	370.6349	460.5448	470.5607	480.9082	503.6325	541.7111	658.4058	677.3988	734.246	859.469	900.1104	944.2016	958.462	975.2261	1031.8198	1137.1697	1147.1444	1196.0295	1225.4192	1330.1192	1376.8974	1427.2901	1430.0032	1479.9382	1702.4152	1740.9612	1824.9956	3011.2619	3031.3747	3197.0769	3216.6919	3433.9644	3623.4549
N=C1NC=CCC1=O	[NH][C]1NC=CCC1=O	
InChI=1S/C5H6N2O/c6-5-4(8)2-1-3-7-5/h1,3H,2H2,(H2,6,7)	InChI=1S/C5H6N2O/c6-5-4(8)2-1-3-7-5/h1,3H,2H2,(H2,6,7)
