17
gdb 52271	3.87505	0.81302	0.7148	3.8608	71.29	-0.2493	-0.0254	0.224	1520.2969	0.135099	-455.126526	-455.117573	-455.116629	-455.16167	31.207	
N	-0.3040933697	 1.1323845255	-0.2856363898	-0.544456
C	-0.1388346235	-0.0786597143	-0.0080208787	 0.471467
O	 0.9374802928	-0.7468098946	 0.526953101	-0.24684
C	 0.2016766747	-2.0115320936	 0.5395164783	-0.106672
C	-1.0160916117	-1.3186383027	-0.109095053	-0.108169
N	-2.2134358758	-1.2737355753	 0.7102997548	-0.32612
C	-3.2481725901	-0.3750601499	 0.2020801659	-0.238624
C	-4.2781432658	-0.0942891901	 1.2803959748	 0.149619
O	-5.4524864129	 0.0667130723	 1.0753534879	-0.237012
H	 0.5166625009	 1.6924626584	-0.0486722755	 0.233858
H	 0.7154957326	-2.7686222278	-0.0562424228	 0.124503
H	 0.0354564778	-2.3552596206	 1.5626572024	 0.129123
H	-1.1886894888	-1.6227482831	-1.1539027893	 0.095911
H	-2.5882988022	-2.2132578786	 0.8014468187	 0.228614
H	-2.7676973682	 0.5845875155	-0.0348361245	 0.179049
H	-3.7623870351	-0.7209512452	-0.7079470866	 0.109954
H	-3.8414260952	-0.0368428459	 2.3028013362	 0.085795
55.4138	70.1482	100.1572	139.3074	161.6152	275.2387	345.2733	368.8599	459.6093	538.527	682.0371	735.2027	745.5527	822.152	843.5554	871.9036	950.4698	971.2559	1020.5694	1042.5854	1060.3043	1096.9063	1136.9872	1161.7414	1190.0595	1226.5301	1241.1026	1276.2334	1334.6436	1355.1981	1388.3304	1410.4852	1471.3646	1497.0605	1505.3745	1825.4305	1839.2214	2887.5138	2972.3913	2987.5648	3049.6614	3070.2081	3135.8423	3476.1032	3506.0195
N=C1OCC1NCC=O	[NH][C]1OC[C@H]1NCC=O	
InChI=1S/C5H8N2O2/c6-5-4(3-9-5)7-1-2-8/h2,4,6-7H,1,3H2	InChI=1S/C5H8N2O2/c6-5-4(3-9-5)7-1-2-8/h2,4,6-7H,1,3H2/t4-/m1/s1
