18
gdb 18042	3.75829	2.04835	1.48486	1.6923	72.2	-0.2395	0.0184	0.2578	866.6744	0.156665	-347.799915	-347.793257	-347.792313	-347.830782	26.217	
C	 0.0545517715	 1.5085033146	-0.2652329862	-0.089911
O	 1.4585730036	 1.5193512057	 0.0685797198	-0.293737
C	 1.3915059672	 0.1716436091	 0.5988296755	 0.125057
C	 1.4968774935	 0.1284960554	 2.1236005651	-0.22134
C	 0.6994732509	-1.0517108753	 2.7054630499	-0.26406
C	-0.724007267	-1.0428925629	 2.2013046669	-0.054439
C	-1.0648329254	-0.531948956	 1.0171601204	-0.076014
C	-0.047195196	-0.0053919813	 0.0571775502	-0.086458
H	-0.5321711397	 2.1571953458	 0.3989146676	 0.096916
H	-0.1221760985	 1.8048681013	-1.3052494772	 0.101274
H	 2.1489449038	-0.469955427	 0.1327697892	 0.073577
H	 2.5453682498	 0.090241184	 2.436494632	 0.097392
H	 1.0763375264	 1.061064747	 2.5147924658	 0.110814
H	 1.1843113595	-2.0066113499	 2.4531160656	 0.110947
H	 0.7085828611	-0.999348503	 3.7997507016	 0.106077
H	-1.4888344204	-1.4651299103	 2.8481491842	 0.088366
H	-2.1050637251	-0.5282926464	 0.698449664	 0.086382
H	-0.0632726252	-0.5930681506	-0.8670083545	 0.089158
96.6454	171.6951	268.871	383.6737	434.8532	487.7026	504.0209	704.4802	719.9747	760.3344	802.0709	875.2431	886.56	960.0672	984.9446	996.5912	1004.6852	1021.3614	1049.8084	1070.6501	1085.6791	1128.9442	1154.7835	1163.6601	1201.7329	1247.0536	1267.3359	1285.7201	1328.5563	1333.7332	1356.8893	1373.4096	1390.8656	1418.6262	1481.1832	1493.1237	1523.8752	1711.5837	3000.5072	3007.5019	3023.6142	3041.2669	3042.3766	3060.253	3064.6175	3089.2465	3141.078	3166.6336
C1OC2CCC=CC12	C1O[C@H]2CCC=C[C@@H]12	
InChI=1S/C7H10O/c1-2-4-7-6(3-1)5-8-7/h1,3,6-7H,2,4-5H2	InChI=1S/C7H10O/c1-2-4-7-6(3-1)5-8-7/h1,3,6-7H,2,4-5H2/t6-,7-/m0/s1
