17
gdb 99014	5.37709	0.70984	0.63201	3.129	68.28	-0.2705	-0.0367	0.2338	1678.2499	0.134557	-492.310103	-492.300376	-492.299432	-492.34567	34.105	
O	 0.1179021489	 1.4889524147	-0.0059280449	-0.415539
C	 0.0141804352	 0.1013092911	-0.0027700325	-0.111508
C	-1.4396691649	-0.3424949251	-0.0298228643	 0.369602
N	-2.341956896	 0.5445485388	-0.0512485625	-0.523489
N	-1.6097314357	-1.7379413273	-0.0273781943	-0.383079
C	-2.8015673032	-2.4182037857	-0.0489295186	 0.403027
O	-3.8945193688	-1.8807626498	-0.0728301513	-0.363836
C	-2.6948047969	-3.9435978639	-0.0412780562	-0.146297
O	-3.9630172381	-4.5190735805	-0.0642877971	-0.413252
H	-0.802125321	 1.8081301309	-0.0254320319	 0.300667
H	 0.5292463811	-0.3372516067	-0.8757718669	 0.107495
H	 0.4943802379	-0.3304731451	 0.8931443211	 0.107519
H	-3.2812958586	 0.1523907618	-0.068228805	 0.260676
H	-0.7670994385	-2.2955024723	-0.0090758981	 0.265974
H	-2.0979996837	-4.2574320985	-0.9138106486	 0.120686
H	-2.1330504916	-4.2510555068	 0.8564118378	 0.120714
H	-4.5844302261	-3.7731729155	-0.0797189365	 0.30064
56.9609	80.7916	97.2296	132.7458	136.122	282.9099	317.8463	378.5385	390.7293	413.5548	430.7017	534.6983	537.2937	611.1915	668.7234	739.5879	885.6013	934.6891	976.2893	1031.8279	1053.2857	1065.6601	1145.7774	1148.3885	1226.8931	1250.8369	1255.7217	1275.7491	1315.7548	1373.7771	1453.3581	1479.8691	1503.7601	1511.3559	1536.3488	1740.9607	1793.8872	2950.9395	2963.2054	2969.1442	2987.4969	3519.4686	3596.4256	3622.8515	3684.6508
OCC(=N)NC(=O)CO	OCC(=N)NC(=O)CO	
InChI=1S/C4H8N2O3/c5-3(1-7)6-4(9)2-8/h7-8H,1-2H2,(H2,5,6,9)	InChI=1S/C4H8N2O3/c5-3(1-7)6-4(9)2-8/h7-8H,1-2H2,(H2,5,6,9)
