21
gdb 83517	2.7831	1.71368	1.54489	1.4708	80.21	-0.2376	0.0941	0.3317	986.3393	0.185994	-387.082944	-387.075772	-387.074827	-387.113977	30.369	
C	-0.0254627656	 1.5841902145	 0.0389601792	-0.435561
C	 0.023998792	 0.0581850033	-0.0007126427	 0.013216
C	 0.9784038833	-0.591568028	-1.0360854468	-0.074658
C	 2.3360715471	-0.1245808089	-0.4576833183	-0.073608
O	 2.1289716369	-0.1305181377	 0.9702744982	-0.282252
C	 0.7761091218	-0.6019896676	 1.1712898727	 0.083934
C	 0.7925823662	-2.0913431123	 0.8336456582	-0.028922
C	-0.2917617736	-2.6914030386	-0.0272672923	-0.339234
C	 0.9199698146	-2.084047089	-0.6862394388	-0.018703
H	 0.9384182225	 2.01784084	 0.3136343957	 0.137652
H	-0.3251060965	 1.9924846076	-0.9322942288	 0.110638
H	-0.7605131887	 1.9214270778	 0.7774165049	 0.113596
H	-0.9940630746	-0.3178243863	-0.1075252127	 0.072499
H	 0.8164242246	-0.3287980525	-2.0832716623	 0.062296
H	 3.1551642486	-0.8052019226	-0.7190177571	 0.094528
H	 2.6109297573	 0.8873396392	-0.7794143047	 0.093414
H	 0.4772489578	-0.3256392698	 2.1835271421	 0.068057
H	 1.4023090204	-2.7364608248	 1.4553031506	 0.091607
H	-0.3197454341	-3.7762988737	-0.03795859	 0.110705
H	-1.2747560777	-2.2412522231	-0.101364232	 0.114456
H	 1.6173868179	-2.7435463174	-1.192034865	 0.086339
174.1122	249.9286	274.4661	281.4293	350.9569	374.6727	511.3819	548.8081	606.5923	739.3512	750.8197	808.9043	819.815	875.7447	888.7636	893.7646	903.9079	951.2325	954.8219	1004.1429	1013.3809	1028.8747	1051.9713	1063.3457	1075.3893	1087.7892	1098.7166	1121.7628	1139.3989	1186.2623	1198.1068	1225.7245	1263.0744	1288.6901	1292.8183	1297.1697	1335.3433	1361.2725	1380.7101	1404.8276	1411.9511	1492.6494	1500.6867	1505.5991	1530.9676	3018.3042	3037.1207	3053.8456	3091.382	3095.1451	3098.0044	3109.3233	3130.7461	3135.5765	3160.8468	3180.2841	3211.2895
CC1C2COC1C1CC21	C[C@H]1[C@H]2CO[C@@H]1[C@H]1C[C@@H]21	
InChI=1S/C8H12O/c1-4-7-3-9-8(4)6-2-5(6)7/h4-8H,2-3H2,1H3	InChI=1S/C8H12O/c1-4-7-3-9-8(4)6-2-5(6)7/h4-8H,2-3H2,1H3/t4-,5+,6-,7+,8-/m0/s1
