21
gdb 40491	3.89744	1.23456	1.16125	0.2965	86.06	-0.231	0.098	0.329	1158.7279	0.184375	-349.890087	-349.882574	-349.88163	-349.922272	30.842	
C	-0.290893763	 1.2290328681	-0.3613220063	-0.276969
C	 1.0963487867	 1.1870035017	 0.2239046586	-0.261445
C	 0.269678091	-0.0789041311	 0.1451362433	-0.128467
C	-0.2238955384	-0.7505012466	 1.3735003917	 0.38731
C	 0.4841337429	-1.8924924314	 2.1113716127	-0.282054
C	-0.8612904036	-2.1254017042	 2.8473835044	-0.065509
C	-1.0288627627	-0.850296002	 3.7179456423	-0.233178
C	-1.1751701601	-0.0988906607	 2.3959828864	-0.115653
C	-1.5832428738	-1.3585659855	 1.6642754769	-0.132657
H	-1.0700743287	 1.7195225816	 0.210712463	 0.113139
H	-0.3939472018	 1.3480353183	-1.4343397785	 0.109245
H	 1.9451991701	 1.2943044206	-0.4423163573	 0.108741
H	 1.2380256485	 1.6244781952	 1.2062320965	 0.112702
H	 0.5718168365	-0.7759354914	-0.6339219074	 0.078884
H	 0.7191857094	-2.7095837845	 1.4220042648	 0.091249
H	 1.365494396	-1.6654953025	 2.7245450378	 0.082664
H	-1.1237089107	-3.1074866976	 3.2353114849	 0.066541
H	-1.9725219331	-0.8559031928	 4.2711303998	 0.095974
H	-0.2064395321	-0.589228049	 4.3951295883	 0.084244
H	-1.5599903757	 0.9014947597	 2.2458861302	 0.080408
H	-2.4267125773	-1.5797152057	 1.0261911678	 0.08483
61.0345	148.2091	196.3378	343.2599	392.5614	431.5939	465.7245	583.9696	725.1842	738.3863	783.2008	799.8578	818.9644	830.829	861.8819	904.3349	920.9098	927.6799	942.1281	957.6236	989.967	1008.6468	1020.1699	1058.131	1067.3782	1077.8833	1084.8272	1102.9245	1138.8171	1143.7841	1150.528	1169.479	1197.2737	1203.7035	1209.0438	1231.1451	1271.7456	1278.2744	1293.6549	1381.5865	1447.2217	1468.8159	1492.3766	1506.0754	1509.0265	3017.6438	3026.861	3082.3341	3089.8316	3120.0751	3132.8897	3133.6841	3138.8649	3194.4375	3211.7191	3220.033	3226.6053
C1CC1C12CC3CC1C23	C1CC1[C@@]12C[C@H]3C[C@@H]1[C@@H]23	
InChI=1S/C9H12/c1-2-6(1)9-4-5-3-7(9)8(5)9/h5-8H,1-4H2	InChI=1S/C9H12/c1-2-6(1)9-4-5-3-7(9)8(5)9/h5-8H,1-4H2/t5-,7-,8+,9+/m1/s1
