20
gdb 89125	4.54329	0.60535	0.58656	4.4827	77.78	-0.2471	0.0364	0.2835	1893.6242	0.170224	-440.289834	-440.279877	-440.278933	-440.326526	35.409	
O	-0.1788049459	 1.4167610855	-0.1905707199	-0.41715
C	-0.0968094041	 0.0254731322	-0.065781179	 0.087335
C	-0.5622737276	-0.6338080577	 1.2089238503	-0.326281
C	-1.3928566318	-0.7310360084	-0.0608713523	-0.010647
C	-2.7174618088	-0.0064812479	-0.1699769159	-0.212166
C	-3.8531579906	-0.7729100412	 0.5206963881	-0.156103
N	-5.1356340116	-0.0945490826	 0.4118973208	-0.273871
C	-6.1801711366	-0.5807650351	-0.3101389384	 0.15308
O	-6.1953988329	-1.6387712418	-0.9033775231	-0.323398
H	 0.5107552288	 1.8038142212	 0.358411923	 0.288908
H	 0.742919847	-0.4274412807	-0.5926298207	 0.088148
H	-0.0407851739	-1.5118337827	 1.5740905	 0.112761
H	-0.9313931436	 0.0315102941	 1.9835866651	 0.109827
H	-1.3667235924	-1.6936820014	-0.5656007949	 0.093619
H	-2.6188260796	 0.9945672651	 0.2632868216	 0.102843
H	-2.9782556775	 0.1362565292	-1.225509288	 0.113655
H	-3.9931547124	-1.7546782173	 0.0624130879	 0.147245
H	-3.6078563345	-0.9313129351	 1.5781957319	 0.1081
H	-5.2370180336	 0.8175286317	 0.8286942582	 0.244031
H	-7.0456391284	 0.1120087028	-0.2911953144	 0.070064
26.4741	58.9341	90.3932	117.0362	209.6681	227.0131	303.7554	315.5177	348.3631	408.7943	476.7229	536.9156	575.8629	736.5966	769.2845	809.351	842.9105	885.9563	951.3659	994.902	1002.1162	1030.0622	1040.965	1064.2599	1085.6426	1136.1071	1172.8922	1178.8043	1211.4785	1239.5043	1250.4418	1295.7693	1306.4896	1328.759	1389.4158	1408.953	1427.7716	1432.1762	1482.424	1490.8922	1501.5458	1537.026	1806.6908	2928.7983	3027.1777	3040.3002	3078.5938	3098.1483	3118.6885	3126.9896	3139.5114	3215.8711	3629.4235	3810.1731
OC1CC1CCNC=O	O[C@H]1C[C@H]1CCNC=O	
InChI=1S/C6H11NO2/c8-4-7-2-1-5-3-6(5)9/h4-6,9H,1-3H2,(H,7,8)	InChI=1S/C6H11NO2/c8-4-7-2-1-5-3-6(5)9/h4-6,9H,1-3H2,(H,7,8)/t5-,6+/m1/s1
