19
gdb 84916	2.59615	1.6896	1.19499	3.2641	76.85	-0.2338	0.0298	0.2636	1073.0849	0.161151	-419.181527	-419.173453	-419.172509	-419.214362	30.968	
C	 0.3099857643	 1.571092549	-0.0445016964	-0.377645
C	-0.0697428445	 0.082816971	 0.0379467957	 0.031208
N	 0.2002708412	-0.499968881	-1.2656150684	-0.274079
C	 0.5461003678	-1.6674380164	-1.5777907687	 0.145938
O	 0.7412797338	-2.8255548706	-0.8965685685	-0.215118
C	 0.2620991538	-3.0095085889	 0.430359584	-0.10007
C	 0.7469252979	-2.0030956487	 1.4494989571	-0.057137
N	 1.9099549793	-1.1793385599	 1.097827542	-0.327375
C	 0.5900702447	-0.5456658964	 1.2578288031	-0.015163
H	 1.389990278	 1.6730856747	-0.1887741275	 0.126886
H	-0.1930605096	 2.0385778978	-0.89353035	 0.123016
H	 0.0279128877	 2.1024402106	 0.8707558189	 0.098357
H	-1.157605798	 0.0303387641	 0.2025063227	 0.089035
H	 0.7632999989	-1.8793974088	-2.6260606374	 0.117088
H	-0.8373960841	-3.0266189266	 0.4249621344	 0.11133
H	 0.6073768424	-4.0114839235	 0.7018860829	 0.120844
H	 0.665669166	-2.3730668515	 2.4713854205	 0.086549
H	 2.4959931441	-1.012884546	 1.9101860316	 0.235084
H	 0.4300687866	 0.037671571	 2.164910774	 0.081252
54.013	163.395	219.6985	254.8409	282.2296	300.6101	364.3185	459.7114	489.9346	626.2308	670.1599	744.8233	766.6591	822.0949	855.7077	887.9593	936.5622	965.8803	978.7429	1005.0472	1041.3728	1061.1551	1091.7518	1113.2509	1138.2685	1170.4258	1188.1086	1231.1011	1260.2019	1307.1144	1321.951	1354.7716	1395.1836	1406.0731	1419.8661	1446.9925	1484.6467	1489.3605	1498.1119	1499.	1777.8813	2977.3158	3005.654	3037.042	3081.0429	3096.8661	3108.532	3112.4685	3123.2271	3130.7165	3519.0402
CC1N=COCC2NC12	C[C@H]1N=COC[C@H]2N[C@@H]12	
InChI=1S/C6H10N2O/c1-4-6-5(8-6)2-9-3-7-4/h3-6,8H,2H2,1H3	InChI=1S/C6H10N2O/c1-4-6-5(8-6)2-9-3-7-4/h3-6,8H,2H2,1H3/t4-,5-,6+/m1/s1
