18
gdb 107605	2.68558	1.57874	1.14598	3.2668	71.85	-0.2473	-0.0346	0.2127	1079.7058	0.148501	-439.083091	-439.075027	-439.074082	-439.115718	30.968	
O	 0.0777907072	 1.3564281633	 0.3826214993	-0.41954
C	 0.0465246815	-0.015702798	 0.0479289704	-0.165167
C	-1.3773033301	-0.5275420934	-0.0160253093	 0.193198
C	-2.096659539	-1.1006279216	 1.1661042558	-0.275915
N	-1.6859426331	-1.9709132109	 0.0738391489	-0.141619
C	-2.7893736337	-2.259597869	-0.8853007019	-0.164384
C	-3.3754614398	-0.9216611184	-1.3788621212	-0.357593
C	-2.2881413576	 0.098395663	-1.0260704522	 0.385787
O	-2.1337874646	 1.1935535183	-1.5184698421	-0.344714
H	-0.4562303265	 1.8064676704	-0.2864062907	 0.297966
H	 0.5441016231	-0.2135114254	-0.9150042475	 0.094338
H	 0.600804344	-0.5574266385	 0.8199371224	 0.11618
H	-1.5327014002	-1.2149262718	 2.0874760958	 0.13594
H	-3.1532518596	-0.8805558763	 1.3037472959	 0.118818
H	-2.3506242172	-2.8166493606	-1.7179101711	 0.124035
H	-3.5248015195	-2.9075949526	-0.4014788757	 0.119435
H	-3.571770385	-0.9011024965	-2.4523170678	 0.143102
H	-4.3086032598	-0.6370514419	-0.8800292988	 0.140134
103.2094	121.431	174.3295	249.6007	266.2052	370.7234	439.276	478.7253	534.0833	543.3983	643.109	651.8939	696.9155	790.7122	841.0363	894.0986	912.9284	956.5188	984.0215	1019.4448	1043.9046	1071.912	1091.1836	1109.4608	1149.4304	1194.5306	1208.7793	1241.7416	1286.1568	1334.644	1343.3461	1368.0833	1383.0793	1449.5826	1455.9818	1497.9446	1504.1904	1516.1765	1811.1105	2977.967	3055.4396	3060.3658	3085.0249	3102.6211	3103.5567	3123.3428	3192.125	3750.9326
OCC12CN1CCC2=O	OC[C@]12CN1CCC2=O	
InChI=1S/C6H9NO2/c8-4-6-3-7(6)2-1-5(6)9/h8H,1-4H2	InChI=1S/C6H9NO2/c8-4-6-3-7(6)2-1-5(6)9/h8H,1-4H2/t6-,7?/m0/s1
