22
gdb 105067	2.89241	1.09965	0.94802	3.1448	81.81	-0.2418	0.0703	0.3121	1338.9192	0.194529	-404.303601	-404.29421	-404.293266	-404.338161	36.149	
C	-0.0072615674	-2.6592739887	 3.1161176989	-0.414669
C	-0.0495733114	-2.0001860747	 1.7545433064	 0.001466
C	-1.0622710008	-0.9213402558	 1.4770582353	-0.294741
C	 0.4156480348	-0.5850779602	 1.4495827429	-0.114796
C	 1.0283984842	 0.4116314927	 2.3949872926	 0.275397
C	 0.3472785346	 1.7820484878	 2.3937423628	-0.097844
O	 1.1040011307	 2.7541742645	 3.0755478814	-0.425157
C	 1.8181135224	 0.0219798115	 3.59314195	-0.272304
N	 2.5025452767	 0.5589708685	 2.4000788644	-0.378362
H	-0.2245612847	-1.9502340358	 3.9193838045	 0.125838
H	-0.7599273417	-3.4539212417	 3.16691826	 0.118861
H	 0.9661456672	-3.1179830244	 3.3232262427	 0.116156
H	 0.124028867	-2.6952851566	 0.9363540584	 0.086143
H	-1.6131737709	-0.9200967387	 0.5431817889	 0.112263
H	-1.6356724068	-0.5705319366	 2.329740343	 0.115913
H	 0.808077834	-0.465182313	 0.4403529234	 0.092538
H	 0.1624685123	 2.0732011402	 1.3448641866	 0.081048
H	-0.6284217289	 1.7178549006	 2.8882556394	 0.103669
H	 2.0204579579	 2.5884664477	 2.8056856484	 0.291512
H	 1.831915522	 0.6876105912	 4.4507531886	 0.129286
H	 1.9456893496	-1.0294544175	 3.818093898	 0.116954
H	 2.9322269492	-0.1979542909	 1.8744779735	 0.23083
30.6432	137.7279	162.3654	213.1648	267.6135	285.4059	289.1316	355.326	364.7515	413.6882	490.0881	563.9758	612.5881	682.6539	773.3817	819.8044	841.3537	861.1892	914.8976	954.2801	964.6889	970.9843	1029.5419	1048.0996	1060.1456	1075.4336	1097.5115	1107.4972	1136.751	1148.688	1153.7647	1202.0523	1228.9546	1238.9221	1267.3009	1302.6807	1344.0436	1385.3274	1405.8088	1418.7819	1425.2369	1452.0254	1492.57	1495.9558	1497.9367	1506.782	1509.7395	2950.6553	3028.6311	3060.8169	3084.8914	3103.2545	3108.7043	3129.093	3133.7694	3135.1482	3213.0471	3230.2227	3503.3966	3705.6198
CC1CC1C1(CO)CN1	C[C@H]1C[C@H]1[C@@]1(CO)CN1	
InChI=1S/C7H13NO/c1-5-2-6(5)7(4-9)3-8-7/h5-6,8-9H,2-4H2,1H3	InChI=1S/C7H13NO/c1-5-2-6(5)7(4-9)3-8-7/h5-6,8-9H,2-4H2,1H3/t5-,6+,7-/m0/s1
