19
gdb 98839	2.85697	1.16374	0.95061	1.3796	71.63	-0.2438	-0.0266	0.2173	1293.9677	0.156859	-460.15966	-460.150054	-460.14911	-460.195226	34.131	
C	-0.4368867774	 1.5826088541	-0.4986068833	-0.382552
C	-0.2227752295	 0.1553486832	-0.9937418123	-0.280338
C	 0.829240094	-0.6033697455	-0.2205257759	 0.358828
O	 1.4789992978	-0.1190773542	 0.6865173864	-0.336086
C	 1.0807578858	-2.0530751868	-0.6022167082	-0.003473
O	 0.7111817738	-2.4108024511	-1.9466512617	-0.291599
C	 2.0735077708	-2.7918825789	-2.2670350287	-0.082269
C	 2.5702063899	-2.426029516	-0.8560065194	 0.076734
O	 3.4889594979	-1.3706040945	-0.8546421209	-0.432961
H	-0.7550586139	 1.5925654851	 0.5472964649	 0.129601
H	 0.4885476777	 2.1605898041	-0.5618600487	 0.133432
H	-1.200751016	 2.0860439252	-1.0970585086	 0.114494
H	-1.150091214	-0.433944811	-0.9630784778	 0.131219
H	 0.0770179869	 0.1224541098	-2.0491681975	 0.145451
H	 0.5755853221	-2.687985553	 0.1407920342	 0.106619
H	 2.1408827632	-3.8492601564	-2.5433680094	 0.10867
H	 2.5049914093	-2.1663339244	-3.0551871772	 0.120418
H	 2.9214285774	-3.2762828219	-0.2579924982	 0.08187
H	 3.3323165542	-0.8599122379	-0.047479558	 0.301943
49.3944	65.3764	79.9101	162.1154	182.1235	223.6837	285.7732	379.0912	409.0439	446.0116	489.4339	521.4531	661.4278	740.5472	787.4308	835.3547	888.866	921.8647	989.2192	1002.8504	1029.0026	1056.7368	1063.3572	1093.081	1152.4094	1165.6226	1190.5358	1219.3701	1252.3415	1265.1712	1327.3159	1341.3783	1360.5434	1383.7498	1414.9904	1421.925	1437.56	1493.0172	1498.4633	1512.6767	1775.9817	2997.1192	3021.2018	3027.0658	3039.3726	3051.9679	3056.6049	3094.6345	3123.4262	3126.4746	3739.0376
CCC(=O)C1OCC1O	CCC(=O)[C@H]1OC[C@H]1O	
InChI=1S/C6H10O3/c1-2-4(7)6-5(8)3-9-6/h5-6,8H,2-3H2,1H3	InChI=1S/C6H10O3/c1-2-4(7)6-5(8)3-9-6/h5-6,8H,2-3H2,1H3/t5-,6-/m1/s1
