15
gdb 127605	5.69391	0.97696	0.83831	3.6047	72.19	-0.2329	-0.0116	0.2213	1306.0865	0.11436	-450.159004	-450.150768	-450.149824	-450.193166	28.501	
C	-0.0027987206	 1.4123543651	 0.1417052471	-0.310338
N	-0.0081950502	-0.0299876388	 0.0225934428	 0.158351
N	-0.0557105222	-0.6455363661	-1.1484135752	-0.214414
C	-0.0259615936	-1.9446079834	-0.8406142894	-0.1322
C	 0.0425740603	-2.0474439821	 0.5591983973	 0.410664
N	 0.0937995597	-3.1615236651	 1.3904525982	-0.395083
C	 0.0876424487	-4.462319958	 0.9677754072	 0.14485
O	 0.0366283209	-4.8196495485	-0.1873091549	-0.302992
N	 0.0537678215	-0.8242319492	 1.0909878213	-0.345524
H	 0.9422624733	 1.7543326173	 0.572225071	 0.1517
H	-0.1240762777	 1.8200916745	-0.8604648195	 0.166585
H	-0.8261549331	 1.7365877383	 0.7824631908	 0.153016
H	-0.0544327997	-2.7205374677	-1.583082084	 0.159037
H	 0.1387829495	-2.9727549266	 2.380746364	 0.266981
H	 0.1356620531	-5.1624513896	 1.8227646232	 0.089367
38.8371	68.405	164.6913	172.1855	239.4343	285.1251	413.2463	445.733	574.2043	603.8201	668.6464	728.7726	756.0533	872.8752	873.6378	1014.6585	1019.294	1037.9613	1081.6762	1146.4156	1150.6299	1208.9527	1341.6233	1359.9348	1418.849	1428.2029	1450.7075	1453.4908	1477.408	1509.1156	1519.427	1603.3416	1806.5628	2960.4837	3056.6702	3123.2003	3178.6519	3320.881	3624.2331
CN1N=CC(NC=O)=N1	Cn1ncc(NC=O)n1	
InChI=1S/C4H6N4O/c1-8-6-2-4(7-8)5-3-9/h2-3H,1H3,(H,5,7,9)	InChI=1S/C4H6N4O/c1-8-6-2-4(7-8)5-3-9/h2-3H,1H3,(H,5,7,9)
