17
gdb 115137	2.92361	1.27003	0.9236	4.0205	68.88	-0.241	-0.0993	0.1417	1218.5156	0.135635	-458.997892	-458.989478	-458.988534	-459.031378	31.13	
O	-0.1302864768	 1.524556261	-0.2607665824	-0.422084
C	 0.0059857828	 0.1232166605	-0.2459024495	-0.071875
C	-1.3224217853	-0.5813574489	 0.065584769	-0.127975
C	-1.3054349546	-2.1276880929	 0.0419735189	-0.260651
C	-2.4885897276	-2.5705038321	 0.9314224864	-0.336365
C	-2.6006728593	-1.4920931892	 1.9977535124	 0.330687
O	-3.1435820896	-1.5425727744	 3.0666579614	-0.271407
C	-1.8417502099	-0.2432731873	 1.4520041361	 0.311928
O	-1.6803062817	 0.7808387917	 2.069241595	-0.307536
H	-0.4750107275	 1.7751470534	 0.6071374858	 0.298304
H	 0.359199357	-0.1758882483	-1.2386847039	 0.112282
H	 0.7640145989	-0.2097903033	 0.4833232191	 0.091289
H	-2.075219873	-0.211136948	-0.6472103827	 0.123894
H	-1.3693490218	-2.5264356442	-0.9721702184	 0.12195
H	-0.3637218229	-2.4879736031	 0.4730892234	 0.121066
H	-3.4261199535	-2.5684113715	 0.3585292404	 0.143908
H	-2.3844394852	-3.5627357135	 1.3750853191	 0.142585
63.0571	120.194	162.3028	203.9084	271.4252	327.0194	384.8434	414.9525	535.3143	545.8329	558.9724	587.4432	682.4961	714.4246	842.6987	922.4902	953.9488	979.3686	1002.9291	1051.0687	1073.1381	1091.9735	1151.6527	1166.7914	1205.4196	1219.681	1267.8304	1298.2386	1321.7894	1349.576	1389.9106	1446.1524	1452.3314	1501.8898	1511.7493	1823.3731	1857.1399	2961.7346	3003.4359	3028.291	3043.8666	3067.2445	3108.8223	3116.1083	3753.8629
OCC1CCC(=O)C1=O	OC[C@H]1CCC(=O)C1=O	
InChI=1S/C6H8O3/c7-3-4-1-2-5(8)6(4)9/h4,7H,1-3H2	InChI=1S/C6H8O3/c7-3-4-1-2-5(8)6(4)9/h4,7H,1-3H2/t4-/m1/s1
