19
gdb 125870	3.57284	1.07718	1.01916	2.3002	81.07	-0.2253	0.0228	0.248	1249.5075	0.161604	-382.081597	-382.073317	-382.072373	-382.1158	31.243	
C	-0.3754012989	 1.4302698994	-0.0009745613	-0.40763
C	-0.0445616324	-0.0439072389	 0.0143391074	 0.021977
C	 1.3424625087	-0.5267436646	-0.3179284421	-0.304551
C	 0.8341153558	-0.6525208474	 1.1009545662	-0.156658
C	 1.4122992035	 0.1573380867	 2.2004769729	 0.22507
C	 0.8516594232	 0.4112190849	 3.4409618404	-0.136545
N	 1.7420713265	 1.1698666514	 4.1241942385	-0.17376
N	 2.8572267588	 1.4407025681	 3.4229185247	-0.229724
C	 2.6602350848	 0.8258149794	 2.2596115021	-0.088486
H	 0.4651954777	 2.0303459953	 0.3585979284	 0.125713
H	-0.6200242546	 1.766361566	-1.0146887192	 0.113936
H	-1.235720402	 1.6522560638	 0.6408403008	 0.11182
H	-0.8558362987	-0.6872461335	-0.3172208065	 0.0801
H	 1.4640867417	-1.4315612303	-0.903077198	 0.107925
H	 2.0942979361	 0.2306688556	-0.515250514	 0.113069
H	 0.5436293332	-1.6575207947	 1.3966096246	 0.087447
H	-0.0900029137	 0.1116912087	 3.8740686049	 0.129566
H	 1.6537514613	 1.5325500733	 5.0580748253	 0.273154
H	 3.4231540489	 0.8722264768	 1.496335275	 0.107577
19.3833	109.0252	173.2503	215.9312	275.7393	343.8004	418.905	502.2531	519.4894	615.8087	690.0054	712.191	776.8906	797.7055	847.4527	876.1981	895.7425	932.0906	952.6824	990.6817	1029.7331	1066.0962	1077.412	1089.1784	1115.3326	1146.947	1170.2898	1198.6313	1216.667	1256.3762	1291.0338	1374.9566	1386.9276	1396.8436	1425.0774	1429.3021	1487.9351	1492.278	1497.17	1504.2622	1608.2028	3028.9005	3085.9379	3108.0713	3125.8444	3130.6928	3139.8131	3213.7453	3245.3035	3256.7372	3675.0923
CC1CC1C1=CNN=C1	C[C@H]1C[C@H]1c1c[nH]nc1	
InChI=1S/C7H10N2/c1-5-2-7(5)6-3-8-9-4-6/h3-5,7H,2H2,1H3,(H,8,9)	InChI=1S/C7H10N2/c1-5-2-7(5)6-3-8-9-4-6/h3-5,7H,2H2,1H3,(H,8,9)/t5-,7+/m0/s1
