18
gdb 46541	4.01548	1.09493	1.01761	2.7327	71.57	-0.2447	0.0265	0.2711	1186.7785	0.149333	-439.107164	-439.099232	-439.098288	-439.140485	29.657	
O	-0.0503545471	 0.16827057	-0.8871303941	-0.373626
C	-0.0533136236	 1.253610987	-0.3535539355	 0.411579
C	-1.1651406335	 1.8768984797	 0.5001317578	-0.429469
C	-0.7787522021	 3.3526121935	 0.6265723418	 0.287072
C	-1.5248030235	 4.3641816992	-0.2819630267	-0.112496
O	-1.9137620998	 5.1627936131	 0.8519015503	-0.26944
C	-1.3421303156	 4.2159561714	 1.7741774496	-0.131794
C	 0.7556774491	 3.3299606865	 0.4677697595	-0.230451
N	 0.966097778	 2.1729463211	-0.3827070863	-0.309738
H	-2.1462969757	 1.7054489379	 0.0533054906	 0.134759
H	-1.15715313	 1.3742480769	 1.4757261695	 0.131031
H	-0.9077061325	 4.9271580005	-0.993258506	 0.104353
H	-2.3944615265	 3.9530513386	-0.8113713693	 0.104364
H	-2.1072757488	 3.724233094	 2.3896057311	 0.102569
H	-0.5987923991	 4.680444864	 2.4356783714	 0.101568
H	 1.1377488278	 4.2474524081	 0.0085879085	 0.120111
H	 1.2461887102	 3.2164166428	 1.4473370763	 0.106327
H	 1.8657456328	 1.9145208759	-0.7566900584	 0.253281
54.6527	79.4792	157.7573	259.5269	362.8422	369.9645	428.5769	494.7211	505.2684	596.0559	689.7476	764.127	857.1881	863.3968	898.4638	933.3136	949.2552	993.2923	1008.8693	1043.2459	1068.6879	1105.254	1147.2509	1157.2024	1160.6836	1192.5643	1243.9445	1258.1092	1280.6914	1308.3902	1313.3384	1349.5868	1389.1772	1445.2937	1463.7172	1509.7853	1529.197	1538.5024	1839.2263	2978.4591	2997.0525	3009.9172	3038.6775	3043.7837	3051.1172	3065.2724	3116.0914	3638.9064
O=C1CC2(COC2)CN1	O=C1CC2(COC2)CN1	
InChI=1S/C6H9NO2/c8-5-1-6(2-7-5)3-9-4-6/h1-4H2,(H,7,8)	InChI=1S/C6H9NO2/c8-5-1-6(2-7-5)3-9-4-6/h1-4H2,(H,7,8)
