17
gdb 125007	2.33494	1.86194	1.04306	1.6607	82.69	-0.1878	-0.0232	0.1646	1107.7783	0.138341	-414.218883	-414.210531	-414.209587	-414.251443	32.213	
C	 0.0106932508	 1.5318717918	-0.0136694137	-0.521915
C	 0.011495057	 0.0273473061	-0.0470926666	 0.186291
C	-1.1574597141	-0.6893190573	 0.0115510196	 0.272702
N	-2.4092946068	-0.1617290882	 0.0728392362	-0.584368
C	-1.118395209	-2.1555369398	-0.0186218453	 0.351155
N	-2.2221994934	-2.8197085613	 0.0637101671	-0.590524
N	 0.1554938154	-2.6712438489	-0.1310259037	-0.316141
N	 1.3339508652	-2.0011722228	-0.1980349326	-0.241644
C	 1.231235127	-0.7052485632	-0.1534757499	-0.045734
H	 1.0235318516	 1.929424349	-0.1156125741	 0.131984
H	-0.5959615634	 1.9525351938	-0.8255589933	 0.134739
H	-0.3985725539	 1.9209273656	 0.9287246212	 0.126331
H	-2.5391199429	 0.7849241541	 0.3840986532	 0.254363
H	-3.1349072869	-0.8392003941	 0.2683668221	 0.276805
H	-2.0741398729	-3.8276945984	 0.0406558657	 0.198162
H	 0.2615832639	-3.6739981323	-0.1566170378	 0.258877
H	 2.1744318726	-0.1693136638	-0.2074180682	 0.108916
118.0378	141.2798	184.7431	276.1753	277.9006	329.3065	364.9627	494.4954	510.5371	532.4702	555.9429	570.9948	593.3338	648.5911	689.3182	755.0711	792.0183	872.3171	915.7789	955.6821	1018.7018	1056.4965	1089.2821	1164.0991	1206.5133	1314.2898	1331.8636	1396.6429	1406.894	1430.3793	1468.4416	1483.6879	1503.5558	1578.0359	1623.4575	1661.0396	1691.6602	3008.8766	3055.4816	3114.348	3172.7626	3484.8475	3552.531	3621.5613	3710.2901
CC1=C(N)C(=N)NN=C1	C[C@H]1C(=C([NH])NN=C1)N	
InChI=1S/C5H8N4/c1-3-2-8-9-5(7)4(3)6/h2H,1H3,(H2,6,8)(H2,7,9)	InChI=1S/C5H9N4/c1-3-2-8-9-5(7)4(3)6/h2-3,7,9H,6H2,1H3/t3-/m1/s1
