15
gdb 124369	5.04124	0.98618	0.82909	1.4723	69.74	-0.2479	-0.0168	0.2311	1314.4316	0.112726	-453.977073	-453.968833	-453.967889	-454.011397	29.106	
C	-0.0153460006	 1.5496097175	-0.1237506135	-0.503961
C	-0.0171359149	 0.0544526799	 0.1432072434	 0.406175
O	-0.0529431838	-0.4273900865	 1.255828672	-0.341365
N	 0.0263484167	-0.7115436496	-1.0060498384	-0.431309
C	 0.0364744402	-2.096997065	-1.0648098092	 0.495241
N	 0.0800673874	-2.667659418	-2.2509125346	-0.245085
O	 0.0794895945	-4.0355367532	-1.9949767041	-0.162605
C	 0.0358281684	-4.2283200213	-0.6699823164	 0.087699
C	 0.0059415821	-3.0482285733	-0.0031488236	-0.335304
H	 0.893210579	 1.8494184727	-0.6565566658	 0.146462
H	-0.8742006369	 1.8386634757	-0.7385129457	 0.145727
H	-0.062299688	 2.0723206871	 0.8304854509	 0.158239
H	 0.0541916984	-0.2480681487	-1.902211598	 0.266731
H	 0.0310331129	-5.257555092	-0.3457521271	 0.154022
H	-0.0311940153	-2.8501757753	 1.0509868	 0.159331
38.3071	74.5237	96.9152	170.5991	337.5918	348.0943	365.3209	552.9628	590.7123	599.3373	620.5044	723.3019	776.1907	815.0055	881.3534	915.6744	936.9857	974.0218	994.6655	1042.7009	1052.0231	1072.5083	1168.4059	1242.7268	1318.0082	1385.9079	1427.4296	1469.6927	1483.0634	1501.847	1529.2947	1638.0642	1800.5316	3044.0662	3106.6369	3168.7178	3265.9765	3331.2217	3620.1159
CC(=O)NC1=NOC=C1	CC(=O)Nc1nocc1	
InChI=1S/C5H6N2O2/c1-4(8)6-5-2-3-9-7-5/h2-3H,1H3,(H,6,7,8)	InChI=1S/C5H6N2O2/c1-4(8)6-5-2-3-9-7-5/h2-3H,1H3,(H,6,7,8)
