19
gdb 13993	5.2923	1.09902	1.02757	2.8278	71.35	-0.2293	0.076	0.3054	1182.6115	0.165697	-365.010262	-365.002047	-365.001103	-365.04332	30.399	
O	-0.1681628965	 1.4996894928	-0.0233815452	-0.418114
C	-0.015928069	 0.0988157326	-0.1889023107	-0.068441
C	-1.3421250376	-0.5591889556	 0.1850474702	-0.288527
C	-1.2894482291	-2.0565566323	 0.0794706351	 0.357037
C	-1.5707239871	-2.7977295297	-1.1694754	-0.281163
N	-2.5382071518	-2.9188531333	-0.0603335638	-0.172661
C	-1.9117210093	-3.9022558399	 0.8939166292	-0.149209
C	-0.6732939579	-2.9983992339	 1.1197703341	-0.308342
H	 0.6627660456	 1.9229531983	-0.2577739406	 0.285505
H	 0.2430419717	-0.1581720918	-1.2284877866	 0.088246
H	 0.7900479604	-0.2933224698	 0.4531024233	 0.086584
H	-1.6047735786	-0.2597834308	 1.206966139	 0.107278
H	-2.1293064805	-0.1735661266	-0.4718546449	 0.116795
H	-1.9625458231	-2.2335857164	-2.0107941737	 0.117381
H	-0.9742573227	-3.6661544404	-1.4456175133	 0.103704
H	-2.5419554485	-4.0203517373	 1.7773215865	 0.111739
H	-1.7358464226	-4.8876182842	 0.4490256536	 0.102332
H	 0.3157052521	-3.4077606551	 0.8923378226	 0.099241
H	-0.6489858954	-2.5633705667	 2.1216414548	 0.110616
71.8897	96.5725	130.1098	252.3175	265.1984	335.2207	346.1313	415.1841	481.1812	706.1056	750.4066	776.4051	802.4037	809.8492	894.0792	932.5704	973.5179	992.0377	1013.3146	1039.3025	1076.2043	1098.7299	1105.3853	1131.0687	1194.4635	1207.271	1220.3257	1243.8154	1246.3705	1282.4868	1302.6244	1320.553	1348.0131	1396.2137	1463.0052	1485.6371	1488.2488	1495.9883	1519.6291	1528.2388	2962.2349	2989.4419	3035.6704	3042.7172	3052.7275	3084.2045	3092.8138	3098.8388	3117.9807	3187.9461	3830.0241
OCCC12CN1CC2	OCC[C@]12CN1CC2	
InChI=1S/C6H11NO/c8-4-2-6-1-3-7(6)5-6/h8H,1-5H2	InChI=1S/C6H11NO/c8-4-2-6-1-3-7(6)5-6/h8H,1-5H2/t6-,7?/m1/s1
