21
gdb 113085	2.15012	1.11367	0.91057	1.2255	74.26	-0.248	0.0557	0.3037	1371.3457	0.181133	-461.330022	-461.319735	-461.318791	-461.36563	37.338	
O	 0.2151339485	 1.0842346263	-0.7521021812	-0.425827
C	 0.021661555	-0.289354746	-0.4461384798	-0.06391
C	-1.3631570574	-0.5564119978	 0.1357186262	-0.055723
C	-2.5342878574	-0.5126606718	-0.8948185776	-0.256343
C	-2.6836198635	-2.0596291923	-0.8007884036	 0.002553
C	-2.208341936	-2.8236230462	-2.0267536723	-0.087425
O	-3.122921871	-2.5292731909	-3.076444541	-0.428115
C	-1.7077566316	-2.0582546494	 0.4055675703	 0.080176
O	-0.6722170883	-3.0173584201	 0.3007484618	-0.42458
H	-0.4574364342	 1.3354756712	-1.3937072076	 0.282363
H	 0.2023132334	-0.9225542121	-1.3269639435	 0.095818
H	 0.7958005854	-0.5392317757	 0.2874446086	 0.097414
H	-1.496095173	 0.0988064382	 1.0021860012	 0.070175
H	-3.4105002991	 0.0355935888	-0.543547062	 0.103191
H	-2.2860084533	-0.1456547137	-1.8961850282	 0.097427
H	-3.6932476333	-2.4048036455	-0.5617255362	 0.077737
H	-1.1852821612	-2.5250957685	-2.2978780761	 0.093797
H	-2.181973268	-3.8999454023	-1.8035477522	 0.097851
H	-2.8254393524	-2.9883735695	-3.8671326772	 0.285878
H	-2.2467495478	-2.1782831914	 1.354793817	 0.06973
H	-0.1571876549	-3.0010992611	 1.1129540632	 0.287811
55.9035	100.5156	112.9199	168.4073	177.8611	251.1857	259.9325	267.6023	302.1471	331.3114	384.7653	444.9476	532.3034	559.2687	749.9707	823.7701	826.5911	863.4617	919.122	942.2841	973.9574	1045.6112	1065.1586	1070.4994	1082.5064	1133.3761	1139.8623	1151.8648	1180.1876	1214.1422	1235.7163	1242.976	1266.2129	1281.5511	1298.0857	1320.2731	1337.1146	1360.5921	1389.6848	1419.3842	1428.055	1458.133	1488.1987	1500.5561	1521.058	2988.63	2998.7727	3001.3972	3019.3328	3049.9842	3054.1902	3068.4131	3070.865	3110.8354	3809.8305	3826.3806	3830.5794
OCC1CC(CO)C1O	OC[C@H]1C[C@@H](CO)[C@H]1O	
InChI=1S/C6H12O3/c7-2-4-1-5(3-8)6(4)9/h4-9H,1-3H2	InChI=1S/C6H12O3/c7-2-4-1-5(3-8)6(4)9/h4-9H,1-3H2/t4-,5+,6+
