17
gdb 111185	2.85293	1.23301	0.97991	2.3144	74.37	-0.2589	0.0126	0.2715	1211.7945	0.136159	-417.927651	-417.919443	-417.918499	-417.960985	30.134	
C	 0.1175818299	 1.3158703193	 0.2150610525	-0.249196
O	-0.3246759605	 0.0391153962	-0.2023961537	-0.24102
C	 0.4545049163	-0.5118909446	-1.1989481299	 0.200778
C	 1.7401066421	-1.337911696	-0.8357863395	-0.091078
N	 0.8096141336	-2.3550471416	-0.210827514	-0.309913
C	 0.1692311522	-1.9923142564	-1.536202672	-0.085575
C	 1.5816319963	-2.058258541	-2.2187769892	-0.157183
C	 1.8539674731	-1.3651070205	-3.4700217223	 0.262829
N	 2.0765000743	-0.8180490355	-4.4645206856	-0.332757
H	 1.1056700388	 1.2681128052	 0.6945211879	 0.113551
H	 0.1720542773	 2.0210277098	-0.6281061416	 0.113672
H	-0.6100187156	 1.68426897	 0.9406215828	 0.136625
H	 0.5673359068	 0.1656602848	-2.0546455296	 0.097152
H	 2.6709504125	-1.0234636016	-0.3641960293	 0.101253
H	 1.228783317	-3.2881390755	-0.278189234	 0.212557
H	-0.7575551513	-2.4453112322	-1.887305777	 0.105478
H	 2.0076041471	-3.0637440104	-2.2365620353	 0.122827
71.6673	123.9466	156.9433	185.3015	226.3432	334.9986	412.281	466.9682	521.7519	527.4575	643.121	777.4581	839.0186	881.2368	883.3169	905.7102	951.2902	1022.3237	1026.1138	1050.863	1107.0279	1126.513	1144.6952	1156.7428	1181.3411	1191.2242	1220.8233	1230.0683	1247.0265	1292.7951	1303.4691	1367.1532	1437.9873	1486.7795	1492.4054	1508.7625	2346.8818	2984.9478	3035.5701	3038.6244	3094.0842	3122.5379	3128.8431	3128.9062	3383.5006
COC1C2NC1C2C#N	CO[C@H]1[C@H]2N[C@@H]1[C@H]2C#N	
InChI=1S/C6H8N2O/c1-9-6-4-3(2-7)5(6)8-4/h3-6,8H,1H3	InChI=1S/C6H8N2O/c1-9-6-4-3(2-7)5(6)8-4/h3-6,8H,1H3/t3-,4-,5+,6-
