21
gdb 41191	2.75587	1.74923	1.56647	1.3222	83.04	-0.2313	0.0692	0.3006	974.1577	0.18574	-386.996494	-386.989535	-386.988591	-387.027352	29.775	
C	-0.0504038597	 1.6029444981	-0.158542539	-0.294141
C	 1.5300301087	 1.4671483439	 0.0310750046	-0.329644
C	 1.1902517088	 0.2060363912	 0.9051140838	 0.28872
C	 1.2386617747	-1.3590266316	 0.9767816631	-0.330542
C	-0.3578168761	-1.2385625595	 0.9139779478	-0.11893
C	-0.9255221479	-0.9164010903	 2.2896418513	-0.065883
O	-0.4888689805	 0.3542611968	 2.7410568222	-0.252595
C	 0.8388215152	 0.670098641	 2.3475137153	-0.102162
C	-0.0479364535	 0.0517757418	 0.0635812893	 0.064602
H	-0.5070071452	 2.1736561178	 0.6508871351	 0.128039
H	-0.4111816831	 1.9774144986	-1.1193553295	 0.09423
H	 2.0134565857	 1.2174408282	-0.9170815694	 0.105286
H	 2.0629116531	 2.2974824096	 0.5042412687	 0.096147
H	 1.6401992841	-1.8429288732	 0.0834085267	 0.101499
H	 1.6664020435	-1.8200123736	 1.8742285418	 0.090341
H	-0.9054000916	-2.0599612695	 0.4440205871	 0.068977
H	-2.0195575367	-0.8658655856	 2.2583298113	 0.106564
H	-0.6475862283	-1.7072123857	 3.0078703607	 0.084802
H	 1.5670710745	 0.2190254904	 3.0431194354	 0.084752
H	 0.9201983441	 1.7551279369	 2.4531772714	 0.10145
H	 0.2803129102	-0.3479613853	-0.9046893975	 0.078489
168.0421	224.8652	304.8008	357.5394	418.1841	441.5401	500.7987	525.725	642.2668	681.2394	764.0554	773.3216	825.5274	859.9063	870.4507	892.944	918.9924	943.2705	973.5204	997.1155	1022.4334	1058.7325	1076.0576	1080.0927	1105.0132	1144.6614	1152.5138	1169.1406	1193.8219	1207.8584	1219.0082	1227.3535	1237.5816	1268.0034	1280.5602	1296.551	1328.1985	1381.8568	1418.1501	1441.3297	1483.8812	1487.0746	1494.6389	1508.6465	1523.9823	2950.9874	2957.733	2999.1269	3036.0465	3048.8071	3056.9781	3071.8006	3074.8582	3081.5028	3109.1721	3110.6185	3141.6702
C1CC23CC(COC2)C13	C1C[C@@]23C[C@@H](COC2)[C@@H]13	
InChI=1S/C8H12O/c1-2-8-3-6(7(1)8)4-9-5-8/h6-7H,1-5H2	InChI=1S/C8H12O/c1-2-8-3-6(7(1)8)4-9-5-8/h6-7H,1-5H2/t6-,7+,8+/m0/s1
