22
gdb 59554	2.57282	1.29634	1.02523	2.6134	81.94	-0.2254	0.0674	0.2928	1265.8707	0.192804	-404.308592	-404.298852	-404.297908	-404.342956	36.89	
C	-0.1454217196	 1.5464341249	 0.0072506286	-0.408168
C	-0.0022177643	 0.0265805972	-0.083579915	 0.10288
O	 0.8144206362	-0.3561742238	-1.1903839681	-0.438817
C	 0.6720452556	-0.566083707	 1.1455135263	-0.025374
C	-0.0524557982	-0.6061761955	 2.5163555206	-0.198191
N	 0.1913502138	-2.0843281702	 2.6747997527	-0.171805
C	-0.5268727133	-2.7025400126	 1.5416849127	-0.28718
C	 0.7886968441	-2.0892549102	 1.2664006343	 0.351229
C	 2.0094700393	-2.8723559697	 0.887926436	-0.493481
H	 0.8379330703	 2.0167559865	 0.1085962962	 0.124642
H	-0.6251513845	 1.9478023759	-0.8930203168	 0.104617
H	-0.7613047618	 1.8356988127	 0.8653251705	 0.120851
H	-1.0057899696	-0.4172431247	-0.190696764	 0.060591
H	 0.4205793158	 0.0028993618	-1.9918539421	 0.281073
H	 1.6611791956	-0.106439448	 1.244159171	 0.080176
H	 0.4516328518	-0.0480066909	 3.3073161381	 0.109274
H	-1.1166063867	-0.3402696357	 2.5193168521	 0.096138
H	-0.5610365849	-3.7863782347	 1.6037101717	 0.115472
H	-1.4522171517	-2.2471189102	 1.193496141	 0.102253
H	 2.104183844	-2.9096344918	-0.2026425194	 0.135653
H	 2.9166272965	-2.4064183881	 1.2882756214	 0.117684
H	 1.9559082714	-3.8960740858	 1.2697749722	 0.120482
64.7545	123.9083	149.7941	178.6121	243.0683	267.7118	275.8194	296.4109	357.5184	410.8565	447.8909	481.6934	518.7412	652.4111	730.2486	763.8735	829.6172	881.2904	901.6102	963.4458	980.3557	995.7586	1029.148	1054.2324	1075.8198	1099.93	1105.3812	1122.7883	1137.2841	1145.2548	1199.5607	1230.1076	1271.3457	1276.8887	1315.2296	1344.6868	1365.793	1385.811	1403.0644	1415.0859	1440.8447	1480.1308	1491.7475	1493.592	1495.8648	1499.5877	1516.4436	2962.3381	3026.1895	3029.3371	3030.886	3052.9335	3092.4987	3095.2879	3097.1397	3108.4413	3110.7693	3111.937	3187.7556	3814.4851
CC(O)C1CN2CC12C	C[C@@H](O)[C@H]1CN2C[C@@]12C	
InChI=1S/C7H13NO/c1-5(9)6-3-8-4-7(6,8)2/h5-6,9H,3-4H2,1-2H3	InChI=1S/C7H13NO/c1-5(9)6-3-8-4-7(6,8)2/h5-6,9H,3-4H2,1-2H3/t5-,6-,7+,8?/m1/s1
