19
gdb 59077	2.16723	1.3317	1.04661	1.4081	78.08	-0.2491	0.0366	0.2857	1228.8898	0.155727	-422.971028	-422.960815	-422.959871	-423.006155	37.605	
C	 0.0360086179	 1.4392267187	-0.3056607696	-0.407172
C	 0.0388440166	-0.0004771381	 0.209953889	 0.134405
O	 0.5755908014	-0.0922507407	 1.5268114921	-0.434761
C	-1.3480936238	-0.6101798745	 0.136187245	-0.090663
C	-1.8824263951	-1.1778244768	-1.1483273731	 0.103524
O	-1.075994707	-1.18397745	-2.282742723	-0.42233
C	-1.5563231612	-2.1233871758	 0.0065441465	-0.276341
C	-0.4497525367	-3.0110086772	-0.1797480211	 0.300599
C	 0.4624788988	-3.7566471	-0.4318518617	-0.43687
H	 1.0345086608	 1.874126424	-0.2087275899	 0.121635
H	-0.2639245854	 1.466985449	-1.3570756949	 0.137071
H	-0.665618034	 2.0605687164	 0.2657822451	 0.099439
H	 0.7186381643	-0.5954510248	-0.4045935247	 0.098847
H	 0.0447459097	 0.4722721795	 2.0995084914	 0.272534
H	-2.0817938301	-0.1175896684	 0.7726479939	 0.083319
H	-2.9348860303	-1.0309408242	-1.3801454238	 0.103704
H	-0.5803794097	-2.0142265773	-2.2955346121	 0.292985
H	-2.3994558428	-2.5435860527	 0.5461788484	 0.11722
H	 1.2805367164	-4.4145080473	-0.5930665075	 0.202857
56.3695	97.716	126.2042	163.7786	213.6604	253.3619	267.6686	288.2052	336.7844	380.921	398.9936	465.502	588.7818	595.3295	630.712	655.1017	667.6919	774.9762	786.8832	851.8232	925.4241	985.754	993.7871	1042.3052	1077.6659	1105.6444	1121.3486	1130.7187	1176.032	1228.8812	1279.4274	1327.3077	1353.3384	1362.0069	1398.1156	1399.5319	1420.8119	1433.5485	1494.0284	1496.9461	2224.113	3023.4535	3084.3956	3102.9118	3118.1065	3125.7855	3131.2681	3154.5784	3501.8549	3737.4014	3799.1305
CC(O)C1C(O)C1C#C	C[C@@H](O)[C@H]1[C@@H](O)[C@H]1C#C	
InChI=1S/C7H10O2/c1-3-5-6(4(2)8)7(5)9/h1,4-9H,2H3	InChI=1S/C7H10O2/c1-3-5-6(4(2)8)7(5)9/h1,4-9H,2H3/t4-,5+,6-,7+/m1/s1
