19
gdb 70667	2.49278	1.48978	1.0968	3.042	75.49	-0.2454	-0.0233	0.2221	1139.753	0.158406	-423.041422	-423.032788	-423.031844	-423.075101	32.219	
C	-0.4402113703	 1.3053723135	 0.0545113997	-0.486775
C	 0.1023159468	-0.0971085726	 0.0573375864	 0.384666
O	-0.512242635	-1.0282549435	 0.9700762005	-0.30041
C	 0.8778259956	-0.7084233456	 1.1467977229	-0.008633
C	 1.8157432163	-1.758647785	 0.5961823169	-0.24692
C	 1.2392372478	-2.0677757499	-0.8062027796	-0.251645
C	 0.5076073277	-0.7737946042	-1.2600094192	-0.124177
C	-0.6915944252	-1.0728362486	-2.1319059407	 0.152782
O	-0.8736532669	-0.6264783578	-3.2357471254	-0.255227
H	 0.2755994789	 1.9958734083	-0.4035926045	 0.128695
H	-1.3715842831	 1.3649498557	-0.5185423175	 0.138671
H	-0.6459990207	 1.6366863539	 1.075073256	 0.133114
H	 1.1145066758	-0.1665738852	 2.0596787249	 0.094663
H	 2.8254308236	-1.335245778	 0.531739903	 0.108852
H	 1.8728556018	-2.6508474557	 1.2270363279	 0.115502
H	 2.0045445558	-2.3722775063	-1.5228239725	 0.11384
H	 0.5161132892	-2.8847043802	-0.7321911773	 0.122223
H	 1.1710908058	-0.1037913486	-1.8171324884	 0.09077
H	-1.4286775838	-1.75953891	-1.6563812231	 0.090011
55.8843	97.9581	187.0418	225.0042	239.5485	283.154	350.4684	411.052	452.5142	493.313	585.214	667.536	718.4691	829.0086	851.4132	899.4951	914.6981	927.7055	992.1411	1000.6406	1030.9847	1049.0859	1067.2126	1121.2475	1138.4659	1182.5133	1223.8686	1230.602	1272.6958	1300.1215	1309.4611	1333.0575	1354.8674	1414.753	1420.4371	1454.7071	1479.8309	1486.657	1494.6025	1497.7304	1828.0726	2876.3365	3038.6922	3040.0132	3060.756	3065.6641	3088.3867	3101.4126	3118.1318	3126.9175	3142.6779
CC12OC1CCC2C=O	C[C@]12O[C@H]1CC[C@H]2C=O	
InChI=1S/C7H10O2/c1-7-5(4-8)2-3-6(7)9-7/h4-6H,2-3H2,1H3	InChI=1S/C7H10O2/c1-7-5(4-8)2-3-6(7)9-7/h4-6H,2-3H2,1H3/t5-,6-,7+/m0/s1
