21
gdb 117042	4.37986	0.70026	0.61502	0.0847	80.35	-0.2362	-0.0787	0.1575	1877.2128	0.178305	-424.273507	-424.262316	-424.261372	-424.311745	38.148	
C	-0.0218521602	 1.584545311	 0.0107572925	-0.386562
C	 0.0243347473	 0.0549605201	 0.0020181187	-0.168894
C	-1.369445007	-0.5718986015	 0.0120951473	-0.276142
C	-1.3570619991	-2.0832713421	 0.0038660696	 0.275521
O	-0.3509098068	-2.7556055131	-0.0092573287	-0.286965
C	-2.7428808765	-2.7816034226	 0.013427045	 0.292445
O	-3.7500246652	-2.1112377626	 0.0265180762	-0.28693
C	-2.7303435264	-4.2938337022	 0.0050786538	-0.274024
C	-4.1266108604	-4.9092037932	 0.0151373565	-0.384243
H	 0.9862754529	 2.0097938415	 0.0032810218	 0.116036
H	-0.5533514041	 1.9724795769	-0.8654019962	 0.115572
H	-0.5362113809	 1.9629035251	 0.9012175545	 0.115572
H	 0.5711181631	-0.301554665	-0.8779243982	 0.110987
H	 0.5879947172	-0.3110248456	 0.8672997852	 0.110994
H	-1.9543770985	-0.248765213	 0.884255624	 0.13606
H	-1.9710766982	-0.2394749663	-0.8450813306	 0.136058
H	-2.1453248054	-4.6141812578	-0.8668396972	 0.139186
H	-2.1286999248	-4.6235995355	 0.8620397246	 0.139181
H	-4.0647803429	-6.0006160059	 0.0085995765	 0.11499
H	-4.6855127894	-4.6000128351	 0.9023840971	 0.130577
H	-4.7024184146	-4.5904248931	-0.8577896324	 0.130582
35.0323	46.9045	64.8793	95.5901	106.6995	182.1864	218.5398	243.9374	291.5677	307.8495	361.6343	365.3758	521.0683	579.3975	688.6033	727.1348	786.9345	790.1856	876.3161	876.936	946.5716	1004.3592	1046.0447	1050.5917	1094.9671	1115.4319	1127.4742	1192.8868	1238.2666	1261.7422	1316.3376	1324.0335	1374.4536	1397.9912	1415.3135	1416.5873	1434.5014	1435.81	1487.3722	1493.2582	1497.5819	1500.5162	1508.0744	1797.539	1801.4754	3025.5471	3030.3415	3036.7078	3045.6386	3045.9854	3050.9814	3058.5551	3074.3671	3100.2014	3104.9392	3123.6304	3123.808
CCCC(=O)C(=O)CC	CCCC(=O)C(=O)CC	
InChI=1S/C7H12O2/c1-3-5-7(9)6(8)4-2/h3-5H2,1-2H3	InChI=1S/C7H12O2/c1-3-5-7(9)6(8)4-2/h3-5H2,1-2H3
