21
gdb 95147	2.63267	1.72061	1.45572	1.4333	81.37	-0.2389	0.0049	0.2438	1013.0566	0.18587	-387.102145	-387.09473	-387.093786	-387.133449	30.968	
C	-0.0243190043	 1.5623090548	-0.0309343866	-0.414734
C	 0.0080427344	 0.0329277506	 0.0180593646	 0.01441
C	 0.6584062099	-0.5322317601	-1.2679087721	-0.065347
O	 1.0009887634	-1.9146746797	-1.2116004049	-0.28335
C	 1.6296401577	-2.3132836004	 0.0180228903	 0.086927
C	 0.6462671635	-2.0735878728	 1.1744470588	-0.232861
C	 0.7520469473	-0.5348095603	 1.2612813083	-0.057953
C	 2.2602409451	-0.3539791935	 1.1048490237	-0.073563
C	 2.7662894978	-1.3703621847	 0.4036242594	-0.095472
H	 0.9876093636	 1.9813786407	-0.0570379434	 0.117374
H	-0.5534976155	 1.9201268895	-0.9210247211	 0.11489
H	-0.5346330586	 1.9730646189	 0.8464732684	 0.113044
H	-1.0251062955	-0.3337847881	 0.0739344383	 0.074768
H	-0.0268009407	-0.434295885	-2.1157391237	 0.102091
H	 1.5523110114	 0.0657744687	-1.4976149835	 0.089231
H	 1.9203807375	-3.3540853902	-0.1357087711	 0.071794
H	-0.3577740481	-2.4391081928	 0.9429332907	 0.09434
H	 1.0032764214	-2.5463041413	 2.0941842552	 0.093886
H	 0.3463490371	-0.1045955535	 2.1818216879	 0.057913
H	 2.8048799385	 0.5140923409	 1.4579175763	 0.096645
H	 3.7879198339	-1.4795577318	 0.0610196745	 0.095967
152.3652	224.0524	270.8641	293.5715	359.8024	394.9977	426.3163	488.4722	560.348	596.2129	746.8669	765.7312	802.335	836.0952	866.7528	899.249	911.1657	929.8182	961.9342	970.9529	985.5427	1006.935	1033.5583	1069.0028	1089.8999	1126.2058	1132.6558	1154.2739	1186.4976	1225.5815	1263.3444	1299.2951	1306.5583	1314.9072	1339.4786	1345.1158	1365.8833	1382.6759	1405.7472	1421.5072	1485.8102	1494.3943	1500.7212	1504.525	1655.8965	2996.3085	3017.4942	3027.8558	3050.4196	3061.941	3075.6389	3094.3837	3097.5848	3098.8111	3107.5944	3189.0739	3216.3612
CC1COC2CC1C=C2	C[C@H]1CO[C@@H]2C[C@H]1C=C2	
InChI=1S/C8H12O/c1-6-5-9-8-3-2-7(6)4-8/h2-3,6-8H,4-5H2,1H3	InChI=1S/C8H12O/c1-6-5-9-8-3-2-7(6)4-8/h2-3,6-8H,4-5H2,1H3/t6-,7+,8-/m0/s1
