16
gdb 23214	2.98272	1.522	1.19025	2.9816	74.36	-0.2321	-0.0541	0.178	1036.1225	0.125417	-437.839754	-437.832476	-437.831532	-437.871477	28.567	
O	-0.0859934364	 1.2960550726	-0.0235889209	-0.359309
N	 0.0143789009	-0.0894122959	-0.0027728497	-0.268803
C	-1.1177283124	-0.6698740154	 0.0170681807	 0.340657
C	-1.3163815323	-2.1645019182	 0.0424362375	-0.10274
C	-2.4636353253	-2.3227847178	-1.0097470431	-0.242626
C	-3.2924481234	-1.5227957226	 0.0510810073	-0.137583
C	-2.4434427048	-2.2893046828	 1.120625149	-0.242625
C	-2.5621563467	-0.1788960003	 0.023031965	 0.37416
O	-3.0088864921	 0.9353363526	 0.0097889409	-0.316958
H	 0.8389344098	 1.5675819551	-0.036612112	 0.312671
H	-0.4243101305	-2.7861249384	 0.0437505803	 0.089922
H	-2.3218432308	-1.8829343051	-1.9998511121	 0.11608
H	-2.8070398664	-3.3563182301	-1.0942761108	 0.115486
H	-4.379070237	-1.4858445396	 0.0607999039	 0.090099
H	-2.7848751511	-3.3195698963	 1.2440792731	 0.115487
H	-2.2830448015	-1.8186039077	 2.0935551209	 0.116081
103.8728	195.6113	204.2316	302.0915	404.9499	446.9761	475.0192	502.9639	549.1472	647.7317	698.7531	785.4769	806.6837	841.3247	867.9963	886.7341	974.3485	989.5684	1009.5122	1018.9348	1041.8021	1055.0801	1094.4818	1128.7577	1220.9181	1224.3375	1237.5936	1239.3761	1276.2812	1296.2186	1424.8358	1486.2328	1520.6256	1742.5867	1863.1126	3062.3632	3063.7037	3125.9256	3126.8619	3150.881	3152.7641	3804.9906
ON=C1C2CC(C2)C1=O	ON=C1[C@@H]2C[C@@H](C2)C1=O	
InChI=1S/C6H7NO2/c8-6-4-1-3(2-4)5(6)7-9/h3-4,9H,1-2H2	InChI=1S/C6H7NO2/c8-6-4-1-3(2-4)5(6)7-9/h3-4,9H,1-2H2/t3-,4+
