17
gdb 107903	3.52434	1.19847	1.11583	2.7322	72.32	-0.2405	0.0036	0.2441	1122.275	0.135907	-421.788431	-421.780669	-421.779725	-421.82091	29.9	
O	 0.0990549286	 1.3275671821	-0.1544524904	-0.40983
C	-0.0319847883	-0.0527354875	 0.1442462615	-0.18277
C	-1.4585682806	-0.5157435609	 0.1151579126	 0.31441
C	-2.5887063512	-0.1066479144	 1.0700377035	-0.283114
C	-3.3854246931	-1.3032938709	 0.4771346304	-0.195324
C	-2.0088546057	-1.8956691424	-0.0386533726	-0.136647
C	-2.1237947367	-0.9130708215	-1.2265868817	-0.259378
C	-3.6031530817	-0.8863988974	-0.9932112657	 0.45349
O	-4.5651705527	-0.7989444002	-1.7018771171	-0.340094
H	-0.2921806142	 1.4771915843	-1.0218505993	 0.286335
H	 0.5764083098	-0.6786510723	-0.5292125047	 0.091109
H	 0.3746506571	-0.1739811732	 1.1544695499	 0.118296
H	-2.2970651987	-0.2828778348	 2.1094587778	 0.10946
H	-3.0292879856	 0.890472563	 0.9697871155	 0.111654
H	-4.1595879075	-1.8250600465	 1.0323748716	 0.096569
H	-1.584152753	-2.8877964082	-0.0439667743	 0.117301
H	-1.5696059564	-0.9334408692	-2.156019597	 0.108533
89.2856	116.0246	189.3199	266.8485	324.6787	382.7291	453.543	465.1735	563.1717	686.3165	717.3357	761.6528	805.1029	823.9416	858.7334	888.2732	922.7197	936.8055	966.9773	1012.2263	1046.1365	1059.7405	1072.6222	1121.3798	1123.426	1143.4704	1181.22	1198.8682	1220.0029	1266.2883	1299.8518	1363.7097	1402.8548	1432.9482	1498.1167	1502.2259	1883.6565	2970.8905	3046.0405	3066.2322	3103.3606	3167.2299	3206.6125	3240.2814	3808.3251
OCC12CC3C1C2C3=O	OC[C@]12C[C@@H]3[C@H]1[C@H]2C3=O	
InChI=1S/C7H8O2/c8-2-7-1-3-4(7)5(7)6(3)9/h3-5,8H,1-2H2	InChI=1S/C7H8O2/c8-2-7-1-3-4(7)5(7)6(3)9/h3-5,8H,1-2H2/t3-,4+,5+,7-/m1/s1
