19
gdb 41550	3.2054	1.84565	1.64516	1.8786	76.25	-0.2383	0.0763	0.3146	892.5182	0.163166	-385.843119	-385.836927	-385.835983	-385.8734	26.66	
C	 0.0065919394	 1.5174304377	 0.2908269078	-0.100927
O	 1.3909406614	 1.6070504644	-0.1184344758	-0.297119
C	 1.425543262	 0.2007996006	-0.4713161288	 0.130915
C	-0.0407585931	 0.0027299609	-0.0202182027	-0.073597
C	-0.751939063	-0.5757686862	-1.2288139163	-0.062713
C	-0.6219916696	 0.0272871583	-2.6239076841	-0.06863
C	 0.5957902817	 0.9410282879	-2.7712107357	-0.235879
C	 1.432571768	-0.1137757872	-1.9816840598	-0.077249
C	 0.2623633934	-1.1329555557	-2.1961009262	-0.087856
H	-0.1119931474	 1.7813925664	 1.3481528941	 0.099577
H	-0.6498199072	 2.1527700614	-0.3160970218	 0.100455
H	 2.2161825017	-0.3248746229	 0.0759833467	 0.071317
H	-0.1954062824	-0.6255614908	 0.8595388117	 0.075766
H	-1.6664548388	-1.1395273816	-1.0773400831	 0.083266
H	-1.4753739492	 0.0032388831	-3.2927344691	 0.080578
H	 0.9156920165	 0.9772143752	-3.8158527766	 0.097461
H	 0.5664161626	 1.9561065512	-2.3703671687	 0.112361
H	 2.4131179227	-0.3547264255	-2.3905788243	 0.067116
H	 0.3171218913	-2.151647587	-2.5557291972	 0.08516
168.5774	234.8646	337.1765	471.0052	523.735	604.3004	657.5527	702.4275	777.4773	795.3321	807.0778	846.4368	880.5094	895.5159	919.7357	959.6824	974.2003	986.7308	992.936	1013.4608	1042.6321	1056.2317	1064.9313	1074.7343	1094.6637	1119.3388	1148.8032	1169.0066	1189.7717	1214.6384	1229.1947	1252.4344	1279.1413	1294.2075	1318.6708	1343.3634	1353.5401	1363.8195	1403.2806	1506.8256	1520.6162	3017.2457	3038.1488	3060.5646	3063.285	3085.4234	3113.2268	3119.207	3161.6501	3171.0483	3203.2465
C1OC2C1C1C3CC2C13	C1O[C@H]2[C@@H]1[C@H]1[C@H]3C[C@@H]2[C@@H]13	
InChI=1S/C8H10O/c1-3-6-4(1)8-5(2-9-8)7(3)6/h3-8H,1-2H2	InChI=1S/C8H10O/c1-3-6-4(1)8-5(2-9-8)7(3)6/h3-8H,1-2H2/t3-,4+,5-,6-,7+,8+/m0/s1
