21
gdb 101861	5.38107	0.56374	0.53393	2.4833	82.55	-0.2554	0.0329	0.2883	2047.2835	0.178353	-424.172373	-424.161126	-424.160182	-424.209816	39.145	
C	-0.0334161318	 1.566385375	 0.0193206499	-0.387828
C	 0.0405160106	 0.0356456935	 0.0029853309	 0.01309
C	 0.732640925	-0.4851254353	-1.2572021483	-0.078656
O	-0.0346265997	-0.0802924334	-2.3808197689	-0.421706
C	 0.7402735393	-0.5110151857	 1.2455433591	-0.049055
O	-0.0017301096	-0.1299922657	 2.3879993279	-0.247374
C	 0.595827749	-0.5663974712	 3.5911073462	-0.204829
C	-0.2087667793	-0.1456595362	 4.7308566504	 0.278896
C	-0.8521533401	 0.188334386	 5.6880200787	-0.413189
H	 0.9736278936	 2.0026701654	 0.0293279831	 0.100441
H	-0.5502296257	 1.9316558421	-0.8702953582	 0.130395
H	-0.5603063517	 1.9156133219	 0.9096359495	 0.13107
H	-0.9804841988	-0.3672491143	 0.0002674782	 0.09634
H	 1.7577728289	-0.0806660291	-1.3104543426	 0.082637
H	 0.8145615118	-1.5836629285	-1.2121864352	 0.082071
H	 0.4328302353	-0.347545129	-3.1771033397	 0.287019
H	 0.8176773777	-1.6111558262	 1.195480129	 0.083298
H	 1.7700851105	-0.1156344098	 1.3125156153	 0.083051
H	 0.6980546292	-1.6657170044	 3.5959237437	 0.116746
H	 1.6166324593	-0.1570328621	 3.6870604533	 0.117333
H	-1.4264621737	 0.4871380071	 6.5297768376	 0.200251
39.5639	77.9728	79.1107	118.2377	128.4304	192.512	227.0854	249.097	285.3042	312.9002	335.2116	364.0706	426.853	541.3545	568.5853	607.9524	675.8266	846.8623	927.9155	939.0922	954.6621	984.7615	1021.6208	1034.021	1077.2826	1120.1343	1148.516	1172.7836	1178.729	1241.5344	1253.8572	1267.0299	1285.1485	1317.7309	1382.8508	1386.616	1402.4513	1446.3103	1464.0754	1496.0393	1499.233	1501.5966	1518.8481	1527.229	2248.5555	2934.3507	2949.4207	2953.9669	2963.1872	2966.8988	2981.1425	3027.9223	3040.59	3110.0367	3142.8624	3506.3372	3835.758
CC(CO)COCC#C	C[C@@H](CO)COCC#C	
InChI=1S/C7H12O2/c1-3-4-9-6-7(2)5-8/h1,7-8H,4-6H2,2H3	InChI=1S/C7H12O2/c1-3-4-9-6-7(2)5-8/h1,7-8H,4-6H2,2H3/t7-/m0/s1
