12
gdb 24744	3.7548	1.23445	0.92902	4.4265	71.02	-0.273	-0.1016	0.1714	1128.7731	0.079742	-431.729173	-431.721939	-431.720995	-431.761558	25.543	
O	-0.0487243202	-0.0495616694	 0.0032874888	-0.330618
C	-0.0547648685	 1.1677447626	 0.0066172868	 0.218781
C	 1.2082594792	 1.9315052557	 0.0002924534	 0.235349
N	 2.2018745044	 2.5221644829	-0.0047052696	-0.32025
C	-1.2512654016	 1.9717742766	 0.0166975032	 0.240988
C	-1.5037057188	 3.336084801	 0.0220018439	-0.148865
N	-2.8417590849	 3.5746613622	 0.0316236318	-0.249528
C	-3.4096735471	 2.3765232985	 0.0321533296	 0.051343
N	-2.4994277386	 1.3809697257	 0.023315269	-0.306428
H	-0.7789247863	 4.136650543	 0.0193409941	 0.155934
H	-4.4734554889	 2.1904842461	 0.0387458442	 0.159195
H	-2.6513350986	 0.3838577552	 0.0215924249	 0.2941
94.0747	111.5297	168.4166	233.8245	323.8094	466.4817	487.0952	602.9476	644.6341	669.1407	684.1537	782.5698	868.4829	904.9311	923.4156	974.452	1061.8456	1118.6023	1175.0528	1268.0429	1321.6114	1382.7049	1440.2207	1478.198	1581.1986	1730.0061	2344.755	3254.6828	3259.3142	3646.6834
O=C(C#N)C1=CN=CN1	O=C(C#N)c1cnc[nH]1	
InChI=1S/C5H3N3O/c6-1-5(9)4-2-7-3-8-4/h2-3H,(H,7,8)	InChI=1S/C5H3N3O/c6-1-5(9)4-2-7-3-8-4/h2-3H,(H,7,8)
