12
gdb 25410	2.88506	1.56974	1.01661	4.2492	68.01	-0.2601	-0.119	0.1411	1047.9845	0.077178	-472.664475	-472.657272	-472.656328	-472.696813	25.66	
O	-0.0431517418	-0.0165788128	-0.092987062	-0.238229
C	 0.0039112831	 1.1865797775	-0.0821788525	 0.115547
C	 1.2911659462	 1.9573989094	 0.0124269362	 0.048248
N	 2.4171191972	 1.3137923989	 0.0867650132	-0.243326
C	 3.5764853204	 2.0311136829	 0.1721380693	-0.086844
C	 3.5652849925	 3.3842367268	 0.1800355345	 0.077777
O	 2.4284792026	 4.0842539607	 0.1053015179	-0.192905
C	 1.1891336761	 3.4273677558	 0.0146894921	 0.4017
O	 0.1959446305	 4.0927333098	-0.0502345673	-0.30838
H	-0.8997042464	 1.8207007357	-0.1411399138	 0.120975
H	 4.50578858	 1.4793980361	 0.2333540857	 0.141051
H	 4.4438119795	 4.0160236991	 0.2453126465	 0.164385
83.2131	110.4761	208.8345	252.4443	370.3196	428.3425	500.4302	544.5757	556.2991	636.7292	794.9529	822.2366	846.7035	859.821	945.5435	956.6349	1034.737	1086.5585	1208.8137	1244.1593	1288.2936	1420.2178	1442.0801	1530.9131	1641.4985	1811.1257	1848.3972	2974.2781	3204.1951	3224.5875
O=CC1=NC=COC1=O	O=Cc1nccoc1=O	
InChI=1S/C5H3NO3/c7-3-4-5(8)9-2-1-6-4/h1-3H	InChI=1S/C5H3NO3/c7-3-4-5(8)9-2-1-6-4/h1-3H
