18
gdb 56917	3.04121	0.99753	0.8945	4.4276	73.27	-0.2791	0.0019	0.281	1355.5931	0.144095	-439.076644	-439.06649	-439.065546	-439.112427	35.946	
C	 0.0370385564	 1.530671388	-0.1981621212	-0.457533
C	-0.0643434546	 0.0432317137	 0.0581370543	 0.390384
C	-1.2075064638	-0.6497094051	-0.6528877082	-0.45307
O	 1.181662607	-0.6883613252	 0.0306483991	-0.282732
C	 0.4868259362	-0.592262116	 1.2687203782	-0.020403
C	 1.1687899904	 0.1775074875	 2.3926854119	-0.05213
O	 0.2365834406	 0.6439380713	 3.3515228144	-0.404802
C	 2.2118137935	-0.6592301717	 3.0225347379	 0.260021
N	 2.9903844715	-1.3381313603	 3.5401167183	-0.311589
H	 0.9415407221	 1.9652086008	 0.2298484475	 0.13131
H	 0.0580601556	 1.7194997263	-1.2764447309	 0.131165
H	-0.831315151	 2.0514460707	 0.2178224326	 0.13519
H	-1.1175159712	-0.513923544	-1.7357491148	 0.132347
H	-1.2087208726	-1.7216824344	-0.4420261177	 0.131647
H	-2.1689633919	-0.2288313025	-0.340429071	 0.127445
H	 0.0290190858	-1.5255368947	 1.6077523776	 0.097035
H	 1.6549672822	 1.0662032724	 1.9844896002	 0.146401
H	-0.1266546161	-0.115960077	 3.8211243817	 0.299315
30.9452	95.8588	137.5596	160.3736	183.2906	215.8819	263.4538	309.2353	356.2366	379.9232	388.7862	433.2768	510.175	552.8025	613.4938	716.1077	830.2731	910.7022	940.2077	954.4034	1005.0416	1054.8464	1071.7748	1113.7159	1137.7892	1153.438	1238.8603	1263.4409	1299.5363	1353.123	1406.4775	1411.9693	1423.0879	1461.5395	1472.1797	1486.7948	1500.8342	1520.0467	2356.5151	3037.9614	3045.2387	3070.7937	3102.1721	3103.6718	3107.7534	3127.0385	3139.3858	3802.5008
CC1(C)OC1C(O)C#N	CC1(C)O[C@H]1[C@@H](O)C#N	
InChI=1S/C6H9NO2/c1-6(2)5(9-6)4(8)3-7/h4-5,8H,1-2H3	InChI=1S/C6H9NO2/c1-6(2)5(9-6)4(8)3-7/h4-5,8H,1-2H3/t4-,5-/m0/s1
