21
gdb 88828	2.97566	1.17082	0.92869	2.5964	78.97	-0.2478	0.0701	0.318	1312.3843	0.182164	-424.188588	-424.179401	-424.178457	-424.223166	34.497	
C	-0.2248074878	 1.5057741131	-0.1538963458	-0.404975
C	 0.0097650182	 0.0060998381	-0.0284490858	-0.058458
C	 1.3161961886	-0.5161918492	-0.6689334241	-0.077763
O	 1.9097637512	-0.7520089511	 0.6241182003	-0.310061
C	 0.6345094479	-0.5229225762	 1.2951053109	 0.125675
C	 0.8017618598	 0.3446650451	 2.5078366274	-0.075922
C	 0.1743072042	-0.0655961398	 3.8301856397	-0.321269
C	 1.6476419105	-0.2334050008	 3.62018082	 0.125508
O	 2.1333538851	-1.536036809	 3.4826724755	-0.42919
H	 0.6792670337	 2.0759031249	 0.083689278	 0.125105
H	-0.5164229028	 1.761411658	-1.178136492	 0.116442
H	-1.0234962499	 1.8432677509	 0.5145871115	 0.122722
H	-0.8890577081	-0.53884472	-0.3279239534	 0.077565
H	 1.2092752068	-1.4435598528	-1.2471834574	 0.097461
H	 1.8939626421	 0.2069110759	-1.2574545281	 0.101257
H	 0.2026881172	-1.4878324832	 1.5887975977	 0.079788
H	 0.920051293	 1.4067579914	 2.320780042	 0.084526
H	-0.1742763618	 0.7116055153	 4.5007769493	 0.112217
H	-0.4173676915	-0.9747734832	 3.8355042042	 0.122728
H	 2.3147410505	 0.4501432899	 4.1448166684	 0.085581
H	 2.6361440128	-1.5670541173	 2.6586826717	 0.301063
49.4409	76.0372	126.766	204.925	238.7998	267.4074	358.2883	373.4874	420.4571	467.468	469.9753	602.6067	772.5161	789.6372	825.1494	854.481	869.1088	915.4221	924.0934	985.2277	1004.118	1009.5495	1027.4872	1055.1272	1065.8053	1116.5142	1127.5834	1155.1547	1169.5806	1192.0022	1201.4769	1237.6995	1263.1931	1279.6273	1329.2619	1346.4154	1353.5575	1378.1577	1411.5177	1415.3367	1440.9973	1480.8106	1496.6226	1500.1331	1527.0006	3006.2077	3019.9252	3031.6392	3052.3345	3072.3325	3099.1977	3100.5988	3105.8377	3136.3577	3163.4409	3226.0854	3770.86
CC1COC1C1CC1O	C[C@H]1CO[C@H]1[C@H]1C[C@H]1O	
InChI=1S/C7H12O2/c1-4-3-9-7(4)5-2-6(5)8/h4-8H,2-3H2,1H3	InChI=1S/C7H12O2/c1-4-3-9-7(4)5-2-6(5)8/h4-8H,2-3H2,1H3/t4-,5-,6+,7+/m0/s1
