22
gdb 58653	1.8203	1.46363	1.12394	1.0427	89.22	-0.2358	0.0383	0.2741	1269.056	0.191235	-367.167856	-367.157201	-367.156257	-367.202936	39.845	
C	 0.5432688617	 1.1512485205	-0.5632319626	-0.400553
C	 1.3447813461	-0.1475512988	-0.4023356909	-0.024564
C	 2.7644268201	-0.0197399962	-0.9696052664	-0.401441
C	 1.3663488362	-0.590515347	 1.0624699691	 0.125433
N	 0.1231419739	-1.2483048983	 1.5456246272	-0.377855
C	 1.3582276771	-2.0383203392	 1.4774471778	-0.038698
C	 1.3943737455	-3.2087529903	 0.5242441897	-0.406067
C	 2.0190576476	 0.3169371628	 1.9775215867	 0.302679
C	 2.5471837039	 1.0822098565	 2.7422768039	-0.463889
H	 1.0198539534	 1.976934839	-0.0245754182	 0.122591
H	 0.4726157611	 1.4324940086	-1.6187608013	 0.107053
H	-0.4712002019	 1.0287374652	-0.1726715944	 0.125077
H	 0.8156272481	-0.9316200935	-0.9524283694	 0.081598
H	 3.3324700553	 0.7470919735	-0.4329036119	 0.126797
H	 3.3152272473	-0.9624505475	-0.8884421188	 0.111944
H	 2.7324182786	 0.262804981	-2.0265628401	 0.111121
H	-0.0687544674	-0.9632801874	 2.5026136592	 0.235966
H	 1.8639944557	-2.2261856214	 2.4233881446	 0.090478
H	 0.8445372641	-3.0021730325	-0.395406536	 0.132235
H	 2.4259268645	-3.4716124182	 0.267459121	 0.121618
H	 0.9329451323	-4.0836528294	 0.99514223	 0.123462
H	 3.0173730267	 1.7540599925	 3.4169793005	 0.195014
69.4953	137.9526	147.6712	153.3697	189.4134	223.4605	228.4868	252.2817	319.3994	348.813	372.3809	459.668	501.6728	558.5459	585.1139	601.1018	646.4978	655.163	800.5489	861.6272	892.1366	930.7595	958.3242	969.4671	1021.7742	1030.7483	1066.2746	1107.1828	1136.3602	1143.1488	1197.4057	1245.0634	1269.3476	1322.5846	1338.5456	1366.5543	1395.6206	1407.1537	1418.4664	1450.7705	1486.851	1488.5902	1492.1605	1498.7961	1501.6863	1513.5765	2223.8283	3033.0707	3036.6217	3038.3983	3060.1422	3097.0575	3102.8805	3103.8521	3109.61	3113.7699	3114.5047	3139.501	3500.952	3506.0601
CC(C)C1(NC1C)C#C	CC(C)[C@]1(N[C@H]1C)C#C	
InChI=1S/C8H13N/c1-5-8(6(2)3)7(4)9-8/h1,6-7,9H,2-4H3	InChI=1S/C8H13N/c1-5-8(6(2)3)7(4)9-8/h1,6-7,9H,2-4H3/t7-,8+/m0/s1
