21
gdb 65550	2.55124	1.6238	1.32967	2.5106	81.86	-0.2463	-0.02	0.2263	1058.5239	0.183605	-387.095452	-387.08734	-387.086396	-387.127928	32.363	
C	 0.0020594848	 1.6610067655	 0.2403378033	-0.473074
C	 0.0328794962	 0.1304343357	 0.1199748847	 0.237129
C	 0.8541851867	-0.4269074447	-1.0882573678	-0.27249
C	 1.8875415418	-1.2889908269	-0.332043697	-0.009215
C	 1.0009863598	-2.0169750885	 0.7193294231	-0.237475
C	 0.8299049584	-0.5700765003	 1.2728215514	-0.053126
C	 2.3076292859	-0.3493048097	 0.8327658598	-0.231169
C	-1.4046740806	-0.3585657375	 0.1512359652	 0.119746
O	-1.9118708891	-1.1376924065	-0.6155388006	-0.25851
H	 1.0084153799	 2.073023953	 0.3455958263	 0.126282
H	-0.4516050487	 2.1150675612	-0.647241689	 0.126699
H	-0.5806283111	 1.9792063985	 1.1128697143	 0.117088
H	 0.219781873	-1.013467843	-1.7566036875	 0.124049
H	 1.3233796848	 0.375625665	-1.6652156873	 0.092548
H	 2.6222127122	-1.82418997	-0.9340425471	 0.06054
H	 0.1157153584	-2.551779278	 0.3685446414	 0.113444
H	 1.5829824305	-2.6471226725	 1.3953537546	 0.095528
H	 0.491944093	-0.3706369176	 2.2912907253	 0.061354
H	 3.0100897626	-0.8204288822	 1.5245179928	 0.099214
H	 2.646304837	 0.6619987106	 0.5931633243	 0.089909
H	-1.9988676458	 0.068754798	 0.9943664897	 0.071529
73.7017	177.4513	212.4122	237.2047	317.6838	329.3501	398.1484	445.7875	508.0752	556.9274	637.3524	764.1302	817.2126	844.2617	849.832	856.0515	906.1406	934.1376	939.6227	952.7121	984.8282	1027.089	1035.3554	1049.2078	1072.8343	1085.9889	1093.7828	1164.4014	1174.4638	1204.7133	1231.7134	1243.1989	1249.207	1275.3743	1291.6861	1298.1561	1334.2402	1407.8477	1433.77	1487.2036	1490.9787	1498.7862	1503.7696	1530.2329	1822.4191	2844.8184	3030.4252	3055.8562	3060.9907	3068.6229	3091.5341	3099.6786	3111.3556	3113.3173	3115.8519	3122.6254	3128.9131
CC1(CC2CC1C2)C=O	C[C@]1(C[C@@H]2C[C@H]1C2)C=O	
InChI=1S/C8H12O/c1-8(5-9)4-6-2-7(8)3-6/h5-7H,2-4H2,1H3	InChI=1S/C8H12O/c1-8(5-9)4-6-2-7(8)3-6/h5-7H,2-4H2,1H3/t6-,7+,8-/m0/s1
