20
gdb 10307	2.42403	1.67957	1.059	3.0217	75.99	-0.2468	0.0315	0.2783	1158.4078	0.175927	-345.19789	-345.188039	-345.187095	-345.232383	35.096	
C	-0.2489644155	 1.4745334643	 0.0879884804	-0.331061
N	 0.1266161062	 0.0687369382	-0.0464588129	-0.271854
C	 0.7609810437	-0.5101830694	 1.1329051834	-0.098094
C	-0.1537941143	-0.5080705773	 2.3028641141	 0.269743
N	-0.9213963631	-0.4862742094	 3.1680471222	-0.341691
C	 1.2963055072	-1.9370905137	 0.8471697268	 0.016964
C	 2.3104319247	-1.9030480248	-0.302579207	-0.392099
C	 1.9015768871	-2.5751789647	 2.1036707601	-0.407339
H	 0.6550472317	 2.0788095723	 0.2206410894	 0.127519
H	-0.7357051587	 1.8009139214	-0.8347244868	 0.127464
H	-0.9253344414	 1.6817579134	 0.9320422455	 0.126083
H	-0.6899888252	-0.4841278158	-0.2886904265	 0.228524
H	 1.6154590318	 0.1296136719	 1.3936071328	 0.122552
H	 0.4330156748	-2.5423374114	 0.5358227355	 0.084539
H	 2.6240801027	-2.9185332376	-0.5627563543	 0.113813
H	 1.8890572909	-1.4250825102	-1.1883016508	 0.133985
H	 3.2075879117	-1.3439431926	-0.0104456241	 0.112166
H	 1.1765059709	-2.6450068339	 2.9188171048	 0.142751
H	 2.2576854595	-3.5850871271	 1.8800849933	 0.119135
H	 2.7597772055	-1.9944567237	 2.4623880741	 0.116898
66.8466	103.8318	149.7294	188.3125	197.9392	214.5974	249.2809	274.9674	329.4142	367.7938	431.3528	432.2395	540.8941	608.6819	756.009	854.141	900.1096	935.7054	955.991	982.1193	1003.4217	1102.4779	1138.4551	1156.6914	1161.6252	1193.4161	1221.0538	1287.0206	1338.937	1350.4603	1368.8666	1399.1814	1422.8109	1460.6389	1487.4334	1488.2957	1490.6436	1495.5277	1503.3306	1514.4337	1521.306	2337.1883	2984.6872	3003.6465	3024.9058	3031.5257	3036.8857	3068.8318	3096.215	3102.5426	3114.4797	3120.518	3139.2836	3516.5505
CNC(C#N)C(C)C	CN[C@@H](C#N)C(C)C	
InChI=1S/C6H12N2/c1-5(2)6(4-7)8-3/h5-6,8H,1-3H3	InChI=1S/C6H12N2/c1-5(2)6(4-7)8-3/h5-6,8H,1-3H3/t6-/m0/s1
