16
gdb 23399	3.03411	1.5013	1.44245	1.0632	76.12	-0.2232	-0.0117	0.2115	968.5375	0.125464	-400.686592	-400.67961	-400.678665	-400.7177	28.599	
O	-0.1657818047	 1.3140219827	 0.0066684451	-0.401608
N	-0.0281021606	-0.0955662711	 0.0026725961	-0.310661
C	-1.1485348927	-0.6709117677	 0.009069843	 0.503369
C	-2.620451323	-0.2279042373	 0.0200730031	-0.206305
C	-3.0459145245	-1.0278201714	-1.2263216712	-0.076353
C	-2.3575646056	-2.1724386959	-1.232597982	-0.079472
C	-1.4431693012	-2.1738368256	 0.0078218732	-0.189961
C	-2.3405602184	-2.1778458118	 1.2605933932	-0.079472
C	-3.0288872196	-1.0332248679	 1.2686806636	-0.076353
H	 0.7536850454	 1.5993971216	 0.0010148548	 0.305166
H	-2.834643073	 0.8364986342	 0.0238410113	 0.092699
H	-3.7875425143	-0.6880706797	-1.935975903	 0.10934
H	-2.4112402937	-2.983008227	-1.9460738083	 0.109192
H	-0.5988926355	-2.8590408205	 0.0005771979	 0.081884
H	-2.3845241139	-2.991505135	 1.9712110646	 0.109193
H	-3.7607494446	-0.6965746276	 1.9898569385	 0.10934
125.1045	206.4956	311.3742	388.3307	389.1586	448.5958	473.3107	562.199	665.5037	683.9713	733.7034	744.8148	750.0436	843.0276	864.6869	887.2376	918.291	924.7258	936.2116	937.5523	939.3902	961.1545	1078.9175	1132.6722	1137.6725	1193.5218	1216.3382	1224.0067	1256.6113	1285.613	1330.9967	1403.768	1606.6973	1644.8752	1799.8358	3151.4436	3170.3568	3216.6964	3218.2335	3241.4327	3243.6623	3824.2595
ON=C1C2C=CC1C=C2	ON=C1[C@H]2C=C[C@@H]1C=C2	
InChI=1S/C7H7NO/c9-8-7-5-1-2-6(7)4-3-5/h1-6,9H	InChI=1S/C7H7NO/c9-8-7-5-1-2-6(7)4-3-5/h1-6,9H/t5-,6+
