18
gdb 85079	2.91676	1.37611	0.98772	3.4502	74.28	-0.2448	-0.0069	0.2379	1196.0195	0.14799	-439.123131	-439.114421	-439.113476	-439.157035	32.55	
C	-0.539607098	 1.3736891498	-0.0285916678	-0.394057
C	-0.092000129	-0.0670560518	 0.1926888117	 0.088314
O	 0.3080252704	-0.5655189159	-1.1065082779	-0.24078
C	 1.2580110899	-1.5080068219	-1.2675938286	 0.40167
O	 1.5817714975	-1.8419738629	-2.3768600894	-0.335958
C	 1.8903202958	-2.1322197007	-0.0088828784	-0.178574
N	 3.2080788865	-2.7078637614	-0.2549500116	-0.510197
C	 1.9181040527	-1.1472916704	 1.1264945744	-0.067988
C	 0.99497419	-0.1987759123	 1.221380714	-0.089214
H	 0.3064427584	 1.9933312861	-0.3387482151	 0.134732
H	-1.30777708	 1.4168282602	-0.8037944574	 0.137397
H	-0.9535263455	 1.7831069141	 0.8977879799	 0.121928
H	-0.9635132459	-0.664324269	 0.5023136643	 0.107605
H	 1.2218901529	-2.9638290253	 0.2715883901	 0.12725
H	 3.1482212531	-3.2680612333	-1.1020968635	 0.244787
H	 3.8524302077	-1.9551013884	-0.4884146747	 0.229494
H	 2.7090434323	-1.2700062561	 1.8597228069	 0.116782
H	 0.9742659515	 0.5030589391	 2.049203163	 0.10681
36.9385	104.9286	224.4058	243.5915	273.8003	300.0355	309.2239	390.3886	432.5162	504.7139	542.4101	585.664	671.1398	703.5041	785.5442	860.9194	884.1302	949.8469	966.7542	992.3953	1010.7307	1063.9717	1118.0867	1144.3682	1157.3294	1187.9252	1196.0143	1226.8789	1304.4928	1340.6014	1368.5766	1382.9278	1408.975	1419.3875	1486.2814	1497.1971	1673.6431	1730.1307	1831.5914	2965.3235	2983.6678	3047.7527	3122.44	3135.4298	3172.3739	3193.612	3477.4092	3549.9815
CC1OC(=O)C(N)C=C1	C[C@H]1OC(=O)[C@@H](N)C=C1	
InChI=1S/C6H9NO2/c1-4-2-3-5(7)6(8)9-4/h2-5H,7H2,1H3	InChI=1S/C6H9NO2/c1-4-2-3-5(7)6(8)9-4/h2-5H,7H2,1H3/t4-,5+/m1/s1
