23
gdb 83539	2.95275	1.44949	1.26133	0.152	89.63	-0.2633	0.0909	0.3541	1134.3955	0.207857	-351.135388	-351.127259	-351.126315	-351.167416	33.598	
C	-0.1559947932	 1.6227224951	-0.0113938143	-0.442567
C	 0.0257135689	 0.1123298504	 0.0165529894	 0.060908
C	 1.15408682	-0.6064939273	-0.7983213139	-0.122283
C	 2.444677693	 0.0488630395	-0.2612971622	-0.212469
C	 2.1125032464	 0.0373997309	 1.2704074405	-0.212462
C	 0.7174569849	-0.6216299867	 1.2151717567	-0.122294
C	 0.9673392947	-1.7574875686	 0.2066822904	 0.472188
C	 0.1865298708	-3.0147842762	 0.0278224182	-0.368761
C	 1.6751888357	-3.0626926177	 0.3502651448	-0.375633
H	 0.7687369935	 2.1691246659	 0.1923630876	 0.116736
H	-0.5223251802	 1.9490374461	-0.99136237	 0.113218
H	-0.8950176115	 1.9361133459	 0.7347004351	 0.113225
H	-0.9299720471	-0.3771949475	-0.1943685979	 0.071416
H	 1.074172023	-0.7623052431	-1.875935413	 0.051646
H	 3.3301680493	-0.5470886866	-0.4983306735	 0.094191
H	 2.6056126334	 1.0559842864	-0.6560935887	 0.091924
H	 2.8221524453	-0.5645554656	 1.8444125249	 0.094189
H	 2.0922325117	 1.038284386	 1.7107230873	 0.091926
H	 0.1988462273	-0.7926151409	 2.1605418772	 0.051643
H	-0.5087143618	-3.3140856173	 0.8065619487	 0.108507
H	-0.1228514385	-3.3005710816	-0.9731702538	 0.108508
H	 2.3534485535	-3.3780091409	-0.437106499	 0.108121
H	 1.9673797111	-3.3915777864	 1.3431765656	 0.108122
159.6769	174.0867	208.7192	247.1588	269.9152	287.9021	392.4768	448.4504	561.9391	616.8503	686.8957	736.1908	772.5904	791.646	844.8714	866.0469	901.7219	914.3429	939.7063	944.236	963.5815	988.2904	1008.0446	1012.5933	1045.9026	1051.2823	1065.6829	1077.288	1121.977	1147.3464	1150.0929	1181.1548	1193.8547	1213.5355	1227.2524	1251.7153	1252.8256	1272.1841	1318.1871	1321.9511	1391.8104	1407.2764	1415.9725	1463.6307	1482.8858	1492.3169	1507.1098	1509.5878	1519.0403	3031.0939	3052.2634	3059.0023	3060.654	3086.9686	3087.7495	3093.8769	3098.7452	3104.7967	3114.6485	3115.8698	3118.567	3190.046	3204.6631
CC1C2CCC1C21CC1	C[C@H]1[C@H]2CC[C@@H]1C12CC1	
InChI=1S/C9H14/c1-6-7-2-3-8(6)9(7)4-5-9/h6-8H,2-5H2,1H3	InChI=1S/C9H14/c1-6-7-2-3-8(6)9(7)4-5-9/h6-8H,2-5H2,1H3/t6-,7+,8-
