19
gdb 26940	2.98792	1.25549	0.95629	0.7444	83.65	-0.2022	0.0261	0.2283	1259.6387	0.159619	-385.914475	-385.905945	-385.905	-385.948287	31.951	
C	 0.1229069331	 1.4893661938	-0.2273133887	-0.49445
C	-0.0468164865	 0.0184771206	-0.0905562194	 0.250797
C	-1.123557389	-0.796124735	 0.1205464439	 0.203262
C	-0.5965359279	-2.1381436027	 0.1514369646	-0.29456
C	 0.7399767531	-2.0307192551	-0.0408996145	-0.017379
O	 1.095923694	-0.7288194358	-0.1903060223	-0.182237
C	-2.5342473743	-0.3875472254	 0.2832708636	-0.108162
C	-3.661903706	-1.2452500193	-0.2561536678	-0.266743
C	-3.4574769282	-1.1306394071	 1.2286191613	-0.266743
H	 0.7913530464	 1.8905618143	 0.5435012524	 0.136403
H	 0.5506901398	 1.7562497277	-1.2008167443	 0.136398
H	-0.8410541029	 1.9935807675	-0.1331738238	 0.134331
H	-1.1488986718	-3.0537299868	 0.2981754592	 0.107198
H	 1.5433325491	-2.7467253862	-0.0963445776	 0.129493
H	-2.6985087452	 0.6835249762	 0.2232163287	 0.075663
H	-4.5141835441	-0.7443082975	-0.7020548622	 0.112186
H	-3.3897841877	-2.1767498287	-0.7405561064	 0.116179
H	-3.0459938129	-1.9839841025	 1.7566990126	 0.116178
H	-4.168822219	-0.5506508081	 1.8063356405	 0.112185
57.8315	89.0621	164.4019	165.7976	234.4779	281.9291	420.3117	451.1654	582.8684	617.6826	687.418	702.2957	744.335	791.6273	815.8915	820.2612	902.9007	912.1834	920.9031	959.3294	1046.8533	1060.9399	1061.3937	1076.3423	1077.4507	1126.2361	1127.8317	1185.1211	1200.2928	1221.5556	1241.299	1293.7629	1399.5138	1411.0035	1446.7481	1467.8017	1471.1679	1489.1721	1501.1037	1554.8015	1666.2296	3027.0404	3074.4621	3128.5584	3131.2893	3134.9854	3155.4319	3210.3517	3225.9884	3246.264	3281.1843
CC1=C(C=CO1)C1CC1	Cc1c(cco1)C1CC1	
InChI=1S/C8H10O/c1-6-8(4-5-9-6)7-2-3-7/h4-5,7H,2-3H2,1H3	InChI=1S/C8H10O/c1-6-8(4-5-9-6)7-2-3-7/h4-5,7H,2-3H2,1H3
