19
gdb 100373	2.51166	1.20742	1.03523	5.8329	76.52	-0.2655	0.0065	0.2721	1249.0113	0.157252	-419.250404	-419.240116	-419.239172	-419.28556	36.689	
C	-0.1227279999	 1.527957392	 0.1297560176	-0.406878
C	 0.0420181323	 0.0157834739	-0.025520135	-0.222745
C	 0.789054574	-0.4451354223	-1.3061668454	 0.117081
C	 2.2325439826	 0.0939585329	-1.3545724834	-0.413626
N	 0.7842969096	-1.9140287965	-1.2882269027	-0.304874
C	 1.3031176778	-2.7053859234	-2.2730252983	 0.168097
O	 1.9198931871	-2.3132675443	-3.237189834	-0.314411
C	 0.0382816059	 0.0406147751	-2.4890157924	 0.310408
N	-0.5770449525	 0.4545918208	-3.3750037906	-0.347913
H	 0.8393097448	 2.0345496829	 0.2431922891	 0.130105
H	-0.6390446155	 1.9608933994	-0.7316509406	 0.152346
H	-0.7165158286	 1.7452301987	 1.0217979961	 0.12648
H	 0.5964798021	-0.3953808939	 0.8265089295	 0.11351
H	-0.9480557691	-0.456799374	-0.0268882927	 0.116316
H	 2.7598414095	-0.2190132016	-0.4488221418	 0.120965
H	 2.7482167311	-0.3040418846	-2.2272352086	 0.177352
H	 2.2320705436	 1.1843921547	-1.40874029	 0.135838
H	 0.1766214261	-2.3561319663	-0.615472405	 0.251701
H	 1.102179889	-3.7771249932	-2.0752443317	 0.090248
66.2515	104.6034	140.6976	157.7715	197.4438	221.8694	240.7786	283.2833	288.9727	351.566	392.7829	422.1322	489.3488	582.4354	595.7762	668.4531	795.3689	827.1479	906.1217	940.8244	1013.6083	1024.0434	1030.9002	1081.4269	1165.2704	1176.0725	1213.2968	1238.2948	1320.7634	1362.8567	1404.8599	1418.2094	1431.186	1476.9912	1485.459	1498.9927	1508.0013	1510.1884	1515.8613	1811.4149	2354.6051	2937.7565	3025.0308	3049.7954	3057.8132	3067.9619	3119.4618	3125.9502	3136.0369	3171.2717	3618.6198
CCC(C)(NC=O)C#N	CC[C@@](C)(NC=O)C#N	
InChI=1S/C6H10N2O/c1-3-6(2,4-7)8-5-9/h5H,3H2,1-2H3,(H,8,9)	InChI=1S/C6H10N2O/c1-3-6(2,4-7)8-5-9/h5H,3H2,1-2H3,(H,8,9)/t6-/m1/s1
