18
gdb 33146	3.00532	1.2636	0.94747	3.1319	75.12	-0.1755	0.0526	0.228	1222.5755	0.148827	-439.115883	-439.107197	-439.106253	-439.14925	33.215	
O	 0.0682023797	 0.317004836	 1.1837448535	-0.410962
C	-0.0711544313	 0.1960757083	-0.2387760562	-0.0741
C	-1.377605394	-0.5404209191	-0.5357837748	-0.332485
C	-1.373762614	-2.0056659743	-0.2034335532	 0.15402
C	-1.5639732654	-3.0424556484	-1.0957827697	-0.16929
N	-1.5463864053	-4.2193687263	-0.4049233439	-0.242835
C	-1.3323628011	-3.9736092572	 0.9365990401	-0.169833
C	-1.2248435631	-2.6099367046	 1.0883101244	 0.221023
O	-1.0396926953	-1.9770138626	 2.2764956946	-0.462672
H	 0.9812817718	 0.5344328556	 1.3921962426	 0.296813
H	-0.0928701369	 1.1991559037	-0.6888197128	 0.093326
H	 0.7765772655	-0.3572912464	-0.6636245535	 0.101723
H	-2.1758534195	-0.014919727	 0.007080053	 0.117193
H	-1.5957406936	-0.4144596572	-1.6023687771	 0.102401
H	-1.7259608423	-3.019926433	-2.1622662681	 0.108561
H	-1.657353372	-5.130356961	-0.8104335537	 0.257627
H	-1.2774836498	-4.7668830063	 1.662381845	 0.112378
H	-0.6749903835	-1.0969375801	 2.0801086797	 0.297113
57.0858	159.3196	199.6525	234.5233	275.7317	296.8833	338.7312	396.2811	459.454	484.8866	615.3876	619.5098	634.6477	645.9227	716.7453	735.9288	740.2361	869.2468	902.3647	949.4889	1045.0225	1074.4208	1078.1278	1123.0304	1170.6603	1207.9334	1248.472	1262.9412	1298.0151	1339.1329	1360.8536	1382.8875	1439.0563	1463.3144	1472.1883	1484.9559	1514.7762	1564.8217	1659.8464	2992.6526	3009.7886	3043.7565	3068.5166	3250.7844	3277.6606	3621.8268	3701.5185	3838.6606
OCCC1=CNC=C1O	OCCc1c[nH]cc1O	
InChI=1S/C6H9NO2/c8-2-1-5-3-7-4-6(5)9/h3-4,7-9H,1-2H2	InChI=1S/C6H9NO2/c8-2-1-5-3-7-4-6(5)9/h3-4,7-9H,1-2H2
