13
gdb 133391	2.44979	1.8048	1.03965	0.5821	67.11	-0.2247	-0.0505	0.1741	1025.4553	0.089312	-494.005362	-493.9979	-493.996955	-494.037193	28.535	
N	 0.0725930049	 1.3150949317	-0.0529717882	-0.543577
C	-0.0058624123	-0.0350153081	 0.0215036699	 0.399534
N	-1.1818085261	-0.596253187	 0.0577127315	-0.203505
O	-1.2207781792	-1.9885326178	 0.1917888725	-0.227478
C	-0.0918896272	-2.6994880001	 0.2662246955	-0.015156
C	 1.1355639626	-2.1509728389	 0.2105698676	 0.137495
F	 2.2308016687	-2.9145396639	 0.2798342875	-0.075068
C	 1.3006829099	-0.7356185112	 0.0669565295	 0.158723
N	 2.3812042635	-0.0475855778	-0.0307998673	-0.572222
H	 0.9860350337	 1.6823973961	-0.273768681	 0.283934
H	-0.7530427611	 1.8398397932	-0.2849456286	 0.268331
H	-0.2780673861	-3.7613653775	 0.371725627	 0.15836
H	 3.1992446986	-0.6568264987	 0.0069914141	 0.23063
104.3101	241.3364	294.3751	298.2908	330.1532	368.842	439.5948	462.1233	524.1256	539.291	555.8213	578.6701	691.6325	785.7325	870.9844	875.6377	901.0108	907.8955	1013.1701	1141.6126	1217.8239	1266.7793	1308.6455	1403.1625	1496.7605	1589.1101	1629.7711	1671.7719	1692.7406	3216.8888	3477.0899	3582.5379	3725.6365
NC1=NOC=C(F)C1=N	NC1=NO[CH]C(=C1[NH])F	
InChI=1S/C4H4FN3O/c5-2-1-9-8-4(7)3(2)6/h1,6H,(H2,7,8)	InChI=1S/C4H4FN3O/c5-2-1-9-8-4(7)3(2)6/h1,6H,(H2,7,8)
