19
gdb 112677	3.00485	1.17143	0.94872	4.4809	72.88	-0.2306	0.0581	0.2887	1268.9216	0.160522	-456.390201	-456.38098	-456.380036	-456.424375	33.374	
C	-0.01124091	 1.338425771	-0.09029929	-0.338167
N	-0.0451801695	-0.1018034095	-0.1495218916	-0.100135
C	-1.2342740374	-0.8631784257	 0.1762577905	-0.192251
C	-0.7298824345	-2.3203531315	 0.0784625019	 0.017256
C	-0.9910736216	-2.9437578084	-1.293380365	-0.082432
O	-0.3292968626	-4.1992857311	-1.3054228732	-0.424619
N	 0.6924112055	-2.1505915266	 0.3417477809	-0.349316
C	 1.1041386119	-0.8572971234	 0.0347176173	 0.442526
O	 2.2461817609	-0.4585352185	-0.0480276149	-0.423865
H	 1.0229846203	 1.6494125015	-0.2484660048	 0.164375
H	-0.6440251346	 1.7777865662	-0.8698697913	 0.117777
H	-0.3521294956	 1.7186581059	 0.8845162764	 0.112952
H	-1.5981082446	-0.6346489173	 1.1901123306	 0.10584
H	-2.0524682277	-0.6591195445	-0.5253070204	 0.10835
H	-1.1899560408	-2.9568174253	 0.8409427261	 0.096794
H	-2.0765482121	-3.0577324418	-1.444159491	 0.089871
H	-0.6043306723	-2.2738525091	-2.0761500477	 0.10307
H	-0.3391753747	-4.5449530211	-2.2022204591	 0.295037
H	 1.3138377893	-2.9013949907	 0.0803372154	 0.256934
78.5152	120.8216	159.2383	165.1078	203.9017	251.8199	259.699	296.5309	373.2092	475.6674	537.3123	586.5234	678.4423	734.9876	766.8837	819.7977	867.3926	962.3089	999.1338	1055.1417	1085.973	1106.4828	1137.4575	1158.378	1179.6395	1214.0789	1252.3419	1254.671	1296.9025	1306.5591	1319.3048	1386.0289	1407.4229	1434.9193	1449.9849	1460.4734	1492.5584	1514.3784	1515.3638	1539.7491	1831.3898	2970.6162	2979.4046	2991.7787	3012.2313	3040.2444	3057.9009	3059.9441	3141.072	3631.0863	3840.3541
CN1CC(CO)NC1=O	CN1C[C@@H](CO)NC1=O	
InChI=1S/C5H10N2O2/c1-7-2-4(3-8)6-5(7)9/h4,8H,2-3H2,1H3,(H,6,9)	InChI=1S/C5H10N2O2/c1-7-2-4(3-8)6-5(7)9/h4,8H,2-3H2,1H3,(H,6,9)/t4-/m0/s1
