19
gdb 72707	2.66293	2.06783	1.6164	2.0502	79.69	-0.2265	-0.0061	0.2204	911.4118	0.158534	-385.753662	-385.746418	-385.745474	-385.784472	31.112	
C	-0.0267408788	 1.4961982946	-0.089907329	-0.443036
C	-0.0841258544	-0.0322004363	-0.0538657768	 0.314191
C	-1.35274261	-0.4955841859	 0.7691528289	-0.317931
C	-0.3797245966	-0.4725333652	 2.0529956646	-0.337586
C	 0.7102507112	-0.770002284	 0.9947415398	 0.353751
O	 1.9767498571	-0.3124204951	 0.3241097096	-0.374328
C	 1.1384986663	-0.6295131564	-0.8945584793	-0.103283
C	 0.9815436494	-2.1351695416	-0.7683134762	-0.059137
C	 0.6932940412	-2.2423335836	 0.5272247314	-0.142115
H	 0.9967565336	 1.8572847083	-0.198385019	 0.136503
H	-0.6153144477	 1.8480482351	-0.9466195782	 0.111905
H	-0.4599698891	 1.9605476063	 0.8012917007	 0.110718
H	-2.2009928066	 0.1927320914	 0.782936996	 0.103669
H	-1.6954504807	-1.5092790821	 0.5594409454	 0.121797
H	-0.3353227266	 0.5203438369	 2.5000123418	 0.126269
H	-0.5436540744	-1.2223389699	 2.8314322596	 0.105612
H	 1.5293568035	-0.170126709	-1.8035098864	 0.0782
H	 1.0990028341	-2.8740130177	-1.5468244213	 0.111951
H	 0.4863750384	-3.1023956159	 1.1487132786	 0.102849
193.119	251.3973	299.9581	320.2997	381.112	417.7366	505.1368	515.2542	590.0133	603.6787	682.4966	716.7662	720.1686	782.5069	800.9882	840.6108	846.6789	893.0569	902.1307	925.738	933.79	961.3781	999.2478	1051.3737	1106.6895	1120.2608	1130.8879	1164.1318	1173.7662	1200.688	1220.1288	1231.2879	1262.6539	1275.598	1313.0051	1402.5741	1465.9626	1480.7923	1499.6325	1505.3712	1626.9836	3028.6864	3067.3801	3072.1082	3086.7952	3115.564	3135.8533	3139.6527	3149.7988	3222.3885	3254.9881
CC12CCC11OC2C=C1	C[C@]12CC[C@@]31O[C@H]2C=C3	
InChI=1S/C8H10O/c1-7-4-5-8(7)3-2-6(7)9-8/h2-3,6H,4-5H2,1H3	InChI=1S/C8H10O/c1-7-4-5-8(7)3-2-6(7)9-8/h2-3,6H,4-5H2,1H3/t6-,7+,8-/m0/s1
