18
gdb 66726	1.95417	1.84645	1.79012	1.286	75.48	-0.2021	0.061	0.2632	969.66	0.145382	-401.831637	-401.823122	-401.822178	-401.864205	32.652	
C	-0.1067850845	 1.4980875972	 0.0753492706	-0.528819
C	-0.0033612029	 0.0117490606	-0.0031571109	 0.226634
C	 0.3195112398	-0.9834787648	-1.1487323349	-0.105475
C	-0.5714793777	-2.0187710686	-0.5606185372	-0.149209
N	 0.8862597374	-1.9902509707	-0.1838293724	-0.20169
C	 0.5623831444	-1.0272290789	 0.9643104962	 0.22867
C	 1.3405041517	-0.939899969	 2.2300161867	-0.526993
C	-0.9129058638	-1.0532324589	 0.6172818916	 0.259421
O	-2.0413026937	-0.8050199539	 1.3502774246	-0.449194
H	 0.8494705722	 1.9851757031	-0.1478390314	 0.122428
H	-0.8530481721	 1.8837926183	-0.6289712408	 0.127134
H	-0.4155219959	 1.8070072424	 1.0793544693	 0.130933
H	 0.7120523207	-0.8577094267	-2.1525582653	 0.091427
H	-1.0395909224	-2.8985007437	-0.9889232293	 0.095187
H	 2.3784394362	-0.6465047177	 2.0372719775	 0.132533
H	 0.8972353477	-0.1974723044	 2.9018820322	 0.127263
H	 1.3557586886	-1.9046934789	 2.7504381154	 0.126603
H	-2.1390365656	-1.4968660655	 2.0154012381	 0.293149
151.064	155.212	176.021	184.9305	211.4024	322.135	345.0152	389.6249	404.7796	614.5439	624.6253	682.0563	707.4768	754.0108	767.7119	788.3306	848.7928	867.0642	887.4403	983.0341	990.4215	1027.7287	1086.0263	1097.5775	1121.6677	1159.0908	1184.323	1205.2314	1258.6523	1296.271	1358.5218	1372.0291	1407.4434	1419.1985	1473.5284	1481.5977	1487.4809	1493.2185	1522.9274	3021.3382	3023.6982	3079.1915	3084.3311	3097.6304	3101.5546	3155.4967	3171.4562	3772.3824
CC12C3C4N3C1(C)C24O	C[C@@]12[C@@H]3[C@H]4N3[C@]1(C)[C@@]24O	
InChI=1S/C7H9NO/c1-5-3-4-7(5,9)6(5,2)8(3)4/h3-4,9H,1-2H3	InChI=1S/C7H9NO/c1-5-3-4-7(5,9)6(5,2)8(3)4/h3-4,9H,1-2H3/t3-,4+,5+,6-,7-,8?/m0/s1
