21
gdb 102141	2.1462	1.05319	0.84478	2.2282	85.17	-0.2442	-0.0185	0.2256	1471.4133	0.178345	-387.086172	-387.075091	-387.074147	-387.123981	39.106	
C	-1.5650753429	-0.1824455453	 0.2121862723	-0.398229
C	-0.0380197468	-0.0734174867	 0.1769854001	-0.168418
C	 0.5871332894	-0.6131012976	-1.1207693838	-0.079011
C	 2.1159117155	-0.3327485871	-1.1800955462	-0.367656
C	 2.4399466542	 1.0866935711	-1.2219754111	 0.302922
C	 2.6886984845	 2.2621060795	-1.2679970716	-0.446353
C	 0.3992166297	-2.1328499213	-1.2238221683	 0.399201
C	-0.2421597952	-2.6673783794	-2.4878917997	-0.48912
O	 0.7718521668	-2.8610483252	-0.3316073349	-0.321078
H	-2.0241147202	 0.3650894476	-0.6188941187	 0.11313
H	-1.8968327507	-1.2248187607	 0.1528201703	 0.121835
H	-1.9639480104	 0.2336895583	 1.1420527571	 0.119469
H	 0.2620915065	 0.973058447	 0.2927227126	 0.111551
H	 0.3942889676	-0.6303903497	 1.0157217223	 0.118878
H	 0.1163701397	-0.1279014819	-1.983683528	 0.080628
H	 2.5830789558	-0.8063448164	-0.3087004007	 0.151867
H	 2.5471275212	-0.8241107645	-2.0621483875	 0.128201
H	 2.922851722	 3.2971222493	-1.3033179547	 0.195626
H	-1.2615647008	-2.2740118545	-2.5804224169	 0.144999
H	 0.3068523006	-2.3187392922	-3.3705447162	 0.139793
H	-0.2665557466	-3.7576338503	-2.4701119763	 0.141763
14.736	73.6092	90.0857	128.9629	164.6685	183.5366	229.1043	237.1386	288.0202	348.5114	382.282	388.0867	534.6587	591.9038	603.7503	617.5228	641.9051	744.2441	825.3304	867.9807	929.5708	953.5794	969.0272	1007.4683	1036.6263	1077.6614	1116.9459	1127.4401	1175.8995	1233.0422	1288.0576	1312.6741	1337.1106	1371.9037	1377.2758	1388.1709	1413.6071	1460.7383	1470.9863	1474.1449	1486.6969	1501.0333	1506.012	1807.1423	2236.3032	3021.0752	3029.5742	3030.5394	3038.9481	3046.4509	3067.0339	3079.8163	3089.9505	3102.8729	3105.5927	3151.1221	3506.131
CCC(CC#C)C(C)=O	CC[C@@H](CC#C)C(=O)C	
InChI=1S/C8H12O/c1-4-6-8(5-2)7(3)9/h1,8H,5-6H2,2-3H3	InChI=1S/C8H12O/c1-4-6-8(5-2)7(3)9/h1,8H,5-6H2,2-3H3/t8-/m0/s1
