18
gdb 71773	3.22588	1.82095	1.60627	1.4828	72.9	-0.2273	0.0733	0.3005	886.2086	0.150759	-401.930122	-401.923662	-401.922718	-401.960411	27.785	
O	-0.0274709655	 1.3523642312	 0.0119287188	-0.476932
C	 0.0669475634	-0.038164872	 0.0135902405	 0.390257
C	 1.0982438472	-0.7111895671	 0.9121863527	-0.314559
C	 0.5617827261	-2.1213089052	 1.1041668192	-0.042526
C	-0.8802419609	-2.1663164403	 0.7051390809	-0.059886
C	-1.2045680844	-0.8563642139	 0.0218912579	-0.113106
C	-0.319831449	-0.8135187567	-1.2204329463	-0.15162
C	 0.3271726262	-2.1837358681	-1.3645786665	-0.179956
N	 0.1435269802	-2.8876001217	-0.0831628085	-0.11873
H	 0.6641006716	 1.7004062698	-0.5616885496	 0.281518
H	 2.1087373673	-0.6994777856	 0.4831721111	 0.097818
H	 1.1407763726	-0.1897722387	 1.8749346241	 0.113341
H	 0.9718876556	-2.7273313527	 1.9067726822	 0.090466
H	-1.6433210268	-2.7497355134	 1.2066283601	 0.088937
H	-2.183963645	-0.400271061	 0.0586701426	 0.094962
H	-0.6375516243	-0.2537074063	-2.0939787034	 0.087161
H	-0.1655103512	-2.7662342182	-2.1508542167	 0.109022
H	 1.3952916368	-2.1367774603	-1.6070882791	 0.103833
245.963	278.1012	315.374	358.2459	441.7546	456.5039	564.5097	679.4198	704.8857	728.1624	741.9809	755.6545	804.4527	866.5085	915.5806	927.862	947.2359	964.956	988.2831	1004.9327	1026.2304	1041.5321	1071.7776	1092.4623	1093.7827	1167.7475	1202.0095	1221.829	1245.8148	1252.9798	1282.2112	1286.5461	1302.6101	1321.8114	1353.0293	1379.3901	1441.8517	1486.7959	1506.5659	3023.5941	3034.6803	3070.1355	3071.6656	3147.6637	3167.5768	3180.4487	3218.4923	3794.1238
OC12CC3C4C1C2CN34	O[C@@]12C[C@H]3[C@H]4[C@@H]1[C@@H]2CN34	
InChI=1S/C7H9NO/c9-7-1-4-6-5(7)3(7)2-8(4)6/h3-6,9H,1-2H2	InChI=1S/C7H9NO/c9-7-1-4-6-5(7)3(7)2-8(4)6/h3-6,9H,1-2H2/t3-,4-,5-,6-,7+,8?/m0/s1
