20
gdb 22777	3.00474	0.99652	0.80402	1.3156	80.55	-0.2413	0.0059	0.2472	1448.9517	0.168145	-440.223921	-440.213854	-440.21291	-440.259389	36.224	
C	-0.4239347394	 1.5722946956	-0.0441006496	-0.238619
O	-0.3454844713	 0.3145324691	 0.5889066094	-0.236119
C	-1.2112137407	-0.637902791	 0.040448975	 0.135878
C	-0.8154159855	-1.276005644	-1.3350684923	-0.362801
C	-0.9804380385	-2.6245620708	-0.6667236564	 0.419188
N	-1.073983667	-3.8268556566	-1.0513323419	-0.240186
O	-0.9237083715	-3.9230925415	-2.4493706932	-0.395151
C	-1.1146025638	-2.0415150699	 0.7289707609	-0.1339
C	 0.0965434395	-2.2515912108	 1.6410513626	-0.384949
H	 0.2690649858	 2.2399072967	 0.4730842639	 0.129491
H	-0.1384574564	 1.5180645112	-1.1052704649	 0.110853
H	-1.4396549556	 1.9934667049	 0.0178835294	 0.106602
H	-2.2429357835	-0.2560132612	 0.0248258704	 0.070683
H	-1.4530880713	-1.0831976271	-2.2009722152	 0.123708
H	 0.2244687576	-1.0628548149	-1.6063296041	 0.12982
H	-1.0310488163	-4.8685578083	-2.598491662	 0.305102
H	-2.028636858	-2.338586093	 1.2522454999	 0.089679
H	 1.026837032	-1.9669113216	 1.1432415372	 0.122647
H	 0.0046850549	-1.6462569324	 2.5468070687	 0.124237
H	 0.1663959889	-3.3049355244	 1.9262816523	 0.123836
46.496	96.4779	138.459	170.0231	190.6703	202.8739	230.8716	310.4578	354.9169	378.3521	433.8389	451.5874	519.2442	599.2366	685.1299	782.1618	829.3293	908.4135	958.1332	968.5759	1014.0355	1021.3791	1067.7764	1120.6583	1129.2398	1170.2549	1184.9556	1188.9835	1198.6853	1244.0147	1265.1167	1287.3028	1330.6569	1383.8049	1399.1999	1411.0466	1449.1093	1482.3156	1487.394	1491.4917	1494.0988	1508.8276	1782.9626	2975.064	2988.0917	3024.8873	3047.5204	3050.7959	3059.3686	3109.9866	3117.4094	3121.8814	3125.7343	3817.6738
COC1CC(=NO)C1C	CO[C@H]1CC(=NO)[C@H]1C	
InChI=1S/C6H11NO2/c1-4-5(7-8)3-6(4)9-2/h4,6,8H,3H2,1-2H3	InChI=1S/C6H11NO2/c1-4-5(7-8)3-6(4)9-2/h4,6,8H,3H2,1-2H3/t4-,6+/m1/s1
