18
gdb 32197	2.4794	1.4854	0.93972	3.9291	81.36	-0.2436	-0.0137	0.23	1217.2898	0.14875	-402.007245	-401.998684	-401.99774	-402.040601	31.636	
C	-0.0299735245	 1.5140298648	 0.0062935903	-0.50821
C	-0.0082985493	 0.007636864	 0.0246275357	 0.201048
C	-0.0213363479	-0.7150019587	-1.1689440602	-0.050115
N	-0.0041871204	-2.0464720122	-1.2599099771	-0.280267
C	 0.0278903881	-2.7234115967	-0.1108655812	-0.005982
C	 0.0437404185	-2.1166151356	 1.141266166	-0.186091
C	 0.0255185123	-0.7272684851	 1.220599077	 0.201658
C	 0.0416134573	-0.0188288611	 2.5523732146	-0.174249
O	 0.0739217063	-0.9642425533	 3.6026669011	-0.414468
H	 0.8545238275	 1.94145139	 0.4943101498	 0.130723
H	-0.055669741	 1.8896646825	-1.0197976816	 0.129569
H	-0.9060930985	 1.9165698001	 0.5293086885	 0.13075
H	-0.0475198969	-0.1731787425	-2.1135159576	 0.096707
H	 0.0417496328	-3.8080461281	-0.1915546541	 0.104132
H	 0.06983476	-2.709433775	 2.0459970174	 0.119953
H	 0.9163359468	 0.6525867778	 2.5916336966	 0.105667
H	-0.8481597753	 0.629603825	 2.6252976113	 0.105642
H	 0.0864048941	-0.4864962058	 4.4362800137	 0.293531
76.3948	146.8394	175.1978	213.6216	219.0943	256.2491	315.7775	436.5729	472.1593	525.3749	538.	626.0904	755.2088	780.0919	841.2469	855.1356	955.2169	993.0426	1013.1723	1033.1872	1068.5475	1074.0896	1101.5156	1184.2721	1203.6368	1224.1102	1263.3524	1268.1304	1304.2463	1337.1544	1415.94	1440.744	1454.3811	1484.7697	1488.8925	1505.383	1525.309	1604.1866	1635.6045	2951.7787	2968.8199	3021.3323	3068.6736	3113.2223	3134.4907	3152.0041	3226.3764	3845.2698
CC1=CN=CC=C1CO	Cc1cnccc1CO	
InChI=1S/C7H9NO/c1-6-4-8-3-2-7(6)5-9/h2-4,9H,5H2,1H3	InChI=1S/C7H9NO/c1-6-4-8-3-2-7(6)5-9/h2-4,9H,5H2,1H3
