14
gdb 129116	5.04389	1.38583	1.09464	1.179	69.77	-0.2349	-0.0157	0.2191	1019.3582	0.104315	-432.88937	-432.882883	-432.881939	-432.920492	24.93	
N	-0.0889876949	 1.2142723629	 0.0075704411	-0.512141
C	-0.0355713994	-0.0363722034	 0.000562961	 0.383083
C	-1.2360438277	-0.9889304927	 0.0023444245	-0.257774
N	-0.5464753078	-2.2536223573	-0.0085100693	 0.007624
N	-0.9322675328	-3.5492086307	-0.0128117731	-0.296499
C	 0.2307294638	-4.2017312819	-0.0237459436	 0.025589
C	 1.368893925	-3.3463136965	-0.0246146906	-0.407573
C	 0.7888553877	-2.1034023936	-0.0151003199	 0.486103
O	 1.1460877343	-0.7858699751	-0.0099940499	-0.252269
H	 0.8413015957	 1.6332427208	 0.0045722727	 0.244583
H	-1.8501585589	-0.8453474785	 0.8962109132	 0.168146
H	-1.8604848332	-0.8356510007	-0.8827110533	 0.168141
H	 0.2285662129	-5.2819410925	-0.0298808195	 0.12054
H	 2.4121779554	-3.607240391	-0.0316128832	 0.122449
103.8337	153.411	314.5468	345.6766	531.9735	536.3029	568.6857	651.4787	687.1075	757.7857	765.3598	829.9974	850.7193	883.3363	891.8471	951.6148	1014.4907	1020.837	1046.7919	1133.3246	1180.0108	1205.3237	1270.821	1282.1804	1347.7734	1359.9865	1442.3885	1490.4176	1538.174	1614.8386	1819.2958	3059.6555	3100.3772	3247.9772	3293.3374	3497.32
N=C1CN2N=CC=C2O1	[NH][C]1Cn2nccc2O1	
InChI=1S/C5H5N3O/c6-4-3-8-5(9-4)1-2-7-8/h1-2,6H,3H2	InChI=1S/C5H5N3O/c6-4-3-8-5(9-4)1-2-7-8/h1-2,6H,3H2
