14
gdb 25577	7.20172	0.74998	0.69711	0.5883	64.96	-0.2368	-0.0451	0.1917	1500.5698	0.099543	-473.837884	-473.82966	-473.828716	-473.873132	27.59	
O	-0.2870817644	 0.3493441433	 0.6457876058	-0.227887
C	 0.1317684557	 1.0296252101	-0.2503700559	 0.139564
C	 1.2834800551	 2.003987152	-0.0754658407	-0.17497
O	 1.4756909386	 2.664820863	-1.3289925961	-0.276207
C	 2.4229697346	 3.6035079239	-1.368746016	 0.399358
C	 2.465669901	 4.8499785395	-1.8957623819	-0.21093
N	 3.7556449174	 5.3517514364	-1.739038851	-0.247999
C	 4.3995604374	 4.4136053537	-1.1345734422	 0.081102
O	 3.6611442343	 3.2983440075	-0.8719289365	-0.1865
H	-0.2861539124	 1.001756697	-1.2797740536	 0.108517
H	 1.0406136597	 2.7266252118	 0.7146453164	 0.148194
H	 2.1844976847	 1.4560013646	 0.2240467447	 0.159653
H	 1.6776668329	 5.4082552	-2.3717662916	 0.132962
H	 5.4259553554	 4.3985542573	-0.8049212514	 0.155144
39.5808	42.4501	75.9488	108.9028	281.3649	344.3225	413.0543	540.5658	666.2316	688.4495	733.4972	754.6084	809.0444	831.0185	930.5208	977.3124	1045.5752	1062.8714	1101.6767	1114.1188	1121.6944	1232.1502	1249.3937	1287.2771	1347.0374	1359.4508	1408.7264	1471.2474	1562.1433	1671.6125	1848.7578	2911.2482	3024.1533	3075.8604	3279.3669	3283.0364
O=CCOC1=CN=CO1	O=CCOc1cnco1	
InChI=1S/C5H5NO3/c7-1-2-8-5-3-6-4-9-5/h1,3-4H,2H2	InChI=1S/C5H5NO3/c7-1-2-8-5-3-6-4-9-5/h1,3-4H,2H2
