20
gdb 112870	3.25342	1.10649	0.88321	5.1868	76.06	-0.2497	0.0229	0.2727	1336.6997	0.172431	-440.342438	-440.333546	-440.332602	-440.376123	33.723	
C	-0.0764652973	 1.5720908325	 0.0574432167	-0.401327
C	 0.0578132055	 0.0531645409	 0.0192087487	 0.051439
C	 0.8038918855	-0.4924000257	-1.2229005374	-0.248949
C	 1.5244779938	-1.7561981842	-0.7273039066	-0.138407
C	 2.869507069	-2.0847678843	-1.3903610067	-0.064947
O	 3.4399375414	-3.2555291374	-0.8573516842	-0.427938
C	 1.7029394692	-1.495292906	 0.771058129	 0.436307
O	 2.452632626	-2.0951083294	 1.5254769432	-0.411006
N	 0.883203045	-0.4642098309	 1.1076610796	-0.317302
H	 0.9085794132	 2.0478883471	 0.0216974983	 0.127598
H	-0.6619239278	 1.9206534927	-0.799112731	 0.127513
H	-0.587983167	 1.9067008217	 0.9662674817	 0.119019
H	-0.9477995055	-0.3918893408	 0.0694403734	 0.086057
H	 0.1253570733	-0.6754244446	-2.0585702651	 0.112511
H	 1.5427489732	 0.2501600195	-1.5492143221	 0.109593
H	 0.8799971002	-2.640250279	-0.8205059554	 0.109081
H	 2.725940384	-2.2502763591	-2.4643855646	 0.101443
H	 3.5397298517	-1.2130579374	-1.2835751254	 0.081275
H	 3.4226074698	-3.1398300298	 0.1064283904	 0.297068
H	 0.7698791667	-0.1881205659	 2.0710232777	 0.250973
73.6194	116.7248	166.6359	212.2123	248.0495	299.6352	325.1961	380.791	465.2668	493.6894	535.9316	611.8174	621.538	653.8892	714.7156	787.9236	867.6754	916.8228	963.4136	992.1533	1037.2509	1072.2866	1089.1745	1104.9806	1139.7546	1166.9502	1208.8015	1219.7533	1262.7852	1290.8397	1320.45	1340.2714	1362.1962	1387.9317	1401.4878	1411.6826	1435.2304	1480.4087	1492.4224	1493.1341	1499.6066	1514.431	1791.5202	2944.2545	2978.7038	3028.2875	3033.7277	3038.5347	3055.5114	3102.9172	3109.2197	3115.416	3631.3097	3679.5966
CC1CC(CO)C(=O)N1	C[C@H]1C[C@@H](CO)C(=O)N1	
InChI=1S/C6H11NO2/c1-4-2-5(3-8)6(9)7-4/h4-5,8H,2-3H2,1H3,(H,7,9)	InChI=1S/C6H11NO2/c1-4-2-5(3-8)6(9)7-4/h4-5,8H,2-3H2,1H3,(H,7,9)/t4-,5-/m0/s1
