18
gdb 14140	4.12295	1.66429	1.44515	1.2975	75.66	-0.207	0.0177	0.2247	935.5984	0.153491	-347.795501	-347.787849	-347.786905	-347.827442	29.092	
C	-0.0055910474	 1.5316438307	 0.1712641477	-0.4018
C	-0.0084761244	 0.023204463	 0.0714363684	-0.068029
C	 1.2382259075	-0.7223028307	-0.3705214514	-0.35812
C	 0.7792700169	-0.8063083978	 1.0637838017	 0.433029
O	 1.5532163587	-0.1299623852	 2.0378753949	-0.309835
C	 1.4949360393	-0.8447305456	 3.273202309	-0.128164
C	 0.6611658629	-2.0628509843	 2.9818353571	-0.114366
C	 0.2614309468	-2.0280955275	 1.7139863114	-0.14714
H	 0.937868309	 1.8906491701	 0.5894249145	 0.133313
H	-0.145995431	 1.9921848651	-0.8128228168	 0.112216
H	-0.810853004	 1.8840670455	 0.8249595499	 0.11511
H	-0.9531289427	-0.4127152965	-0.246559047	 0.080889
H	 1.1425242088	-1.5953936657	-1.0079259433	 0.107922
H	 2.1309172903	-0.1290028951	-0.5416125638	 0.120821
H	 2.5161234243	-1.0948078763	 3.6002460201	 0.107129
H	 1.0511626559	-0.2074571092	 4.0549926672	 0.105195
H	 0.4390672067	-2.8230461462	 3.7190818973	 0.105012
H	-0.3543174177	-2.7533156744	 1.1982386532	 0.106817
78.9954	166.868	181.3429	195.6431	322.0125	378.0613	443.5733	535.3444	566.3825	716.7451	782.4263	804.5836	842.3808	884.6912	887.3845	921.9548	948.1406	956.3824	989.6026	1043.4207	1046.647	1052.6927	1110.3509	1123.4084	1132.9458	1185.5137	1195.7402	1236.2017	1283.3319	1356.6679	1382.7115	1406.25	1427.8656	1478.7457	1492.8152	1503.0644	1519.9723	1679.7419	2970.6748	2989.7315	3032.2874	3089.5247	3115.7413	3123.1103	3132.4261	3211.1791	3213.9935	3235.3471
CC1CC11OCC=C1	C[C@H]1C[C@]21OCC=C2	
InChI=1S/C7H10O/c1-6-5-7(6)3-2-4-8-7/h2-3,6H,4-5H2,1H3	InChI=1S/C7H10O/c1-6-5-7(6)3-2-4-8-7/h2-3,6H,4-5H2,1H3/t6-,7+/m0/s1
