17
gdb 47490	3.1183	1.40369	1.10927	3.73	68.28	-0.2632	0.0073	0.2705	1090.8106	0.136485	-458.984479	-458.976808	-458.975864	-459.016958	29.415	
O	 0.0460439346	-0.0038566687	 0.4166243923	-0.317982
C	-0.0147999634	 1.1202357607	 0.0051231162	 0.408479
C	-1.3174302825	 1.9087373283	-0.0803115072	-0.408105
C	-1.2219442665	 3.1209326648	-0.9780952971	 0.416255
C	-1.7573160303	 3.1185888414	-2.3887684426	-0.324359
C	-2.3997729228	 3.9699743526	-1.30711079	-0.335743
O	-0.0139629105	 3.8101073247	-0.741590362	-0.260445
C	 1.0676351639	 3.0046304605	-1.0711918593	 0.014217
O	 1.1256099337	 1.7798744282	-0.3249354436	-0.230996
H	-2.1085621903	 1.2205137357	-0.3841406226	 0.139854
H	-1.5409183099	 2.226519514	 0.9463878544	 0.150151
H	-1.1762538305	 3.637162806	-3.1431004696	 0.126666
H	-2.2847839493	 2.2397319459	-2.7429347614	 0.124916
H	-3.3683400288	 3.6766413883	-0.9169713241	 0.123135
H	-2.2289192168	 5.039432109	-1.3515402501	 0.134291
H	 1.0539504798	 2.7395321235	-2.1383781029	 0.105698
H	 1.9785689996	 3.5501528752	-0.8213037804	 0.133966
74.743	119.9223	246.7021	269.4106	318.9953	403.0313	453.2841	504.4802	510.0193	580.1318	704.5555	764.6284	795.3885	805.4573	872.5762	936.3884	941.2534	986.1621	1027.2491	1043.867	1053.5601	1085.0942	1106.4471	1150.8592	1188.7691	1188.8895	1232.1718	1291.3235	1302.6355	1316.2894	1382.6386	1449.3794	1455.2445	1461.1766	1497.3237	1520.1496	1855.5031	3000.4163	3037.2652	3118.2361	3126.9784	3136.2275	3139.7813	3221.0551	3234.3649
O=C1CC2(CC2)OCO1	O=C1CC2(CC2)OCO1	
InChI=1S/C6H8O3/c7-5-3-6(1-2-6)9-4-8-5/h1-4H2	InChI=1S/C6H8O3/c7-5-3-6(1-2-6)9-4-8-5/h1-4H2
