20
gdb 109202	4.39729	0.85656	0.7579	4.5073	83.78	-0.2326	0.0111	0.2437	1527.0742	0.17122	-403.192969	-403.183712	-403.182768	-403.227946	33.236	
C	-0.2617374579	 1.4843383788	-0.0419135827	-0.377243
C	 0.1051196187	-0.0098467727	 0.00852549	-0.288814
C	 0.797907458	-0.5038369002	-1.2257675456	 0.332033
C	 2.0369348942	-0.9842346053	-1.3327530443	-0.202097
C	 2.3787996279	-1.3938439871	-2.7362093505	-0.193488
N	 1.1415764312	-1.0740065433	-3.4523992482	-0.057699
C	 0.1104175731	-0.5222830791	-2.5743246258	-0.262314
C	 1.0131420429	-1.2651574629	-4.7851620711	 0.143912
O	 1.8821163464	-1.7181989887	-5.5042435803	-0.342606
H	 0.6312538758	 2.1012268182	-0.1816175143	 0.125377
H	-0.9521410121	 1.7036670048	-0.8624215508	 0.121571
H	-0.7463330121	 1.7928087978	 0.8890239647	 0.120095
H	 0.7467408257	-0.1996922337	 0.8755995716	 0.109548
H	-0.8126864525	-0.5933933137	 0.1677975214	 0.108328
H	 2.7406151574	-1.0882288504	-0.5156059126	 0.10161
H	 3.2301287512	-0.8424980962	-3.1583555734	 0.129432
H	 2.6243708707	-2.4608693405	-2.829252232	 0.128616
H	-0.7951135769	-1.1484194029	-2.5560775939	 0.11753
H	-0.2025278165	 0.4815485643	-2.8959594632	 0.120768
H	 0.0143177845	-0.9600771972	-5.1593896188	 0.065441
44.6643	65.2611	154.5044	184.9865	199.4459	239.8518	292.1753	338.0709	368.8188	465.3809	519.4698	648.3872	769.2371	787.6127	834.7638	873.2856	885.6181	968.2942	992.4238	1014.4826	1036.4984	1041.0185	1070.4803	1101.8911	1182.5504	1190.1279	1203.5063	1240.1756	1266.7927	1310.6671	1344.2001	1357.2172	1365.8569	1410.1982	1411.3858	1447.7661	1480.6068	1499.7192	1506.1869	1512.8203	1521.9772	1727.1804	1792.4247	2921.1833	2979.9813	3004.5137	3007.8452	3010.3326	3026.1465	3039.8026	3067.1405	3110.9252	3114.0088	3206.9521
CCC1=CCN(C1)C=O	CCC1=CCN(C1)C=O	
InChI=1S/C7H11NO/c1-2-7-3-4-8(5-7)6-9/h3,6H,2,4-5H2,1H3	InChI=1S/C7H11NO/c1-2-7-3-4-8(5-7)6-9/h3,6H,2,4-5H2,1H3
