18
gdb 37724	3.14596	2.13824	1.72296	0.8295	73.66	-0.219	0.0965	0.3155	838.6874	0.152301	-401.903476	-401.897633	-401.896689	-401.933416	25.29	
C	 0.0215719236	 1.6359666443	 0.081197103	-0.222492
C	 1.5554368654	 1.3247501978	-0.0174568556	-0.115798
C	 1.7422208986	 0.539972993	 1.2824440196	-0.050866
C	 1.8410790572	-0.9398187091	 1.1934171623	-0.049138
C	 2.2578466305	-1.6468695459	-0.070901999	-0.093643
O	 1.9631599176	-0.8946160407	-1.2372644551	-0.280391
C	 1.1225210121	 0.195230275	-0.9957402194	 0.153192
C	-0.0779594574	 0.0877491222	-0.0145188751	-0.054391
N	 0.5075175405	-0.312630224	 1.3095520446	-0.134976
H	-0.3386459522	 2.0797661152	 1.010573944	 0.111623
H	-0.3784254389	 2.1620292101	-0.7885921161	 0.10108
H	 2.3009084775	 2.0730810273	-0.2821211081	 0.070692
H	 2.0011616667	 1.0661856686	 2.1968690587	 0.093711
H	 2.1220939838	-1.4759318717	 2.0982091124	 0.094722
H	 3.3385693534	-1.841031439	-0.0512979915	 0.109615
H	 1.7508117569	-2.6234163691	-0.1270899437	 0.101752
H	 0.8303224731	 0.5888978465	-1.9697929838	 0.090281
H	-0.9994446984	-0.4441911505	-0.2467799273	 0.075028
163.3789	363.6367	419.57	492.7137	507.1949	596.0248	697.7422	743.4171	755.9193	763.6734	825.0494	845.4158	899.5827	910.3594	918.2863	968.603	992.679	1013.5988	1037.6055	1043.7174	1062.706	1093.4013	1099.6106	1116.1175	1129.9648	1181.4375	1192.4206	1220.4699	1230.3481	1253.6679	1264.932	1280.1833	1300.2872	1348.9432	1388.0654	1425.9681	1442.8806	1491.4335	1520.413	2974.2184	3025.1239	3071.739	3110.0309	3123.2649	3127.8253	3131.0712	3139.7606	3147.944
C1C2C3C4COC2C1N34	C1[C@H]2[C@@H]3[C@@H]4CO[C@H]2[C@H]1N34	
InChI=1S/C7H9NO/c1-3-6-5-2-9-7(3)4(1)8(5)6/h3-7H,1-2H2	InChI=1S/C7H9NO/c1-3-6-5-2-9-7(3)4(1)8(5)6/h3-7H,1-2H2/t3-,4-,5-,6+,7+,8?/m0/s1
