18
gdb 80169	2.29589	1.69522	1.4523	0.8464	70.79	-0.2334	-0.0374	0.196	994.5036	0.147218	-439.076509	-439.068147	-439.067203	-439.109337	31.814	
C	-0.4180862625	 1.4131003745	 0.093468628	-0.433337
C	-0.0290648562	-0.0438305351	-0.0342780514	 0.010261
C	 0.6303519811	-0.6534184462	-1.2197853157	-0.070374
C	 1.3122381646	 0.2251639361	-2.2424193398	 0.039546
O	 0.4546733636	 1.0122925422	-3.0342710309	-0.434569
C	 2.2523336934	 1.1047051039	-1.4010226166	 0.340621
O	 2.6922562586	 2.1561083596	-1.7924885664	-0.324608
C	 2.4106731926	 0.4484297387	-0.0339074693	-0.269665
N	 1.3507611279	-0.5615740636	 0.0941631619	-0.132996
H	 0.1646283915	 2.0888871269	-0.5330607689	 0.143722
H	-1.4646434998	 1.5288670571	-0.2043341582	 0.136354
H	-0.3305728841	 1.7433471886	 1.1346166981	 0.12454
H	-0.7225200796	-0.7039933023	 0.484438207	 0.100107
H	 0.3529822532	-1.6574978139	-1.5255697449	 0.0975
H	 1.9535991899	-0.4144156806	-2.877347261	 0.098006
H	 0.9678475128	 1.7988586019	-3.2723972182	 0.291816
H	 3.3863873474	-0.0503609262	 0.0273504663	 0.140279
H	 2.3776286256	 1.1974827086	 0.7626437796	 0.142796
90.2277	135.7336	163.5884	225.2943	260.8548	326.1897	410.5594	430.3854	486.6586	543.2187	581.4981	652.5708	703.2244	731.7109	752.3846	801.8486	896.2758	986.1032	993.2673	1011.252	1044.8355	1102.2248	1138.3804	1149.8206	1169.8771	1175.2935	1198.7349	1242.0084	1295.093	1301.2238	1340.244	1383.4205	1417.7467	1423.5367	1438.0924	1458.2471	1481.8358	1503.647	1842.0482	2930.2768	3032.1688	3041.5877	3093.1096	3101.9498	3111.8048	3145.2559	3152.7391	3723.11
CC1C2C(O)C(=O)CN12	C[C@H]1[C@H]2[C@@H](O)C(=O)CN12	
InChI=1S/C6H9NO2/c1-3-5-6(9)4(8)2-7(3)5/h3,5-6,9H,2H2,1H3	InChI=1S/C6H9NO2/c1-3-5-6(9)4(8)2-7(3)5/h3,5-6,9H,2H2,1H3/t3-,5-,6-,7?/m0/s1
