19
gdb 105117	3.25944	1.18554	0.99828	2.7024	70.66	-0.2505	0.0683	0.3188	1221.3395	0.158776	-460.113524	-460.104758	-460.103814	-460.147542	32.322	
O	-0.1846629287	 1.6619087257	 0.7172134067	-0.420651
C	-0.3566059067	 0.3592477941	 1.2316210537	-0.138575
C	-1.2286393571	-0.499588514	 0.3232223747	 0.337844
C	-2.2727406085	 0.1324409624	-0.4880879952	-0.229678
O	-1.0098441532	-0.2352905569	-1.0740286161	-0.280301
C	-1.3497372347	-1.9511221547	 0.7248849205	 0.074507
C	-1.7553025452	-2.9781974733	-0.3538056553	-0.30423
C	-0.3815925933	-3.6132688468	-0.059692006	-0.060058
O	-0.0547459148	-2.5780433708	 0.8933874675	-0.293746
H	 0.0617295434	 1.5438952518	-0.2094692578	 0.291636
H	 0.6033127183	-0.1582344651	 1.3709990113	 0.121135
H	-0.8295938569	 0.4561827529	 2.2154382228	 0.113161
H	-3.1235163188	-0.4529251658	-0.8329205631	 0.1151
H	-2.4363183523	 1.2022950113	-0.3892333268	 0.134166
H	-1.9297824051	-2.0098236772	 1.6579235836	 0.08085
H	-2.6269167921	-3.5902372922	-0.1213736512	 0.110037
H	-1.8481942697	-2.5497114863	-1.3514724334	 0.13207
H	-0.4121917471	-4.602402021	 0.4130063205	 0.103662
H	 0.3275814723	-3.6367064341	-0.8944266963	 0.113073
72.7838	80.4949	129.7494	174.9337	266.0278	276.1953	345.6946	394.0734	454.527	483.7943	628.2847	699.5586	781.8604	821.3106	852.2025	884.8038	928.7256	956.8928	972.1975	1031.2836	1045.1688	1055.8513	1097.8823	1102.8605	1130.6179	1165.2472	1179.4215	1196.9786	1228.6301	1237.638	1268.0637	1285.3195	1354.0275	1364.0533	1383.3695	1415.762	1438.0456	1483.2596	1507.6011	1517.2268	1531.2208	2992.507	3009.4996	3023.1725	3067.7014	3068.9473	3092.8237	3096.4817	3154.6262	3193.2688	3772.0945
OCC1(CO1)C1CCO1	OC[C@]1(CO1)[C@H]1CCO1	
InChI=1S/C6H10O3/c7-3-6(4-9-6)5-1-2-8-5/h5,7H,1-4H2	InChI=1S/C6H10O3/c7-3-6(4-9-6)5-1-2-8-5/h5,7H,1-4H2/t5-,6+/m1/s1
