16
gdb 43158	3.54952	1.31991	1.22465	1.3988	72.56	-0.2564	-0.0268	0.2296	1027.5694	0.126379	-400.76741	-400.760172	-400.759228	-400.799167	27.879	
N	-0.0603902006	-1.2180155867	-0.0862937665	-0.33243
C	-0.0452568612	-0.0622601992	-0.0484814275	 0.287044
C	-0.0160183463	 1.3874779759	 0.0096406013	-0.182471
C	-0.1391931705	 2.0837702738	 1.4203396595	-0.146166
C	 1.010811349	 1.4221035815	 2.2130853404	-0.235528
C	 2.1448290696	 1.442946213	 1.1224743387	-0.235529
C	 1.3848459707	 2.1117883164	-0.0453598381	-0.146168
C	 0.6366126125	 3.2220965084	 0.7233163717	 0.428337
O	 0.6021246609	 4.4129364476	 0.7102201301	-0.305602
H	-0.7191736298	 1.8058927567	-0.7135057001	 0.139756
H	-1.1018404269	 2.2288814526	 1.9040288584	 0.10391
H	 1.2687271513	 1.9993359943	 3.1035006994	 0.123206
H	 0.7548885973	 0.4071472617	 2.523594957	 0.137263
H	 3.0133766775	 2.0313988286	 1.4256338151	 0.123206
H	 2.4843606981	 0.4389339331	 0.8603160046	 0.137263
H	 1.9026907484	 2.2841137626	-0.9854889937	 0.10391
123.4819	148.8412	175.5332	274.0301	379.514	442.9872	524.1385	539.8714	660.461	667.7159	752.4136	784.0251	815.5946	865.0361	893.6626	904.9758	975.5189	987.377	1006.0459	1059.9906	1072.8964	1116.0957	1126.0397	1162.9671	1187.3266	1238.7577	1240.2937	1250.9639	1315.7159	1325.4493	1363.4677	1493.8794	1510.3002	1919.0577	2352.5912	3072.1753	3079.4711	3097.7431	3115.4746	3131.4271	3159.2908	3161.4621
N#CC1C2CCC1C2=O	N#C[C@H]1[C@H]2CC[C@@H]1C2=O	
InChI=1S/C7H7NO/c8-3-6-4-1-2-5(6)7(4)9/h4-6H,1-2H2	InChI=1S/C7H7NO/c8-3-6-4-1-2-5(6)7(4)9/h4-6H,1-2H2/t4-,5+,6+
