20
gdb 7499	3.67384	1.28026	1.15117	2.0683	71.59	-0.2433	0.0769	0.3202	1135.0772	0.175463	-386.108489	-386.099345	-386.098401	-386.142701	32.343	
C	-0.0964211176	 1.3650570577	 0.1703122952	-0.226076
O	-0.026311004	-0.0402351931	 0.1337467364	-0.239522
C	-1.2762918583	-0.6521457389	-0.099786187	-0.104766
C	-1.0870842219	-2.1642665854	-0.1087016086	 0.272571
C	-0.1513907988	-2.6174551008	-1.2219103246	-0.468219
C	-0.8241121677	-2.7290478826	 1.3102201406	-0.101847
O	-2.1814957636	-3.2098170288	 1.4173733929	-0.276605
C	-2.4374165643	-2.9095063082	 0.0321351083	-0.122407
H	 0.9123427641	 1.738914089	 0.3615259686	 0.12834
H	-0.4549032494	 1.7809335311	-0.7846642447	 0.104785
H	-0.7652934741	 1.7199342137	 0.9702182886	 0.10625
H	-1.9951800564	-0.3685578677	 0.6877811271	 0.092544
H	-1.697320101	-0.3164102699	-1.0646471459	 0.082651
H	 0.8211365888	-2.1267531472	-1.1292873199	 0.137621
H	 0.0010850834	-3.7007985154	-1.1919061401	 0.113666
H	-0.5617921225	-2.3625270836	-2.2061494109	 0.112051
H	-0.0962626229	-3.5509822379	 1.3422632481	 0.092321
H	-0.5760611388	-1.999435627	 2.0885667075	 0.107308
H	-3.3499635396	-2.3139148266	-0.1012157973	 0.096406
H	-2.5151410054	-3.8187444383	-0.5802963543	 0.092929
63.9852	94.2667	109.4998	173.5775	216.0954	237.5532	311.0716	329.0405	357.7246	416.6509	478.9358	694.2188	854.0375	895.7672	927.598	951.5008	982.3899	985.594	1021.7375	1032.3247	1041.4472	1153.7816	1155.9536	1161.9686	1178.758	1189.084	1223.5674	1237.2348	1290.5732	1306.8835	1316.1501	1385.8018	1404.0286	1423.4421	1480.9327	1486.2932	1488.9388	1501.6818	1502.6584	1512.6001	1527.4024	1539.4565	2940.2293	2971.4122	2976.2172	2994.7789	3009.8625	3015.5829	3030.7451	3040.9265	3068.1788	3094.4567	3114.7975	3120.1405
COCC1(C)COC1	COCC1(C)COC1	
InChI=1S/C6H12O2/c1-6(3-7-2)4-8-5-6/h3-5H2,1-2H3	InChI=1S/C6H12O2/c1-6(3-7-2)4-8-5-6/h3-5H2,1-2H3
