15
gdb 133171	3.08585	1.38688	0.96251	1.0204	73.98	-0.2121	-0.0552	0.1569	1141.3994	0.113059	-458.111661	-458.103813	-458.102868	-458.144075	29.627	
C	-0.0028071419	 1.5352438262	-0.0147925497	-0.497047
C	-0.0556474411	 0.0357705611	 0.0070349353	 0.172376
C	-1.1862838411	-0.6947106178	-0.1181585834	-0.191985
C	-1.1775393809	-2.1499884993	-0.0895491633	 0.398238
N	-2.2584119242	-2.8335534676	-0.2096862409	-0.563282
N	 0.1073991646	-2.6762912862	 0.0786831654	-0.322534
N	 1.2648076672	-1.9896446219	 0.2077218626	-0.255712
C	 1.1663458245	-0.7146383719	 0.1714132861	 0.292213
F	 2.2965908536	-0.0201453335	 0.2972250844	-0.064115
H	 0.6388483887	 1.8915885905	-0.827544203	 0.149471
H	-1.0006725811	 1.9581078072	-0.1457199884	 0.136004
H	 0.4240805067	 1.9245206205	 0.9155431473	 0.149474
H	-2.1573531118	-0.2315300947	-0.2463498402	 0.132044
H	-2.078903466	-3.8381340251	-0.1686305875	 0.197851
H	 0.2272359229	-3.6769660076	 0.1120516955	 0.267002
101.6992	145.0271	199.0162	273.4796	361.6717	364.0567	380.3589	467.3171	520.7574	547.6535	583.3422	639.5426	724.3854	738.4807	790.7328	793.767	932.5615	935.3492	1024.6582	1070.4078	1124.5305	1156.0097	1243.8456	1285.8046	1354.4074	1418.0129	1440.4776	1459.3395	1476.806	1487.7479	1616.8615	1680.1287	1718.6703	3041.461	3096.7516	3135.0347	3211.9187	3458.0622	3627.0561
CC1=CC(=N)NN=C1F	C[C@H]1C=C([NH])NN=C1F	
InChI=1S/C5H6FN3/c1-3-2-4(7)8-9-5(3)6/h2H,1H3,(H2,7,8)	InChI=1S/C5H7FN3/c1-3-2-4(7)8-9-5(3)6/h2-3,7-8H,1H3/t3-/m0/s1
