15
gdb 45460	2.84681	1.66098	1.2029	6.5335	66.4	-0.2263	-0.0631	0.1633	996.4002	0.114788	-453.962422	-453.955185	-453.954241	-453.994389	27.465	
O	 0.0178014161	-0.0476430699	-0.2573428858	-0.346662
C	-0.0084519344	 1.1466086186	-0.0880052195	 0.306494
N	-1.1163501014	 1.9467854693	 0.0238410586	-0.309209
C	-0.8917845147	 3.3565009266	 0.2643388818	-0.015928
C	-0.9721263635	 3.8246615238	 1.7433258363	-0.174898
N	 0.4712851959	 3.5373009932	 1.883658381	-0.307731
C	 0.6511070877	 3.4638952158	 0.4092569031	-0.132088
C	 1.2080966882	 2.1031748003	 0.0170514917	 0.355
O	 2.3499454587	 1.7888290587	-0.1659102201	-0.28669
H	-2.0382664668	 1.5370704149	 0.0096369754	 0.259319
H	-1.3956734432	 3.9828048998	-0.473964349	 0.100564
H	-1.237573975	 4.8881993767	 1.8106233195	 0.104021
H	-1.618166042	 3.2474461273	 2.4129154289	 0.113871
H	 1.0369115408	 4.2260707963	 2.3629088521	 0.237071
H	 1.1466404136	 4.3082315087	-0.076826104	 0.096867
87.8176	137.4633	219.7391	317.0242	372.1619	427.3554	495.7053	571.7662	604.7671	640.0113	668.3963	727.406	825.3949	859.4705	895.6819	944.3657	984.5922	1015.7799	1063.6469	1102.0217	1115.3332	1160.5196	1193.075	1244.9176	1265.4105	1279.0037	1333.9437	1363.3297	1381.206	1428.6366	1508.6508	1843.3838	1871.7644	3009.6517	3071.7545	3075.9689	3091.199	3565.5903	3622.1311
O=C1NC2CNC2C1=O	O=C1N[C@H]2CN[C@H]2C1=O	
InChI=1S/C5H6N2O2/c8-4-3-2(1-6-3)7-5(4)9/h2-3,6H,1H2,(H,7,9)	InChI=1S/C5H6N2O2/c8-4-3-2(1-6-3)7-5(4)9/h2-3,6H,1H2,(H,7,9)/t2-,3+/m0/s1
