13
gdb 5028	3.51069	2.27307	1.38148	3.0784	64.32	-0.2118	-0.0332	0.1786	818.3816	0.097674	-398.644524	-398.638058	-398.637113	-398.674896	25.128	
N	 0.024621905	 1.3715824014	 0.1391680455	-0.579773
C	-0.0375521332	-0.001632706	 0.0482190226	 0.120646
C	-1.1719410118	-0.7406897185	 0.0214673365	-0.030858
O	-1.1737906631	-2.1046191812	-0.0132385976	-0.180111
C	-0.0016636003	-2.749339932	-0.0180511199	 0.075957
C	 1.1945834818	-2.1255331524	-0.0023016385	-0.268998
C	 1.2789838955	-0.6798368956	 0.0182348795	 0.357392
O	 2.3183914561	-0.0246777906	 0.0005256459	-0.401381
H	 0.9560684269	 1.7058550715	-0.0793932115	 0.266673
H	-0.7262714358	 1.9064100214	-0.2672529269	 0.24921
H	-2.1792782426	-0.3467337877	 0.0290632657	 0.126907
H	-0.1405363731	-3.8232733939	-0.0400356676	 0.142845
H	 2.1096299544	-2.7039408566	-0.0183611235	 0.121491
148.6591	280.3741	317.3614	378.3989	418.0589	459.7164	525.8891	544.1195	589.3962	624.2553	753.0952	775.1828	825.2959	858.7453	880.7148	953.6159	1014.9384	1086.4869	1173.9224	1221.6153	1298.7057	1358.689	1425.6665	1449.7146	1603.3442	1628.843	1683.2136	1730.0053	3208.6106	3223.259	3227.9223	3535.2492	3670.7823
NC1=COC=CC1=O	Nc1coccc1=O	
InChI=1S/C5H5NO2/c6-4-3-8-2-1-5(4)7/h1-3H,6H2	InChI=1S/C5H5NO2/c6-4-3-8-2-1-5(4)7/h1-3H,6H2
