21
gdb 117129	4.17973	0.76713	0.65871	1.9393	83.96	-0.2471	-0.0117	0.2354	1730.5864	0.181285	-420.451636	-420.440978	-420.440034	-420.488378	37.159	
C	-0.0006778518	 1.5650517276	 0.0293995459	-0.390192
C	 0.007965884	 0.0347791234	 0.0220331637	-0.161008
C	 0.7028312626	-0.5370832648	-1.2150006687	-0.320984
C	 0.7135227088	-2.0585828327	-1.2268169892	 0.43138
O	 0.2128105523	-2.7163019759	-0.3359462846	-0.354383
N	 1.3345170101	-2.6623310896	-2.3254030762	-0.118215
C	 1.9447762781	-1.8979870277	-3.4106135806	-0.351985
C	 1.3690612089	-4.0557499971	-2.3795623912	 0.098699
N	 1.9154929858	-4.6773411768	-3.345205938	-0.478771
H	 1.0170454069	 1.9716977513	 0.0190938207	 0.11283
H	-0.5243588092	 1.9671284385	-0.8454322846	 0.112829
H	-0.5023652566	 1.9508117817	 0.921827835	 0.117608
H	 0.5063471629	-0.3471936134	 0.9186633298	 0.115976
H	-1.0151707169	-0.3517706048	 0.0660770094	 0.116109
H	 0.2145496387	-0.1764480243	-2.1302812933	 0.124333
H	 1.7366028715	-0.1717683712	-1.2777589331	 0.12419
H	 2.760325786	-1.2681728088	-3.0436414016	 0.1328
H	 2.3439719946	-2.6173389339	-4.1241642489	 0.180809
H	 1.2082085354	-1.2654076987	-3.9141975701	 0.132754
H	 0.8802906217	-4.4959914228	-1.5112442961	 0.14396
H	 1.8361178862	-5.6817539803	-3.2000958185	 0.23126
41.772	66.6521	112.2425	127.6355	131.1491	178.041	244.4559	290.206	293.3573	316.4826	374.6342	426.1596	554.1566	571.1387	718.6559	752.4717	821.8641	832.6603	888.9216	908.9475	989.3333	1053.2077	1086.6594	1095.3404	1114.8485	1131.3795	1154.2974	1181.1089	1252.4431	1286.6758	1325.8034	1350.2781	1359.7515	1396.569	1409.6185	1415.3957	1453.9191	1458.4366	1487.5481	1500.3847	1505.099	1508.6477	1509.1937	1710.8897	1778.8639	3018.4692	3028.3752	3043.9121	3047.9383	3056.5005	3078.7069	3103.202	3104.6279	3105.4098	3147.4929	3164.0197	3509.1644
CCCC(=O)N(C)C=N	CCCC(=O)N(C)C=N	
InChI=1S/C6H12N2O/c1-3-4-6(9)8(2)5-7/h5,7H,3-4H2,1-2H3	InChI=1S/C6H12N2O/c1-3-4-6(9)8(2)5-7/h5,7H,3-4H2,1-2H3
