21
gdb 119476	4.01491	0.88981	0.8158	1.4625	80.26	-0.2471	0.0764	0.3235	1480.6453	0.181326	-424.181613	-424.172108	-424.171163	-424.216293	35.137	
C	-0.3897918912	 1.3537796675	 0.4987406456	-0.219542
O	-0.5939062363	-0.0272733545	 0.6672035414	-0.236128
C	-0.8943229905	-0.6906724305	-0.5466867658	-0.18839
C	-1.0107692247	-2.157327198	-0.287372212	 0.363813
C	-1.8750852903	-3.0708580285	-1.1059726774	-0.340056
C	-2.1611266344	-2.9372768916	 0.3660423242	-0.093753
C	-1.1637112481	-3.7501104171	 1.1777608848	 0.12503
O	-1.2783079464	-5.144727763	 0.9816130043	-0.434968
C	 0.0222811291	-2.9900504365	 0.4830223325	-0.337098
H	-0.156145425	 1.7737079692	 1.4802755714	 0.125418
H	 0.4471188178	 1.5649061558	-0.186523848	 0.102056
H	-1.287314393	 1.8562237759	 0.1030857075	 0.101799
H	-1.8353675259	-0.3035424414	-0.9750326096	 0.083193
H	-0.0995455603	-0.491381607	-1.2885877872	 0.085502
H	-2.5975736139	-2.5816454339	-1.7523327911	 0.107341
H	-1.473781983	-3.9991999633	-1.5018728016	 0.118426
H	-3.1136322793	-2.5716160197	 0.7297851369	 0.084175
H	-1.2157339011	-3.4967069743	 2.2446327091	 0.071804
H	-0.5813978091	-5.5751507179	 1.4871897446	 0.28126
H	 0.6873570109	-3.61101653	-0.1265618125	 0.087122
H	 0.6092014147	-2.3958018112	 1.185194423	 0.112995
76.5993	85.8866	102.2574	177.9462	224.6155	260.2138	291.9738	323.1177	374.1494	429.0201	470.8858	553.3319	641.0257	736.5749	815.1473	853.558	899.9123	961.7196	975.2544	980.5954	994.483	1024.5439	1037.225	1072.2621	1091.0945	1119.2053	1152.645	1170.4919	1182.0629	1209.3083	1220.7219	1229.9897	1242.5185	1285.5312	1297.8084	1338.4937	1379.514	1420.2371	1440.9111	1474.6862	1481.1939	1485.2856	1500.3201	1504.3436	1520.308	2933.8217	2963.4293	2967.426	3007.5742	3011.6887	3044.524	3111.3593	3118.7315	3123.2587	3184.3491	3203.8633	3813.8958
COCC12CC1C(O)C2	COC[C@]12C[C@H]1[C@@H](O)C2	
InChI=1S/C7H12O2/c1-9-4-7-2-5(7)6(8)3-7/h5-6,8H,2-4H2,1H3	InChI=1S/C7H12O2/c1-9-4-7-2-5(7)6(8)3-7/h5-6,8H,2-4H2,1H3/t5-,6-,7+/m0/s1
