17
gdb 24735	3.54247	1.65533	1.17309	5.2043	73.66	-0.1985	0.0427	0.2412	1015.0005	0.140431	-418.052394	-418.045562	-418.044618	-418.083692	26.904	
C	-0.0138068311	 1.5254293578	-0.0221611003	-0.233854
C	 1.4234572966	 2.0387900411	 0.0296957015	-0.080362
O	 2.0780873212	 1.6339779814	 1.2343485177	-0.259563
C	 1.9310453787	 0.331811286	 1.5479710876	 0.457241
N	 2.6653296687	-0.3028034566	 2.4205236151	-0.367211
C	 2.1372186893	-1.5807947678	 2.4459926469	-0.093326
C	 1.0880405158	-1.6998731642	 1.5822330197	-0.146605
N	 0.9494750628	-0.4457934711	 0.9972559264	-0.07369
C	-0.0132451781	-0.0057318785	 0.0014880452	-0.164298
H	-0.5626460783	 1.916416033	 0.8410569069	 0.129943
H	-0.5090943411	 1.8869662699	-0.9278019006	 0.116375
H	 1.9943814341	 1.6734504543	-0.836656284	 0.112211
H	 1.4611578234	 3.1296696471	 0.030989394	 0.127043
H	 2.5545939098	-2.3387025222	 3.0909759942	 0.107291
H	 0.4389300183	-2.5180576875	 1.3179685003	 0.118988
H	-1.0033911764	-0.3972582624	 0.2544470944	 0.126874
H	 0.2582392961	-0.4052445903	-0.984569155	 0.122943
108.8799	163.214	297.1015	338.4101	404.133	474.4652	539.622	622.5507	668.6703	696.7035	714.7407	733.9272	841.6459	890.6238	900.5397	929.356	949.5485	1010.7969	1083.3547	1109.6288	1137.3964	1168.0971	1224.9759	1231.9658	1233.2946	1298.1527	1307.9791	1336.6508	1372.6021	1387.5735	1417.699	1477.105	1483.7585	1507.672	1530.342	1550.1386	1601.8682	3002.7568	3016.5653	3053.5653	3076.4928	3106.2183	3115.0558	3248.893	3277.2713
C1COC2=NC=CN2C1	C1COc2nccn2C1	
InChI=1S/C6H8N2O/c1-3-8-4-2-7-6(8)9-5-1/h2,4H,1,3,5H2	InChI=1S/C6H8N2O/c1-3-8-4-2-7-6(8)9-5-1/h2,4H,1,3,5H2
