18
gdb 57073	2.54212	1.24517	0.96237	4.4371	72.31	-0.2742	0.0168	0.2909	1237.7843	0.146596	-439.074294	-439.064892	-439.063948	-439.10897	34.072	
O	-0.2010639542	 1.3380265595	 0.0288516913	-0.416238
C	 0.0644720285	-0.0511805462	-0.0706877536	-0.024105
C	 0.8667199002	-0.3555214716	-1.2743715921	 0.261544
N	 1.5334927724	-0.5667733971	-2.1944158393	-0.328149
C	 0.74363538	-0.605729985	 1.1832391149	-0.008114
C	 0.0018969278	-0.4348295688	 2.5370704226	-0.241274
C	 0.4302091037	-1.8826828878	 2.904593476	-0.248458
C	 0.7354935026	-2.14544345	 1.4024104592	 0.105296
O	-0.3606841744	-2.6950506984	 0.6934470358	-0.433491
H	 0.641020651	 1.8025433994	 0.0983576736	 0.29168
H	-0.9092211794	-0.5337741312	-0.1848164235	 0.153396
H	 1.7693796766	-0.2265095797	 1.2437872601	 0.084052
H	 0.3376741157	 0.372827827	 3.189065204	 0.105547
H	-1.0773568681	-0.3441496354	 2.395248449	 0.120863
H	 1.3362630564	-1.9091443651	 3.5163660221	 0.106377
H	-0.3232208968	-2.5324646971	 3.3563899334	 0.101306
H	 1.6642197231	-2.6783743081	 1.1656768785	 0.07841
H	-0.4439745251	-3.6227459443	 0.9344510382	 0.291357
55.0685	90.4626	124.5135	199.751	216.8721	257.442	293.1597	322.8054	390.9848	424.9982	465.7953	557.7607	613.1684	710.3142	780.866	859.5801	894.4723	922.2965	948.518	960.2528	1033.144	1059.0298	1095.5388	1123.7939	1134.9511	1196.4463	1207.0218	1251.2907	1260.193	1265.7397	1290.9217	1304.8898	1324.5927	1379.6285	1409.2686	1423.7209	1469.1755	1491.7673	2352.9673	3024.4126	3052.13	3061.4381	3076.9068	3100.7393	3111.9287	3133.8223	3799.4162	3824.2384
OC(C#N)C1CCC1O	O[C@@H](C#N)[C@H]1CC[C@H]1O	
InChI=1S/C6H9NO2/c7-3-6(9)4-1-2-5(4)8/h4-6,8-9H,1-2H2	InChI=1S/C6H9NO2/c7-3-6(9)4-1-2-5(4)8/h4-6,8-9H,1-2H2/t4-,5+,6-/m0/s1
