19
gdb 106632	2.65905	1.45172	1.28707	3.5282	70.84	-0.2431	0.0637	0.3067	1065.0251	0.159742	-460.13208	-460.123789	-460.122845	-460.164721	32.369	
O	 0.0248683088	 1.3761401678	-0.0453914796	-0.423177
C	 0.0350258334	-0.0404128996	-0.0369760119	-0.174129
C	-1.3570397468	-0.5953096486	 0.1069729845	 0.402711
C	-2.2826956334	-0.4305468331	 1.3417252081	-0.279073
C	-3.1202386412	-1.4913569662	 0.5648483015	-0.145452
C	-3.4539582438	-0.7059161173	-0.708005797	-0.070004
O	-2.1754289709	-0.0823306288	-0.9671254066	-0.324917
C	-1.733376293	-2.0956714091	 0.1456306597	 0.089468
O	-1.5924994395	-2.7877619718	-1.0629177262	-0.43444
H	-0.6504285381	 1.628274653	-0.6865007027	 0.293627
H	 0.4859381422	-0.450697282	-0.9540416973	 0.104694
H	 0.6521403694	-0.3527698863	 0.8115312629	 0.104055
H	-1.851349581	-0.8088083076	 2.2699472447	 0.103203
H	-2.7211838233	 0.5571499344	 1.4872376117	 0.111852
H	-3.9110081279	-2.0825108884	 1.0256946153	 0.070043
H	-3.7247950759	-1.3495598125	-1.5507978274	 0.108352
H	-4.2249373193	 0.0583389755	-0.5605409163	 0.098822
H	-1.2508239328	-2.6122957086	 0.9838000629	 0.076176
H	-1.8227167868	-3.7103163307	-0.9166278562	 0.288187
95.6786	150.0758	232.0444	241.0084	269.1381	301.4065	366.5031	424.7955	463.4271	503.7876	620.7423	683.0527	734.6116	820.594	835.6453	876.1321	907.4426	910.9898	962.0578	979.7561	1015.1961	1050.9303	1063.5194	1096.9089	1119.1465	1142.9186	1167.435	1173.1174	1186.5207	1238.3812	1245.2261	1261.1058	1306.1753	1337.001	1363.7059	1375.7047	1435.9443	1452.3937	1493.2348	1497.7006	1516.9401	2988.2421	3035.7049	3037.2348	3078.2969	3083.0487	3085.0639	3124.3346	3148.5478	3794.6162	3825.411
OCC12CC(CO1)C2O	OC[C@@]12C[C@@H](CO1)[C@H]2O	
InChI=1S/C6H10O3/c7-3-6-1-4(2-9-6)5(6)8/h4-5,7-8H,1-3H2	InChI=1S/C6H10O3/c7-3-6-1-4(2-9-6)5(6)8/h4-5,7-8H,1-3H2/t4-,5+,6+/m0/s1
