15
gdb 49985	3.94758	0.94911	0.87603	3.4513	68.25	-0.2643	-0.0389	0.2254	1289.497	0.110687	-457.779321	-457.771364	-457.77042	-457.812466	29.137	
O	-0.2530097915	 0.1266876952	-0.6371047745	-0.252975
C	-0.088907929	 1.2172073748	-0.1529449611	 0.166734
C	 1.2268862543	 1.8796121688	 0.0114385788	-0.187021
C	 1.2900911342	 3.419118136	-0.0509222822	-0.367882
C	 1.4765911764	 2.7270638866	 1.2335043547	 0.440555
C	 0.7520144077	 2.810098882	 2.5704341681	-0.501679
C	 2.1765104705	 2.7497457538	 3.1327505009	 0.445757
O	 2.7179741992	 2.7566506246	 4.1862993317	-0.299594
O	 2.7636544705	 2.6755132124	 1.8825956942	-0.255729
H	-0.9523657212	 1.8227525886	 0.2137390222	 0.069022
H	 2.0781091697	 1.3309304453	-0.3763731181	 0.13418
H	 2.1613911987	 3.8442630774	-0.5349779792	 0.154407
H	 0.3586902818	 3.9514572476	-0.2193887231	 0.138203
H	 0.2272381404	 3.7436662172	 2.7804010054	 0.155857
H	 0.1275727383	 1.9590707896	 2.8469290522	 0.160164
68.0467	124.3123	154.4059	212.9726	320.3972	362.975	429.2508	500.881	522.3577	527.4968	554.1799	788.346	842.0848	859.274	884.4722	945.8061	990.2176	1013.2691	1042.0307	1047.5767	1073.652	1075.2838	1145.8986	1160.6941	1204.8814	1231.0858	1308.566	1395.0237	1442.0916	1453.944	1488.5785	1825.1444	1959.1254	2842.3478	3090.1423	3133.0134	3148.1612	3187.5149	3230.4098
O=CC1CC11CC(=O)O1	O=C[C@H]1C[C@]21CC(=O)O2	
InChI=1S/C6H6O3/c7-3-4-1-6(4)2-5(8)9-6/h3-4H,1-2H2	InChI=1S/C6H6O3/c7-3-4-1-6(4)2-5(8)9-6/h3-4H,1-2H2/t4-,6-/m1/s1
