18
gdb 19398	3.04649	2.15569	1.60946	1.4121	71.71	-0.2253	0.0774	0.3027	862.8301	0.154818	-343.906911	-343.899616	-343.898672	-343.938073	28.709	
C	-0.0613668265	 1.582514432	-0.0806456592	-0.408094
C	 0.0414935134	 0.0677661364	 0.0197395157	-0.07834
C	 1.0560049979	-0.6618474662	-0.8864517704	-0.054455
N	 2.406050104	-0.2009306585	-0.4809252618	-0.338237
C	 1.7313638079	-1.2847353834	 0.2851514221	-0.143914
C	 0.7836008358	-0.5750518211	 1.2286945719	 0.395444
C	 1.0084560047	-0.0505562767	 2.5876265239	-0.300319
N	 0.1522283814	-1.2406045791	 2.3607570802	-0.383259
H	 0.9341661409	 2.031326689	-0.0440122973	 0.141542
H	-0.5427256399	 1.8822221282	-1.0181426044	 0.110667
H	-0.6577858182	 1.995536179	 0.7407480529	 0.10719
H	-0.9440460478	-0.4032907578	-0.081603659	 0.075756
H	 0.8780063557	-1.0611928101	-1.8772248237	 0.091616
H	 3.0734314092	-0.6517280674	-1.1068123988	 0.228466
H	 2.1775963208	-2.2636107597	 0.4067017911	 0.099483
H	 1.9419613912	-0.2504214744	 3.1063169585	 0.118746
H	 0.5317427736	 0.8884840321	 2.8580773763	 0.110659
H	-0.8295373641	-0.9776855326	 2.4190617821	 0.22705
131.6367	207.5816	221.4267	244.4884	297.0031	379.1837	491.1044	564.744	598.5544	725.9509	818.7137	835.1892	846.0446	872.6129	895.4116	921.955	935.3227	976.9329	1012.8679	1031.3258	1053.5877	1081.2308	1107.1163	1113.5991	1122.3922	1152.6044	1205.2164	1251.4576	1259.1407	1292.7497	1320.4014	1354.7013	1365.7877	1403.5383	1439.5422	1490.3315	1502.6849	1518.486	3028.439	3034.9345	3087.9059	3105.5863	3126.347	3186.5246	3190.2157	3202.3082	3469.4256	3482.925
CC1C2NC2C11CN1	C[C@H]1[C@H]2N[C@H]2[C@]21CN2	
InChI=1S/C6H10N2/c1-3-4-5(8-4)6(3)2-7-6/h3-5,7-8H,2H2,1H3	InChI=1S/C6H10N2/c1-3-4-5(8-4)6(3)2-7-6/h3-5,7-8H,2H2,1H3/t3-,4+,5+,6+/m0/s1
