20
gdb 89816	2.90063	1.24777	1.00944	2.2552	83.8	-0.2257	0.0095	0.2352	1242.924	0.171104	-403.139417	-403.130494	-403.129549	-403.173292	34.147	
C	-0.1931820169	 1.5411315777	 0.0965597782	-0.492356
C	-0.1485831844	 0.0478924375	 0.0548140823	 0.278696
C	-0.2660684599	-0.7583966215	-1.0056115372	-0.259814
C	-0.1275435892	-2.192487678	-0.6490699187	 0.336533
C	-0.676882394	-3.2843872501	-1.4919003088	-0.293502
N	 0.7797105495	-3.0762031275	-1.4220066559	-0.358697
C	-0.0718287781	-2.2291110255	 0.8797131941	-0.330072
C	 0.1365881389	-0.754952739	 1.3156071394	 0.031861
O	 1.4373802842	-0.4672657986	 1.831608991	-0.43205
H	 0.7060101444	 1.932497479	 0.5853075552	 0.139972
H	-0.2698581336	 1.9785931179	-0.9024139436	 0.11934
H	-1.0476847461	 1.8929339747	 0.6890873889	 0.128142
H	-0.423895512	-0.4311100749	-2.0298138984	 0.090152
H	-1.0287971672	-4.1991766758	-1.0210119322	 0.117504
H	-1.2041108123	-3.0166247879	-2.4048791804	 0.10819
H	 1.0987486129	-2.5933579272	-2.2599614965	 0.225688
H	-1.0143306953	-2.6118971684	 1.2838696827	 0.107079
H	 0.7335253271	-2.8689915129	 1.2466830442	 0.119842
H	-0.5353587772	-0.4802132719	 2.1359682794	 0.085292
H	 2.0717119892	-0.6733116177	 1.1351274266	 0.278199
41.7779	132.4605	174.0554	229.8955	254.7525	317.3664	352.9555	362.1801	421.1539	465.1613	502.0795	593.3477	635.3439	770.3346	831.1597	843.3631	873.7906	923.8555	930.3201	948.6668	980.6984	1000.9515	1033.5857	1054.0153	1066.7578	1080.6122	1134.837	1165.9838	1180.6814	1240.4454	1269.0255	1273.1249	1296.7061	1333.1603	1339.1343	1399.6302	1409.0036	1429.7353	1475.1812	1476.3135	1490.7934	1509.6768	1711.681	3021.7034	3045.9904	3061.1367	3075.6678	3096.8358	3114.1462	3115.4233	3165.6267	3181.1231	3480.5111	3792.1124
CC1=CC2(CN2)CC1O	CC1=C[C@]2(CN2)C[C@H]1O	
InChI=1S/C7H11NO/c1-5-2-7(4-8-7)3-6(5)9/h2,6,8-9H,3-4H2,1H3	InChI=1S/C7H11NO/c1-5-2-7(4-8-7)3-6(5)9/h2,6,8-9H,3-4H2,1H3/t6-,7-/m1/s1
