14
gdb 11499	4.30741	1.25545	1.05171	1.8685	60.73	-0.266	-0.0852	0.1808	1089.2304	0.104885	-419.685927	-419.677966	-419.677022	-419.71995	27.159	
O	-0.9091031449	 1.6600445992	 0.2112732798	-0.212027
C	 0.1012907854	 1.1826776362	-0.2209932822	 0.090373
C	 1.4420711889	 1.918313708	-0.3243666494	 0.337853
O	 2.4127797366	 1.3780595963	-0.7932315482	-0.341074
O	 1.3711008106	 3.1579105107	 0.1608035193	-0.216128
C	 2.5566032028	 3.9405497046	 0.1033592504	 0.134235
C	 2.4833237738	 5.217219181	-0.6785709326	-0.279968
C	 2.4922035752	 5.2383614091	 0.837291439	-0.29355
H	 0.1834280303	 0.1462587435	-0.6051946347	 0.116427
H	 3.4578408686	 3.3422271973	 0.0914577113	 0.13451
H	 3.3677812411	 5.5327556065	-1.2200261132	 0.128471
H	 1.541898818	 5.4373229584	-1.1682529355	 0.134596
H	 1.5570477247	 5.4718098671	 1.3328540819	 0.138907
H	 3.3820805388	 5.5733061021	 1.357613044	 0.127374
28.9684	82.8707	133.3059	143.9146	271.9837	365.8004	411.602	514.3891	602.5217	676.3173	759.8376	819.8435	859.2745	890.5526	978.3896	1009.7178	1029.2264	1061.1055	1078.7869	1122.9656	1171.4196	1193.9056	1235.934	1305.6736	1378.0237	1394.6551	1456.4383	1497.7439	1806.9574	1842.7447	2947.3866	3143.3876	3145.8326	3207.7432	3228.0434	3241.9339
O=CC(=O)OC1CC1	O=CC(=O)OC1CC1	
InChI=1S/C5H6O3/c6-3-5(7)8-4-1-2-4/h3-4H,1-2H2	InChI=1S/C5H6O3/c6-3-5(7)8-4-1-2-4/h3-4H,1-2H2
