17
gdb 49153	3.874	1.37478	1.17796	3.7473	80.7	-0.2388	-0.0531	0.1857	1045.9294	0.137686	-384.678226	-384.671411	-384.670467	-384.70953	27.356	
O	-0.0684427185	-0.0388657262	 0.021469491	-0.285792
C	 0.0000744104	 1.1732696374	 0.0226998834	 0.05872
C	 1.2414050345	 1.9309232933	-0.0432863722	 0.236094
C	 1.3571465158	 3.2713034216	 0.055894504	-0.16018
C	 2.7815333766	 3.6564718267	-0.0157298561	-0.08024
C	 3.8124964544	 2.8717650867	 0.8561240167	-0.062956
C	 3.2553403934	 1.5480465912	 1.3567431324	-0.229636
C	 2.6264213822	 1.3248772736	-0.0760579925	-0.16231
C	 3.5573723675	 2.483355143	-0.5745549843	-0.081041
H	-0.9195011859	 1.8002464086	 0.0618903612	 0.062213
H	 0.5401180512	 3.9704491781	 0.1942768214	 0.113993
H	 3.0795611847	 4.6690982312	-0.2591084849	 0.094263
H	 4.6428827185	 3.4236105754	 1.2798748369	 0.095121
H	 4.0707740048	 0.8412179992	 1.5269120636	 0.113418
H	 2.5727403619	 1.5377037871	 2.212177539	 0.09998
H	 2.7009349103	 0.3269706225	-0.4995655341	 0.094013
H	 4.1952471479	 2.5151760307	-1.4492302654	 0.094339
101.6308	176.4465	243.2188	358.447	449.5587	501.4776	562.0964	682.707	700.0613	767.8859	777.6236	789.9461	831.4339	873.8906	889.7529	916.1096	962.8274	978.1163	992.5897	1003.6228	1040.4402	1056.1776	1075.5419	1093.1459	1134.4758	1175.6294	1217.1495	1225.5208	1252.2905	1270.9003	1321.492	1361.8955	1371.5573	1419.2323	1490.2104	1646.6947	1771.2055	2871.6565	3049.9942	3111.433	3155.7773	3180.6103	3184.4804	3195.5229	3204.615
O=CC1=CC2C3CC1C23	O=CC1=C[C@H]2[C@H]3C[C@@H]1[C@@H]23	
InChI=1S/C8H8O/c9-3-4-1-6-7-2-5(4)8(6)7/h1,3,5-8H,2H2	InChI=1S/C8H8O/c9-3-4-1-6-7-2-5(4)8(6)7/h1,3,5-8H,2H2/t5-,6-,7+,8-/m0/s1
