20
gdb 115008	2.43483	1.47922	1.18322	2.0785	75.79	-0.2547	0.0237	0.2783	1150.3886	0.169689	-440.304933	-440.295526	-440.294582	-440.338986	34.743	
C	-0.0762986632	 1.4363654868	-0.0269248292	-0.246416
O	-0.0404816631	 0.0270094011	 0.1339092771	-0.225395
C	-1.2691201324	-0.5918741144	-0.0052703419	 0.174527
O	-1.7277991359	-0.5016015175	-1.3792330352	-0.235728
C	-1.5954096239	-1.7583129498	-1.8818805173	 0.095461
N	-1.2871336497	-2.7128653654	-1.1129103521	-0.280519
C	-1.1726963817	-2.1300487123	 0.2472674178	 0.223659
C	 0.1476932841	-2.5627566084	 0.8873114318	-0.406559
C	-2.3715044781	-2.6091727956	 1.078722435	-0.413303
H	 0.9309841325	 1.8039692704	 0.1775260969	 0.13322
H	-0.3670666286	 1.7151462354	-1.0459170293	 0.13184
H	-0.7794062749	 1.8975780718	 0.6821348301	 0.110947
H	-2.0315655752	-0.0859364907	 0.6025424353	 0.074158
H	-1.7849191857	-1.8371501607	-2.9470340879	 0.1368
H	 0.9973795326	-2.2499209681	 0.279291642	 0.13102
H	 0.261232877	-2.1287060671	 1.8846928191	 0.112359
H	 0.1608585938	-3.6523570552	 0.9744075884	 0.120159
H	-2.3859155849	-3.7012968485	 1.116271856	 0.130638
H	-2.3118752511	-2.2250955305	 2.1027814613	 0.113588
H	-3.3156129616	-2.2736862915	 0.6376643022	 0.119543
67.3604	120.0098	185.3484	197.9852	218.4745	253.8312	295.4147	317.2593	334.4971	356.686	475.9297	547.1708	604.2414	642.4484	812.2052	864.4887	924.8271	935.0301	952.3109	961.3479	982.0253	1004.2862	1041.78	1093.3475	1159.4196	1180.955	1199.1857	1207.6695	1241.9614	1258.9362	1318.5088	1356.4871	1395.2534	1401.5552	1421.5261	1476.2743	1480.9896	1482.4217	1486.5105	1496.121	1503.9886	1512.3098	1708.5829	2998.0366	3015.6053	3034.0904	3052.3009	3072.7625	3102.8916	3120.3171	3125.1165	3132.0398	3145.5567	3209.1664
COC1OC=NC1(C)C	CO[C@H]1O[CH][N]C1(C)C	
InChI=1S/C6H11NO2/c1-6(2)5(8-3)9-4-7-6/h4-5H,1-3H3	InChI=1S/C6H11NO2/c1-6(2)5(8-3)9-4-7-6/h4-5H,1-3H3/t5-/m0/s1
