19
gdb 55355	3.14863	1.21293	1.14254	2.8036	75.02	-0.2383	-0.0115	0.2268	1154.4608	0.159239	-423.043398	-423.034991	-423.034047	-423.076907	31.618	
C	 0.7024760626	 0.3613756506	 0.6630330083	-0.491189
C	-0.4989149133	 0.1369494897	-0.2378600297	 0.373808
O	-1.5444671964	 0.7209808383	-0.0637113063	-0.310502
C	-0.3612013651	-0.8839526436	-1.3689007867	-0.093086
C	 0.9096407149	-0.7688930933	-2.255837544	-0.257468
C	 1.1800392627	-2.1974968011	-2.7878480068	-0.244429
C	 0.6081570696	-3.0996101919	-1.7145155834	 0.051893
O	 0.9855346266	-2.7250250185	-0.3790564242	-0.255397
C	-0.3039394195	-2.3250406267	-0.8647136934	 0.02158
H	 1.4006639604	 1.0510957807	 0.173473079	 0.142574
H	 0.3719228259	 0.8169765266	 1.5975029704	 0.138298
H	 1.2435217207	-0.5704368002	 0.847570068	 0.160026
H	-1.2698618911	-0.7852066344	-1.9731206538	 0.096076
H	 0.778414237	-0.0394735925	-3.0579034369	 0.111737
H	 1.7577500905	-0.4432106517	-1.6516015244	 0.1237
H	 0.6427613301	-2.3856470421	-3.7253078378	 0.110201
H	 2.2425700463	-2.3785337005	-2.9760323531	 0.114575
H	 0.491459338	-4.167789766	-1.8778881626	 0.099912
H	-1.1554268498	-2.7577915634	-0.3463027927	 0.107689
52.5018	117.2004	168.8013	184.8789	259.56	328.8953	377.4778	421.5066	535.7204	588.9251	662.2975	678.5767	796.311	825.0139	838.6859	871.496	928.1189	931.9619	953.4849	993.0913	1016.4088	1035.6005	1074.7817	1085.5472	1117.4185	1185.9984	1213.951	1241.2297	1258.257	1291.9983	1305.5608	1314.5589	1331.6511	1363.1358	1385.5026	1429.5891	1472.0123	1474.0209	1482.4064	1495.4894	1804.1792	3038.9867	3040.3582	3054.5461	3080.9368	3089.0693	3108.0068	3129.7581	3147.2871	3155.0526	3160.0883
CC(=O)C1CCC2OC12	CC(=O)[C@H]1CC[C@H]2O[C@@H]12	
InChI=1S/C7H10O2/c1-4(8)5-2-3-6-7(5)9-6/h5-7H,2-3H2,1H3	InChI=1S/C7H10O2/c1-4(8)5-2-3-6-7(5)9-6/h5-7H,2-3H2,1H3/t5-,6-,7+/m1/s1
