17
gdb 99160	4.12821	0.82573	0.72788	1.2606	66.09	-0.2616	-0.0074	0.2542	1513.2653	0.132619	-496.097024	-496.087157	-496.086213	-496.133529	33.99	
O	 0.2572197544	 1.0848452766	-0.2560815091	-0.416558
C	 0.0016116405	-0.2187566095	 0.1788418498	-0.145572
C	-1.4599686315	-0.5748846863	-0.0172493279	 0.415705
O	-2.2639492619	 0.1870205025	-0.4929733705	-0.358074
O	-1.7397776384	-1.8189492632	 0.409362532	-0.257002
C	-3.0823378714	-2.2637475915	 0.266394374	 0.069943
C	-3.3707208402	-3.2417025107	-0.8423248877	-0.336134
C	-3.2505682842	-3.7161879808	 0.5928505312	 0.103464
O	-2.1429571085	-4.4651532185	 0.9815297276	-0.428441
H	-0.5877718977	 1.4251182741	-0.5850240405	 0.299126
H	 0.609871186	-0.9533642566	-0.3709238281	 0.127172
H	 0.2466182792	-0.3417674911	 1.2445927416	 0.127877
H	-3.8123562097	-1.5189059965	 0.556740156	 0.130769
H	-4.3434632075	-3.201826143	-1.3196276145	 0.127507
H	-2.5404528685	-3.4956650809	-1.492125052	 0.132174
H	-4.1574012338	-4.0126081346	 1.1128991561	 0.110419
H	-1.4177659167	-3.8525076898	 1.148998372	 0.297626
27.2184	73.4662	97.9068	111.6648	135.2577	225.7235	298.6365	328.7583	349.1693	405.5738	488.5063	581.8682	590.1436	729.0218	763.8301	807.7711	889.9198	938.9916	1004.6134	1034.8594	1039.3664	1068.1236	1114.2196	1128.8996	1137.8508	1150.7114	1232.4353	1244.8207	1256.0156	1314.6793	1346.3575	1377.547	1415.6975	1463.5558	1477.1077	1497.6625	1818.5654	2993.8091	3014.9079	3138.4337	3145.9855	3195.1768	3234.0193	3726.0526	3798.1043
OCC(=O)OC1CC1O	OCC(=O)O[C@H]1C[C@H]1O	
InChI=1S/C5H8O4/c6-2-5(8)9-4-1-3(4)7/h3-4,6-7H,1-2H2	InChI=1S/C5H8O4/c6-2-5(8)9-4-1-3(4)7/h3-4,6-7H,1-2H2/t3-,4+/m1/s1
