23
gdb 59214	3.08079	1.15862	1.04816	1.378	84.96	-0.2597	0.0766	0.3363	1278.0283	0.207281	-388.28248	-388.273735	-388.272791	-388.315814	34.79	
C	 0.0190216069	 1.5156679124	 0.1889198302	-0.401493
C	 0.0361376199	-0.0136018569	 0.1324845732	 0.0816
O	 0.7164997459	-0.5595887715	 1.2650110502	-0.431863
C	-1.3695466564	-0.5993889985	 0.0194912497	 0.04842
C	-2.1082017907	-0.5277056773	-1.3586697306	-0.031191
C	-1.3187634178	-1.8097746726	-1.753939097	-0.234341
C	-1.4868971403	-2.1347466407	-0.2403563264	-0.019394
C	-3.011009138	-2.3446957526	-0.1398294657	-0.220392
C	-3.4859845938	-1.1161304448	-0.9924396916	-0.21498
H	 1.0350234317	 1.9009598933	 0.3102879544	 0.121712
H	-0.4101812379	 1.9440203736	-0.7225083203	 0.117562
H	-0.5832344399	 1.8656862049	 1.0369671093	 0.103258
H	 0.6515858459	-0.3249168832	-0.7174188581	 0.086708
H	 0.217222004	-0.308744124	 2.0504921649	 0.272785
H	-1.957842906	-0.2302120033	 0.8739561836	 0.039999
H	-2.0981377077	 0.3726778896	-1.9751097239	 0.055082
H	-1.7853009076	-2.4891031429	-2.4743507542	 0.084584
H	-0.2874181397	-1.6189699399	-2.050002101	 0.101289
H	-0.8391001329	-2.8423054556	 0.2761180504	 0.067471
H	-3.327873908	-3.3008564575	-0.5662076532	 0.0944
H	-3.3703489523	-2.3030053295	 0.8927631464	 0.091868
H	-4.0983185077	-0.4155210233	-0.4170077998	 0.092852
H	-4.0570264878	-1.4120593595	-1.8772646407	 0.094064
61.0396	146.4277	193.2611	236.3964	275.4248	298.1347	313.6014	425.6164	472.5299	478.7571	516.4221	650.2513	818.0328	834.6787	839.7822	875.0541	884.3545	894.165	907.5412	944.4975	956.3887	976.8402	1017.0792	1020.9621	1046.7984	1068.4515	1081.9869	1101.1978	1121.2769	1136.4529	1185.2715	1203.174	1215.9585	1242.4598	1257.4057	1267.3111	1270.0679	1284.274	1311.7865	1323.7869	1338.6335	1400.173	1412.2	1419.7346	1489.8762	1491.4652	1494.1895	1501.3555	1521.1816	2977.1326	3024.3085	3045.7648	3052.7317	3056.2842	3062.5973	3082.4021	3094.1986	3097.9427	3101.7358	3118.0497	3121.9491	3133.2348	3793.8955
CC(O)C1C2CC1CC2	C[C@@H](O)[C@H]1[C@H]2C[C@@H]1CC2	
InChI=1S/C8H14O/c1-5(9)8-6-2-3-7(8)4-6/h5-9H,2-4H2,1H3	InChI=1S/C8H14O/c1-5(9)8-6-2-3-7(8)4-6/h5-9H,2-4H2,1H3/t5-,6-,7+,8+/m1/s1
