17
gdb 71112	2.61228	2.00155	1.59764	3.018	70.33	-0.2466	-0.0167	0.2299	886.4988	0.138368	-421.854828	-421.848116	-421.847172	-421.885506	28.086	
O	 0.0203169899	 1.3711005824	 0.0203613072	-0.502497
C	-0.0240152001	-0.011614815	 0.069744964	 0.28791
C	 0.6987798387	-0.7434292223	 1.2317797775	-0.273776
C	 0.4347448568	-2.1673455087	 0.7369072322	-0.06357
C	-0.8706531771	-2.1518757683	-0.0024162116	-0.06363
C	-1.4052242086	-0.7184828616	 0.0404587365	-0.273768
C	 0.444486146	-2.1401392693	-0.80198083	-0.188588
C	 0.6481145571	-0.7075150367	-1.1323589357	 0.400711
O	 1.1765779226	-0.1328477879	-2.0509882494	-0.367347
H	 0.4880010191	 1.591100118	-0.8012959355	 0.288517
H	 1.7616101012	-0.4864881174	 1.2747950562	 0.111827
H	 0.2429797243	-0.5388766305	 2.2055402479	 0.109586
H	 0.7893754629	-3.0466520228	 1.25811525	 0.101346
H	-1.5156961142	-3.019339843	-0.0474296121	 0.101325
H	-2.0020043088	-0.5123081853	 0.9344109269	 0.109567
H	-1.9841378113	-0.4420004284	-0.8460465401	 0.111789
H	 0.7799120217	-2.9662781132	-1.4112117138	 0.110596
153.6091	264.6931	349.0239	381.0821	412.1077	445.6295	507.9471	601.8641	628.5912	641.1181	742.7396	788.3393	800.5663	843.4755	862.0732	916.2435	926.9918	940.1834	964.2443	1008.0517	1066.2074	1068.196	1102.1594	1112.7058	1134.4345	1156.6157	1197.7371	1212.609	1259.323	1293.8906	1308.5024	1352.9219	1383.5955	1419.7596	1490.4581	1511.8378	1857.5948	3048.8969	3052.413	3099.289	3101.2362	3198.9902	3207.0993	3232.6832	3688.9704
OC12CC3C(C1)C3C2=O	O[C@@]12C[C@H]3[C@@H](C1)[C@H]3C2=O	
InChI=1S/C7H8O2/c8-6-5-3-1-7(6,9)2-4(3)5/h3-5,9H,1-2H2	InChI=1S/C7H8O2/c8-6-5-3-1-7(6,9)2-4(3)5/h3-5,9H,1-2H2/t3-,4+,5-,7-
