19
gdb 63279	2.0837	1.71286	1.29295	4.0981	77.48	-0.2533	0.0183	0.2716	1084.7317	0.157992	-419.187836	-419.178856	-419.177912	-419.221075	34.219	
C	 0.2104593458	 1.4448761825	-0.203061406	-0.430892
C	-0.0379615536	-0.0312582602	 0.0514419243	 0.339717
C	-1.4945500765	-0.4379339896	-0.0973973644	-0.436996
O	 0.8130561158	-0.8527571497	-0.8435660465	-0.319698
C	 1.4739641916	-1.4452532679	 0.2172146192	 0.407184
N	 2.3887417252	-2.3013424151	 0.2428083842	-0.553456
C	 0.7126104044	-0.6648184457	 1.2398608751	 0.147506
C	 1.1567382951	-0.06926594	 2.518716451	-0.301698
N	 0.1944666794	-1.1843200705	 2.4984642358	-0.352742
H	 1.2742773801	 1.6796744158	-0.1178709683	 0.132545
H	-0.1272895018	 1.7214352498	-1.2067262263	 0.131157
H	-0.3399562871	 2.0573632441	 0.5190023275	 0.119476
H	-1.8536941138	-0.1995847017	-1.103003825	 0.134124
H	-1.6197352867	-1.5105690757	 0.0709002304	 0.139233
H	-2.121866906	 0.1038950389	 0.6192895878	 0.117454
H	 2.654787131	-2.5919715469	-0.6993248719	 0.227368
H	 2.1382688415	-0.3237039124	 2.9070802789	 0.145368
H	 0.8045204062	 0.9305314482	 2.7614543683	 0.117785
H	-0.7518702905	-0.839917224	 2.6494413961	 0.236563
85.9077	179.7022	205.2616	209.2244	230.0099	245.3113	304.0459	335.5524	356.8209	484.7094	549.6775	599.5546	631.7985	689.4576	814.18	834.812	858.7526	897.9029	939.2796	948.2058	976.0077	982.7819	1001.5297	1005.6618	1044.9967	1126.2692	1148.0103	1208.6449	1241.0239	1261.4888	1274.1393	1320.9761	1402.3251	1414.3487	1430.0097	1473.8477	1482.2767	1496.2225	1500.6873	1513.519	1829.9995	3035.1751	3040.5465	3102.9895	3107.8747	3109.5126	3124.8272	3126.4516	3200.8706	3479.7444	3487.7554
CC1(C)OC(=N)C11CN1	CC1(C)O[C]([NH])[C@]21CN2	
InChI=1S/C6H10N2O/c1-5(2)6(3-8-6)4(7)9-5/h7-8H,3H2,1-2H3	InChI=1S/C6H10N2O/c1-5(2)6(3-8-6)4(7)9-5/h7-8H,3H2,1-2H3/t6-/m0/s1
