19
gdb 38620	2.60776	2.24734	1.64191	0.8544	77.25	-0.2292	0.0818	0.311	882.0195	0.163503	-382.012627	-382.006257	-382.005313	-382.042893	27.5	
C	-0.003740212	 1.4811259422	-0.0401613955	-0.152975
C	 1.4847151113	 1.9418148882	 0.0526986316	-0.287536
C	 1.9251822646	 0.8546875318	 1.0124934375	 0.301443
N	 2.8885507702	 0.8162040563	 2.1032031536	-0.431519
C	 1.446077495	 0.9840692867	 2.4160288173	-0.049075
C	 0.4187451865	-0.1102096157	 2.6909693181	-0.27535
C	 0.2066385454	-0.7657477102	 1.3272585703	-0.011567
C	 1.3447872648	-0.4253033233	 0.4426754291	-0.123491
N	-3.7266*^-6	-0.0171988995	 0.0436746958	-0.116703
H	-0.5970825741	 1.9245177427	 0.767278709	 0.105159
H	-0.4740465684	 1.7537294328	-0.9885745826	 0.108742
H	 1.9746257418	 1.888416765	-0.9257992744	 0.101151
H	 1.5980442379	 2.9542443722	 0.4463782676	 0.109807
H	 3.2045440146	-0.1416381869	 2.2466799865	 0.232685
H	 1.2351081316	 1.971882268	 2.8152749734	 0.095353
H	 0.7469959759	-0.8733517299	 3.4093346585	 0.107888
H	-0.4928299767	 0.3354352674	 3.1060107904	 0.110481
H	-0.2718019365	-1.7417184992	 1.2972410228	 0.092137
H	 1.9210080748	-1.1071394285	-0.1789200791	 0.083369
222.4884	235.2808	358.1183	391.1275	447.8039	532.8998	589.5652	670.6255	688.085	737.7856	786.1455	813.5107	857.4135	882.8307	891.1414	910.9177	950.2886	956.1794	1002.2055	1018.6701	1043.8642	1052.7064	1074.9563	1103.6033	1118.3613	1150.9126	1159.2108	1207.8653	1230.3573	1245.7421	1281.1509	1293.5727	1299.3703	1315.1744	1328.8911	1357.6235	1391.0492	1430.8907	1483.2166	1491.634	1504.9089	3018.8351	3041.9187	3044.9577	3058.7765	3091.2045	3114.0623	3125.0254	3141.7802	3148.7474	3475.9235
C1CC23NC2CC2C3N12	C1C[C@@]23N[C@@H]2C[C@@H]2[C@H]3N12	
InChI=1S/C7H10N2/c1-2-9-4-3-5-7(1,8-5)6(4)9/h4-6,8H,1-3H2	InChI=1S/C7H10N2/c1-2-9-4-3-5-7(1,8-5)6(4)9/h4-6,8H,1-3H2/t4-,5-,6-,7-,9?/m1/s1
