20
gdb 77636	2.16167	1.43184	1.31826	1.3974	88.18	-0.2343	0.0336	0.2679	1146.3958	0.168585	-365.942019	-365.932605	-365.93166	-365.975538	36.081	
C	-0.090241807	 1.4790631672	 0.0464372804	-0.32688
N	 0.1275084168	 0.0485424928	-0.1055786289	-0.149953
C	 0.6968143033	-0.5654421458	-1.2818518474	 0.258385
C	-0.0564535356	-1.6573673534	-1.9799707881	-0.479759
C	 1.8149442767	 0.2949284079	-1.908326921	-0.289433
C	 2.5723043209	 0.2872458127	-0.548170076	-0.298642
C	 1.4374499939	-0.5676553031	 0.0631383864	 0.100297
C	 1.6184696225	-1.59613532	 1.0347692682	 0.222365
C	 1.8102590422	-2.4652575373	 1.8450456978	-0.391236
H	 0.6980196257	 2.1247125416	-0.36444706	 0.106575
H	-1.0327716837	 1.7400882957	-0.4449105435	 0.124923
H	-0.1922756408	 1.7034469265	 1.112339118	 0.13055
H	-0.782325637	-1.2387885524	-2.6878972369	 0.120908
H	 0.6225233411	-2.3062203888	-2.5429388497	 0.118621
H	-0.6026697347	-2.2627383032	-1.2526975631	 0.139961
H	 2.3591004661	-0.2418959187	-2.6882755534	 0.108378
H	 1.5074290657	 1.2659410943	-2.3076208695	 0.100633
H	 3.511295007	-0.2661691283	-0.5963398963	 0.117244
H	 2.7587470739	 1.2506619883	-0.0649026095	 0.102576
H	 1.9639926929	-3.2297795659	 2.5654836124	 0.184487
111.5029	142.7799	160.6932	180.7822	222.6669	276.6699	284.5706	319.4074	391.5665	493.737	530.3054	564.332	577.8029	593.4683	649.1304	690.3459	726.2803	768.9251	804.5414	913.7443	954.8031	989.2135	1038.8137	1074.3369	1122.8817	1136.461	1161.6399	1173.874	1196.405	1225.9643	1228.3358	1234.0652	1292.9199	1400.5433	1432.8213	1455.2477	1473.7884	1482.3122	1487.601	1491.6221	1506.0346	1514.1263	2232.2428	3006.3699	3027.4955	3057.005	3064.0749	3076.8492	3087.9049	3106.7334	3108.1001	3125.8161	3127.8494	3502.6696
CN1C2(C)CCC12C#C	CN1[C@@]2(C)CC[C@@]12C#C	
InChI=1S/C8H11N/c1-4-8-6-5-7(8,2)9(8)3/h1H,5-6H2,2-3H3	InChI=1S/C8H11N/c1-4-8-6-5-7(8,2)9(8)3/h1H,5-6H2,2-3H3/t7-,8+,9?/m0/s1
