23
gdb 103778	2.8952	1.18103	1.04478	0.9508	86.99	-0.2398	0.0863	0.3261	1300.0501	0.203887	-388.259193	-388.24925	-388.248306	-388.293947	37.336	
C	 0.1707921817	 1.1489117346	-0.1305216874	-0.243644
O	-0.0840067128	-0.1520502623	 0.3586094294	-0.278027
C	-1.3933769666	-0.6155689271	 0.1571920108	 0.375319
C	-2.4369475352	 0.0248026621	 1.0459528955	-0.455172
C	-1.7566240869	-1.0547399192	-1.247343504	-0.429481
C	-1.4643989616	-2.0776486521	-0.1777256048	 0.306288
C	-0.2705659511	-3.0386679518	-0.1056984729	-0.282554
C	-1.1323967426	-3.9745715796	 0.7935439516	-0.202411
C	-2.3937738824	-3.1259425588	 0.4524574444	-0.301425
H	 1.2411268986	 1.330625585	-0.0047826265	 0.124036
H	-0.0848395556	 1.2396679154	-1.1958371055	 0.106243
H	-0.3807622711	 1.9206328982	 0.4248110414	 0.106612
H	-2.5428354735	 1.0945908314	 0.8359501789	 0.116297
H	-3.4163019415	-0.4354909876	 0.8923553793	 0.120237
H	-2.1648649788	-0.0885195814	 2.1009521904	 0.12128
H	-2.7822478778	-0.9255721969	-1.5816624628	 0.10425
H	-1.0070492608	-0.9244460887	-2.0222698397	 0.110569
H	-0.0230377555	-3.485232186	-1.0738766053	 0.094446
H	 0.6398960352	-2.6282799366	 0.3346266587	 0.114145
H	-1.1669662166	-5.0284335597	 0.5093640887	 0.095325
H	-0.8578311331	-3.9107803229	 1.849302944	 0.103559
H	-3.0093285064	-2.8028011554	 1.2966258497	 0.095853
H	-3.0456950054	-3.6085208205	-0.2828817537	 0.098256
66.7444	103.6893	140.4863	164.1589	188.3964	207.1558	258.0983	319.7797	382.6844	403.4762	437.5581	486.9087	613.6511	692.5121	723.3569	784.2785	849.5687	879.7715	897.4031	923.1904	936.1153	940.4189	969.1038	1031.1003	1050.6009	1090.4206	1120.8994	1143.4259	1168.9419	1178.8345	1182.087	1217.4268	1222.6587	1233.3058	1252.459	1260.4683	1280.4807	1289.3639	1395.5912	1414.8868	1470.8711	1475.3723	1477.558	1481.8024	1483.2008	1495.3839	1506.0958	1506.89	1512.6392	2990.8703	3032.5563	3041.6839	3043.363	3051.8971	3065.4891	3087.6174	3093.462	3110.1075	3111.9044	3112.3955	3118.4328	3124.6372	3200.3502
COC1(C)CC11CCC1	CO[C@@]1(C)CC21CCC2	
InChI=1S/C8H14O/c1-7(9-2)6-8(7)4-3-5-8/h3-6H2,1-2H3	InChI=1S/C8H14O/c1-7(9-2)6-8(7)4-3-5-8/h3-6H2,1-2H3/t7-/m0/s1
