20
gdb 89247	2.49944	1.77869	1.33509	2.3601	77.87	-0.2176	0.0616	0.2792	1028.5127	0.170846	-403.075484	-403.067356	-403.066412	-403.107419	32.969	
C	 0.020243212	 1.5063143485	-0.0163488713	-0.467304
C	-0.0091151357	 0.0005390137	 0.0426617077	 0.379829
C	-1.3635781544	-0.7075532754	 0.3381047943	-0.349125
C	-0.6781185901	-1.4887562993	 1.5171722001	 0.109143
O	-0.6801095719	-2.8990739756	 1.4956279808	-0.42428
C	 0.6805542775	-0.8362058464	 1.1547604048	-0.10439
C	 1.5403339407	-1.4512395503	 0.0443934155	-0.026457
C	 0.7831337677	-2.0524018308	-1.0633162385	-0.246298
N	 0.9014237959	-0.5816963564	-1.0412170128	-0.189148
H	 1.0516864644	 1.8703276082	-0.0460598088	 0.124194
H	-0.4834304308	 1.8609527942	-0.923080171	 0.123057
H	-0.4820338365	 1.9467333195	 0.8515940791	 0.106117
H	-2.1468519526	-0.0178256349	 0.6647762185	 0.097532
H	-1.7671388896	-1.3299489361	-0.4637662362	 0.108755
H	-1.0333507394	-1.1168938207	 2.4881136292	 0.072619
H	-1.5576240813	-3.2010834017	 1.7509442257	 0.285203
H	 1.2460369751	-0.3748061895	 1.9643398265	 0.066986
H	 2.6195977471	-1.5441210635	 0.1183489174	 0.091671
H	 1.3662545652	-2.4834706722	-1.8727643006	 0.115284
H	-0.1596873334	-2.5520789412	-0.8814093304	 0.126612
153.691	220.0759	232.6991	242.883	283.6725	302.0002	345.7903	445.5924	469.298	538.7107	629.0096	674.547	732.4915	741.3582	798.7929	854.4887	890.697	904.8872	926.2774	958.8165	991.0623	1028.5768	1042.697	1062.3161	1110.453	1121.7493	1144.1783	1163.2471	1177.7689	1191.329	1204.7144	1222.7675	1238.2446	1311.6552	1319.954	1331.8848	1365.7663	1409.5848	1425.2594	1468.2863	1480.509	1490.5949	1517.7703	2996.134	3027.1876	3058.6669	3094.2438	3107.401	3108.1286	3114.0293	3128.2239	3151.7583	3224.6943	3816.2859
CC12CC(O)C1C1CN21	C[C@]12C[C@@H](O)[C@H]1[C@H]1CN21	
InChI=1S/C7H11NO/c1-7-2-5(9)6(7)4-3-8(4)7/h4-6,9H,2-3H2,1H3	InChI=1S/C7H11NO/c1-7-2-5(9)6(7)4-3-8(4)7/h4-6,9H,2-3H2,1H3/t4-,5-,6-,7+,8?/m1/s1
