17
gdb 128773	3.49362	1.11019	0.86413	4.6479	72.24	-0.2108	0.0171	0.2279	1306.3304	0.137001	-451.308683	-451.299791	-451.298847	-451.342794	31.861	
C	-0.1864137507	 1.3761275701	-0.3790912833	-0.227052
O	-0.2122306099	-0.0282031188	-0.5049620609	-0.245624
C	-1.1174025179	-0.642665371	 0.4053149937	-0.186455
C	-1.1240779686	-2.1117228621	 0.1500220394	 0.256944
C	-0.9440481795	-2.7774922695	-1.048969571	 0.282947
N	-0.7489490081	-2.3107369967	-2.3399990766	-0.612286
N	-1.0750879947	-4.0815284074	-0.7109460892	-0.234189
N	-1.3160804106	-4.2309380655	 0.623871877	-0.140607
N	-1.3424368954	-3.0366938564	 1.1267841502	-0.257993
H	 0.5267706807	 1.7583440011	-1.1131536612	 0.127662
H	-1.1745705607	 1.8212684172	-0.5733035351	 0.110607
H	 0.1380947947	 1.6834142312	 0.6263459266	 0.115131
H	-0.8182614446	-0.4529889186	 1.4468832301	 0.119844
H	-2.1208718536	-0.2015602232	 0.2714320603	 0.102457
H	-0.4425785343	-1.3445683774	-2.3068082438	 0.267857
H	-0.1074194705	-2.8676041645	-2.8905625906	 0.248476
H	-1.0246360365	-4.8969560786	-1.2995630857	 0.272279
60.1257	95.726	140.565	225.5523	251.4078	285.4959	309.8859	337.2988	380.4701	443.6428	509.8477	679.4053	710.3818	731.7389	786.5972	810.3382	977.3929	1010.3914	1026.1166	1037.7153	1109.2956	1142.7455	1184.2029	1220.0352	1234.4483	1264.7348	1308.8364	1317.0068	1397.2915	1425.2674	1479.824	1484.8042	1503.5513	1522.8737	1549.2938	1633.4041	1671.106	2945.9706	2979.2111	3010.4074	3027.8079	3117.3285	3521.7452	3614.2414	3660.772
COCC1=C(N)NN=N1	COCc1c(N)[nH]nn1	
InChI=1S/C4H8N4O/c1-9-2-3-4(5)7-8-6-3/h2H2,1H3,(H3,5,6,7,8)	InChI=1S/C4H8N4O/c1-9-2-3-4(5)7-8-6-3/h2H2,1H3,(H3,5,6,7,8)
