13
gdb 28149	5.44687	1.33428	1.07174	1.4866	65.6	-0.1857	0.0262	0.2119	1012.5789	0.093431	-448.976077	-448.969433	-448.968489	-449.006857	25.974	
O	 0.0823949946	 1.2851708144	 0.1564454761	-0.420073
C	 0.0696036832	-0.0488598361	 0.0169508116	 0.426553
N	 0.0970420034	-0.7022841045	-1.1269534692	-0.464958
C	 0.0667013241	-2.0081068796	-0.696600548	 0.33323
C	 0.0222384818	-2.1369602209	 0.6669930473	 0.333836
N	 0.0242025922	-0.8280186182	 1.1445052739	-0.44116
N	-0.0077022877	-3.4262801623	 1.0943534113	-0.355517
C	 0.0193478276	-4.1050817633	-0.0439929749	-0.017935
N	 0.0648950159	-3.2992325459	-1.1679166935	-0.386684
H	 0.1151637457	 1.650150324	-0.7369441011	 0.316036
H	-0.0014852044	-0.4904298908	 2.0907031516	 0.277994
H	 0.0080262548	-5.1806798846	-0.1242290473	 0.128401
H	 0.0910889587	-3.6118677022	-2.122944188	 0.270277
152.0966	265.9784	338.5508	357.3213	400.169	420.9979	465.1794	553.9472	591.7587	649.6178	709.9578	731.753	771.8988	784.8911	851.3698	966.6852	1022.1183	1076.5967	1172.1478	1185.1145	1253.6409	1276.4197	1368.8039	1458.9652	1481.6764	1525.3462	1534.7905	1584.7005	1622.9612	3264.9786	3679.876	3686.266	3804.8902
OC1=NC2=C(N1)N=CN2	Oc1nc2c([nH]1)nc[nH]2	
InChI=1S/C4H4N4O/c9-4-7-2-3(8-4)6-1-5-2/h1H,(H,5,6)(H2,7,8,9)	InChI=1S/C4H4N4O/c9-4-7-2-3(8-4)6-1-5-2/h1H,(H,5,6)(H2,7,8,9)
