16
gdb 44350	3.78082	1.57479	1.29828	3.5015	76.67	-0.2243	-0.0634	0.1608	954.9223	0.124977	-400.666083	-400.65939	-400.658446	-400.697063	27.128	
O	 0.0673529224	-0.0650234498	 0.2842488379	-0.301916
C	 0.0447860706	 1.1076328833	 0.0130374869	 0.352124
C	-1.278980336	 1.9458626558	 0.0654987172	-0.25216
N	-1.3944306351	 2.9708137073	-0.9805018138	-0.084648
C	-0.7615067312	 4.3196085961	-1.1007584801	-0.030259
C	 0.6675662569	 4.5653073486	-0.4921453712	-0.307601
C	 0.9197170517	 3.1297816791	-0.9273094436	 0.182977
C	 1.1764875746	 2.071544073	-0.1464983404	-0.269099
C	-0.2683828056	 3.1367525688	-1.8705318824	-0.130852
H	-2.1243603622	 1.2591065515	-0.0408221683	 0.138214
H	-1.3345573103	 2.3879566357	 1.0678733518	 0.130705
H	-1.4300030579	 5.1118998666	-1.4203808914	 0.111675
H	 1.1525754932	 5.3420810464	-1.0930866946	 0.124465
H	 0.7766256982	 4.7924808485	 0.5715839484	 0.111476
H	 1.8355775988	 2.146084953	 0.7176698348	 0.119662
H	-0.3165751281	 2.8721145261	-2.9203218309	 0.105236
104.6519	206.2258	355.4852	399.5541	429.9207	480.576	512.2617	582.8481	648.2085	706.1667	789.202	799.9598	836.2963	861.1563	890.3502	913.5429	921.6516	966.8468	1015.4815	1048.5062	1049.1756	1080.0003	1103.5358	1112.8181	1200.3002	1206.7304	1233.0093	1268.2388	1292.0436	1299.2394	1344.0357	1468.9427	1487.3014	1664.639	1818.5643	3035.3475	3042.6267	3089.7413	3102.5641	3137.39	3169.7042	3183.5346
O=C1CN2C3CC(=C1)C23	O=C1CN2[C@H]3C[C]([CH]1)[C@@H]23	
InChI=1S/C7H7NO/c9-5-1-4-2-6-7(4)8(6)3-5/h1,6-7H,2-3H2	InChI=1S/C7H7NO/c9-5-1-4-2-6-7(4)8(6)3-5/h1,6-7H,2-3H2/t6-,7+,8?/m0/s1
