17
gdb 18929	3.61298	2.44289	1.94978	1.2001	66.42	-0.2278	0.0692	0.297	746.6072	0.144624	-363.798613	-363.792539	-363.791594	-363.828467	25.115	
C	-0.033696305	 1.5321077935	-0.0048219967	-0.424918
C	 0.0891779495	 0.0132127323	 0.0144000427	 0.069434
C	 1.0441181508	-0.618742066	-1.0234696242	-0.094392
N	 2.3371001983	 0.0727875468	-0.6712506472	-0.326582
C	 2.2943037793	-0.7987194878	 0.5308884788	-0.055977
C	 1.479231792	-1.9029893683	-0.151905559	 0.089551
O	 0.5878416368	-2.0538923021	 0.9543985902	-0.293767
C	 0.8583270931	-0.6358806588	 1.1907444819	 0.05576
H	 0.9472306922	 2.0087026629	 0.026338338	 0.141645
H	-0.5444222236	 1.8682377132	-0.9136933558	 0.112055
H	-0.6228518583	 1.8788461645	 0.8511857974	 0.108428
H	-0.8971263905	-0.4576818337	-0.0269036941	 0.081835
H	 0.7544223774	-0.6527305693	-2.0725599001	 0.070441
H	 3.0719867753	-0.2916648938	-1.2774518668	 0.217405
H	 3.1737190993	-0.9241339058	 1.1603238032	 0.08222
H	 1.8327337618	-2.8224559072	-0.6190291917	 0.084785
H	 0.6825923416	-0.3148700104	 2.2161807035	 0.082074
190.582	234.6833	280.0748	474.1133	519.2884	552.5072	680.2985	732.3515	764.3202	821.8156	843.6938	848.375	865.153	915.3365	946.101	965.9833	997.4653	1019.4586	1033.4495	1053.7338	1100.3377	1114.923	1140.0603	1162.8463	1176.5756	1187.7714	1215.6969	1265.5684	1274.0881	1310.4863	1330.7971	1354.1941	1377.6346	1405.0454	1491.8903	1509.4318	3035.6117	3070.8547	3091.7702	3117.3581	3132.2237	3134.7132	3140.8401	3143.8215	3459.1325
CC1C2NC3C2OC13	C[C@H]1[C@H]2N[C@@H]3[C@H]2O[C@H]13	
InChI=1S/C6H9NO/c1-2-3-6-4(7-3)5(2)8-6/h2-7H,1H3	InChI=1S/C6H9NO/c1-2-3-6-4(7-3)5(2)8-6/h2-7H,1H3/t2-,3+,4-,5+,6-/m0/s1
