23
gdb 96120	2.10417	1.72757	1.19561	1.2478	84.71	-0.2428	0.0794	0.3222	1158.7869	0.206906	-388.291186	-388.282289	-388.281345	-388.324095	35.353	
C	-0.0509542764	 1.537583981	-0.0351663731	-0.403762
C	 0.0477720298	 0.0078707128	 0.0188572985	-0.050568
C	 0.6873783907	-0.5414336495	-1.2653921557	-0.104294
O	 0.8582732119	-1.9414665661	-1.2078167125	-0.24019
C	 1.8707552981	-2.3101285215	-0.2860298858	-0.102501
C	 1.7005148292	-1.6867210727	 1.0968679652	-0.102082
C	 2.2604609262	-0.3109900851	 1.3870612961	-0.334078
C	 0.768051548	-0.5025679079	 1.2686058535	 0.372843
C	-0.0502529178	-0.4393346671	 2.5445992427	-0.472205
H	 0.9436317276	 1.996104771	-0.0585928648	 0.116203
H	-0.5920606637	 1.8641155997	-0.9302214935	 0.110684
H	-0.5808592452	 1.9387034291	 0.8334790184	 0.117272
H	-0.9700489624	-0.4050323954	 0.0520893847	 0.07543
H	 0.0339419093	-0.3409342151	-2.1203528204	 0.105112
H	 1.6523343051	-0.0413524101	-1.4656502968	 0.07991
H	 1.8201209423	-3.4001602572	-0.2146943983	 0.10783
H	 2.8586297167	-2.050421722	-0.7040227344	 0.086175
H	 1.7228663899	-2.396524248	 1.918447547	 0.08301
H	 2.6741667759	-0.116617529	 2.3712403154	 0.104904
H	 2.7909406964	 0.1885912931	 0.5813571996	 0.106185
H	-0.3316284013	 0.5899210096	 2.7947810765	 0.116312
H	-0.9735637095	-1.0229035457	 2.4494179928	 0.116898
H	 0.5119782391	-0.8404533538	 3.3939042849	 0.11091
105.0374	185.4118	209.5665	230.7385	247.3665	269.4968	347.968	355.3214	406.8215	469.3615	476.2826	526.2884	656.0338	683.3949	790.1627	873.8805	878.7264	919.3606	933.3336	945.0985	960.1529	998.1399	1047.9618	1052.1065	1066.5174	1097.198	1106.7814	1130.6422	1153.2196	1161.8603	1174.1192	1241.4448	1268.9759	1316.8256	1326.9832	1328.7334	1370.0725	1389.9204	1407.0057	1414.4349	1416.2029	1426.0426	1487.3057	1491.5499	1496.2213	1499.2676	1501.2512	1502.515	1512.3664	2944.3511	2953.3511	3006.6259	3022.3281	3031.7437	3073.3553	3081.8326	3082.4833	3095.2788	3097.2306	3108.8752	3119.8307	3146.0795	3202.2807
CC1COCC2CC12C	C[C@H]1COC[C@H]2C[C@@]12C	
InChI=1S/C8H14O/c1-6-4-9-5-7-3-8(6,7)2/h6-7H,3-5H2,1-2H3	InChI=1S/C8H14O/c1-6-4-9-5-7-3-8(6,7)2/h6-7H,3-5H2,1-2H3/t6-,7+,8-/m0/s1
