17
gdb 34285	3.43105	1.47935	1.33191	4.4729	76.41	-0.2423	-0.0079	0.2344	987.5561	0.139382	-380.874407	-380.867493	-380.866549	-380.90547	28.24	
N	 0.1026106269	-1.1197247042	 0.0357548841	-0.339083
C	 0.0374501258	 0.0335997004	 0.014963126	 0.169848
C	-0.0540463163	 1.4843714152	 0.0117763828	 0.175447
C	-0.7099881425	 2.1618770859	 1.2465651797	-0.241076
C	-0.4991079485	 3.5696326611	 0.6436024895	-0.095515
C	 1.0461394279	 3.532279715	 0.4052354714	-0.167464
N	 1.302519739	 2.1366274016	-0.0574707688	-0.322357
C	-1.1244652486	 3.3720854229	-0.730323383	-0.090725
C	-0.8670157994	 2.1218484426	-1.1177674491	-0.073779
H	-1.7610434274	 1.9015716751	 1.3777008963	 0.12048
H	-0.1523017075	 1.9768439767	 2.1693457809	 0.10306
H	-0.8470531847	 4.4219847327	 1.2255041537	 0.077815
H	 1.3557218306	 4.2538181357	-0.3563419303	 0.113552
H	 1.5917286214	 3.7511290512	 1.3293760801	 0.104789
H	 1.9136875749	 1.6667053439	 0.6037084669	 0.229703
H	-1.5865350936	 4.1555910258	-1.3171919766	 0.110968
H	-1.0541906579	 1.6471423983	-2.0703688336	 0.124336
149.7075	165.8794	273.2681	386.1682	465.8656	483.5163	524.7812	552.5528	563.5762	676.0194	742.3382	772.5699	804.0095	845.1042	855.1161	926.1925	932.8177	947.7117	960.5467	990.0745	1040.3633	1050.7443	1080.8577	1096.5129	1154.0702	1186.482	1204.4999	1250.0416	1270.5732	1294.2274	1331.2626	1351.9461	1418.2015	1490.5149	1513.6942	1645.2797	2365.2661	3039.1221	3063.9497	3084.0146	3127.8043	3136.0975	3211.4192	3244.3772	3512.5909
N#CC12CC(CN1)C=C2	N#C[C@@]12C[C@@H](CN1)C=C2	
InChI=1S/C7H8N2/c8-5-7-2-1-6(3-7)4-9-7/h1-2,6,9H,3-4H2	InChI=1S/C7H8N2/c8-5-7-2-1-6(3-7)4-9-7/h1-2,6,9H,3-4H2/t6-,7+/m0/s1
