19
gdb 73220	2.17354	1.88494	1.37116	1.6391	74.26	-0.2406	-0.0229	0.2177	1017.9897	0.159399	-423.04727	-423.039038	-423.038093	-423.080042	31.36	
C	-0.1092405613	 1.5591898199	-0.0024915222	-0.484589
C	 0.0390768885	 0.0500077889	 0.0126406373	 0.153163
C	-1.1837062371	-0.8096188586	 0.4365330258	-0.110204
O	-0.3865779682	-1.5704678826	 1.3627747591	-0.299283
C	 0.7589696207	-0.7059314401	 1.1604160771	 0.089268
C	 1.9521819839	-1.4598699052	 0.568971169	-0.240738
C	 1.5677121418	-1.7011545931	-0.9005970913	-0.324854
C	 0.6763168946	-0.5101984596	-1.2675331389	 0.368949
O	 0.504709348	-0.0618673512	-2.3722658924	-0.325684
H	 0.8672325522	 2.0533521597	-0.0405737922	 0.123141
H	-0.6665518199	 1.8701745977	-0.8910488495	 0.143897
H	-0.636141571	 1.9147856679	 0.8879915878	 0.117157
H	-1.9627970323	-0.2252270609	 0.944157542	 0.105394
H	-1.6515961174	-1.4389804807	-0.3298862278	 0.112614
H	 0.9977934407	-0.139697472	 2.0675900693	 0.074591
H	 2.8438130086	-0.824547009	 0.6339815012	 0.107434
H	 2.1546670853	-2.3784618403	 1.1255322809	 0.119294
H	 2.4062837897	-1.788791532	-1.5933347149	 0.128194
H	 0.9627437132	-2.6111913985	-0.9991714904	 0.142256
82.1735	153.6366	176.0601	215.5193	258.4234	290.3853	376.0938	475.09	493.3743	603.6844	635.3056	680.0409	781.3623	804.1936	875.0052	896.2016	904.4959	970.2545	982.1724	1012.7907	1036.2429	1050.4514	1090.7324	1140.0661	1153.2697	1173.0141	1181.3375	1230.2326	1249.1973	1281.7056	1296.9531	1328.0887	1358.484	1374.3017	1409.6681	1450.6416	1476.9897	1487.9716	1493.931	1527.0714	1839.188	3005.1327	3034.2589	3036.804	3043.8115	3050.3716	3056.1634	3102.7585	3103.7408	3116.3928	3122.8593
CC12COC1CCC2=O	C[C@]12CO[C@H]1CCC2=O	
InChI=1S/C7H10O2/c1-7-4-9-6(7)3-2-5(7)8/h6H,2-4H2,1H3	InChI=1S/C7H10O2/c1-7-4-9-6(7)3-2-5(7)8/h6H,2-4H2,1H3/t6-,7+/m0/s1
