18
gdb 119517	4.20423	0.93199	0.87348	2.1833	71.38	-0.2196	0.0547	0.2742	1343.0114	0.146157	-438.968326	-438.959902	-438.958958	-439.001883	31.785	
O	-0.0980057457	 1.4631437984	-0.0840510984	-0.419334
C	-0.0235357763	 0.0503330581	-0.1824192126	-0.065318
C	-1.3931893793	-0.5085557677	 0.203103844	-0.327935
C	-1.4297537116	-2.0041141911	 0.1907462017	 0.318716
N	-1.4454053689	-2.8239238225	-1.0461509083	-0.352577
C	-2.5252237547	-2.9737877986	-0.0376129721	-0.188974
C	-1.9731793175	-3.877163202	 1.1229163995	 0.026281
O	-0.6241451568	-4.2411908685	 0.8335547498	-0.211124
C	-0.8785565278	-2.9359748316	 1.3471006075	-0.02472
H	 0.7570886958	 1.8281713273	-0.3292410545	 0.288215
H	 0.2331741782	-0.2722424478	-1.2032654217	 0.097991
H	 0.7466729906	-0.3605902081	 0.4898283896	 0.093235
H	-1.6506622846	-0.1338701524	 1.2018954978	 0.114184
H	-2.1470006157	-0.1072509903	-0.4852433317	 0.107152
H	-1.8261247765	-2.2241679136	-1.7803653276	 0.2275
H	-3.5669151764	-2.8046301011	-0.2776909704	 0.099549
H	-2.541562298	-4.5021020661	 1.800443226	 0.110044
H	-0.362926675	-2.6246717025	 2.2482662416	 0.107115
76.1306	100.1229	111.4669	263.9206	289.6293	311.5855	342.6	423.1924	465.0396	634.3728	699.6258	756.2611	779.574	812.1447	823.1888	857.7493	889.332	921.7148	928.517	987.598	1016.1699	1026.2799	1029.9411	1078.4705	1086.6266	1115.6537	1195.0637	1209.3689	1221.3546	1240.1723	1280.6544	1302.3885	1321.6734	1343.3281	1372.3218	1442.1691	1462.4318	1480.4492	1526.6716	2971.2144	3000.0386	3025.4594	3068.1799	3180.5339	3195.8762	3204.5791	3453.6075	3831.2375
OCCC12NC1C1OC21	OCC[C@]12N[C@H]1[C@H]1O[C@@H]21	
InChI=1S/C6H9NO2/c8-2-1-6-4(7-6)3-5(6)9-3/h3-5,7-8H,1-2H2	InChI=1S/C6H9NO2/c8-2-1-6-4(7-6)3-5(6)9-3/h3-5,7-8H,1-2H2/t3-,4+,5-,6+/m1/s1
