14
gdb 105142	2.55325	1.23243	0.96521	2.0094	68.4	-0.2705	-0.0393	0.2312	1189.6362	0.099967	-432.846978	-432.838051	-432.837107	-432.881046	31.157	
N	-0.1890424417	 1.4225990092	 0.1066846453	-0.501534
C	 0.3691268005	 0.1168468773	-0.2136138949	-0.251471
C	 0.9727038608	-0.478336427	 1.0449336321	 0.240947
O	 0.0448722261	-1.0359614204	 1.9842019462	-0.243469
C	 0.9356990449	-1.9386172146	 1.3347680694	-0.152825
C	 0.361062985	-2.873904102	 0.391298523	 0.317213
N	-0.0725960933	-3.6421609702	-0.3549579934	-0.315789
C	 2.0621666234	 0.27612709	 1.645178568	 0.294447
N	 2.9562499782	 0.8472826002	 2.101351829	-0.317258
H	-0.4016429536	 1.9376063579	-0.7394958911	 0.24681
H	-1.0545461841	 1.3200954549	 0.6263831863	 0.24822
H	-0.3431911236	-0.6142314386	-0.6231397596	 0.129022
H	 1.1702184414	 0.245585089	-0.9494149876	 0.139613
H	 1.7143885862	-2.3573803658	 1.9686524073	 0.166074
84.2259	112.4316	124.9875	156.8199	217.6354	271.0765	280.3741	368.5837	413.9568	486.3132	554.1593	602.5893	645.8413	689.4263	821.023	856.9542	930.4656	957.6533	1006.5309	1072.5985	1092.1018	1176.1135	1240.0343	1303.4695	1342.2423	1416.7745	1432.3665	1486.1828	1661.4479	2362.993	2367.8894	3001.315	3079.5382	3146.4818	3516.4419	3601.467
NCC1(OC1C#N)C#N	NC[C@]1(O[C@H]1C#N)C#N	
InChI=1S/C5H5N3O/c6-1-4-5(2-7,3-8)9-4/h4H,2,7H2	InChI=1S/C5H5N3O/c6-1-4-5(2-7,3-8)9-4/h4H,2,7H2/t4-,5-/m0/s1
