21
gdb 91770	2.25598	1.86888	1.63676	2.3158	76.14	-0.25	0.0714	0.3215	968.5292	0.186999	-424.244617	-424.237427	-424.236483	-424.275819	30.379	
O	 0.1358334118	 1.4082504209	-0.104525925	-0.44906
C	 0.0349114565	-0.0004606515	-0.0222319001	 0.162001
C	 0.7204966074	-0.6133972054	 1.2435094964	-0.248645
C	-0.41028155	-1.3360259596	 2.004504422	-0.016197
C	-1.2894415788	-1.8406243324	 0.8424569818	-0.231454
C	-1.4328996372	-0.534708613	 0.0417635528	-0.05578
C	-2.2983374295	 0.4321872103	 0.8597996488	-0.09471
O	-1.6451737132	 0.7892881748	 2.07940734	-0.269157
C	-1.2322149103	-0.3429855368	 2.842180039	-0.081881
H	-0.1959423702	 1.747973931	 0.7371609613	 0.286464
H	 0.5182190711	-0.3703286606	-0.9310024404	 0.082624
H	 1.4978872191	-1.3280097985	 0.9559997627	 0.09681
H	 1.204685068	 0.1738251384	 1.8289495722	 0.099504
H	-0.0475995474	-2.1358227183	 2.6575949533	 0.063909
H	-0.7709789236	-2.6140711011	 0.2646549959	 0.094272
H	-2.2505186304	-2.2534345675	 1.1677835437	 0.090793
H	-1.8741621245	-0.667400334	-0.9501785439	 0.065582
H	-2.4577463294	 1.3715372905	 0.3253177534	 0.118227
H	-3.2811073251	-0.0187913231	 1.0694368711	 0.091121
H	-2.1135713391	-0.8503988321	 3.2676752434	 0.088003
H	-0.6410280553	 0.060876438	 3.6701481217	 0.107576
123.8516	246.6925	308.2994	352.7084	399.3225	423.7569	472.0867	488.1174	554.8928	587.2478	749.1486	781.8749	809.7689	827.225	848.367	900.3882	925.6897	948.4874	964.4672	988.8961	1001.1074	1044.8398	1070.2018	1082.2204	1104.4656	1130.6276	1158.6266	1189.1713	1209.8854	1222.8445	1274.8713	1301.0003	1304.097	1308.8397	1328.1639	1349.7331	1356.5197	1360.4626	1389.454	1414.2093	1452.1158	1481.4853	1493.73	1498.8313	1511.6543	2972.3351	2983.6079	3033.4836	3045.5622	3060.3746	3063.4433	3074.6221	3076.8195	3078.602	3095.8578	3101.6677	3756.2501
OC1CC2CC1COC2	O[C@H]1C[C@@H]2C[C@H]1COC2	
InChI=1S/C7H12O2/c8-7-2-5-1-6(7)4-9-3-5/h5-8H,1-4H2	InChI=1S/C7H12O2/c8-7-2-5-1-6(7)4-9-3-5/h5-8H,1-4H2/t5-,6-,7-/m0/s1
