21
gdb 109607	1.93193	1.33541	0.99959	1.1042	86.81	-0.2332	0.0345	0.2677	1326.5822	0.178814	-387.047383	-387.03664	-387.035696	-387.082954	39.507	
C	-0.0813890273	 1.5034733682	 0.3276156872	-0.377315
C	-0.0255310243	 0.0640628701	-0.1979955294	-0.195962
C	-1.3777635993	-0.6190195007	-0.1388487258	-0.058734
C	-1.5592145792	-2.1213860136	-0.1022168385	-0.104127
C	-0.3993168055	-3.092419872	-0.1077067911	-0.421083
C	-1.8545770875	-1.2776279797	 1.1432068096	 0.172246
O	-0.9044622818	-1.2820982265	 2.1797786443	-0.456314
C	-3.2188094775	-1.1211134195	 1.5730953788	 0.29698
C	-4.3576016816	-1.021451906	 1.9499454484	-0.454078
H	 0.8938661059	 1.9926442322	 0.2410305923	 0.107752
H	-0.8068784964	 2.1036140845	-0.2328593096	 0.110548
H	-0.3767259576	 1.5174539452	 1.3808743692	 0.134429
H	 0.3212182944	 0.0615990759	-1.2396276644	 0.093314
H	 0.7084744905	-0.502696305	 0.3789392	 0.114068
H	-2.1592602321	-0.0809461366	-0.6697381386	 0.093966
H	-2.447587094	-2.4823114308	-0.6129386527	 0.093101
H	 0.3856411039	-2.7877164583	 0.5870053082	 0.133046
H	-0.7347319098	-4.0930391711	 0.1861788492	 0.115834
H	 0.0416707192	-3.1736895836	-1.1071094408	 0.120655
H	-1.1254682867	-2.0061631009	 2.7762591403	 0.288416
H	-5.3615484631	-0.9168912618	 2.2793292834	 0.193259
65.1288	98.8308	140.9331	144.1745	171.6803	196.9756	241.3946	286.0637	300.1842	310.9056	425.8384	462.467	536.235	552.3796	565.1361	590.9906	671.8428	698.6666	773.0545	794.0623	838.699	956.0514	977.3739	1018.3184	1052.9001	1060.8081	1076.3987	1124.0401	1139.8885	1182.2454	1232.9542	1252.9758	1291.7583	1330.5676	1352.1934	1383.034	1408.9491	1412.2599	1450.3613	1480.8374	1497.2413	1499.5415	1502.9772	1507.4484	2226.6536	3024.484	3033.2495	3034.9133	3089.1486	3089.5213	3106.3629	3115.3029	3126.3414	3136.0211	3150.802	3502.3453	3798.4121
CCC1C(C)C1(O)C#C	CC[C@H]1[C@@H](C)[C@]1(O)C#C	
InChI=1S/C8H12O/c1-4-7-6(3)8(7,9)5-2/h2,6-7,9H,4H2,1,3H3	InChI=1S/C8H12O/c1-4-7-6(3)8(7,9)5-2/h2,6-7,9H,4H2,1,3H3/t6-,7+,8-/m1/s1
