15
gdb 30478	3.83421	1.20075	0.91958	3.223	73.67	-0.2418	-0.0436	0.1982	1209.1196	0.113445	-454.002177	-453.993991	-453.993047	-454.036113	29.115	
C	 0.2016156837	 1.4715460001	 0.1873008891	-0.332131
N	 0.2677419655	 0.026587501	 0.0940083911	-0.3443
C	 0.4454180408	-0.5518191626	-1.0069877705	 0.511786
N	 0.5095267068	-1.9324385917	-1.1022485568	-0.426019
C	 0.700024214	-2.7028994062	-2.2476669197	 0.438544
O	 0.7367908753	-3.9135098777	-2.1959748249	-0.366376
C	 0.8419715636	-1.8890784092	-3.457433806	-0.286023
C	 0.7804080015	-0.5585795106	-3.3648185912	 0.090357
O	 0.5916030224	 0.1228373524	-2.2088397752	-0.232866
H	 0.9805694195	 1.8229514535	 0.873464036	 0.130627
H	 0.3176085927	 1.9953768651	-0.7677114423	 0.122159
H	-0.7601074601	 1.7591469677	 0.6270652639	 0.13063
H	 0.4035175093	-2.4292155907	-0.2286412162	 0.276142
H	 0.9943745796	-2.3860496919	-4.4040204998	 0.137099
H	 0.8741354954	 0.1247021108	-4.2005391672	 0.15037
38.9023	81.63	147.1119	216.6585	239.9122	375.3595	399.4008	489.6546	521.6655	630.6754	658.083	705.1371	743.8993	753.5754	829.6172	889.5349	951.655	970.3987	1045.0939	1073.9041	1137.4868	1161.9859	1232.894	1282.385	1357.4172	1417.2957	1428.5932	1448.3991	1495.4414	1502.695	1680.2801	1806.0324	1813.246	3019.3005	3076.2887	3089.4348	3212.2816	3253.8604	3619.4682
CN=C1NC(=O)C=CO1	CN=c1[nH]c(=O)cco1	
InChI=1S/C5H6N2O2/c1-6-5-7-4(8)2-3-9-5/h2-3H,1H3,(H,6,7,8)	InChI=1S/C5H6N2O2/c1-6-5-7-4(8)2-3-9-5/h2-3H,1H3,(H,6,7,8)
