16
gdb 133575	2.78366	1.13457	1.0784	1.4337	57.99	-0.2677	0.0698	0.3374	1149.7184	0.118826	-569.385648	-569.376734	-569.37579	-569.419588	33.151	
C	-0.0150763153	 1.5619762306	-0.2430755441	-0.469096
C	 0.0333600726	 0.0609564308	-0.0720658702	 0.4099
O	-1.0849946123	-0.609906525	-0.5895292217	-0.459124
C	 1.3048482059	-0.7103944787	-0.2356556157	-0.327981
C	 0.6670704345	-0.6084416937	 1.1369464566	-0.249176
C	 1.3325357203	 0.13988039	 2.2500599176	 0.282172
F	 2.2060137027	 1.0674687017	 1.8134591451	-0.084947
F	 0.4353414934	 0.7788189727	 3.0243351793	-0.083939
F	 2.0153009904	-0.6939456074	 3.0524713752	-0.074315
H	 0.8965146936	 2.0426974716	 0.1128886583	 0.139075
H	-0.1530668426	 1.8026233247	-1.3014278232	 0.129946
H	-0.856741815	 1.9882537455	 0.3162324454	 0.117466
H	-1.8654416718	-0.2882643236	-0.1237309357	 0.283485
H	 1.2463626033	-1.6694876152	-0.7356140182	 0.132609
H	 2.2180465472	-0.1507125742	-0.3993732751	 0.133881
H	 0.1438573331	-1.4870974896	 1.4970919463	 0.120044
49.8738	137.464	168.8114	232.1279	288.6417	302.2256	349.7445	358.8109	408.3073	427.9202	489.3751	546.252	581.6353	661.5217	734.0658	795.238	894.3154	927.3175	962.214	980.8813	1051.1997	1077.5464	1100.938	1106.0824	1163.8223	1179.4468	1251.1075	1278.4508	1292.8003	1365.0804	1418.8302	1433.1309	1481.7012	1494.0778	1513.4726	3034.1458	3098.2255	3149.5383	3152.7919	3182.8897	3244.1262	3792.3446
CC1(O)CC1C(F)(F)F	C[C@@]1(O)C[C@H]1C(F)(F)F	
InChI=1S/C5H7F3O/c1-4(9)2-3(4)5(6,7)8/h3,9H,2H2,1H3	InChI=1S/C5H7F3O/c1-4(9)2-3(4)5(6,7)8/h3,9H,2H2,1H3/t3-,4-/m1/s1
