18
gdb 59330	3.56823	1.07623	0.86614	4.5134	74.98	-0.2422	-0.0256	0.2166	1307.7494	0.147414	-439.132487	-439.123592	-439.122648	-439.166203	33.254	
C	-0.0449247476	 1.5800251531	-0.0780036234	-0.418674
C	 0.0271929783	 0.0546259234	-0.0677444355	 0.131214
O	 0.8215918451	-0.4380591903	-1.1413375126	-0.436084
C	 0.6967524099	-0.5002288247	 1.2062165803	-0.027087
N	-0.0200859453	-0.1718239107	 2.4197194173	-0.341825
C	-0.3220143797	-1.2858440543	 3.1891276604	 0.399377
O	-0.8222032777	-1.2769375378	 4.2927815301	-0.382147
C	 0.1083670457	-2.4496036594	 2.3580820622	-0.204725
C	 0.6988829088	-2.0098294075	 1.2465523834	-0.064533
H	 0.9573497618	 2.0141156394	 0.0001129542	 0.125647
H	-0.4980631438	 1.9351612333	-1.0104070146	 0.11326
H	-0.6620952782	 1.9518406672	 0.7452669603	 0.125352
H	-0.99180105	-0.3602019916	-0.1128937472	 0.080335
H	 0.4586870141	-0.0992227581	-1.9652353125	 0.287995
H	 1.7305134074	-0.1198278089	 1.2227080519	 0.103175
H	-0.0015731775	 0.7405880349	 2.8439063981	 0.251284
H	-0.0517770388	-3.4699738556	 2.675792674	 0.122802
H	 1.1149440175	-2.5881374024	 0.4339047334	 0.134633
75.7904	99.0493	168.6168	244.588	251.6926	264.5027	338.2972	396.8443	433.3325	466.5582	497.8113	511.2253	695.2587	707.4222	808.007	838.9411	876.6414	918.0691	926.1548	981.2665	999.8331	1073.011	1078.5635	1104.9473	1126.9045	1132.4028	1219.5735	1236.6269	1293.0815	1320.6351	1357.5704	1372.1455	1398.6345	1407.0617	1421.0431	1493.7092	1499.497	1653.3194	1824.8388	2977.1153	2992.8596	3031.0215	3097.7953	3116.7769	3233.4341	3255.8621	3660.7262	3828.0001
CC(O)C1NC(=O)C=C1	C[C@@H](O)[C@H]1NC(=O)C=C1	
InChI=1S/C6H9NO2/c1-4(8)5-2-3-6(9)7-5/h2-5,8H,1H3,(H,7,9)	InChI=1S/C6H9NO2/c1-4(8)5-2-3-6(9)7-5/h2-5,8H,1H3,(H,7,9)/t4-,5+/m1/s1
