15
gdb 18335	3.42493	2.30478	1.58756	5.0866	60.48	-0.2318	0.0128	0.2446	791.9777	0.12159	-399.815409	-399.808906	-399.807961	-399.846416	24.269	
O	 0.0112133731	 0.0514229583	 0.2829845343	-0.371285
C	 0.0079437989	 1.2487458603	 0.1102666422	 0.399626
N	-1.0790654983	 2.0797831992	 0.2026160373	-0.310125
C	-0.8801360156	 3.4579163048	-0.2145058218	-0.186032
C	 0.6511789013	 3.5775228351	-0.3222917063	-0.085882
C	 1.43604413	 3.8105020509	 0.9871123417	-0.077197
O	 1.9703190181	 2.467855133	 0.9685658349	-0.281526
C	 1.2132020765	 2.144685138	-0.2186423824	 0.01795
H	-1.9911642997	 1.6906572921	 0.3843810486	 0.253701
H	-1.3640877449	 3.6592891851	-1.1796335855	 0.112834
H	-1.2939698401	 4.1635671468	 0.5161922338	 0.115608
H	 0.9681026678	 4.1882102721	-1.1660227212	 0.093565
H	 2.2328104247	 4.5610121922	 0.9366859374	 0.110418
H	 0.8195149789	 3.9988963192	 1.8755404188	 0.107221
H	 1.8364133491	 1.7184363027	-1.0088099217	 0.101124
94.0759	133.3512	249.6279	348.073	450.1996	546.8504	595.2252	708.948	733.8692	790.8318	859.627	883.9478	917.1097	957.8445	996.3824	1031.5012	1038.5292	1102.5464	1125.7304	1163.4942	1205.1347	1240.2574	1251.677	1273.4896	1310.3694	1313.925	1349.1574	1378.4416	1453.6882	1520.1771	1535.2153	1835.378	3007.5397	3015.3806	3044.2903	3064.3093	3083.8642	3126.0902	3635.5268
O=C1NCC2COC12	O=C1NC[C@H]2CO[C@@H]12	
InChI=1S/C5H7NO2/c7-5-4-3(1-6-5)2-8-4/h3-4H,1-2H2,(H,6,7)	InChI=1S/C5H7NO2/c7-5-4-3(1-6-5)2-8-4/h3-4H,1-2H2,(H,6,7)/t3-,4+/m0/s1
