22
gdb 118419	2.24414	1.13231	0.85326	6.3023	78.98	-0.2409	0.0347	0.2756	1440.5223	0.19449	-441.529631	-441.519482	-441.518538	-441.564955	37.266	
C	 0.1893285241	 1.7208865631	-0.4398536275	-0.394741
C	 0.2541672114	 0.2384125505	-0.0616374429	-0.173564
C	 0.5315292362	-0.6992719457	-1.2481035571	-0.111236
C	 0.888529889	-2.1416137938	-0.7810662395	-0.213602
C	 2.035351562	-2.7968243309	-1.5590262293	-0.169234
N	 1.6870637864	-3.0050630151	-2.9784449489	-0.506754
H	 2.520052698	-3.1504476539	-3.5390193373	 0.24788
H	 1.1171561485	-3.8405265258	-3.0819635992	 0.251456
H	 0.437279413	-1.8153372227	-3.3807424482	 0.30966
C	-0.6533087021	-0.7122180036	-2.2326388002	 0.406185
O	-1.7159720431	-0.1936877236	-1.9945291042	-0.336425
O	-0.4394583057	-1.3467161573	-3.39075547	-0.389598
H	 1.124751448	 2.0515221279	-0.9071970159	 0.101038
H	-0.6299005846	 1.9073065078	-1.1366402631	 0.14911
H	 0.0283233332	 2.3399707023	 0.4482690856	 0.10809
H	 1.0476200911	 0.0889850125	 0.6814913115	 0.079892
H	-0.6879347047	-0.0617516809	 0.4092652616	 0.115371
H	 1.396602421	-0.3055716456	-1.8020553244	 0.085003
H	 1.1894850145	-2.1035298352	 0.2715084854	 0.109447
H	 0.0024137993	-2.7881980709	-0.8145712091	 0.113571
H	 2.9084630796	-2.1353280926	-1.5308885706	 0.118008
H	 2.3285640048	-3.7334161064	-1.0637161669	 0.100445
73.9381	76.4438	121.4913	189.3431	202.3905	231.0935	269.4725	285.4005	322.4813	332.5829	414.6349	464.875	513.7046	619.2673	728.6128	773.8966	838.0977	852.6173	899.2203	915.0729	961.6058	980.5076	1021.8067	1035.5583	1058.3341	1098.9707	1119.0039	1143.937	1159.4087	1229.9572	1276.5962	1292.8199	1300.6363	1339.903	1368.4713	1378.6345	1390.411	1408.2361	1417.7835	1474.9293	1479.1003	1488.2589	1496.5411	1504.2772	1515.2092	1653.1846	1839.6711	2997.4597	2999.4654	3022.4583	3030.1554	3031.7695	3062.7763	3074.0701	3077.5851	3096.239	3138.3009	3209.5741	3496.2447	3576.7618
CCC(CC[NH3+])C([O-])=O	CC[C@@H](CCN)C(=O)O	
InChI=1S/C6H13NO2/c1-2-5(3-4-7)6(8)9/h5H,2-4,7H2,1H3,(H,8,9)	InChI=1S/C6H13NO2/c1-2-5(3-4-7)6(8)9/h5H,2-4,7H2,1H3,(H,8,9)/t5-/m0/s1
