18
gdb 126617	3.45068	1.0407	0.85383	3.6192	74.81	-0.2221	0.003	0.2251	1364.0701	0.148036	-435.26513	-435.256312	-435.255368	-435.299728	31.747	
C	 0.0067508498	 1.5108792698	-0.0595565593	-0.382633
C	 0.0268978041	-0.0188005794	-0.0265482924	-0.177858
C	 0.6811884816	-0.5528674856	 1.2519822882	-0.155894
N	 0.7473612276	-2.005709337	 1.2939887579	-0.094128
C	-0.0768409844	-2.8902750974	 1.9226076712	 0.061567
N	 0.2459843749	-4.1256805748	 1.7472644853	-0.145177
O	 1.4022069555	-4.064810836	 0.9090230012	-0.249027
C	 1.7062031123	-2.760157332	 0.6302195654	 0.491419
N	 2.6506921586	-2.2950256396	-0.0744508926	-0.61533
H	 1.0214150678	 1.9209071797	-0.0173451741	 0.127429
H	-0.4604861388	 1.8751371057	-0.9785627373	 0.123973
H	-0.5554702009	 1.9243430836	 0.7854942286	 0.114711
H	-0.9940854909	-0.413100824	-0.1000349293	 0.100072
H	 0.5853545712	-0.4092766461	-0.8830710845	 0.139791
H	 1.7094712155	-0.1859970454	 1.3275040417	 0.148541
H	 0.13699824	-0.2177567258	 2.1412382065	 0.115326
H	-0.9226029501	-2.5872209046	 2.5223509091	 0.162891
H	 3.2313052961	-3.0418692412	-0.4467532053	 0.234327
48.5752	85.4901	89.2342	218.4785	242.4783	277.0988	285.5366	370.0091	489.1022	595.9408	706.7458	734.6533	748.9802	752.8585	785.4869	870.8082	884.5519	890.7221	903.2279	939.4543	1034.9938	1044.8251	1121.2196	1130.2326	1216.576	1232.029	1259.4353	1319.6656	1334.2644	1379.0266	1407.5974	1418.428	1442.5657	1475.7134	1492.544	1502.7636	1508.7655	1652.7883	1770.7526	3032.558	3034.2879	3049.6288	3078.972	3096.824	3111.4274	3113.8091	3258.0468	3541.2515
CCCN1C=NOC1=N	CCCN1C=NO[C@@H]1[NH]	
InChI=1S/C5H9N3O/c1-2-3-8-4-7-9-5(8)6/h4,6H,2-3H2,1H3	InChI=1S/C5H10N3O/c1-2-3-8-4-7-9-5(8)6/h4-6H,2-3H2,1H3/t5-/m1/s1
