19
gdb 107803	2.62096	1.61543	1.30578	2.5362	73.85	-0.2552	0.0626	0.3177	1028.7766	0.159922	-422.969383	-422.961385	-422.960441	-423.001646	31.896	
O	-0.035412746	 1.4081368866	 0.0364864705	-0.427978
C	 0.0598025871	-0.0108148029	 0.050053643	-0.18593
C	-1.3155822643	-0.6210537372	 0.0398050041	 0.271961
C	-2.3053462517	-0.3890049054	 1.2161554704	-0.281659
C	-3.0088416857	-1.6590790357	 0.7441061439	-0.073322
C	-2.9713621113	-1.6654261048	-0.791311058	-0.13219
C	-1.7771585984	-2.1383930515	 0.0197413294	-0.157695
C	-2.1932599461	-0.4380228716	-1.2350133153	 0.111437
O	-2.8002304199	 0.8144638192	-1.4865616738	-0.447932
H	-0.6973880331	 1.6434810758	-0.625844539	 0.2913
H	 0.6440403328	-0.383453629	-0.8088273777	 0.083744
H	 0.6124017566	-0.2760366426	 0.958791859	 0.102871
H	-1.8070013172	-0.5404751426	 2.1775490931	 0.106518
H	-2.8575517649	 0.5587342899	 1.2497548929	 0.079898
H	-3.7343673062	-2.2605279901	 1.2764929631	 0.090932
H	-3.6522065689	-2.2746485464	-1.3719083833	 0.090366
H	-1.2484243853	-3.0792828101	 0.0107412527	 0.098619
H	-1.6007741522	-0.6606113121	-2.1282141208	 0.091445
H	-3.4533036054	 0.9763860305	-0.7977557042	 0.287616
104.0866	136.5742	226.5738	294.4262	304.7487	348.0519	381.5771	450.3068	506.1397	586.9881	677.34	719.05	765.5115	798.3142	820.4038	890.0639	924.7096	931.9144	950.6551	988.6946	998.2136	1018.1122	1038.4817	1047.4649	1070.5255	1108.361	1127.7053	1152.3334	1166.5157	1200.5519	1235.4594	1251.1762	1263.9902	1320.1923	1334.3414	1362.9658	1373.8417	1432.8783	1447.0712	1508.2155	1514.9168	2957.3981	3020.6136	3055.0328	3068.2159	3093.8925	3194.0641	3201.7536	3236.2918	3772.6807	3818.0864
OCC12CC3C(C13)C2O	OC[C@]12C[C@H]3[C@H]([C@@H]13)[C@H]2O	
InChI=1S/C7H10O2/c8-2-7-1-3-4(5(3)7)6(7)9/h3-6,8-9H,1-2H2	InChI=1S/C7H10O2/c8-2-7-1-3-4(5(3)7)6(7)9/h3-6,8-9H,1-2H2/t3-,4+,5-,6+,7+/m0/s1
