14
gdb 25534	6.31587	0.85325	0.76915	3.8494	67.87	-0.2018	-0.0029	0.1989	1381.3673	0.101399	-470.04774	-470.039484	-470.03854	-470.081392	29.519	
N	-0.2259430535	 1.3572629996	 0.0640167556	-0.418391
C	-0.3663198943	 0.1637325422	-0.2996857937	 0.108268
O	-0.1870562983	-0.8341434241	 0.6209159271	-0.208835
C	-0.5759968178	-2.0834923168	 0.269860288	 0.393394
C	-1.706291473	-2.5638551815	-0.2873192183	-0.219393
N	-1.5340519559	-3.9517141492	-0.3772610362	-0.337345
C	-0.3074676044	-4.3536253333	 0.1302818379	 0.457552
O	 0.153876201	-5.4721080385	 0.2094545124	-0.423575
N	 0.2759624254	-3.1466082242	 0.5253665265	-0.406145
H	-0.3552520436	 1.9837651398	-0.727727028	 0.242259
H	-0.6167942165	-0.2291247131	-1.2915078622	 0.109761
H	-2.6087090991	-2.062694789	-0.5865939582	 0.148243
H	-2.1936888909	-4.6108660574	-0.7497295126	 0.273518
H	 1.1885635909	-3.0836403744	 0.9416317017	 0.280689
48.5357	110.3351	148.0676	175.6523	303.0279	353.2975	388.014	470.1839	476.3611	544.9308	631.8027	684.7566	735.6427	755.9708	796.1045	831.7614	971.7285	995.2441	1049.6643	1057.988	1091.0769	1184.8108	1241.8555	1286.4713	1357.9473	1386.857	1396.4501	1449.3825	1695.122	1752.8124	1854.9267	3063.816	3298.8286	3525.1606	3693.9217	3700.6404
N=COC1=CNC(=O)N1	[NH][CH]Oc1c[nH]c(=O)[nH]1	
InChI=1S/C4H5N3O2/c5-2-9-3-1-6-4(8)7-3/h1-2,5H,(H2,6,7,8)	InChI=1S/C4H5N3O2/c5-2-9-3-1-6-4(8)7-3/h1-2,5H,(H2,6,7,8)
