20
gdb 97201	2.57481	1.34519	0.93225	1.5906	79.23	-0.245	0.0194	0.2645	1289.5666	0.17056	-440.305884	-440.296679	-440.295735	-440.340149	33.784	
C	-0.1633593247	 1.453600945	-0.0335630907	-0.328513
N	-0.1087958801	 0.0018507685	-0.0576289847	-0.284743
C	 0.5799592257	-0.5922798538	-0.9325935985	 0.383231
C	 0.6198988713	-2.1000614205	-1.0205118043	-0.278256
C	 1.9983442149	-2.5859262263	-1.4690458886	-0.103852
O	 2.3901036247	-1.8733452496	-2.636408755	-0.234518
C	 2.5019301254	-0.5092317603	-2.3770931294	 0.21314
C	 2.8992024084	 0.2087141948	-3.6461953223	-0.406116
O	 1.2607940548	 0.0657379087	-1.9292543315	-0.272347
H	 0.6102508376	 1.9444358838	-0.6338829899	 0.11619
H	-1.1434020941	 1.7841741789	-0.3992300388	 0.12638
H	-0.0839772771	 1.7908350358	 1.0051814476	 0.120696
H	 0.3264860203	-2.5201451525	-0.0571344355	 0.128104
H	-0.1168801094	-2.4147235362	-1.7699096668	 0.130815
H	 2.7442021988	-2.4366141963	-0.671777868	 0.100468
H	 1.9876899039	-3.6452972514	-1.7344048549	 0.117602
H	 3.2388034013	-0.3477959278	-1.5701422192	 0.071438
H	 2.1477282027	 0.0274167086	-4.4183386921	 0.138322
H	 2.9702074259	 1.2825851357	-3.4612251432	 0.131607
H	 3.8661170397	-0.162195885	-3.9934928944	 0.130351
74.5607	99.4675	121.7439	204.9396	214.5544	247.2127	312.6614	334.1851	420.824	458.2395	533.9367	557.4353	609.319	709.0513	781.3655	862.0714	916.0845	932.1186	972.5856	1021.9923	1069.765	1082.6506	1114.6818	1122.7005	1135.1214	1163.8647	1173.2636	1232.8969	1257.3421	1286.6983	1353.2937	1385.8388	1392.9184	1410.6451	1434.2304	1435.4199	1461.1466	1482.2615	1487.4177	1491.243	1497.1986	1507.3282	1775.3503	2944.2512	2981.3242	3017.8537	3040.1068	3059.6623	3075.142	3093.4836	3104.7653	3127.0838	3141.9236	3144.162
CN=C1CCOC(C)O1	CN=C1CCO[C@@H](C)O1	
InChI=1S/C6H11NO2/c1-5-8-4-3-6(7-2)9-5/h5H,3-4H2,1-2H3	InChI=1S/C6H11NO2/c1-5-8-4-3-6(7-2)9-5/h5H,3-4H2,1-2H3/t5-/m1/s1
