20
gdb 102883	3.12481	0.7488	0.63185	4.1501	86.11	-0.2767	0.0295	0.3062	1757.0492	0.168723	-366.00644	-365.995943	-365.994999	-366.042619	37.322	
C	 0.7915974049	-0.2516907024	-1.339001062	-0.392275
C	-0.0202394938	-0.090892409	-0.0529647833	-0.180764
C	 0.7031106367	-0.6148253396	 1.2106212009	-0.153327
C	-0.1133318688	-0.2926606057	 2.4825223389	-0.19112
C	 0.6070934998	-0.7159409218	 3.7766897792	-0.3513
C	-0.1693701504	-0.4007518975	 4.9728768706	 0.257769
N	-0.7965403353	-0.143361255	 5.9087846775	-0.306082
C	 0.9827671824	-2.0476650379	 1.1144281629	 0.348253
C	 1.1866802861	-3.2311766247	 1.045983387	-0.487083
H	 1.0245825889	-1.3033176598	-1.5286846208	 0.134251
H	 0.235850625	 0.1333906574	-2.1988813264	 0.118213
H	 1.7385198652	 0.2965917486	-1.2815843722	 0.115342
H	-0.2524561647	 0.9683141685	 0.1103535777	 0.1009
H	-0.9796884993	-0.6128817275	-0.1473584254	 0.110875
H	 1.6659263689	-0.0866781971	 1.2857192291	 0.105757
H	-0.3083093642	 0.7841550872	 2.5105251483	 0.120637
H	-1.0843775076	-0.7952173262	 2.4285143425	 0.129982
H	 0.806887112	-1.7925618286	 3.7564783986	 0.167129
H	 1.5798137823	-0.2152644855	 3.8524677498	 0.149125
H	 1.378449262	-4.2737559733	 0.9781990571	 0.203717
59.3387	86.5374	104.7133	115.2366	161.5328	213.7945	218.0118	261.723	338.087	377.025	401.1456	508.4773	543.2291	604.4534	634.8744	648.7023	755.2373	773.0012	851.1736	923.0532	956.7562	1008.9261	1013.0214	1051.9741	1084.6537	1122.8291	1138.223	1195.0592	1264.902	1289.224	1310.6685	1324.7954	1365.9136	1375.1566	1386.0392	1416.2382	1469.2778	1483.854	1493.6848	1498.3035	1507.8102	2228.8889	2362.4562	2991.1681	3030.6924	3037.1484	3041.1683	3053.133	3068.9283	3081.9559	3103.5348	3105.2705	3119.0029	3500.7799
CCC(CCC#N)C#C	CC[C@@H](CCC#N)C#C	
InChI=1S/C8H11N/c1-3-8(4-2)6-5-7-9/h1,8H,4-6H2,2H3	InChI=1S/C8H11N/c1-3-8(4-2)6-5-7-9/h1,8H,4-6H2,2H3/t8-/m0/s1
