16
gdb 12521	2.89317	2.33825	1.69637	1.6141	75.	-0.2258	-0.0435	0.1823	814.5466	0.13268	-346.615612	-346.608675	-346.607731	-346.646592	27.024	
O	 0.2472821083	 1.298482822	-0.3738984923	-0.431416
C	 0.0539374525	-0.0838603498	-0.054532804	 0.033469
C	 0.7523800276	-0.4810170164	 1.2197393732	-0.109006
C	 0.4040581497	-0.055027316	 2.4533643463	-0.057928
C	-0.7832781488	 0.6659488607	 2.8250905898	-0.110337
C	-1.9687815785	 0.6770986818	 2.1556542355	-0.110336
C	-2.2738485578	-0.0298397179	 0.9411885362	-0.057928
C	-1.4034750618	-0.4607379748	 0.0023581698	-0.109006
H	-0.1511022775	 1.8091575192	 0.3400980242	 0.286332
H	 0.5206937607	-0.6121317501	-0.8899100081	 0.089478
H	 1.6466463558	-1.0901591084	 1.1179592183	 0.098545
H	 1.0856069519	-0.282147288	 3.270957783	 0.095401
H	-0.7552820613	 1.1637754428	 3.791386579	 0.094394
H	-2.8035381407	 1.1830387016	 2.6347671715	 0.094394
H	-3.3290766625	-0.2406239417	 0.7780479591	 0.095401
H	-1.7867650677	-1.0578612351	-0.8208418617	 0.098545
85.1585	232.7094	284.4024	311.3677	390.0257	418.9364	473.5421	526.5371	657.3841	720.4337	791.4762	803.1959	832.9001	895.6189	900.5817	944.2966	969.8828	986.4254	995.7829	1015.0851	1044.3338	1104.7577	1226.7352	1247.7056	1248.0539	1291.1226	1362.0125	1401.4183	1426.1678	1453.1347	1484.2785	1565.1119	1670.629	1671.4421	3075.1082	3135.21	3138.7914	3150.1076	3164.7504	3167.3098	3173.363	3802.5868
OC1C=CC=CC=C1	O[C@H]1C=CC=CC=C1	
InChI=1S/C7H8O/c8-7-5-3-1-2-4-6-7/h1-8H	InChI=1S/C7H8O/c8-7-5-3-1-2-4-6-7/h1-8H
