18
gdb 6912	4.89426	1.06984	0.99176	4.8329	73.22	-0.2584	0.0379	0.2963	1210.4532	0.152796	-343.985722	-343.976831	-343.975887	-344.019402	32.143	
C	-0.0054943538	 1.534755776	-0.132524394	-0.439421
C	-0.0320794313	 0.0302327169	 0.052881	 0.313991
C	-1.223840574	-0.6520708989	-0.5922415076	-0.457115
N	 1.2818748924	-0.6378205254	-0.0306407581	-0.355487
C	 0.5642081174	-0.6303379538	 1.2504456236	-0.048707
C	 1.2249463526	 0.118314333	 2.4000691552	-0.347999
C	 2.1474198508	-0.7401726857	 3.1443842592	 0.260189
N	 2.8607287299	-1.4367218609	 3.7284611938	-0.305771
H	 0.9131311624	 1.9768243626	 0.2567426309	 0.12747
H	-0.0604589974	 1.7821494635	-1.1983432991	 0.124315
H	-0.8614291659	 2.0064986592	 0.3628791276	 0.11772
H	-1.2190430258	-0.4901645661	-1.6763814039	 0.126486
H	-1.2155543701	-1.7313430644	-0.409520219	 0.116667
H	-2.1670031619	-0.2521083451	-0.2040856788	 0.12663
H	 1.206094566	-1.5464764468	-0.4807648729	 0.232902
H	 0.0881039249	-1.5575396137	 1.5650720903	 0.098419
H	 1.781344277	 0.9788814896	 2.0205772546	 0.159246
H	 0.4658613067	 0.4953467801	 3.0959485682	 0.150464
49.8926	111.0808	175.398	200.464	225.7593	264.0371	358.0777	381.6946	390.5351	447.841	465.7371	553.571	704.0455	831.4547	856.4095	939.6258	957.1947	965.3528	986.5138	992.8683	1052.5013	1073.2732	1126.4081	1155.8383	1207.824	1262.0763	1307.2876	1319.6904	1355.7598	1413.4392	1424.546	1448.5109	1461.2479	1478.0913	1490.0434	1500.206	1514.4162	2362.5993	3025.6752	3035.6967	3046.6843	3089.4714	3094.6916	3102.0727	3104.5466	3123.2146	3134.3263	3501.807
CC1(C)NC1CC#N	CC1(C)N[C@H]1CC#N	
InChI=1S/C6H10N2/c1-6(2)5(8-6)3-4-7/h5,8H,3H2,1-2H3	InChI=1S/C6H10N2/c1-6(2)5(8-6)3-4-7/h5,8H,3H2,1-2H3/t5-/m0/s1
