17
gdb 84167	2.80493	1.41308	1.08452	4.6721	71.02	-0.2387	0.0071	0.2459	1121.9774	0.136839	-455.192988	-455.184447	-455.183503	-455.226345	31.822	
C	 0.1531937687	 1.5033595306	 0.0083339403	-0.391105
C	 0.0522081369	-0.034656545	-0.0129569759	-0.114648
N	 0.594159459	-0.5776634806	-1.2513315437	-0.280057
C	 1.8063214006	-0.9642922332	-1.2299402387	 0.336495
N	 2.4613765343	-1.3353004434	-2.3851978879	-0.548286
C	 2.6662843867	-0.9520040171	 0.0141241926	-0.152884
O	 1.9067077055	-1.1101590447	 1.2073945914	-0.223612
C	 0.6424645442	-0.6115998464	 1.2706824987	 0.409607
O	 0.0470754168	-0.6597582777	 2.311068514	-0.331146
H	 1.197356275	 1.8334091111	 0.0191610253	 0.115723
H	-0.3193386812	 1.9067641738	-0.8906176469	 0.132954
H	-0.3491888943	 1.9049285673	 0.891922992	 0.140797
H	-1.0097859289	-0.2952349045	 0.0295648976	 0.118679
H	 1.8510855689	-1.4270743376	-3.1858349139	 0.261106
H	 3.1526298497	-2.0661412223	-2.3095697467	 0.254366
H	 3.3923626178	-1.7712487351	 0.0095314134	 0.128154
H	 3.2356958903	-0.0133608954	 0.0546549285	 0.143857
59.2888	140.3388	166.0101	229.3925	247.2515	356.3969	395.3729	420.4922	444.206	472.5783	537.3959	592.5196	650.3361	714.7285	749.7998	784.4808	888.529	923.0828	1004.7231	1020.746	1075.1412	1095.7592	1135.0524	1209.9381	1230.7171	1260.4146	1326.1937	1339.143	1359.443	1396.6875	1445.5502	1488.2345	1494.2131	1496.7248	1631.9021	1751.1061	1851.0611	3017.5741	3039.9976	3062.5668	3076.0377	3114.6816	3134.2795	3560.7915	3674.3643
CC1N=C(N)COC1=O	C[C@H]1N=C(N)COC1=O	
InChI=1S/C5H8N2O2/c1-3-5(8)9-2-4(6)7-3/h3H,2H2,1H3,(H2,6,7)	InChI=1S/C5H8N2O2/c1-3-5(8)9-2-4(6)7-3/h3H,2H2,1H3,(H2,6,7)/t3-/m1/s1
