15
gdb 129400	5.01574	1.00192	0.84334	8.7077	67.27	-0.269	0.0029	0.2719	1277.2876	0.114543	-446.305621	-446.297576	-446.296632	-446.339435	29.09	
N	 0.0007213803	 1.1135566195	-0.5853357666	-0.539466
C	 0.1994619778	-0.0073765275	 0.000922795	 0.407039
N	 1.1829935368	-0.2735211018	 0.9204306547	-0.539651
H	 1.1307296779	-1.111929521	 1.4752321351	 0.265532
H	 1.6676852347	 0.4996559501	 1.3471386896	 0.259037
C	-0.6782282981	-1.2130670611	-0.2946224638	-0.392409
C	-1.5478589006	-1.1324802807	-1.5068817517	 0.436796
N	-1.8379816224	-0.0282735516	-2.2097179038	-0.226428
N	-2.6658505779	-0.3571939462	-3.2162242163	-0.106149
N	-2.8713338751	-1.6299605901	-3.1077893091	-0.111806
N	-2.1892706545	-2.1485653667	-2.0530527022	-0.293594
H	 0.6528780747	 1.833657356	-0.2749970072	 0.212646
H	-1.4453480321	 0.8927714206	-2.0384393898	 0.303285
H	-0.0523309963	-2.1070734366	-0.3855496447	 0.161883
H	-1.3143488852	-1.3867074029	 0.5844792407	 0.163286
32.3892	77.8327	194.7132	260.6766	318.73	339.8875	375.0277	429.4391	532.3897	591.1777	691.8826	732.5302	778.0481	812.8581	855.4192	895.1445	969.4341	1021.4921	1047.2911	1095.2973	1097.6238	1116.2155	1156.4563	1230.3813	1250.9341	1290.8309	1357.2485	1435.2538	1448.9736	1477.7996	1576.8034	1647.7747	1722.7947	3024.8377	3078.9078	3474.1644	3537.2566	3593.5586	3709.1395
NC(=[NH2+])CC1=N[N-]N=N1	N=C(N)Cc1[nH]nnn1	
InChI=1S/C3H5N6/c4-2(5)1-3-6-8-9-7-3/h1H2,(H3-,4,5,6,7,8,9)/q-1/p+1	InChI=1S/C3H6N6/c4-2(5)1-3-6-8-9-7-3/h1H2,(H3,4,5)(H,6,7,8,9)
