19
gdb 42402	4.0331	0.93603	0.86491	2.9437	77.2	-0.2109	-0.0219	0.189	1389.657	0.158786	-419.150593	-419.141641	-419.140696	-419.18543	32.595	
O	 0.4319879157	 1.3696856291	-1.5160288263	-0.327413
C	 0.125090606	 1.4746508237	-0.3466720119	 0.369168
C	 1.1136198203	 1.3583570213	 0.8126056142	-0.252825
N	 2.5398466321	 1.2792327867	 0.5698153198	-0.079916
C	 3.1088564865	 0.4975601961	-0.520967851	-0.219178
C	 3.1902758364	 1.9890684565	-0.5240818242	-0.222268
C	-1.3165286516	 1.7156557331	 0.0088443121	-0.090471
N	-1.7459827372	 1.4970724607	 1.4017786132	-0.306113
C	-1.7471665967	 2.8582138241	 0.8779165668	-0.235219
H	 0.9335326942	 2.1966435229	 1.4984424905	 0.130252
H	 0.8059032248	 0.4739064109	 1.3868447238	 0.147297
H	 3.9768145877	-0.0986013054	-0.2485354599	 0.105846
H	 2.4434592046	 0.0513387673	-1.2518988933	 0.132324
H	 2.5778101181	 2.5016163184	-1.2586319094	 0.12814
H	 4.1174591134	 2.4903006564	-0.2560639641	 0.106408
H	-1.9889408643	 1.4521349675	-0.8040281909	 0.107078
H	-2.6864796426	 1.1130697965	 1.4193934094	 0.244948
H	-1.0046960968	 3.5219346637	 1.3113726445	 0.133373
H	-2.6905599406	 3.3349945206	 0.6256855667	 0.128569
33.4645	78.7763	138.7529	165.9197	220.5276	255.6085	351.0819	354.3675	482.8914	550.7135	564.658	761.9737	808.9204	824.5726	838.15	881.2742	900.4675	915.889	964.3153	995.0945	1029.7344	1063.2088	1070.7346	1120.5323	1123.8867	1133.6488	1138.0784	1170.8741	1183.2105	1224.3598	1241.4514	1284.3391	1292.2061	1354.4314	1382.916	1410.1899	1424.2097	1479.1144	1507.3542	1514.1628	1788.4948	3025.3534	3050.6083	3105.5387	3109.6112	3112.0886	3144.7168	3199.075	3199.7133	3212.37	3515.2362
O=C(CN1CC1)C1NC1	O=C(CN1CC1)[C@H]1NC1	
InChI=1S/C6H10N2O/c9-6(5-3-7-5)4-8-1-2-8/h5,7H,1-4H2	InChI=1S/C6H10N2O/c9-6(5-3-7-5)4-8-1-2-8/h5,7H,1-4H2/t5-/m0/s1
