16
gdb 123357	6.92189	0.74134	0.70693	5.5494	75.85	-0.2526	0.0083	0.2609	1531.1299	0.124929	-396.906286	-396.89795	-396.897006	-396.94054	29.737	
C	 0.0100902194	-1.221858327	-0.0039182798	-0.426348
C	-0.0328095415	-0.0212089871	 0.0030836235	 0.289718
C	-0.0324189578	 1.4346851461	 0.0111570508	-0.347384
C	 1.4046575907	 2.001912497	-0.0015955987	-0.182591
N	 1.4261408838	 3.454639868	 0.0062728142	 0.001055
C	 1.3903859429	 4.3059459095	-1.0639344004	 0.013009
N	 1.3691349266	 5.5533505527	-0.6722558699	-0.220108
N	 1.3859349617	 5.5456017088	 0.7094823703	-0.220117
C	 1.4165478313	 4.2938893845	 1.0865098433	 0.013024
H	 0.0273858355	-2.283829761	-0.0101359886	 0.206836
H	-0.5775473234	 1.8200947722	-0.8587743133	 0.14856
H	-0.5580868012	 1.810403473	 0.8971527398	 0.148578
H	 1.9546754935	 1.6405641504	 0.8706569031	 0.145772
H	 1.9352564009	 1.6502564486	-0.8896983185	 0.145776
H	 1.3921020876	 3.961713126	-2.0870524546	 0.142107
H	 1.4430661101	 3.9381830984	 2.1053529088	 0.142113
58.2578	60.8057	88.0134	171.6456	316.2749	356.1865	362.6729	466.9551	636.2413	653.1472	665.67	695.9796	749.2821	772.945	817.5596	847.5872	957.6056	975.9035	1023.1481	1024.868	1044.8876	1085.9807	1178.6545	1210.57	1234.3539	1301.465	1309.918	1385.6485	1395.1099	1403.0698	1472.8081	1492.0888	1500.321	1552.0884	2243.4253	3034.1758	3068.2421	3074.5293	3124.6752	3258.0366	3262.3192	3504.449
C#CCCN1C=NN=C1	C#CCCn1cnnc1	
InChI=1S/C6H7N3/c1-2-3-4-9-5-7-8-6-9/h1,5-6H,3-4H2	InChI=1S/C6H7N3/c1-2-3-4-9-5-7-8-6-9/h1,5-6H,3-4H2
