20
gdb 39238	2.88313	1.60438	1.18825	1.3377	77.96	-0.2283	0.0787	0.3071	1069.3192	0.17374	-403.106504	-403.09917	-403.098226	-403.138035	29.975	
C	 0.0122398149	 1.4846907135	 0.0157114631	-0.268527
C	 1.3117919425	 0.7600149775	 0.0522296598	 0.034238
C	 2.200364542	 0.7181072532	 1.2787130265	-0.248348
C	 2.8822514016	-0.6508023267	 1.4178032375	-0.231134
C	 1.9671722689	-1.8338506281	 1.6735140087	 0.085711
O	 1.1620579716	-1.8341057146	 2.8544862486	-0.259623
C	 0.4937839861	-1.8496404756	 1.5834215747	 0.045338
C	-0.359830011	-0.6296815843	 1.2633074559	-0.201659
N	 0.0441617451	 0.0202381532	 0.0167914951	-0.085448
H	-0.3067153536	 1.9827475684	 0.9307350587	 0.107881
H	-0.3382157484	 1.953724345	-0.8997452264	 0.114291
H	 1.8643001103	 0.6778390886	-0.8844941015	 0.08555
H	 2.9696649791	 1.4937347153	 1.1886294053	 0.101123
H	 1.6383951844	 0.9478860001	 2.1878106891	 0.114701
H	 3.4412954455	-0.8679482702	 0.4976566349	 0.10441
H	 3.6253841887	-0.6214152808	 2.2249576623	 0.109044
H	 2.4612712667	-2.7932496019	 1.4993707406	 0.086189
H	 0.0357154647	-2.8110361436	 1.3481768912	 0.093976
H	-1.4049091608	-0.9373058571	 1.1470233942	 0.106167
H	-0.3230823186	 0.0377066984	 2.1365177118	 0.10612
116.1929	216.4873	260.4895	337.9707	368.8579	379.4149	439.968	473.1254	551.8925	663.474	760.7945	773.8234	793.5249	807.1332	887.4027	918.1204	936.7218	969.9735	995.1331	1035.819	1061.3698	1067.1114	1101.9146	1123.5257	1131.1267	1137.9301	1166.8849	1181.9026	1232.6356	1262.7366	1267.9385	1308.4461	1325.174	1340.5221	1376.8605	1388.7106	1406.339	1428.3694	1469.4832	1481.8722	1485.7251	1506.9931	1525.0967	2995.6954	3016.8559	3043.2885	3054.2727	3055.8014	3071.2331	3086.0951	3090.2462	3101.9854	3105.2157	3177.3101
C1C2CCC3OC3CN12	C1[C@H]2CC[C@H]3O[C@H]3CN12	
InChI=1S/C7H11NO/c1-2-6-7(9-6)4-8-3-5(1)8/h5-7H,1-4H2	InChI=1S/C7H11NO/c1-2-6-7(9-6)4-8-3-5(1)8/h5-7H,1-4H2/t5-,6-,7+,8?/m1/s1
