15
gdb 55234	3.45887	1.24101	1.09128	2.3686	62.95	-0.2597	-0.0083	0.2514	1098.6252	0.113097	-491.117514	-491.109359	-491.108414	-491.151306	29.531	
N	-0.0886352099	 0.7821183646	 1.043980026	-0.550784
C	-0.0189233212	-0.1053821744	-0.013110372	 0.320597
N	 0.9650769742	-0.3718935681	-0.7756249309	-0.497266
C	-1.2671934235	-0.9674508754	-0.202513672	 0.191889
O	-1.2321004106	-2.1201264153	 0.6213754971	-0.252138
C	-2.1121577761	-1.9225159756	 1.7059940621	-0.219459
C	-2.9859288026	-0.7490633122	 1.2955695014	 0.395256
O	-3.9471346359	-0.2879652292	 1.828559365	-0.314438
O	-2.4488321963	-0.2446952253	 0.1427896051	-0.239713
H	 0.6784745258	 1.4340960188	 1.1235756156	 0.252753
H	-0.9917633596	 1.2052128257	 1.205138107	 0.271976
H	 1.7831969515	 0.2015617259	-0.558458041	 0.208193
H	-1.3213770846	-1.2807264836	-1.2464870253	 0.1345
H	-2.7169234328	-2.8190624673	 1.8691799184	 0.152793
H	-1.5831193583	-1.6769407387	 2.6369936733	 0.145842
50.9295	71.6694	115.1239	243.8803	298.5084	404.8954	446.5332	488.9967	555.066	572.4807	576.1183	667.5214	711.288	793.026	871.5215	880.3261	900.8891	974.6543	1030.8864	1054.0208	1104.1431	1108.4012	1141.4278	1207.6058	1220.579	1332.84	1351.3991	1372.1189	1420.6162	1493.4684	1631.4633	1745.6884	1908.3451	3020.428	3092.4322	3112.5913	3446.4783	3560.2723	3665.1073
NC(=N)C1OCC(=O)O1	NC(=N)[C@H]1OCC(=O)O1	
InChI=1S/C4H6N2O3/c5-3(6)4-8-1-2(7)9-4/h4H,1H2,(H3,5,6)	InChI=1S/C4H6N2O3/c5-3(6)4-8-1-2(7)9-4/h4H,1H2,(H3,5,6)/t4-/m0/s1
