15
gdb 24828	2.69093	1.74275	1.05773	6.1797	81.62	-0.2323	-0.0494	0.1829	1058.3131	0.116819	-413.008881	-413.001593	-413.000649	-413.041537	27.647	
N	-0.0868699905	 0.9873833498	-1.0461213119	-0.476002
C	-0.0130941253	 0.0177154925	-0.2141945993	 0.220604
C	-1.268378515	-0.4607926151	 0.3502237569	-0.097401
C	-1.5206524939	-1.441187312	 1.229687196	-0.011494
N	-0.6177361329	-2.2852603329	 1.8528082929	-0.317215
C	 0.7431704881	-2.3265115476	 1.7266603715	 0.10625
N	 1.5648080356	-1.6377050163	 1.0323501053	-0.335456
C	 1.3430447016	-0.5841789606	 0.146057911	 0.27225
N	 2.3428789339	-0.0452976507	-0.439729832	-0.471757
H	 0.8653751801	 1.2122742082	-1.3544146987	 0.244551
H	-2.1276131143	 0.0859857598	-0.020875866	 0.119782
H	-2.5445703593	-1.6404825398	 1.5245457587	 0.129816
H	-1.0089822336	-2.9633912558	 2.4876859032	 0.265342
H	 1.1698313067	-3.1109237424	 2.3551778974	 0.123779
H	 3.1963943491	-0.515452797	-0.1338445952	 0.226951
33.948	121.4086	355.7975	363.8159	399.2331	399.9935	450.5196	525.6072	535.019	622.6007	660.1118	758.2288	780.8517	847.4804	933.8162	935.1177	946.6308	963.3563	986.0051	1003.0061	1013.6161	1119.7074	1223.2402	1299.1712	1347.287	1393.1246	1451.2093	1481.9592	1544.8751	1642.4185	1672.7669	1704.8182	1731.5719	3108.4894	3191.9928	3209.595	3415.2875	3474.4934	3629.5962
N=C1C=CNC=NC1=N	[NH]C1=C(N=CNC=C1)[NH]	
InChI=1S/C5H6N4/c6-4-1-2-8-3-9-5(4)7/h1-3H,(H3,6,7,8,9)	InChI=1S/C5H6N4/c6-4-1-2-8-3-9-5(4)7/h1-3H,(H3,6,7,8,9)
