14
gdb 130278	5.85753	0.95609	0.82291	6.1181	69.95	-0.2268	-0.0202	0.2066	1300.9094	0.10169	-470.016906	-470.008838	-470.007894	-470.050454	29.254	
N	 0.0389641534	 1.4345682146	 0.1374826924	-0.591776
C	 0.0397948462	 0.0539763887	 0.0449605992	 0.443865
N	-1.0905013526	-0.6210605214	 0.039428594	-0.225759
O	-0.705753771	-1.9832818811	 0.028886414	-0.195638
C	 0.6229435198	-2.0434412067	 0.0094153221	 0.599204
N	 1.2397289316	-3.2819325485	-0.002774479	-0.42087
C	 0.6601570728	-4.5385505854	-0.059606244	 0.149793
O	-0.5157054029	-4.7790730978	-0.1100082885	-0.266569
C	 1.1812490816	-0.7987556863	 0.0172611051	-0.47392
H	 0.7617802759	 1.8877906362	-0.402820626	 0.254303
H	-0.8714544093	 1.8356256683	-0.0462085214	 0.262348
H	 2.247581543	-3.2554323906	 0.0260240102	 0.267132
H	 1.4502664623	-5.3150615038	-0.0521322646	 0.087575
H	 2.2240767792	-0.5299988364	 0.0241607166	 0.110313
30.3242	150.9802	158.0018	272.4026	283.9205	319.2766	407.6756	447.3379	547.0071	572.245	636.3558	687.6378	718.6246	745.7579	768.5391	854.7308	940.6565	994.2906	1015.8617	1033.9014	1109.3474	1141.4949	1209.4765	1368.3713	1445.7943	1467.9318	1524.6169	1571.7308	1646.8149	1673.0654	1839.4807	2941.5595	3271.9951	3555.4108	3628.8703	3655.4642
NC1=NOC(NC=O)=C1	Nc1noc(NC=O)c1	
InChI=1S/C4H5N3O2/c5-3-1-4(6-2-8)9-7-3/h1-2H,(H2,5,7)(H,6,8)	InChI=1S/C4H5N3O2/c5-3-1-4(6-2-8)9-7-3/h1-2H,(H2,5,7)(H,6,8)
