19
gdb 38283	3.72153	1.42761	1.24059	1.8538	80.1	-0.2117	0.0158	0.2275	1061.4651	0.16239	-385.847534	-385.840598	-385.839654	-385.878996	28.006	
C	-0.0769511458	 1.6180834843	-0.159971372	-0.210479
C	 1.4522807228	 1.3305778953	-0.0278029044	-0.08546
O	 1.0887669417	 0.2511066988	 0.9135488859	-0.289544
C	-0.0414411644	 0.0631797102	-0.0196482066	-0.08546
C	 0.6979600703	-0.3338092263	-1.3037660328	 0.307708
C	 1.7154214811	 0.5294895625	-1.3093204654	 0.307709
C	 2.6935699051	 0.294569224	-2.4177206574	-0.37455
C	 1.9216898934	-0.757588142	-3.2882183047	-0.192709
C	 0.7634384535	-1.3431107158	-2.407186613	-0.37455
H	-0.4886826064	 2.109034368	 0.7253297698	 0.104766
H	-0.4527134233	 2.0549778285	-1.0878040519	 0.093647
H	 2.1744864046	 2.0454738515	 0.3632136891	 0.079436
H	-0.8618901958	-0.5308434332	 0.3797903484	 0.079436
H	 2.9482113109	 1.191441861	-2.9943876751	 0.103958
H	 3.6440417593	-0.1061547217	-2.0384273964	 0.111393
H	 1.488745327	-0.2529177535	-4.156865293	 0.107817
H	 2.5829465872	-1.5393894178	-3.6705132164	 0.101531
H	 1.0064511978	-2.3440997935	-2.0240346688	 0.111393
H	-0.1665692191	-1.4513862202	-2.9773882554	 0.103959
110.8948	137.5152	211.9326	358.522	458.6616	528.3617	603.7304	657.8844	666.8185	708.1121	815.3698	828.4017	829.0621	861.815	889.8311	914.1727	926.3224	947.6779	998.2522	1013.7036	1046.1865	1067.9897	1089.1297	1147.8493	1160.8469	1188.7824	1190.8385	1212.9369	1227.2575	1238.4019	1257.6334	1279.0033	1293.0453	1316.8659	1331.731	1373.2451	1482.155	1483.9069	1492.7386	1506.2288	1696.0926	3006.709	3007.1639	3041.2663	3045.6154	3058.6062	3062.3438	3103.817	3130.4015	3135.9516	3139.0717
C1C2OC1C1=C2CCC1	C1[C@H]2O[C@@H]1C1=C2CCC1	
InChI=1S/C8H10O/c1-2-5-6(3-1)8-4-7(5)9-8/h7-8H,1-4H2	InChI=1S/C8H10O/c1-2-5-6(3-1)8-4-7(5)9-8/h7-8H,1-4H2/t7-,8+
