18
gdb 71055	2.37767	2.15368	1.32353	4.1062	77.54	-0.2115	-0.0464	0.1651	983.8056	0.144815	-401.822943	-401.814655	-401.813711	-401.855093	32.3	
C	 0.1401604804	 1.4788884209	-0.1393559226	-0.493353
C	-0.0307721127	-0.0175333695	-0.0734235382	 0.226178
C	-0.4552031031	-0.7760958995	-1.364320996	-0.209024
N	-0.4680930668	-2.2182468756	-0.9470145957	-0.238547
C	-0.4294987826	-2.0873068217	 0.3125779878	 0.264366
O	 0.7231220243	-2.3458834307	 1.051741978	-0.298155
C	 0.6905523505	-0.833226684	 1.1742521623	 0.383202
C	 1.7074814538	-0.2963910941	 2.1262933435	-0.498473
C	-0.7594560588	-0.7351584666	 1.0165814903	-0.287827
H	 0.9932713238	 1.7516051952	-0.7705464248	 0.131383
H	-0.7538584511	 1.9407183824	-0.5759686152	 0.128955
H	 0.290600245	 1.9305028635	 0.8448391639	 0.123577
H	-1.4099300579	-0.3810529804	-1.7480444919	 0.104779
H	 0.2848782084	-0.7128304407	-2.1695769745	 0.127633
H	 2.7186395673	-0.5184922797	 1.7726258794	 0.146981
H	 1.6085492169	 0.7864511882	 2.2277097008	 0.135139
H	 1.5781486811	-0.7544825766	 3.1117366402	 0.14324
H	-1.5759420482	-0.4693017812	 1.6771582627	 0.109946
161.006	172.4228	190.6098	240.7019	259.9963	303.7906	334.1632	424.9367	460.4813	543.0014	582.6008	627.18	682.4852	711.1917	797.7608	837.8206	888.7547	949.6887	973.404	976.9413	1006.4911	1022.8557	1080.6982	1093.3324	1105.8784	1161.0238	1186.2011	1198.4753	1247.1369	1334.8402	1393.5984	1410.7667	1425.3096	1468.6668	1480.2949	1486.7464	1489.6939	1502.1855	1625.9026	2970.533	3026.0534	3045.793	3064.3239	3083.1601	3109.0128	3112.0263	3135.2569	3181.2883
CC12CN=C3OC1(C)C23	C[C@@]12C[N][C]3O[C@]1(C)[C@@H]23	
InChI=1S/C7H9NO/c1-6-3-8-5-4(6)7(6,2)9-5/h4H,3H2,1-2H3	InChI=1S/C7H9NO/c1-6-3-8-5-4(6)7(6,2)9-5/h4H,3H2,1-2H3/t4-,6+,7-/m1/s1
