18
gdb 50852	2.68418	0.99996	0.7532	2.162	76.94	-0.2545	-0.0188	0.2357	1476.4238	0.148648	-435.273955	-435.264896	-435.263952	-435.308747	32.409	
N	-0.1390635261	 0.9969243229	 1.5631256208	-0.457246
C	-0.5526656955	 0.5447190378	 0.4509697968	 0.095983
N	-1.8973169676	 0.2494936715	 0.276138842	-0.317449
C	-2.4132811445	-0.2475914192	-0.9064772078	 0.414876
O	-1.724594067	-0.4617152393	-1.8819430224	-0.356651
C	-3.9156669997	-0.5427550729	-0.8990241786	-0.338149
C	-4.723160686	 0.1744357256	 0.1549233742	-0.005376
C	-5.93427796	-0.4297745436	 0.7544276283	-0.24707
N	-4.7045550266	-0.2965904974	 1.5595832498	-0.319487
H	 0.8655470549	 1.1601660005	 1.5245565118	 0.232802
H	 0.0328300947	 0.3402977865	-0.4471444175	 0.139955
H	-2.5043247067	 0.4217089174	 1.0680302409	 0.286179
H	-4.275296463	-0.3049941873	-1.9050093791	 0.145985
H	-4.0269853773	-1.6296546621	-0.7845313632	 0.129405
H	-4.6954813645	 1.2604112305	 0.0844959959	 0.111923
H	-6.7581266382	 0.2043855337	 1.0673234776	 0.130367
H	-6.226455082	-1.4228721714	 0.4233331787	 0.120003
H	-4.2453801551	-1.204650583	 1.6078918617	 0.233949
66.8379	85.405	111.9788	153.8644	198.5539	226.4173	340.2893	347.6298	458.1603	523.5511	596.9314	661.8283	725.1557	798.5494	833.7953	837.7741	929.673	935.9688	977.1178	993.5624	1052.1501	1093.6146	1098.7549	1130.7675	1148.4146	1180.7312	1220.5569	1254.8955	1272.959	1300.9787	1310.9423	1314.8697	1394.2613	1430.4837	1451.4911	1505.2041	1513.6913	1728.3106	1797.1792	3028.5318	3088.5066	3113.1928	3126.4365	3126.7699	3200.6489	3479.363	3504.2002	3577.9461
N=CNC(=O)CC1CN1	N=CNC(=O)C[C@H]1CN1	
InChI=1S/C5H9N3O/c6-3-8-5(9)1-4-2-7-4/h3-4,7H,1-2H2,(H2,6,8,9)	InChI=1S/C5H9N3O/c6-3-8-5(9)1-4-2-7-4/h3-4,7H,1-2H2,(H2,6,8,9)/t4-/m0/s1
