16
gdb 46614	3.15079	1.50502	1.03837	4.1472	71.78	-0.2442	-0.0269	0.2173	1087.3976	0.126375	-437.925827	-437.918181	-437.917237	-437.95856	27.827	
O	-0.0261864324	-0.0604237419	 0.0221038951	-0.376761
C	 0.0272140466	 1.1502132612	 0.0168207021	 0.334176
N	-1.0527397185	 2.0200483881	 0.0599493518	-0.346402
C	-0.6910987622	 3.4274171514	 0.0388920011	-0.289639
C	 0.8039942637	 3.3309222506	-0.022774663	 0.205124
C	 1.2016901002	 2.0610469632	-0.0347886996	 0.121781
C	 2.6901152419	 1.9796282941	-0.0960971271	-0.189605
O	 3.1063528585	 3.358102025	-0.1181774129	-0.278173
C	 1.9836468465	 4.2456893737	-0.0746275056	-0.176872
H	-1.9983719315	 1.6793370477	 0.0970444818	 0.256078
H	-1.1117567096	 3.9511051286	-0.8315580965	 0.131902
H	-1.0384385216	 3.9586317278	 0.9366795219	 0.131922
H	 3.1312162542	 1.4748963133	 0.7745538253	 0.123524
H	 3.0579384618	 1.4686708709	-0.996641065	 0.12354
H	 1.9857704843	 4.8954043847	-0.9637038012	 0.114702
H	 2.0590155882	 4.9012525017	 0.8069378218	 0.114704
78.1808	112.8301	167.8931	215.3233	274.2005	405.1567	473.2261	500.1844	605.8574	627.2811	757.3794	768.9768	850.1183	902.6587	950.9315	998.4444	1027.3831	1053.4788	1067.5613	1075.8416	1138.1763	1156.7076	1190.2453	1218.4584	1223.7075	1298.6178	1330.069	1397.1645	1408.6713	1427.4753	1496.8828	1514.8129	1523.5702	1714.3918	1821.8786	2976.9468	2994.4795	3001.3504	3004.0455	3023.7688	3027.761	3670.3193
O=C1NCC2=C1COC2	O=C1NCC2=C1COC2	
InChI=1S/C6H7NO2/c8-6-5-3-9-2-4(5)1-7-6/h1-3H2,(H,7,8)	InChI=1S/C6H7NO2/c8-6-5-3-9-2-4(5)1-7-6/h1-3H2,(H,7,8)
