17
gdb 99449	2.99931	0.71644	0.5942	3.4361	86.88	-0.2673	-0.0629	0.2044	1816.2525	0.131891	-384.633519	-384.623051	-384.622107	-384.670844	35.555	
C	-0.1199495058	 1.5532792811	-0.0393659938	-0.394651
C	-0.069734963	 0.0267281119	-0.0828770295	-0.17002
C	 0.829635509	-0.5152098551	-1.2365339697	-0.357863
C	 2.2262318567	-0.0902962302	-1.0951219802	 0.346187
C	 3.3639175975	 0.2716583844	-0.9653247352	-0.457744
C	 0.7199882239	-1.9717692378	-1.3332113011	 0.116966
C	 0.5839890985	-3.1694113546	-1.4010508697	 0.045926
C	 0.4741599645	-4.6036678638	-1.4802711047	 0.02156
O	-0.5629749567	-5.2040196618	-1.6448793885	-0.228844
H	 0.8771597338	 1.9777071932	 0.1064795904	 0.137336
H	-0.52984061	 1.9641057774	-0.968619965	 0.119215
H	-0.7569538685	 1.8897441631	 0.7834512936	 0.12229
H	 0.3092616088	-0.3738239794	 0.862344872	 0.123235
H	-1.0720468572	-0.3876149228	-0.22937613	 0.12115
H	 0.4379522251	-0.095724233	-2.1759894568	 0.147282
H	 4.373375242	 0.5845892826	-0.8589702314	 0.205914
H	 1.4409824713	-5.1366652752	-1.3757975405	 0.102062
25.736	64.608	87.0113	117.73	151.7954	187.992	238.3836	257.2615	330.1997	343.7126	451.0143	526.6525	550.6819	637.5771	649.2529	659.1966	759.8153	831.5641	891.3136	954.8769	1022.2577	1045.8627	1094.196	1105.4225	1166.6187	1256.1062	1290.6089	1334.0397	1363.0895	1413.3509	1421.9367	1486.7407	1496.3465	1506.4017	1767.9335	2241.8267	2332.5994	2920.6135	2991.4209	3038.3537	3053.5636	3091.4555	3110.7186	3123.1441	3502.5122
CCC(C#C)C#CC=O	CC[C@@H](C#C)C#CC=O	
InChI=1S/C8H8O/c1-3-8(4-2)6-5-7-9/h1,7-8H,4H2,2H3	InChI=1S/C8H8O/c1-3-8(4-2)6-5-7-9/h1,7-8H,4H2,2H3/t8-/m1/s1
