23
gdb 112036	2.2099	1.34164	1.04729	1.5283	86.05	-0.2377	0.0207	0.2584	1274.9981	0.205086	-388.301858	-388.292094	-388.29115	-388.335906	37.855	
C	 0.3980005261	 1.3857776792	-0.3840465247	-0.423652
C	 0.0375271434	-0.0721255767	-0.0380387222	 0.281502
C	-1.4619528508	-0.171009534	 0.2656574732	-0.440498
C	 0.460869484	-0.9809415195	-1.2356777143	-0.287589
C	 1.8287568495	-1.48146497	-0.8460021684	-0.082034
C	 2.0721991324	-1.2843130145	 0.4476058964	-0.07809
C	 0.9099495876	-0.6178115727	 1.150785588	-0.050214
C	 1.3102865122	 0.3981359839	 2.2299959134	-0.095298
O	 1.8811819616	-0.2294231635	 3.3715139516	-0.42509
H	 1.4608208471	 1.4886852754	-0.6250337475	 0.116661
H	-0.1753584284	 1.7149896894	-1.257477383	 0.107976
H	 0.1664215045	 2.0729435869	 0.4356245232	 0.113447
H	-2.0601575029	 0.1735035787	-0.5855210859	 0.109409
H	-1.7553098908	-1.2028750054	 0.4855671436	 0.111867
H	-1.7360002538	 0.4454890567	 1.1293492542	 0.112389
H	-0.2338151134	-1.8242386582	-1.3622385711	 0.10055
H	 0.4547350525	-0.4342233761	-2.1863952403	 0.096702
H	 2.4957545916	-1.9763499848	-1.5436339222	 0.090825
H	 2.9730231892	-1.6026390425	 0.9640035777	 0.077672
H	 0.3344154725	-1.3896714961	 1.6852053814	 0.082714
H	 1.9904121836	 1.1581111491	 1.819818801	 0.089773
H	 0.4215103727	 0.9196752463	 2.6013370006	 0.108435
H	 2.7352690896	-0.5896488817	 3.1150183154	 0.282545
81.5587	113.3911	194.3923	231.301	248.182	286.8661	293.3331	313.621	328.4942	340.267	411.7669	475.944	517.7607	578.742	717.4133	751.9888	802.8355	842.2629	924.54	930.605	950.2011	965.931	973.2624	987.4144	1030.7497	1060.4734	1063.0915	1090.7067	1130.6842	1146.6882	1195.8486	1201.3322	1225.4054	1249.0842	1302.721	1318.3054	1341.7783	1377.9071	1394.8372	1400.6337	1414.8312	1422.8426	1480.9025	1486.9043	1494.0188	1503.6445	1508.5362	1510.3287	1686.6207	2978.9718	2999.6964	3001.9153	3022.4673	3031.1831	3044.2823	3069.7461	3086.8844	3094.7487	3095.8856	3106.7207	3163.7492	3197.0473	3827.9633
CC1(C)CC=CC1CO	CC1(C)CC=C[C@H]1CO	
InChI=1S/C8H14O/c1-8(2)5-3-4-7(8)6-9/h3-4,7,9H,5-6H2,1-2H3	InChI=1S/C8H14O/c1-8(2)5-3-4-7(8)6-9/h3-4,7,9H,5-6H2,1-2H3/t7-/m0/s1
