12
gdb 128017	2.72594	1.61164	1.02233	2.9091	63.43	-0.296	-0.0876	0.2084	1062.9704	0.07378	-505.855184	-505.847011	-505.846066	-505.889343	27.709	
C	 0.1096246311	 1.4477491382	 0.0769561988	-0.343502
N	 0.2000157078	-0.0004166062	 0.0694159635	-0.225799
C	 0.5081580285	-0.6367194827	-0.9636295997	 0.278751
O	 0.8227192651	 0.0007284199	-2.1643736398	-0.264045
N	 0.8831667786	-0.7076452874	-3.3655827306	 0.086503
N	 0.8808488024	-1.9310499664	-3.3925781883	 0.090587
O	 0.8284817435	-2.6969820242	-2.2041467263	-0.241352
C	 0.6014456305	-2.1252823299	-0.9644670896	 0.417308
O	 0.503869317	-2.8369652597	-0.0188960819	-0.2536
H	 1.0058917546	 1.8444350205	 0.5680699054	 0.158486
H	 0.0228341215	 1.9010570623	-0.9148634712	 0.144254
H	-0.7458648707	 1.7323777754	 0.6949013597	 0.152409
48.9085	74.3524	99.3851	201.8744	209.1828	351.8009	494.3475	502.4892	527.6643	551.0314	584.5898	688.6946	771.1254	839.1259	913.2982	967.9455	1015.1925	1055.4102	1123.8512	1160.1312	1271.1943	1432.1623	1479.3089	1499.1414	1602.904	1772.6434	1897.2277	3032.2299	3097.2567	3121.2454
CN=C1ON=NOC1=O	CN=c1onnoc1=O	
InChI=1S/C3H3N3O3/c1-4-2-3(7)9-6-5-8-2/h1H3	InChI=1S/C3H3N3O3/c1-4-2-3(7)9-6-5-8-2/h1H3
