19
gdb 109715	2.24796	1.36289	1.06779	2.8481	72.05	-0.2356	0.0579	0.2935	1201.5117	0.157272	-460.093611	-460.084219	-460.083275	-460.12818	33.585	
C	-0.3452058558	 1.0617246383	-0.1170691719	-0.238616
O	 0.5730860687	-0.0015209853	 0.0729750593	-0.252433
C	 0.9903572759	-0.6075105503	-1.1116021878	-0.040452
C	 1.548479669	-1.9889866059	-0.9158156651	 0.017637
O	 1.5428588195	-2.5271289	 0.3703041538	-0.430234
C	 0.2301506866	-1.8057570807	-1.625370338	 0.210218
C	-1.1031774832	-2.3635912122	-1.1498227654	-0.131027
O	-1.4589014242	-2.7113440305	-2.5099392681	-0.276745
C	-0.2158562988	-2.1909249596	-3.0298123332	-0.144885
H	 0.1105389975	 1.8769776782	-0.6968189715	 0.116273
H	-1.2526022918	 0.7276890851	-0.6360110501	 0.123082
H	-0.6116975422	 1.4355759838	 0.8737898054	 0.134548
H	 1.4614789653	 0.0655694191	-1.8307559962	 0.091015
H	 2.4201278244	-2.2859529192	-1.4949301482	 0.102633
H	 1.2778383136	-1.8146398895	 0.9667517545	 0.300516
H	-1.025899333	-3.2428197304	-0.4991039992	 0.117896
H	-1.8118519237	-1.6506573253	-0.7102941303	 0.099739
H	-0.3787177154	-1.3586374258	-3.7286703022	 0.097316
H	 0.3809031475	-2.9666829199	-3.5283241658	 0.103519
78.9851	110.4295	136.4029	144.6679	185.5469	207.5658	252.4126	330.3936	358.8769	443.5012	507.2681	623.1387	664.516	821.6262	838.0649	877.6379	971.4336	983.8693	1005.8521	1025.9154	1042.9555	1105.9649	1123.81	1143.0504	1147.9086	1164.9766	1175.4931	1185.5232	1190.8529	1235.8272	1292.2446	1309.2787	1330.2283	1373.3951	1393.0364	1460.9593	1484.9902	1488.1622	1506.2598	1514.1101	1537.1266	2992.9358	2998.2878	3015.2074	3034.164	3055.3842	3060.2978	3080.3674	3126.8015	3131.8658	3765.0629
COC1C(O)C11COC1	CO[C@H]1[C@@H](O)C21COC2	
InChI=1S/C6H10O3/c1-8-5-4(7)6(5)2-9-3-6/h4-5,7H,2-3H2,1H3	InChI=1S/C6H10O3/c1-8-5-4(7)6(5)2-9-3-6/h4-5,7H,2-3H2,1H3/t4-,5+/m1/s1
