20
gdb 82102	2.85734	1.41824	1.12671	2.4822	79.12	-0.2379	0.0775	0.3153	1138.9455	0.171609	-403.080059	-403.071817	-403.070873	-403.113303	32.056	
O	 0.8024560943	 1.2735698821	-0.0175865062	-0.4442
C	 0.3565123759	-0.0558980707	-0.033151673	 0.121579
C	-1.0642410011	-0.3832662915	 0.4496675642	-0.072776
C	-2.0923840224	 0.2518123296	-0.4390270431	-0.291744
C	-1.4019130234	-0.9918194925	-0.921684225	-0.057015
C	-0.001700217	-0.6618865837	-1.4418946307	-0.03114
N	 0.0739397163	 0.325288322	-2.5083383914	-0.070419
C	 1.2255660043	 0.2431103271	-3.4049549904	-0.221576
C	-0.1293062079	-0.1555532295	-3.8723158354	-0.221768
H	 0.4640197492	 1.675691207	-0.8291709928	 0.287496
H	 1.1039931364	-0.6607984903	 0.4883166358	 0.081383
H	-1.3146809021	-0.7598930741	 1.4340126889	 0.083902
H	-3.1204012624	 0.1116058447	-0.1213675044	 0.110581
H	-1.9020453544	 1.206156914	-0.9192338257	 0.115317
H	-1.9418057027	-1.9046069082	-1.1408138777	 0.082596
H	 0.5827752725	-1.5655564848	-1.670572123	 0.054586
H	 1.6560738123	 1.1919577787	-3.7104795654	 0.121124
H	 1.9496317794	-0.5494944308	-3.2259308843	 0.116937
H	-0.3185076306	-1.2183261088	-4.0101044047	 0.114478
H	-0.7035337966	 0.4970557398	-4.5233237558	 0.12066
58.689	99.6183	162.4113	233.6908	304.0556	335.4326	425.1276	491.8504	518.7745	604.4577	716.2362	763.1777	787.3503	815.8091	838.636	903.5658	917.8921	925.6878	981.9517	990.419	1018.6782	1041.0049	1060.2351	1069.9983	1073.3481	1079.869	1112.8433	1122.008	1133.99	1163.9856	1178.3641	1191.4592	1221.8014	1268.9156	1304.169	1319.1846	1327.5926	1361.7572	1370.979	1437.6605	1493.213	1494.2907	1519.5247	2980.2952	3065.8568	3100.8042	3104.8134	3129.3754	3179.7921	3183.1009	3189.473	3197.3449	3212.1679	3744.8521
OC1C2CC2C1N1CC1	O[C@H]1[C@H]2C[C@H]2[C@H]1N1CC1	
InChI=1S/C7H11NO/c9-7-5-3-4(5)6(7)8-1-2-8/h4-7,9H,1-3H2	InChI=1S/C7H11NO/c9-7-5-3-4(5)6(7)8-1-2-8/h4-7,9H,1-3H2/t4-,5+,6-,7+/m1/s1
