20
gdb 107653	2.99794	1.34167	1.09145	0.8374	80.73	-0.2164	0.0189	0.2353	1167.1873	0.17202	-403.122047	-403.113547	-403.112603	-403.155147	32.754	
O	 0.0546977949	 1.3173889481	 0.3837323516	-0.424065
C	-0.0484417988	 0.0064334339	-0.1579845481	-0.141184
C	-1.4775635108	-0.4633936513	 0.0398703408	 0.302568
C	-1.8191561397	-1.1636457783	 1.3112900134	-0.278348
N	-1.6215502266	-1.9240963583	 0.0722082397	-0.145313
C	-2.8327756987	-2.4786363996	-0.5626575819	-0.153396
C	-3.2138665099	-1.7372717622	-1.8505699093	-0.257125
C	-3.2819927095	-0.2499541679	-1.605031415	-0.069047
C	-2.4995096137	 0.3299295556	-0.69595534	-0.136585
H	 0.915509317	 1.672619474	 0.1453128787	 0.288956
H	 0.1915713917	-0.0019118932	-1.2327221006	 0.087258
H	 0.6290155408	-0.6993452682	 0.3437055162	 0.093212
H	-1.0621527729	-1.3009503653	 2.0798831765	 0.110076
H	-2.8372575775	-1.0606206287	 1.681297914	 0.108963
H	-2.6433393535	-3.5376862357	-0.7711060556	 0.101758
H	-3.688126496	-2.4329224803	 0.1250788176	 0.096724
H	-2.4847295465	-1.9555885462	-2.6436853288	 0.116383
H	-4.1761208927	-2.1167705096	-2.2109258282	 0.104344
H	-3.9873282548	 0.3392145981	-2.1845872383	 0.089628
H	-2.5202499228	 1.3993285949	-0.5126659126	 0.105193
78.4586	134.5455	160.8134	229.3662	260.7762	300.4964	378.3304	453.0977	483.8322	512.4348	560.9326	670.7708	732.611	787.9784	792.6726	875.8832	920.8697	943.2003	968.7886	995.3402	1003.7523	1044.5497	1056.8354	1066.4061	1103.8141	1121.9622	1148.6667	1183.4609	1211.5214	1229.0763	1241.1485	1272.649	1286.4929	1355.8744	1362.412	1398.3822	1423.073	1453.4328	1475.8617	1494.7026	1514.3895	1521.7998	1710.9934	2976.1309	3003.2061	3011.4178	3018.8843	3053.2911	3066.7051	3092.572	3159.9717	3179.5394	3188.6086	3835.373
OCC12CN1CCC=C2	OC[C@]12CN1CCC=C2	
InChI=1S/C7H11NO/c9-6-7-3-1-2-4-8(7)5-7/h1,3,9H,2,4-6H2	InChI=1S/C7H11NO/c9-6-7-3-1-2-4-8(7)5-7/h1,3,9H,2,4-6H2/t7-,8?/m0/s1
