17
gdb 112354	3.27116	1.17671	0.90296	5.5082	73.18	-0.2162	-0.0002	0.2161	1235.6931	0.137638	-455.193299	-455.184822	-455.183877	-455.226171	32.608	
N	 0.6110816252	 1.1161404616	 0.1688851407	-0.589675
C	 0.1975274325	-0.1790892573	 0.0464261979	 0.389502
C	-1.0350934567	-0.7248131617	 0.1243860087	-0.370858
C	-0.9360415056	-2.1827000363	-0.0253801307	 0.420843
O	-1.7924370778	-3.0350023177	 0.0772593591	-0.393547
N	 0.4102969558	-2.4478172808	-0.337803645	-0.358189
C	 1.2352463156	-1.2699156329	-0.1770401457	-0.086925
C	 2.123008775	-1.0166188546	-1.4102391848	-0.088688
O	 2.952833289	 0.133448279	-1.2545970858	-0.407585
H	 1.5007612513	 1.3301440412	-0.262573013	 0.264791
H	-0.0929532348	 1.8332318051	 0.0889710693	 0.256524
H	-1.9755377446	-0.2164513355	 0.2767544141	 0.099183
H	 0.7672836402	-3.3641216621	-0.1163867111	 0.241293
H	 1.8878905511	-1.3365285441	 0.7097556266	 0.089901
H	 2.7223518348	-1.9121360932	-1.6217820831	 0.105505
H	 1.4886564156	-0.8280747824	-2.2804601138	 0.134564
H	 3.6533128535	-0.0835687385	-0.6304603734	 0.293362
97.2147	169.3158	183.4983	225.1129	315.3943	343.4645	378.4086	386.8807	452.9412	499.6634	536.5622	580.9837	629.158	663.8398	739.0117	749.6683	817.5232	827.9035	942.0305	1007.1463	1046.5201	1072.4978	1096.6397	1125.7292	1173.3311	1208.1531	1252.4585	1319.345	1333.9466	1377.2475	1390.1743	1396.327	1433.6839	1500.5929	1637.1779	1694.422	1819.6634	2961.2234	3018.9456	3105.0088	3244.1315	3543.0181	3635.129	3670.1143	3814.8681
NC1=CC(=O)NC1CO	NC1=CC(=O)N[C@H]1CO	
InChI=1S/C5H8N2O2/c6-3-1-5(9)7-4(3)2-8/h1,4,8H,2,6H2,(H,7,9)	InChI=1S/C5H8N2O2/c6-3-1-5(9)7-4(3)2-8/h1,4,8H,2,6H2,(H,7,9)/t4-/m0/s1
