17
gdb 51677	4.13822	0.96896	0.88784	3.9983	69.81	-0.2537	0.0034	0.2571	1296.9384	0.135543	-458.942384	-458.93438	-458.933436	-458.976412	28.894	
O	-0.4869433605	 0.0842587584	-0.2627313865	-0.270837
C	-0.2836180785	 1.2520935751	-0.1287829317	 0.167061
O	 0.9469079276	 1.7596733289	 0.084035191	-0.185823
C	 1.0967363905	 3.1695182032	 0.2169083954	 0.115213
C	 1.8820310745	 3.6453690882	 1.472188894	-0.273276
C	 2.885902999	 4.3742383412	 0.541624288	 0.11501
O	 4.0532724129	 3.584674325	 0.2665788331	-0.285255
C	 3.439951358	 3.0067920947	-0.9135693024	-0.084536
C	 2.1471217944	 3.8196306183	-0.7136015141	-0.118803
H	-1.0679831097	 2.0340192664	-0.1617079584	 0.078644
H	 0.1161391122	 3.6500030801	 0.1267911134	 0.091551
H	 1.3033842049	 4.2819562967	 2.145649265	 0.110382
H	 2.3493275561	 2.8385655914	 2.0395551675	 0.134562
H	 3.1160337581	 5.4238024787	 0.7353288308	 0.084119
H	 3.9994842659	 3.2709573802	-1.8179695139	 0.109067
H	 3.3413263695	 1.9186144707	-0.8491550182	 0.128966
H	 1.7859401753	 4.4120848727	-1.552855703	 0.083953
40.2681	67.2452	148.4697	201.2306	294.4612	373.2705	394.1929	463.9559	622.9577	697.9957	767.1968	799.0343	877.1793	913.3799	931.3912	985.3994	1002.1616	1008.9769	1042.8759	1061.5791	1079.9779	1100.5761	1142.9859	1169.2815	1180.5331	1199.3564	1203.7964	1257.4144	1278.0977	1305.2112	1329.3257	1357.1621	1385.75	1438.6802	1458.8012	1524.3114	1868.9223	2941.674	3032.1499	3039.402	3071.0089	3086.5757	3091.016	3123.0675	3138.06
O=COC1CC2OCC12	O=CO[C@H]1C[C@H]2OC[C@@H]12	
InChI=1S/C6H8O3/c7-3-9-6-1-5-4(6)2-8-5/h3-6H,1-2H2	InChI=1S/C6H8O3/c7-3-9-6-1-5-4(6)2-8-5/h3-6H,1-2H2/t4-,5-,6+/m1/s1
