21
gdb 31949	3.01147	1.01652	0.83692	0.0933	87.8	-0.2018	0.0258	0.2276	1483.4878	0.182276	-387.142168	-387.132583	-387.131639	-387.177592	34.931	
C	-0.0539375621	 1.267248602	 0.5756724234	-0.3703
C	-0.1238138966	-0.0885401371	-0.1486822366	-0.294234
C	-1.5141614279	-0.5837389628	-0.3512618399	 0.356559
C	-2.2691490991	-0.8480439776	-1.4507859093	-0.268953
C	-3.5457536768	-1.2969052416	-0.9742037828	-0.268952
C	-3.4842327773	-1.27399245	 0.383920405	 0.356565
C	-4.4475629984	-1.6189676232	 1.4666478306	-0.294236
C	-3.9818058889	-2.7862582754	 2.3544802617	-0.370302
O	-2.2467862603	-0.8400862415	 0.7760563835	-0.22185
H	 0.9854250359	 1.5792715241	 0.7163145176	 0.110738
H	-0.57092041	 2.0429186257	 0.0025605451	 0.120478
H	-0.5276486859	 1.2042305243	 1.559144908	 0.129995
H	 0.3510715201	-0.0149398811	-1.1323779727	 0.111734
H	 0.4519506837	-0.8301523887	 0.4211841716	 0.113232
H	-1.9550340268	-0.7374807966	-2.4773072484	 0.101673
H	-4.3973632279	-1.5965294876	-1.565497623	 0.101674
H	-4.6247140351	-0.7370692996	 2.0968187538	 0.113232
H	-5.4055650528	-1.8626255623	 0.9960566997	 0.111734
H	-4.712372755	-2.9896509571	 3.1433506384	 0.110739
H	-3.8514569962	-3.6979984094	 1.7636074888	 0.120478
H	-3.0241550624	-2.5528898943	 2.8278054155	 0.129996
39.4522	70.8405	121.3691	146.1366	201.1628	224.2233	303.0121	327.0935	411.0185	425.1434	593.9373	656.8031	673.0143	723.3388	778.4614	790.6855	798.4387	823.7885	948.4334	948.5939	986.303	1000.9826	1029.9367	1071.9785	1083.3699	1089.7282	1091.1642	1216.898	1233.4413	1241.3402	1280.0497	1301.784	1356.1992	1356.454	1395.8716	1403.9098	1412.7599	1474.2911	1474.4964	1496.1129	1496.341	1507.1976	1507.2724	1600.6705	1655.5628	3017.7129	3018.1452	3040.3162	3040.5567	3076.7744	3076.8131	3111.281	3111.3205	3121.4407	3121.6933	3245.4393	3259.23
CCC1=CC=C(CC)O1	CCc1ccc(CC)o1	
InChI=1S/C8H12O/c1-3-7-5-6-8(4-2)9-7/h5-6H,3-4H2,1-2H3	InChI=1S/C8H12O/c1-3-7-5-6-8(4-2)9-7/h5-6H,3-4H2,1-2H3
