17
gdb 55482	4.67029	0.62622	0.55785	4.0341	80.73	-0.2541	-0.0469	0.2072	1932.6212	0.130641	-421.839193	-421.828318	-421.827374	-421.879208	35.541	
C	-0.1808145599	 1.3336480619	 0.5348539625	-0.47948
C	-0.3459197378	-0.1742060196	 0.5336686919	 0.390701
O	 0.0015194865	-0.8719596188	 1.4506963502	-0.263962
C	-0.9975221509	-0.7521090713	-0.7404402084	-0.493856
C	-1.1542778474	-2.1936712012	-0.739361397	 0.048509
C	-1.2873230059	-3.3922404912	-0.7445042862	 0.105494
C	-1.4402993517	-4.8362907131	-0.7344860139	 0.242322
C	-0.9384567216	-5.5288694371	 0.515378162	-0.474893
O	-1.9365341437	-5.4301731477	-1.6681573737	-0.277028
H	 0.2848518519	 1.6511140835	 1.4679434685	 0.150772
H	 0.4368538473	 1.652059243	-0.3125082043	 0.143952
H	-1.1535329506	 1.8256197331	 0.422134899	 0.143952
H	-1.9717208508	-0.2620100074	-0.8783227415	 0.16124
H	-0.3982930323	-0.4336570893	-1.6051848765	 0.16124
H	-1.4623183102	-5.1401879581	 1.395199874	 0.150394
H	-1.0969448074	-6.6046266788	 0.4268548398	 0.14025
H	 0.1255006243	-5.313786798	 0.6614282736	 0.150392
12.1393	18.0328	54.8076	98.6753	116.0584	149.83	153.4078	301.0676	347.814	359.5062	454.8145	469.064	567.3264	604.0571	611.0173	710.0622	796.6297	823.0192	952.8501	968.7851	1042.7783	1051.4212	1062.8904	1168.7105	1221.1846	1246.9604	1332.3651	1382.4503	1384.1971	1427.8569	1459.0666	1463.6114	1467.2249	1476.0751	1768.7975	1833.7624	2342.6158	3013.8931	3037.5914	3040.1619	3041.1305	3097.3098	3104.5189	3151.6091	3157.4797
CC(=O)CC#CC(C)=O	CC(=O)CC#CC(=O)C	
InChI=1S/C7H8O2/c1-6(8)4-3-5-7(2)9/h4H2,1-2H3	InChI=1S/C7H8O2/c1-6(8)4-3-5-7(2)9/h4H2,1-2H3
