20
gdb 59392	2.86824	0.99417	0.94493	3.7594	81.02	-0.2765	0.0157	0.2922	1368.6943	0.168607	-403.153879	-403.143802	-403.142857	-403.188747	37.207	
C	 0.0931244411	 1.3968866247	-0.2713869755	-0.392572
C	 0.0513010789	-0.0813136244	 0.1424293484	 0.021401
C	 0.697304988	-0.3024071035	 1.5175452521	-0.395831
C	-1.3820035922	-0.5871736802	 0.1346255273	-0.024076
C	-2.0474540044	-1.0608061684	-1.1308682179	-0.359951
C	-1.6693789802	-2.063559743	-0.0496374901	 0.231882
O	-0.5591136494	-2.8881082245	-0.2463309774	-0.444083
C	-2.7334973143	-2.6652722851	 0.7262334695	 0.242442
N	-3.5839130479	-3.1637501821	 1.3319390275	-0.344905
H	 1.1251124092	 1.7602980183	-0.3044239273	 0.115682
H	-0.3520986456	 1.5497453326	-1.2596370192	 0.114218
H	-0.4556787521	 2.0213441216	 0.4432991172	 0.115199
H	 0.6146404432	-0.664684667	-0.5940586847	 0.088312
H	 0.1514575477	 0.2376094118	 2.3002768855	 0.113067
H	 0.7062937105	-1.3638282301	 1.7797353257	 0.133827
H	 1.7303816904	 0.0596855065	 1.5244288424	 0.112223
H	-2.0343354174	-0.0920834348	 0.8501264418	 0.11074
H	-3.0973072008	-0.8493388064	-1.2970439785	 0.135984
H	-1.4350467414	-1.1124623553	-2.0254004272	 0.128117
H	-0.8171109332	-3.6131160307	-0.8272367598	 0.298326
68.1566	97.6367	127.1704	202.1618	230.9375	246.7894	264.3389	309.8977	333.272	355.309	398.0439	461.85	476.4625	582.9288	614.3684	713.6959	777.6375	890.1183	896.1031	925.4364	933.099	966.0127	982.5434	1043.0069	1068.6678	1090.4428	1145.7955	1187.3454	1211.7806	1243.5476	1258.9622	1314.6081	1347.0214	1359.7418	1400.1834	1417.5291	1427.8118	1474.1848	1488.4503	1492.0538	1504.3447	1511.9313	2345.6428	3027.535	3031.439	3048.7225	3093.0523	3099.7433	3105.088	3117.2874	3133.9297	3141.6584	3229.2331	3795.382
CC(C)C1CC1(O)C#N	CC(C)[C@H]1C[C@]1(O)C#N	
InChI=1S/C7H11NO/c1-5(2)6-3-7(6,9)4-8/h5-6,9H,3H2,1-2H3	InChI=1S/C7H11NO/c1-5(2)6-3-7(6,9)4-8/h5-6,9H,3H2,1-2H3/t6-,7+/m1/s1
