13
gdb 9987	2.88059	1.48621	1.02121	3.3339	68.64	-0.2724	-0.0074	0.265	1087.7643	0.091654	-361.368716	-361.360092	-361.359148	-361.402648	29.881	
N	-0.0715063525	 1.2787726167	 0.1343157728	-0.433539
C	-0.0582982994	 0.0197615938	 0.1221029503	 0.143839
O	-1.2136219358	-0.657873539	-0.0816464916	-0.178471
C	-1.1155934265	-2.0909670257	-0.0000872391	-0.257646
C	-1.0223695702	-2.5445144126	 1.3924761032	 0.353972
C	-0.9167134812	-2.9025714815	 2.5332910021	-0.450542
C	-2.2730815215	-2.6625683077	-0.6849378257	 0.318083
C	-3.2039632967	-3.1601551208	-1.2543776187	-0.390324
H	 0.8704946726	 1.637473347	 0.2759791873	 0.233466
H	 0.8171361976	-0.6301278758	 0.2538676101	 0.096442
H	-0.2059419543	-2.4114791812	-0.5322383682	 0.140956
H	-0.8356280656	-3.2200872538	 3.5440473853	 0.213389
H	-4.0352373565	-3.5924851797	-1.7551858577	 0.210375
56.4982	84.4724	126.1133	145.1922	225.7077	317.1425	328.7055	477.0916	509.9107	560.11	643.9911	649.3523	678.0017	685.1261	691.9526	815.3363	916.0091	991.53	1036.0546	1055.8121	1098.1373	1275.6084	1322.5497	1332.5399	1427.5685	1751.2685	2243.418	2255.7618	2978.632	3029.5536	3500.4316	3502.0686	3519.6426
N=COC(C#C)C#C	[NH][CH]OC(C#C)C#C	
InChI=1S/C6H5NO/c1-3-6(4-2)8-5-7/h1-2,5-7H	InChI=1S/C6H5NO/c1-3-6(4-2)8-5-7/h1-2,5-7H
