17
gdb 66616	2.91978	1.95881	1.87339	2.4285	68.95	-0.2398	0.0683	0.3081	829.7207	0.138569	-421.790802	-421.78474	-421.783796	-421.820768	26.515	
O	-0.0555495748	 1.329137561	-0.1236172893	-0.482665
C	 0.0266969208	-0.0486566309	-0.0334862741	 0.409066
C	 1.1037731746	-0.8779569232	-0.7240645685	-0.169495
C	-0.32767088	-0.8972036747	-1.2279117495	-0.132387
C	-0.6172320901	-2.1946051929	-0.4577299876	 0.059117
O	-1.3862683492	-1.8130187844	 0.6765895055	-0.250745
C	-0.4515384814	-0.8632170336	 1.2207336992	-0.021162
C	 0.7564359961	-1.7748353444	 1.5145447797	-0.218748
C	 0.9073004051	-2.1997272064	 0.0451250721	-0.089928
H	 0.6942005948	 1.7107087881	 0.3452427703	 0.286208
H	 1.9982746373	-0.4738086624	-1.1810541316	 0.086607
H	-0.7719342863	-0.5047278178	-2.1332719255	 0.096708
H	-1.0407979951	-3.0654192884	-0.9518400315	 0.081968
H	-0.9074344467	-0.2888592696	 2.0244210449	 0.078496
H	 1.6352439584	-1.2338302085	 1.8792078679	 0.089468
H	 0.4978306626	-2.5848370882	 2.2004053459	 0.103971
H	 1.5275256639	-3.0577945537	-0.202792528	 0.073522
247.3274	310.3313	338.8747	451.7795	539.0967	558.076	612.3342	671.614	697.51	785.4955	793.5732	828.1699	880.815	882.9153	910.083	921.2638	931.3694	958.0244	966.6196	974.3751	1013.3866	1031.5331	1044.9813	1094.1951	1142.158	1156.7305	1171.085	1202.1996	1234.4227	1237.6552	1267.8138	1281.786	1305.653	1317.0228	1333.4331	1436.3241	1474.0958	3055.6686	3117.7828	3144.7092	3150.3365	3156.1355	3191.5069	3205.4919	3799.1585
OC12C3C1C1OC2CC31	O[C@]12[C@@H]3[C@H]1[C@@H]1O[C@H]2C[C@H]31	
InChI=1S/C7H8O2/c8-7-3-1-2-4(7)5(7)6(2)9-3/h2-6,8H,1H2	InChI=1S/C7H8O2/c8-7-3-1-2-4(7)5(7)6(2)9-3/h2-6,8H,1H2/t2-,3+,4+,5+,6-,7-/m1/s1
