15
gdb 82693	2.95743	1.58313	1.2521	5.5458	70.2	-0.2517	0.0106	0.2624	981.6078	0.11456	-416.748236	-416.741305	-416.740361	-416.779569	27.436	
O	 0.1352649285	 1.4128690625	 0.0841870343	-0.430217
C	 0.0158787095	 0.0366747383	 0.0217538347	 0.139237
C	 0.2239061298	-0.7683366276	 1.3327166764	-0.115448
N	-0.757824959	-0.0573554099	 2.2320351571	-0.347308
C	-1.801746676	-0.7693491551	 1.4593295538	-0.076371
C	-0.8832003885	-1.7861278227	 0.8649325724	-0.143432
C	-1.3818401122	-0.6274581813	-0.016445575	 0.178421
C	-2.317315033	-0.6764427954	-1.0863616389	 0.154812
N	-3.0695818176	-0.7147124251	-1.965635411	-0.347439
H	-0.249918389	 1.6649031365	 0.9379889928	 0.293036
H	 0.6343902583	-0.3381296464	-0.7961779264	 0.110394
H	 1.2119987041	-0.980552364	 1.7314577558	 0.096513
H	-0.7115132204	-0.4810513183	 3.1570663629	 0.233692
H	-2.8422552827	-0.8216787787	 1.7502386133	 0.128642
H	-0.9337975718	-2.8509623228	 0.6886762877	 0.125466
135.2567	156.8651	236.7547	326.7414	471.7635	505.5912	544.5509	562.8523	620.8057	642.859	732.7883	767.6326	813.2188	850.3279	894.7678	932.5104	938.5636	970.2629	991.188	1018.2825	1057.7154	1131.983	1144.3881	1159.3989	1171.4187	1220.6823	1250.0713	1278.9945	1305.0406	1347.1434	1401.0973	1452.8435	2345.9995	3107.4093	3164.1597	3214.6924	3228.7404	3482.0764	3708.4337
OC1C2NC3C2C13C#N	O[C@H]1[C@H]2N[C@@H]3[C@H]2[C@]13C#N	
InChI=1S/C6H6N2O/c7-1-6-2-3(5(6)9)8-4(2)6/h2-5,8-9H	InChI=1S/C6H6N2O/c7-1-6-2-3(5(6)9)8-4(2)6/h2-5,8-9H/t2-,3-,4+,5-,6-/m0/s1
