18
gdb 83690	2.94136	1.40539	1.1087	3.3775	73.87	-0.2458	0.0185	0.2643	1110.5564	0.147634	-439.070905	-439.062632	-439.061688	-439.104306	30.363	
C	 0.3583187559	 1.6392091992	-0.1254338414	-0.40894
C	 0.150445623	 0.1438379373	 0.0282063499	 0.027078
C	 0.6234038591	-0.8001114095	-1.1179842219	 0.077135
O	 1.7822625347	-0.3301862707	-1.8259107846	-0.284789
C	 2.680918236	-1.0934893244	-0.9815734655	-0.085488
C	 1.5121609992	-1.5526772887	-0.0885962386	-0.065707
N	 1.1003043962	-0.5717121293	 0.9106746356	-0.048674
C	 1.2575948159	-0.5115043481	 2.2526523914	 0.12727
O	 0.7050125497	 0.2913573914	 2.9769659902	-0.332293
H	 1.3515405954	 1.8493242195	-0.5284551971	 0.131648
H	-0.3882934538	 2.0535376022	-0.810655251	 0.119853
H	 0.2499332328	 2.1270164117	 0.845673646	 0.152924
H	-0.8828601811	-0.0753538797	 0.3277193536	 0.096401
H	-0.1270410067	-1.2453286982	-1.7723684479	 0.093435
H	 3.1594994518	-1.9021380134	-1.5478765943	 0.111126
H	 3.4420443566	-0.471065695	-0.5003123847	 0.117214
H	 1.4323656043	-2.6020107265	 0.1971276955	 0.102975
H	 1.9597264711	-1.2881035677	 2.6228282249	 0.068832
54.8186	127.3356	162.7044	222.515	245.8333	275.763	362.7511	410.082	512.4877	582.393	702.5925	772.6418	828.7371	837.9814	896.3894	943.1477	975.3686	1006.8162	1031.2306	1050.41	1080.7568	1104.4099	1139.4926	1146.5827	1174.6277	1187.3025	1235.2442	1283.8614	1299.7505	1319.9524	1356.7007	1371.7009	1397.0395	1403.9539	1444.3559	1490.7438	1497.899	1510.129	1787.0425	2911.5413	3022.0528	3022.879	3048.6691	3084.6481	3102.6181	3112.8004	3121.9623	3143.1868
CC1C2OCC2N1C=O	C[C@H]1[C@H]2OC[C@H]2N1C=O	
InChI=1S/C6H9NO2/c1-4-6-5(2-9-6)7(4)3-8/h3-6H,2H2,1H3	InChI=1S/C6H9NO2/c1-4-6-5(2-9-6)7(4)3-8/h3-6H,2H2,1H3/t4-,5+,6+/m0/s1
