17
gdb 36455	3.58078	1.00597	0.85674	3.6249	73.14	-0.2504	0.0316	0.282	1315.9482	0.136015	-417.971354	-417.962955	-417.96201	-418.005074	30.69	
N	 0.141488146	-1.1797427043	-0.3225386201	-0.304302
C	 0.0378527241	-0.0367230002	-0.1879989226	 0.26227
C	-0.0543907763	 1.4107596805	-0.0108477833	-0.349021
C	 1.3317277159	 2.0645016407	 0.0593439247	-0.05046
N	 2.0698377648	 2.0888752787	-1.2254245464	-0.323272
C	 2.4890139146	 3.5019380977	-1.0217832685	-0.254637
C	 1.4258621876	 3.5964361273	 0.0736951747	 0.416788
C	 0.4085543999	 4.614065193	 0.3301814131	-0.259474
O	 1.5086896258	 4.3895302127	 1.2304971128	-0.259397
H	-0.6123957734	 1.8369132687	-0.85059951	 0.154341
H	-0.6127733553	 1.6175414191	 0.9099054104	 0.152682
H	 1.8972783006	 1.6396048993	 0.900580581	 0.099148
H	 2.8252104077	 1.417753167	-1.2983330712	 0.235612
H	 3.4993005603	 3.6343391231	-0.612319844	 0.114554
H	 2.3723491842	 4.1384629809	-1.9045907582	 0.117328
H	 0.4390999015	 5.5540910346	-0.2184335389	 0.126144
H	-0.5702297579	 4.3317128114	 0.7149191665	 0.121698
65.1236	109.0623	113.2208	203.454	276.8299	340.9522	392.9383	397.7329	483.2988	542.2261	559.8	726.0223	819.975	864.4497	894.9898	928.5883	945.7068	952.5989	1014.6994	1022.5317	1082.0833	1119.0723	1123.7711	1134.8746	1166.5654	1185.6982	1218.7299	1248.551	1291.5512	1340.4248	1378.5465	1390.4796	1447.2726	1455.2277	1512.3176	1542.5727	2362.3569	3007.4742	3016.7064	3044.4706	3074.0245	3086.4139	3095.8206	3174.0274	3550.6603
N#CCC1NCC11CO1	N#CC[C@H]1NC[C@]21CO2	
InChI=1S/C6H8N2O/c7-2-1-5-6(3-8-5)4-9-6/h5,8H,1,3-4H2	InChI=1S/C6H8N2O/c7-2-1-5-6(3-8-5)4-9-6/h5,8H,1,3-4H2/t5-,6-/m1/s1
