17
gdb 75168	3.13794	1.37242	0.96622	4.8998	78.62	-0.2464	-0.0356	0.2108	1182.8212	0.136772	-418.066519	-418.058087	-418.057143	-418.099716	30.782	
C	-0.0190220291	 1.5057365321	 0.0349485377	-0.483308
C	-0.0073288466	 0.0154009227	-0.0093672212	 0.298167
C	-0.0289738112	-0.8077055432	-1.0633996957	-0.212527
C	-0.0044937452	-2.248560894	-0.6424096343	-0.234088
N	 0.0346759955	-2.1465284767	 0.8174251143	-0.13123
C	 0.0667923411	-3.2368067951	 1.6417336726	 0.159493
O	 0.0995848288	-3.2037052759	 2.8531979206	-0.316163
C	 0.0338729325	-0.7823865407	 1.2360308898	 0.317141
N	 0.0615834501	-0.3041936533	 2.4104417898	-0.541396
H	 0.8712084324	 1.8785373629	 0.5518506295	 0.150357
H	-0.057040246	 1.9372762665	-0.9679080177	 0.119279
H	-0.8780444843	 1.8628271189	 0.6120737733	 0.150609
H	-0.0602818829	-0.5174427411	-2.1054618601	 0.116583
H	-0.8942184987	-2.7972216686	-0.9810305975	 0.134916
H	 0.8750076034	-2.7813378203	-1.0296278234	 0.134912
H	 0.059558924	-4.1857752464	 1.0699880547	 0.085375
H	 0.0871394462	-1.0522815279	 3.1037075577	 0.251879
84.7739	117.9955	204.1403	212.9833	246.413	266.1938	288.9689	406.6438	469.5582	503.306	622.7501	733.8259	744.3662	779.9641	831.602	938.6911	945.6562	994.8877	1017.3086	1036.7097	1036.9861	1072.1452	1166.6283	1198.0986	1236.378	1275.1635	1304.7626	1369.5171	1416.7424	1418.9489	1445.2456	1469.1159	1482.2894	1503.7273	1711.1896	1715.3445	1804.8202	2937.5103	3004.6169	3030.5674	3043.3248	3100.2759	3128.9718	3222.6702	3494.2119
CC1=CCN(C=O)C1=N	CC1=C(N(C[CH]1)C=O)[NH]	
InChI=1S/C6H8N2O/c1-5-2-3-8(4-9)6(5)7/h2,4,7H,3H2,1H3	InChI=1S/C6H8N2O/c1-5-2-3-8(4-9)6(5)7/h2,4,7H,3H2,1H3
