24
gdb 119982	1.87646	1.06209	0.78933	0.5894	86.91	-0.2127	0.0748	0.2875	1578.9742	0.215225	-405.514122	-405.502938	-405.501993	-405.551052	40.127	
C	 1.7041581799	 2.2143510165	-0.5686848136	-0.377238
C	 1.9864163871	 0.8189580485	-0.0120172887	-0.115012
N	 1.6733085864	-0.1964664552	-1.0127894299	-0.106562
C	 1.7855492021	-1.6193844263	-0.6888493172	-0.015289
C	 2.2103980946	-2.1295120769	 0.6728548801	-0.413096
C	 0.4455830932	-1.0071667934	-0.9499646771	-0.022873
C	-0.6245098632	-0.8874062624	 0.1172855985	-0.203219
C	-1.721956714	 0.1051497302	-0.2561314685	-0.076616
O	-2.7057001548	 0.0606874374	 0.7663397367	-0.422646
H	 2.2714845102	 2.3795264388	-1.4887261791	 0.12466
H	 0.642453802	 2.3378283906	-0.8051795773	 0.11964
H	 1.9795324558	 2.9849157025	 0.1587220055	 0.106728
H	 3.0555017329	 0.7302007966	 0.2168219654	 0.101505
H	 1.4547892159	 0.6909615042	 0.9430285492	 0.085624
H	 2.2260563361	-2.1961108294	-1.503755424	 0.081649
H	 1.7334484806	-1.6020440557	 1.5005513325	 0.12092
H	 1.9616546152	-3.1920677195	 0.7675818555	 0.121005
H	 3.29508733	-2.0361987331	 0.7973834202	 0.121204
H	 0.0203981236	-1.1771155912	-1.9410504385	 0.080245
H	-1.0943848628	-1.8692836801	 0.257640895	 0.110848
H	-0.2167261148	-0.6023913087	 1.0901191748	 0.110028
H	-1.2984097345	 1.116359251	-0.3579749822	 0.096004
H	-2.1493048234	-0.1678174754	-1.2349058565	 0.086581
H	-3.3985469281	 0.689605771	 0.5451930093	 0.285912
52.7408	78.6107	100.196	119.5401	164.9675	181.7294	210.2623	262.3907	265.2516	284.7524	340.9077	399.7186	479.4332	537.5145	557.0187	703.3121	768.2444	808.2897	811.2735	864.8654	960.2911	980.6213	1030.3848	1059.4086	1063.1137	1072.9312	1090.1482	1108.0164	1155.2097	1164.5551	1187.0513	1195.8394	1232.0909	1240.8447	1307.8976	1313.5675	1320.3183	1347.5733	1383.3038	1399.0227	1407.3169	1417.6377	1446.4067	1459.8454	1476.2498	1487.2424	1495.2833	1496.4813	1502.7333	1512.9827	1525.7408	2966.0525	2980.8197	2997.1044	3035.2077	3037.7397	3038.5221	3043.7853	3071.8784	3084.1533	3089.856	3103.0016	3106.5067	3119.3189	3136.8194	3831.0884
CCN1C(C)C1CCO	CCN1[C@@H](C)[C@H]1CCO	
InChI=1S/C7H15NO/c1-3-8-6(2)7(8)4-5-9/h6-7,9H,3-5H2,1-2H3	InChI=1S/C7H15NO/c1-3-8-6(2)7(8)4-5-9/h6-7,9H,3-5H2,1-2H3/t6-,7+,8?/m0/s1
