20
gdb 95044	2.12323	1.94428	1.21897	3.6401	78.34	-0.2416	0.0347	0.2763	1072.6714	0.173091	-403.197411	-403.189293	-403.188349	-403.229941	31.833	
C	-0.1715000266	 1.5589726687	-0.0324037974	-0.409276
C	 0.0296658834	 0.0433619457	-0.0141156474	 0.032815
C	 0.8429320142	-0.5192593338	-1.2008482139	-0.225073
C	 1.2574140924	-1.9312481109	-0.7437593398	-0.226213
C	 1.5484100811	-1.7802950649	 0.7560825734	 0.024272
N	 2.7867595282	-1.0634893148	 1.0929502068	-0.323773
C	 2.1807527689	 0.1088217262	 1.475957539	 0.427687
O	 2.6159578157	 1.1716322064	 1.8356753047	-0.372672
C	 0.7745334965	-0.4988257418	 1.2231415752	-0.192341
H	 0.7855831785	 2.0830704391	 0.0393415868	 0.143318
H	-0.6709428683	 1.8717607434	-0.9553457677	 0.107727
H	-0.7896368318	 1.8875612778	 0.8093706736	 0.115116
H	-0.9564857163	-0.4423925222	-0.0281058795	 0.072811
H	 0.2726416021	-0.5250851439	-2.1337625853	 0.09781
H	 1.7302418692	 0.1022973743	-1.3703696484	 0.110675
H	 0.420480628	-2.6290642964	-0.8683455416	 0.102773
H	 2.1067946701	-2.3411033426	-1.2992709411	 0.097044
H	 1.4105558995	-2.6982360245	 1.3332483546	 0.080705
H	 3.7580552285	-1.280227654	 0.9188554976	 0.244256
H	 0.1589033666	-0.5765576318	 2.1203913404	 0.09234
86.9562	152.424	204.6704	233.222	297.2594	360.7926	396.4893	434.1546	520.6267	536.6587	609.3458	713.4701	778.89	816.563	841.9184	869.5207	903.1549	940.2095	960.9374	981.5536	995.3122	1032.1031	1067.5647	1122.9664	1129.9266	1168.7724	1181.689	1182.7533	1216.0621	1269.753	1281.4001	1311.9847	1332.5324	1354.092	1369.8285	1375.3557	1381.6515	1418.3191	1481.3939	1496.4068	1499.5608	1501.5905	1879.6692	2998.3821	3035.0278	3036.162	3042.5451	3073.3305	3083.701	3096.1253	3099.5922	3108.6985	3119.871	3595.3163
CC1CCC2NC(=O)C12	C[C@H]1CC[C@H]2NC(=O)[C@@H]12	
InChI=1S/C7H11NO/c1-4-2-3-5-6(4)7(9)8-5/h4-6H,2-3H2,1H3,(H,8,9)	InChI=1S/C7H11NO/c1-4-2-3-5-6(4)7(9)8-5/h4-6H,2-3H2,1H3,(H,8,9)/t4-,5+,6-/m0/s1
