18
gdb 56606	3.10822	0.93358	0.93175	5.4434	72.46	-0.2919	0.0214	0.3133	1351.0752	0.146399	-439.074866	-439.065392	-439.064448	-439.109533	34.535	
O	-0.0356336218	 1.4399302774	-0.1373586731	-0.416877
C	 0.0438837187	 0.0436743155	 0.0237532586	-0.020527
C	 0.6027470518	-0.6114182243	-1.1819137277	 0.274861
N	 1.0296859388	-1.1281431427	-2.1227745385	-0.321155
C	 0.8780608216	-0.3175199467	 1.2735447875	 0.091104
O	 2.1107331781	 0.3725029492	 1.0839020584	-0.451185
C	 0.1828689939	 0.1086224017	 2.5431209749	-0.015345
C	-0.6965342384	-0.8616921719	 3.2877359177	-0.270556
C	 0.6393595474	-0.4687364507	 3.8643351444	-0.295681
H	 0.8696945358	 1.7620005989	-0.0191295616	 0.30024
H	-0.9774143579	-0.325427629	 0.1614642821	 0.138875
H	 1.04409608	-1.4055979649	 1.2888352409	 0.089926
H	 2.5409833397	 0.4495181353	 1.9414700459	 0.296101
H	-0.1264592132	 1.1490696555	 2.5402446183	 0.108163
H	-1.5954887651	-0.4766323324	 3.754641468	 0.125794
H	-0.7967837392	-1.8674987165	 2.8930010088	 0.121777
H	 1.4276721436	-1.2155579306	 3.8525609257	 0.119764
H	 0.659051196	 0.1845966363	 4.7290145898	 0.124721
68.9189	83.2098	122.7439	183.5846	241.9878	257.8207	284.2721	321.6022	356.2987	449.9178	488.7422	509.8347	588.3255	742.8506	783.3297	835.2942	857.8107	875.0171	941.5241	967.6069	986.0973	1055.0433	1068.9569	1085.5958	1099.8623	1146.5416	1170.3871	1199.5932	1216.9592	1222.2707	1296.3072	1316.7609	1338.5798	1380.3476	1435.2596	1442.6151	1469.6534	1504.3568	2357.363	2992.2389	3074.4076	3129.31	3136.5224	3164.3316	3211.6766	3226.7658	3747.6989	3825.6819
OC(C#N)C(O)C1CC1	O[C@@H](C#N)[C@@H](O)C1CC1	
InChI=1S/C6H9NO2/c7-3-5(8)6(9)4-1-2-4/h4-6,8-9H,1-2H2	InChI=1S/C6H9NO2/c7-3-5(8)6(9)4-1-2-4/h4-6,8-9H,1-2H2/t5-,6-/m0/s1
