20
gdb 12556	3.13383	1.76053	1.22033	1.3813	75.98	-0.238	0.0168	0.2548	1021.0319	0.178868	-349.015694	-349.007872	-349.006928	-349.047567	30.807	
O	-0.1876317431	 1.5138145825	-0.1809687456	-0.444414
C	-0.0213299482	 0.1068475713	-0.0217361655	 0.095382
C	-1.4310164121	-0.4924946015	 0.0522345768	-0.174936
C	-1.4821530828	-1.9175197709	 0.6200303307	-0.199526
C	-0.8102648614	-3.0140872122	-0.2203710547	-0.174911
C	 0.7182838045	-2.8773095851	-0.3762428316	-0.24715
C	 1.1571369786	-1.750405609	-1.2826580964	-0.063461
C	 0.8243451428	-0.4692529593	-1.1371916548	-0.085355
H	 0.6878019882	 1.9115706518	-0.222931796	 0.278267
H	 0.4759434358	-0.0985001631	 0.9447483186	 0.068932
H	-2.0219093057	 0.1689672745	 0.6954381502	 0.103417
H	-1.8848062088	-0.4581465424	-0.9451969635	 0.098817
H	-1.0328614459	-1.9159963103	 1.6237487792	 0.091191
H	-2.5343200758	-2.1899082781	 0.7644223137	 0.094896
H	-1.0212550276	-3.9812348421	 0.2522140689	 0.090583
H	-1.2682178243	-3.0483433275	-1.21695021	 0.09677
H	 1.1632501019	-2.7502968385	 0.6225846111	 0.105143
H	 1.1182124984	-3.8203759119	-0.7623311958	 0.097116
H	 1.7810537761	-2.0248493299	-2.1300517587	 0.086366
H	 1.1660499894	 0.2595223518	-1.8701172865	 0.082873
86.3429	188.9151	269.5949	297.0297	303.9142	334.9666	384.6265	415.8817	485.1712	562.1612	653.9012	700.6459	792.9391	834.145	868.1775	902.188	937.2324	974.2988	989.8865	1040.0608	1056.2159	1086.7935	1094.0194	1111.2806	1160.2565	1220.5225	1237.762	1254.5597	1289.0826	1298.384	1342.5449	1354.4405	1367.3792	1385.2773	1392.6185	1409.2421	1422.9666	1480.3082	1483.7038	1487.7943	1494.6338	1721.7718	2915.9912	2993.7198	3004.8354	3019.3108	3032.993	3054.7374	3061.7155	3067.9953	3079.6477	3133.9557	3159.5942	3815.8442
OC1CCCCC=C1	O[C@H]1CCCCC=C1	
InChI=1S/C7H12O/c8-7-5-3-1-2-4-6-7/h3,5,7-8H,1-2,4,6H2	InChI=1S/C7H12O/c8-7-5-3-1-2-4-6-7/h3,5,7-8H,1-2,4,6H2/t7-/m1/s1
