20
gdb 95705	3.07536	1.25737	0.96426	2.5186	77.48	-0.2541	0.0269	0.281	1247.0097	0.171918	-440.299482	-440.290855	-440.289911	-440.332862	32.951	
C	 0.3555890295	 1.6664289415	 0.0550686891	-0.403204
C	-0.017418887	 0.188294363	 0.1064828146	 0.112322
C	 0.398957743	-0.5273875263	-1.1848435985	-0.092064
O	-0.2991829507	-1.7489834181	-1.438716238	-0.251809
C	-0.119277557	-2.8502502197	-0.6515434307	 0.37883
N	-0.6874234369	-3.9465440655	-0.9386083334	-0.503626
C	 0.7389862304	-2.730521718	 0.5832573739	-0.290686
C	 0.2620262088	-1.6700009198	 1.5904061254	-0.08572
O	 0.6254770735	-0.3464584422	 1.2519820682	-0.251535
H	 1.4292315744	 1.787723407	-0.1216678314	 0.126927
H	-0.1902388	 2.1803099824	-0.7409350604	 0.119505
H	 0.1146255286	 2.1397650212	 1.0093899803	 0.133337
H	-1.1106986494	 0.0794558228	 0.2089835606	 0.079891
H	 0.15085346	 0.1003174005	-2.0444894936	 0.118606
H	 1.4843976905	-0.6874088255	-1.1800751519	 0.115814
H	-1.2271831743	-3.8415404664	-1.80102953	 0.216359
H	 0.723915645	-3.7144267761	 1.0555726285	 0.136492
H	 1.7784669524	-2.5062898888	 0.3143362719	 0.122778
H	-0.8280627893	-1.7506391558	 1.7297047752	 0.102847
H	 0.7378564486	-1.8604656063	 2.5564777804	 0.114938
58.178	147.4954	204.5149	236.6159	267.4342	319.912	326.1809	367.2252	459.7496	474.1069	519.222	604.3233	682.8847	756.8074	835.9726	880.2096	921.6138	929.9237	941.6693	971.5141	1050.5916	1071.0997	1091.6811	1136.438	1145.5677	1150.2028	1175.6106	1221.3057	1283.6847	1304.2102	1317.066	1345.0246	1362.4721	1388.4392	1408.5861	1417.9609	1420.8755	1461.0967	1483.8563	1492.4627	1496.6347	1503.2318	1742.3157	2963.982	2982.3514	3031.4556	3043.8445	3046.0046	3087.9722	3102.4024	3117.3482	3123.4098	3133.2472	3455.4427
CC1COC(=N)CCO1	C[C@H]1CO[C]([NH])CCO1	
InChI=1S/C6H11NO2/c1-5-4-9-6(7)2-3-8-5/h5,7H,2-4H2,1H3	InChI=1S/C6H11NO2/c1-5-4-9-6(7)2-3-8-5/h5,7H,2-4H2,1H3/t5-/m0/s1
