21
gdb 108862	2.77195	1.13412	0.99426	2.4517	81.02	-0.2435	0.0083	0.2518	1309.7628	0.182351	-424.239538	-424.229969	-424.229025	-424.274165	35.958	
C	 0.2670000175	 1.5989586526	-0.1339406146	-0.376773
C	-0.1030390602	 0.1355884745	 0.1671201492	-0.298255
C	 0.6152115765	-0.4305750389	 1.3550907011	 0.367981
C	 0.1008255845	-0.8251458166	 2.5228625956	-0.221677
C	 1.1364560405	-1.4765447045	 3.4163423289	 0.110757
O	 1.0165313253	-2.8982201611	 3.3957122185	-0.44187
C	 2.4569539545	-0.9722023805	 2.7924013095	-0.265302
C	 2.10210557	-0.7500046848	 1.3110020879	-0.003076
O	 2.2216327562	-1.954169454	 0.5317805432	-0.442992
H	 1.3381196425	 1.7111850698	-0.3300988885	 0.118089
H	-0.2704137679	 1.9597453362	-1.0161690396	 0.115731
H	 0.0119047783	 2.2489573722	 0.7089083116	 0.119765
H	-1.1844073313	 0.0581170203	 0.3238899682	 0.102576
H	 0.1355577757	-0.4821351384	-0.70843674	 0.119872
H	-0.9516091428	-0.7935253914	 2.7849581108	 0.093228
H	 1.0408574726	-1.1996747362	 4.4703458658	 0.079162
H	 1.0983943099	-3.1563446592	 2.4683676975	 0.278908
H	 2.7476451142	-0.0187028898	 3.2468187717	 0.099622
H	 3.2736579108	-1.685375403	 2.9345791772	 0.094251
H	 2.7009286535	 0.0466920385	 0.8492217126	 0.0654
H	 3.1598028698	-2.1358414557	 0.4109571236	 0.284602
67.7989	78.1493	121.8404	190.5162	214.9943	267.1469	324.3801	369.1187	402.6519	419.6476	469.6551	512.8134	577.1723	674.8307	786.9309	799.5129	810.634	865.8615	902.5304	911.7311	961.9006	977.2132	1004.8633	1048.0376	1061.6502	1082.7341	1095.4698	1158.5804	1201.9756	1218.5046	1262.0566	1262.9295	1299.046	1315.9055	1334.5735	1354.5048	1360.5231	1408.9132	1416.6721	1445.5319	1469.2387	1480.5083	1498.9118	1506.5213	1710.0456	3006.5128	3025.5119	3036.6464	3047.0169	3067.7261	3071.5018	3101.536	3106.9005	3110.2633	3188.4479	3769.4485	3806.5733
CCC1=CC(O)CC1O	CCC1=C[C@@H](O)C[C@H]1O	
InChI=1S/C7H12O2/c1-2-5-3-6(8)4-7(5)9/h3,6-9H,2,4H2,1H3	InChI=1S/C7H12O2/c1-2-5-3-6(8)4-7(5)9/h3,6-9H,2,4H2,1H3/t6-,7-/m1/s1
