19
gdb 91900	2.34674	1.53403	1.01291	0.9776	77.15	-0.2392	-0.0015	0.2377	1188.3941	0.159232	-423.018927	-423.01044	-423.009496	-423.051929	32.676	
C	-0.1227356634	 1.5130967202	 0.087510565	-0.491233
C	-0.0353434465	 0.0152800334	 0.0042854319	 0.319205
C	-0.1391895792	-0.675995135	-1.1336916937	-0.202189
C	-0.0426022362	-2.1827259458	-1.2262772047	 0.081702
O	 0.3952829117	-2.5995215412	-2.5153181004	-0.43147
C	 0.8465105268	-2.7752914133	-0.1173999658	-0.256521
C	 0.6052180613	-2.12675207	 1.2392376971	 0.024972
O	 1.5225123639	-1.0929512935	 1.6219084455	-0.257848
C	 0.1687037111	-0.7258363834	 1.2849880538	-0.048467
H	 0.7961096694	 1.9324163915	 0.5157821468	 0.139145
H	-0.2800529763	 1.962093463	-0.8965181355	 0.124292
H	-0.9452778032	 1.8278138712	 0.7423968334	 0.125817
H	-0.3162416366	-0.1665122931	-2.0788161737	 0.092899
H	-1.0525368724	-2.6080735213	-1.1443813613	 0.102892
H	 1.272865153	-2.225789773	-2.6559050761	 0.277118
H	 0.6961538561	-3.8574412308	-0.0668520842	 0.107612
H	 1.895407483	-2.6037229529	-0.3865670225	 0.109032
H	 0.3246705095	-2.7867843966	 2.0592615109	 0.093769
H	-0.410043062	-0.3738093993	 2.1400533235	 0.089272
84.4754	151.7003	194.0976	214.8247	291.25	320.4818	378.3185	410.6267	445.653	469.1127	530.8536	626.8738	645.991	785.87	825.2687	865.0242	902.8359	947.5384	959.9603	1003.8725	1032.1076	1065.5794	1068.5103	1089.3346	1130.0099	1142.8889	1179.0711	1215.3459	1262.6555	1283.1308	1306.8841	1345.6394	1359.2107	1389.113	1411.5729	1421.6433	1463.8932	1473.404	1478.1979	1490.9104	1728.4532	3009.5717	3019.1259	3039.9692	3068.2203	3091.623	3097.9673	3115.0112	3117.0307	3151.3325	3792.5615
CC1=CC(O)CC2OC12	CC1=C[C@@H](O)C[C@H]2O[C@@H]12	
InChI=1S/C7H10O2/c1-4-2-5(8)3-6-7(4)9-6/h2,5-8H,3H2,1H3	InChI=1S/C7H10O2/c1-4-2-5(8)3-6-7(4)9-6/h2,5-8H,3H2,1H3/t5-,6-,7+/m1/s1
