18
gdb 83401	2.6375	1.3758	1.118	13.0534	73.45	-0.1782	-0.0184	0.1598	1137.1774	0.14803	-439.021902	-439.013306	-439.012362	-439.055475	31.813	
C	-0.0258096594	 1.482319066	-0.2248278789	-0.446923
C	 0.1170067311	-0.0064814937	-0.0008560656	-0.046841
C	 1.3916793399	-0.7783793074	-0.1017059877	-0.116008
N	 2.5448770375	 0.0076656666	 0.4938940712	-0.282692
H	 3.4089947959	-0.5290170046	 0.5373630422	 0.312076
H	 2.7422116108	 0.9124677847	 0.0609759553	 0.296381
C	 1.7958750247	 0.0353252199	 1.8517569647	-0.260808
C	 0.6225914574	-0.6994119387	 1.2298383476	 0.208029
C	-0.064717064	-1.8980942561	 1.9428229387	 0.294901
O	 0.395623209	-2.0897654913	 3.0825473188	-0.484343
O	-0.907654128	-2.4728666066	 1.2408157005	-0.479203
H	 0.786920522	 2.0716676212	 0.2189162619	 0.088999
H	-0.0645658059	 1.7218200969	-1.2924454237	 0.133433
H	-0.9524176681	 1.8401815305	 0.2329656182	 0.158142
H	-0.6905981513	-0.621076139	-0.3991192635	 0.153726
H	 1.6344560512	-1.6023622087	-0.7597429267	 0.144163
H	 2.3076299016	-0.6027385242	 2.5707994337	 0.184495
H	 1.6819631957	 1.0558926845	 2.2237112732	 0.142473
68.4952	124.9109	162.5913	186.8712	213.985	254.8911	339.6566	435.558	489.5332	563.6457	695.0034	719.3668	763.3781	770.947	806.2515	852.2253	884.5094	908.4461	926.1444	970.6561	1034.4902	1052.0411	1098.1429	1108.9686	1155.8612	1202.0498	1211.2367	1240.1335	1245.6149	1306.7135	1314.2004	1331.1694	1417.5211	1451.6234	1484.1582	1499.8172	1507.835	1621.3449	1794.4839	3020.9108	3080.6907	3084.0933	3112.1123	3131.7332	3174.9889	3206.2666	3423.4413	3528.8853
CC1C2[NH2+]CC12C([O-])=O	C[C@H]1[C@H]2[NH2]C[C@@]12C(=O)[O]	
InChI=1S/C6H9NO2/c1-3-4-6(3,2-7-4)5(8)9/h3-4,7H,2H2,1H3,(H,8,9)	InChI=1S/C6H9NO2/c1-3-4-6(3,2-7-4)5(8)9/h3-4H,2,7H2,1H3/t3-,4+,6+/m0/s1
