19
gdb 64590	3.78951	1.12302	1.11665	2.4574	77.6	-0.2471	-0.0299	0.2172	1171.8787	0.159871	-423.040149	-423.031917	-423.030973	-423.073172	31.609	
O	-0.1075183502	 1.3601550977	 0.0078327935	-0.469517
C	-0.0672107789	-0.0247803557	-0.0002411524	 0.361498
C	 1.0375458649	-0.5721278499	-0.8061957756	 0.086268
O	 1.8179307107	 0.1473343551	-1.3927995667	-0.298323
C	-0.4802031109	-0.7974523098	 1.2520891501	-0.127298
C	-1.1453237881	 0.0516639262	 2.3360362711	-0.230252
C	-2.6166626479	 0.2157755014	 1.8756419576	-0.186451
C	-2.6187166472	 0.0204308686	 0.3376010515	-0.230252
C	-1.373982555	-0.81639894	 0.039812414	-0.127298
H	 0.6414396917	 1.6292404225	-0.5485678427	 0.298116
H	 1.1143996891	-1.677812993	-0.8455767694	 0.089705
H	 0.1155717405	-1.6588131529	 1.5352824768	 0.090836
H	-1.0743575727	-0.4393928201	 3.309783827	 0.099294
H	-0.6460058696	 1.0214113097	 2.4177799789	 0.125452
H	-3.2276457902	-0.5671599044	 2.3383398147	 0.100443
H	-3.0434960603	 1.1767233861	 2.1753163764	 0.102198
H	-3.5204506276	-0.4912448671	-0.0079723865	 0.099294
H	-2.5635662141	 0.9807628186	-0.1831017686	 0.125451
H	-1.4553767544	-1.692114693	-0.5954714197	 0.090836
80.3505	88.6808	215.9263	219.1908	308.2451	317.4	392.4729	420.5288	560.0268	581.4868	637.4703	715.7126	753.5705	829.8523	831.6576	873.1499	884.5094	902.0057	958.6216	1002.6554	1025.4981	1054.4537	1059.7853	1077.9439	1079.681	1156.5753	1188.7686	1217.7198	1253.9092	1298.7076	1311.5454	1327.3997	1329.8622	1353.6867	1358.584	1389.3545	1460.6456	1487.0138	1487.4423	1507.4873	1782.414	2927.6948	3041.1293	3059.5856	3060.2791	3088.1807	3101.043	3110.2781	3155.9941	3164.5188	3684.7408
OC1(C=O)C2CCCC12	O[C@@]1(C=O)[C@H]2CCC[C@@H]12	
InChI=1S/C7H10O2/c8-4-7(9)5-2-1-3-6(5)7/h4-6,9H,1-3H2	InChI=1S/C7H10O2/c8-4-7(9)5-2-1-3-6(5)7/h4-6,9H,1-3H2/t5-,6+,7-
