25
gdb 99265	4.23891	0.59769	0.54352	2.4374	90.41	-0.2403	-0.0053	0.235	2153.0923	0.225279	-389.532024	-389.520125	-389.519181	-389.571451	41.753	
C	 0.1499699672	 1.5593063066	 0.1688917248	-0.374608
C	-0.0547670276	 0.0769505208	-0.1330099858	-0.274977
C	-1.4922004952	-0.3946428327	 0.0584424574	 0.375904
O	-2.3918697855	 0.3805290707	 0.2923699962	-0.299377
C	-1.7247292889	-1.8981361549	-0.0572890641	-0.31411
C	-3.2017809587	-2.2922983016	-0.0965187884	-0.159478
C	-3.4681720818	-3.8044904772	 0.000072038	 0.035519
C	-4.9733791145	-4.0701770531	 0.139943527	-0.388603
C	-2.892978036	-4.5840078938	-1.1915670153	-0.38111
H	 1.1867868373	 1.8534925626	-0.0167751144	 0.108126
H	-0.504278811	 2.1752660261	-0.4525218074	 0.133956
H	-0.0902168399	 1.7830742214	 1.2118317149	 0.127419
H	 0.2257968442	-0.1543695426	-1.1707968599	 0.122011
H	 0.6008313137	-0.5536869674	 0.482592461	 0.11528
H	-1.1757147111	-2.2642591574	-0.9338044651	 0.114491
H	-1.2248751235	-2.3647446428	 0.8057986728	 0.119228
H	-3.71247517	-1.7782658614	 0.7243749221	 0.112459
H	-3.6559109697	-1.9003513573	-1.0163056882	 0.098109
H	-2.9762892299	-4.1730374027	 0.9129611026	 0.067266
H	-5.5158688536	-3.72006445	-0.7464926029	 0.112595
H	-5.1798315892	-5.1395906493	 0.2535134592	 0.107301
H	-5.3904342351	-3.5517886899	 1.0095461402	 0.111899
H	-3.3314031716	-4.2330264614	-2.1338879145	 0.111367
H	-1.8063958534	-4.4794923171	-1.2704521881	 0.108748
H	-3.1130416861	-5.6531234354	-1.1034048824	 0.110583
15.4036	42.9964	70.1005	101.1472	114.6905	191.2844	220.682	231.8306	244.547	262.4024	324.4797	400.427	413.2489	466.4144	486.6399	644.9501	709.9608	785.4026	808.1157	856.2459	924.485	926.4378	955.6414	968.7314	991.1193	1022.9571	1042.8737	1071.9753	1125.7664	1147.7542	1154.1774	1193.6752	1226.0941	1281.2523	1289.8179	1320.7899	1351.9943	1367.5097	1375.1718	1395.5903	1400.5523	1412.8946	1422.5485	1447.2914	1458.2787	1483.4211	1488.4403	1492.1065	1496.7785	1498.0667	1505.0237	1510.5511	1806.1041	2988.6181	3000.5355	3014.7376	3023.3885	3025.7382	3031.2508	3041.7972	3050.1382	3051.2082	3080.2077	3087.6654	3094.1239	3099.4506	3101.3952	3119.673	3129.4041
CCC(=O)CCC(C)C	CCC(=O)CCC(C)C	
InChI=1S/C8H16O/c1-4-8(9)6-5-7(2)3/h7H,4-6H2,1-3H3	InChI=1S/C8H16O/c1-4-8(9)6-5-7(2)3/h7H,4-6H2,1-3H3
