19
gdb 94527	2.48553	1.20337	1.10554	1.3472	76.37	-0.2465	-0.0935	0.153	1215.4413	0.157235	-423.038192	-423.028771	-423.027827	-423.07369	33.487	
C	-0.490264068	 1.5088130349	 0.4856285994	-0.4073
C	-0.2339250199	 0.0209573534	 0.2721889645	 0.01105
C	 0.6536708713	-0.306160245	-0.964296809	-0.221369
C	 1.8626240901	-0.5611906691	-0.0264640182	-0.246688
C	 0.8971394153	-0.6300918082	 1.1792218696	-0.092679
C	 1.2680941318	 0.1147966248	 2.4245380936	 0.276895
O	 2.1457809327	 0.946671371	 2.5078449222	-0.290579
C	 0.4362154308	-0.1659481462	 3.6853343415	 0.092171
O	-0.4685130602	-0.9580504032	 3.7253411522	-0.221934
H	 0.4408352868	 2.084963469	 0.4917627916	 0.13353
H	-1.1199829744	 1.898193779	-0.3213476811	 0.119214
H	-1.0091526785	 1.6997514655	 1.431479707	 0.11766
H	-1.1778452272	-0.5266571986	 0.3220538851	 0.08744
H	 0.3263176298	-1.2113147062	-1.4820783228	 0.104194
H	 0.7609447554	 0.4945304704	-1.7007697148	 0.101183
H	 2.4642075743	-1.4521799853	-0.2168789092	 0.104883
H	 2.5284862145	 0.3003742576	 0.0580540323	 0.125741
H	 0.599308818	-1.6460025077	 1.4481441854	 0.101069
H	 0.7561981574	 0.444518634	 4.5567001606	 0.105519
29.0756	78.8049	121.1401	134.9718	186.837	259.9271	286.1812	340.3936	371.7157	504.6465	560.2453	639.1777	674.4952	751.3182	776.3301	884.4331	891.9362	930.629	964.3821	980.5596	1010.0784	1049.9279	1082.4304	1123.7962	1148.3899	1179.0464	1222.2927	1237.0743	1258.942	1274.3584	1282.3167	1358.6879	1362.133	1383.7057	1414.473	1481.4591	1493.4185	1499.3977	1500.5967	1787.7604	1821.7095	2918.7062	3028.9102	3057.2609	3070.751	3074.3191	3090.3955	3094.376	3104.8619	3108.1468	3131.1485
CC1CCC1C(=O)C=O	C[C@H]1CC[C@H]1C(=O)C=O	
InChI=1S/C7H10O2/c1-5-2-3-6(5)7(9)4-8/h4-6H,2-3H2,1H3	InChI=1S/C7H10O2/c1-5-2-3-6(5)7(9)4-8/h4-6H,2-3H2,1H3/t5-,6+/m0/s1
