23
gdb 119148	2.41138	1.10489	0.90754	0.5348	82.21	-0.2409	0.0706	0.3115	1426.4725	0.202626	-425.407512	-425.396709	-425.395764	-425.443596	39.874	
C	-1.2465767405	 1.6161813113	-0.9640871522	-0.384553
C	-1.4502592472	 0.1289168308	-1.2006757249	-0.054001
O	-1.2727506674	-0.5400641535	 0.0428085887	-0.300838
C	-1.592699674	-1.9065146898	 0.0449130445	 0.434844
C	-2.2946069576	-2.3682469501	 1.2874607377	-0.323336
C	-3.0484534103	-2.2839266422	-0.0258066637	-0.326919
C	-0.5309136624	-2.7946882382	-0.6127800203	 0.059007
C	 0.8376955292	-2.6123733061	 0.0411248763	-0.40701
O	-0.9288771632	-4.1619644138	-0.6321225112	-0.430008
H	-1.3651495033	 2.1708092	-1.8998071447	 0.114399
H	-1.9744794444	 1.9932029207	-0.2400209278	 0.124784
H	-0.2440195604	 1.8092946098	-0.571563803	 0.125715
H	-2.4578002251	-0.0696990399	-1.5939201949	 0.093136
H	-0.730842066	-0.2371431293	-1.9484623654	 0.092036
H	-2.0729890602	-3.3523403304	 1.6862779875	 0.094108
H	-2.4952107972	-1.6089375655	 2.034055965	 0.120914
H	-3.7684422134	-1.48057432	-0.1340064844	 0.11193
H	-3.3023853802	-3.2128461261	-0.5215325498	 0.128597
H	-0.4613575339	-2.5169080854	-1.6718895479	 0.085512
H	 0.8051553158	-2.9312850364	 1.0906846177	 0.108666
H	 1.5932276674	-3.2064477909	-0.4802875874	 0.117267
H	 1.1349730173	-1.5612322414	 0.0289536391	 0.134034
H	-0.7302037929	-4.5358983737	 0.232739501	 0.281715
50.7073	65.5766	109.0411	186.8222	223.7723	232.4628	251.2463	258.6891	286.5094	334.0756	344.7664	406.5626	453.2932	497.4455	602.1956	685.5195	778.7722	819.4397	851.0138	889.2408	902.5846	949.2461	976.7881	996.0084	1051.4835	1064.5433	1076.6332	1081.6741	1091.705	1135.1201	1146.3734	1186.9175	1193.3557	1253.7307	1298.6946	1304.1466	1332.4816	1364.6301	1396.7888	1400.2671	1421.1898	1427.7221	1441.7247	1482.6716	1488.2865	1491.9563	1497.2254	1500.5593	1529.0204	2985.3243	3017.5421	3026.6607	3034.9392	3043.8173	3102.0685	3118.1689	3120.5755	3133.258	3135.3677	3142.8836	3221.9067	3239.3673	3810.1246
CCOC1(CC1)C(C)O	CCOC1(CC1)[C@@H](C)O	
InChI=1S/C7H14O2/c1-3-9-7(4-5-7)6(2)8/h6,8H,3-5H2,1-2H3	InChI=1S/C7H14O2/c1-3-9-7(4-5-7)6(2)8/h6,8H,3-5H2,1-2H3/t6-/m1/s1
