17
gdb 69941	4.15462	1.38838	1.20803	2.576	74.24	-0.2465	-0.0153	0.2313	1043.7239	0.135772	-421.764668	-421.75728	-421.756336	-421.796245	28.976	
C	-0.1115561237	 1.526386466	 0.0188530955	-0.488941
C	 0.1308490002	 0.045434038	-0.0278428752	 0.389072
O	-0.6946891086	-0.7699534171	 0.8434714801	-0.277157
C	 0.7073638474	-0.7784774057	 1.077279812	-0.077458
C	 1.5244383319	-1.8737337478	 0.4078071908	 0.095569
O	 1.1422270256	-3.2883139711	 0.3465541605	-0.300121
C	 1.162485884	-3.2729200239	-1.1157165269	-0.138228
C	 1.1435781735	-1.7648425309	-1.0370609229	 0.139446
C	 0.3567618008	-0.7248789719	-1.30810278	-0.254891
H	 0.7410763633	 2.0704862581	-0.4001228566	 0.128396
H	-0.9984490669	 1.7892619342	-0.568325917	 0.131387
H	-0.2754090281	 1.859552743	 1.0462288682	 0.134442
H	 1.0263606898	-0.3408147748	 2.0194717162	 0.094197
H	 2.5843300834	-1.7816417603	 0.6800347108	 0.081304
H	 2.081691483	-3.7323627897	-1.5011833172	 0.108518
H	 0.2862834814	-3.7624724386	-1.5517260604	 0.126396
H	-0.243817217	-0.5641989176	-2.1957588178	 0.108067
146.8104	180.1236	199.375	266.6979	303.9182	394.1445	478.4701	527.4182	572.3358	723.2921	736.0243	786.5034	796.2049	841.3953	886.2496	903.1678	937.6384	958.8479	997.6985	1016.9239	1037.1854	1065.7859	1080.3119	1137.7735	1141.7519	1199.228	1255.8748	1295.5412	1302.9383	1319.9159	1340.2311	1404.5834	1427.6329	1481.9494	1492.8822	1510.6153	1715.0682	3013.3513	3019.9733	3037.1797	3084.9636	3098.7374	3128.4022	3150.3074	3201.5557
CC12OC1C1OCC1=C2	C[C@]12O[C@H]1[C@H]1OC[C]1[CH]2	
InChI=1S/C7H8O2/c1-7-2-4-3-8-5(4)6(7)9-7/h2,5-6H,3H2,1H3	InChI=1S/C7H8O2/c1-7-2-4-3-8-5(4)6(7)9-7/h2,5-6H,3H2,1H3/t5-,6-,7+/m0/s1
