22
gdb 60478	5.51955	0.50325	0.47805	4.8377	84.94	-0.2621	0.0368	0.2989	2283.6099	0.191541	-404.36952	-404.358396	-404.357452	-404.407432	38.493	
C	-0.1901931395	 1.4663380842	-0.0088093949	-0.393652
C	 0.0268815529	-0.0495666821	-0.0231023476	 0.156745
C	 0.9173519668	-0.4907137495	-1.1790969066	-0.387703
O	 0.6635019513	-0.5091106134	 1.1677490163	-0.258602
C	-0.1446037109	-0.5328678712	 2.3188111423	-0.062905
C	 0.6415762713	-1.2308281344	 3.4236113383	-0.19223
C	-0.1608481518	-1.2905453085	 4.7367221402	-0.342973
C	 0.5733790457	-1.9502699554	 5.8137662778	 0.258839
N	 1.1639073489	-2.4738582587	 6.6577231235	-0.302535
H	 0.7680617787	 1.983828166	 0.1030518635	 0.124192
H	-0.6520620506	 1.7927336053	-0.9458737973	 0.117613
H	-0.8471312959	 1.7785718279	 0.8081023377	 0.114909
H	-0.9530628455	-0.5494777222	-0.111805533	 0.064335
H	 1.9003816483	-0.015266471	-1.1028391403	 0.124899
H	 1.0592574081	-1.574275015	-1.1597254119	 0.12194
H	 0.4718242824	-0.2119315894	-2.1384125756	 0.113846
H	-0.4210504436	 0.4840161853	 2.6437939112	 0.089178
H	-1.0871844732	-1.0734671026	 2.1199764207	 0.085246
H	 0.9012007753	-2.2425549632	 3.0983636942	 0.130505
H	 1.5819313279	-0.6959758615	 3.5872822398	 0.132286
H	-0.4258777305	-0.2797894881	 5.0696111021	 0.15315
H	-1.105017116	-1.8272873524	 4.5847548795	 0.152919
31.8261	59.0094	80.4889	99.8694	138.9212	184.7698	207.6365	246.2941	278.1619	334.297	397.9618	403.0375	451.9342	509.0162	568.8118	755.697	828.72	868.6588	919.854	926.0597	942.0242	957.1981	1038.1041	1075.9468	1119.7767	1124.9684	1154.8754	1171.8742	1199.9096	1220.6011	1275.8218	1299.6313	1312.1577	1360.6186	1367.5907	1378.438	1397.574	1414.1897	1441.698	1470.3422	1480.6832	1485.2061	1495.5817	1498.1176	1509.5514	1528.7399	2364.2913	2943.4972	2955.4909	2975.65	3036.1059	3037.5905	3043.9638	3063.3384	3070.2234	3108.9339	3111.1718	3111.8744	3118.0217	3124.5884
CC(C)OCCCC#N	CC(C)OCCCC#N	
InChI=1S/C7H13NO/c1-7(2)9-6-4-3-5-8/h7H,3-4,6H2,1-2H3	InChI=1S/C7H13NO/c1-7(2)9-6-4-3-5-8/h7H,3-4,6H2,1-2H3
