19
gdb 88238	4.21717	0.72563	0.66335	1.7438	88.67	-0.2304	0.0389	0.2693	1723.7651	0.15804	-385.831375	-385.821942	-385.820998	-385.867575	34.389	
O	 0.0267411165	 1.420044255	 0.1053878389	-0.428268
C	 0.0198752646	 0.0316880279	 0.0746266851	 0.149036
C	-0.4146453792	-0.7574669954	 1.2721580339	-0.313955
C	-1.309678393	-0.7153723502	 0.0281976064	-0.232955
C	-2.5035557599	 0.0751095374	 0.0414375001	 0.010095
C	-3.468906907	 0.8035158806	 0.0309655964	 0.126842
C	-4.640147295	 1.6307286751	 0.0410486046	-0.160518
C	-4.7520941365	 2.8212397161	-0.9009354983	-0.253467
C	-5.5992386667	 1.6088194057	-1.1405861678	-0.249536
H	-0.8898861196	 1.7175035825	 0.0184814541	 0.28645
H	 0.8254574855	-0.3678531452	-0.5354519914	 0.103228
H	 0.0791022875	-1.6968381576	 1.4958519846	 0.116516
H	-0.7540195166	-0.1934359941	 2.1329943779	 0.128395
H	-1.3437419947	-1.6177546669	-0.5749266279	 0.111105
H	-5.1024195138	 1.7603311806	 1.0156328922	 0.111399
H	-5.2230566491	 3.7167983195	-0.5117871013	 0.120459
H	-3.918167769	 3.0001108331	-1.5691314134	 0.126057
H	-5.3412161224	 0.9617069153	-1.970080999	 0.128414
H	-6.6587369015	 1.6613685105	-0.917245385	 0.120703
15.8201	74.4598	94.0497	174.9353	177.7235	250.324	349.2964	394.3201	453.2455	495.1483	527.0123	611.8414	693.1495	775.3738	786.6932	813.0608	822.8911	870.5895	894.934	940.4395	992.0412	1031.4739	1050.5978	1062.5271	1081.4194	1100.4434	1112.0923	1118.9391	1143.9823	1192.3824	1201.3152	1223.7566	1238.2482	1356.5437	1360.7954	1403.266	1421.5013	1467.1372	1473.2245	1497.7411	2339.6741	3137.2319	3140.8259	3141.5824	3141.7563	3147.1849	3151.1589	3226.1138	3234.885	3241.304	3725.0422
OC1CC1C#CC1CC1	O[C@H]1C[C@H]1C#CC1CC1	
InChI=1S/C8H10O/c9-8-5-7(8)4-3-6-1-2-6/h6-9H,1-2,5H2	InChI=1S/C8H10O/c9-8-5-7(8)4-3-6-1-2-6/h6-9H,1-2,5H2/t7-,8+/m1/s1
