17
gdb 18061	4.82684	1.38241	1.31295	1.4482	73.69	-0.2384	0.0485	0.287	983.5144	0.141713	-326.635206	-326.62771	-326.626766	-326.667391	28.666	
C	 0.0513286891	-0.9928928076	-0.5804898809	-0.454948
C	 0.040680201	 0.0997619562	-0.0813575244	 0.333046
C	 0.0173585574	 1.4352632773	 0.5066882206	-0.313321
N	 1.2835187555	 2.1361970587	 0.2791513791	-0.072826
C	 1.6408766633	 2.7083015913	-0.9985247426	-0.027225
C	 0.443872132	 3.3291725574	-1.7439825042	-0.245007
C	 0.176570283	 4.2393621639	-0.503858167	-0.247971
C	 1.3727304737	 3.5798156835	 0.2108146403	-0.04041
H	 0.0615154279	-1.9622400999	-1.0137093814	 0.197349
H	-0.8644266014	 1.9722042688	 0.1253354692	 0.120155
H	-0.1162815759	 1.3581988772	 1.592737426	 0.135211
H	 2.5797798583	 2.4023545323	-1.4468214836	 0.094773
H	 0.7522115615	 3.9050464942	-2.6186616897	 0.107482
H	-0.3460904059	 2.6356082928	-2.0464546557	 0.109467
H	 0.3673162391	 5.2923542941	-0.7215484209	 0.109037
H	-0.7984513976	 4.163353212	-0.0121871794	 0.101766
H	 2.0622001093	 4.078767228	 0.8837416446	 0.093424
42.8783	136.8088	259.5528	268.1101	336.1324	379.929	505.4597	543.1514	611.3442	656.0866	740.2728	780.7653	800.1386	838.5096	905.5961	945.9384	947.8246	978.862	986.7814	1011.9176	1049.8009	1055.4202	1101.2646	1133.6838	1216.1985	1222.1955	1249.617	1257.0856	1277.0026	1282.6302	1357.8957	1395.7516	1474.941	1488.1995	1506.9731	2243.1191	2987.9741	3042.5708	3052.8947	3063.5048	3103.6681	3122.0064	3162.1972	3175.7737	3506.4445
C#CCN1C2CCC12	C#CCN1[C@H]2CC[C@@H]12	
InChI=1S/C7H9N/c1-2-5-8-6-3-4-7(6)8/h1,6-7H,3-5H2	InChI=1S/C7H9N/c1-2-5-8-6-3-4-7(6)8/h1,6-7H,3-5H2/t6-,7+,8?
