20
gdb 57514	2.60999	1.0764	0.91704	2.3358	77.27	-0.2469	-0.0743	0.1726	1362.4412	0.167764	-440.336481	-440.326122	-440.325178	-440.371717	37.815	
C	 0.0705652534	 1.5914745537	 0.2397641108	-0.402767
C	 0.053961031	 0.0708546344	 0.0005168847	 0.276435
C	 0.5186022524	-0.6762563246	 1.2637402946	-0.402766
C	-1.3525846565	-0.3896269946	-0.4038348844	-0.427368
N	 0.947225006	-0.2619756992	-1.1274033214	-0.334398
C	 2.2716740321	-0.0299522211	-1.1931289507	 0.308725
O	 2.9855571286	 0.491673829	-0.3498064626	-0.377154
C	 2.8911696789	-0.5038393153	-2.5141318837	 0.110892
O	 2.2660043754	-1.0275647482	-3.4003442194	-0.251023
H	 1.0796045369	 1.927887591	 0.4842378161	 0.152638
H	-0.2708851487	 2.126742098	-0.6516871637	 0.110979
H	-0.5952000819	 1.8473236256	 1.069754915	 0.112738
H	-0.1431864273	-0.4407285159	 2.1028761385	 0.112734
H	 0.4967756438	-1.7585518026	 1.102669589	 0.110987
H	 1.536103901	-0.3827286047	 1.5276154238	 0.152645
H	-1.6925889664	 0.12573851	-1.3086886222	 0.120822
H	-1.3774783051	-1.4690728085	-0.5885982622	 0.120834
H	-2.0642637929	-0.1691076794	 0.3959683834	 0.127707
H	 0.5555081913	-0.7085521307	-1.9459164	 0.260495
H	 3.981161798	-0.310661357	-2.5636000557	 0.116845
53.05	111.6546	147.281	178.6857	217.2902	235.0835	270.5926	274.1681	316.0999	340.2465	408.0797	428.0053	455.1163	533.3286	553.6533	646.1703	657.2335	793.7135	912.5664	925.151	937.8826	965.6795	1010.2897	1025.706	1055.8794	1069.0752	1237.2984	1247.3156	1250.0997	1292.0961	1360.1542	1395.3449	1398.8188	1428.4337	1472.6424	1490.147	1492.2536	1495.0423	1504.9462	1524.7202	1551.9332	1773.9338	1821.9843	2953.4468	3031.0327	3039.9072	3045.4248	3097.9359	3107.9493	3110.2869	3121.5339	3140.9391	3144.4719	3588.083
CC(C)(C)NC(=O)C=O	CC(C)(C)NC(=O)C=O	
InChI=1S/C6H11NO2/c1-6(2,3)7-5(9)4-8/h4H,1-3H3,(H,7,9)	InChI=1S/C6H11NO2/c1-6(2,3)7-5(9)4-8/h4H,1-3H3,(H,7,9)
