14
gdb 20339	5.22559	2.09798	1.51086	2.4306	69.79	-0.2077	-0.0158	0.192	780.8801	0.111409	-341.60888	-341.603205	-341.602261	-341.638391	22.782	
C	-0.0555917069	 1.5364283424	 0.0108256311	-0.423573
C	 1.4259878953	 1.8904420788	-0.0014543596	-0.07312
C	 2.2024271218	 0.7860857857	-0.0148824881	-0.200107
C	 1.3114703335	-0.3625930624	-0.0124624724	 0.373096
C	-0.0143323841	 0.0348080032	 0.0024170099	 0.207448
C	-0.7471618062	-1.1631552758	 0.0030900893	-0.159267
N	 0.0641040936	-2.2272602817	-0.0104508012	-0.232207
N	 1.3216996033	-1.7126667586	-0.0198223105	-0.342265
H	-0.5532385794	 1.9554841535	 0.8954481891	 0.132323
H	-0.5700837051	 1.964886663	-0.8595418825	 0.132328
H	 1.7840901007	 2.9120377029	 0.0005994446	 0.103922
H	 3.2837493596	 0.7596948137	-0.0254314805	 0.10464
H	-1.8154276057	-1.3235901514	 0.012515019	 0.107204
H	 2.1008115597	-2.3476902532	-0.0307402382	 0.269578
211.0429	272.2435	427.8122	436.9076	487.3868	648.3569	664.9578	694.5213	725.3856	743.3718	862.8795	879.9115	927.3957	934.9799	942.1127	981.4661	1089.5308	1092.8161	1138.0304	1160.0203	1223.0913	1248.667	1305.7993	1354.0432	1396.5565	1429.5567	1460.3447	1543.3397	1565.858	1610.7542	3026.4835	3052.1188	3210.0952	3232.8402	3242.548	3679.8822
C1C=CC2=C1C=NN2	C1C=Cc2c1cn[nH]2	
InChI=1S/C6H6N2/c1-2-5-4-7-8-6(5)3-1/h1,3-4H,2H2,(H,7,8)	InChI=1S/C6H6N2/c1-2-5-4-7-8-6(5)3-1/h1,3-4H,2H2,(H,7,8)
