19
gdb 79957	2.55006	1.60182	1.38535	1.5487	76.	-0.2341	0.0002	0.2343	1020.0651	0.158521	-423.013444	-423.00499	-423.004045	-423.045667	33.964	
C	-0.2047311228	 1.5893444603	 0.0127828357	-0.445641
C	 0.0226685052	 0.0737121627	-0.0194245248	 0.368283
O	-1.2437752134	-0.6036916991	-0.0487680247	-0.47186
C	 0.9008828876	-0.3999779681	-1.1713459521	-0.170709
C	 1.861487064	-1.2371095223	-0.7638721163	-0.092764
C	 1.8882199203	-1.3791766438	 0.7179855871	-0.158769
C	 2.1856409368	-0.087151907	 1.4623997584	 0.115333
O	 2.8281390395	 1.0031340651	 0.8767441521	-0.421929
C	 0.7524542094	-0.4744008013	 1.2098853567	-0.131465
H	 0.7348510417	 2.1295304905	 0.1479384101	 0.137564
H	-0.6727675377	 1.9294970972	-0.9196484768	 0.097658
H	-0.8735061531	 1.8424612546	 0.8403203009	 0.125625
H	-1.7472221221	-0.2526113732	-0.7917493151	 0.271355
H	 0.7189498648	-0.0927308057	-2.1964532394	 0.09267
H	 2.5806196724	-1.7280737758	-1.4107505232	 0.105867
H	 2.1409324893	-2.3305954973	 1.1723380234	 0.090567
H	 2.5259748595	-0.1993026762	 2.487264729	 0.110458
H	 2.7639014575	 0.8961265558	-0.0817061884	 0.281208
H	 0.1257036412	-0.7528602965	 2.0489261474	 0.096547
156.2835	170.758	225.5446	265.2484	280.1341	300.8767	357.9881	394.5646	410.6872	487.3858	581.5344	610.6277	675.7553	746.2427	750.6265	786.6731	803.5266	858.3208	928.2856	944.1481	967.9298	995.3203	1013.3062	1038.7035	1058.1745	1095.2539	1108.2161	1133.9453	1143.0019	1176.7498	1216.8188	1286.5551	1314.5322	1343.3329	1364.3166	1393.2384	1407.0418	1447.319	1491.8146	1502.1137	1652.1932	3025.4179	3099.3782	3133.8094	3159.0738	3169.8831	3176.0777	3185.2933	3200.7514	3747.7846	3800.1216
CC1(O)C=CC2C(O)C12	C[C@@]1(O)C=C[C@H]2[C@@H](O)[C@@H]12	
InChI=1S/C7H10O2/c1-7(9)3-2-4-5(7)6(4)8/h2-6,8-9H,1H3	InChI=1S/C7H10O2/c1-7(9)3-2-4-5(7)6(4)8/h2-6,8-9H,1H3/t4-,5+,6-,7-/m1/s1
