14
gdb 19997	3.89403	1.40024	1.13723	4.0446	62.77	-0.2744	0.0069	0.2813	1006.5027	0.107287	-378.673872	-378.666547	-378.665603	-378.706219	26.107	
N	-0.1102032262	-1.0988923222	-0.3998108896	-0.331046
C	-0.0472503832	 0.0364910911	-0.1919732474	 0.335516
C	 0.038689115	 1.4614650725	 0.0264479796	-0.200792
N	 0.236972367	 1.9103886978	 1.4162898295	-0.31431
C	 1.3174096222	 2.1205264385	 0.454046628	-0.037431
C	 2.5740853445	 1.3470280276	 0.6766697596	 0.089081
C	 3.7447980608	 1.5436333479	-0.1863513346	-0.17992
O	 3.6935001574	 2.1148732574	 1.121936958	-0.232348
H	-0.6128677519	 2.0401640013	-0.6229181917	 0.137202
H	-0.2877123643	 2.7647053503	 1.5832571562	 0.252591
H	 1.4783792204	 3.1249069602	 0.0662557522	 0.110649
H	 2.4405019025	 0.3907548626	 1.1800228478	 0.125786
H	 4.4535178218	 0.7283590067	-0.318463808	 0.129215
H	 3.6964812039	 2.2557710583	-1.0094224696	 0.115807
64.4793	107.525	194.2378	256.3155	297.9477	380.0346	474.332	580.7815	625.9729	780.1376	832.9216	865.0229	892.251	912.9309	956.6255	984.7076	1036.0507	1097.8673	1130.8287	1157.5014	1168.9017	1198.243	1217.8531	1252.2404	1290.0345	1349.4861	1412.0663	1487.1694	1533.1766	2361.2324	3087.0386	3128.3469	3136.8821	3149.0186	3176.2578	3517.2811
N#CC1NC1C1CO1	N#C[C@H]1N[C@H]1[C@H]1CO1	
InChI=1S/C5H6N2O/c6-1-3-5(7-3)4-2-8-4/h3-5,7H,2H2	InChI=1S/C5H6N2O/c6-1-3-5(7-3)4-2-8-4/h3-5,7H,2H2/t3-,4-,5-/m1/s1
