23
gdb 76884	2.20799	1.78197	1.4713	1.3044	83.38	-0.2546	0.0664	0.3209	1053.118	0.209123	-388.315202	-388.307027	-388.306083	-388.34738	33.753	
C	-0.2531303069	 1.5700890662	 0.0185668883	-0.428383
C	 0.0264511301	 0.0680737704	-0.0239075242	 0.006366
C	 0.7699396298	-0.4708495928	-1.2745832796	-0.00607
C	 2.1326547883	 0.2366128358	-1.4511346777	-0.213889
C	 2.9801807521	-0.3205490297	-0.263641499	-0.205737
C	 2.0054334326	-1.2961316055	 0.4355598255	-0.019188
C	 1.2128503125	-1.8595003246	-0.7623761024	-0.231123
C	 0.9163327024	-0.4785147592	 1.1618369187	 0.11366
O	 1.5238245796	 0.5146535248	 1.975321688	-0.428741
H	 0.6634210336	 2.1611198398	 0.0794861728	 0.131499
H	-0.8061901171	 1.8862412789	-0.8721764917	 0.112045
H	-0.8698952571	 1.8326460499	 0.8868983475	 0.097868
H	-0.9403625196	-0.4487041476	 0.020242525	 0.062825
H	 0.1518532863	-0.464348414	-2.1759290163	 0.048926
H	 2.573714801	-0.0350835123	-2.41536027	 0.090079
H	 2.0513017896	 1.3260150449	-1.4371275586	 0.094766
H	 3.8612871215	-0.8600622562	-0.6233586169	 0.086067
H	 3.3214192476	 0.4609017606	 0.4154458022	 0.117932
H	 2.4976345299	-2.0236228359	 1.0835639154	 0.055836
H	 0.3749861015	-2.5027575025	-0.473186839	 0.085988
H	 1.84485528	-2.4045333031	-1.470395511	 0.089172
H	 0.3163616112	-1.1474941328	 1.7958012135	 0.058275
H	 0.8280567609	 0.9902963551	 2.4382579797	 0.281827
89.4583	220.8607	268.7848	278.9892	283.9142	292.4895	400.4598	442.0291	478.1974	515.1519	599.1129	714.1776	769.0954	806.7232	814.6426	820.1871	886.1228	922.9112	930.2125	945.4802	970.3242	983.5847	1003.2263	1030.1083	1052.2975	1097.0533	1122.2208	1136.7454	1150.167	1166.0725	1185.6654	1201.0459	1244.1941	1267.018	1286.1245	1287.963	1319.0946	1333.8923	1343.3242	1356.3246	1362.2169	1373.2527	1404.9754	1425.1628	1487.7005	1493.7763	1497.1974	1507.3628	1520.8058	2977.6247	3016.3296	3028.6902	3043.1224	3047.6183	3060.9321	3079.0545	3083.5151	3091.2075	3095.549	3096.9127	3124.663	3131.5427	3829.7419
CC1C2CCC(C2)C1O	C[C@H]1[C@H]2CC[C@H](C2)[C@H]1O	
InChI=1S/C8H14O/c1-5-6-2-3-7(4-6)8(5)9/h5-9H,2-4H2,1H3	InChI=1S/C8H14O/c1-5-6-2-3-7(4-6)8(5)9/h5-9H,2-4H2,1H3/t5-,6-,7+,8-/m0/s1
