18
gdb 99904	2.08497	1.37356	1.12677	1.9139	71.76	-0.2868	0.0084	0.2953	1182.2879	0.144831	-439.068497	-439.058676	-439.057732	-439.103534	35.165	
C	-0.424418766	 1.1954271926	 0.0027146747	-0.4287
C	-0.2214934356	-0.2464513667	 0.4743079457	-0.208386
C	 1.0050932606	-0.429629095	 1.3939211518	 0.176076
O	 2.2039316678	 0.0301532092	 0.7825601722	-0.451714
C	 0.7937050217	 0.296423632	 2.6731182679	 0.250598
N	 0.6302066369	 0.8816369214	 3.6564552371	-0.337303
C	 1.2891460896	-1.8957615631	 1.7337536687	 0.084873
C	 0.2488760359	-2.8768474222	 2.0509315812	-0.187261
O	 0.9118893505	-2.8787374664	 0.7817575566	-0.226343
H	 0.4104753397	 1.5376415258	-0.6178066243	 0.121108
H	-1.3264852034	 1.2669164831	-0.6104643612	 0.132042
H	-0.5392247011	 1.8859897337	 0.8448348322	 0.141827
H	-1.1148622236	-0.5836214497	 1.0099570086	 0.115524
H	-0.0760183962	-0.9179195685	-0.3751066418	 0.139791
H	 2.1299083374	 0.9788243	 0.6312448254	 0.297368
H	 2.2839764657	-2.025922649	 2.1576511913	 0.124024
H	 0.4917853742	-3.7096451295	 2.7078538651	 0.130176
H	-0.801087254	-2.5941089178	 2.0286001487	 0.126299
49.3452	95.4501	145.6008	163.7615	201.1807	241.9526	258.0252	304.5113	321.1711	401.8765	449.1795	497.3301	578.9677	603.0048	686.2775	789.8888	869.0597	892.353	950.1552	970.9085	1001.1252	1046.7845	1094.1339	1106.2505	1151.8918	1165.0517	1171.0624	1181.1489	1304.9525	1311.2534	1326.8925	1380.0762	1411.5589	1426.2131	1478.5122	1502.6583	1510.6986	1530.3469	2347.6386	3036.5011	3056.3001	3096.7476	3098.7924	3115.5831	3122.7258	3127.6812	3186.9021	3813.7899
CCC(O)(C#N)C1CO1	CC[C@@](O)(C#N)[C@H]1CO1	
InChI=1S/C6H9NO2/c1-2-6(8,4-7)5-3-9-5/h5,8H,2-3H2,1H3	InChI=1S/C6H9NO2/c1-2-6(8,4-7)5-3-9-5/h5,8H,2-3H2,1H3/t5-,6-/m1/s1
