19
gdb 81473	3.51945	1.58176	1.50606	0.0597	73.43	-0.2221	0.0555	0.2777	960.9082	0.161532	-422.96215	-422.955462	-422.954518	-422.992775	28.446	
C	-0.091369142	 1.5110256576	-0.0021537905	-0.433969
C	-0.0274372849	-0.0094765148	 0.0026087658	 0.053495
C	 1.205289231	-0.6102397851	-0.7339720332	 0.041101
O	 2.0013675861	-0.313032262	 0.4564966181	-0.293031
C	 0.773394539	-0.622375669	 1.1883983962	 0.041103
C	 0.6039867826	-2.1920010408	 1.1418638587	 0.048135
C	 1.8311789417	-2.781637603	 0.4026774888	-0.207776
C	 1.0364966578	-2.179845833	-0.7832391016	 0.048136
O	-0.1887033391	-2.5004102671	-0.049350917	-0.288836
H	 0.8846504524	 1.9497640216	 0.2198445943	 0.131495
H	-0.4223051887	 1.880792225	-0.9789514599	 0.113545
H	-0.8092244229	 1.8699156216	 0.743676492	 0.113545
H	-0.993895124	-0.457300681	-0.2173504629	 0.096138
H	 1.614964888	-0.1597024105	-1.6409664857	 0.075658
H	 0.7545381284	-0.1838837695	 2.1888116593	 0.075658
H	 0.1955867293	-2.6391650235	 2.0498230709	 0.079852
H	 2.8287374101	-2.4154419343	 0.6291102011	 0.120657
H	 1.7819654583	-3.8704046065	 0.3847458025	 0.105241
H	 1.0569102969	-2.6149627358	-1.7839349769	 0.079852
223.9845	237.1276	250.8082	344.5795	442.8129	495.9228	545.2132	598.7657	622.9602	791.2011	793.7195	846.7483	851.889	866.1838	879.3506	895.1506	911.9463	912.2733	933.964	1012.4446	1039.0025	1064.016	1084.8742	1087.4253	1098.1092	1147.4766	1169.333	1194.2084	1236.4572	1247.5711	1256.2372	1281.5379	1287.2036	1296.4467	1324.7592	1328.8356	1381.0418	1403.4131	1476.2463	1492.0026	1506.6115	3031.9506	3085.7913	3086.5022	3090.8657	3097.5638	3102.7724	3111.0065	3116.2296	3140.9592	3180.9309
CC1C2OC1C1CC2O1	C[C@H]1[C@H]2O[C@@H]1[C@@H]1C[C@H]2O1	
InChI=1S/C7H10O2/c1-3-6-4-2-5(8-4)7(3)9-6/h3-7H,2H2,1H3	InChI=1S/C7H10O2/c1-3-6-4-2-5(8-4)7(3)9-6/h3-7H,2H2,1H3/t3-,4+,5-,6+,7-
