19
gdb 102877	2.5108	0.90724	0.67683	1.5205	82.22	-0.2192	0.032	0.2512	1634.5522	0.156225	-419.161517	-419.15066	-419.149716	-419.198603	37.813	
C	 0.0116854526	 1.464079942	 0.0834866235	-0.323961
N	 0.0961282483	 0.0143307861	 0.0978171887	-0.294931
C	 0.5420291397	-0.5884807692	-0.9369614145	 0.327715
C	 0.97508034	 0.0783323224	-2.2421855039	-0.163356
O	 1.5034732945	-0.8182467977	-3.2053552709	-0.416638
N	 0.6971712851	-1.9512447768	-0.9367107348	-0.336436
C	 0.1578393868	-2.7326566318	 0.1665894847	-0.273084
C	 0.4218716804	-4.1537265931	-0.0222812261	 0.262593
C	 0.6294658188	-5.3249555445	-0.1906338176	-0.418178
H	 0.9953353618	 1.9512932138	-0.0081490649	 0.106686
H	-0.6203781505	 1.8558453132	-0.7288024291	 0.106103
H	-0.4277193091	 1.8035901572	 1.0255126695	 0.121038
H	 0.100421791	 0.5468665807	-2.7068179237	 0.142824
H	 1.6803128976	 0.8890251693	-2.011825396	 0.120851
H	 2.3702363946	-1.1030018661	-2.8969794696	 0.293584
H	 0.7275514409	-2.3874445242	-1.8456581135	 0.253466
H	 0.6119205134	-2.3733637091	 1.0969584086	 0.154969
H	-0.922588956	-2.5579124936	 0.2844341422	 0.138254
H	 0.8116014498	-6.3623693086	-0.3255087826	 0.1985
33.4618	79.9785	94.7235	110.075	155.8957	203.0238	234.8358	268.2371	290.4664	331.3918	342.791	484.9799	559.146	578.7931	591.7502	611.0671	634.1354	669.3487	857.6412	965.7673	977.464	998.2443	1077.9194	1106.3777	1111.6473	1118.316	1159.8394	1207.2261	1236.4285	1291.0429	1371.9506	1376.2305	1403.1422	1444.499	1479.171	1489.2665	1494.8727	1509.1796	1515.8536	1720.5327	2245.5928	2966.2076	2991.6707	3008.1689	3012.2422	3056.9917	3071.4222	3089.3437	3506.1288	3624.2943	3816.0294
CN=C(CO)NCC#C	CN=C(CO)NCC#C	
InChI=1S/C6H10N2O/c1-3-4-8-6(5-9)7-2/h1,9H,4-5H2,2H3,(H,7,8)	InChI=1S/C6H10N2O/c1-3-4-8-6(5-9)7-2/h1,9H,4-5H2,2H3,(H,7,8)
