22
gdb 110260	2.75133	1.19321	0.96915	1.9184	84.52	-0.2123	0.0698	0.2822	1332.5832	0.192752	-404.261619	-404.251919	-404.250975	-404.296124	36.551	
C	 0.9443967568	 1.0499923911	-0.6347391382	-0.372346
C	-0.2059279222	 0.6064161859	 0.2788852998	-0.24265
C	 0.3029936855	-0.2035566133	 1.4637553731	 0.088692
C	-0.6007750193	-1.0177433318	 2.4462397564	-0.101007
C	-0.7499430995	-2.1510875481	 1.398791081	 0.140283
O	-1.615860902	-1.9548364676	 0.3059280703	-0.435874
C	 0.7524742446	-1.701488986	 1.394750573	-0.108605
N	 0.7003878286	-1.6544068311	 2.9124430873	-0.099287
C	 0.6914377166	-2.8880138012	 3.6959534145	-0.332654
H	 1.4513008123	 0.1877059612	-1.0821910226	 0.110795
H	 0.5788293625	 1.6798019803	-1.4518392595	 0.108309
H	 1.6973050681	 1.6236030092	-0.0823391178	 0.111481
H	-0.7104750663	 1.4978426585	 0.6758895206	 0.09049
H	-0.9476675374	 0.0540600217	-0.295321366	 0.127097
H	 1.0388555719	 0.3758189686	 2.0311191133	 0.074821
H	-1.3425274215	-0.6445282703	 3.1558728634	 0.073711
H	-0.9203433175	-3.1418512921	 1.825390354	 0.068211
H	-1.6504339279	-2.7727821437	-0.1987523188	 0.28433
H	 1.6054011949	-2.1372129465	 0.8689594711	 0.070003
H	 1.7171007847	-3.2706874307	 3.7310467132	 0.122638
H	 0.4008652279	-2.6352216974	 4.7211590114	 0.123793
H	 0.0422837093	-3.7103835567	 3.3598965906	 0.097767
56.2453	135.1921	140.3621	194.4284	212.9586	264.7982	276.7303	288.0361	330.3358	389.3429	442.9083	551.9631	619.7289	716.4851	738.4876	765.1275	856.4763	874.1546	900.984	905.8139	962.8134	1038.5532	1059.7381	1081.5811	1084.5063	1102.4289	1123.5979	1132.702	1166.6351	1169.7101	1205.623	1216.8788	1228.0745	1250.0642	1268.6346	1295.3544	1316.6485	1346.0343	1406.8105	1415.5551	1439.3493	1467.4043	1493.2847	1499.0253	1501.1179	1507.1941	1510.5836	2980.7364	3019.0222	3027.5087	3053.7564	3058.6178	3077.4449	3084.9839	3088.4488	3095.2745	3096.5177	3099.7656	3150.7362	3824.9111
CCC1C2C(O)C1N2C	CC[C@H]1[C@H]2[C@@H](O)[C@@H]1N2C	
InChI=1S/C7H13NO/c1-3-4-5-7(9)6(4)8(5)2/h4-7,9H,3H2,1-2H3	InChI=1S/C7H13NO/c1-3-4-5-7(9)6(4)8(5)2/h4-7,9H,3H2,1-2H3/t4-,5-,6+,7+
