21
gdb 93049	2.37066	1.71873	1.1822	1.1398	83.3	-0.238	0.0262	0.2642	1103.4467	0.185002	-387.093904	-387.085911	-387.084966	-387.126141	32.198	
O	-0.0208818116	 1.4416389231	-0.0715162388	-0.443586
C	 0.0263499648	 0.0208547913	 0.0105747678	 0.104223
C	 0.8426529616	-0.4589475346	 1.2191153505	-0.295425
C	 0.6176166089	-1.9176993399	 1.5221323053	-0.067404
C	-0.4598381251	-2.5945077421	 1.1217673527	-0.049212
C	-1.5943413727	-1.9988094713	 0.3450090062	-0.082817
C	-2.8299416093	-1.6214770156	 1.2345798316	-0.223874
C	-2.3211417415	-0.1552693975	 1.2664683648	-0.221973
C	-1.4071804454	-0.4801501565	 0.0512820871	 0.022208
H	 0.8841375486	 1.7689863255	-0.0964804888	 0.278565
H	 0.4935946297	-0.396241745	-0.898099911	 0.063727
H	 1.9102080849	-0.270352108	 1.0415518136	 0.089335
H	 0.5728024663	 0.1575974952	 2.088565303	 0.11751
H	 1.3807590711	-2.4218411598	 2.110202439	 0.083828
H	-0.5627310522	-3.643751685	 1.3936411155	 0.083106
H	-1.8319298201	-2.6302888712	-0.5179461145	 0.068878
H	-3.7688087978	-1.7232563696	 0.6829377427	 0.097843
H	-2.9254019291	-2.1447262737	 2.1889658418	 0.095573
H	-3.0592123916	 0.6367173428	 1.1280388711	 0.100103
H	-1.7502468028	 0.0615431475	 2.172544978	 0.105893
H	-1.9063507868	-0.1982715256	-0.8801534077	 0.073501
115.1307	139.9502	231.1979	261.1739	286.8129	359.4434	440.9253	478.2486	484.4324	566.3476	666.6546	718.5913	748.8091	796.0985	835.3704	887.752	934.3116	943.9478	947.1208	976.3281	1005.7338	1008.6003	1044.2727	1081.7886	1097.1228	1120.1146	1128.3731	1170.7745	1203.8732	1215.7421	1232.5585	1249.4771	1262.0942	1270.6286	1285.9931	1324.146	1351.0016	1352.3574	1397.1366	1416.6048	1439.8038	1478.4227	1486.0541	1499.9275	1716.3573	2947.8523	3003.922	3032.0531	3035.7744	3055.7688	3065.5834	3071.6258	3105.2062	3126.3135	3133.0192	3160.3238	3811.3674
OC1CC=CC2CCC12	O[C@H]1CC=C[C@H]2CC[C@@H]12	
InChI=1S/C8H12O/c9-8-3-1-2-6-4-5-7(6)8/h1-2,6-9H,3-5H2	InChI=1S/C8H12O/c9-8-3-1-2-6-4-5-7(6)8/h1-2,6-9H,3-5H2/t6-,7+,8-/m0/s1
