20
gdb 78955	2.79809	1.95679	1.46628	1.6648	80.94	-0.2228	0.0799	0.3028	964.9976	0.171549	-365.935597	-365.928096	-365.927151	-365.966904	30.898	
C	-0.1945228731	 1.5079289363	-0.0750393549	-0.417582
C	-0.0058068602	-0.0034179438	-0.0060408172	-0.036261
C	 1.2095651918	-0.5372708057	-0.8087659715	-0.071888
C	 1.3161160899	-2.0284953195	-0.4420661481	-0.059301
C	 2.3935247425	-1.8307090517	 0.5547311092	-0.070812
C	 2.156960031	-0.3056908648	 0.4392595742	-0.134732
C	 0.8085307233	-0.4959771676	 1.2168950171	 0.372363
C	 0.5277726252	-0.1099832564	 2.639945196	-0.506305
N	 0.9847111822	-2.0063483834	 1.0249424112	-0.183121
H	 0.7482866758	 2.0411281772	 0.0920940905	 0.115143
H	-0.5737237016	 1.8091625825	-1.0571127384	 0.115936
H	-0.9104918745	 1.8543884909	 0.6777967291	 0.11813
H	-0.9558027251	-0.5242323616	-0.1736242664	 0.070551
H	 1.4477424671	-0.2130113485	-1.8206541877	 0.067964
H	 1.0270882572	-2.9040455442	-1.0099595928	 0.09275
H	 3.2136007843	-2.4571463943	 0.8840143668	 0.09187
H	 2.8652803016	 0.5117365035	 0.5430286179	 0.070401
H	 0.4859468731	 0.9777380052	 2.7561535054	 0.115156
H	-0.4301055677	-0.5301636402	 2.9668452759	 0.126193
H	 1.3050546271	-0.496109874	 3.3074793539	 0.123545
195.5384	213.735	222.7948	236.9488	283.3975	332.3007	490.4923	546.4555	609.8183	727.9667	755.1666	789.4446	814.0154	842.0849	843.9837	872.0065	882.1853	910.0143	913.6234	958.1628	1001.1891	1019.4656	1039.0396	1065.9923	1081.3783	1101.8225	1133.9148	1140.0954	1168.4032	1188.267	1211.1828	1228.5456	1257.7616	1270.8776	1317.3187	1330.6581	1372.4727	1411.0362	1414.9402	1483.0605	1486.8032	1495.5008	1502.4342	3027.6745	3029.998	3039.1898	3094.6376	3095.7802	3097.0648	3104.4283	3127.4744	3149.6531	3179.0954	3194.0003
CC1C2C3C4C2C1(C)N34	C[C@H]1[C@@H]2[C@H]3[C@H]4[C@@H]2[C@]1(C)N34	
InChI=1S/C8H11N/c1-3-4-5-7-6(4)9(7)8(3,5)2/h3-7H,1-2H3	InChI=1S/C8H11N/c1-3-4-5-7-6(4)9(7)8(3,5)2/h3-7H,1-2H3/t3-,4-,5+,6-,7+,8+,9?/m0/s1
