17
gdb 126182	4.00096	0.97137	0.84835	2.8765	70.04	-0.2821	-0.0507	0.2314	1354.4119	0.134967	-455.105275	-455.096455	-455.095511	-455.139779	31.421	
C	-0.0169492259	 1.5591914777	 0.0794887848	-0.386664
C	-0.0996070676	 0.039086617	 0.223670857	-0.182556
C	-1.4869871452	-0.5086319314	-0.1728007351	 0.009643
O	-1.8329791604	-0.164144134	-1.4989217753	-0.423644
C	-1.5517553981	-1.9968688694	 0.046061087	 0.338212
N	-1.5218345663	-2.8334369368	-0.9552064857	-0.166732
O	-1.5518459703	-4.0871444431	-0.4103894929	-0.150759
N	-1.6036920279	-4.029445768	 0.9509712448	-0.057483
C	-1.6023551592	-2.7604163636	 1.2490018015	-0.114215
H	 0.9884070871	 1.9198797571	 0.314269936	 0.11605
H	-0.2639265725	 1.8583798565	-0.9417817049	 0.140439
H	-0.719223785	 2.0592979006	 0.7557355471	 0.115479
H	 0.6521819623	-0.4478664288	-0.4102213386	 0.107145
H	 0.1205995243	-0.2607101276	 1.256345482	 0.097836
H	-2.2418875038	-0.0331651536	 0.4683192165	 0.104727
H	-1.4831866307	-0.8453519467	-2.0856757299	 0.300618
H	-1.6418487007	-2.431632206	 2.2758589857	 0.151905
41.1863	95.9457	123.1724	204.0992	235.2927	274.1157	288.2319	357.3627	432.6983	505.9512	647.2191	701.8225	765.2566	804.8285	891.9551	900.862	904.9148	941.9312	995.3363	1028.351	1066.5675	1077.5215	1119.7517	1126.9523	1191.7617	1261.5443	1286.2222	1335.4729	1375.5664	1401.1143	1408.5295	1451.2776	1463.7767	1479.6084	1495.5752	1509.1188	1609.5995	3017.4059	3023.9627	3039.6287	3062.5535	3106.5533	3131.5081	3269.0161	3792.3831
CCC(O)C1=NON=C1	CC[C@@H](O)c1nonc1	
InChI=1S/C5H8N2O2/c1-2-5(8)4-3-6-9-7-4/h3,5,8H,2H2,1H3	InChI=1S/C5H8N2O2/c1-2-5(8)4-3-6-9-7-4/h3,5,8H,2H2,1H3/t5-/m1/s1
