18
gdb 65299	2.5838	1.3715	1.14758	3.6458	77.45	-0.2711	0.0155	0.2865	1133.0582	0.14675	-401.932873	-401.924135	-401.923191	-401.966347	32.921	
O	-0.2463613361	 1.3441435071	-0.2398952563	-0.440896
C	-0.0728295924	-0.0291313337	-0.0638661766	 0.193098
C	-0.3003228072	-0.6326675857	 1.3173926382	-0.420243
C	-1.3279059103	-0.8157177541	 0.2461117969	 0.318427
C	-2.7311667847	-0.2075856598	 0.1301523998	-0.291278
C	-3.0921592231	-1.3525316582	-0.8636303734	-0.204092
C	-1.7772596931	-2.0929747572	-0.4742373808	-0.30122
C	 0.926390906	-0.6319177923	-0.9193170797	 0.252021
N	 1.7280231521	-1.1100784848	-1.6033681646	-0.355797
H	 0.5329456033	 1.797383105	 0.1022896154	 0.297721
H	 0.3100527026	-1.4806559877	 1.6107981168	 0.135242
H	-0.5076472267	 0.0884598554	 2.1020334777	 0.127663
H	-3.2872695733	-0.2649095271	 1.0705332151	 0.106917
H	-2.7775391221	 0.8156082001	-0.2456727417	 0.126508
H	-4.0240565255	-1.8869039304	-0.6713402874	 0.104099
H	-3.0901463954	-1.0181383458	-1.9032773576	 0.116056
H	-1.1393886997	-2.444158272	-1.2888481125	 0.126822
H	-1.9442674745	-2.9207502487	 0.2212266606	 0.108952
76.1667	115.9294	137.3516	225.9902	238.4842	304.0499	360.703	412.0801	441.577	514.2934	577.4203	639.2832	670.7986	728.8681	780.1645	858.8747	881.9676	894.8702	920.5587	937.9912	959.9863	1053.6484	1058.3115	1112.7383	1138.7639	1168.6809	1220.2102	1232.0899	1253.9855	1254.249	1271.994	1289.8478	1322.2973	1397.8286	1467.1614	1476.5341	1482.8597	1505.3284	2342.4659	3056.2579	3060.9973	3074.5349	3106.3484	3120.5999	3124.3286	3134.3701	3218.4338	3793.4825
OC1(CC11CCC1)C#N	O[C@]1(CC21CCC2)C#N	
InChI=1S/C7H9NO/c8-5-7(9)4-6(7)2-1-3-6/h9H,1-4H2	InChI=1S/C7H9NO/c8-5-7(9)4-6(7)2-1-3-6/h9H,1-4H2/t7-/m1/s1
