17
gdb 35321	4.42523	1.01532	0.91565	3.8916	79.59	-0.2479	-0.0074	0.2405	1261.3795	0.137696	-380.868117	-380.86033	-380.859386	-380.90082	29.748	
N	-0.0929706647	-1.1681585371	-0.0987677173	-0.323896
C	-0.055640052	-0.0130641873	-0.079679361	 0.266703
C	-0.0074602261	 1.4494840001	-0.0548920118	-0.192274
C	-0.6819158069	 2.0689305392	 1.2085383064	-0.330413
C	 0.2062162221	 3.2668406534	 1.5608202928	 0.321033
C	-0.3448915557	 4.6373158539	 1.7718655889	-0.288901
N	 0.2095069666	 3.8708049049	 2.9000711531	-0.358295
C	 1.5005791507	 3.0108280438	 0.8750870981	-0.112319
C	 1.407344249	 2.0165447565	-0.0038060961	-0.088251
H	-0.511614176	 1.79946326	-0.9666137102	 0.13556
H	-1.7272579981	 2.3319023065	 1.0339855225	 0.119476
H	-0.6476795133	 1.3387500263	 2.0235825594	 0.136032
H	 0.2335304204	 5.5113495138	 1.4844855996	 0.123199
H	-1.4225398168	 4.7624510091	 1.6968617324	 0.115973
H	-0.5424639227	 3.4765726303	 3.4612059678	 0.234642
H	 2.3830300318	 3.6057858358	 1.0761904248	 0.118705
H	 2.191742262	 1.6475888707	-0.6518744793	 0.123027
58.436	140.6746	190.6598	284.0316	327.5329	349.6574	448.2019	485.0492	564.6243	594.0454	676.3684	773.8154	813.5988	856.069	859.7727	907.7863	953.043	970.3993	973.4052	985.7896	1028.1853	1047.0244	1078.9122	1121.481	1133.2825	1188.6134	1255.5777	1266.2638	1281.8292	1303.2511	1329.6361	1346.1	1418.9682	1485.4758	1510.166	1680.3085	2357.487	3009.3996	3055.4436	3101.2172	3112.5402	3188.1914	3206.8387	3230.5604	3491.6694
N#CC1CC2(CN2)C=C1	N#C[C@H]1C[C@]2(CN2)C=C1	
InChI=1S/C7H8N2/c8-4-6-1-2-7(3-6)5-9-7/h1-2,6,9H,3,5H2	InChI=1S/C7H8N2/c8-4-6-1-2-7(3-6)5-9-7/h1-2,6,9H,3,5H2/t6-,7+/m1/s1
