21
gdb 77406	2.46056	1.58377	1.3291	1.2616	82.73	-0.2338	0.0733	0.3071	1083.9131	0.181348	-387.050468	-387.041366	-387.040422	-387.083396	35.593	
C	 0.0245950956	 1.5722462781	 0.0712998349	-0.506698
C	 0.0890190508	 0.0717503667	 0.0300874058	 0.25417
C	 0.6012178117	-0.7639730341	-1.1168769029	-0.12028
C	 2.0950730019	-0.9409881	-1.04100284	-0.295775
C	 1.226928959	-1.7590223615	-0.122659002	-0.116487
C	 0.7246564496	-0.9329773552	 1.037304664	 0.273427
C	 1.4631522314	-0.6886000787	 2.3230308923	-0.495955
C	-0.7740710576	-0.8118388832	 0.9180003511	-0.011591
O	-1.3891606104	-0.2105309913	 2.022407556	-0.432347
H	 0.9934018834	 2.0230397583	-0.1698319685	 0.119183
H	-0.7028567753	 1.9563994667	-0.655625709	 0.111907
H	-0.2746403986	 1.9237035162	 1.06274424	 0.124313
H	 0.0443272403	-1.0036211668	-2.0168929533	 0.079019
H	 2.5394801553	-1.4887907507	-1.8669283254	 0.106613
H	 2.7237300534	-0.1481510928	-0.6440076157	 0.104944
H	 1.1997634528	-2.8421959017	-0.1779328315	 0.081519
H	 2.4744082209	-0.3114358828	 2.1356054671	 0.111595
H	 0.9325172634	 0.0320845973	 2.9490982323	 0.135128
H	 1.5588417818	-1.6181541954	 2.8975212766	 0.117138
H	-1.347567472	-1.6290926853	 0.4725847742	 0.071412
H	-2.1680649675	 0.2616251163	 1.7103446339	 0.288765
160.8435	173.9657	178.7713	214.4794	221.1584	258.287	263.8027	300.7017	402.9197	497.9522	504.1691	549.6213	639.1774	670.2556	733.5147	799.1736	841.3928	848.4922	921.5134	967.5981	978.8222	1012.767	1034.7808	1063.112	1074.7999	1088.4935	1090.2078	1121.0216	1145.0989	1174.9178	1181.223	1237.2878	1249.4419	1277.7365	1332.4211	1350.9559	1372.2466	1406.7127	1419.9171	1450.2926	1486.8882	1489.1415	1494.05	1496.7199	1503.0507	3017.7654	3025.5897	3053.7431	3074.4824	3079.5665	3109.123	3110.409	3125.2812	3156.0145	3165.8206	3196.7406	3807.9334
CC12C3CC3C1(C)C2O	C[C@@]12[C@H]3C[C@H]3[C@]1(C)[C@H]2O	
InChI=1S/C8H12O/c1-7-4-3-5(4)8(7,2)6(7)9/h4-6,9H,3H2,1-2H3	InChI=1S/C8H12O/c1-7-4-3-5(4)8(7,2)6(7)9/h4-6,9H,3H2,1-2H3/t4-,5+,6-,7-,8+
