14
gdb 56496	2.17526	1.41735	0.89026	3.4052	74.04	-0.2805	0.0005	0.2811	1222.5905	0.096906	-399.473073	-399.463405	-399.462461	-399.507872	34.261	
O	-0.0547060184	 1.4339130027	 0.0321590687	-0.402826
C	 0.0085849348	 0.0261082937	-0.0222431994	-0.032308
C	 0.6890311783	-0.4552576207	-1.2220847627	 0.278579
C	 1.2970407703	-0.8076723996	-2.1965658109	-0.419438
C	 0.7107977155	-0.538268284	 1.275454938	-0.357514
C	 0.0648197646	-0.0384346938	 2.4861148151	 0.337816
C	-0.475272604	 0.3704471874	 3.4761556893	-0.413198
C	 0.7293399238	-2.0079674883	 1.2557527748	 0.298691
N	 0.7334095432	-3.1623716706	 1.2281069212	-0.316567
H	 0.7834119988	 1.7854909331	-0.289081144	 0.294299
H	-1.0279926762	-0.3253894276	-0.0058083391	 0.149607
H	 1.8130013627	-1.1375677809	-3.0651490574	 0.215145
H	 1.7530709506	-0.1935676435	 1.2441078108	 0.156478
H	-0.9513776941	 0.7336937021	 4.3536857457	 0.211235
53.913	106.3565	129.744	170.8458	191.458	227.6858	295.6702	344.1756	364.2575	461.6737	490.0969	542.3559	577.7874	595.3174	654.5573	663.8533	667.1939	689.2904	913.8399	936.6514	999.1357	1047.3164	1096.9259	1210.5431	1275.3639	1308.6059	1340.3186	1421.0247	2238.3888	2251.8416	2366.5947	3025.5295	3070.517	3499.3661	3502.7002	3805.8925
OC(C#C)C(C#C)C#N	O[C@@H](C#C)[C@@H](C#C)C#N	
InChI=1S/C7H5NO/c1-3-6(5-8)7(9)4-2/h1-2,6-7,9H	InChI=1S/C7H5NO/c1-3-6(5-8)7(9)4-2/h1-2,6-7,9H/t6-,7-/m0/s1
