23
gdb 95777	2.98879	1.15102	0.88845	1.0909	88.73	-0.2293	0.0185	0.2479	1396.4655	0.206109	-388.301886	-388.292426	-388.291482	-388.335972	36.211	
C	 0.119883109	 1.6319084945	-0.0228793598	-0.400315
C	-0.0069505486	 0.1026649723	-0.0037986351	 0.019669
C	 0.6959525989	-0.4806609471	-1.2378375718	-0.065438
O	 0.4601003265	-1.8537951516	-1.4664254928	-0.237545
C	 1.1629773921	-2.7428807386	-0.6181088644	-0.181375
C	 0.5489814717	-2.9494382223	 0.7582514129	 0.325808
C	 0.2778807597	-4.3806902347	 1.1398005973	-0.481046
C	 0.2815585818	-1.9329674516	 1.5813741046	-0.161546
C	 0.5422954517	-0.4679956829	 1.3200010671	-0.254825
H	 1.1696765424	 1.9432797126	 0.0419147439	 0.113323
H	-0.2956548551	 2.0558396241	-0.9430664955	 0.113066
H	-0.4097109388	 2.0827146499	 0.8221853604	 0.114536
H	-1.0677601364	-0.1677780421	-0.0793296235	 0.082237
H	 0.3331953054	 0.0305210815	-2.1367483574	 0.099131
H	 1.7821297643	-0.2881954627	-1.1657065834	 0.076951
H	 1.185850711	-3.6978756392	-1.1532299306	 0.102168
H	 2.2104030373	-2.407448892	-0.5122361366	 0.092624
H	 1.1930327664	-4.9859607019	 1.0895497412	 0.121356
H	-0.1230511801	-4.4615623881	 2.1535473587	 0.118874
H	-0.4376000229	-4.8451036377	 0.4485600714	 0.127478
H	-0.1569967561	-2.1680161784	 2.5495843009	 0.077034
H	 1.6268091452	-0.273320101	 1.3528723967	 0.102072
H	 0.1183411246	 0.1128432468	 2.1465471359	 0.095765
62.529	115.3485	204.6306	208.5799	240.0121	281.2865	297.6933	335.316	383.458	387.0353	420.5918	486.2213	556.849	645.992	787.1263	828.4879	863.9289	903.0446	911.3482	952.6358	959.6305	1004.8877	1016.3464	1072.5482	1088.8456	1115.2119	1119.9449	1142.3829	1167.2384	1202.1074	1242.5498	1290.0438	1306.6876	1339.4233	1357.211	1368.3213	1380.1333	1404.0467	1409.7964	1414.4278	1430.6267	1475.4276	1477.3206	1483.2991	1491.4965	1495.0903	1498.0315	1501.9879	1739.1358	2939.8386	2945.0131	2976.5237	3010.1566	3024.3365	3031.6794	3054.937	3055.4081	3060.2924	3067.3657	3090.6815	3101.8373	3110.561	3136.6178
CC1COCC(C)=CC1	C[C@H]1COCC(=CC1)C	
InChI=1S/C8H14O/c1-7-3-4-8(2)6-9-5-7/h3,8H,4-6H2,1-2H3	InChI=1S/C8H14O/c1-7-3-4-8(2)6-9-5-7/h3,8H,4-6H2,1-2H3/t8-/m1/s1
