17
gdb 45305	3.35111	1.45332	1.23768	4.3462	72.54	-0.2526	0.0066	0.2592	1026.6718	0.138617	-421.892366	-421.885433	-421.884489	-421.924071	27.236	
O	 0.024988001	-0.06052365	 0.0039821845	-0.33449
C	-0.0557453856	 1.1315572362	 0.0573117706	 0.426992
C	-1.3127003279	 1.9908412559	 0.1346977687	-0.375638
C	-0.798835055	 3.3903530653	 0.4923201564	-0.08574
C	-0.757118824	 3.702667678	 1.9713749512	-0.074103
C	 0.4671483415	 4.0066945774	 2.3971990228	-0.062513
C	 1.4855857168	 3.9752951678	 1.283589617	-0.274564
C	 0.7128113922	 3.33355379	 0.1157249345	 0.099625
O	 1.0424148426	 1.9347288294	 0.0333205165	-0.22812
H	-1.8011411642	 1.9618078218	-0.8452244528	 0.137722
H	-2.0093466623	 1.5650307595	 0.8590676482	 0.139966
H	-1.3323510663	 4.1689281043	-0.063221029	 0.090772
H	-1.6503680028	 3.6783800619	 2.5859719115	 0.101565
H	 0.7264991593	 4.2711807129	 3.4160737191	 0.102715
H	 1.8285705659	 4.9857163709	 1.0255844001	 0.113153
H	 2.3781377169	 3.3872321587	 1.5204596984	 0.132079
H	 0.946068052	 3.7829177601	-0.8531492377	 0.090579
86.7076	123.9951	265.8735	349.562	434.4474	506.6357	556.4098	611.1152	650.5724	739.8862	784.8568	811.0963	828.0615	866.3764	907.5324	933.3169	963.9941	980.0399	1020.8849	1043.39	1064.8785	1074.9098	1133.346	1167.027	1181.2599	1205.0819	1242.7384	1273.0078	1310.1715	1319.3979	1334.9471	1377.2723	1388.3015	1464.762	1472.0747	1686.4043	1881.8179	3026.3917	3043.1071	3062.3416	3075.4039	3080.1006	3120.5412	3185.2418	3210.5951
O=C1CC2C=CCC2O1	O=C1C[C@H]2C=CC[C@H]2O1	
InChI=1S/C7H8O2/c8-7-4-5-2-1-3-6(5)9-7/h1-2,5-6H,3-4H2	InChI=1S/C7H8O2/c8-7-4-5-2-1-3-6(5)9-7/h1-2,5-6H,3-4H2/t5-,6-/m1/s1
