17
gdb 83983	2.32166	1.84901	1.33762	3.3262	67.16	-0.2315	-0.0358	0.1957	982.5472	0.136542	-458.965714	-458.957924	-458.95698	-458.998474	29.363	
O	-0.0642157399	 1.4935922606	-0.0209513323	-0.423349
C	 0.0771351316	 0.1117076186	-0.0763977755	 0.043129
C	-1.213574994	-0.7611880211	 0.0525165332	 0.038516
O	-2.3507755241	-0.0534922671	-0.4319966233	-0.28056
C	-2.5975501418	-0.3682572331	-1.8139678511	-0.095109
C	-1.9153177696	-1.7158312668	-2.0884605699	-0.234016
C	-0.7456028187	-1.6889674258	-1.1001147991	-0.173958
C	 0.337070375	-0.6207410007	-1.4258812688	 0.332723
O	 0.9859114995	-0.3954187873	-2.4035656506	-0.292351
H	-0.9763394413	 1.6721865932	-0.2912501115	 0.294139
H	 0.8393888605	-0.2031880218	 0.6495601095	 0.111362
H	-1.4446055333	-1.1739176806	 1.035454633	 0.088647
H	-3.6807933525	-0.3881439115	-1.9591689463	 0.11935
H	-2.1790521515	 0.4181442543	-2.4569117333	 0.115912
H	-2.5839499986	-2.5518739096	-1.8637364616	 0.116968
H	-1.5802775192	-1.805710111	-3.12461978	 0.132276
H	-0.353641152	-2.6703286204	-0.8288897824	 0.106321
60.701	130.7479	204.7563	216.1206	238.2648	442.624	489.0621	516.9808	584.1155	623.1721	670.6974	754.6723	822.9868	865.9261	873.5785	915.657	942.5685	966.5958	980.2602	1036.2849	1067.6993	1093.0555	1133.3623	1167.5143	1188.2417	1213.6554	1240.0029	1254.9309	1269.6812	1322.8702	1325.2105	1345.4395	1392.6231	1424.0506	1485.6865	1526.7305	1893.2011	3010.7683	3023.8369	3059.7918	3092.2402	3100.8463	3111.5786	3117.2436	3738.8958
OC1C2OCCC2C1=O	O[C@H]1[C@H]2OCC[C@H]2C1=O	
InChI=1S/C6H8O3/c7-4-3-1-2-9-6(3)5(4)8/h3,5-6,8H,1-2H2	InChI=1S/C6H8O3/c7-4-3-1-2-9-6(3)5(4)8/h3,5-6,8H,1-2H2/t3-,5+,6-/m0/s1
