24
gdb 61579	3.11443	0.87334	0.79019	1.1486	90.4	-0.2232	0.0862	0.3095	1594.4829	0.216833	-368.367325	-368.35741	-368.356466	-368.403016	37.345	
C	-0.1908931134	 1.5698587746	 0.1885496771	-0.422216
C	-0.0517796686	 0.0424252042	 0.0827834378	 0.071975
C	-1.4303258726	-0.6139061992	-0.1113164392	-0.206802
C	-1.4116798773	-2.1213273099	 0.0186811034	 0.042601
C	-1.5770997955	-2.7685492353	 1.3718523115	-0.25745
C	-2.6755125256	-2.8747615498	 0.3406649986	-0.280332
N	 0.8478577045	-0.476176077	-0.9611155386	-0.067405
C	 1.0937569901	 0.2685433378	-2.1880819346	-0.222257
C	 2.1658109651	 0.0954648268	-1.1650831959	-0.226892
H	 0.7763796585	 2.0768080385	 0.258352247	 0.114328
H	-0.7367620932	 1.9883480257	-0.663667923	 0.118318
H	-0.7539775514	 1.8229305845	 1.0921541554	 0.117595
H	 0.3683894012	-0.3270250628	 1.0276494437	 0.084096
H	-2.1285432544	-0.1927673479	 0.6236244696	 0.083524
H	-1.81308643	-0.3262982509	-1.1008468774	 0.093403
H	-0.7168896422	-2.6086293117	-0.6568306559	 0.097033
H	-0.9947399218	-3.6546583868	 1.5995830106	 0.107655
H	-1.7506931926	-2.1229104528	 2.2275473504	 0.102323
H	-3.5814598471	-2.300290016	 0.5077983778	 0.10387
H	-2.8441042229	-3.8338058245	-0.1371940298	 0.106937
H	 1.0991395364	-0.3188983109	-3.1026437647	 0.112239
H	 0.6792724932	 1.2679558915	-2.2979920592	 0.108209
H	 2.4548297471	 0.9809752977	-0.6016769708	 0.106526
H	 2.9700820325	-0.6203029257	-1.3171758139	 0.112723
48.737	58.2829	97.0151	142.1938	237.9219	262.5579	292.243	319.9668	347.2742	405.059	508.7002	518.747	695.3912	773.9154	804.2187	817.3136	835.3658	882.7847	885.445	915.8641	934.7794	962.1389	991.9192	1030.5221	1039.4647	1056.939	1075.0091	1106.7094	1109.8527	1119.5503	1144.1883	1148.7491	1161.2197	1178.6835	1191.791	1199.0856	1226.7563	1272.7062	1303.1989	1331.2757	1366.7171	1378.2712	1404.6603	1417.4599	1467.8674	1476.4182	1486.085	1495.7285	1506.8263	1510.3153	1525.143	3004.9142	3020.2077	3036.34	3048.1465	3092.824	3101.7545	3105.0621	3107.1007	3123.0594	3128.3988	3168.8492	3170.221	3185.926	3200.2305	3216.4422
CC(CC1CC1)N1CC1	C[C@@H](CC1CC1)N1CC1	
InChI=1S/C8H15N/c1-7(9-4-5-9)6-8-2-3-8/h7-8H,2-6H2,1H3	InChI=1S/C8H15N/c1-7(9-4-5-9)6-8-2-3-8/h7-8H,2-6H2,1H3/t7-/m0/s1
