19
gdb 40028	3.47016	1.54928	1.45067	1.6279	77.73	-0.2194	0.0857	0.305	976.4217	0.161049	-385.839216	-385.83242	-385.831476	-385.870218	28.636	
C	 0.0027914642	 1.5216618989	-0.0002504725	-0.300811
C	 1.3018673473	 0.7500855238	-0.005649865	-0.33665
C	-0.0133333919	 0.015853928	 0.0155980165	 0.406888
C	-0.4737972057	-0.7829441421	 1.2488394241	-0.300497
C	-1.5013954232	-1.7400952025	 0.6530902706	 0.079474
O	-2.5696962276	-0.9319084916	 0.0509327716	-0.306724
C	-1.9665292521	-1.1294932984	-1.2272794503	 0.099858
C	-0.9785830025	-2.1430538749	-0.7483828093	-0.163862
C	-0.4870939299	-0.7751747643	-1.1838692106	-0.179233
H	-0.2781481903	 2.0465330559	 0.9069696346	 0.110306
H	-0.298101394	 2.0240721094	-0.9139552338	 0.109543
H	 1.8883688345	 0.7348622283	-0.9189934605	 0.107082
H	 1.8981971372	 0.7466627815	 0.9016532036	 0.108025
H	 0.3542594275	-1.3489227681	 1.6953635815	 0.097417
H	-0.9179053495	-0.1524427697	 2.0246960925	 0.10921
H	-1.9060396195	-2.5062625459	 1.316206002	 0.07946
H	-2.5992168829	-1.0712121905	-2.1054321111	 0.100194
H	-0.6697226671	-3.1130493576	-1.1117682465	 0.094944
H	 0.0208694056	-0.6773328403	-2.1375384973	 0.085377
101.6577	247.0201	288.8645	374.0216	389.3788	513.1027	571.3095	670.1734	753.6352	776.6841	783.4491	808.143	835.9336	847.4756	884.27	899.1794	943.8128	962.4179	976.5769	994.5928	997.1404	1026.0697	1037.2533	1050.6908	1058.9644	1073.1694	1079.0161	1109.0914	1166.5448	1187.9904	1223.5556	1237.1491	1261.1289	1290.2157	1297.2545	1323.5023	1364.0103	1412.7035	1466.1532	1474.2076	1503.9848	3022.3474	3088.2201	3103.6909	3119.5116	3126.1493	3169.1657	3180.4346	3197.4263	3209.755	3213.9914
C1CC11CC2OC3C2C13	C1CC21C[C@H]1O[C@@H]3[C@H]1[C@H]23	
InChI=1S/C8H10O/c1-2-8(1)3-4-5-6(8)7(5)9-4/h4-7H,1-3H2	InChI=1S/C8H10O/c1-2-8(1)3-4-5-6(8)7(5)9-4/h4-7H,1-3H2/t4-,5-,6+,7-/m1/s1
