18
gdb 13402	5.54483	1.068	0.9629	0.995	70.17	-0.2326	0.0169	0.2495	1211.3775	0.153498	-384.934958	-384.926641	-384.925697	-384.968487	29.71	
O	-0.0868006629	 1.4250381151	 0.1572744468	-0.424582
C	 0.0062821601	 0.009569826	 0.0719320196	-0.075122
C	-1.4102140213	-0.5453011316	-0.0005709968	-0.176567
C	-1.4380603894	-2.0694569587	-0.1465761012	 0.081776
O	-0.7860098925	-2.6903643975	 0.9708403007	-0.278821
C	-1.652133833	-3.6323920537	 1.5974262187	-0.113821
C	-2.9451089565	-3.5412972447	 0.8373102349	-0.096545
C	-2.8208531507	-2.6660117742	-0.1523993979	-0.091616
H	 0.7995961172	 1.7745941843	 0.2855235501	 0.284241
H	 0.5705192562	-0.2983356844	-0.8247820235	 0.078928
H	 0.5187158833	-0.4167588055	 0.9452776211	 0.106127
H	-1.9601405252	-0.256127058	 0.9016101381	 0.106618
H	-1.9243998057	-0.0925781093	-0.8575164788	 0.099834
H	-0.8892431907	-2.3429440718	-1.0657448486	 0.077702
H	-1.2103978136	-4.6411783146	 1.5495234609	 0.103418
H	-1.7676578104	-3.3827392983	 2.6636448005	 0.106229
H	-3.8218678189	-4.1253519895	 1.0867191372	 0.106257
H	-3.574921616	-2.3878863836	-0.8776932917	 0.105944
63.328	102.2096	110.2463	158.479	256.633	308.8677	346.0412	411.2836	544.6463	711.16	753.0798	792.2077	818.0431	879.4242	934.3849	959.1078	994.8484	1014.4858	1041.8269	1047.9107	1081.6858	1109.9794	1128.7577	1133.8701	1198.0247	1223.1034	1232.7092	1295.7234	1312.0886	1330.1606	1358.9304	1386.0377	1388.1151	1459.2999	1480.4548	1521.6338	1530.277	1692.9023	2935.2776	2958.8375	2969.4414	2990.0349	3022.3484	3035.7849	3085.9285	3206.3013	3230.9489	3831.0315
OCCC1OCC=C1	OCC[C@H]1OCC=C1	
InChI=1S/C6H10O2/c7-4-3-6-2-1-5-8-6/h1-2,6-7H,3-5H2	InChI=1S/C6H10O2/c7-4-3-6-2-1-5-8-6/h1-2,6-7H,3-5H2/t6-/m0/s1
