21
gdb 110312	1.93592	1.45904	1.00707	0.7749	78.77	-0.2237	0.0655	0.2892	1265.4524	0.181166	-424.183755	-424.174022	-424.173078	-424.218075	36.689	
C	 0.7586728644	 0.6128208343	-1.7182229761	-0.41521
C	 1.2389884374	-0.7058848283	-1.1207421569	 0.054087
C	 2.7420293528	-1.1389199077	-1.244368038	-0.318826
C	 2.7742918374	-1.4062989523	 0.2596498887	 0.397906
O	 3.4270209117	-2.5404698961	 0.7170614671	-0.465327
C	 2.4910785343	-0.1870592058	 1.0746857869	-0.103868
C	 3.0401490032	 1.2063963695	 0.8442583514	-0.105092
O	 4.2978339908	 1.3750628241	 1.4904245942	-0.420454
C	 1.3214275891	-0.9036920122	 0.3994858112	-0.198343
H	 1.3379976298	 1.4701057844	-1.3657918465	 0.119673
H	 0.8271747653	 0.5919158891	-2.8118150686	 0.113876
H	-0.2897583415	 0.7946222352	-1.4570067509	 0.115696
H	 0.62046102	-1.5118138628	-1.5303959389	 0.08118
H	 2.8673170002	-2.058493896	-1.8193188223	 0.115407
H	 3.4495150698	-0.3940693769	-1.6248310595	 0.091645
H	 3.5766962179	-2.4520466686	 1.6633281886	 0.28551
H	 2.48771798	-0.4203287946	 2.1421826522	 0.083399
H	 3.1185448401	 1.4368057417	-0.2258140653	 0.091834
H	 2.3773157835	 1.9561414687	 1.2898624939	 0.111122
H	 4.9074941816	 0.7410218526	 1.0984805652	 0.282405
H	 0.5086720821	-1.2784940585	 1.0123952634	 0.083378
79.9579	142.7747	161.2791	177.3719	195.1283	215.4964	285.1723	337.7865	363.1765	407.6458	412.6863	495.3116	548.9361	633.2196	704.0735	776.8412	852.6078	885.7098	905.068	949.2665	966.082	992.018	1031.872	1049.4987	1073.3855	1085.8077	1111.9971	1123.9868	1169.896	1188.1008	1211.0098	1238.5837	1268.5538	1286.8911	1322.1547	1368.5117	1382.4176	1398.1189	1412.4216	1418.8734	1468.9756	1492.995	1496.8839	1498.5296	1516.2255	3022.9987	3031.1792	3039.6789	3043.7266	3068.9491	3086.6966	3090.5708	3112.9393	3118.106	3166.5717	3810.8662	3827.2589
CC1CC2(O)C(CO)C12	C[C@H]1C[C@@]2(O)[C@@H](CO)[C@@H]12	
InChI=1S/C7H12O2/c1-4-2-7(9)5(3-8)6(4)7/h4-6,8-9H,2-3H2,1H3	InChI=1S/C7H12O2/c1-4-2-7(9)5(3-8)6(4)7/h4-6,8-9H,2-3H2,1H3/t4-,5-,6+,7+/m0/s1
