21
gdb 111039	2.53725	1.20779	0.9803	2.7871	84.53	-0.2436	-0.0269	0.2167	1304.2282	0.182043	-387.052787	-387.043819	-387.042874	-387.087148	33.574	
C	 0.0271661115	 1.4880719663	 0.1282191253	-0.374756
C	 0.0466664068	-0.0423229784	 0.2357515648	-0.237187
C	-1.3465343688	-0.6413916239	 0.0986552998	 0.021945
C	-2.0788635427	-0.7687589123	-1.2798523945	-0.060954
C	-1.1478191483	-1.9671849277	-1.6339295974	-0.269821
C	-1.5659262624	-2.1854612002	-0.1545235726	 0.241192
C	-3.0197825914	-1.7975396185	-0.5889094483	-0.269166
C	-1.1767227451	-3.2952691943	 0.7561155496	 0.025941
O	-0.4015159896	-4.1752854529	 0.4717035649	-0.248197
H	 1.0286949185	 1.905807479	 0.2677827767	 0.116325
H	-0.3361561753	 1.8127616942	-0.8525760412	 0.119103
H	-0.6276872774	 1.9312343646	 0.8866290072	 0.115344
H	 0.7335728619	-0.4509955039	-0.5113913203	 0.106732
H	 0.4559164998	-0.3316359143	 1.2124174862	 0.102862
H	-1.9954803683	-0.2434668893	 0.8890608408	 0.06569
H	-2.3816210763	 0.0445284232	-1.940505328	 0.076056
H	-1.5445432446	-2.6908787785	-2.3496595969	 0.100036
H	-0.0976631194	-1.7599528036	-1.8357323432	 0.105548
H	-3.683121847	-1.4163375683	 0.1919626694	 0.096288
H	-3.5259979618	-2.5149085616	-1.23936544	 0.101402
H	-1.6608608503	-3.2585219894	 1.7609660277	 0.065617
56.0985	73.7956	156.0734	189.4271	213.6243	244.9491	338.3103	393.4554	482.1385	555.5998	566.8027	700.2749	740.3099	767.0692	839.3009	863.1265	896.8216	938.0041	961.1602	986.1013	1008.4788	1019.2876	1044.3043	1058.0496	1103.9327	1116.4754	1135.491	1149.1413	1167.7363	1177.4903	1215.7326	1233.2676	1238.0669	1288.8044	1307.7448	1348.3789	1409.9198	1421.9911	1428.5841	1483.1682	1498.648	1501.2726	1509.3075	1544.0093	1813.7579	2848.4544	3021.1624	3028.1293	3032.501	3053.7862	3072.8279	3079.673	3101.7102	3105.0675	3107.043	3123.3131	3148.6918
CCC1C2CC1(C2)C=O	CC[C@H]1[C@H]2C[C@@]1(C2)C=O	
InChI=1S/C8H12O/c1-2-7-6-3-8(7,4-6)5-9/h5-7H,2-4H2,1H3	InChI=1S/C8H12O/c1-2-7-6-3-8(7,4-6)5-9/h5-7H,2-4H2,1H3/t6-,7-,8+/m0/s1
