18
gdb 10336	2.35684	1.74283	1.08466	2.5701	65.19	-0.2421	-0.0289	0.2132	1101.7221	0.149467	-422.068714	-422.05869	-422.057746	-422.10438	34.081	
C	 0.4103565799	 1.2679275416	-0.1789371713	-0.243612
O	 0.1997094594	-0.0832051046	 0.1925157614	-0.248351
C	-1.1275901988	-0.5358897694	 0.0031469126	 0.017073
C	-1.3814051613	-0.7784203878	-1.4857003335	 0.155938
O	-2.2351769185	-0.23045889	-2.1313929222	-0.247842
C	-1.2849985676	-1.8516529532	 0.7826437088	 0.109902
C	-1.2063150326	-1.6438181159	 2.2906786267	-0.410197
O	-2.4776543451	-2.5116707372	 0.3765833428	-0.42634
H	 1.4604210665	 1.4908902403	 0.021671691	 0.133952
H	 0.2049743118	 1.4437001341	-1.2437019537	 0.125064
H	-0.2215599791	 1.9474370662	 0.4112454179	 0.115238
H	-1.8592469571	 0.2111034992	 0.3539876885	 0.071639
H	-0.660066446	-1.4923205631	-1.9445411059	 0.083937
H	-0.4727470623	-2.5154770503	 0.4638045818	 0.105715
H	-2.0307773287	-1.0080496831	 2.6373275758	 0.106568
H	-1.271790232	-2.6037996965	 2.8092859817	 0.12765
H	-0.2659266044	-1.1557584206	 2.5587654588	 0.138225
H	-3.229634694	-1.9835373697	 0.6683748788	 0.285441
40.3542	68.5279	99.7648	162.638	190.1247	217.7949	246.8292	288.7912	311.1473	372.5006	414.5159	471.3499	496.5385	523.6445	870.5888	935.3779	950.5874	1016.9832	1062.1553	1079.4539	1123.4322	1141.3351	1171.7357	1186.0553	1214.0953	1260.7266	1302.2615	1341.5042	1385.0295	1397.3448	1411.6771	1416.6386	1480.6472	1490.1397	1490.8984	1495.4789	1510.1848	1837.4417	2879.4337	2973.7315	2992.9425	3027.9268	3047.2098	3051.5258	3104.975	3124.9828	3133.2433	3796.1899
COC(C=O)C(C)O	CO[C@@H](C=O)[C@@H](C)O	
InChI=1S/C5H10O3/c1-4(7)5(3-6)8-2/h3-5,7H,1-2H3	InChI=1S/C5H10O3/c1-4(7)5(3-6)8-2/h3-5,7H,1-2H3/t4-,5+/m1/s1
