17
gdb 127451	3.69853	1.10154	0.85789	6.0302	80.4	-0.2407	-0.0398	0.201	1315.4674	0.135595	-418.048558	-418.039581	-418.038637	-418.082718	31.475	
C	 0.0139863976	 1.4289614782	 0.0112640766	-0.329987
N	 0.0173118423	-0.0206596006	 0.0481570043	-0.001153
N	 0.0071624906	-0.7076372047	-1.098902338	-0.304037
C	 0.0135041451	-1.9941964536	-0.7253386715	 0.248
C	 0.0058456191	-3.0969424233	-1.6959332856	 0.095882
O	-0.0069132126	-2.9862590868	-2.8984596155	-0.267139
C	 0.0280845355	-2.114538957	 0.6846577168	-0.388837
C	 0.0300466916	-0.8205605881	 1.1593522507	 0.386539
C	 0.0430785727	-0.2719950459	 2.5477008514	-0.504331
H	 0.9073562746	 1.8322992462	 0.4978787505	 0.143956
H	 0.004758334	 1.7239938313	-1.0367394609	 0.174466
H	-0.8729475551	 1.8286996989	 0.5124482143	 0.143984
H	 0.0133994572	-4.0998941988	-1.2093164099	 0.063229
H	 0.0358757281	-3.0196899171	 1.2715010901	 0.113853
H	 0.9288445015	 0.3459072235	 2.7360369779	 0.139947
H	-0.8371131453	 0.3489232428	 2.751419292	 0.13985
H	 0.0479994331	-1.0907607149	 3.2696383067	 0.145778
80.2665	101.2743	136.8194	170.7151	188.8346	241.7593	261.108	337.5696	410.6067	497.7766	647.202	655.4211	696.9252	723.2012	814.1143	833.8149	997.3175	1035.2578	1035.7193	1062.9638	1085.1826	1149.5733	1149.8621	1202.7947	1335.9892	1378.1302	1415.9169	1420.4995	1455.5814	1463.935	1473.2674	1478.1846	1490.5438	1498.8264	1510.1263	1594.0805	1808.4135	2861.6655	3028.5661	3043.1916	3077.6456	3103.4835	3132.5476	3173.8993	3258.7847
CN1N=C(C=O)C=C1C	Cn1nc(C=O)cc1C	
InChI=1S/C6H8N2O/c1-5-3-6(4-9)7-8(5)2/h3-4H,1-2H3	InChI=1S/C6H8N2O/c1-5-3-6(4-9)7-8(5)2/h3-4H,1-2H3
