20
gdb 66924	2.18006	1.97294	1.51958	2.1133	77.9	-0.216	0.0683	0.2843	990.4723	0.169892	-403.07106	-403.062591	-403.061647	-403.103185	34.085	
C	-0.059324535	 1.5813973589	-0.0605124318	-0.474862
C	 0.0214983711	 0.0607741576	 0.0321638221	 0.267565
C	-1.3376984573	-0.5679373674	-0.2634647641	-0.42742
N	 1.067382824	-0.6423892221	-0.8569650907	-0.199917
C	 2.3821780105	 0.0175257153	-0.4749044435	-0.190065
C	 2.2440370676	-0.5926188501	 0.9041896374	-0.170151
C	 1.3098586886	-1.6215852044	 0.3154439199	-0.087193
C	 0.7216904859	-0.598454988	 1.2191666823	 0.356569
O	 0.2380181228	-0.8205852328	 2.4924248407	-0.468171
H	 0.8168155673	 2.0835967409	 0.3558616477	 0.113382
H	-0.1712224974	 1.8927135194	-1.1052792624	 0.128246
H	-0.9365177337	 1.9414789338	 0.486966868	 0.117255
H	-1.7123275741	-0.2208661368	-1.2313663973	 0.115995
H	-1.2697060421	-1.6582741888	-0.295550029	 0.121115
H	-2.0632871562	-0.2948845769	 0.5095558332	 0.113207
H	 3.1831396061	-0.4440980735	-1.0600884383	 0.107725
H	 2.4222148208	 1.1019448402	-0.609934151	 0.096378
H	 2.966387199	-0.7322168858	 1.7003110231	 0.088461
H	 1.3000586825	-2.7001832996	 0.2608710798	 0.103201
H	 0.4441401497	-0.0528837397	 3.0370936937	 0.288681
173.6838	197.5461	212.4548	226.5111	264.6263	304.9555	352.0418	382.1274	421.8142	501.8774	556.9057	621.6551	641.5938	762.9527	771.3449	839.4095	854.5108	911.1024	925.9295	940.8317	951.6984	972.9994	1011.8185	1012.3598	1033.5802	1092.474	1112.7203	1150.4745	1177.4058	1201.0469	1229.6563	1238.934	1276.3163	1305.6678	1327.9187	1398.1588	1414.3662	1445.0645	1479.5434	1482.8437	1498.3855	1505.4537	1530.4625	3033.5594	3039.7382	3049.2336	3093.3938	3098.4242	3108.5579	3118.7306	3120.9419	3178.7493	3225.2209	3794.0044
CC1(C)N2CC3C2C13O	CC1(C)N2C[C@@H]3[C@H]2[C@]13O	
InChI=1S/C7H11NO/c1-6(2)7(9)4-3-8(6)5(4)7/h4-5,9H,3H2,1-2H3	InChI=1S/C7H11NO/c1-6(2)7(9)4-3-8(6)5(4)7/h4-5,9H,3H2,1-2H3/t4-,5+,7+/m1/s1
