22
gdb 116806	3.21863	0.73525	0.64671	2.9018	86.88	-0.2406	0.0336	0.2742	1818.8677	0.192752	-404.329345	-404.319157	-404.318212	-404.365984	36.563	
C	 1.1407814526	 1.3298280939	-0.6498631355	-0.396445
C	 0.1452535938	 0.1653981681	-0.704275598	-0.108234
N	 0.6451561993	-1.1797491547	-0.931394115	-0.228798
C	 1.8764035157	-1.3948828208	-1.0549380173	 0.131117
O	 2.3307656043	-2.6585316987	-1.2162440063	-0.203809
C	 3.7072661942	-2.8079200025	-1.566882511	-0.114451
C	 3.9277060167	-2.7502681705	-3.0569932028	 0.025646
C	 4.2063970066	-1.438416862	-3.7478176885	-0.257969
C	 5.3067075392	-2.4572751625	-3.5916542	-0.27254
H	 1.8635515974	 1.2132194748	 0.1649164959	 0.117651
H	 1.698117533	 1.4340041456	-1.5872064929	 0.117389
H	 0.5998216592	 2.2658025202	-0.4807296304	 0.114573
H	-0.4294573204	 0.1399854169	 0.2315497108	 0.111303
H	-0.5974536182	 0.3655609506	-1.4882464524	 0.110884
H	 2.6742178789	-0.6416183225	-1.0203580067	 0.070419
H	 4.3165200452	-2.0453269642	-1.0594542841	 0.097509
H	 3.9977917993	-3.7850661087	-1.169381231	 0.119946
H	 3.3338999849	-3.4709758557	-3.6112972608	 0.100905
H	 3.7830315552	-1.279529993	-4.7330046253	 0.120385
H	 4.2623412328	-0.5406718169	-3.140467166	 0.111517
H	 6.0949935582	-2.2440325138	-2.8765243734	 0.113693
H	 5.6421310123	-2.9999843239	-4.4679645491	 0.11931
41.2269	53.8663	69.2536	163.0204	182.8814	221.4409	252.6933	319.5936	336.0209	371.0691	400.9635	526.5517	600.1886	771.3615	781.338	806.372	844.8467	891.3096	910.2221	952.9547	983.6418	1022.5808	1037.2675	1055.9911	1081.598	1089.7844	1092.8371	1137.8622	1148.0624	1179.4514	1196.491	1221.7578	1240.2456	1312.2898	1315.8028	1378.7981	1380.4942	1396.5151	1415.422	1436.6911	1469.1843	1484.4443	1493.4757	1495.0449	1506.7737	1509.491	1778.0869	2998.0493	3012.5264	3027.2951	3031.8911	3036.5256	3083.0216	3098.399	3106.1289	3130.7464	3135.2272	3157.122	3209.5379	3224.4303
CCN=COCC1CC1	CCN=COCC1CC1	
InChI=1S/C7H13NO/c1-2-8-6-9-5-7-3-4-7/h6-7H,2-5H2,1H3	InChI=1S/C7H13NO/c1-2-8-6-9-5-7-3-4-7/h6-7H,2-5H2,1H3
