16
gdb 34717	5.35108	1.2665	1.16119	1.7915	79.83	-0.2223	-0.0127	0.2096	1044.0063	0.124838	-363.488431	-363.481642	-363.480698	-363.519356	27.929	
C	-0.0597138643	-1.2481467601	-0.1417635301	-0.428886
C	-0.0273878725	-0.0491210746	-0.0531737753	 0.332044
C	-0.0216145486	 1.3947809453	 0.047061668	-0.184224
C	-0.0267866159	 2.0828785061	 1.4271961016	-0.069335
C	 1.4733215752	 1.6756355036	 1.5691283022	-0.041034
C	 2.2210921482	 2.8149274702	 2.2248392507	-0.08803
C	 1.6705091054	 3.8949291219	 1.6672907841	-0.097496
C	 0.6415685261	 3.305073379	 0.7290826493	-0.035203
N	 1.3616082223	 2.0888168433	 0.0604584572	-0.151731
H	-0.0811380318	-2.3066757424	-0.2244063784	 0.195756
H	-0.6814174055	 1.8358295393	-0.7075336025	 0.098452
H	-0.8122703815	 2.0753070641	 2.1930046156	 0.072078
H	 1.7592974928	 0.6412937371	 1.7493804069	 0.091488
H	 3.0240620293	 2.7296476019	 2.9422857341	 0.115126
H	 1.8942159068	 4.9435614379	 1.7981954207	 0.115531
H	 0.0760448342	 3.9442850775	 0.049927446	 0.075465
136.1211	149.6451	363.2295	380.8125	477.845	500.2526	545.0285	623.4887	648.2151	678.1636	729.3474	757.9737	780.4766	802.7654	861.1439	880.6114	921.5872	936.6481	950.4143	967.7262	1008.1491	1059.8818	1090.9396	1111.3606	1140.1952	1143.2871	1195.5094	1205.1139	1241.2251	1264.2747	1325.0898	1330.8257	1387.6745	1633.3782	2231.8848	3030.3057	3051.9946	3115.4721	3147.9238	3230.9463	3257.2423	3503.4048
C#CC1C2C3C=CC2N13	C#C[C@H]1[C@H]2[C@@H]3C=C[C@H]2N13	
InChI=1S/C8H7N/c1-2-5-8-6-3-4-7(8)9(5)6/h1,3-8H	InChI=1S/C8H7N/c1-2-5-8-6-3-4-7(8)9(5)6/h1,3-8H/t5-,6-,7+,8-/m0/s1
