18
gdb 12387	2.94561	2.19576	1.33839	3.1612	69.84	-0.234	0.0231	0.2572	928.2047	0.15609	-381.129688	-381.12209	-381.121146	-381.161588	28.894	
C	 0.0237994756	 1.5610296686	-0.0572962952	-0.395961
C	 0.0954318011	 0.0399746343	 0.0164709986	-0.034237
N	 0.7458321298	-0.5025560121	-1.1802681011	-0.310755
C	 0.809503275	-1.9551599756	-1.1260684078	-0.17579
C	 1.7286128433	-2.3145216063	 0.0264432057	-0.052757
O	 1.2983332706	-1.7247601422	 1.2617170089	-0.261722
C	 0.8179481666	-0.4460498122	 1.2675606055	 0.416014
N	 0.859782467	 0.2623438931	 2.3151383482	-0.508361
H	 1.0269033782	 1.9832102153	-0.1552301591	 0.130121
H	-0.5698662087	 1.866099581	-0.9262595608	 0.098266
H	-0.4352902982	 1.964374912	 0.8450709785	 0.147406
H	-0.9358378681	-0.3584843235	 0.1169149279	 0.081427
H	 0.2370416618	-0.1938219552	-2.0014657172	 0.222372
H	-0.1778316184	-2.4314088043	-0.975258288	 0.088338
H	 1.2327275935	-2.3443518698	-2.0578331497	 0.10773
H	 1.7515175012	-3.3920510497	 0.2076331826	 0.113622
H	 2.7456001651	-1.9664379609	-0.1928544402	 0.115887
H	 1.3331677247	-0.2515401024	 3.0613911732	 0.218402
78.2811	150.4524	214.0516	300.9514	323.1554	387.9036	421.2922	464.7615	511.5186	601.2058	667.5635	767.9191	810.4739	899.1296	915.5115	922.8985	974.0463	1018.8752	1056.5712	1108.1545	1116.5763	1136.5036	1161.4758	1186.3161	1264.7904	1274.4096	1295.7009	1334.3717	1362.4547	1406.7066	1409.199	1436.6537	1474.6695	1489.2385	1494.2576	1499.212	1508.4	1747.3542	2880.3823	2926.2563	3031.2604	3042.863	3074.9084	3103.4308	3116.443	3158.8389	3461.6649	3526.36
CC1NCCOC1=N	C[C@H]1NCCO[C]1[NH]	
InChI=1S/C5H10N2O/c1-4-5(6)8-3-2-7-4/h4,6-7H,2-3H2,1H3	InChI=1S/C5H10N2O/c1-4-5(6)8-3-2-7-4/h4,6-7H,2-3H2,1H3/t4-/m1/s1
