25
gdb 60260	3.63985	0.78048	0.7647	0.1032	95.25	-0.2335	0.0292	0.2627	1685.1639	0.229082	-352.380847	-352.370772	-352.369828	-352.416653	37.965	
C	-0.0622879965	 1.6030014082	 0.0522020343	-0.387546
C	 0.048470784	 0.0718419725	 0.0791262209	 0.035932
C	 0.8507878281	-0.3842081436	 1.3064592754	-0.381551
C	-1.3541278496	-0.5637170537	 0.0200849297	-0.180986
C	-1.4061636153	-2.0888115902	-0.1741464523	-0.022824
C	-2.852352248	-2.6572988645	-0.1154022961	-0.226545
C	-2.8995424087	-3.8163704828	-1.1419609446	-0.254514
C	-1.7267329518	-3.510636865	-2.0437978658	-0.072711
C	-0.921946583	-2.586943792	-1.5218881744	-0.057582
H	 0.9264549632	 2.0737953045	 0.0644877788	 0.106831
H	-0.5893784019	 1.9500140484	-0.8428090028	 0.108899
H	-0.6145410131	 1.9699683062	 0.9259729116	 0.110128
H	 0.6018971482	-0.2354789328	-0.8193273884	 0.072788
H	 0.3311112841	-0.1125845668	 2.2335820235	 0.109736
H	 1.0105941031	-1.4662943437	 1.3196977418	 0.113906
H	 1.8360258505	 0.093488427	 1.328052163	 0.108308
H	-1.8906424966	-0.3088379862	 0.9458504817	 0.086115
H	-1.9202659149	-0.0971002091	-0.7974925249	 0.087147
H	-0.7989819818	-2.5577153627	 0.6148240972	 0.075678
H	-3.1410510953	-2.9661494263	 0.8928665533	 0.092718
H	-3.5516172159	-1.8718935778	-0.4248997332	 0.098848
H	-2.7695441505	-4.7960501584	-0.6597503644	 0.10278
H	-3.854008013	-3.8660672947	-1.6784806331	 0.099661
H	-1.5595720308	-4.0280837188	-2.9825970008	 0.086987
H	 0.0014085556	-2.2424355076	-1.9751903103	 0.087795
33.9895	73.5772	108.8879	165.0018	221.1016	234.2164	280.6757	306.8735	350.5331	416.0976	426.4014	510.5081	627.6541	742.9762	761.319	814.2708	837.3683	855.5952	906.8289	925.688	927.3577	950.8793	966.6934	973.1553	983.7585	1019.3049	1062.2081	1081.02	1125.1135	1140.7411	1153.2241	1185.2416	1192.774	1226.3395	1249.0658	1281.6084	1308.9936	1320.1263	1333.7715	1346.8611	1370.512	1385.5377	1391.0302	1400.1999	1420.8624	1477.3316	1483.424	1488.4319	1494.7587	1500.0543	1504.0674	1510.1375	1684.3544	2983.9939	2994.3155	3003.5021	3005.5104	3021.535	3027.6625	3035.2473	3039.8301	3054.3242	3085.493	3092.0694	3093.3846	3097.2479	3105.6771	3175.6466	3201.5904
CC(C)CC1CCC=C1	CC(C)C[C@H]1CCC=C1	
InChI=1S/C9H16/c1-8(2)7-9-5-3-4-6-9/h3,5,8-9H,4,6-7H2,1-2H3	InChI=1S/C9H16/c1-8(2)7-9-5-3-4-6-9/h3,5,8-9H,4,6-7H2,1-2H3/t9-/m1/s1
