21
gdb 120758	3.07429	0.90318	0.78368	1.7718	79.76	-0.2627	0.0772	0.3399	1550.1661	0.180824	-424.185481	-424.175816	-424.174871	-424.221093	34.727	
C	-0.1727472069	 1.4774049394	 0.4647297429	-0.382351
C	-0.2559665391	-0.0481303682	 0.3764551301	-0.157962
C	-1.5036492696	-0.5330325723	-0.3768095979	-0.228737
C	-1.5527182002	-2.0378601175	-0.4675240434	 0.062137
O	-1.9556765656	-2.7639970992	 0.7089254058	-0.260217
C	-2.7749927286	-2.8633364195	-0.4500017007	 0.016653
C	-4.1847482055	-2.3605206332	-0.3580519066	 0.046474
C	-4.9226746315	-2.4069741154	 0.9134661397	-0.174214
O	-4.4548736157	-1.1693560256	 0.3720084959	-0.222443
H	 0.72076419	 1.7967124575	 1.010155648	 0.110918
H	-0.1349579899	 1.9315030658	-0.5319980288	 0.11135
H	-1.0455559917	 1.8904964782	 0.9819535428	 0.119527
H	 0.6447496594	-0.4385437034	-0.1162691566	 0.09
H	-0.265151929	-0.4794101994	 1.3845487151	 0.112797
H	-2.4080832262	-0.1711658455	 0.1154873467	 0.140506
H	-1.4993448183	-0.1248919743	-1.3973341262	 0.09268
H	-0.685098397	-2.4882312275	-0.9582433948	 0.085873
H	-2.7264181489	-3.8326720123	-0.9555168239	 0.088162
H	-4.7488326526	-2.4582813033	-1.2874393242	 0.098168
H	-6.003083962	-2.5393094434	 0.9101767987	 0.116274
H	-4.3978114612	-2.7436392708	 1.8044744475	 0.134405
56.5592	74.0302	92.7344	121.9693	212.7025	220.036	250.3706	315.6385	345.4874	472.5965	546.3843	660.3926	736.1055	750.8934	814.7526	861.5375	889.1953	902.7418	920.8624	973.8637	980.9717	1045.0968	1064.8599	1093.5585	1107.2104	1123.47	1151.7016	1168.5652	1172.6576	1185.0023	1264.9312	1277.7656	1297.4916	1307.5343	1328.3358	1381.636	1407.1899	1412.2886	1431.4912	1477.3437	1492.3923	1494.0427	1500.5221	1509.8125	1519.3064	3015.0612	3017.8814	3029.4162	3056.6877	3057.8362	3070.5612	3093.0313	3096.2493	3100.2627	3102.6886	3127.1838	3191.7638
CCCC1OC1C1CO1	CCC[C@H]1O[C@H]1[C@H]1CO1	
InChI=1S/C7H12O2/c1-2-3-5-7(9-5)6-4-8-6/h5-7H,2-4H2,1H3	InChI=1S/C7H12O2/c1-2-3-5-7(9-5)6-4-8-6/h5-7H,2-4H2,1H3/t5-,6-,7-/m1/s1
