14
gdb 13469	3.14833	1.86552	1.34796	1.9295	59.7	-0.2528	-0.0528	0.2	900.7671	0.10398	-419.684596	-419.676622	-419.675678	-419.717746	27.464	
C	-0.1108088201	 1.4496753306	 0.0817246206	-0.493948
C	-0.0738080741	-0.0635547019	 0.0571884979	 0.351795
O	-0.1569560809	-0.7642825927	 1.0323059798	-0.272797
C	 0.0283709257	-0.663244039	-1.3495674633	-0.086853
O	 0.1013876635	-2.0908271281	-1.3954315645	-0.264838
C	-1.1825836338	-2.2472616001	-2.0348480492	-0.178968
C	-1.3281756888	-0.7243860264	-2.0911450655	 0.330191
O	-2.1169745598	 0.0698696319	-2.4966456592	-0.262701
H	 0.8600207871	 1.8543722207	-0.2269879318	 0.146992
H	-0.8559794962	 1.818951141	-0.6325651331	 0.163058
H	-0.3454844286	 1.7981026615	 1.0879274518	 0.15127
H	 0.828941035	-0.1703893633	-1.9185285389	 0.125943
H	-1.1220628392	-2.7530521565	-3.0058723218	 0.141117
H	-1.9170000698	-2.7543732377	-1.3965917729	 0.149739
64.9029	102.326	130.023	134.8026	259.8178	367.2392	423.4542	462.4553	581.2297	607.4763	714.5984	757.0042	878.9002	942.5282	953.8154	1014.4161	1044.2643	1062.1279	1082.5057	1133.8521	1169.0833	1188.978	1284.0939	1321.7586	1383.7749	1465.0055	1473.1118	1476.3483	1830.8261	1920.9524	3018.7763	3027.7612	3034.9594	3076.2923	3096.6662	3155.6844
CC(=O)C1OCC1=O	CC(=O)[C@H]1OCC1=O	
InChI=1S/C5H6O3/c1-3(6)5-4(7)2-8-5/h5H,2H2,1H3	InChI=1S/C5H6O3/c1-3(6)5-4(7)2-8-5/h5H,2H2,1H3/t5-/m1/s1
