19
gdb 107158	4.2046	0.99822	0.9335	1.3622	76.27	-0.2605	0.0706	0.3311	1292.1104	0.158512	-422.9678	-422.959335	-422.958391	-423.001042	32.494	
O	 0.1532427668	 1.3588002175	 0.1918298486	-0.412039
C	 0.0578109031	-0.0337841469	-0.0797105658	-0.174412
C	-1.3604397537	-0.5157870879	-0.1189724192	 0.333706
C	-2.1111736518	-0.9776069284	 1.1012981154	-0.339897
C	-1.8990245781	-1.9568394976	-0.0275504283	-0.204403
C	-2.8547153161	-1.6441182682	-1.1512142111	 0.477654
C	-3.3194120078	-2.5138007342	-2.2287247895	-0.275875
O	-4.2099875128	-2.0626111177	-1.1963874239	-0.274998
C	-2.3711485288	-0.1829310335	-1.2343982343	-0.388901
H	-0.3115781894	 1.5211098275	 1.0196475522	 0.282433
H	 0.5365749273	-0.1704150043	-1.0560433843	 0.109855
H	 0.6302134591	-0.6282493922	 0.6514037169	 0.085487
H	-1.5054386463	-1.1699413202	 1.9823612656	 0.112778
H	-3.1081249936	-0.6018524689	 1.316549854	 0.122387
H	-1.3571896873	-2.8847866362	 0.1128528305	 0.092916
H	-3.5009925812	-2.0985685997	-3.2198013022	 0.114868
H	-3.0861047541	-3.5782872503	-2.2089243739	 0.114426
H	-3.1145031666	 0.5839756563	-0.9989831198	 0.111097
H	-1.8995429385	 0.056645545	-2.1911868408	 0.112917
76.6568	95.733	182.2908	274.5142	292.2688	342.2861	353.9308	401.6399	408.9866	492.2868	577.1254	712.2875	791.2713	816.3635	859.0043	888.0582	928.8323	940.5895	951.0078	985.3263	1009.2044	1016.498	1055.6341	1082.2695	1100.4649	1121.1174	1139.1301	1159.1439	1166.5565	1208.2646	1229.1607	1255.1944	1294.4864	1364.6007	1393.2101	1429.2268	1445.0149	1477.1215	1493.982	1505.0323	1539.4953	2968.6159	3055.7023	3061.2099	3074.1127	3108.9251	3109.8539	3159.0898	3181.2201	3196.7653	3807.9476
OCC12CC1C1(CO1)C2	OC[C@]12C[C@H]1[C@]1(CO1)C2	
InChI=1S/C7H10O2/c8-3-6-1-5(6)7(2-6)4-9-7/h5,8H,1-4H2	InChI=1S/C7H10O2/c8-3-6-1-5(6)7(2-6)4-9-7/h5,8H,1-4H2/t5-,6-,7-/m1/s1
