20
gdb 54186	2.43272	1.53861	1.25381	3.34	78.85	-0.2265	-0.0048	0.2217	1098.5614	0.169655	-403.123458	-403.114487	-403.113543	-403.157293	34.404	
C	 0.4918576501	 0.7976005464	-0.8989880971	-0.496336
C	-0.0726193724	 0.0987289443	 0.3182389557	 0.357287
O	 0.4679440785	 0.1780467808	 1.400698538	-0.318047
C	-1.3305231803	-0.7684062301	 0.1600382252	 0.214498
C	-2.1643929186	-0.7395163664	 1.4411798739	-0.446993
C	-2.2302745329	-0.6658315283	-1.1358228644	-0.300499
C	-1.9155105126	-2.1347602838	-1.4344809729	-0.035377
N	-0.4470410009	-2.2109319397	-1.6259332253	-0.336419
C	-1.0147562281	-2.2300254044	-0.2573045717	-0.07724
H	 1.4320478132	 1.2829834927	-0.6333059702	 0.130096
H	 0.6382411859	 0.0689581855	-1.7023665597	 0.168075
H	-0.2141188771	 1.5502459293	-1.2693102499	 0.131018
H	-2.614709511	 0.2475698936	 1.5893909953	 0.117391
H	-2.9711054376	-1.477893897	 1.3926999778	 0.106475
H	-1.5334943529	-0.9542058303	 2.3059064648	 0.142169
H	-3.2753114434	-0.4839502347	-0.8761056041	 0.107822
H	-1.9240487409	 0.0347753335	-1.9145161566	 0.108702
H	-2.5673894539	-2.8797414249	-1.8730612367	 0.097091
H	-0.2187843751	-3.1752681845	-1.8654090815	 0.232666
H	-0.8102177701	-3.050086122	 0.4208068195	 0.097623
34.2297	163.9094	206.7001	223.6118	247.1397	270.1615	303.7911	373.5896	441.8861	468.2871	485.0773	610.1716	627.5545	758.5026	811.8989	838.4873	874.8175	880.384	927.4989	951.8885	968.2411	982.3209	1017.9466	1047.0252	1080.7473	1095.4393	1139.2939	1147.7735	1179.5397	1196.2175	1236.4248	1276.5033	1300.1296	1320.6301	1374.8266	1377.6904	1402.9184	1467.8049	1472.982	1484.5509	1490.7642	1499.5087	1789.2228	3034.7161	3037.1497	3074.2633	3101.5206	3103.1216	3129.3244	3135.0506	3150.6351	3181.9395	3197.5056	3476.6221
CC(=O)C1(C)CC2NC12	CC(=O)[C@@]1(C)C[C@H]2N[C@@H]12	
InChI=1S/C7H11NO/c1-4(9)7(2)3-5-6(7)8-5/h5-6,8H,3H2,1-2H3	InChI=1S/C7H11NO/c1-4(9)7(2)3-5-6(7)8-5/h5-6,8H,3H2,1-2H3/t5-,6-,7-/m1/s1
