19
gdb 71341	3.22172	1.57003	1.23925	1.5857	80.51	-0.254	0.0933	0.3473	1049.2637	0.158854	-385.795133	-385.787602	-385.786658	-385.826737	30.505	
C	-0.0437398674	 1.4626588959	 0.0647235565	-0.522864
C	 0.020528148	-0.0360988503	-0.0430701411	 0.372496
C	 0.5755718092	-0.9071108853	-1.1927226055	-0.32573
C	 0.0873793	-1.9268220168	-0.1491875472	-0.037117
C	 0.5696146729	-1.0388635297	 1.053733441	-0.21067
C	-0.8017231983	-1.1316989394	 1.7032657612	 0.520995
C	-1.359248838	-1.7742748404	 2.8855471621	-0.305323
O	-1.3078529515	-0.333644902	 2.7515320681	-0.296901
C	-1.1628812375	-1.0538124862	 0.2286213275	-0.210671
H	 0.9582057353	 1.9030475468	 0.0106579922	 0.118
H	-0.6391324744	 1.8892790686	-0.7502997029	 0.117999
H	-0.4982581436	 1.7645083507	 1.013354194	 0.143244
H	 0.0311856876	-0.8728222123	-2.1425080514	 0.091201
H	 1.655500194	-0.8588105697	-1.3689212625	 0.091201
H	 0.1114891892	-3.016118642	-0.1800764094	 0.073582
H	 1.5645456098	-1.0304526189	 1.4994114794	 0.075251
H	-2.3600950149	-2.2034535353	 2.8573417997	 0.115028
H	-0.7006498829	-2.1891348871	 3.6476636786	 0.115028
H	-2.1359438676	-1.0623813465	-0.2629707502	 0.075251
125.8614	213.3917	230.8569	278.2443	298.2965	360.4096	467.0908	503.638	558.9673	670.7171	714.6616	805.6036	829.2584	843.0205	877.974	880.4125	895.0324	944.1388	984.5557	988.595	1018.9051	1053.9977	1075.2781	1112.9196	1122.4118	1123.0567	1145.8157	1150.6168	1155.2901	1157.0277	1202.4671	1228.157	1230.0957	1285.3834	1332.2647	1409.7984	1464.9112	1490.026	1492.2851	1516.5621	1555.435	3027.1187	3032.7237	3079.9954	3087.5671	3089.9824	3108.0607	3109.0312	3114.0882	3122.5092	3164.5144
CC12CC3C1C1(CO1)C23	C[C@@]12C[C@H]3[C@@H]1[C@]1(CO1)[C@@H]23	
InChI=1S/C8H10O/c1-7-2-4-5(7)8(3-9-8)6(4)7/h4-6H,2-3H2,1H3	InChI=1S/C8H10O/c1-7-2-4-5(7)8(3-9-8)6(4)7/h4-6H,2-3H2,1H3/t4-,5-,6+,7+,8+
