18
gdb 74612	3.52581	1.61189	1.37105	1.6793	75.54	-0.2316	0.0246	0.2562	982.8952	0.149827	-401.942783	-401.935721	-401.934777	-401.974045	28.525	
C	 0.0435431057	 1.5234554366	 0.1528273634	-0.461579
C	-0.0248749676	 0.0369463632	-0.019067821	 0.396116
N	-1.1236139175	-0.6035320486	 0.0073794987	-0.313362
C	-1.0698323219	-2.0374477321	-0.0199581913	 0.01234
C	-0.602974667	-2.8628599426	-1.2019798675	-0.073576
C	 0.4541583102	-2.0904719974	-1.9890935717	-0.262168
C	 1.2237388307	-1.855114369	-0.6489960724	 0.087609
O	 1.2196089572	-0.4981085485	-0.1923002728	-0.268376
C	 0.2363848355	-2.7683862427	 0.0793224226	-0.124187
H	 0.6866215064	 1.7719274094	 1.0036790567	 0.138779
H	 0.4851487381	 1.9937070756	-0.7316881064	 0.135374
H	-0.9575610903	 1.9181932661	 0.3214995718	 0.144002
H	-1.8981637736	-2.4901638702	 0.515760927	 0.09777
H	-1.1807301761	-3.70476108	-1.5631008375	 0.088984
H	 1.02380279	-2.7242351163	-2.6730003268	 0.107985
H	 0.1280499474	-1.1911309322	-2.519338189	 0.111196
H	 2.26838343	-2.1612697935	-0.6502597902	 0.09367
H	 0.4731142728	-3.5020869479	 0.8381100164	 0.089423
132.7187	155.7623	257.1881	333.3273	390.7133	445.4519	519.7386	569.2863	636.9164	742.6054	766.928	779.8261	808.417	835.6513	892.7912	944.6624	961.884	974.0394	998.5589	1006.141	1032.153	1062.4592	1074.9753	1088.2717	1111.2133	1155.503	1211.2362	1222.5622	1252.5123	1254.0677	1302.3233	1334.8378	1371.8026	1406.3963	1410.4026	1474.6014	1476.2762	1484.5542	1725.6255	3045.8313	3057.5124	3101.7988	3109.737	3130.1615	3161.2054	3165.6243	3187.0827	3203.1333
CC1=NC2C3CC(O1)C23	CC1=N[C@H]2[C@H]3C[C@@H](O1)[C@@H]23	
InChI=1S/C7H9NO/c1-3-8-7-4-2-5(9-3)6(4)7/h4-7H,2H2,1H3	InChI=1S/C7H9NO/c1-3-8-7-4-2-5(9-3)6(4)7/h4-7H,2H2,1H3/t4-,5+,6-,7-/m0/s1
