16
gdb 10887	2.73638	2.00565	1.74193	2.127	60.36	-0.2385	0.0643	0.3028	831.893	0.129445	-420.814678	-420.806911	-420.805967	-420.846157	30.001	
O	 0.2067961363	 1.4056174236	-0.151587106	-0.45144
C	 0.065240685	 0.023403487	-0.004330607	 0.114241
C	-0.0256883416	-0.6553988501	 1.4034398257	-0.160957
C	-1.4858802598	-0.1212816776	 1.5101883371	-0.300564
C	-1.3545727508	-0.6517243866	 0.0603362266	 0.328416
O	-2.3797433827	-0.6186059714	-0.8610941334	-0.469955
C	-0.6498041715	-1.8886245618	 0.6784923175	 0.076483
O	 0.1115289386	-2.6546193819	-0.2219251236	-0.445922
H	-0.5253699559	 1.8539090493	 0.2832529292	 0.284404
H	 0.7755988871	-0.4362310806	-0.6891826436	 0.098735
H	 0.7274093884	-0.6626813344	 2.1877881488	 0.080763
H	-2.1683689634	-0.6677180177	 2.1662587773	 0.101582
H	-1.6123356135	 0.9540948476	 1.6487813202	 0.089725
H	-2.0715340303	-1.050579732	-1.6659953598	 0.292455
H	-1.2910417544	-2.5153270163	 1.3103527583	 0.072996
H	 0.6451913385	-3.2767285972	 0.2814859026	 0.289038
166.7358	194.7509	240.906	257.5964	267.6491	307.5403	384.5148	420.3387	481.2875	566.0016	662.1943	673.9815	765.2646	827.4037	849.832	934.5978	944.6558	957.9483	1029.9348	1068.2929	1105.8293	1138.2699	1144.9323	1153.3101	1174.1918	1219.1736	1233.675	1279.0139	1296.0061	1313.5412	1375.3853	1426.7654	1465.7485	1539.3182	3029.9367	3066.242	3120.5251	3138.1611	3150.1829	3803.7891	3817.801	3826.7168
OC1C2CC1(O)C2O	O[C@H]1[C@H]2C[C@]1(O)[C@H]2O	
InChI=1S/C5H8O3/c6-3-2-1-5(3,8)4(2)7/h2-4,6-8H,1H2	InChI=1S/C5H8O3/c6-3-2-1-5(3,8)4(2)7/h2-4,6-8H,1H2/t2-,3-,4-,5-/m0/s1
