17
gdb 29120	3.02219	1.35925	0.94428	4.5846	81.78	-0.1863	-0.0275	0.1588	1203.896	0.1377	-418.08287	-418.074412	-418.073468	-418.115642	32.221	
C	-0.0199871349	 1.5169009898	-0.0119785081	-0.470954
C	-0.034877821	 0.0178628268	-0.0014864408	 0.138236
C	-1.1680973764	-0.7294419875	-0.1120945867	-0.187988
C	-1.1623050342	-2.160498724	-0.0926422946	 0.228455
N	-2.3736879212	-2.8589486325	-0.2852566583	-0.594724
C	 0.0453153487	-2.7756228634	 0.0382939669	-0.056007
N	 1.1933399296	-2.0259860222	 0.1269082097	-0.371111
C	 1.2669976057	-0.6358901277	 0.1269070915	 0.371673
O	 2.3449860926	-0.0603452213	 0.2257458262	-0.406847
H	 0.6058502741	 1.8891539721	-0.8301565794	 0.144294
H	-1.0270361591	 1.927914923	-0.1175258704	 0.109307
H	 0.4296113521	 1.9039588014	 0.908876564	 0.142447
H	-2.127235577	-0.2285200638	-0.2270162737	 0.094903
H	-3.1412620657	-2.4550982416	 0.2376744823	 0.245456
H	-2.3024766522	-3.8421715466	-0.0558302211	 0.240566
H	 0.1707578559	-3.8509904577	 0.0672429694	 0.115129
H	 2.0871680228	-2.4876828947	 0.2158154831	 0.257167
123.8272	135.8459	195.0539	216.2313	271.1854	335.6364	345.8576	411.7693	467.7587	504.5687	563.9055	587.4284	674.3896	705.8381	743.2453	784.3624	811.5006	825.3264	924.7021	972.6112	1014.1042	1066.7936	1108.8905	1150.5114	1200.4345	1251.5745	1291.8715	1387.8547	1411.7983	1441.9132	1466.5507	1469.6586	1496.5526	1610.4946	1654.9519	1698.0549	1759.6543	3035.8099	3089.4407	3121.8441	3148.0269	3203.666	3527.7677	3615.4674	3618.5444
CC1=CC(N)=CNC1=O	Cc1cc(N)c[nH]c1=O	
InChI=1S/C6H8N2O/c1-4-2-5(7)3-8-6(4)9/h2-3H,7H2,1H3,(H,8,9)	InChI=1S/C6H8N2O/c1-4-2-5(7)3-8-6(4)9/h2-3H,7H2,1H3,(H,8,9)
