15
gdb 36336	4.98754	0.80203	0.73275	5.6948	70.6	-0.2991	-0.0151	0.2841	1457.4703	0.11249	-416.810285	-416.801807	-416.800863	-416.844762	29.496	
N	-0.2594935053	-1.1427022775	 0.3440123502	-0.290439
C	-0.1790359126	 0.0065640296	 0.2632600093	 0.268006
C	-0.0740630313	 1.4594823699	 0.1458551039	-0.357167
C	 1.3302399358	 1.9176744922	-0.2498726582	 0.156338
C	 1.6020306465	 3.4366099549	-0.2186868235	-0.32863
C	 2.694157727	 3.0691157941	 0.820275645	 0.001572
O	 2.2993770817	 1.6834953725	 0.8002286696	-0.279257
C	 4.0789776142	 3.2712471294	 0.3828886429	 0.279429
N	 5.1649532894	 3.4503194636	 0.031525652	-0.306561
H	-0.7885025597	 1.8052341451	-0.6113223857	 0.160898
H	-0.355876902	 1.9179215275	 1.1000423126	 0.157625
H	 1.6380909256	 1.4226650191	-1.1776128987	 0.119901
H	 1.9579932364	 3.8822342715	-1.1460821503	 0.148589
H	 0.7923042188	 4.0393384614	 0.1952294283	 0.131197
H	 2.5719957755	 3.5085604067	 1.8160415228	 0.1385
44.1446	69.3099	118.9596	184.9763	229.5446	330.5608	378.6013	392.4072	515.3177	545.6491	572.0516	771.4272	784.7332	874.3378	911.8955	948.6371	987.9719	1014.5577	1036.2658	1078.3696	1117.0044	1156.8639	1234.6788	1254.9705	1261.9208	1297.9743	1338.3077	1363.1247	1403.9039	1451.2735	1489.5676	2359.0771	2369.1412	3040.8312	3049.0814	3055.076	3089.577	3094.1651	3161.1427
N#CCC1CC(O1)C#N	N#CC[C@H]1C[C@@H](O1)C#N	
InChI=1S/C6H6N2O/c7-2-1-5-3-6(4-8)9-5/h5-6H,1,3H2	InChI=1S/C6H6N2O/c7-2-1-5-3-6(4-8)9-5/h5-6H,1,3H2/t5-,6+/m0/s1
