14
gdb 46173	1.85786	1.65549	1.30176	4.4431	73.68	-0.2648	-0.0564	0.2084	1051.6464	0.098381	-399.525201	-399.516536	-399.515592	-399.559133	31.035	
O	 0.0134459429	 0.019569007	-0.0939581084	-0.248415
C	-0.0597640522	 1.1969889307	 0.0147044884	 0.379984
C	-1.1573005415	 2.2097556074	 0.326804293	-0.336954
C	-0.0670822308	 3.2789755612	 0.6140292886	-0.269154
C	 1.0650612964	 2.34567184	 0.0204059753	-0.146416
C	 2.2213938811	 2.0815049484	 0.8495694188	 0.258079
C	 3.1448680237	 1.8355031839	 1.5768548169	-0.384274
C	 1.4176124009	 2.7064196851	-1.3499841061	 0.260749
N	 1.6455705589	 2.9914181987	-2.4470170396	-0.326728
H	-1.7567391905	 2.4237643747	-0.5639360561	 0.162701
H	-1.8309700123	 1.9312819914	 1.1398815574	 0.151408
H	-0.1772216199	 4.2335007061	 0.1024815997	 0.144457
H	 0.1015057836	 3.4459496516	 1.6774204364	 0.143028
H	 3.9739411798	 1.6213931838	 2.2057717558	 0.211536
51.9295	114.4102	121.1087	155.4483	219.8729	357.8907	392.296	458.4527	513.72	544.3294	576.6665	618.0223	641.1835	666.3443	716.436	753.6151	874.2404	918.7194	949.3956	1027.281	1070.8274	1103.7159	1195.4085	1220.3155	1246.2131	1267.8076	1436.614	1485.423	1926.0159	2242.5018	2351.3501	3066.0386	3105.2899	3124.8904	3170.8132	3499.5243
O=C1CCC1(C#C)C#N	O=C1CC[C@]1(C#C)C#N	
InChI=1S/C7H5NO/c1-2-7(5-8)4-3-6(7)9/h1H,3-4H2	InChI=1S/C7H5NO/c1-2-7(5-8)4-3-6(7)9/h1H,3-4H2/t7-/m1/s1
