17
gdb 80594	2.73736	1.45398	1.37054	3.555	68.21	-0.2284	0.0411	0.2695	1013.5657	0.136548	-455.132403	-455.124046	-455.123102	-455.165576	31.791	
N	 0.653074011	 0.1150163743	 0.2575450466	-0.539539
C	-0.5325771356	 0.3110372064	-0.4086415878	 0.393385
O	-0.6217318671	 0.9458588839	-1.4477638486	-0.396193
N	-1.6288147292	-0.2934566809	 0.2042443471	-0.118204
C	-2.9278625206	-0.4127330111	-0.5020618134	-0.201152
C	-2.9861307281	-1.898107689	-0.1284576357	-0.144932
C	-1.7366294405	-2.5945303955	-0.6011750301	 0.14503
O	-1.0913994128	-2.3671079768	-1.8106002433	-0.432291
C	-1.64566081	-1.7069294552	 0.6090312787	-0.101002
H	 1.4208778067	 0.6779302869	-0.0705483233	 0.265715
H	 0.6334167107	-0.0860849841	 1.2437440908	 0.258448
H	-3.6974155159	 0.1956990001	-0.0198727368	 0.121188
H	-2.8856704763	-0.1620500614	-1.5658947901	 0.133521
H	-3.8760527638	-2.4194436933	 0.1976700896	 0.101013
H	-1.7152899537	-3.6554877853	-0.3686423022	 0.11381
H	-1.0726865301	-1.422455315	-2.0087656361	 0.30541
H	-1.3284636345	-2.0134970941	 1.5999957645	 0.095795
57.6437	102.5268	191.6458	262.6931	307.1014	337.5332	387.9812	434.9918	491.29	527.6978	574.9752	666.4189	679.6001	742.562	787.7781	817.5446	857.8403	931.9305	973.5461	1026.6125	1038.7495	1064.2384	1074.507	1112.5619	1130.8343	1154.7614	1185.4658	1203.5565	1260.4028	1300.0334	1321.8752	1361.5558	1410.049	1458.6706	1523.0396	1616.332	1771.6299	3057.1613	3104.5725	3157.7905	3166.3307	3205.7557	3598.2108	3721.6027	3778.1027
NC(=O)N1CC2C(O)C12	NC(=O)N1C[C@H]2[C@@H](O)[C@@H]12	
InChI=1S/C5H8N2O2/c6-5(9)7-1-2-3(7)4(2)8/h2-4,8H,1H2,(H2,6,9)	InChI=1S/C5H8N2O2/c6-5(9)7-1-2-3(7)4(2)8/h2-4,8H,1H2,(H2,6,9)/t2-,3+,4-/m1/s1
