21
gdb 74394	2.88185	1.47892	1.16511	1.6549	84.28	-0.2259	0.0149	0.2408	1149.8803	0.182549	-387.096116	-387.087744	-387.0868	-387.128369	33.684	
C	-0.0613818556	 1.4897637692	 0.0564319047	-0.478049
C	 0.0169427215	-0.0054304535	-0.0232065269	 0.307178
C	 0.0389648204	-0.7060098094	-1.1601459605	-0.192506
C	 0.0888569412	-2.2216446245	-1.0532524431	 0.384154
C	-0.1082910069	-2.9654368549	-2.3507103664	-0.489015
C	 1.2331196335	-2.6067813111	-0.0766730876	-0.277399
C	 0.1442569863	-2.2929948672	 0.9688628388	 0.083829
C	 0.0560508976	-0.7917563692	 1.2778903648	-0.301106
O	-0.8752150378	-2.621650786	-0.0137844841	-0.326598
H	 0.7971071201	 1.904837639	 0.6005598231	 0.121206
H	-0.0881018546	 1.9455327391	-0.9371885213	 0.120947
H	-0.9581220924	 1.8098763951	 0.6030359726	 0.125484
H	 0.017417794	-0.2319468672	-2.1374452142	 0.077633
H	 0.6824549016	-2.7047466429	-3.0625909712	 0.118163
H	-0.0882983735	-4.0451540618	-2.1822952743	 0.120827
H	-1.0713834327	-2.7022291184	-2.8010198429	 0.128126
H	 1.4573678583	-3.6753556588	-0.1109872483	 0.099788
H	 2.1493217844	-2.0132945333	-0.0918689144	 0.094344
H	 0.0722595079	-2.9167099976	 1.8640689374	 0.070545
H	 0.908830591	-0.4754132961	 1.8954172683	 0.10116
H	-0.8462807443	-0.5845239906	 1.8693302354	 0.111291
149.8034	185.1824	211.613	240.6736	247.7605	353.9059	379.2539	417.4011	429.0823	498.6978	521.7434	622.9479	679.4616	802.4468	813.284	853.1958	871.4033	883.0434	930.0016	934.6578	975.4991	1016.6172	1018.1639	1035.9602	1062.6802	1101.9164	1117.5759	1146.3173	1188.2017	1234.8407	1240.4534	1267.3967	1312.7833	1326.0274	1339.8521	1385.6599	1406.8516	1412.3236	1461.1112	1477.6506	1478.9525	1484.1278	1489.9751	1494.9744	1719.2141	3005.46	3013.7137	3034.3806	3037.1917	3058.3797	3061.974	3074.1064	3102.1782	3108.6003	3120.565	3129.0495	3163.3311
CC1=CC2(C)CC(C1)O2	CC1=C[C@@]2(C)C[C@@H](C1)O2	
InChI=1S/C8H12O/c1-6-3-7-5-8(2,4-6)9-7/h4,7H,3,5H2,1-2H3	InChI=1S/C8H12O/c1-6-3-7-5-8(2,4-6)9-7/h4,7H,3,5H2,1-2H3/t7-,8+/m1/s1
