17
gdb 15369	3.75271	1.24972	1.0384	3.4391	67.75	-0.2312	0.0316	0.2627	1137.1639	0.141084	-400.991416	-400.982823	-400.981878	-401.025474	30.256	
C	 0.0985514167	 0.9790354298	 0.4988164847	-0.245195
O	-0.1263589201	-0.0623432885	-0.4393717352	-0.246971
C	-1.3862075501	-0.6461579891	-0.2967550919	 0.093646
C	-1.5708531683	-1.9771526128	-0.9631618547	-0.348113
C	-1.4835674153	-1.8940875561	 0.5491159782	 0.023701
N	-0.2918061853	-2.3365083004	 1.2048952491	-0.280713
C	-0.3029102997	-3.1524762535	 2.2911570617	 0.153444
O	-1.296703491	-3.6224003922	 2.804685567	-0.327764
H	 1.101758345	 1.3674515597	 0.3100704351	 0.132013
H	-0.6290476196	 1.7930812556	 0.3697078476	 0.117515
H	 0.0362777775	 0.6159943372	 1.5335299143	 0.119368
H	-2.2141589748	 0.063058194	-0.2860723483	 0.094322
H	-2.5265254461	-2.2027877991	-1.4224906049	 0.125936
H	-0.7053255211	-2.3763338548	-1.4812209274	 0.127665
H	-2.3669321188	-2.0874855721	 1.1437516656	 0.134538
H	 0.5830835388	-1.9635471942	 0.8690037067	 0.25465
H	 0.7224435122	-3.3433484334	 2.6656138624	 0.071958
33.9232	114.9893	151.0316	207.5527	214.3619	236.1712	296.9955	386.7541	489.1097	574.9859	620.2015	740.1873	771.7509	822.2916	887.6626	981.7854	1021.0628	1035.6586	1069.005	1094.475	1123.4401	1133.5241	1157.2637	1183.9476	1213.9559	1242.2706	1256.7085	1344.688	1392.0564	1430.5087	1465.7639	1488.3241	1489.0884	1509.3126	1541.7869	1802.6453	2935.2817	2994.9841	3051.1541	3098.9942	3124.3265	3136.6605	3207.26	3229.3619	3625.5219
COC1CC1NC=O	CO[C@H]1C[C@H]1NC=O	
InChI=1S/C5H9NO2/c1-8-5-2-4(5)6-3-7/h3-5H,2H2,1H3,(H,6,7)	InChI=1S/C5H9NO2/c1-8-5-2-4(5)6-3-7/h3-5H,2H2,1H3,(H,6,7)/t4-,5+/m1/s1
