15
gdb 11806	3.48308	1.84795	1.38175	4.8103	61.74	-0.2538	0.0022	0.256	890.6196	0.118789	-399.79574	-399.788359	-399.787415	-399.827314	27.755	
N	 0.2691172156	 1.3528009096	-0.2251825226	-0.502843
C	 0.078457062	-0.0549932357	-0.0151847378	-0.26222
C	 0.0513483174	-0.5513399741	 1.4486945001	 0.445836
O	 0.7109399865	-0.4619472052	 2.4305439445	-0.313185
O	-1.1386692559	-1.2304764375	 1.2924775736	-0.266663
C	-1.2960966953	-0.7481094602	-0.0630772694	 0.4506
C	-2.6038022636	-0.2502719574	-0.5632491995	-0.333682
C	-1.9961913217	-1.5453191494	-1.0996791248	-0.340735
H	 0.3033899601	 1.5803559331	-1.2122673159	 0.240089
H	-0.4732078202	 1.899247975	 0.1983987212	 0.24148
H	 0.8334464809	-0.6083663515	-0.5831609571	 0.127121
H	-3.4614953345	-0.3371084713	 0.0944172994	 0.137917
H	-2.6035413484	 0.6281401092	-1.2018280897	 0.115864
H	-1.5920352476	-1.5546206275	-2.1070003211	 0.122405
H	-2.4587909355	-2.4754423371	-0.788222091	 0.138016
102.2056	193.8973	203.9035	242.6357	303.8519	362.5323	482.867	524.2358	567.208	701.1572	746.8649	767.7214	841.8236	858.2052	876.8557	908.8533	969.8499	1014.3095	1048.2851	1076.811	1079.1889	1139.1637	1183.2397	1203.4191	1231.6112	1271.4244	1373.9271	1422.18	1450.9272	1501.8654	1664.7859	1949.6722	3069.2919	3127.6484	3131.1347	3213.1878	3226.0167	3511.8449	3597.8772
NC1C(=O)OC11CC1	N[C@H]1C(=O)OC21CC2	
InChI=1S/C5H7NO2/c6-3-4(7)8-5(3)1-2-5/h3H,1-2,6H2	InChI=1S/C5H7NO2/c6-3-4(7)8-5(3)1-2-5/h3H,1-2,6H2/t3-/m0/s1
