14
gdb 35297	3.02372	1.26475	1.0334	4.2079	74.14	-0.2561	-0.0187	0.2374	1131.1421	0.099294	-399.473761	-399.465904	-399.46496	-399.506358	29.489	
C	 0.0180456999	-1.1630043469	 0.0612671034	-0.398887
C	 0.0493382915	 0.0387995257	 0.0423743821	 0.221925
C	 0.0733822199	 1.4561581582	 0.0148330957	 0.316608
C	 0.2327115677	 2.3314615263	-1.1964571198	-0.344987
C	 1.1976557138	 2.4871435223	-0.0481577473	-0.178592
C	 0.4666781139	 3.159872465	 1.1153842013	-0.052133
O	-0.6168310341	 2.1984753108	 1.0477948363	-0.307358
C	 1.1719795672	 3.0901668045	 2.3976096273	 0.298881
N	 1.7455464267	 3.0565000991	 3.3996237237	-0.311266
H	-0.0068097765	-2.2247195235	 0.0861474126	 0.204669
H	 0.651254482	 1.8428318023	-2.0696477824	 0.144265
H	-0.523950419	 3.0849987719	-1.3955307029	 0.13222
H	 2.2659624922	 2.3468035883	-0.1227729501	 0.140283
H	 0.114529305	 4.184431946	 0.9500150502	 0.134373
76.0438	166.8068	170.6019	206.9701	337.9701	424.1598	471.3227	485.4202	523.7489	549.9414	594.4162	647.26	703.9969	822.6291	832.4147	881.0701	929.2815	959.5079	986.4259	1000.3474	1049.5414	1071.791	1087.4747	1161.2481	1236.0737	1267.9862	1360.4548	1373.8804	1473.9513	2240.755	2363.6715	3050.8222	3123.8724	3222.2588	3231.7474	3499.2474
C#CC12CC1C(O2)C#N	C#C[C@]12C[C@H]1[C@@H](O2)C#N	
InChI=1S/C7H5NO/c1-2-7-3-5(7)6(4-8)9-7/h1,5-6H,3H2	InChI=1S/C7H5NO/c1-2-7-3-5(7)6(4-8)9-7/h1,5-6H,3H2/t5-,6-,7-/m0/s1
