15
gdb 43587	3.58484	1.28085	1.05271	1.6318	69.69	-0.2656	-0.0457	0.2198	1086.3999	0.113579	-416.813984	-416.806575	-416.805631	-416.846197	27.909	
O	 0.0354704772	 0.0497448455	 0.1713539396	-0.307927
C	-0.003880253	 1.2368523029	-0.0094059018	 0.42223
C	-1.2701137994	 2.0746524826	-0.2673006772	-0.377544
C	-0.7248766815	 3.3524944605	-0.9499394111	-0.124988
C	-1.428310694	 4.5747577898	-0.5592904939	 0.297484
N	-1.9981252174	 5.5255536426	-0.2340213875	-0.313962
N	 0.739833988	 3.4658686507	-0.6604143	-0.093975
C	 1.0508244251	 3.3972987787	 0.7606208171	-0.242372
C	 1.1667574446	 2.1695752635	-0.088522796	-0.140485
H	-1.9665822999	 1.5229800923	-0.8992564138	 0.157602
H	-1.7780899827	 2.2781316729	 0.6799448244	 0.159021
H	-0.8065338213	 3.2492625749	-2.0367664618	 0.14755
H	 1.9619079275	 3.910360626	 1.050036106	 0.147554
H	 0.2446500934	 3.4568586527	 1.4874591967	 0.140113
H	 2.1343246935	 1.7729064442	-0.3733336409	 0.129698
82.1791	141.164	181.9925	281.9745	375.1583	433.7924	493.3311	533.8304	560.1162	619.6121	667.561	768.3844	796.0197	852.7863	892.9382	931.75	999.972	1012.2631	1049.6914	1078.3104	1109.2027	1153.9158	1163.4254	1194.2134	1234.935	1259.587	1307.8686	1339.2021	1358.5145	1458.8057	1511.3084	1852.4242	2364.4077	3060.7174	3075.7428	3119.1817	3139.0006	3189.6377	3210.4313
O=C1CC(C#N)N2CC12	O=C1C[C@@H](C#N)N2C[C@@H]12	
InChI=1S/C6H6N2O/c7-2-4-1-6(9)5-3-8(4)5/h4-5H,1,3H2	InChI=1S/C6H6N2O/c7-2-4-1-6(9)5-3-8(4)5/h4-5H,1,3H2/t4-,5-,8?/m0/s1
