15
gdb 57747	6.73753	0.44846	0.43349	3.7151	96.08	-0.2651	-0.0858	0.1793	2396.9522	0.109118	-420.579566	-420.5694	-420.568456	-420.616657	33.91	
C	 0.0321351251	 1.5809000592	 0.1065784796	-0.392024
C	 0.0312862619	 0.057257892	-0.0946691739	-0.063364
O	 0.8665103743	-0.6084765293	 0.8435913016	-0.402986
C	-1.3332931604	-0.4770551373	-0.0806607751	 0.383646
C	-2.4642113263	-0.9115005646	-0.0291375345	-0.275325
C	-3.7266384261	-1.3975361043	 0.0275237301	-0.145705
C	-4.8594238674	-1.8335799507	 0.0842918293	 0.222793
C	-6.2061823386	-2.3355678421	 0.1171036855	-0.03228
O	-6.6901002475	-2.9336406793	 1.0516429549	-0.2212
H	 1.0637930915	 1.9405598536	 0.0891343737	 0.136465
H	-0.5365353694	 2.0805611906	-0.6825511614	 0.134643
H	-0.417782781	 1.8414146845	 1.0697612484	 0.125974
H	 0.479288005	-0.1693421147	-1.0701097418	 0.134451
H	 0.4694742969	-0.5083836064	 1.7165502053	 0.289225
H	-6.7868292779	-2.1280422811	-0.8042948618	 0.105688
30.441	55.6363	69.1096	138.8041	167.6937	234.378	249.9003	291.6873	304.1923	367.9795	467.465	500.846	540.4244	604.868	615.9669	715.0983	863.2267	935.2624	1016.4163	1033.886	1079.1063	1112.6791	1267.0411	1287.5855	1329.1118	1399.3509	1414.0483	1420.4254	1486.9007	1490.6764	1754.5014	2246.5657	2346.6568	2923.1447	3038.8994	3043.9137	3119.5095	3133.519	3800.3034
CC(O)C#CC#CC=O	C[C@@H](O)C#CC#CC=O	
InChI=1S/C7H6O2/c1-7(9)5-3-2-4-6-8/h6-7,9H,1H3	InChI=1S/C7H6O2/c1-7(9)5-3-2-4-6-8/h6-7,9H,1H3/t7-/m1/s1
