16
gdb 33699	3.22808	1.81112	1.33883	1.6767	79.59	-0.2206	-0.0153	0.2054	939.4554	0.124641	-363.490151	-363.48334	-363.482396	-363.520969	28.341	
C	 0.0286806344	-1.1734474768	-0.0270632801	-0.354484
C	 0.0256849959	 0.0284197708	 0.0124365808	 0.11775
C	 0.0277500579	 1.4660198266	 0.0803293985	 0.2358
C	-0.8964528084	 2.1736757193	 1.060762257	-0.16554
C	-0.7047428096	 3.4632783264	 0.7885029604	-0.095369
C	 0.3147958194	 3.4284942088	-0.3268765922	-0.06058
C	 1.3546404698	 2.3090668638	-0.0313202135	-0.102442
C	 1.3432450808	 2.0104336793	-1.5322943189	-0.198454
N	-0.14469867	 2.274026339	-1.2744532298	-0.172803
H	 0.0261015686	-2.2348130212	-0.066397074	 0.187233
H	-1.5538390886	 1.6842498826	 1.7636582346	 0.121012
H	-1.1680955055	 4.3403337606	 1.2160101644	 0.118677
H	 0.6160273328	 4.3439924369	-0.8352213322	 0.081165
H	 2.1849921383	 2.3192917362	 0.6856707663	 0.071072
H	 1.7979003143	 2.7459489014	-2.2008113937	 0.10021
H	 1.5566706698	 0.9910935764	-1.8591946278	 0.116754
150.0605	162.4443	391.4926	421.1933	467.9653	505.2977	509.5984	568.381	631.4626	657.6605	690.1138	708.8995	743.2478	792.6773	827.7409	866.5289	913.563	915.8153	934.7494	975.4945	1043.3827	1049.3865	1080.2897	1099.1346	1130.5585	1150.3772	1201.2914	1230.3324	1244.7075	1258.0504	1307.0515	1333.4827	1527.0846	1637.3158	2235.5197	3029.2946	3065.2408	3128.1012	3130.0731	3233.8841	3261.2405	3500.9575
C#CC12C=CC3C1CN23	C#C[C@@]12C=C[C@H]3[C@@H]1CN23	
InChI=1S/C8H7N/c1-2-8-4-3-7-6(8)5-9(7)8/h1,3-4,6-7H,5H2	InChI=1S/C8H7N/c1-2-8-4-3-7-6(8)5-9(7)8/h1,3-4,6-7H,5H2/t6-,7-,8+/m0/s1
