19
gdb 38724	2.5631	2.05084	1.59188	0.9378	73.48	-0.2528	0.073	0.3258	906.6116	0.162065	-422.988487	-422.981825	-422.98088	-423.019037	28.435	
C	-0.0775764201	 1.5980603875	-0.1743313926	-0.284525
C	 1.3838965992	 1.9804098299	 0.0775486396	-0.00127
O	 2.4681631171	 1.8999401851	-0.8816519819	-0.313695
C	 2.1713002264	 0.7502054397	-0.0945033401	 0.374102
C	 1.2678692548	-0.2636424355	-0.7970906347	-0.272269
C	 0.0087882731	 0.0494187303	 0.0136325644	 0.131971
O	 0.2652241818	-0.3846919462	 1.3585951914	-0.295062
C	 1.4757157093	-0.0108188912	 2.0367648641	-0.040827
C	 2.7672317767	 0.1704027838	 1.1600011924	-0.335678
H	-0.7297881062	 2.0804565227	 0.5584770303	 0.111158
H	-0.4512790197	 1.8385500767	-1.1752622235	 0.115604
H	 1.6022493479	 2.6728152937	 0.8863821744	 0.097943
H	 1.1582834	-0.0223916978	-1.8564855496	 0.110319
H	 1.5925267702	-1.299492894	-0.6821255413	 0.099446
H	-0.9031571204	-0.481903482	-0.2734059757	 0.074225
H	 1.3102664391	 0.9427483329	 2.557217433	 0.099378
H	 1.6189597007	-0.7834814828	 2.7983202349	 0.108023
H	 3.2859757853	-0.7769164128	 0.9835789485	 0.107013
H	 3.448903485	 0.8493483998	 1.6803215765	 0.114145
202.723	264.5793	354.8821	367.8367	407.6892	438.2091	480.5549	572.5054	643.5777	740.2598	753.4177	787.9115	833.5084	857.6351	889.0623	905.8156	926.7025	955.9661	977.5573	1008.5072	1017.5261	1046.4014	1071.3569	1115.2663	1143.0075	1177.0901	1199.2238	1229.5703	1236.3461	1266.1608	1295.6929	1316.1703	1326.9703	1337.8171	1368.3661	1400.7142	1448.3583	1464.5728	1486.0096	1496.4369	1511.9755	3001.5666	3049.2629	3051.8285	3069.0989	3076.5811	3081.176	3104.5354	3106.6347	3131.8201	3142.0895
C1C2OC22CC1OCC2	C1[C@@H]2O[C@@]32C[C@H]1OCC3	
InChI=1S/C7H10O2/c1-2-8-5-3-6-7(1,4-5)9-6/h5-6H,1-4H2	InChI=1S/C7H10O2/c1-2-8-5-3-6-7(1,4-5)9-6/h5-6H,1-4H2/t5-,6-,7+/m0/s1
