17
gdb 53082	3.64081	0.92877	0.75026	3.0226	90.32	-0.2331	-0.0473	0.1857	1512.7908	0.134986	-384.715455	-384.706278	-384.705334	-384.751711	31.924	
C	-0.07957317	 1.4765023275	 0.0151028595	-0.508937
C	 0.0041657615	 0.0254911715	 0.0124621146	 0.211828
C	 0.0738516145	-1.17892899	 0.0102984096	-0.098721
C	 0.0956992917	-2.591486631	 0.0005113317	 0.082176
C	 1.1586036046	-3.4111885939	 0.1220266801	-0.174197
C	 0.8085213995	-4.8735422345	 0.0667574788	-0.264968
C	-0.7194810645	-4.8910392657	-0.1184507456	-0.322653
C	-1.149499538	-3.417810049	-0.1575676097	 0.292884
O	-2.2748717226	-3.0083476551	-0.2902598712	-0.313491
H	 0.5109187524	 1.9097744936	-0.800087676	 0.151595
H	-1.115074882	 1.8115215368	-0.1074476511	 0.158172
H	 0.2981676682	 1.8942901546	 0.9551604715	 0.151596
H	 2.1797246986	-3.0690516472	 0.248706395	 0.112211
H	 1.3391929561	-5.3710869953	-0.7546681704	 0.123977
H	 1.1288258843	-5.3863763824	 0.9823497373	 0.123977
H	-1.034135045	-5.3796053826	-1.0450334598	 0.137276
H	-1.2451858395	-5.3949374674	 0.6976258156	 0.137276
14.8625	75.8544	80.6195	112.1278	242.0151	272.433	336.2105	396.4664	460.4489	472.8975	566.6169	648.5865	681.9495	760.4402	802.6542	901.5587	902.624	938.5254	1020.5166	1025.063	1049.5114	1051.8211	1107.1881	1150.6046	1228.9078	1231.2099	1297.2202	1311.4531	1323.9752	1412.3426	1449.8906	1474.1126	1475.4683	1481.3372	1664.0774	1824.0198	2356.7998	3025.5774	3025.9647	3048.022	3067.2568	3084.7877	3092.1909	3107.4838	3198.4364
CC#CC1=CCCC1=O	CC#CC1=CCCC1=O	
InChI=1S/C8H8O/c1-2-4-7-5-3-6-8(7)9/h5H,3,6H2,1H3	InChI=1S/C8H8O/c1-2-4-7-5-3-6-8(7)9/h5H,3,6H2,1H3
