15
gdb 25762	2.87748	1.51807	0.99546	2.0515	71.1	-0.1932	0.0058	0.199	1106.876	0.113982	-454.01748	-454.009411	-454.008467	-454.049902	31.031	
N	 0.0194969079	 1.3411008378	-0.1020499873	-0.543334
C	 0.0173941795	-0.0316425788	-0.043528169	 0.318845
O	 1.0733913915	-0.6665703119	-0.0812089401	-0.412109
C	-1.2801544511	-0.6905724693	 0.0203213961	 0.082946
C	-1.394627625	-2.0669002689	 0.0823762616	 0.374413
N	-0.4408176462	-3.0241695331	 0.1923754601	-0.59371
O	-2.685221308	-2.4443185972	 0.087811787	-0.187947
C	-3.4447449747	-1.2859173102	 0.025050391	-0.026392
C	-2.6404469753	-0.2040738388	-0.0128728164	-0.314054
H	 0.9188740312	 1.7789163917	 0.0214745094	 0.256637
H	-0.7837157301	 1.8598291351	 0.2109298156	 0.254378
H	 0.4835601436	-2.6515563437	-0.0039348676	 0.286507
H	-0.6654092019	-3.9385311536	-0.1678267159	 0.259118
H	-4.5095699983	-1.4378656982	 0.0139271334	 0.137846
H	-2.971837733	 0.821091429	-0.078438558	 0.106856
92.0041	178.1459	202.0308	282.9933	338.0619	349.1642	389.5855	441.0571	506.0826	522.2946	601.9033	630.4754	671.0512	676.7086	719.5282	749.4773	794.9614	812.4406	905.9829	1019.0483	1049.4679	1091.1731	1156.624	1198.4628	1233.9584	1328.8085	1412.0241	1490.2931	1549.1106	1590.3231	1620.0767	1668.6637	1731.841	3247.7674	3301.0826	3499.9706	3592.84	3666.6559	3720.1062
NC(=O)C1=C(N)OC=C1	NC(=O)c1c(N)occ1	
InChI=1S/C5H6N2O2/c6-4(8)3-1-2-9-5(3)7/h1-2H,7H2,(H2,6,8)	InChI=1S/C5H6N2O2/c6-4(8)3-1-2-9-5(3)7/h1-2H,7H2,(H2,6,8)
