19
gdb 126650	6.41695	0.68167	0.62665	4.1333	79.22	-0.2007	0.0082	0.2088	1771.0412	0.160677	-415.385571	-415.376466	-415.375522	-415.420524	32.723	
C	 0.0536037669	 1.5123140482	 0.149469596	-0.381157
C	-0.0940886759	 0.0045105222	-0.0647786727	-0.190905
C	 0.7426818199	-0.5086299146	-1.2354938958	-0.115226
N	 0.5542400625	-1.9380018312	-1.4235222286	-0.390844
C	 1.2657493559	-2.5800496449	-2.4179852084	 0.383075
C	 1.8323090711	-2.090630791	-3.5784506182	-0.179964
N	 2.3413702918	-3.2090897208	-4.1694009133	-0.15208
N	 2.1229509361	-4.3039933304	-3.4399001311	-0.114975
N	 1.4704135608	-3.9297146347	-2.3712874902	-0.278036
H	 1.0951469975	 1.786549813	 0.3493410231	 0.11847
H	-0.2737863804	 2.0728210318	-0.7330376566	 0.117941
H	-0.5476501835	 1.849824383	 0.9984602374	 0.119269
H	 0.206174111	-0.5269667801	 0.8486276172	 0.099324
H	-1.1441659265	-0.2539804994	-0.2429237491	 0.113722
H	 0.4283998544	 0.0027817822	-2.1555106034	 0.105834
H	 1.8049466942	-0.2478994205	-1.0797320745	 0.090583
H	 0.5478073964	-2.4759309026	-0.5670551796	 0.241256
H	 1.912633067	-1.1108064639	-4.0132915892	 0.134778
H	 2.8394704908	-3.2885032664	-5.0409044829	 0.278935
54.2986	70.4266	98.9804	138.722	234.0021	276.0624	330.7568	342.5484	468.1061	533.9135	600.3944	675.3532	702.0452	749.165	763.4629	781.544	900.6647	917.5536	988.8858	1028.8696	1053.19	1069.9626	1112.6647	1140.7758	1151.8954	1175.9707	1256.756	1275.5581	1298.8765	1321.8634	1340.9144	1359.2238	1411.6132	1416.376	1462.4012	1491.7675	1499.5664	1506.3454	1526.1833	1536.4133	1634.1502	2941.5084	3013.4932	3025.7861	3033.8123	3065.1166	3099.9674	3109.8456	3297.7335	3580.5013	3663.0289
CCCNC1=CNN=N1	CCCNc1c[nH]nn1	
InChI=1S/C5H10N4/c1-2-3-6-5-4-7-9-8-5/h4H,2-3H2,1H3,(H2,6,7,8,9)	InChI=1S/C5H10N4/c1-2-3-6-5-4-7-9-8-5/h4H,2-3H2,1H3,(H2,6,7,8,9)
