13
gdb 12952	2.75026	2.27445	1.6966	2.6837	54.07	-0.2523	-0.0087	0.2435	783.312	0.095127	-435.713721	-435.706644	-435.7057	-435.744794	26.709	
N	-0.1270655068	 1.5160405707	-0.1478162703	-0.60075
C	-0.0397109721	 0.1142974937	-0.033160789	 0.051917
C	-0.3695760895	-0.8095572548	-1.2416796064	 0.101878
O	 0.4719718835	-1.768895372	-1.7667500094	-0.418162
C	-1.1202663852	-0.9841050741	 0.0161718273	-0.015408
O	-0.2935950722	-1.7836038851	 0.9065147938	-0.28907
C	 0.6434437368	-0.737199104	 1.006315298	 0.408783
O	 1.5627277261	-0.6727094954	 1.752186805	-0.319148
H	-0.1776025373	 1.9717943023	 0.756968409	 0.248751
H	 0.6626938008	 1.9017533661	-0.6540615769	 0.252214
H	-0.8687837434	-0.2388636102	-2.0199626457	 0.137363
H	 0.6005740247	-2.4444223775	-1.0874967663	 0.305457
H	-2.1798629752	-0.9422560597	 0.2268872107	 0.136175
128.7753	212.7226	250.5673	271.9256	328.9309	420.4059	434.4331	507.9211	655.6926	662.8018	727.1441	741.5955	794.2499	845.4267	890.3708	920.024	965.8164	1025.0672	1039.4564	1121.1284	1223.5036	1248.5258	1288.7597	1309.7103	1403.2972	1480.5336	1663.8823	1941.1657	3167.6183	3220.8208	3509.239	3586.6305	3767.8264
NC12C(O)C1OC2=O	N[C@]12[C@@H](O)[C@H]1OC2=O	
InChI=1S/C4H5NO3/c5-4-1(6)2(4)8-3(4)7/h1-2,6H,5H2	InChI=1S/C4H5NO3/c5-4-1(6)2(4)8-3(4)7/h1-2,6H,5H2/t1-,2+,4+/m0/s1
