16
gdb 11342	4.93876	1.36418	1.0845	5.6534	72.92	-0.2073	0.0035	0.2109	1063.9885	0.131681	-379.945978	-379.938168	-379.937224	-379.978129	28.504	
C	-0.032960334	 1.4189967997	-0.0705349599	-0.326598
N	-0.060663052	-0.0223024472	 0.0882993751	-0.371177
C	 0.6223590696	-0.6266290302	 1.0977366167	 0.368175
C	 1.243133201	-0.1062861018	 2.1767193347	-0.329325
C	 1.7736527778	-1.1947146835	 2.9825915907	 0.430617
N	 2.4188735791	-1.1213043831	 4.0707789084	-0.568544
O	 1.4621589577	-2.3954056201	 2.3531026547	-0.254264
C	 0.7309793039	-2.1316309773	 1.1658450185	-0.172803
H	 0.9824267889	 1.8056374734	-0.2378602641	 0.130373
H	-0.6623832952	 1.7002203901	-0.9169243223	 0.131912
H	-0.4351938924	 1.8982869416	 0.8279654839	 0.147074
H	-0.2033392011	-0.5634635496	-0.7490601777	 0.246849
H	 1.3623514	 0.9290125936	 2.4514961482	 0.110279
H	 2.6653199833	-2.0553816225	 4.3994639668	 0.214223
H	-0.2554624809	-2.6123569514	 1.2198200719	 0.126018
H	 1.2655044643	-2.5503418318	 0.3007728442	 0.117191
119.5461	147.9062	179.3228	191.4562	223.7396	349.8157	420.8055	485.1438	530.6639	641.1866	690.6137	709.7919	814.8926	849.908	887.7097	931.4732	1035.0222	1047.0693	1056.3842	1106.4765	1151.7047	1174.3683	1201.6263	1255.9484	1284.4694	1338.7787	1388.2458	1460.1631	1481.2099	1506.742	1513.196	1545.0895	1696.9877	1760.5691	2998.5124	3003.784	3030.3185	3075.9188	3131.5798	3268.0591	3485.1505	3630.1359
CNC1=CC(=N)OC1	CN[C]1C=C([NH])OC1	
InChI=1S/C5H8N2O/c1-7-4-2-5(6)8-3-4/h2,6-7H,3H2,1H3	InChI=1S/C5H8N2O/c1-7-4-2-5(6)8-3-4/h2,6-7H,3H2,1H3
