22
gdb 7694	3.24611	1.98403	1.77959	0.0669	80.88	-0.2879	0.0855	0.3734	893.994	0.202456	-313.068843	-313.06137	-313.060426	-313.09971	31.248	
C	-0.0626132689	 1.5178760741	 0.0055955575	-0.445817
C	 0.0185321069	-0.0163388917	 0.0206190705	 0.354633
C	-1.411952435	-0.5678107108	-0.0803789768	-0.445821
C	 0.9771786175	-0.5906962653	-1.0917294925	-0.257221
C	 2.0227382053	-1.3034612873	-0.2085697372	-0.005326
C	 1.1299663557	-2.0290283641	 0.836468645	-0.233057
C	 0.7896102606	-0.5660724438	 1.255665199	-0.028507
C	 2.2779123343	-0.2545772642	 0.9096075802	-0.233058
H	 0.9197855304	 1.9930880344	 0.0658901278	 0.110947
H	-0.539932217	 1.8687552807	-0.91634908	 0.109249
H	-0.6629748287	 1.8851080658	 0.8463841181	 0.107036
H	-1.8927308751	-0.2232207892	-1.002896892	 0.109253
H	-1.4438252077	-1.6603058274	-0.0840149315	 0.110946
H	-2.0248014671	-0.2190169245	 0.7592501736	 0.107033
H	 0.4616624445	-1.2833545779	-1.7648044376	 0.089435
H	 1.4217243455	 0.2007548225	-1.7037285802	 0.089434
H	 2.8418904834	-1.8123549406	-0.7189794093	 0.053135
H	 0.3304493759	-2.6813864116	 0.477392615	 0.086683
H	 1.7167444312	-2.5502647108	 1.5966869998	 0.092195
H	 0.3663940181	-0.332642626	 2.2348969639	 0.049951
H	 2.965172579	-0.6205049416	 1.6762226801	 0.092196
H	 2.5574113811	 0.760967879	 0.6193038468	 0.086683
185.4605	225.8148	245.4622	260.763	371.7257	375.5333	440.8809	477.6198	519.0054	571.0166	736.8853	806.4933	840.4175	853.0651	856.8017	915.1076	919.1328	949.6369	953.8908	975.1307	988.5401	1030.9394	1037.1949	1056.2809	1076.148	1084.977	1092.5898	1170.9918	1215.0979	1219.8523	1227.0549	1242.4864	1247.2854	1279.6143	1293.531	1310.4576	1343.9146	1400.5361	1422.4215	1481.3169	1486.4223	1496.5747	1503.3111	1503.5131	1512.8347	1535.8191	3023.4932	3028.9768	3042.8618	3060.5437	3064.0341	3080.3755	3086.282	3087.5741	3092.3012	3102.0352	3107.3972	3112.0444	3119.0908	3121.1326
CC1(C)CC2CC1C2	CC1(C)C[C@@H]2C[C@H]1C2	
InChI=1S/C8H14/c1-8(2)5-6-3-7(8)4-6/h6-7H,3-5H2,1-2H3	InChI=1S/C8H14/c1-8(2)5-6-3-7(8)4-6/h6-7H,3-5H2,1-2H3/t6-,7+
