16
gdb 111727	2.20109	1.45418	1.06312	4.2634	70.62	-0.2648	-0.0141	0.2507	1143.6354	0.123951	-437.839382	-437.831029	-437.830085	-437.872861	30.523	
O	 0.0399155892	 1.3282177631	 0.3108514511	-0.412831
C	 0.0445993094	-0.0054857804	-0.1646092328	-0.093383
C	-1.3387596542	-0.6199766451	-0.1208248051	-0.106447
C	-1.6520991887	-2.0983631119	-0.1459032915	-0.203671
C	-0.6663108717	-2.8834888845	 0.7149570785	-0.105241
O	-0.852938917	-1.9742769773	 1.8384279715	-0.315193
C	-1.8814427434	-1.2826751719	 1.1248353667	 0.312919
C	-3.0694296874	-0.9004282535	 1.8178813251	 0.230468
N	-4.0328320447	-0.5753988748	 2.3703498062	-0.341376
H	-0.1579670383	 1.3045940822	 1.2530856516	 0.29288
H	 0.3841131372	 0.0461714457	-1.2043225264	 0.120946
H	 0.7577776305	-0.6279815402	 0.389731296	 0.109379
H	-2.0946030829	-0.0331630543	-0.6379230805	 0.126067
H	-2.3847392066	-2.5285430192	-0.81445958	 0.130092
H	-1.0295931418	-3.8821086415	 0.9761393564	 0.132202
H	 0.3774654304	-2.9364582264	 0.3916188331	 0.123188
70.3857	99.6254	168.0522	212.9313	241.6683	326.2738	359.5583	479.7505	493.4266	517.3477	554.3891	648.6432	786.5854	822.8551	891.7854	946.3742	972.9743	978.9056	1012.1237	1032.8664	1070.5525	1096.0712	1119.7774	1157.4104	1181.078	1198.6126	1267.2606	1310.4811	1337.5263	1382.6833	1412.9628	1454.98	1494.5369	1519.2979	2348.1882	3026.9938	3048.8367	3080.4027	3101.3397	3152.5276	3216.5837	3813.7437
OCC1C2COC12C#N	OC[C@H]1[C@H]2CO[C@@]12C#N	
InChI=1S/C6H7NO2/c7-3-6-4(1-8)5(6)2-9-6/h4-5,8H,1-2H2	InChI=1S/C6H7NO2/c7-3-6-4(1-8)5(6)2-9-6/h4-5,8H,1-2H2/t4-,5+,6-/m0/s1
