12
gdb 130875	2.23916	1.61155	0.9371	1.3288	70.68	-0.2692	-0.0706	0.1986	1126.8769	0.076384	-435.452064	-435.444514	-435.44357	-435.484547	27.074	
O	-0.0639363838	 0.006348069	 0.00031803	-0.266754
C	-0.0076110223	 1.2150162454	 0.0084021291	 0.055548
C	 1.2480609102	 1.9706128856	-0.0000157388	-0.04555
C	 2.521283599	 1.4795457636	-0.0181721525	 0.023594
O	 3.4052823972	 2.4716307662	-0.0206032705	-0.147072
N	 2.7387738341	 3.696122479	-0.0036817132	-0.202669
C	 1.4547691633	 3.3926386709	 0.0085088029	 0.209246
C	 0.4620716768	 4.4032261873	 0.0274500945	 0.261672
C	-0.4111807818	 5.2293443061	 0.0437039947	-0.386593
H	-0.9225567878	 1.8416362833	 0.0240347403	 0.093706
H	 2.9134994553	 0.4744817841	-0.030297097	 0.191103
H	-1.1721480101	 5.9710522495	 0.0582609204	 0.213768
114.5437	135.7139	168.7339	214.4996	262.1901	420.8105	457.048	572.541	599.198	612.4673	646.4475	682.2786	746.5103	806.3649	889.1419	907.8789	943.0668	1044.099	1160.7996	1189.9472	1309.2046	1387.0571	1444.886	1475.6827	1599.3433	1792.608	2246.7134	2927.4638	3273.8902	3497.6982
O=CC1=CON=C1C#C	O=Cc1conc1C#C	
InChI=1S/C6H3NO2/c1-2-6-5(3-8)4-9-7-6/h1,3-4H	InChI=1S/C6H3NO2/c1-2-6-5(3-8)4-9-7-6/h1,3-4H
