23
gdb 76572	2.65012	1.16186	1.10381	1.5987	85.61	-0.2444	0.0831	0.3275	1282.7681	0.20613	-388.287628	-388.278125	-388.277181	-388.322146	35.757	
C	-0.12477176	 0.869744531	-1.985449692	-0.414403
C	 0.0227618127	-0.2576043352	-0.9862892479	-0.073101
C	 1.3358669028	-0.6078079173	-0.311303813	-0.069459
C	 2.6209555392	 0.1515345206	-0.5603805571	-0.413156
C	 0.1964081683	-0.0251625806	 0.4976955584	 0.310777
C	 0.2675005331	 1.3619895636	 1.1487951366	-0.315598
C	-0.6405403017	 1.1952334757	 2.3812106142	-0.078656
O	-0.5577925419	-0.178069734	 2.729253983	-0.242512
C	-0.5753674431	-0.8907575568	 1.5027620789	-0.150149
H	 0.5142836985	 1.724867037	-1.7510285092	 0.117992
H	 0.1348883366	 0.5338463749	-2.9955008071	 0.117309
H	-1.1583357911	 1.2336007768	-2.0150792279	 0.116159
H	-0.5992204244	-1.118843243	-1.2284842923	 0.076739
H	 1.4953667987	-1.674473855	-0.161205383	 0.077256
H	 2.4551212239	 1.2221631782	-0.7059211252	 0.117997
H	 3.3085134021	 0.0412966646	 0.2859988595	 0.119111
H	 3.1333422161	-0.2258161832	-1.4523642319	 0.116577
H	 1.2900760162	 1.5984831347	 1.4599553205	 0.107784
H	-0.0763268086	 2.1689792481	 0.4961094221	 0.100351
H	-0.3263621461	 1.7831056679	 3.2472403577	 0.106422
H	-1.6802032924	 1.4690753745	 2.134121747	 0.085492
H	-1.6148733794	-1.0443379396	 1.162765919	 0.082436
H	-0.1233211597	-1.8723580627	 1.6757978398	 0.104631
43.8811	152.7294	155.3904	177.6725	210.5135	232.2331	253.2843	279.0038	403.3742	467.0323	524.3299	533.0418	652.5116	748.8837	780.7853	795.5512	882.2344	924.4572	958.4001	973.0562	991.1383	1028.7536	1031.8855	1063.9645	1074.035	1111.6013	1129.5762	1142.1895	1148.8071	1179.7958	1214.1411	1223.7304	1246.4945	1276.5493	1301.1107	1327.0995	1359.9432	1372.8279	1406.7506	1413.7908	1421.6275	1457.3306	1487.5316	1492.4915	1494.045	1502.2544	1507.6425	1513.83	1523.3646	2943.3723	2961.6453	3028.4816	3031.9351	3048.8548	3071.4994	3084.0394	3085.8031	3090.5824	3095.3233	3100.1309	3107.1748	3113.8985	3125.2064
CC1C(C)C11CCOC1	C[C@H]1[C@@H](C)[C@]21CCOC2	
InChI=1S/C8H14O/c1-6-7(2)8(6)3-4-9-5-8/h6-7H,3-5H2,1-2H3	InChI=1S/C8H14O/c1-6-7(2)8(6)3-4-9-5-8/h6-7H,3-5H2,1-2H3/t6-,7+,8+
