15
gdb 29056	2.69731	1.81419	1.08466	1.4358	85.72	-0.219	-0.0676	0.1514	1040.4663	0.115899	-413.021289	-413.013938	-413.012994	-413.054366	28.134	
N	-0.0024455719	 1.3287032499	 0.0075927348	-0.471556
C	-0.0311541253	-0.0053653488	 0.0011791022	 0.3891
N	-1.2137549096	-0.5739690865	 0.0050789424	-0.379141
C	-1.4492353207	-1.9002961901	-0.0005423419	 0.011122
C	-0.597344447	-2.9726128973	-0.0112066021	-0.116787
C	 0.8220056381	-2.9313975824	-0.0192785974	 0.013941
N	 1.6690406846	-1.945497396	-0.0189831209	-0.342531
C	 1.3722492326	-0.6006574573	-0.0102791529	 0.306952
N	 2.3068956521	 0.2840179102	-0.0099064419	-0.513864
H	 0.9089421145	 1.7687004065	 0.0043317227	 0.291693
H	-0.8716152835	 1.8361237235	 0.0152926314	 0.268828
H	-2.5144676217	-2.1322486825	 0.0044734928	 0.111937
H	-1.0473319448	-3.9602668882	-0.0137976206	 0.09271
H	 1.301625948	-3.9139610743	-0.0272674218	 0.110323
H	 3.2090674746	-0.1934498268	-0.0172552766	 0.227274
17.2802	158.8317	368.4786	369.6745	397.8159	411.1799	444.4259	484.075	515.4242	594.6939	682.7439	722.0125	736.3391	800.654	833.4226	919.9079	933.7911	954.3931	997.3825	1013.0733	1017.5354	1098.1799	1213.8977	1310.5227	1367.9357	1423.5001	1450.5875	1493.0009	1512.759	1577.7951	1611.2065	1653.6687	1672.2254	3088.7131	3124.9695	3181.241	3479.1951	3532.5653	3708.8419
NC1=NC=CC=NC1=N	NC1=N[CH]C=CN=C1[NH]	
InChI=1S/C5H6N4/c6-4-5(7)9-3-1-2-8-4/h1-3H,(H3,6,7,8,9)	InChI=1S/C5H6N4/c6-4-5(7)9-3-1-2-8-4/h1-3H,(H3,6,7,8,9)
