18
gdb 65021	2.14394	1.40195	1.09086	2.5548	72.21	-0.2493	-0.0397	0.2096	1172.3234	0.144303	-439.072854	-439.063176	-439.062232	-439.108334	33.947	
C	-0.3254301977	 1.3450926321	-0.5663851148	-0.486095
C	-0.0303496944	-0.0687502516	-0.1066921736	 0.326408
C	 0.9194058497	-0.8981571198	-0.8869306012	-0.274186
N	 1.3066166319	-0.3818299345	 0.4403671335	-0.359798
C	-1.145171546	-0.7727631941	 0.6632718341	-0.244893
C	-1.4378989374	-0.0594681438	 1.9797537942	 0.14258
O	-2.5376308401	 0.2179164103	 2.3839822727	-0.243285
C	-2.414916414	-1.0366376274	-0.1284588599	 0.165452
O	-2.5528791689	-0.7807841258	-1.2972907755	-0.249062
H	 0.5339447229	 1.7624283583	-1.1004663465	 0.115328
H	-1.1859997423	 1.357021155	-1.2394016738	 0.160744
H	-0.5458896341	 2.00400263	 0.2819669984	 0.125746
H	 0.7913553665	-1.975601977	-0.9423213339	 0.11981
H	 1.3664480278	-0.4529926964	-1.7711960096	 0.120317
H	 1.9209264415	 0.4218381582	 0.333098386	 0.232407
H	-0.7555835261	-1.7584264764	 0.9686609426	 0.132816
H	-0.5209644259	 0.1889858285	 2.5559014902	 0.107742
H	-3.2263789632	-1.5130117057	 0.458189787	 0.10797
44.7113	69.0112	98.4606	173.5233	209.1263	222.6842	243.8847	332.6798	345.7017	385.9273	466.2079	601.5684	658.6756	705.8451	837.0062	844.7583	895.4764	934.7521	954.0773	984.4486	1027.4002	1057.6958	1072.8796	1087.494	1124.5381	1159.7085	1234.1744	1266.325	1272.6605	1339.3778	1385.5787	1414.3796	1416.0161	1428.9413	1485.9649	1505.8548	1518.8403	1817.5129	1831.2779	2908.8778	2930.1089	2986.8603	3030.567	3094.7591	3112.367	3128.8368	3197.0132	3497.0218
CC1(CN1)C(C=O)C=O	C[C@]1(CN1)C(C=O)C=O	
InChI=1S/C6H9NO2/c1-6(4-7-6)5(2-8)3-9/h2-3,5,7H,4H2,1H3	InChI=1S/C6H9NO2/c1-6(4-7-6)5(2-8)3-9/h2-3,5,7H,4H2,1H3/t6-/m0/s1
