17
gdb 26033	3.20736	1.19041	0.98168	2.4763	79.41	-0.2137	0.0225	0.2362	1214.1233	0.13747	-380.927126	-380.918646	-380.917702	-380.961109	31.227	
C	 0.6688170237	 1.3567603678	-0.53501291	-0.37998
C	-0.1448902359	 0.2994760879	 0.253987738	-0.261996
C	-0.6073347352	-0.7579935152	-0.6558229453	 0.270303
N	-0.9184525283	-1.6053136573	-1.378223951	-0.332256
C	 0.6204869748	-0.2948915613	 1.4082163259	 0.331701
C	 0.7718910818	 0.1580682099	 2.7005079233	-0.244634
C	 1.6573105603	-0.7338228388	 3.3662328838	-0.139773
C	 2.0161910613	-1.7059262028	 2.4622394118	-0.089578
N	 1.3899949145	-1.425425059	 1.2750584273	-0.292465
H	 1.568001098	 0.9074788872	-0.9636235797	 0.136866
H	 0.0716061909	 1.7853494359	-1.3444742031	 0.133612
H	 0.972471291	 2.1541721887	 0.146581574	 0.136452
H	-1.037424141	 0.7883412017	 0.6615364101	 0.142659
H	 0.3005668346	 1.0352789849	 3.1179559936	 0.094684
H	 1.9877247108	-0.6694754919	 4.3912945886	 0.098606
H	 2.649759778	-2.572149534	 2.5629013789	 0.122256
H	 1.4076102406	-2.0073337836	 0.4535638537	 0.273543
32.7683	113.7643	155.738	206.0792	227.824	341.0173	365.8065	487.2117	520.8013	568.4162	629.9995	685.3326	703.8821	726.3167	798.5751	853.5781	855.0122	896.3932	960.3626	1001.7911	1056.1359	1071.6769	1100.6612	1120.8541	1149.3538	1244.3892	1284.5169	1308.6291	1324.73	1406.0171	1442.4348	1468.4517	1488.474	1489.6789	1499.544	1608.2382	2353.2057	3047.8809	3050.3571	3129.5291	3138.7178	3239.7327	3254.3157	3274.3007	3659.8592
CC(C#N)C1=CC=CN1	C[C@@H](C#N)c1ccc[nH]1	
InChI=1S/C7H8N2/c1-6(5-8)7-3-2-4-9-7/h2-4,6,9H,1H3	InChI=1S/C7H8N2/c1-6(5-8)7-3-2-4-9-7/h2-4,6,9H,1H3/t6-/m0/s1
