21
gdb 82769	2.70645	1.82866	1.48213	1.3812	80.55	-0.253	0.0819	0.3349	977.3887	0.186816	-387.090573	-387.083636	-387.082692	-387.121377	29.845	
O	-0.119294387	 1.4622153806	-0.0975522719	-0.451608
C	-0.025199232	 0.0476600018	-0.0373785294	 0.149766
C	-1.4200835336	-0.5713103862	-0.2051565126	-0.050371
C	-1.7528192287	-0.1541121886	-1.6655434836	-0.236411
C	-0.6127939084	-1.1397443493	-2.0037737668	-0.031547
C	-1.0724397249	-1.9950628236	-0.7825122313	 0.006528
C	 0.1447191246	-2.7376969767	-0.2130192465	-0.24648
C	 1.3441137228	-1.9169698192	-0.7784405856	-0.221967
C	 0.6624156109	-0.6280758177	-1.2714619608	-0.052305
H	 0.7725171868	 1.819554577	-0.0478145291	 0.278287
H	 0.4576173157	-0.252728775	 0.9038327952	 0.054824
H	-2.1237689904	-0.4303947441	 0.6160381214	 0.058814
H	-2.7255475202	-0.5312231593	-1.9913053498	 0.088494
H	-1.6432462113	 0.8988554278	-1.9255248706	 0.108077
H	-0.4749217625	-1.5655141189	-2.9990554561	 0.053846
H	-1.9657238892	-2.6004968938	-0.944832149	 0.063864
H	 0.13830943	-2.7636336656	 0.8817977695	 0.099287
H	 0.1694912239	-3.777316105	-0.553102449	 0.096347
H	 2.1202237009	-1.7218272266	-0.0310768449	 0.088847
H	 1.8190722506	-2.4476689174	-1.6108205619	 0.094379
H	 1.307783232	 0.0524384999	-1.8320577671	 0.049329
194.4367	264.5335	277.7965	336.6141	348.0104	409.538	509.8661	598.4901	696.7153	716.6768	793.5398	805.6189	842.6846	866.1237	877.1086	906.3784	926.643	940.5877	971.5437	989.8029	1016.3829	1025.3606	1035.7501	1064.8417	1084.632	1109.8427	1121.2156	1140.8397	1185.3275	1201.9792	1209.8777	1233.9797	1248.5237	1262.5926	1267.2346	1279.5984	1300.4125	1315.7107	1331.926	1351.1874	1365.7225	1433.0573	1486.6665	1501.7266	1505.6556	2987.6867	3035.8282	3046.5123	3068.588	3070.7035	3081.7254	3089.4207	3095.4663	3102.2937	3112.3819	3136.9618	3822.2332
OC1C2CC3C2CCC13	O[C@H]1[C@H]2C[C@@H]3[C@H]2CC[C@H]13	
InChI=1S/C8H12O/c9-8-5-2-1-4-6(5)3-7(4)8/h4-9H,1-3H2	InChI=1S/C8H12O/c9-8-5-2-1-4-6(5)3-7(4)8/h4-9H,1-3H2/t4-,5+,6-,7+,8-/m1/s1
