21
gdb 63430	3.7078	0.83093	0.82682	1.6759	84.55	-0.2525	0.0529	0.3054	1496.3976	0.179528	-387.051543	-387.041523	-387.040579	-387.087195	37.893	
C	 0.5020468445	 1.3311421478	 0.3251121001	-0.451371
C	-0.0297936267	-0.0561851381	-0.0162275373	 0.433547
O	-1.4206000535	-0.0067192596	-0.2919720743	-0.473892
C	 0.8191998537	-0.851773588	-1.0628709667	-0.315257
C	 1.2250510788	-1.8707352976	 0.0429057549	 0.038725
C	 2.7130509006	-1.8516999304	 0.4274666849	-0.370202
C	 3.0091242812	-2.6880477523	 1.5847872937	 0.303109
C	 3.2234061784	-3.384877302	 2.5406736467	-0.447352
C	 0.2595955254	-1.1606147508	 1.0353870584	-0.271945
H	 1.5634688998	 1.3036055786	 0.5911602283	 0.116437
H	 0.3961223529	 2.0097178852	-0.5314789255	 0.103755
H	-0.0537521221	 1.7523661286	 1.1688651221	 0.125443
H	-1.5645733908	 0.6526593038	-0.9800511822	 0.271609
H	 0.1931746826	-1.2856535248	-1.8456242474	 0.100457
H	 1.6423881467	-0.3017747741	-1.5302575768	 0.088513
H	 0.9386503227	-2.9008183775	-0.1804105955	 0.08454
H	 3.3129479674	-2.1840678773	-0.4306180977	 0.128198
H	 3.0298362334	-0.8202585853	 0.6342106386	 0.125169
H	 3.4234915598	-3.9978939896	 3.3839175686	 0.193965
H	 0.7073572596	-0.8218088414	 1.9734201878	 0.102462
H	-0.6396985644	-1.7354612251	 1.2622072993	 0.11409
23.294	74.9812	123.4589	246.1294	263.3798	282.4388	314.3576	333.629	352.117	360.8619	443.3074	445.3209	503.7725	618.2396	633.7747	644.8833	794.399	825.9378	841.8433	886.8115	905.8152	938.2082	954.4088	967.9909	1006.3673	1047.6178	1091.0708	1126.3589	1150.7647	1187.153	1226.3195	1242.816	1267.6332	1274.7663	1294.8111	1326.2872	1371.0427	1380.314	1406.4894	1460.2074	1470.1201	1480.6355	1489.6238	1493.0687	2237.2898	3009.5272	3017.2976	3037.8303	3047.1568	3065.8121	3077.4615	3085.2665	3108.2916	3113.3724	3128.7745	3507.9219	3794.737
CC1(O)CC(CC#C)C1	C[C@@]1(O)C[C@@H](CC#C)C1	
InChI=1S/C8H12O/c1-3-4-7-5-8(2,9)6-7/h1,7,9H,4-6H2,2H3	InChI=1S/C8H12O/c1-3-4-7-5-8(2,9)6-7/h1,7,9H,4-6H2,2H3/t7-,8-
