16
gdb 33931	3.49469	1.36886	1.16849	3.5993	73.89	-0.2582	-0.0239	0.2343	1046.95	0.126389	-396.918567	-396.911162	-396.910218	-396.950383	28.376	
N	-0.0186580843	-1.1119684776	 0.0585123035	-0.33218
C	-0.0037894404	 0.0419253374	-0.0027960747	 0.262483
C	-0.0432935571	 1.4901155196	-0.0845856637	 0.158006
C	 0.5637912919	 2.1259596307	-1.2900881132	-0.271668
N	 1.2946042489	 2.1225392362	-0.0075280301	-0.149245
C	 1.3280609673	 3.3763464792	 0.6878595273	 0.049778
N	 0.3677923109	 4.081984914	 1.1106462311	-0.186459
C	-0.9980324393	 3.6492288876	 0.8299866719	-0.18662
C	-1.1808718633	 2.1299647766	 0.6961570071	-0.291809
H	 0.9960067816	 1.5018123324	-2.0652344515	 0.14999
H	 0.1389004265	 3.0666846857	-1.6275372616	 0.141242
H	 2.3496388682	 3.7129111036	 0.8627516425	 0.132676
H	-1.6437864096	 4.0229264486	 1.6301105811	 0.127578
H	-1.3284067643	 4.1621233719	-0.0825787985	 0.125968
H	-2.1432125211	 1.8911395741	 0.2327332993	 0.130895
H	-1.1876674561	 1.6792332201	 1.6943119493	 0.139364
123.7245	157.32	186.1159	283.9862	338.1431	414.8305	476.584	543.351	572.527	585.5158	662.5936	763.0291	777.578	858.5615	887.3663	910.8164	971.9019	986.4496	1023.0213	1073.7601	1080.2591	1132.4834	1147.2329	1223.707	1242.0211	1273.7703	1319.2229	1379.6962	1385.0195	1402.9585	1486.6422	1487.674	1512.101	1721.6492	2360.9303	3028.6235	3048.3571	3076.076	3092.0957	3122.9963	3139.3877	3218.1466
N#CC12CN1C=NCC2	N#C[C@]12CN1C=NCC2	
InChI=1S/C6H7N3/c7-3-6-1-2-8-5-9(6)4-6/h5H,1-2,4H2	InChI=1S/C6H7N3/c7-3-6-1-2-8-5-9(6)4-6/h5H,1-2,4H2/t6-,9?/m1/s1
