19
gdb 76178	2.07869	1.43865	1.20358	2.9738	77.47	-0.2486	0.02	0.2686	1153.9752	0.157573	-419.210754	-419.200722	-419.199777	-419.244963	37.261	
C	-0.0532826187	 1.505607399	 0.0263973932	-0.421261
C	 0.036457641	-0.0011920678	-0.0478387899	-0.104093
C	 0.6392802479	-0.7252190992	-1.2215012871	 0.40374
C	 0.0027260347	-1.9741758347	-1.7721337172	-0.446219
O	 1.2718320745	 0.0173289116	-2.210085014	-0.46691
C	 1.3797156736	-0.7348106085	 0.14062561	 0.027725
N	 2.5761723505	 0.0770614763	 0.1497648811	-0.5734
C	 1.3937118966	-1.9287679746	 0.9465308705	 0.24117
N	 1.4313380469	-2.8892212148	 1.5932508797	-0.356307
H	 0.7318322197	 1.9901533216	-0.5555142489	 0.130281
H	-1.0152353272	 1.8352420523	-0.3788179418	 0.134293
H	 0.0093027179	 1.8615749141	 1.0601830417	 0.120973
H	-0.788138037	-0.5239277295	 0.4291650204	 0.108229
H	-0.7768883195	-1.7052531802	-2.4917857342	 0.132462
H	 0.7489868522	-2.5832895485	-2.29037153	 0.132184
H	-0.4487756181	-2.5742939935	-0.9789570442	 0.135127
H	 2.0108998925	 0.4714121356	-1.7705153619	 0.292771
H	 2.6591445837	 0.6147922445	 1.006737371	 0.253102
H	 3.4037835991	-0.5054905336	 0.0706803615	 0.256134
121.9239	127.8503	148.3951	196.5167	200.8431	222.7946	256.0164	279.5791	309.6271	372.8174	445.364	466.4635	543.3727	570.5223	615.6022	627.5419	693.4769	734.5391	772.5496	872.2646	981.0019	985.157	1038.326	1086.6309	1090.2989	1123.1505	1146.7269	1191.5542	1262.4805	1280.9348	1316.8352	1371.9717	1416.9634	1418.7199	1465.7675	1478.4153	1490.6425	1498.6349	1506.8421	1658.2327	2330.4453	3042.0189	3045.1313	3099.0813	3112.5719	3132.4697	3136.9428	3153.8023	3501.8833	3579.333	3645.7352
CC1C(C)(O)C1(N)C#N	C[C@H]1[C@@](C)(O)[C@]1(N)C#N	
InChI=1S/C6H10N2O/c1-4-5(2,9)6(4,8)3-7/h4,9H,8H2,1-2H3	InChI=1S/C6H10N2O/c1-4-5(2,9)6(4,8)3-7/h4,9H,8H2,1-2H3/t4-,5+,6-/m0/s1
