19
gdb 117567	2.23126	1.08651	0.77025	1.6585	78.64	-0.265	0.0292	0.2942	1496.0816	0.155536	-422.953301	-422.943181	-422.942237	-422.989428	35.616	
C	-0.119344792	 1.5632046495	-0.0541109716	-0.385367
C	-0.1750178696	 0.047788865	-0.1322224496	-0.037966
O	 0.7934948874	-0.3808328397	-1.0798659199	-0.248223
C	 0.8734161553	-1.7850833645	-1.2418483706	-0.08158
C	-0.3487998457	-2.3584972485	-1.8236196929	 0.336025
C	-1.3432255689	-2.818782596	-2.3172327871	-0.466806
C	 2.0759318491	-2.0446892498	-2.1352556379	 0.079671
C	 3.408341442	-2.2306340418	-1.5576620846	-0.177263
O	 2.6489636761	-3.342945507	-2.0429289439	-0.230814
H	 0.8758192383	 1.8987736206	 0.251201001	 0.125574
H	-0.3468433228	 2.0055975994	-1.0280038971	 0.129884
H	-0.848984748	 1.9312834792	 0.6733168007	 0.117265
H	 0.0427619474	-0.4025474365	 0.8505225906	 0.086861
H	-1.1757713457	-0.2921387269	-0.4340195101	 0.106137
H	 1.0630736023	-2.274892726	-0.2717548874	 0.097547
H	-2.2202643344	-3.2345005856	-2.7488874213	 0.202268
H	 1.981794314	-1.6468429236	-3.1447871876	 0.109665
H	 4.2893707537	-1.9735966452	-2.1427373588	 0.120092
H	 3.5356028315	-2.1871349026	-0.4769660119	 0.11703
53.4022	72.6048	92.4371	134.2517	139.4419	216.4387	253.5994	304.477	330.6947	414.3076	442.6892	526.0972	630.6571	638.8065	676.7724	821.8544	849.7874	871.4749	905.8492	926.0075	1006.0164	1037.5803	1095.6823	1120.8189	1128.0661	1154.6646	1164.6653	1182.7454	1188.5116	1282.9502	1285.9399	1296.5862	1337.6287	1401.0843	1429.0551	1446.5167	1483.7459	1500.2207	1528.0275	1531.2445	2231.7186	2963.2319	2968.9825	3022.5936	3045.5057	3088.6007	3119.9575	3122.8429	3126.6715	3177.2413	3501.8105
CCOC(C#C)C1CO1	CCO[C@@H](C#C)[C@H]1CO1	
InChI=1S/C7H10O2/c1-3-6(8-4-2)7-5-9-7/h1,6-7H,4-5H2,2H3	InChI=1S/C7H10O2/c1-3-6(8-4-2)7-5-9-7/h1,6-7H,4-5H2,2H3/t6-,7+/m0/s1
