17
gdb 34072	3.87928	1.41415	1.40835	4.5341	74.87	-0.2414	0.026	0.2673	962.9377	0.14007	-380.881448	-380.87493	-380.873985	-380.912144	27.132	
N	 0.0335009604	-1.0879048447	-0.0499990177	-0.339905
C	 0.0055499924	 0.0667745027	-0.0211492428	 0.190092
C	 0.0049865905	 1.5167269928	 0.0252468854	 0.145411
C	-0.682242544	 2.1906344862	 1.2454446559	-0.227075
C	-0.4567286126	 3.6186686438	 0.769673549	-0.084054
C	 0.8604083807	 3.6377005761	-0.0000329707	-0.092338
C	 1.4021331559	 2.2167425767	 0.0234739169	-0.254241
C	-0.4685056061	 3.5477059104	-0.736611796	-0.018684
N	-0.7401863534	 2.1554574532	-1.0914336739	-0.31676
H	-1.7368520434	 1.9152241325	 1.306668899	 0.127432
H	-0.1795663543	 1.9483136755	 2.1846033075	 0.116064
H	-0.8268514881	 4.4787132287	 1.3100197288	 0.098359
H	 1.499558648	 4.5089220576	-0.0409793394	 0.095447
H	 1.9846401107	 1.9772567278	 0.9169319893	 0.119553
H	 1.9868036979	 1.9544690847	-0.8637962876	 0.11018
H	-0.868883242	 4.3231209811	-1.3744223669	 0.102862
H	-0.2961431325	 1.9184665149	-1.9772525668	 0.227657
157.4079	165.2778	407.9869	431.9142	495.1396	514.226	554.2845	562.1819	667.0573	684.3776	793.8747	800.4946	821.4806	889.4947	904.9844	949.8153	968.1301	971.9338	993.975	1025.4847	1041.751	1050.8988	1094.6472	1107.1061	1114.4436	1151.5988	1173.2141	1210.7799	1263.123	1284.9766	1302.282	1315.0591	1361.5622	1414.3351	1480.8245	1500.4736	2366.1013	3055.9221	3074.9822	3108.7087	3131.0508	3209.0641	3212.0226	3223.6356	3475.3741
N#CC12CC3C(C1)C3N2	N#C[C@@]12C[C@H]3[C@@H](C1)[C@H]3N2	
InChI=1S/C7H8N2/c8-3-7-1-4-5(2-7)6(4)9-7/h4-6,9H,1-2H2	InChI=1S/C7H8N2/c8-3-7-1-4-5(2-7)6(4)9-7/h4-6,9H,1-2H2/t4-,5+,6-,7+
