22
gdb 102119	1.99096	1.30438	0.92854	3.737	84.49	-0.2352	0.0285	0.2637	1366.6369	0.194548	-404.365578	-404.355999	-404.355055	-404.400522	35.285	
C	-1.1425271653	-2.1724628456	 1.9472569412	-0.370778
C	-0.3578509608	-0.8928949974	 2.2581436773	-0.174866
N	 0.6458518543	-0.5558921906	 1.2533785706	-0.05666
C	 0.2803008713	 0.181535666	 0.1627398924	 0.143036
O	 1.0075250914	 0.5126242799	-0.7510528331	-0.343313
C	 2.0311563565	-0.9614843567	 1.4006381728	 0.073977
C	 2.9091097214	-0.3798789062	 2.5445618141	-0.240961
C	 3.6456967575	-1.7467029563	 2.5839375656	-0.212755
C	 2.415435647	-2.3865421792	 1.8823352764	-0.248526
H	-0.4791242069	-3.0365701137	 1.8568800016	 0.130873
H	-1.8679714727	-2.3773591872	 2.74148917	 0.11787
H	-1.6889323311	-2.069734263	 1.0047542975	 0.126989
H	-1.0531155132	-0.0504999621	 2.3472113355	 0.118976
H	 0.1410136837	-0.9783291407	 3.228194024	 0.115653
H	-0.791828239	 0.4616015153	 0.2005277163	 0.067384
H	 2.498995323	-0.7497542918	 0.4382031308	 0.126697
H	 3.4842907023	 0.5223140979	 2.3261242485	 0.10846
H	 2.3304784669	-0.2160514206	 3.459396629	 0.100265
H	 4.5276859521	-1.7501973019	 1.9381943981	 0.111551
H	 3.9266967243	-2.1413807214	 3.5618311953	 0.100922
H	 1.7106341898	-2.7742771924	 2.6232597386	 0.101954
H	 2.5810146273	-3.1516225924	 1.1201135878	 0.103254
55.4272	110.0655	125.3402	135.401	214.9803	249.4801	260.417	318.594	348.0238	470.8039	505.0907	590.1566	671.7204	742.2457	791.3847	793.3958	896.2347	920.107	924.0366	954.6979	969.5932	1024.5993	1040.9089	1049.7148	1101.7265	1114.1898	1137.5002	1195.508	1228.7154	1250.3977	1253.7884	1261.1487	1279.6266	1292.972	1304.387	1371.9832	1399.8136	1414.0937	1440.0959	1453.8641	1477.8342	1487.579	1492.042	1493.2113	1506.1254	1516.9778	1790.3931	2924.875	3041.1328	3042.3757	3051.9222	3059.6294	3068.6338	3083.462	3100.6864	3111.7993	3112.6616	3115.8373	3126.0023	3131.219
CCN(C=O)C1CCC1	CCN(C=O)C1CCC1	
InChI=1S/C7H13NO/c1-2-8(6-9)7-4-3-5-7/h6-7H,2-5H2,1H3	InChI=1S/C7H13NO/c1-2-8(6-9)7-4-3-5-7/h6-7H,2-5H2,1H3
