19
gdb 53652	4.13833	0.688	0.61169	5.0803	85.07	-0.2436	0.0201	0.2637	1797.1398	0.157115	-382.048242	-382.037345	-382.036401	-382.086776	37.032	
C	 0.0716322733	 0.7936540036	 1.0882455609	-0.497711
C	 0.0600765947	-0.4423005017	 0.318348409	 0.044805
C	 0.055407311	-1.4670801578	-0.316052119	 0.089545
C	 0.0259903198	-2.6914289237	-1.1288193006	-0.333722
N	-1.1809117125	-3.5178552285	-1.0595434465	-0.268079
C	-1.3758902653	-4.2983772286	 0.1614080943	-0.101924
C	-1.9141623036	-3.5440021566	 1.3963808746	-0.39444
C	-2.2712016114	-5.4308343257	-0.1511436598	 0.283002
N	-2.9932048469	-6.3050581482	-0.3731069489	-0.321523
H	 0.9339760042	 0.8346335071	 1.7625580059	 0.151816
H	 0.1197469793	 1.6702884896	 0.4331697959	 0.152215
H	-0.8319817665	 0.887386097	 1.7006493067	 0.150976
H	 0.1694151185	-2.4169068239	-2.1812571883	 0.140768
H	 0.8792315229	-3.3311868271	-0.8702905036	 0.136986
H	-2.0069793773	-2.9656252688	-1.2633837331	 0.230551
H	-0.4005690808	-4.7333220043	 0.4151978123	 0.131477
H	-1.2256638468	-2.7430634114	 1.6689869598	 0.142849
H	-2.8929741582	-3.1065894212	 1.1775358755	 0.129093
H	-2.0281739845	-4.2261459598	 2.2439683949	 0.133315
15.3393	32.4034	65.4369	133.0322	169.7484	208.663	220.2929	247.7716	292.9169	353.8679	383.2001	391.5891	513.8328	563.7373	585.9083	681.3057	774.381	823.1125	901.9925	967.8996	1050.3584	1053.4065	1055.605	1093.6064	1124.0541	1151.015	1169.2885	1275.2773	1319.8888	1356.175	1375.7076	1404.8116	1415.7361	1462.8968	1477.0516	1478.883	1484.5779	1493.5835	1506.2827	2359.523	2360.8503	3022.9508	3028.7248	3034.5927	3046.6776	3054.647	3089.8223	3091.0169	3117.7185	3149.6292	3534.772
CC#CCNC(C)C#N	CC#CCN[C@@H](C)C#N	
InChI=1S/C7H10N2/c1-3-4-5-9-7(2)6-8/h7,9H,5H2,1-2H3	InChI=1S/C7H10N2/c1-3-4-5-9-7(2)6-8/h7,9H,5H2,1-2H3/t7-/m0/s1
