20
gdb 57976	4.02759	0.67499	0.64029	4.0147	80.6	-0.2602	-0.0288	0.2314	1786.9498	0.168141	-403.19677	-403.186063	-403.185118	-403.234351	36.958	
C	 0.0522159401	 1.541472417	 0.0392893779	-0.388305
C	 0.0257881833	-0.0016674829	 0.0018740205	-0.066245
C	 0.6031334577	-0.5409577247	-1.3114567386	-0.386164
C	 0.816755098	-0.520822861	 1.2025211926	 0.385055
O	 2.0192002057	-0.6562876116	 1.1726981984	-0.314576
C	 0.0166035223	-0.8375093093	 2.4604774593	-0.310162
C	 0.9246109425	-1.1802509727	 3.6510532629	-0.338448
C	 0.1595188338	-1.5368972279	 4.8423474637	 0.253777
N	-0.4617292052	-1.8162039464	 5.7758909609	-0.304798
H	 1.0797370784	 1.9057908418	-0.0547909681	 0.138755
H	-0.5337787391	 1.9478594614	-0.7901425831	 0.12652
H	-0.3664244406	 1.9380600988	 0.969947573	 0.118709
H	-1.0164465902	-0.3271292064	 0.1108022124	 0.082544
H	 1.6611606069	-0.2804627636	-1.3944440027	 0.141914
H	 0.5225066169	-1.6308583135	-1.3656879946	 0.11831
H	 0.0684488065	-0.1174165426	-2.1667005046	 0.114386
H	-0.6420480854	 0.0069934191	 2.695538271	 0.144329
H	-0.6551727271	-1.675497501	 2.2334429884	 0.149366
H	 1.5895348815	-2.0067274053	 3.3833665865	 0.17045
H	 1.5767810741	-0.332292069	 3.8827877243	 0.164582
22.3354	54.2721	85.1764	104.1584	203.0307	213.4492	234.1962	247.4581	295.1373	310.3986	391.5765	427.0945	538.0869	570.5391	652.0678	783.9355	800.1813	888.4453	933.5531	953.4167	971.8937	1005.4686	1020.2043	1083.1476	1109.2711	1123.8838	1180.8876	1198.3384	1285.8612	1300.5344	1328.6476	1366.2117	1386.7893	1396.9757	1418.3714	1449.7253	1462.7717	1485.8163	1489.1031	1501.95	1511.4676	1803.9915	2363.2676	3026.0636	3036.4521	3037.6525	3044.441	3067.1751	3069.9916	3105.9784	3106.8406	3111.3014	3116.5005	3129.8802
CC(C)C(=O)CCC#N	CC(C)C(=O)CCC#N	
InChI=1S/C7H11NO/c1-6(2)7(9)4-3-5-8/h6H,3-4H2,1-2H3	InChI=1S/C7H11NO/c1-6(2)7(9)4-3-5-8/h6H,3-4H2,1-2H3
