14
gdb 9020	4.5865	0.92864	0.79839	0.8504	85.21	-0.2465	-0.0175	0.229	1371.549	0.103661	-308.178333	-308.169484	-308.16854	-308.211801	31.861	
C	-0.0098105714	 1.5509799259	 0.0005194926	-0.378709
C	-0.0200014564	 0.0010552212	 0.0555352132	-0.371844
C	 0.7362139538	-0.4951126992	 1.2109413067	 0.345451
C	 1.3706083298	-0.8770014807	 2.1561971308	-0.460725
C	-1.3882483117	-0.5214525236	 0.0512590607	 0.508634
C	-2.5234062737	-0.9379220552	 0.0295341416	-0.33477
C	-3.8018172734	-1.4041827143	 0.0104557346	 0.302449
C	-4.9358742383	-1.8181032975	-0.0083382006	-0.558185
H	 1.0209851445	 1.911350333	-0.0354508255	 0.132145
H	-0.5431905518	 1.8958460416	-0.8884387977	 0.131725
H	-0.496383273	 1.9640403039	 0.8864324721	 0.14277
H	 0.4781422085	-0.3662164321	-0.8541496092	 0.1451
H	 1.9250507818	-1.2258371901	 2.9921250796	 0.203423
H	-5.9332726287	-2.1815806728	-0.022470239	 0.192536
71.0572	101.7704	173.986	213.1346	241.828	245.2528	350.1368	440.5071	491.8253	526.7226	539.5339	561.0411	596.342	605.6108	636.1351	650.8907	719.0063	857.248	996.1889	1068.0926	1089.6747	1189.5539	1293.861	1323.5893	1403.3914	1488.7473	1496.2178	2183.6191	2243.2226	2367.6877	2995.8371	3053.7232	3135.6493	3141.9688	3503.3677	3505.32
CC(C#C)C#CC#C	C[C@@H](C#C)C#CC#C	
InChI=1S/C8H6/c1-4-6-7-8(3)5-2/h1-2,8H,3H3	InChI=1S/C8H6/c1-4-6-7-8(3)5-2/h1-2,8H,3H3/t8-/m0/s1
