14
gdb 80202	2.23893	1.61673	1.20649	4.8914	67.9	-0.3004	-0.0304	0.2701	1040.5501	0.100188	-436.694371	-436.686483	-436.685539	-436.72698	28.707	
C	 0.0195417037	 1.5619732168	 0.0494781941	-0.429372
C	 0.0899373147	 0.0537263929	 0.05553332	-0.074114
C	 1.3180718884	-0.740504458	-0.1626802647	 0.047464
O	 2.4773016989	-0.0401421116	 0.3439192829	-0.251206
C	 2.0005214613	-0.1292513401	 1.6466252207	 0.440222
O	 2.545233123	 0.1890835623	 2.6459165844	-0.298682
C	 0.6926097331	-0.7798633727	 1.2306994809	-0.043554
C	-0.0328297017	-1.7831980441	 1.9268048483	 0.208295
N	-0.6316908992	-2.5978365125	 2.4892960474	-0.338179
H	 0.9646065647	 2.0125361504	 0.3577612227	 0.157035
H	-0.2091459821	 1.9140134817	-0.9614006498	 0.140964
H	-0.7712828954	 1.9124852097	 0.7179168152	 0.146594
H	-0.8007425285	-0.4507566117	-0.3152768978	 0.137807
H	 1.4935168791	-1.5467705231	-0.8609432643	 0.156726
126.2456	134.1878	154.3398	187.4811	261.2511	354.058	405.2029	504.8429	535.6709	603.8536	642.8955	699.0131	766.367	796.6975	900.7294	923.5764	938.8707	983.3293	1063.6851	1080.973	1095.8814	1121.0882	1231.657	1282.6219	1327.6438	1419.3271	1448.3649	1489.6212	1499.9295	1961.2015	2355.0591	3050.6539	3116.5399	3134.9741	3148.9598	3230.8684
CC1C2OC(=O)C12C#N	C[C@H]1[C@H]2OC(=O)[C@@]12C#N	
InChI=1S/C6H5NO2/c1-3-4-6(3,2-7)5(8)9-4/h3-4H,1H3	InChI=1S/C6H5NO2/c1-3-4-6(3,2-7)5(8)9-4/h3-4H,1H3/t3-,4+,6-/m0/s1
