21
gdb 65479	3.50171	1.06907	0.96164	0.6655	89.82	-0.252	0.0542	0.3062	1314.8253	0.180738	-349.901477	-349.89224	-349.891295	-349.935125	36.326	
C	-0.1988610027	 1.5737694891	-0.0240438307	-0.445509
C	-0.0327329496	 0.0472829742	-0.0018348757	 0.156071
C	 1.1708799533	-0.4333575194	-0.896533687	-0.336491
C	 2.0186630348	-0.5571104738	 0.3735466227	 0.396016
C	 3.2442921958	-1.3872493842	 0.5952234663	-0.341214
C	 3.3353702897	 0.1228739243	 0.6204109897	-0.316229
C	 0.7730212539	-0.4453188873	 1.2584308957	-0.336489
C	-1.3003037011	-0.6217063013	-0.23954411	 0.260604
C	-2.3487429792	-1.1783626283	-0.4362655593	-0.455373
H	 0.7641631476	 2.0615982058	 0.1564656167	 0.11901
H	-0.579593122	 1.9086668128	-0.9936259209	 0.123427
H	-0.9013759101	 1.8990054441	 0.7491942331	 0.123427
H	 0.9673130106	-1.396312884	-1.3718833029	 0.109199
H	 1.5025493252	 0.2783701253	-1.6583721226	 0.100628
H	 3.33779348	-1.9205130733	 1.5362403203	 0.111748
H	 3.6686910612	-1.9105811588	-0.2560311637	 0.111748
H	 3.8207135074	 0.6190987962	-0.2145183	 0.110803
H	 3.4896168623	 0.6091591561	 1.5788673753	 0.110804
H	 0.8093780113	 0.2575126546	 2.0960862076	 0.100627
H	 0.4150471961	-1.4129212715	 1.6193774728	 0.109198
H	-3.2728573744	-1.6713666603	-0.6097644574	 0.187996
57.286	144.7734	173.6506	235.715	264.656	305.1707	317.0039	358.5802	391.7292	458.6718	542.891	562.8354	619.1903	620.0002	665.9741	775.0209	820.0129	843.8371	884.5572	895.347	917.7794	932.1613	952.2778	974.8608	1001.5943	1051.5254	1075.4846	1087.7736	1141.7206	1153.8565	1187.6777	1197.0761	1240.1188	1251.0209	1258.4333	1302.146	1385.5036	1407.9706	1463.875	1474.503	1492.8656	1494.4326	1498.6556	1504.4826	2228.897	3035.1457	3047.9607	3052.6943	3105.4282	3105.8279	3111.5465	3111.8425	3118.1767	3122.7095	3195.9591	3211.0545	3502.8842
CC1(CC2(CC2)C1)C#C	CC1(CC2(CC2)C1)C#C	
InChI=1S/C9H12/c1-3-8(2)6-9(7-8)4-5-9/h1H,4-7H2,2H3	InChI=1S/C9H12/c1-3-8(2)6-9(7-8)4-5-9/h1H,4-7H2,2H3
