17
gdb 49323	2.58659	1.4904	1.03052	4.7944	76.8	-0.2474	-0.0269	0.2205	1146.5172	0.135672	-418.010681	-418.002431	-418.001486	-418.043764	30.767	
N	-0.0828962788	 1.1316513405	 0.7418167252	-0.540204
C	-0.0622046379	 0.0145206142	 0.1681869356	 0.408962
C	-1.1219184634	-0.8785803015	-0.4756080175	-0.428906
C	 0.0287708624	-1.8555131538	-0.7821834614	 0.383876
C	 0.0683217568	-3.3453100238	-0.6785104175	-0.324999
C	 0.298353977	-2.6549139909	-2.015101122	-0.324997
N	 0.9585807205	-0.9247090072	-0.1414028219	-0.137544
C	 2.3010265259	-0.911633193	 0.0968887948	 0.135558
O	 2.8795837704	-0.0085647807	 0.6631512027	-0.309724
H	 0.857646082	 1.3963190025	 1.0404504734	 0.251783
H	-1.8781735288	-1.2493912218	 0.2190557608	 0.140855
H	-1.608275643	-0.4394383171	-1.3488738324	 0.140854
H	 0.924756406	-3.8015553426	-0.1929685676	 0.128797
H	-0.8681941992	-3.8694506551	-0.5191249176	 0.130726
H	-0.481158581	-2.7078834813	-2.7679246211	 0.130725
H	 1.3071454512	-2.6538963149	-2.4147644172	 0.128797
H	 2.8116519198	-1.8180531636	-0.2832747264	 0.085442
92.5352	106.9377	158.0488	239.7329	241.4332	294.6322	439.1732	471.7704	512.6532	527.5877	535.801	757.7064	793.1431	842.2363	861.1782	915.1772	937.8761	957.8077	981.4471	1021.3973	1041.6017	1053.0992	1078.1464	1092.9269	1144.3777	1184.507	1202.2307	1223.9896	1280.4384	1386.3714	1394.7363	1435.8257	1457.5891	1468.5343	1506.76	1755.5438	1823.0309	2939.7045	3081.5133	3129.7405	3132.3237	3135.4674	3210.4952	3224.0898	3481.6186
N=C1CC2(CC2)N1C=O	[NH][C]1CC2(CC2)N1C=O	
InChI=1S/C6H8N2O/c7-5-3-6(1-2-6)8(5)4-9/h4,7H,1-3H2	InChI=1S/C6H8N2O/c7-5-3-6(1-2-6)8(5)4-9/h4,7H,1-3H2
