21
gdb 63103	2.1688	1.63896	1.16975	0.8255	91.	-0.2253	0.0398	0.2651	1158.8861	0.180752	-349.904484	-349.89513	-349.894186	-349.937698	36.76	
C	-0.0222294787	 1.5336059975	 0.0534608571	-0.463228
C	 0.057125463	 0.0174779565	 0.0328908782	 0.280602
C	-1.1869020491	-0.6258384556	-0.5595829116	-0.46055
C	 1.3295533482	-0.7347229946	-0.2454888762	-0.141516
C	 2.5717550948	-0.0350768751	 0.3122035636	-0.245704
C	 1.9388441575	-0.0523285246	 1.7377228893	-0.300344
C	 0.6934871111	-0.7721247887	 1.1767989397	 0.156884
C	 0.0241843248	-1.8226130021	 1.8641632779	 0.191661
C	-0.5276628675	-2.6980628184	 2.4813841454	-0.429609
H	 0.866729925	 2.0091497853	 0.471395336	 0.119374
H	-0.1546348483	 1.9189599486	-0.9643298057	 0.11625
H	-0.8840461816	 1.8629723278	 0.6445775504	 0.119739
H	-1.3423088493	-0.275728521	-1.5861978562	 0.111821
H	-1.1131724025	-1.7157943616	-0.5764685958	 0.127814
H	-2.0768753718	-0.3648059885	 0.023285774	 0.120993
H	 1.3466278747	-1.5385638156	-0.9730744897	 0.091058
H	 3.4645713227	-0.6607518922	 0.2549696354	 0.107185
H	 2.8091297548	 0.9427684506	-0.1178584643	 0.100379
H	 2.4923910102	-0.6921468187	 2.4266255734	 0.116195
H	 1.7600297515	 0.90998462	 2.2258273223	 0.100074
H	-1.0164578296	-3.4713920795	 3.0196001467	 0.180924
121.9402	146.7292	172.2141	220.1604	249.4438	268.8571	300.5708	358.7416	381.3193	456.3744	506.0137	549.3729	558.4403	595.6451	647.4933	672.8148	709.9198	799.4591	883.031	939.1433	946.775	953.6351	970.0891	1005.7776	1027.6472	1068.038	1092.5081	1130.5555	1148.7997	1192.5751	1224.4913	1228.7706	1263.7697	1287.2955	1312.5046	1404.6279	1416.3268	1428.1305	1473.31	1485.8969	1487.7314	1505.9129	1507.0807	1511.9892	2222.6439	3028.893	3033.36	3053.0207	3060.5256	3085.4844	3092.0362	3103.755	3119.9598	3123.5176	3128.2353	3173.7933	3503.7329
CC1(C)C2CCC12C#C	CC1(C)[C@H]2CC[C@@]12C#C	
InChI=1S/C9H12/c1-4-9-6-5-7(9)8(9,2)3/h1,7H,5-6H2,2-3H3	InChI=1S/C9H12/c1-4-9-6-5-7(9)8(9,2)3/h1,7H,5-6H2,2-3H3/t7-,9-/m1/s1
