23
gdb 122811	7.10125	0.47985	0.45707	3.4144	84.53	-0.2434	-0.0078	0.2356	2444.5326	0.201941	-425.444502	-425.432803	-425.431859	-425.483803	39.359	
C	-0.0955277215	 1.5207604155	-0.1286310222	-0.37423
C	 0.0289223668	 0.0089143825	 0.0432209149	-0.274479
C	 0.7809769121	-0.402028875	 1.3043468578	 0.371769
O	 1.2262730475	 0.4144171637	 2.0781103704	-0.293162
C	 0.9394083985	-1.9019199969	 1.5339118593	-0.304208
C	 1.7002239782	-2.2499068703	 2.8118252338	-0.190639
C	 1.8395083995	-3.7528984875	 3.0086881472	-0.054082
O	 2.5498738996	-3.9857481702	 4.2040436691	-0.228756
C	 2.7318053815	-5.3527303728	 4.4772539759	-0.226813
H	 0.8903479888	 1.9898545929	-0.1774035801	 0.131414
H	-0.6409095538	 1.762496518	-1.0451769468	 0.10852
H	-0.6239296458	 1.966958038	 0.717585541	 0.131403
H	-0.9597420007	-0.4700632701	 0.0702597602	 0.118883
H	 0.5393441067	-0.4474392443	-0.8163254709	 0.118883
H	-0.0648603812	-2.3499864112	 1.5363064498	 0.118103
H	 1.4353705849	-2.3272397098	 0.6493467854	 0.118111
H	 2.6953443118	-1.795545031	 2.7879137589	 0.121332
H	 1.189635801	-1.8184816851	 3.6781131054	 0.121319
H	 0.844264071	-4.2315515181	 3.0546751084	 0.078997
H	 2.3699299386	-4.2083187111	 2.1525430741	 0.078999
H	 3.3052959135	-5.8576195622	 3.6828942765	 0.100839
H	 3.2875566532	-5.4292575942	 5.415067499	 0.126956
H	 1.7708083501	-5.8804625204	 4.5903587131	 0.100841
27.7961	43.9458	65.6214	83.0803	117.3017	124.7903	186.8091	205.4589	240.7155	259.2381	307.8122	421.9909	469.7948	500.968	646.4209	707.1018	781.2556	825.1189	867.1296	972.4289	1001.6767	1011.9553	1014.6563	1065.9687	1097.9218	1128.7606	1142.7304	1167.1049	1180.2854	1220.0739	1226.4869	1276.7719	1287.7091	1303.0245	1315.6251	1365.0393	1389.2143	1413.4801	1429.8827	1447.5342	1460.6829	1482.635	1485.9611	1491.5306	1492.4224	1497.6604	1505.4005	1531.8264	1808.2233	2931.5489	2954.653	2965.4845	3006.1622	3006.2388	3019.4659	3031.7956	3046.3387	3051.4591	3063.2382	3105.609	3112.6124	3122.4172	3127.8936
CCC(=O)CCCOC	CCC(=O)CCCOC	
InChI=1S/C7H14O2/c1-3-7(8)5-4-6-9-2/h3-6H2,1-2H3	InChI=1S/C7H14O2/c1-3-7(8)5-4-6-9-2/h3-6H2,1-2H3
