23
gdb 71935	2.47624	1.89036	1.40133	0.156	87.59	-0.2622	0.0813	0.3435	1044.2055	0.208667	-351.152677	-351.144998	-351.144053	-351.18437	32.285	
C	 0.0178467168	 1.5251554912	 0.0362385571	-0.482313
C	 0.0010960594	 0.0030673923	 0.0045809548	 0.383167
C	 0.3016558743	-0.6337934105	-1.3965273071	-0.283038
C	-0.9720439403	-1.4989044256	-1.294412019	-0.014966
C	-0.8262689909	-2.7677830547	-0.4073927857	-0.245623
C	-1.2457624903	-1.9575048506	 0.8642033499	-0.00626
C	-0.1497690145	-1.6370396859	 1.8834796305	-0.215141
C	 0.8029737337	-0.6424601944	 1.1735396961	-0.282673
C	-1.407154445	-0.6951108153	-0.021962349	-0.078641
H	 1.0352067478	 1.9121561433	-0.09932939	 0.111574
H	-0.6063576265	 1.9491744182	-0.7580683823	 0.108054
H	-0.356264801	 1.9054997969	 0.9943849204	 0.108969
H	 0.2225951585	 0.1092365238	-2.1966447531	 0.0905
H	 1.2566021098	-1.159321912	-1.5094709908	 0.084482
H	-1.5849934413	-1.6008497666	-2.1907353329	 0.057508
H	-1.5470489717	-3.5487467101	-0.6619801304	 0.097386
H	 0.1701484175	-3.222283206	-0.3847285621	 0.087479
H	-2.1550121729	-2.3409425791	 1.3330333496	 0.059583
H	-0.6044615393	-1.1576198136	 2.7590379126	 0.092857
H	 0.3676508824	-2.5321126368	 2.2457267663	 0.092333
H	 1.6898124206	-1.1554915496	 0.7873237554	 0.095594
H	 1.1679593796	 0.1179540876	 1.8713012416	 0.09116
H	-2.2981856167	-0.0698116625	 0.0476133281	 0.048009
94.6713	234.1768	250.1605	288.8409	332.9206	363.5008	412.5224	528.686	604.5168	625.0496	734.813	755.6974	798.7921	829.7351	858.9397	877.0059	883.7236	904.2178	935.0345	944.6879	973.3662	985.2254	1002.351	1044.9868	1055.9513	1088.0897	1124.6718	1146.6889	1160.9553	1167.9746	1181.8198	1219.8685	1233.9588	1242.3455	1249.7392	1278.701	1287.6801	1296.8305	1306.1027	1320.5572	1350.5577	1355.3289	1409.6349	1474.5053	1482.5442	1487.9718	1493.5765	1494.1463	1508.1392	3014.2132	3025.7135	3029.2968	3040.3147	3043.5329	3064.5818	3071.3482	3077.3709	3078.9024	3084.5697	3087.4408	3089.9914	3097.5301	3107.4487
CC12CC3CC(CC1)C23	C[C@@]12C[C@H]3C[C@@H](CC1)[C@@H]23	
InChI=1S/C9H14/c1-9-3-2-6-4-7(5-9)8(6)9/h6-8H,2-5H2,1H3	InChI=1S/C9H14/c1-9-3-2-6-4-7(5-9)8(6)9/h6-8H,2-5H2,1H3/t6-,7-,8-,9+/m1/s1
