18
gdb 37232	5.08272	1.20088	1.14576	1.1216	76.18	-0.2229	0.073	0.2959	1103.7302	0.148529	-401.85187	-401.844678	-401.843734	-401.883688	28.448	
C	-0.0469897929	 1.2970083124	 0.0508580614	-0.22004
C	 1.2774664618	 0.6395105157	-0.0093130402	-0.052404
C	 1.722538264	 0.1456482963	 1.3356454004	-0.194909
C	 0.3568608539	-0.585464163	 1.4060028216	-0.118103
N	-0.0286050223	-0.1767619016	 0.04251476	-0.132024
C	 1.6300488988	-1.3554632573	 1.3614540078	 0.484244
C	 2.1265966088	-2.4556783891	 0.4297238237	-0.358259
C	 2.5253077539	-3.156606329	 1.7471184457	-0.079163
O	 2.0564800836	-2.0346850693	 2.5383675638	-0.325487
H	-0.3522160578	 1.8144525393	 0.9573327432	 0.114552
H	-0.4350960554	 1.7132053993	-0.8740501468	 0.120784
H	 1.8818097273	 0.6542092863	-0.9114217687	 0.09951
H	 2.2848066057	 0.6892786853	 2.0866702413	 0.101199
H	-0.3657028027	-0.67448318	 2.2094543953	 0.100446
H	 1.3530112009	-2.9464105306	-0.1614760448	 0.128285
H	 2.9597355172	-2.1758099456	-0.2172928982	 0.113308
H	 1.9720240007	-4.0720790715	 1.9836479132	 0.109652
H	 3.5961260045	-3.3311821376	 1.8960706614	 0.108407
80.5922	140.4495	217.0651	307.2062	410.5905	444.039	479.6393	647.8098	720.7527	750.7627	790.7124	810.9245	836.5326	879.9497	916.7952	938.5486	969.6524	991.3481	1007.8925	1017.4133	1032.1653	1056.9783	1090.2382	1117.7579	1125.3856	1132.3463	1163.8198	1165.2877	1201.1708	1210.9767	1223.0093	1239.1177	1259.3297	1352.9831	1356.7347	1440.1867	1490.0826	1492.9709	1531.1674	3031.8306	3075.9525	3083.6522	3109.5652	3140.512	3156.8658	3170.4576	3183.817	3203.7845
C1C2C3C(N12)C31CCO1	C1[C@H]2[C@H]3[C@@H](N12)[C@]13CCO1	
InChI=1S/C7H9NO/c1-2-9-7(1)5-4-3-8(4)6(5)7/h4-6H,1-3H2	InChI=1S/C7H9NO/c1-2-9-7(1)5-4-3-8(4)6(5)7/h4-6H,1-3H2/t4-,5-,6+,7+,8?/m0/s1
