20
gdb 114952	3.65117	0.97369	0.83966	1.938	77.11	-0.2502	0.0305	0.2807	1448.0555	0.170347	-440.311601	-440.302092	-440.301148	-440.346702	33.815	
C	-0.2030817388	 1.5301427871	 0.0674856477	-0.369278
C	 0.0664011585	 0.0283654438	-0.0154996062	-0.290315
C	 0.8292652252	-0.3760812682	-1.2356623176	 0.42047
N	 1.2687358887	 0.3822182722	-2.1538406759	-0.313213
C	 1.930288843	-0.4900930058	-3.1285211694	-0.21018
C	 1.9320087398	-1.888819067	-2.481926879	 0.184343
O	 3.2185154421	-2.2052317028	-2.0685874517	-0.228444
C	 3.339498893	-3.4889683322	-1.477737732	-0.244306
O	 1.0483992776	-1.7255953046	-1.3517636132	-0.268306
H	 0.732576923	 2.0941311799	 0.074827239	 0.135074
H	-0.7824947661	 1.8713280043	-0.7938310816	 0.132396
H	-0.7604559596	 1.7665132813	 0.978229216	 0.108703
H	 0.6286859667	-0.3206026444	 0.8601375015	 0.127168
H	-0.8707878466	-0.5427384483	-0.0032937008	 0.126122
H	 1.3844882264	-0.4742047187	-4.0779775559	 0.114695
H	 2.9569231916	-0.1654656808	-3.3185677165	 0.128976
H	 1.5093893652	-2.6977798009	-3.0927306132	 0.076301
H	 2.7596623145	-3.5599384477	-0.5504672894	 0.128676
H	 3.0023265051	-4.2770720002	-2.1674262316	 0.10909
H	 4.3980976705	-3.6378867072	-1.25630273	 0.132029
52.0663	85.1748	126.9716	175.4746	188.4416	207.1658	240.0629	283.4336	408.1431	428.8037	542.716	613.2796	670.9345	790.9031	807.4396	855.825	925.9702	954.9636	996.7748	1017.2766	1035.3604	1072.5463	1107.5241	1115.4427	1142.0705	1180.3075	1197.713	1200.8085	1254.1227	1280.2625	1320.463	1344.2747	1392.6054	1413.0797	1418.1178	1469.7253	1478.7645	1483.4489	1487.0555	1492.38	1502.6755	1511.6919	1743.1118	2994.9506	3018.1165	3030.6805	3050.551	3052.7441	3056.1037	3069.219	3099.5162	3124.0597	3130.3562	3132.0198
CCC1=NCC(OC)O1	CCC1=NC[C@@H](OC)O1	
InChI=1S/C6H11NO2/c1-3-5-7-4-6(8-2)9-5/h6H,3-4H2,1-2H3	InChI=1S/C6H11NO2/c1-3-5-7-4-6(8-2)9-5/h6H,3-4H2,1-2H3/t6-/m0/s1
