20
gdb 63219	2.22209	1.5711	1.17004	3.9855	83.96	-0.2579	0.007	0.2649	1136.013	0.170818	-366.050993	-366.041966	-366.041022	-366.084332	34.553	
C	 0.3867853963	 1.4207362214	-0.3155057826	-0.424544
C	-0.0072711965	-0.0468883639	-0.0526845452	 0.240227
C	-1.5125133861	-0.1384019139	 0.2361768399	-0.437985
C	 0.426283466	-0.9135609404	-1.2221587796	-0.078503
C	 1.5256237145	-1.620853354	-0.9771181128	-0.093802
C	 2.0480631309	-1.3938030684	 0.4203956099	-0.279152
C	 0.8342040458	-0.7029090568	 1.1080211532	-0.177814
C	 1.1986248244	 0.2059643396	 2.1883055842	 0.276983
N	 1.485377898	 0.9285163745	 3.0444226429	-0.34213
H	 1.4646648406	 1.5240714568	-0.470883825	 0.123352
H	-0.1171093646	 1.7890822664	-1.2148587161	 0.113835
H	 0.1000668275	 2.0634794888	 0.5222983945	 0.136794
H	-2.0922861914	 0.2840370666	-0.5911621339	 0.118225
H	-1.8296802561	-1.1773077768	 0.3729963074	 0.116659
H	-1.7710007957	 0.4212288218	 1.1416627372	 0.129313
H	-0.1068644365	-0.8846687541	-2.166847655	 0.098621
H	 2.033097643	-2.2632544531	-1.68769524	 0.103332
H	 2.3338877194	-2.3134458747	 0.9403575309	 0.121683
H	 2.9348546732	-0.7473862652	 0.4175400766	 0.130222
H	 0.2120971873	-1.4916856748	 1.5459965035	 0.124687
78.5589	144.5813	200.7948	226.5545	246.1201	258.7696	320.7587	349.1578	378.865	488.2396	512.5491	555.7968	588.1987	701.4117	758.4587	769.6429	871.1145	941.4584	955.9294	962.4809	975.4137	996.0945	1014.2237	1036.1138	1052.0381	1117.5134	1141.2146	1192.8869	1229.6717	1239.1385	1299.2491	1305.3927	1347.2448	1362.1195	1400.0187	1423.4737	1481.096	1486.2044	1492.4328	1501.4151	1506.3498	1689.4909	2352.8586	3028.2767	3030.3561	3036.9591	3044.1508	3078.1121	3099.3773	3101.919	3107.682	3114.5372	3180.3891	3207.3648
CC1(C)C=CCC1C#N	CC1(C)C=CC[C@H]1C#N	
InChI=1S/C8H11N/c1-8(2)5-3-4-7(8)6-9/h3,5,7H,4H2,1-2H3	InChI=1S/C8H11N/c1-8(2)5-3-4-7(8)6-9/h3,5,7H,4H2,1-2H3/t7-/m0/s1
