19
gdb 71155	2.65502	1.83906	1.47345	2.5662	78.53	-0.2341	0.0681	0.3022	969.104	0.160198	-381.985492	-381.977908	-381.976963	-382.017061	30.603	
C	-0.0025889481	 1.5615527451	 0.0534030648	-0.514459
C	 0.0236999951	 0.0626799184	 0.032171739	 0.229701
C	-1.2588262186	-0.7967375505	-0.0831604205	-0.280314
C	-0.4837779121	-1.7953639192	 0.7587013644	-0.045161
C	 0.9529358219	-1.7617348886	 0.3472848104	-0.133634
N	 0.4233337537	-0.7440991815	 1.3289172724	-0.188701
C	 1.0803135569	-0.7368501406	-0.7395030246	 0.393064
C	 1.4048209593	-0.7823125413	-2.1777931438	-0.328549
N	 2.3727169496	-0.2431239954	-1.1879685275	-0.384421
H	 0.9836957084	 1.9729757229	 0.2931014833	 0.131011
H	-0.3179103261	 1.9591811101	-0.9187082986	 0.122517
H	-0.7064679688	 1.9231060732	 0.8088720908	 0.134325
H	-2.0833470793	-0.3608433297	 0.4883767151	 0.10653
H	-1.604779434	-1.0795745228	-1.082872143	 0.097508
H	-0.8800608348	-2.5870210139	 1.3849965653	 0.096902
H	 1.6782562743	-2.5089016146	 0.645856103	 0.102921
H	 1.7084752283	-1.7123716063	-2.650753438	 0.120686
H	 0.8949649913	-0.0850099817	-2.8394423653	 0.109188
H	 2.3791100631	 0.7740532762	-1.2232826272	 0.230884
158.8004	172.3293	226.7097	240.6895	305.9384	374.7769	439.733	525.2918	593.2735	638.05	749.6173	767.9614	798.1178	823.7231	873.1287	894.3705	909.0796	934.1086	976.6082	986.9569	1014.153	1023.4993	1032.9473	1069.0048	1100.9344	1113.1952	1127.9236	1142.7957	1203.2199	1229.967	1252.8096	1264.4399	1288.3785	1349.8956	1358.2884	1413.7527	1444.4932	1480.0245	1492.6206	1496.9231	1520.5491	3027.6277	3040.9031	3094.146	3097.6067	3098.9773	3108.1652	3174.7444	3183.4581	3196.1764	3488.022
CC12CC3C(N13)C21CN1	C[C@]12C[C@H]3[C@H](N13)[C@]12CN1	
InChI=1S/C7H10N2/c1-6-2-4-5(9(4)6)7(6)3-8-7/h4-5,8H,2-3H2,1H3	InChI=1S/C7H10N2/c1-6-2-4-5(9(4)6)7(6)3-8-7/h4-5,8H,2-3H2,1H3/t4-,5-,6+,7-,9?/m0/s1
