17
gdb 124875	3.69265	1.25372	1.04417	5.8515	74.2	-0.2435	0.0047	0.2483	1143.8131	0.138187	-414.166459	-414.158663	-414.157719	-414.199088	29.455	
C	-0.2350648123	 1.4197784807	-0.6385997972	-0.475798
C	-0.0333551801	 0.0281943899	-0.0756657026	 0.175637
C	 1.0509659655	-0.8292666436	-0.6455574464	-0.260697
N	 1.1804155222	-0.2755633789	 0.7112808084	-0.359895
C	-1.2462209735	-0.6211102147	 0.4760842664	 0.365518
C	-2.5838960488	-0.6238027111	 0.1452500411	-0.189452
N	-3.2535921425	-1.4303327532	 1.016779535	-0.188925
N	-2.4068593063	-1.9274318331	 1.8736506282	-0.118121
N	-1.195056571	-1.4438862805	 1.5496432784	-0.238172
H	 0.7024643314	 1.8144723841	-1.0424397572	 0.117181
H	-0.9701952477	 1.4110072979	-1.4497333073	 0.139037
H	-0.5984104397	 2.1052125902	 0.1336169726	 0.138907
H	 0.9205944309	-1.9063538392	-0.6903069938	 0.130688
H	 1.6583312282	-0.4082163037	-1.4424728662	 0.121804
H	 1.8077980351	 0.524466532	 0.7147749802	 0.238638
H	-3.0951590826	-0.1075583409	-0.6507949268	 0.11678
H	-0.3736059089	-1.657495876	 2.0955591071	 0.286869
67.7814	148.1421	190.8251	229.6136	312.7492	353.9931	417.1833	487.1051	552.2736	654.6351	719.4734	748.5704	821.8648	836.4983	852.6917	932.7346	977.8941	992.7992	1004.7503	1048.9287	1063.1636	1074.4629	1117.8985	1132.8874	1148.592	1196.5865	1262.7391	1286.9283	1323.5072	1356.6143	1400.7801	1418.9593	1436.2773	1484.4028	1499.286	1509.9802	1609.3413	3035.1989	3105.523	3108.9615	3111.8374	3201.6061	3271.155	3506.3647	3643.5025
CC1(CN1)C1=CN=NN1	C[C@]1(CN1)c1cnn[nH]1	
InChI=1S/C5H8N4/c1-5(3-6-5)4-2-7-9-8-4/h2,6H,3H2,1H3,(H,7,8,9)	InChI=1S/C5H8N4/c1-5(3-6-5)4-2-7-9-8-4/h2,6H,3H2,1H3,(H,7,8,9)/t5-/m0/s1
