19
gdb 102778	2.34566	1.30908	0.9054	2.7748	71.59	-0.2402	0.0172	0.2574	1306.5843	0.160321	-456.388451	-456.379312	-456.378368	-456.422887	33.665	
C	-0.4457004747	 1.5708479849	 0.2277706167	-0.388282
C	 0.0505464256	 0.1249516748	 0.1488414092	-0.194833
C	 0.6259252851	-0.2462829899	-1.21599959	-0.11458
N	 1.871446559	 0.4435683041	-1.5638932177	-0.312772
C	 2.6886329618	-0.5016224979	-2.2917135661	 0.157292
N	 4.0665405167	-0.3648764499	-1.9888490578	-0.5006
H	 4.2613543566	-0.7006006254	-1.049924603	 0.237542
H	 4.6385881239	-0.8956724366	-2.6348756676	 0.251449
C	 0.9743891512	-1.7346891493	-1.3286873928	 0.417332
O	 0.3292941786	-2.6707238756	-0.9467272733	-0.35195
O	 2.1679604684	-1.8467858815	-1.9505052528	-0.244872
H	 0.3578206663	 2.2856291976	 0.0242704307	 0.125471
H	-1.2401320209	 1.7523964317	-0.5039387923	 0.122668
H	-0.8481463225	 1.7906022011	 1.2209383351	 0.119072
H	 0.8146457307	-0.0582817284	 0.9166913927	 0.095716
H	-0.7642734252	-0.5757903192	 0.3563522322	 0.133578
H	-0.1332737548	-0.0384464106	-1.986378961	 0.112687
H	 2.3692505439	 0.7422142734	-0.7306346156	 0.225283
H	 2.5452601002	-0.4063743535	-3.3739012466	 0.109797
61.4551	98.1943	122.1183	168.6122	227.4637	302.3851	316.6279	367.8306	405.5159	513.6543	560.7555	589.5424	690.1987	700.4682	737.7227	788.5967	821.4442	872.7489	912.0074	948.4291	999.7462	1020.7755	1083.5732	1143.3829	1168.8654	1187.4138	1233.5028	1247.7946	1294.7693	1299.6717	1337.7934	1369.6956	1384.5326	1417.0437	1433.505	1478.0054	1490.8596	1499.5407	1506.2472	1668.3263	1871.241	2984.4392	3021.7038	3037.9036	3051.4724	3082.0261	3107.4372	3113.	3511.0475	3519.3303	3602.2797
CCC(NC=[NH2+])C([O-])=O	CC[C@H]1N[C@@H](N)OC1=O	
InChI=1S/C5H10N2O2/c1-2-4(5(8)9)7-3-6/h3-4H,2H2,1H3,(H2,6,7)(H,8,9)	InChI=1S/C5H10N2O2/c1-2-3-4(8)9-5(6)7-3/h3,5,7H,2,6H2,1H3/t3-,5-/m1/s1
