18
gdb 13595	4.4261	1.24039	1.11423	3.1413	69.83	-0.2407	-0.0202	0.2205	1125.3475	0.152152	-384.953105	-384.944535	-384.943591	-384.986591	31.45	
C	-0.0401751089	 1.5348925659	-0.0008500846	-0.378422
C	 0.0649320137	 0.0139231138	 0.0644394933	-0.287066
C	 0.8285336093	-0.4991820606	 1.2728978645	 0.416303
O	 1.3094711328	 0.2688198674	 2.0977514061	-0.374074
C	 0.9370927878	-1.9636063775	 1.4294194176	-0.192775
C	 2.2056598586	-2.5252386038	 2.0896089135	-0.324261
C	 0.9566335337	-2.4965047925	 2.887310436	 0.158134
O	 0.7727096396	-1.6439796356	 3.9536553308	-0.418886
H	 0.9512490621	 1.9937940949	-0.0294840118	 0.132413
H	-0.5920026516	 1.8447475941	-0.8925569631	 0.110943
H	-0.5543842079	 1.9287445157	 0.8793572655	 0.1334
H	-0.928940215	-0.455267739	 0.079172505	 0.127925
H	 0.5542667421	-0.3919086344	-0.8323145228	 0.125959
H	 0.4503475324	-2.5722758039	 0.6756639704	 0.091724
H	 2.5760154662	-3.469558402	 1.7063263834	 0.121632
H	 2.9632325504	-1.7876170175	 2.3335766305	 0.136789
H	 0.4240885071	-3.4297089249	 3.0406152924	 0.115429
H	 1.1056357376	-0.7715902001	 3.6774821032	 0.304836
56.2872	85.017	179.8074	192.4933	223.8645	299.9203	359.6806	448.3204	466.8302	569.1369	603.9341	669.791	731.3683	788.3338	810.3573	843.5929	908.6803	978.4391	1015.1765	1050.635	1067.6006	1085.1225	1093.6082	1114.9541	1142.7885	1148.823	1235.2841	1276.6887	1348.235	1362.6521	1412.938	1413.7005	1450.044	1452.3794	1488.3194	1492.1106	1498.0998	1736.1825	3015.2669	3041.3484	3052.4062	3123.7237	3128.3878	3132.4781	3165.822	3174.7823	3228.5822	3623.0365
CCC(=O)C1CC1O	CCC(=O)[C@H]1C[C@H]1O	
InChI=1S/C6H10O2/c1-2-5(7)4-3-6(4)8/h4,6,8H,2-3H2,1H3	InChI=1S/C6H10O2/c1-2-5(7)4-3-6(4)8/h4,6,8H,2-3H2,1H3/t4-,6-/m1/s1
