25
gdb 76338	1.98756	1.39705	1.25048	1.4771	87.39	-0.2483	0.0575	0.3058	1241.8677	0.226801	-389.491082	-389.480309	-389.479365	-389.52556	41.723	
C	 0.7965150076	 1.5930109234	-0.0770905202	-0.43266
C	 0.1835661456	 0.2133849915	 0.1542386731	-0.063373
C	 0.714103352	-0.9126801464	-0.7891893364	 0.139059
O	 1.3657772501	-0.5669567074	-1.9893121325	-0.431561
C	 1.5372925784	-1.5248751647	 0.3885729936	-0.063372
C	 3.0451417251	-1.2943507351	 0.3121581239	-0.432669
C	 0.7006794666	-0.6306997502	 1.3800467966	 0.323104
C	 1.4580789324	 0.1078048879	 2.482731887	-0.450189
C	-0.4448608264	-1.4388496554	 2.0029894977	-0.43669
H	 1.8918637747	 1.5881831757	-0.057504987	 0.105554
H	 0.4872022951	 1.9841758927	-1.0516221701	 0.125607
H	 0.468186543	 2.3032136604	 0.6881913651	 0.118428
H	-0.9069353325	 0.3192376033	 0.1371165181	 0.061098
H	-0.0926734093	-1.5824739386	-1.0969821529	 0.085582
H	 2.093210792	 0.0274822434	-1.7813598841	 0.2808
H	 1.3646679759	-2.5976260629	 0.5303370105	 0.061099
H	 3.3155361397	-0.2398753016	 0.1890024796	 0.105558
H	 3.5439096932	-1.6462289918	 1.2205940444	 0.11843
H	 3.4677183119	-1.8429355597	-0.5357092949	 0.125606
H	 2.2906880298	 0.7051313743	 2.1035382796	 0.109209
H	 0.7880773924	 0.7840483971	 3.0263200677	 0.110487
H	 1.8663932927	-0.600531116	 3.212961341	 0.110486
H	-0.0621058179	-2.172682864	 2.7219153856	 0.108752
H	-1.1443139645	-0.7830717988	 2.5345791127	 0.108752
H	-1.0154645176	-1.9854671973	 1.2445995421	 0.112904
85.0953	202.1277	216.4239	218.9091	223.6944	250.2382	252.8584	256.2481	263.399	281.9681	322.0654	345.7479	422.5892	457.5997	520.053	527.8257	666.0666	763.2606	772.6966	796.7429	880.9368	947.2427	962.84	991.7981	1010.1883	1022.2269	1039.7806	1059.3953	1110.7361	1128.9423	1136.7221	1195.1245	1218.8931	1234.0936	1256.1725	1280.8494	1281.4497	1310.3862	1351.4514	1381.8093	1401.8785	1402.1488	1410.9821	1425.0725	1443.9477	1482.1759	1485.0696	1491.8082	1496.8675	1499.2975	1507.8379	1512.3324	1513.8759	3017.6057	3025.3702	3028.5212	3031.1678	3032.2267	3034.6457	3074.5003	3080.4878	3085.5953	3090.6749	3091.8337	3096.8385	3103.5796	3104.0419	3113.8169	3823.3483
CC1C(O)C(C)C1(C)C	C[C@H]1[C@@H](O)[C@@H](C)C1(C)C	
InChI=1S/C8H16O/c1-5-7(9)6(2)8(5,3)4/h5-7,9H,1-4H3	InChI=1S/C8H16O/c1-5-7(9)6(2)8(5,3)4/h5-7,9H,1-4H3/t5-,6+,7+
