22
gdb 7161	5.75609	0.79167	0.73747	0.7521	84.89	-0.2581	0.0557	0.3137	1595.2006	0.197544	-313.051506	-313.041186	-313.040242	-313.086925	37.251	
C	 0.0820875531	 1.6228163046	 0.0252735945	-0.378429
C	-0.0412829088	 0.0964663499	-0.0088747801	-0.181931
C	 0.6465376687	-0.5253677937	-1.2302666848	-0.159216
C	 0.6486485656	-2.0638325413	-1.2633130517	 0.029465
C	-0.7615166998	-2.6589803327	-1.3555774455	-0.391479
C	 1.5343832991	-2.5540518003	-2.4375669675	-0.36367
C	 1.7411220806	-3.9970992116	-2.4609000561	 0.300802
C	 1.908864968	-5.1878484601	-2.4566465726	-0.444047
H	 1.1319808354	 1.9352161197	 0.0535670973	 0.113376
H	-0.3724482885	 2.0766831365	-0.8625291794	 0.113801
H	-0.4147272562	 2.0440309113	 0.9048127723	 0.111374
H	 0.3960748718	-0.3269401765	 0.9052440961	 0.095188
H	-1.1021716369	-0.178874131	 0.005165996	 0.100839
H	 0.1710878928	-0.1465900493	-2.1472204427	 0.089797
H	 1.6863749873	-0.1710119314	-1.2617582867	 0.087759
H	 1.1150915607	-2.42443734	-0.3363262214	 0.082318
H	-0.718082336	-3.7492628147	-1.4260500227	 0.129546
H	-1.3654569805	-2.4030169397	-0.481002358	 0.115213
H	-1.2844047411	-2.2848040364	-2.2446679366	 0.108332
H	 1.0808947316	-2.234817579	-3.3864393659	 0.124799
H	 2.5102648908	-2.0542956436	-2.3851874474	 0.124512
H	 2.0623277523	-6.2383038108	-2.463828767	 0.19165
59.4286	75.9793	111.4884	116.1585	198.5493	233.0596	250.4926	308.4934	349.3074	354.5757	387.3894	432.9593	563.7324	612.2381	634.2267	745.114	834.6529	863.3188	884.261	896.2527	953.0507	981.4288	1014.7769	1043.6261	1080.1502	1128.9055	1142.0909	1183.2388	1238.4241	1272.2424	1287.7217	1328.9633	1330.0262	1364.1214	1379.2494	1395.5832	1411.2251	1417.2385	1467.1143	1481.6166	1493.6145	1497.9287	1499.8365	1505.9521	1511.3536	2234.9704	2994.2695	3006.0932	3014.4161	3019.6167	3028.4539	3028.7633	3030.8263	3047.4717	3062.3527	3096.1008	3099.3792	3101.8013	3118.9644	3507.1043
CCCC(C)CC#C	CCC[C@@H](C)CC#C	
InChI=1S/C8H14/c1-4-6-8(3)7-5-2/h1,8H,5-7H2,2-3H3	InChI=1S/C8H14/c1-4-6-8(3)7-5-2/h1,8H,5-7H2,2-3H3/t8-/m0/s1
