15
gdb 98134	4.95669	0.76605	0.67837	3.5898	63.89	-0.2577	-0.0861	0.1716	1575.2821	0.10797	-494.941641	-494.931615	-494.930671	-494.979256	32.284	
C	-0.2310488393	 1.4140484829	-0.1324255278	-0.245332
O	-0.2322304844	-0.0228110232	-0.172102865	-0.207587
C	 0.4524833187	-0.5659765069	-1.1731563553	 0.384781
O	 1.0563059487	 0.0365001888	-2.026528057	-0.348558
C	 0.3992023334	-2.1110658739	-1.1283534735	 0.252631
O	-0.0986910664	-2.700824872	-0.2050395669	-0.263911
C	 1.0272934174	-2.789131297	-2.3299662102	-0.387249
C	 1.1375396824	-4.2926953445	-2.1608638751	 0.170521
O	 0.8413056083	-5.0820656705	-3.0178039813	-0.234192
H	 0.789063967	 1.7898056772	-0.0227833001	 0.149225
H	-0.6621751976	 1.8198943344	-1.0507411637	 0.149665
H	-0.8368444739	 1.684308625	 0.7311810717	 0.148416
H	 0.4559245249	-2.5546176928	-3.2350039897	 0.16564
H	 2.0252664207	-2.3584743104	-2.4900211549	 0.167571
H	 1.53959195	-4.6213566672	-1.1799684812	 0.098378
30.4093	36.7731	60.3976	108.5736	143.1009	151.6889	249.4664	302.7489	343.0198	407.3249	474.2577	521.2547	689.0434	725.9938	808.3968	854.656	957.5039	1031.0286	1056.3519	1087.3739	1176.2887	1179.7542	1208.7829	1283.5829	1343.5979	1407.6011	1431.1023	1473.0389	1482.0915	1491.8279	1806.5263	1820.7816	1841.9289	2919.0676	3038.6402	3056.429	3086.8157	3133.2741	3172.8301
COC(=O)C(=O)CC=O	COC(=O)C(=O)CC=O	
InChI=1S/C5H6O4/c1-9-5(8)4(7)2-3-6/h3H,2H2,1H3	InChI=1S/C5H6O4/c1-9-5(8)4(7)2-3-6/h3H,2H2,1H3
