14
gdb 131324	4.97468	1.32223	1.06179	3.731	62.88	-0.2196	0.0289	0.2485	1048.3376	0.104537	-470.024527	-470.017723	-470.016778	-470.055989	25.412	
O	-0.0891369185	 1.2344684852	-0.1112184723	-0.401874
C	-0.0031104231	-0.0987985227	-0.0643374984	 0.425126
N	-0.1766955884	-0.8339477043	-1.149201864	-0.348754
N	-0.0626608722	-2.0947183051	-0.5967610527	-0.010307
C	 0.2169078408	-3.4111672198	-1.1164556839	-0.193887
C	 0.2896581756	-4.1723571196	 0.2436859269	-0.107615
O	 0.5205525695	-3.1686000324	 1.278105234	-0.269593
C	 0.2362691244	-1.9946244346	 0.7015405071	 0.502734
N	 0.2605389927	-0.7534485829	 1.1212983374	-0.47563
H	 0.078288218	 1.551982012	 0.7843286836	 0.313301
H	-0.5809014056	-3.7943672389	-1.7568720602	 0.143376
H	 1.1625819516	-3.4348279053	-1.6713716136	 0.13745
H	-0.6574237691	-4.6706840775	 0.4682888772	 0.141297
H	 1.1049546642	-4.893683674	 0.2941030888	 0.144375
111.3564	144.8579	271.4745	332.6068	358.0585	407.3421	545.2416	601.0385	708.033	735.7581	765.1786	769.8311	860.1955	885.9563	942.9753	1004.5627	1033.9569	1132.9155	1161.9268	1197.6326	1209.8222	1250.397	1297.8192	1341.4916	1373.7744	1436.65	1500.403	1517.1845	1543.8788	1623.5323	1656.4775	3033.3726	3070.0871	3100.8897	3144.9067	3814.8251
OC1=NN2CCOC2=N1	Oc1nn2CCOc2n1	
InChI=1S/C4H5N3O2/c8-3-5-4-7(6-3)1-2-9-4/h1-2H2,(H,6,8)	InChI=1S/C4H5N3O2/c8-3-5-4-7(6-3)1-2-9-4/h1-2H2,(H,6,8)
