21
gdb 122920	4.75012	0.50571	0.47041	5.605	80.43	-0.2628	0.0238	0.2866	2248.3738	0.181642	-420.40842	-420.397443	-420.396498	-420.445631	38.245	
N	-0.1024623031	 1.5083220651	 0.1934969668	-0.50171
C	 0.0391558105	 0.0582238587	 0.0360759069	-0.137492
C	 0.7136328116	-0.4414781077	-1.2665953692	-0.183891
C	-0.0643909219	-0.0641365211	-2.5307681514	-0.205144
C	 0.5965962456	-0.5922033709	-3.8077092462	-0.170083
C	-0.1669168645	-0.2171067522	-5.0715454844	-0.074006
O	 0.5407022307	-0.7500461278	-6.1789574656	-0.419075
C	 0.7729896716	-0.4716115537	 1.1986884258	 0.298679
N	 1.376442369	-0.9019784437	 2.084816689	-0.319417
H	 0.8017201358	 1.9607814961	 0.0912340948	 0.23892
H	-0.7054270002	 1.873368592	-0.5359995471	 0.240254
H	-0.9729075633	-0.3660227293	 0.0831427217	 0.131947
H	 1.7312932838	-0.033252834	-1.3123419515	 0.111171
H	 0.8184330035	-1.531554386	-1.2089596733	 0.120726
H	-1.0888500102	-0.4560384246	-2.4567604406	 0.099705
H	-0.1558242464	 1.0281256777	-2.596692694	 0.091086
H	 1.6184260406	-0.2027946166	-3.8921037102	 0.110508
H	 0.6825189127	-1.684507429	-3.7646902979	 0.111952
H	-1.192260614	-0.6196614599	-5.0200199586	 0.085136
H	-0.2529991819	 0.8801558107	-5.1419569757	 0.083387
H	 0.0627155901	-0.5232047638	-6.9818166294	 0.287345
57.6941	62.66	82.2207	139.469	142.2488	173.685	217.064	258.9008	266.8601	309.3562	358.4366	395.3331	500.3867	570.347	588.9869	746.5271	795.4092	837.2975	856.6197	923.4107	991.4647	1021.4944	1041.4673	1063.1186	1089.1822	1098.3582	1146.0488	1196.8974	1219.6428	1233.7419	1272.8982	1293.6899	1316.4486	1327.952	1336.6533	1365.004	1394.5897	1415.7903	1466.0735	1479.8504	1490.0008	1505.5138	1529.1246	1655.8736	2362.3162	2955.2924	2980.3578	3005.0284	3022.3963	3030.5971	3036.2072	3037.0368	3071.3629	3083.3166	3495.8843	3586.0881	3831.7488
NC(CCCCO)C#N	N[C@@H](CCCCO)C#N	
InChI=1S/C6H12N2O/c7-5-6(8)3-1-2-4-9/h6,9H,1-4,8H2	InChI=1S/C6H12N2O/c7-5-6(8)3-1-2-4-9/h6,9H,1-4,8H2/t6-/m0/s1
