20
gdb 126541	4.53915	0.80348	0.71628	2.5716	82.29	-0.2438	0.0217	0.2655	1644.583	0.171831	-399.381172	-399.371595	-399.370651	-399.417054	33.892	
C	 0.0680737534	 1.5741375037	-0.0353390319	-0.38431
C	 0.1325140113	 0.0459505941	-0.0529204134	-0.155399
C	 0.6613754639	-0.538162286	 1.2699141141	-0.313635
C	 0.6606878454	-2.0324064033	 1.2816854768	 0.367328
N	-0.3902327157	-2.8234086904	 1.1469417486	-0.34636
C	 0.1405123388	-4.0821447573	 1.213840216	 0.336074
C	-0.6841926323	-5.3206059104	 1.1096732064	-0.482511
N	 1.4547733387	-4.1146779623	 1.3816601023	-0.266931
N	 1.7673205114	-2.7936551306	 1.4206433352	-0.245888
H	 1.05726041	 2.0152377198	 0.1323588955	 0.112463
H	-0.3120868837	 1.9630815484	-0.984639824	 0.117885
H	-0.5934590498	 1.9335317092	 0.7606937377	 0.118594
H	-0.8598521461	-0.3759860552	-0.2411502915	 0.130387
H	 0.7733007603	-0.2931601673	-0.8759072021	 0.100946
H	 1.6761336909	-0.170270714	 1.4656986793	 0.097281
H	 0.033880933	-0.1819391957	 2.0959567884	 0.130761
H	-1.218228918	-5.3510858233	 0.1547057367	 0.136545
H	-0.0483080302	-6.2038819614	 1.1892122073	 0.137379
H	-1.4377240819	-5.3518102375	 1.9029622787	 0.136883
H	 2.7244559406	-2.5086339405	 1.5468918499	 0.272507
28.6219	80.1112	98.3087	110.4343	233.7563	242.1945	280.9621	315.711	386.1314	417.9153	538.8609	653.859	713.4099	726.032	750.4479	804.0701	871.9951	902.2074	1004.2315	1023.7268	1045.0021	1070.7416	1074.9568	1102.5696	1112.0329	1162.155	1236.9202	1276.8116	1314.7233	1328.3682	1372.9153	1391.4033	1409.2712	1412.4379	1463.6476	1478.4351	1480.2744	1481.9957	1492.949	1499.0656	1509.6979	1542.7733	1585.0584	3025.2804	3029.4029	3038.0295	3046.0888	3061.6589	3080.1149	3101.6116	3102.8939	3106.511	3143.5852	3662.71
CCCC1=NC(C)=NN1	CCCc1nc(C)n[nH]1	
InChI=1S/C6H11N3/c1-3-4-6-7-5(2)8-9-6/h3-4H2,1-2H3,(H,7,8,9)	InChI=1S/C6H11N3/c1-3-4-6-7-5(2)8-9-6/h3-4H2,1-2H3,(H,7,8,9)
