18
gdb 53060	4.97806	0.76775	0.69575	0.9397	87.4	-0.2356	-0.0185	0.2171	1666.599	0.146598	-401.949029	-401.939393	-401.938449	-401.986401	33.013	
C	-0.0759279335	 1.4404527989	-0.0317896039	-0.511182
C	-0.0154863629	-0.0105225412	 0.0013520696	 0.285936
C	 0.0425335334	-1.2130733249	 0.0259726904	-0.071341
C	 0.1039062246	-2.6332455469	 0.0562042551	 0.224074
N	 1.1361938985	-3.3405433033	-0.1858608246	-0.329354
C	 0.7310447462	-4.7483532268	-0.0357172728	 0.007668
C	 1.622125387	-5.4779383289	 0.9690069007	-0.385655
C	-0.7638819088	-4.6702280835	 0.3838553274	-0.125318
O	-1.0687335192	-3.2605285472	 0.3726198585	-0.25776
H	 0.724623756	 1.880009609	 0.5728923341	 0.160171
H	 0.0372029277	 1.8132553495	-1.0556545633	 0.160104
H	-1.032584621	 1.8056291304	 0.3560161261	 0.158377
H	 0.8343503291	-5.235718542	-1.0135291345	 0.089211
H	 1.5493030828	-5.0117312959	 1.9570140578	 0.120281
H	 1.3254421335	-6.5284560067	 1.0594517148	 0.111925
H	 2.6665989483	-5.4385674215	 0.6497753833	 0.132581
H	-1.4434991457	-5.1735383037	-0.3088012006	 0.117603
H	-0.9403883562	-5.0516342352	 1.3956337918	 0.112679
9.9799	50.2803	85.8339	92.4319	221.5709	240.4114	299.0105	347.6251	387.9247	448.8754	504.7699	541.5343	696.121	732.1036	853.5687	890.7798	937.8259	939.5467	995.5661	1048.389	1050.8956	1054.3157	1086.0777	1124.0045	1160.3825	1226.3356	1273.5505	1326.97	1366.0475	1383.3934	1406.6212	1411.5514	1472.4865	1473.2292	1487.8699	1496.575	1521.205	1693.0716	2374.4332	3016.4839	3031.1135	3033.6481	3040.9756	3093.6165	3093.8882	3098.0484	3104.5634	3123.7898
CC#CC1=NC(C)CO1	CC#CC1=N[C@@H](C)CO1	
InChI=1S/C7H9NO/c1-3-4-7-8-6(2)5-9-7/h6H,5H2,1-2H3	InChI=1S/C7H9NO/c1-3-4-7-8-6(2)5-9-7/h6H,5H2,1-2H3/t6-/m0/s1
