16
gdb 67332	3.1926	1.44909	1.15257	3.0338	70.43	-0.2413	0.0108	0.2521	1049.8455	0.122457	-437.793312	-437.78567	-437.784726	-437.825558	28.955	
C	-0.1181037082	 1.4813527699	 0.0475151902	-0.539373
C	-0.0759657241	-0.0114680082	 0.1044386719	 0.29275
C	 0.632785255	-1.052271306	-0.8495197625	 0.043068
O	 1.8757656464	-1.0479671286	-0.0983046711	-0.321632
C	 0.8575052056	-0.9613133697	 0.9352190511	 0.039943
C	-0.1473545381	-1.905483616	 0.2082519821	-0.07218
N	-1.2435305421	-0.9165990573	 0.344180567	-0.111697
C	-2.4349457765	-0.9581743445	-0.3299553924	 0.125132
O	-3.0011517135	-1.9728853557	-0.6735685646	-0.314992
H	 0.9002094729	 1.8591773604	-0.0856226116	 0.151746
H	-0.7269774762	 1.836004793	-0.7896846656	 0.138294
H	-0.5263306395	 1.8975795564	 0.9733623109	 0.142434
H	 0.6652617808	-1.1193874155	-1.9373008949	 0.113613
H	 1.1569654776	-0.9172465889	 1.9813959957	 0.112478
H	-0.2861738194	-2.9800891844	 0.281191163	 0.125656
H	-2.8744495807	 0.0524705052	-0.4551396293	 0.074758
94.5955	157.0661	226.1482	237.501	252.0966	323.9096	447.1158	549.843	635.6751	672.1191	734.1215	764.7355	796.0331	814.5239	873.2328	890.0611	924.2572	999.8774	1017.1593	1032.8526	1091.1475	1109.8723	1119.2247	1153.5378	1167.5372	1172.4032	1225.2811	1292.6322	1367.2784	1374.4367	1412.8655	1425.6506	1481.8576	1490.3755	1789.2427	2925.9022	3041.0271	3112.2247	3118.6327	3122.4836	3136.8156	3179.1477
CC12C3OC1C3N2C=O	C[C@@]12[C@H]3O[C@@H]1[C@H]3N2C=O	
InChI=1S/C6H7NO2/c1-6-4-3(5(6)9-4)7(6)2-8/h2-5H,1H3	InChI=1S/C6H7NO2/c1-6-4-3(5(6)9-4)7(6)2-8/h2-5H,1H3/t3-,4-,5+,6+
