18
gdb 78428	5.18395	1.23341	1.21234	0.2411	74.87	-0.2241	0.0726	0.2968	1053.541	0.149564	-401.8479	-401.841103	-401.840159	-401.878759	28.217	
O	 0.1105202377	 1.4067039577	-0.0236781335	-0.439564
C	 0.0554021547	 0.013085004	-0.0189330746	 0.129585
C	-0.3426939119	-0.726549158	 1.2344526827	-0.131884
C	-1.2770036956	-0.6937285471	 0.021321353	-0.131886
C	-1.2946674617	-2.1687057063	-0.3156688086	 0.011064
C	 0.1140814065	-2.8022973936	-0.1402929159	-0.090676
C	-0.6067594806	-4.0459929195	 0.3812225154	-0.188461
N	-1.423227927	-2.9343380147	 1.0401134561	-0.16323
C	-0.060108465	-2.2120736612	 1.2873138101	 0.011065
H	-0.5984087593	 1.7480911395	 0.5314946874	 0.285973
H	 0.8528728096	-0.3742057894	-0.643593646	 0.111984
H	-0.5439851508	-0.1708051932	 2.1435047875	 0.092254
H	-2.1924546934	-0.1128988251	 0.0030933652	 0.092253
H	-1.9620995745	-2.5239594943	-1.102384323	 0.074581
H	 0.9820444507	-2.7350359332	-0.8069472639	 0.065161
H	-1.1786487119	-4.647224659	-0.3313325919	 0.0986
H	-0.0801083068	-4.6858162359	 1.0950406307	 0.0986
H	 0.5202102894	-2.6111591008	 2.1207123694	 0.074581
183.8187	186.3142	274.8083	342.2735	399.4151	463.3521	479.6231	702.4984	713.6007	771.4745	774.4783	842.9417	851.3964	851.515	892.1678	929.9026	932.9865	982.5263	1002.3327	1035.9767	1041.281	1059.5856	1088.5147	1106.5236	1113.6377	1119.3567	1132.0797	1157.8454	1188.3602	1221.69	1248.9255	1257.6399	1276.5843	1282.452	1303.3439	1350.9917	1369.2886	1456.4889	1530.2342	3023.0534	3050.2306	3104.9147	3109.179	3109.9977	3170.3004	3172.0423	3180.1319	3813.1503
OC1C2C1C1C3CN1C23	O[C@H]1[C@H]2[C@@H]1[C@H]1[C@@H]3CN1[C@H]23	
InChI=1S/C7H9NO/c9-7-3-4(7)6-2-1-8(6)5(2)3/h2-7,9H,1H2	InChI=1S/C7H9NO/c9-7-3-4(7)6-2-1-8(6)5(2)3/h2-7,9H,1H2/t2-,3+,4-,5+,6-,7+
