16
gdb 15782	4.64137	1.19301	1.04398	1.9328	66.31	-0.2567	0.0529	0.3096	1111.4154	0.127964	-383.67296	-383.664358	-383.663414	-383.706708	30.895	
O	 0.9729853183	 1.515689799	-0.4140958371	-0.421709
C	 0.0146799885	 0.5967032524	 0.0839729353	 0.112765
C	-0.1285142487	-0.6386704183	-0.8323557021	-0.41531
C	-0.4032833995	-0.2864046491	-2.2180305059	 0.308694
C	-0.6471070893	-0.0013229428	-3.3592602734	-0.424949
C	 0.3759938167	 0.2471786717	 1.516434719	 0.053302
C	 0.1865624692	-1.0575251256	 2.1604902358	-0.181224
O	 1.4749175203	-0.6620649655	 1.6815136346	-0.240675
H	 1.8359821907	 1.0873368718	-0.3605308151	 0.291045
H	-0.9330910272	 1.1470464515	 0.0870453655	 0.103906
H	 0.7937312182	-1.2295512638	-0.7627830671	 0.141694
H	-0.9374212739	-1.2765184219	-0.4551653351	 0.129749
H	-0.8539962873	 0.2538521692	-4.3687636418	 0.193895
H	 0.4394975576	 1.1258760933	 2.1595079755	 0.107243
H	 0.0876236536	-1.1029899083	 3.2440129515	 0.121029
H	-0.2776903072	-1.8807423436	 1.6224853803	 0.120543
49.9556	76.0417	130.2573	228.5939	248.6799	345.2485	357.1491	379.2957	464.8844	525.6507	612.101	618.7517	638.3111	788.3019	859.7105	885.2411	948.2639	968.6187	1010.5486	1071.7977	1099.6106	1122.2202	1168.985	1174.1503	1198.1074	1275.665	1299.4996	1321.0201	1379.0531	1414.8929	1436.6742	1475.8408	1531.4609	2244.226	3023.0786	3049.699	3066.5428	3094.4768	3108.8604	3182.0967	3507.9712	3788.2095
OC(CC#C)C1CO1	O[C@@H](CC#C)[C@H]1CO1	
InChI=1S/C6H8O2/c1-2-3-5(7)6-4-8-6/h1,5-7H,3-4H2	InChI=1S/C6H8O2/c1-2-3-5(7)6-4-8-6/h1,5-7H,3-4H2/t5-,6+/m0/s1
