21
gdb 59277	3.02786	1.28081	1.0079	1.2987	83.35	-0.2264	0.0172	0.2436	1232.8272	0.182813	-387.085375	-387.076659	-387.075714	-387.118636	34.252	
C	 0.0578701262	 1.5932837321	 0.0864945288	-0.409377
C	 0.0421109698	 0.0640306139	 0.0896353937	 0.137827
O	 0.6833453087	-0.4451832779	 1.25818829	-0.429715
C	-1.3726822579	-0.5330988027	-0.0466778716	-0.058216
C	-2.1332246137	-0.1627589515	-1.3104663545	-0.106366
C	-2.6408659955	-1.2325154855	-1.9280070684	-0.0816
C	-2.2599729036	-2.5015902477	-1.2442696617	-0.086942
C	-0.769258643	-2.7870079059	-1.2376844404	-0.275892
C	-1.3970849549	-2.0666176989	-0.0722331642	-0.036516
H	 1.074271627	 1.9530153848	 0.2680823954	 0.123646
H	-0.2870825074	 2.0024236563	-0.8676166954	 0.119
H	-0.5918439404	 1.9926255478	 0.8762746449	 0.103839
H	 0.6581613599	-0.3034856351	-0.7386199205	 0.089032
H	 0.2033926058	-0.1069765493	 2.0227350509	 0.27276
H	-1.9396735813	-0.1764738474	 0.8312071539	 0.063205
H	-2.2348570922	 0.8602467293	-1.6537596222	 0.092778
H	-3.2325199274	-1.2076579218	-2.8366499166	 0.094476
H	-2.9593418936	-3.3282520614	-1.1864047118	 0.083583
H	-0.4521323653	-3.8092104808	-1.0587034235	 0.109166
H	-0.1513946103	-2.2395499636	-1.9417094561	 0.110771
H	-1.4344364208	-2.5947062648	 0.8717012995	 0.084542
69.9039	136.2574	167.993	235.8412	279.9486	317.7253	354.8363	380.4172	458.6271	490.8224	541.0752	689.0245	746.8828	775.0287	794.8886	829.2707	864.872	908.7021	931.399	951.1605	981.177	995.6825	1013.1035	1053.0403	1059.5066	1070.474	1088.3798	1098.7653	1107.3494	1142.456	1163.5799	1200.4311	1227.4427	1290.9929	1307.3695	1325.9006	1365.4367	1375.845	1388.5811	1401.0947	1417.9508	1478.7623	1492.4056	1495.6223	1664.953	2943.2245	3022.3437	3052.3172	3096.0967	3119.587	3125.0955	3167.2002	3183.6297	3190.547	3208.6114	3213.7862	3792.3035
CC(O)C1C=CC2CC12	C[C@@H](O)[C@H]1C=C[C@H]2C[C@@H]12	
InChI=1S/C8H12O/c1-5(9)7-3-2-6-4-8(6)7/h2-3,5-9H,4H2,1H3	InChI=1S/C8H12O/c1-5(9)7-3-2-6-4-8(6)7/h2-3,5-9H,4H2,1H3/t5-,6+,7-,8-/m1/s1
