16
gdb 51249	4.56275	0.86099	0.79003	2.4883	74.03	-0.248	-0.0534	0.1946	1396.2065	0.123708	-437.94278	-437.934073	-437.933129	-437.97823	30.243	
O	 0.0932592333	-0.0737708194	-0.5073653486	-0.225331
C	 0.0747408328	 1.0807184295	-0.1748864262	 0.154757
C	 1.3173936348	 1.9614750219	-0.0525540835	-0.373907
C	 1.3245186286	 2.9818231559	-1.1514565413	 0.298825
C	 0.9951108015	 4.2768885719	-1.1032062322	-0.326833
C	 1.1093244494	 4.8881740439	-2.4617954908	 0.436896
O	 0.9128248987	 6.0358983438	-2.7981158828	-0.384646
N	 1.4962062388	 3.8459500579	-3.2803440089	-0.343625
C	 1.6829665541	 2.6034480187	-2.5736495572	-0.243295
H	-0.878715941	 1.6104720435	 0.0444482533	 0.093634
H	 1.2908071264	 2.4642721845	 0.920624431	 0.132651
H	 2.1963935728	 1.3114311042	-0.1009181239	 0.132905
H	 0.6964133757	 4.8541904547	-0.239283336	 0.121915
H	 1.7008709894	 3.9855416119	-4.2547999523	 0.257055
H	 2.7178904224	 2.2344420721	-2.6333773251	 0.129941
H	 1.0344739822	 1.7983904149	-2.9495381256	 0.13906
30.2765	42.2306	103.084	143.2007	267.2767	275.4261	415.0864	455.0777	496.6919	519.6815	600.2754	706.1356	734.7438	837.5691	893.5875	902.2456	932.5743	996.814	1006.9748	1058.5559	1083.4164	1139.6863	1182.338	1188.956	1221.121	1284.3051	1330.0515	1341.7491	1416.0331	1424.9918	1465.0411	1498.3481	1683.6557	1825.5648	1835.773	2890.2563	2995.2983	3018.3124	3042.5283	3104.2292	3237.8213	3674.5653
O=CCC1=CC(=O)NC1	O=CCC1=CC(=O)NC1	
InChI=1S/C6H7NO2/c8-2-1-5-3-6(9)7-4-5/h2-3H,1,4H2,(H,7,9)	InChI=1S/C6H7NO2/c8-2-1-5-3-6(9)7-4-5/h2-3H,1,4H2,(H,7,9)
