19
gdb 69770	3.13908	1.62366	1.44513	0.5738	73.23	-0.2422	0.0643	0.3065	979.7307	0.160615	-423.003169	-422.995933	-422.994989	-423.03435	29.788	
C	-0.0426894204	 1.5089566218	 0.0509894843	-0.471119
C	-0.0330953087	 0.0008189349	 0.0861304547	 0.415267
C	-1.2561938409	-0.717591943	-0.4882878704	-0.28859
C	-1.4532308641	-2.0815956405	 0.1899952447	 0.085558
C	-0.1672402471	-2.9362696293	 0.2067295409	-0.249949
C	 0.1020051693	-2.1020347644	 1.4715175714	 0.06211
O	-1.336397644	-1.8976648456	 1.6336966436	-0.300722
C	 0.7127048184	-0.7475620946	 1.1126562319	-0.028956
O	 1.2392742447	-0.6039274869	-0.2163421888	-0.291576
H	 0.8921602553	 1.9072168029	 0.4531966308	 0.127768
H	-0.1536476293	 1.8712549331	-0.9774250592	 0.124647
H	-0.8767262146	 1.9060592568	 0.6386999256	 0.127167
H	-2.1435695768	-0.1038753262	-0.2984748927	 0.110232
H	-1.1596151626	-0.8275345835	-1.5754965568	 0.109589
H	-2.4000672139	-2.5511832943	-0.0889495759	 0.076931
H	-0.3808115961	-3.976853716	 0.4539278354	 0.106199
H	 0.5325137342	-2.855428352	-0.622660339	 0.123218
H	 0.552596852	-2.5664693055	 2.351154015	 0.074292
H	 1.2703208147	-0.2168111076	 1.8825439044	 0.087933
171.6474	202.1211	245.9021	337.019	368.9639	407.649	445.0926	496.3833	588.4	600.9294	719.8277	792.9246	836.9284	858.7721	879.0037	902.7687	924.8379	933.974	965.1296	990.6148	1034.285	1051.8634	1074.41	1102.2565	1110.7324	1126.4102	1203.8952	1228.8245	1241.0407	1258.6031	1297.3988	1325.8993	1339.7916	1344.9274	1382.6605	1410.9597	1446.5813	1466.7021	1482.2712	1487.1956	1499.8625	3031.1347	3035.5858	3074.4964	3080.1477	3085.629	3097.0066	3097.3248	3122.5506	3126.4044	3165.9
CC12CC3CC(O3)C1O2	C[C@]12C[C@H]3C[C@H](O3)[C@H]1O2	
InChI=1S/C7H10O2/c1-7-3-4-2-5(8-4)6(7)9-7/h4-6H,2-3H2,1H3	InChI=1S/C7H10O2/c1-7-3-4-2-5(8-4)6(7)9-7/h4-6H,2-3H2,1H3/t4-,5+,6-,7+/m1/s1
