20
gdb 92002	2.57745	1.41406	1.13639	3.5809	78.82	-0.2329	-0.0167	0.2162	1141.6374	0.172045	-403.145469	-403.137078	-403.136133	-403.178696	32.241	
C	 0.8108155499	 1.4335249005	-0.2792228318	-0.408039
C	 0.0832825174	 0.117969548	 0.0372286908	-0.021807
C	 0.1432531477	-0.8925845547	-1.1473542834	-0.222033
C	 1.2263407634	-1.8879158076	-0.7838758476	-0.027943
N	 2.4859933676	-1.2539029549	-0.3412256627	-0.332562
C	 1.526628668	-1.7703550464	 0.6621267861	-0.068801
C	 0.65273369	-0.6817821903	 1.2715066042	-0.068233
C	 1.4047763228	 0.1653548015	 2.273852322	 0.146387
O	 1.0061009521	 0.4280699357	 3.3816167404	-0.263508
H	 1.8576300358	 1.2572471064	-0.5345247358	 0.146809
H	 0.3285394255	 1.9241479764	-1.1313642473	 0.10901
H	 0.7676447458	 2.1309531669	 0.5642842191	 0.119007
H	-0.9594469923	 0.3650008741	 0.2565884184	 0.086034
H	-0.806590347	-1.4298996603	-1.2510579269	 0.100791
H	 0.3384791289	-0.3845060714	-2.0973416716	 0.106597
H	 1.2780525258	-2.8438793916	-1.2954258251	 0.088209
H	 3.2515407252	-1.9152690172	-0.4426460813	 0.234484
H	 1.8092864562	-2.62676255	 1.2659758802	 0.094647
H	-0.1757942931	-1.1530737336	 1.8107068063	 0.090122
H	 2.3932286004	 0.5275123382	 1.9183720462	 0.09083
69.7783	93.0969	197.6701	259.147	293.5948	334.1983	362.4054	419.4581	446.0528	475.2804	651.3284	731.3883	789.7341	805.0112	862.991	876.0799	911.9721	947.1761	955.4932	977.5389	1031.7956	1041.0601	1076.2325	1093.9023	1125.1597	1136.84	1140.2908	1173.5735	1228.4332	1253.8375	1266.2851	1284.9705	1311.9696	1334.9643	1370.0215	1376.8333	1405.8604	1423.1834	1432.2679	1484.5209	1501.0632	1515.1153	1820.2124	2903.0209	3034.5923	3036.0607	3051.0304	3065.6528	3081.5966	3094.3772	3136.3922	3155.8677	3166.9888	3505.7792
CC1CC2NC2C1C=O	C[C@H]1C[C@H]2N[C@H]2[C@H]1C=O	
InChI=1S/C7H11NO/c1-4-2-6-7(8-6)5(4)3-9/h3-8H,2H2,1H3	InChI=1S/C7H11NO/c1-4-2-6-7(8-6)5(4)3-9/h3-8H,2H2,1H3/t4-,5-,6+,7-/m0/s1
