12
gdb 133531	1.8746	1.60222	1.04685	1.9175	54.16	-0.2724	-0.0537	0.2187	1082.4517	0.070584	-566.960683	-566.951857	-566.950913	-566.995406	30.315	
F	-0.0056113838	 0.0397294488	 0.0048493758	-0.068977
C	-0.0224649061	 1.3793843707	-0.0107244797	 0.281111
F	 1.2462484058	 1.8036414155	-0.0536996419	-0.071426
F	-0.6311611243	 1.774165012	-1.1290628428	-0.06119
C	-0.7421244131	 1.903187887	 1.2392372704	-0.3896
C	-0.031427006	 1.3771146224	 2.507575504	 0.162092
O	-0.5786425717	 0.69617379	 3.3258169312	-0.22339
C	-0.7625896003	 3.3571295007	 1.2785230156	 0.300936
C	-0.7530235223	 4.5543961028	 1.368221076	-0.420584
H	-1.7537837908	 1.4860457834	 1.2329395384	 0.156427
H	 1.0218061464	 1.7076944517	 2.6033364112	 0.118011
H	-0.7568969539	 5.615219195	 1.4290727021	 0.21659
52.7697	66.5274	126.6525	165.2015	206.8299	322.3182	356.2764	428.9663	446.2758	488.5103	549.8906	567.4658	662.6355	669.0891	703.4506	860.8523	960.5385	1034.1386	1064.246	1151.8621	1214.5074	1254.9993	1257.6751	1343.3799	1411.0664	1848.5301	2244.649	2942.8882	3080.0137	3500.701
FC(F)(F)C(C=O)C#C	FC(F)(F)[C@@H](C=O)C#C	
InChI=1S/C5H3F3O/c1-2-4(3-9)5(6,7)8/h1,3-4H	InChI=1S/C5H3F3O/c1-2-4(3-9)5(6,7)8/h1,3-4H/t4-/m1/s1
