16
gdb 17368	3.94849	1.80751	1.47568	2.265	63.62	-0.2387	0.0233	0.262	861.8171	0.131518	-379.905741	-379.898303	-379.897359	-379.937873	27.883	
N	 0.3741005869	 0.3629486479	 0.914893418	-0.516053
C	-0.0790907305	 0.3574670918	-0.3693795403	 0.370482
O	 0.4346111585	 0.9863086935	-1.2744256152	-0.364048
C	-1.337277399	-0.4796809653	-0.5649179827	-0.048404
C	-1.5541477092	-1.2010494316	-1.9155283838	-0.26579
C	-1.5866631907	-2.4943863528	-1.1005706147	-0.011922
C	-0.3520561005	-2.6449201543	-0.314148898	-0.241894
N	-1.416543514	-1.7667576303	 0.2280561898	-0.167282
H	 1.2213845236	 0.8626875244	 1.1286688524	 0.260982
H	-0.0178230075	-0.264237803	 1.5977549614	 0.27433
H	-2.1948807424	 0.1410182994	-0.2877692144	 0.114805
H	-2.5059198166	-0.9466510167	-2.3827908759	 0.114187
H	-0.7553455896	-1.1075020578	-2.6541462634	 0.12753
H	-2.3114059371	-3.2938314367	-1.2115818504	 0.10129
H	-0.22908903	-3.5493097457	 0.2731619019	 0.123221
H	 0.5761084181	-2.2045713729	-0.6725196046	 0.128567
45.3767	154.9576	189.1189	291.3787	342.5897	399.5358	496.2613	525.1003	600.3936	682.1368	744.4092	763.3464	794.0827	820.3035	932.8686	969.0551	1001.4632	1049.4034	1056.2137	1082.8384	1099.5842	1111.8224	1131.1596	1154.9366	1225.5238	1255.099	1271.46	1304.5509	1363.7934	1384.7837	1491.7411	1507.0539	1609.9829	1798.8858	3061.7766	3080.5235	3106.9216	3135.0692	3170.1272	3201.8583	3592.3937	3729.6811
NC(=O)C1CC2CN12	NC(=O)[C@H]1C[C@H]2CN12	
InChI=1S/C5H8N2O/c6-5(8)4-1-3-2-7(3)4/h3-4H,1-2H2,(H2,6,8)	InChI=1S/C5H8N2O/c6-5(8)4-1-3-2-7(3)4/h3-4H,1-2H2,(H2,6,8)/t3-,4+,7?/m0/s1
