20
gdb 62992	2.39781	1.52579	1.2737	3.3371	78.75	-0.2384	-0.0293	0.2092	1097.5606	0.169086	-403.111158	-403.102156	-403.101212	-403.144427	34.283	
C	 0.0162494423	 1.5706563833	-0.0908508135	-0.455493
C	 0.0673153845	 0.044258054	-0.0244100672	 0.284369
C	-1.315685785	-0.5323531497	 0.2807838518	-0.444604
C	 0.7401810088	-0.6831452681	-1.1991679	-0.050506
C	 2.183892825	-0.4116757512	-1.3037962539	-0.252571
N	 1.7392349117	-1.4074589607	-0.3071037181	-0.132892
C	 1.1914155719	-0.6441109437	 0.8560781411	-0.114896
C	 2.1196341979	 0.2269535612	 1.6605596512	 0.156964
O	 3.2843229403	 0.4306914602	 1.4289229469	-0.25019
H	 0.9975883329	 2.0125090127	-0.2817112693	 0.127074
H	-0.6546865368	 1.889694835	-0.8962803368	 0.121435
H	-0.3674233182	 1.9949147464	 0.8437921602	 0.118016
H	-2.0405241564	-0.2182540332	-0.4790024791	 0.11845
H	-1.2962455866	-1.6265466277	 0.2955905415	 0.128814
H	-1.6810964181	-0.1834876133	 1.252827039	 0.117117
H	 0.1887835012	-1.2176457178	-1.9676060032	 0.093293
H	 2.7120448777	-0.8763269794	-2.1308485467	 0.124844
H	 2.6132652971	 0.5247525533	-0.9686256674	 0.134592
H	 0.7353499198	-1.3466437387	 1.5646193534	 0.101101
H	 1.6192714001	 0.6967036075	 2.5410771498	 0.075082
89.1096	148.4342	207.5027	217.9492	239.3837	258.4247	291.4152	345.4733	358.7061	440.6615	492.5424	596.0278	734.4602	735.8058	771.8863	800.9262	880.3158	935.2445	952.4467	989.9302	993.123	1005.2746	1038.9037	1057.5841	1102.9486	1109.9861	1141.1863	1182.2391	1207.7738	1221.7447	1253.2958	1272.242	1347.909	1367.1615	1406.3094	1424.3605	1427.5764	1484.0555	1485.4563	1501.3555	1508.1015	1515.9503	1823.8064	2844.3058	3024.8822	3031.7223	3035.5761	3089.5306	3094.7588	3104.6869	3118.0428	3135.0205	3151.1121	3225.3496
CC1(C)C2CN2C1C=O	CC1(C)[C@H]2CN2[C@H]1C=O	
InChI=1S/C7H11NO/c1-7(2)5-3-8(5)6(7)4-9/h4-6H,3H2,1-2H3	InChI=1S/C7H11NO/c1-7(2)5-3-8(5)6(7)4-9/h4-6H,3H2,1-2H3/t5-,6+,8?/m1/s1
