15
gdb 75853	3.213	1.35758	0.96584	1.8047	75.28	-0.2364	-0.0593	0.177	1138.7272	0.112687	-416.869188	-416.860829	-416.859885	-416.90244	29.855	
C	 0.0085278606	 1.4611018483	-0.0088284322	-0.360056
N	 0.0315773818	 0.0124683046	-0.0174141531	-0.16595
C	-1.1084155271	-0.7763721765	-0.1221025939	 0.401972
O	-2.23927494	-0.3617376286	-0.2168592812	-0.37113
C	-0.6221292048	-2.2331131905	-0.0911242721	-0.384623
C	 0.8664351515	-2.1113901609	 0.0383871692	-0.22448
C	 1.1761263474	-0.8031084958	 0.0750207067	 0.275964
C	 2.4680380299	-0.2219347273	 0.1907577405	 0.230028
N	 3.5139903597	 0.2652386152	 0.2845204736	-0.333504
H	 0.576079113	 1.8718977327	-0.8497102344	 0.147641
H	-1.0379005222	 1.7567037299	-0.0975903676	 0.173795
H	 0.4217071206	 1.8588822508	 0.9233671074	 0.147624
H	-1.0912238044	-2.7627274402	 0.7461300196	 0.162162
H	-0.9399719345	-2.7495116076	-1.004267636	 0.162168
H	 1.5730482184	-2.924055664	 0.0934050034	 0.138387
99.7744	123.4781	143.2847	165.6521	199.4766	302.5275	413.0433	450.2636	508.5453	557.7953	599.7326	659.0251	690.4173	731.0235	757.7719	944.9203	945.6391	985.417	1077.7488	1143.0604	1156.0832	1156.9145	1247.2181	1270.1318	1334.5894	1396.5803	1424.8744	1459.9328	1493.4309	1510.4225	1654.185	1828.9846	2348.7698	3038.5698	3047.952	3080.044	3099.3052	3151.6735	3265.6685
CN1C(=O)CC=C1C#N	CN1C(=O)CC=C1C#N	
InChI=1S/C6H6N2O/c1-8-5(4-7)2-3-6(8)9/h2H,3H2,1H3	InChI=1S/C6H6N2O/c1-8-5(4-7)2-3-6(8)9/h2H,3H2,1H3
