19
gdb 112577	3.70985	0.92571	0.89131	6.0871	76.53	-0.241	0.0256	0.2666	1360.896	0.158451	-419.193651	-419.184097	-419.183152	-419.228074	35.073	
C	 0.522303777	 1.1932079642	 0.1191274127	-0.451118
C	-0.0339582519	-0.2303136482	-0.000806838	 0.179847
C	 0.4121206685	-1.0224622946	-1.2778474025	-0.323138
C	 1.2714152249	-1.8991635159	-0.3314946482	 0.078377
C	 2.7739197843	-1.6898029596	-0.4404771931	-0.099631
O	 3.3578011924	-2.2612869675	 0.7190396107	-0.418359
N	 0.6178948954	-1.2654651896	 0.8358514755	-0.335719
C	-1.4938866428	-0.1955443446	 0.2037431934	 0.270905
N	-2.6405364834	-0.156054578	 0.3438612685	-0.345081
H	 1.5961117904	 1.1996147594	-0.0853910208	 0.123374
H	 0.0275914016	 1.8653902437	-0.5886918587	 0.140703
H	 0.356807934	 1.5843178441	 1.1279187844	 0.140372
H	-0.3983177365	-1.5522419284	-1.7768051961	 0.133896
H	 0.9595575932	-0.4245465953	-2.0094428223	 0.113761
H	 1.0694284966	-2.9749998917	-0.3763230494	 0.092621
H	 3.1385311282	-2.1699044485	-1.3634721398	 0.094335
H	 3.0058556073	-0.6147539108	-0.5129838577	 0.083014
H	 4.3098083839	-2.1321005644	 0.6796744794	 0.293423
H	 1.2416569469	-0.9304350342	 1.5622965422	 0.228417
71.4838	103.3619	137.3616	194.3491	232.6241	256.4257	265.1449	330.0101	334.451	396.2509	486.6351	555.7163	581.1757	603.4892	702.4118	801.0517	873.6607	906.5293	931.5935	964.2794	996.2775	1017.5777	1087.6867	1105.6592	1134.8214	1170.8609	1188.093	1223.7821	1240.4495	1263.4625	1267.5685	1307.1481	1350.9163	1400.6569	1408.4093	1457.8082	1480.231	1486.566	1492.3719	1514.3641	2352.0834	2961.6951	2991.368	3039.5598	3045.9428	3081.2187	3113.3102	3123.2802	3148.9912	3538.1969	3833.4496
CC1(CC(CO)N1)C#N	C[C@]1(C[C@@H](CO)N1)C#N	
InChI=1S/C6H10N2O/c1-6(4-7)2-5(3-9)8-6/h5,8-9H,2-3H2,1H3	InChI=1S/C6H10N2O/c1-6(4-7)2-5(3-9)8-6/h5,8-9H,2-3H2,1H3/t5-,6-/m0/s1
