18
gdb 56764	2.9003	1.27107	1.03398	3.3153	75.2	-0.2468	0.0292	0.2759	1178.2019	0.147033	-401.917567	-401.908947	-401.908003	-401.951255	31.9	
C	-0.0434864216	 1.6179673745	 0.2523772096	-0.390896
C	-0.0140787466	 0.0887610866	 0.0367831206	-0.256808
C	 0.7930887534	-0.5643645572	 1.0738082236	 0.274421
N	 1.4140098014	-1.0796497225	 1.9013090231	-0.330126
C	-1.4065436462	-0.5043614712	-0.0137945893	 0.285197
C	-2.2373528456	-0.9050474516	 1.1910997654	-0.353948
C	-1.9458689311	-1.9098465433	 0.1185224411	 0.049502
O	-2.8444715329	-1.755729289	-0.9825457364	-0.28188
C	-2.3297972044	-0.4223235872	-1.2309696554	-0.140536
H	 0.9671920365	 2.0330380666	 0.2546539494	 0.1383
H	-0.6110029843	 2.0914859323	-0.5536143793	 0.129732
H	-0.5234723731	 1.8616277585	 1.2033364808	 0.143842
H	 0.4823070371	-0.1167311055	-0.9217100833	 0.129111
H	-1.6686352453	-1.0342726561	 2.1070562973	 0.141733
H	-3.2506181725	-0.5330382464	 1.3161543819	 0.118922
H	-1.4699127616	-2.8723287937	 0.2647800022	 0.123676
H	-3.1179824001	 0.3395813779	-1.2277679136	 0.111361
H	-1.7877546331	-0.3915855226	-2.1844972377	 0.108397
51.1119	121.095	175.4161	204.996	233.745	302.9027	335.0372	386.4759	453.8447	505.3023	571.5712	693.2339	759.9951	837.7463	865.5417	904.0009	935.1641	988.8741	993.9819	1006.9234	1036.955	1056.5853	1078.9264	1091.1703	1106.9188	1131.8932	1161.0653	1208.1223	1266.6782	1310.1954	1322.0396	1353.7271	1400.7969	1412.2177	1482.3471	1493.4199	1498.7871	1515.8732	2357.5825	3014.4215	3017.8968	3049.801	3066.8503	3116.5835	3126.0585	3134.7412	3188.7469	3212.6439
CC(C#N)C12CC1OC2	C[C@@H](C#N)[C@]12C[C@H]1OC2	
InChI=1S/C7H9NO/c1-5(3-8)7-2-6(7)9-4-7/h5-6H,2,4H2,1H3	InChI=1S/C7H9NO/c1-5(3-8)7-2-6(7)9-4-7/h5-6H,2,4H2,1H3/t5-,6+,7+/m0/s1
