18
gdb 83572	2.67163	1.74803	1.68082	1.887	69.89	-0.2527	0.0158	0.2685	922.0662	0.150712	-439.108687	-439.101559	-439.100614	-439.139953	28.311	
C	-0.0256214685	 1.5419624142	 0.0036741143	-0.428517
C	 0.027545139	 0.014798321	 0.0132017191	-0.04338
C	 0.9547042057	-0.5662999272	-1.0588611547	 0.223219
O	 2.2530111785	-0.3284203179	-0.6070641023	-0.261082
C	 2.23147548	-0.3067469064	 0.8424031406	-0.086538
C	 0.7741226319	-0.6233960326	 1.204187773	-0.025508
N	 0.5666471576	-2.0825048035	 1.1845114295	-0.271814
C	 0.5447055272	-2.6059781167	 0.0300031593	 0.118233
O	 0.7077735824	-1.9930911844	-1.1694812348	-0.244392
H	 0.9733310276	 1.9864389586	-0.0063102531	 0.135119
H	-0.5567694498	 1.904022839	-0.8826609237	 0.122635
H	-0.5565109267	 1.9165383158	 0.8844211648	 0.12352
H	-0.9804543639	-0.3990124592	-0.0740783549	 0.094973
H	 0.8535574141	-0.1838907096	-2.0744401748	 0.099498
H	 2.9232044035	-1.0620959277	 1.2230969173	 0.124707
H	 2.5504660235	 0.6828102928	 1.1894310346	 0.106516
H	 0.4843956273	-0.2315520506	 2.1807951026	 0.082995
H	 0.3774797606	-3.6726608454	-0.1030294267	 0.129818
173.396	184.8716	224.502	269.8127	335.9289	423.757	481.7118	526.6454	608.0959	740.2711	773.1462	813.9941	853.1417	896.4622	921.8295	929.8841	967.5641	974.8455	992.674	1044.1519	1079.7995	1095.1314	1101.8135	1146.885	1165.6866	1204.5112	1242.8326	1296.0808	1318.2138	1323.0582	1352.2892	1385.0425	1392.1191	1403.834	1416.0864	1495.9113	1501.2686	1518.4299	1707.6021	3035.7746	3040.0583	3078.136	3096.363	3102.1816	3103.6075	3119.0653	3128.4889	3167.939
CC1C2OCC1N=CO2	C[C@H]1[C@H]2OC[C@@H]1N=CO2	
InChI=1S/C6H9NO2/c1-4-5-2-8-6(4)9-3-7-5/h3-6H,2H2,1H3	InChI=1S/C6H9NO2/c1-4-5-2-8-6(4)9-3-7-5/h3-6H,2H2,1H3/t4-,5+,6+/m1/s1
