22
gdb 122553	5.10929	0.70313	0.67512	1.9286	83.8	-0.2268	0.0807	0.3075	1767.025	0.193668	-404.293702	-404.284212	-404.283268	-404.329106	34.819	
C	 0.1571279547	 1.4384163141	 0.177922926	-0.382896
C	-0.1582426022	-0.0190366225	-0.1663216769	-0.181216
C	 0.7840621422	-0.5870113699	-1.2186659466	-0.038033
O	 0.4180464208	-1.9281377194	-1.4775880501	-0.253338
C	 1.1975014068	-2.5454166804	-2.4562429495	 0.179024
C	 2.6696748444	-3.018697447	-2.1203722056	-0.267712
C	 2.2391336223	-4.4262184787	-2.5429156932	-0.04597
N	 1.178715443	-4.8141050522	-1.586681724	-0.319238
C	 0.8302535806	-3.9900695311	-2.7708791767	-0.101621
H	 1.1739457593	 1.5456436168	 0.5718709699	 0.115489
H	 0.0741771442	 2.0848453538	-0.7030287307	 0.114287
H	-0.5328378542	 1.8215017831	 0.935300215	 0.116503
H	-0.0935549131	-0.6456741467	 0.7303008819	 0.110756
H	-1.1859668265	-0.1096995814	-0.5362960556	 0.105193
H	 0.7281081072	 0.0099445856	-2.146684487	 0.078579
H	 1.827590929	-0.5328471015	-0.8654784199	 0.087098
H	 1.2083831878	-1.946096908	-3.3806346344	 0.063869
H	 3.4237850274	-2.5562681248	-2.7600616954	 0.09841
H	 2.9583297183	-2.9382936039	-1.0700966029	 0.111794
H	 2.8199248323	-5.1704544768	-3.0726035673	 0.092649
H	 0.900473418	-5.7686940495	-1.8148970849	 0.226895
H	 0.0917426477	-4.3344910196	-3.4844299422	 0.089478
52.2301	66.9468	96.8467	138.0508	198.5466	230.7985	301.2599	338.5072	419.0861	464.3056	600.7275	681.7279	764.611	798.8959	829.0096	853.8267	897.5976	902.961	910.1103	958.4114	993.5539	1015.0147	1029.32	1049.1697	1072.2549	1098.7731	1127.9704	1150.5346	1155.6378	1175.1271	1193.0234	1218.262	1258.0406	1268.6786	1299.0697	1316.0312	1332.4254	1336.3637	1374.3204	1392.9384	1411.7318	1446.2209	1470.6001	1491.6391	1500.4566	1507.1976	1526.5757	2941.8644	2972.8579	2977.0305	3030.7397	3040.4636	3070.0172	3072.4681	3099.3184	3107.0262	3131.5041	3184.991	3200.2738	3466.5877
CCCOC1CC2NC12	CCCO[C@H]1C[C@H]2N[C@@H]12	
InChI=1S/C7H13NO/c1-2-3-9-6-4-5-7(6)8-5/h5-8H,2-4H2,1H3	InChI=1S/C7H13NO/c1-2-3-9-6-4-5-7(6)8-5/h5-8H,2-4H2,1H3/t5-,6+,7-/m1/s1
