19
gdb 114783	3.44141	1.42938	1.37449	0.8548	74.34	-0.2508	0.0872	0.338	1029.4677	0.160762	-422.992485	-422.985049	-422.984105	-423.024404	29.368	
C	-0.0007021741	 1.4264781309	 0.0001991611	-0.241158
O	-0.0470818681	 0.0113281277	-0.024791042	-0.237097
C	 0.667737357	-0.5518589669	-1.0902473815	 0.20463
O	 2.0762731492	-0.3583395987	-0.9678932809	-0.27619
C	 2.6299294682	-1.5940764651	-0.5258377132	 0.069557
C	 2.042166384	-2.0415323608	 0.8521705684	-0.240224
C	 1.0102351701	-2.8588350307	 0.0732602897	-0.069368
C	 1.8120330184	-2.7197721802	-1.213394135	-0.092232
C	 0.4736876033	-2.0586198789	-1.1048016826	-0.093505
H	 1.0228905446	 1.7925818145	 0.1428327576	 0.125558
H	-0.400978702	 1.8558804024	-0.9312377516	 0.103271
H	-0.6233368744	 1.7527287576	 0.836189952	 0.123856
H	 0.3610358944	-0.0675317331	-2.0308026284	 0.067015
H	 3.7119053244	-1.5475651355	-0.6367170761	 0.081794
H	 2.7406731063	-2.6921090248	 1.3865876931	 0.095084
H	 1.688427192	-1.243326329	 1.5079413064	 0.109274
H	 0.4665712124	-3.7220150878	 0.4380721025	 0.08664
H	 2.1183285553	-3.4357614271	-1.9637829263	 0.088998
H	-0.3799273909	-2.4693179945	-1.6291178531	 0.094096
106.8959	148.1618	181.8708	241.6567	360.4402	427.878	502.7153	560.9394	668.7152	713.4928	768.6657	799.538	841.8498	856.6749	903.0829	933.4847	960.911	982.41	989.3222	1016.2115	1018.3251	1051.1811	1066.8403	1110.9104	1117.6445	1138.8679	1162.9661	1180.8732	1203.6606	1221.9007	1231.1108	1284.4337	1295.5052	1340.925	1373.1458	1394.3428	1403.5253	1475.6246	1484.0376	1485.0567	1513.4879	2977.7259	2988.432	3056.0796	3061.2742	3118.9905	3122.4875	3133.0086	3182.3148	3196.4741	3210.3581
COC1OC2CC3C2C13	CO[C@H]1O[C@H]2C[C@@H]3[C@H]2[C@H]13	
InChI=1S/C7H10O2/c1-8-7-6-3-2-4(9-7)5(3)6/h3-7H,2H2,1H3	InChI=1S/C7H10O2/c1-8-7-6-3-2-4(9-7)5(3)6/h3-7H,2H2,1H3/t3-,4+,5-,6-,7+/m1/s1
