20
gdb 72195	3.31423	1.79149	1.54738	1.5783	80.62	-0.2214	0.0762	0.2976	943.2982	0.173892	-365.973576	-365.9668	-365.965856	-366.004186	28.957	
C	 0.0170774975	 1.4618460352	 0.007302105	-0.478401
C	-0.0151807204	-0.0463648951	 0.0019810212	 0.333695
C	-1.1455899624	-0.7504859151	-0.7273152271	-0.276575
C	-0.7268951046	-2.222063897	-0.6937311489	-0.056955
C	-0.9015634003	-2.8152383562	 0.7365868039	-0.245243
C	 0.5156328274	-2.3017508036	 1.058545994	-0.04461
C	 0.6818228144	-0.7711304741	 1.1031154385	-0.098018
N	 1.2800927175	-0.7053440924	-0.2983583169	-0.190565
C	 0.8323545794	-2.148267893	-0.4466419096	 0.009377
H	 0.9368361381	 1.8313448619	 0.4681744764	 0.127914
H	-0.0263018389	 1.8506536805	-1.0158824705	 0.120819
H	-0.8346698381	 1.869226217	 0.562866004	 0.115011
H	-2.1236237097	-0.5834608295	-0.2631239299	 0.100028
H	-1.1952030506	-0.3673407351	-1.7542816356	 0.099521
H	-1.1005449464	-2.8111491119	-1.5316200008	 0.067947
H	-1.7402446536	-2.4413424617	 1.3327196637	 0.090715
H	-0.9304039817	-3.9087498673	 0.726682767	 0.097956
H	 1.1623373697	-2.8427104759	 1.7492398526	 0.070956
H	 1.1350871445	-0.2268073227	 1.9272402919	 0.083707
H	 1.510218058	-2.7841215338	-1.0120763788	 0.072722
195.0545	212.1801	299.3452	349.8279	397.2247	476.6787	564.7873	620.3717	691.4869	713.2236	757.0938	819.6144	838.3535	859.9193	867.8089	907.2904	925.6707	954.1803	975.6203	996.6016	1016.6064	1026.2836	1049.4404	1075.1151	1088.2401	1104.1953	1138.6388	1184.6628	1208.4233	1224.0236	1243.4238	1254.5221	1266.1673	1277.6951	1316.5135	1327.8416	1354.1521	1408.722	1416.0863	1480.9991	1488.6723	1491.717	1497.986	3025.6234	3032.8386	3041.4816	3072.3471	3093.4691	3095.3038	3103.8836	3107.8811	3116.5455	3135.2703	3142.5272
CC12CC3CC4C1N2C34	C[C@]12C[C@@H]3C[C@@H]4[C@H]1N2[C@H]34	
InChI=1S/C8H11N/c1-8-3-4-2-5-6(4)9(8)7(5)8/h4-7H,2-3H2,1H3	InChI=1S/C8H11N/c1-8-3-4-2-5-6(4)9(8)7(5)8/h4-7H,2-3H2,1H3/t4-,5-,6+,7+,8-,9?/m0/s1
