21
gdb 37006	3.12982	1.20023	1.18711	1.5452	83.45	-0.2191	0.0775	0.2966	1190.458	0.182556	-387.043056	-387.034561	-387.033617	-387.076666	32.51	
C	-0.1921637976	 1.6941917103	 0.1208701347	-0.444263
C	 1.1730900177	 1.0420675714	 0.050982878	 0.27831
C	 2.164252747	 1.0276089078	-1.1192945108	-0.284429
C	 3.2897366467	 0.6918938234	-0.0945629872	-0.198601
C	 2.3166712069	 1.0375314491	 1.0730905597	-0.297991
C	-0.0587308134	 0.2033332318	 0.0965894202	 0.410912
C	-0.511309103	-0.8549502905	 1.0970324245	-0.360655
C	-0.9364972166	-1.633030305	-0.1669173673	-0.068353
O	-0.4730972479	-0.5713548096	-1.0336855263	-0.305089
H	-0.4959925822	 2.1710428702	 1.0495106816	 0.107867
H	-0.5653609226	 2.1717846907	-0.7808371622	 0.11934
H	 1.9627598512	 0.2881294286	-1.8979962395	 0.113967
H	 2.2924367118	 2.0086164734	-1.58720989	 0.097999
H	 3.5657319658	-0.3653972462	-0.1092687135	 0.102816
H	 4.2026008394	 1.2877244534	-0.1583324344	 0.097353
H	 2.5038650726	 2.0274242462	 1.5019073335	 0.10047
H	 2.2485387191	 0.3158128338	 1.8933378269	 0.093138
H	 0.2854927534	-1.3152000147	 1.6858658645	 0.112652
H	-1.3251731261	-0.5576647738	 1.761137586	 0.113707
H	-0.4021730747	-2.571494138	-0.353399449	 0.104836
H	-2.0131801072	-1.8032980723	-0.2787773295	 0.106016
65.5696	91.7949	149.6748	156.9137	231.3398	369.4066	408.4435	470.2579	535.4249	582.7243	717.4659	783.9855	791.3128	846.8721	859.4963	874.8136	891.7182	897.6623	936.6247	952.2624	972.3491	1013.9851	1030.5616	1049.0817	1103.0917	1142.4079	1143.5576	1164.4074	1171.392	1203.8945	1212.4605	1228.6008	1234.0834	1250.4013	1252.9588	1279.4464	1282.2776	1353.6694	1412.6774	1476.4334	1477.967	1485.531	1491.2448	1505.6188	1532.5284	3025.6554	3038.0922	3050.6311	3065.29	3067.5117	3069.9274	3081.4534	3102.7966	3106.73	3121.7453	3122.3464	3196.0767
C1C2(CCC2)C11CCO1	C1C2(CCC2)[C@]21CCO2	
InChI=1S/C8H12O/c1-2-7(3-1)6-8(7)4-5-9-8/h1-6H2	InChI=1S/C8H12O/c1-2-7(3-1)6-8(7)4-5-9-8/h1-6H2/t8-/m1/s1
