16
gdb 116721	3.60094	0.90118	0.76704	1.928	69.21	-0.2503	0.0006	0.2509	1455.4175	0.12293	-475.031281	-475.02218	-475.021235	-475.066846	30.585	
C	 0.1325378422	 0.9628922902	 0.5756588164	-0.254001
O	-0.4713109679	 0.2114829764	-0.4757843111	-0.188323
C	-1.273664371	-0.7886091011	-0.084555114	 0.129778
N	-1.8315916418	-1.5178378101	-0.9539188071	-0.253219
C	-2.6943841969	-2.575632071	-0.5079602699	-0.147589
C	-2.4089949857	-3.9951905067	-1.0475984186	-0.085028
O	-2.3284162808	-4.5083365649	 0.3240435871	-0.235813
C	-2.4845810721	-3.2605141133	 0.8628041779	 0.428721
O	-2.416878002	-2.9456629878	 2.0099338747	-0.331257
H	 0.7184002877	 1.7452370269	 0.0927751022	 0.150023
H	-0.6235434014	 1.4240446293	 1.2212008841	 0.135197
H	 0.796218312	 0.3362862581	 1.1821593633	 0.136733
H	-1.3863393046	-0.9010612246	 1.000394372	 0.123412
H	-3.7434444304	-2.2908588768	-0.6504963373	 0.126229
H	-3.2077040078	-4.4916077924	-1.600353689	 0.127765
H	-1.4491644794	-4.0958373521	-1.5559397307	 0.137371
42.603	64.2231	105.023	141.8335	165.5839	227.7859	256.4264	388.3913	432.4574	492.0337	566.5784	742.0481	754.8576	863.3878	933.1122	964.6813	1016.4018	1057.8044	1083.6734	1118.2196	1129.0497	1157.2264	1177.6228	1191.777	1217.8506	1285.4826	1323.6312	1359.3588	1426.0529	1488.4783	1495.546	1499.7376	1513.4072	1754.9723	1915.6701	3022.7985	3042.5913	3062.7622	3083.8301	3091.0274	3151.2538	3152.672
COC=NC1COC1=O	COC=N[C@H]1COC1=O	
InChI=1S/C5H7NO3/c1-8-3-6-4-2-9-5(4)7/h3-4H,2H2,1H3	InChI=1S/C5H7NO3/c1-8-3-6-4-2-9-5(4)7/h3-4H,2H2,1H3/t4-/m0/s1
