16
gdb 90797	3.0223	1.63652	1.39513	4.2486	67.28	-0.2429	-0.0055	0.2374	940.5	0.125516	-437.869847	-437.862773	-437.861829	-437.901318	27.845	
O	-0.0395102815	 1.4128165941	-0.0346632429	-0.43823
C	 0.0158127613	-0.0036589267	-0.0073683574	 0.129219
C	 0.6421244467	-0.5538770743	 1.3057173556	-0.286757
C	-0.5601957443	-0.8442138392	 2.198136845	-0.012801
C	-1.8076719383	-0.4227228977	 1.5652648376	-0.034554
C	-1.4333352694	-0.4994157689	 0.0677026412	-0.200744
C	-1.4321724193	-2.0145796375	 0.3132040739	 0.409425
O	-1.4785958448	-2.9870982914	-0.373448946	-0.312017
N	-1.527615489	-1.9269734828	 1.7584112722	-0.209429
H	 0.8599901362	 1.7493168385	-0.1012707309	 0.286996
H	 0.5222890292	-0.3977956178	-0.8983642053	 0.088677
H	 1.2451620801	-1.451496613	 1.1340063334	 0.126384
H	 1.2867546786	 0.2010876982	 1.7654954017	 0.109012
H	-0.4471430956	-0.8476859964	 3.2761146189	 0.116453
H	-2.6757713613	 0.0343434782	 2.0179496141	 0.120114
H	-2.0921502786	-0.1038049633	-0.702348561	 0.108251
125.6819	136.4066	286.559	320.4234	348.7007	414.3453	501.7729	591.4366	681.5635	712.7177	768.2642	811.2496	825.1051	845.8117	874.7675	906.4109	953.6902	972.3068	1009.6383	1037.8976	1051.0087	1085.1062	1103.6635	1160.8943	1180.6502	1216.8609	1238.955	1267.084	1274.7939	1290.09	1353.8642	1394.3306	1423.7755	1473.5058	1909.6024	3018.7778	3053.1201	3098.1646	3149.9799	3183.9216	3226.8833	3815.3386
OC1CC2C3C1C(=O)N23	O[C@H]1C[C@H]2[C@H]3[C@@H]1C(=O)N23	
InChI=1S/C6H7NO2/c8-3-1-2-5-4(3)6(9)7(2)5/h2-5,8H,1H2	InChI=1S/C6H7NO2/c8-3-1-2-5-4(3)6(9)7(2)5/h2-5,8H,1H2/t2-,3-,4+,5-,7?/m0/s1
