22
gdb 110532	3.50641	1.17803	1.11811	0.699	86.82	-0.2019	0.0863	0.2883	1240.7493	0.194254	-367.150624	-367.141894	-367.14095	-367.183852	34.089	
C	-0.1565594166	 1.5112788887	-0.0174958675	-0.380144
C	 0.079896586	 0.0075063284	 0.1041960887	-0.126275
N	 0.6355526295	-0.5375548332	-1.1316649285	-0.077673
C	 0.8358068315	-1.9750932955	-1.2455294207	-0.073937
C	-0.4680392313	-2.6399754787	-1.7818423215	-0.138565
C	-1.4603605163	-1.5028772269	-2.0015165261	-0.251042
C	-0.2108110747	-0.6392277728	-2.3582185106	-0.077005
C	 0.5478069243	-1.9886160453	-2.709498562	 0.331308
C	 1.3107430795	-2.4517668523	-3.9047070531	-0.531504
H	 0.7659078451	 2.0223513418	-0.3082190141	 0.12331
H	-0.9176856478	 1.7330328608	-0.7734584506	 0.115688
H	-0.5031452533	 1.9282056967	 0.9328302108	 0.110693
H	 0.8182374312	-0.188296227	 0.8922195974	 0.096673
H	-0.8495098078	-0.4944901488	 0.4217587393	 0.082449
H	 1.5819451195	-2.5193397369	-0.6774393364	 0.086944
H	-0.6657996449	-3.6976676755	-1.6553175258	 0.078737
H	-2.0638013044	-1.6767459654	-2.8967120976	 0.09823
H	-2.1114937462	-1.1749995515	-1.1842249459	 0.089212
H	-0.2940028107	 0.2538043814	-2.9763481316	 0.072825
H	 2.1474801357	-1.7806481168	-4.1291713576	 0.127852
H	 1.7229275593	-3.4522560875	-3.7332823388	 0.12251
H	 0.6754111623	-2.5058793236	-4.7964635778	 0.119714
74.6054	136.2087	183.7302	208.847	228.5561	290.0166	318.2043	383.6725	498.5329	565.1427	629.9282	672.0747	739.6822	783.3123	811.5018	861.8195	875.406	904.4609	924.1607	946.5103	970.2825	999.4928	1014.4647	1042.4382	1069.3374	1110.004	1120.1999	1133.5187	1139.2144	1166.9991	1174.2164	1201.5697	1223.5077	1240.9535	1264.5129	1301.6054	1325.1542	1385.9882	1409.0039	1412.0567	1466.6308	1484.5852	1488.9261	1491.1713	1497.9803	1503.6647	1522.2297	2961.0813	3021.3102	3034.9394	3037.8742	3042.0566	3081.1378	3091.451	3096.04	3102.5718	3116.5257	3121.7005	3174.9869	3189.8614
CCN1C2C3CC1C23C	CCN1[C@H]2[C@H]3C[C@@H]1[C@@]23C	
InChI=1S/C8H13N/c1-3-9-6-4-5-7(9)8(5,6)2/h5-7H,3-4H2,1-2H3	InChI=1S/C8H13N/c1-3-9-6-4-5-7(9)8(5,6)2/h5-7H,3-4H2,1-2H3/t5-,6-,7+,8+/m1/s1
