20
gdb 52685	3.49236	0.80692	0.69673	2.0653	85.81	-0.2236	0.0345	0.2581	1670.0423	0.167831	-403.082269	-403.071419	-403.070475	-403.120731	37.532	
C	 2.5653913414	-5.9506311653	 2.7894155353	-0.50009
C	 1.6575073211	-5.3481949029	 1.8242147327	 0.110027
C	 0.8938448234	-4.8641107867	 1.0280666496	 0.034492
C	 0.0019823458	-4.2164314952	 0.0623768032	-0.097589
O	-0.6640398153	-3.0828359783	 0.6242366109	-0.420251
C	 0.7752407459	-3.8351915812	-1.1942467412	 0.006458
C	 0.8324202129	-4.7597059843	-2.3628936375	-0.249528
N	 0.1153505729	-3.4949236898	-2.4481299886	-0.08429
C	-1.3383839764	-3.5265319275	-2.5419579781	-0.3105
H	 3.1111281929	-6.7906715992	 2.3459152169	 0.152308
H	 3.3064080572	-5.226150429	 3.1445277577	 0.14979
H	 2.0243184959	-6.3294495954	 3.6633118037	 0.152292
H	-0.8073974797	-4.9058298466	-0.1990522109	 0.112656
H	 0.0134245468	-2.5122148613	 1.004446502	 0.282022
H	 1.6461916587	-3.2157137621	-0.9782658646	 0.087987
H	 1.7359890427	-4.8485243386	-2.9602855875	 0.114869
H	 0.2440388469	-5.6754090782	-2.292607503	 0.105261
H	-1.8064085921	-4.4226801427	-2.1054219753	 0.098912
H	-1.7497577426	-2.6485886329	-2.0373645925	 0.137983
H	-1.6179639584	-3.4884260127	-3.5994396528	 0.117191
8.3441	51.4823	80.5921	136.9771	161.1551	217.8694	232.0213	260.2451	307.4184	337.4379	368.8455	422.7086	484.7113	508.2638	584.4154	751.8732	815.5823	868.0109	914.4477	1022.671	1031.7803	1052.3775	1053.838	1071.1578	1114.3061	1126.2115	1149.3559	1169.5827	1174.7414	1203.0961	1251.8533	1286.1267	1337.4351	1410.2863	1415.1818	1419.8739	1450.5977	1476.6168	1478.4116	1486.3567	1504.456	1513.8452	2365.3945	2978.0842	3028.7927	3058.647	3071.5053	3080.4711	3090.3452	3090.959	3100.1107	3119.3231	3170.9812	3802.2873
CC#CC(O)C1CN1C	CC#C[C@@H](O)[C@H]1CN1C	
InChI=1S/C7H11NO/c1-3-4-7(9)6-5-8(6)2/h6-7,9H,5H2,1-2H3	InChI=1S/C7H11NO/c1-3-4-7(9)6-5-8(6)2/h6-7,9H,5H2,1-2H3/t6-,7-,8?/m1/s1
