20
gdb 93562	3.45582	1.01301	0.81491	3.5627	83.64	-0.2403	-0.0219	0.2184	1426.5619	0.171395	-403.208765	-403.199382	-403.198438	-403.243211	34.839	
C	-0.088332483	 1.5698350717	-0.0085439775	-0.39761
C	 0.0393904972	 0.0423502575	 0.0180349075	-0.015211
C	 0.7881971707	-0.5544365374	-1.2054026724	-0.224709
C	 1.5830095454	-1.7687843463	-0.6634940937	-0.348975
C	 1.6767831891	-1.4756073883	 0.8235501149	 0.229858
C	 0.8352415717	-0.5000222621	 1.1787195056	-0.131735
C	 2.5367101698	-2.1905543145	 1.8069725625	 0.308714
N	 3.2817286689	-3.2195655664	 1.2886190447	-0.540455
O	 2.6001627018	-1.8797590578	 2.9841860443	-0.367337
H	 0.8990304672	 2.0430939603	-0.0402628946	 0.119271
H	-0.6496275647	 1.8996646689	-0.8890408406	 0.114945
H	-0.6109280887	 1.9406855807	 0.8791657334	 0.117848
H	-0.9779919343	-0.3773188453	 0.0724434774	 0.085029
H	 0.117318929	-0.8160971294	-2.0277096742	 0.098819
H	 1.4907272331	 0.1950206798	-1.5870282986	 0.105853
H	 1.0469394695	-2.7127746156	-0.8417456577	 0.105468
H	 2.5623125912	-1.8688669671	-1.1458761197	 0.105923
H	 0.7180390163	-0.1586093446	 2.2010395548	 0.119339
H	 3.1054675894	-3.591020088	 0.3716913166	 0.256963
H	 3.7864379605	-3.793722396	 1.9442797272	 0.258003
58.1326	114.4582	130.4273	173.8606	232.7845	240.3534	306.017	358.0636	384.6153	482.5383	505.6473	567.767	604.3785	645.0416	761.0276	818.0298	851.614	896.2067	929.1125	932.2204	968.8752	998.6571	1029.6956	1086.2679	1100.63	1116.9936	1136.9793	1202.1117	1232.8203	1264.6777	1308.4779	1319.597	1329.5375	1364.6866	1366.8797	1409.6332	1486.4992	1496.7375	1499.1027	1504.799	1615.0269	1691.9742	1774.7528	2971.7292	2995.9526	3029.6967	3039.6244	3053.9832	3096.9774	3100.729	3102.732	3207.4743	3601.4418	3735.748
CC1CCC(=C1)C(N)=O	C[C@H]1CCC(=C1)C(=O)N	
InChI=1S/C7H11NO/c1-5-2-3-6(4-5)7(8)9/h4-5H,2-3H2,1H3,(H2,8,9)	InChI=1S/C7H11NO/c1-5-2-3-6(4-5)7(8)9/h4-5H,2-3H2,1H3,(H2,8,9)/t5-/m0/s1
