22
gdb 96500	2.28691	1.53649	1.0334	3.2191	83.64	-0.2499	0.0349	0.2848	1227.8832	0.196345	-404.377346	-404.368563	-404.367619	-404.410667	34.272	
C	-0.2195726424	 1.5078081815	 0.0966414422	-0.395041
C	 0.0023885871	-0.0079455716	 0.0491357008	-0.061222
C	 0.6868867904	-0.4285893751	-1.2783925149	-0.187657
C	 0.424567639	-1.8763125604	-1.7094807784	-0.205846
C	 0.9001076602	-2.9425029442	-0.7174465557	-0.198953
C	 0.2994404265	-2.811659206	 0.6813292006	-0.075449
O	 0.9336397613	-1.8147480191	 1.4872354508	-0.254393
C	 0.8024122907	-0.4757216646	 1.2524426896	 0.390519
N	 1.3689465177	 0.3539584842	 2.0262343862	-0.50796
H	 0.7305838339	 2.0414080721	 0.0178236993	 0.134488
H	-0.8656042972	 1.8138169775	-0.7326407282	 0.098111
H	-0.6837216806	 1.8105571563	 1.0370961432	 0.126746
H	-0.9822631503	-0.4955275303	 0.0863932156	 0.084638
H	 0.3208633766	 0.2361065532	-2.0687427667	 0.099719
H	 1.7654334072	-0.242556476	-1.1974244341	 0.108788
H	-0.6550777421	-2.0040962803	-1.8715928306	 0.095591
H	 0.9000922946	-2.0530567289	-2.6812331844	 0.098897
H	 0.638662814	-3.9350353924	-1.10468796	 0.100581
H	 1.9926394593	-2.9215271641	-0.6186237098	 0.111933
H	-0.7838007745	-2.6383126018	 0.6326251253	 0.105982
H	 0.456842382	-3.7350683097	 1.244711247	 0.116344
H	 1.8712519666	-0.1476490603	 2.7617281623	 0.214183
68.906	130.448	226.5733	243.7947	274.6671	310.8132	341.2831	349.8926	391.6845	482.0773	550.4972	551.4314	672.5857	754.0296	825.4886	837.1304	860.5814	908.3375	921.8124	970.608	982.9823	1020.1646	1031.7627	1097.0412	1099.5642	1115.5703	1146.0575	1164.4296	1189.1011	1258.6656	1269.4125	1291.3844	1316.922	1327.8324	1365.3241	1384.4038	1391.8328	1403.9038	1414.6937	1427.2103	1471.182	1484.2048	1487.3031	1492.2654	1499.1275	1508.7785	1732.5467	3000.9088	3008.8573	3021.0462	3025.6341	3027.3398	3044.8756	3059.1209	3067.1705	3073.1626	3094.0064	3119.0498	3136.9351	3461.1502
CC1CCCCOC1=N	C[C@H]1CCCCO[C]1[NH]	
InChI=1S/C7H13NO/c1-6-4-2-3-5-9-7(6)8/h6,8H,2-5H2,1H3	InChI=1S/C7H13NO/c1-6-4-2-3-5-9-7(6)8/h6,8H,2-5H2,1H3/t6-/m0/s1
