16
gdb 79504	2.28327	1.93538	1.26283	3.0643	69.61	-0.2396	-0.048	0.1915	994.6934	0.121648	-437.758894	-437.751077	-437.750133	-437.791454	29.199	
C	 0.1457263114	 1.5691769862	-0.0078073165	-0.335347
N	-0.0035422572	 0.1130230009	-0.0281600524	-0.158497
C	-1.1456851713	-0.4159354258	 0.7725855532	-0.068069
C	-0.4119253726	-1.7540095932	 1.0493645999	 0.041502
O	-0.6420745043	-1.7495408433	 2.4718899185	-0.313684
C	-0.4207332038	-0.3396667837	 2.172408217	 0.027073
C	 0.6826328594	-0.6111978467	 1.0843321225	 0.228611
C	 2.1593699324	-0.7651666731	 1.2033206829	 0.022136
O	 2.7537019284	-0.7863181863	 2.2513287552	-0.23697
H	 1.1331059118	 1.839083214	-0.3944042372	 0.130048
H	-0.6036205128	 2.0111893358	-0.671589821	 0.130092
H	 0.0307257014	 2.0204672132	 0.9916270536	 0.107362
H	-2.1932484541	-0.2417133402	 0.5251808806	 0.100972
H	-0.4094423174	-2.6917947871	 0.4969863917	 0.118646
H	-0.4635939619	 0.3687463185	 2.9976499003	 0.116768
H	 2.6800396307	-0.8815393893	 0.2263411717	 0.089356
79.9164	149.8781	204.0551	213.2873	230.5357	310.581	483.4076	539.1963	559.246	686.6886	735.6037	738.9701	769.1021	819.9767	883.95	924.2624	935.6755	979.5032	1029.4806	1065.9453	1094.6931	1126.476	1130.1305	1149.6169	1166.1124	1180.8075	1202.722	1266.3881	1280.7085	1349.5878	1412.3856	1450.0773	1493.3216	1495.1816	1815.7939	2882.6397	2970.4402	3073.0641	3108.9732	3117.8429	3141.3501	3149.6204
CN1C2C3OC2C13C=O	CN1[C@H]2[C@@H]3O[C@H]2[C@]13C=O	
InChI=1S/C6H7NO2/c1-7-3-4-6(7,2-8)5(3)9-4/h2-5H,1H3	InChI=1S/C6H7NO2/c1-7-3-4-6(7,2-8)5(3)9-4/h2-5H,1H3/t3-,4-,5+,6+
