17
gdb 31051	2.31707	1.43035	0.90357	2.6537	73.44	-0.1797	0.0373	0.217	1267.3891	0.135524	-455.178465	-455.16915	-455.168206	-455.212924	33.094	
C	 0.0046828908	 1.4744330504	-0.0566765955	-0.325609
N	-0.3679866423	 0.0854288272	-0.3050312342	-0.389649
C	 0.431039174	-0.6664458996	-1.15315813	 0.2418
C	 0.6991773599	-2.0005699528	-1.1422867058	 0.221035
C	 0.3547900175	-3.1581408104	-0.2852786362	-0.501551
O	 1.4812342215	-2.2477884563	-2.2880722178	-0.241698
C	 1.6190881195	-1.0400133797	-2.8519085789	 0.47081
O	 2.3435508765	-0.9636307327	-3.9686648639	-0.405617
N	 1.0376108824	-0.0578777299	-2.2553976262	-0.39062
H	 0.9517849852	 1.587049655	 0.493548534	 0.106434
H	 0.1073952113	 1.9892867829	-1.0125977138	 0.163263
H	-0.7927666048	 1.9546217197	 0.5163163994	 0.116383
H	-0.612856487	-0.414600889	 0.5377586432	 0.230148
H	-0.146728252	-2.808145839	 0.6222582261	 0.124479
H	-0.3226047334	-3.86859279	-0.7776454518	 0.132801
H	 1.2455267986	-3.7170477835	 0.0274324823	 0.132809
H	 2.6571312425	-1.8500036922	-4.184716961	 0.314782
63.8846	116.4061	142.71	181.093	190.479	247.4254	264.9946	345.5099	363.7159	400.7101	545.569	598.3623	634.5143	681.5891	692.7315	747.9576	844.3289	963.7231	1031.3789	1061.2774	1064.1483	1125.3145	1155.2049	1178.2479	1227.6127	1232.1002	1395.0782	1425.5481	1434.5892	1464.6754	1465.4885	1474.2722	1493.5756	1500.6262	1521.6336	1704.8873	1715.5149	2982.889	3008.1324	3052.5725	3090.2788	3101.2684	3147.7254	3590.0474	3818.4951
CNC1=C(C)OC(O)=N1	CNc1c(C)oc(O)n1	
InChI=1S/C5H8N2O2/c1-3-4(6-2)7-5(8)9-3/h6H,1-2H3,(H,7,8)	InChI=1S/C5H8N2O2/c1-3-4(6-2)7-5(8)9-3/h6H,1-2H3,(H,7,8)
