17
gdb 126854	2.8295	1.55176	1.08637	1.7257	79.98	-0.2295	-0.0687	0.1608	1108.2626	0.137584	-414.174081	-414.166108	-414.165163	-414.206821	29.999	
C	-0.1044357031	 1.5307556798	 0.0417612005	-0.384229
C	 0.0776162476	 0.0132745463	 0.0121600551	-0.123598
N	 0.7157507376	-0.4985321137	 1.2315455838	-0.046484
N	 2.027848266	-0.7364717862	 1.1123796318	-0.049264
N	 2.7101997655	-1.1737221201	 2.0970934187	-0.235903
C	 2.0643801602	-1.4039728889	 3.2983453196	 0.048041
C	 0.7463466767	-1.1940599575	 3.4887844042	-0.198482
C	-0.056858615	-0.6856336582	 2.3987614082	 0.408538
N	-1.3065510099	-0.3995499573	 2.3584634051	-0.565252
H	 0.8612200825	 2.0350739545	 0.1407182169	 0.127959
H	-0.5696766691	 1.8600418032	-0.8920887498	 0.123077
H	-0.7511342059	 1.8221036033	 0.8714101277	 0.152098
H	-0.8898069163	-0.4854441552	-0.0723519064	 0.146678
H	 0.7250668832	-0.2918012338	-0.8110833893	 0.130206
H	 2.7124965019	-1.7756519193	 4.0843404805	 0.132985
H	 0.2642265689	-1.3886491427	 4.4402346572	 0.118283
H	-1.7375483708	-0.5936651841	 3.2606233562	 0.215346
88.8992	106.0522	179.4428	226.431	318.4992	358.5942	430.2494	476.1234	551.714	571.4536	630.5235	735.1058	759.5575	787.2934	794.7705	866.6319	893.1898	984.0709	1006.4709	1011.2165	1076.8609	1106.7095	1112.2876	1199.0554	1235.7942	1237.9947	1340.6095	1367.6417	1391.2797	1407.1775	1428.9662	1459.8717	1490.4427	1501.9356	1509.0876	1615.1257	1704.8355	3048.471	3084.066	3117.695	3134.881	3152.8217	3188.6229	3206.8103	3497.1662
CCN1N=NC=CC1=N	CCn1nnccc1[NH]	
InChI=1S/C5H8N4/c1-2-9-5(6)3-4-7-8-9/h3-4,6H,2H2,1H3	InChI=1S/C5H13N4/c1-2-9-5(6)3-4-7-8-9/h5-8H,2-4H2,1H3
