16
gdb 93981	4.59369	1.00384	0.84836	3.5217	68.67	-0.259	-0.0648	0.1941	1287.0702	0.124119	-475.034241	-475.025888	-475.024944	-475.067513	30.204	
O	 0.0318605819	 1.4326301883	 0.1727633544	-0.420134
C	 0.1166185547	 0.021697785	 0.0916007938	 0.058914
C	 0.4431486341	-0.589078237	 1.4555833579	-0.108056
O	 0.3829311097	-2.0206327085	 1.4104218932	-0.241915
C	-0.6243588826	-2.5297273827	 0.6711938615	 0.302792
C	-0.7922257008	-4.0153520634	 0.8295508839	 0.123246
O	-0.1065127792	-4.7073479685	 1.5333518485	-0.244179
N	-1.4183360501	-1.9343593197	-0.1237360607	-0.301508
C	-1.2456073734	-0.5065148958	-0.3546064304	-0.164336
H	 0.921828788	 1.7929186161	 0.2406702327	 0.291891
H	 0.8830290713	-0.2940471575	-0.6319210196	 0.089179
H	 1.4547268938	-0.3413559631	 1.7873355173	 0.117712
H	-0.271485138	-0.2162469053	 2.1999409632	 0.126209
H	-1.6260237103	-4.3999171751	 0.2104318941	 0.107228
H	-2.03003013	 0.0417428517	 0.1837862102	 0.13582
H	-1.4082595991	-0.3071309946	-1.4185226499	 0.127137
77.0331	129.7806	185.2728	196.2076	262.3163	298.4143	330.8735	400.411	452.2866	509.1024	579.1532	626.0182	764.8872	825.8716	896.5896	946.2781	1027.1815	1036.0293	1068.8301	1099.2771	1111.6335	1143.2901	1209.4423	1241.8943	1269.9946	1302.6975	1345.6418	1368.318	1386.416	1397.201	1443.2145	1478.0428	1511.5275	1716.1061	1829.3428	2955.3351	2993.23	3029.2864	3038.3329	3077.1092	3103.2746	3818.9846
OC1COC(C=O)=NC1	O[C@H]1COC(=NC1)C=O	
InChI=1S/C5H7NO3/c7-2-5-6-1-4(8)3-9-5/h2,4,8H,1,3H2	InChI=1S/C5H7NO3/c7-2-5-6-1-4(8)3-9-5/h2,4,8H,1,3H2/t4-/m1/s1
