17
gdb 25897	2.57267	1.49878	0.95823	2.1328	76.26	-0.2355	-0.0387	0.1968	1192.523	0.134992	-421.886244	-421.877432	-421.876488	-421.920152	31.805	
C	-0.0452960661	 1.5064894492	-0.0265318436	-0.494485
C	 0.0382657272	-0.0127205306	-0.0182859877	 0.303435
O	 1.1128206428	-0.5833663923	-0.0339956742	-0.326227
C	-1.2284757235	-0.7635532603	 0.0086958414	 0.075261
C	-2.4962361919	-0.2487848137	 0.0280300217	-0.085483
O	-3.4143276709	-1.2306417544	 0.0499735907	-0.14605
C	-2.7249104425	-2.4151823412	 0.0446371015	-0.087292
C	-1.3855817461	-2.2059449983	 0.0197151211	 0.134634
C	-0.307714149	-3.2428071964	 0.0065990119	-0.483296
H	 0.964252411	 1.9179249087	-0.0413838496	 0.142973
H	-0.5958817852	 1.8589049292	-0.905480128	 0.137954
H	-0.5753593184	 1.8707943192	 0.8600552625	 0.137614
H	-2.8825356587	 0.7576714955	 0.0289356126	 0.148106
H	-3.332854381	-3.304679914	 0.0605836357	 0.142429
H	 0.3245055916	-3.1435866237	-0.8801197479	 0.144289
H	 0.3559235481	-3.1330344341	 0.8687683075	 0.144313
H	-0.7384048474	-4.2481158629	 0.0203840644	 0.111827
63.4322	125.0414	145.0792	176.4399	189.8416	276.2998	291.6574	404.8691	483.0541	564.5951	621.5879	629.2243	679.9884	688.3571	763.4416	802.8617	893.1954	943.5347	1020.6813	1043.1867	1068.5361	1079.0133	1084.8536	1184.9329	1246.6272	1256.4828	1333.0656	1373.4255	1402.3406	1425.496	1470.0897	1475.0256	1477.7985	1482.9302	1565.7854	1635.2658	1766.5925	3038.9796	3045.4588	3101.8596	3109.6944	3118.9446	3154.8441	3270.9794	3279.1484
CC(=O)C1=COC=C1C	CC(=O)c1cocc1C	
InChI=1S/C7H8O2/c1-5-3-9-4-7(5)6(2)8/h3-4H,1-2H3	InChI=1S/C7H8O2/c1-5-3-9-4-7(5)6(2)8/h3-4H,1-2H3
