23
gdb 111210	2.72901	1.08056	0.90736	0.9444	87.08	-0.248	0.0954	0.3435	1426.5977	0.205578	-388.231954	-388.22257	-388.221626	-388.26656	35.376	
C	-0.1877589173	 1.6095898571	 0.024306805	-0.372461
C	-0.0384190702	 0.0900406228	 0.1736500702	-0.236896
C	-1.3770218827	-0.6302376821	 0.0735930077	 0.077552
C	-2.1007717316	-0.8620581825	-1.2995491794	-0.11458
C	-1.0834143974	-1.9990831402	-1.5961019673	-0.240464
C	-1.4747373391	-2.1860592999	-0.1007451638	-0.128059
C	-2.9329158291	-1.9734205004	-0.5691117601	 0.18491
O	-3.8613517063	-1.6367324877	 0.4196442484	-0.253575
C	-5.1077141489	-1.2334752437	-0.103551413	-0.243003
H	 0.7734290194	 2.1184992761	 0.146758672	 0.109347
H	-0.5815028994	 1.873828688	-0.9631375024	 0.114761
H	-0.8776047603	 2.0143554307	 0.7731664626	 0.114375
H	 0.6811671177	-0.2762571797	-0.5659570194	 0.093625
H	 0.3987975055	-0.134603766	 1.155760283	 0.095927
H	-2.0512815047	-0.2519184787	 0.8459159624	 0.080576
H	-2.4656312313	-0.1087994363	-2.0002342897	 0.063815
H	-1.4102867067	-2.7813513187	-2.2880988686	 0.088095
H	-0.0568312876	-1.7047743609	-1.8067571094	 0.100711
H	-1.119406118	-2.9555192759	 0.5868580942	 0.06799
H	-3.3417416116	-2.7522891866	-1.2304176077	 0.057937
H	-5.7732447517	-1.0522721566	 0.7437571086	 0.126459
H	-5.0268212673	-0.3103475866	-0.6963006962	 0.108075
H	-5.5504734015	-2.0141996322	-0.7417735268	 0.104882
68.3154	75.9193	155.5736	180.4097	186.9791	228.3574	299.1266	371.5083	410.7994	437.7578	547.8373	603.8274	742.6416	773.3495	834.874	845.0681	884.1738	900.7983	925.0889	969.3293	1008.3708	1022.505	1048.4734	1056.0806	1079.8499	1098.1697	1124.8296	1134.4773	1153.4829	1174.4957	1184.2863	1194.7163	1217.0247	1228.4246	1249.6683	1251.8488	1274.0723	1297.4529	1350.0857	1407.5981	1412.3293	1431.2609	1483.2505	1484.9104	1487.8892	1499.0562	1505.9525	1508.7946	1529.3771	2975.1713	2990.2807	3020.8037	3025.2501	3029.7422	3056.0017	3061.7637	3081.2996	3092.9336	3099.3327	3101.0903	3101.9626	3115.3929	3146.8555
CCC1C2CC1C2OC	CC[C@H]1[C@H]2C[C@@H]1[C@H]2OC	
InChI=1S/C8H14O/c1-3-5-6-4-7(5)8(6)9-2/h5-8H,3-4H2,1-2H3	InChI=1S/C8H14O/c1-3-5-6-4-7(5)8(6)9-2/h5-8H,3-4H2,1-2H3/t5-,6+,7-,8-
