19
gdb 55169	2.79691	1.43747	1.26249	2.857	74.63	-0.2383	-0.0074	0.231	1081.6112	0.158503	-423.011402	-423.002888	-423.001944	-423.045358	31.459	
C	 0.4378817314	 0.641225215	 0.7417791352	-0.483786
C	-0.0322751829	-0.1160738335	-0.4838955642	 0.394028
O	 0.6636363734	-0.2577711493	-1.4629631076	-0.304698
C	-1.4264236255	-0.7206908429	-0.4015756452	-0.131717
C	-1.8070662361	-1.7624543455	-1.4913700673	-0.263747
C	-1.938837036	-2.8600856635	-0.4025388333	-0.071712
C	-0.6102939387	-3.5175277772	 0.0229350562	-0.084234
O	-0.3624006959	-2.4889985869	 1.0205442484	-0.288161
C	-1.594940289	-1.8215229837	 0.6974232539	 0.103008
H	 1.3518618822	 1.1911262888	 0.5135584315	 0.13915
H	-0.3326006662	 1.3247492345	 1.113407893	 0.124318
H	 0.6432475719	-0.0884656818	 1.5333374428	 0.166321
H	-2.1541146999	 0.0904102455	-0.2851007862	 0.091203
H	-2.7500996234	-1.5373785517	-1.9933014661	 0.104026
H	-1.0331333837	-1.9221892798	-2.2449167243	 0.126202
H	-2.831385816	-3.4835148892	-0.3978120017	 0.079826
H	-0.7062441069	-4.5018993813	 0.4957987971	 0.106481
H	 0.1778022224	-3.553777023	-0.7380039325	 0.117175
H	-2.1909919409	-1.5900450644	 1.5838275304	 0.076318
48.0955	82.6372	141.3025	163.0414	236.4573	352.8593	360.5476	439.3127	546.016	596.9886	690.8891	733.0664	777.9477	846.3237	892.2876	913.6143	935.7645	949.0024	968.58	995.3729	1015.3703	1047.1083	1069.1383	1101.2618	1144.5452	1153.57	1176.1356	1189.6716	1221.221	1236.5935	1268.1825	1292.8981	1322.4512	1332.2475	1362.3995	1378.1557	1468.1947	1478.7068	1482.9364	1521.0651	1808.066	3022.1588	3037.6225	3046.5415	3071.1181	3072.838	3076.9793	3104.8724	3121.1685	3131.2013	3150.0632
CC(=O)C1CC2COC12	CC(=O)[C@H]1C[C@H]2CO[C@@H]12	
InChI=1S/C7H10O2/c1-4(8)6-2-5-3-9-7(5)6/h5-7H,2-3H2,1H3	InChI=1S/C7H10O2/c1-4(8)6-2-5-3-9-7(5)6/h5-7H,2-3H2,1H3/t5-,6+,7+/m0/s1
