22
gdb 86144	2.40817	1.4316	1.01544	3.5554	83.16	-0.2317	0.0355	0.2672	1259.3094	0.194664	-404.409278	-404.399533	-404.398589	-404.443566	36.095	
C	-0.8481299171	 1.2191178117	-0.0134427291	-0.413433
C	 0.0865197211	 0.0122823839	-0.0424583092	 0.008947
C	 1.2424140983	 0.1410475974	-1.0600806646	-0.178209
N	 2.2633347847	-0.7395206013	-0.526273122	-0.067525
C	 3.4567840284	-1.0889824159	-1.2583553206	-0.344479
C	 2.0945959746	-1.0421444724	 0.8000372925	 0.408357
O	 2.8592864417	-1.7001637515	 1.4777194671	-0.408268
C	 0.808789278	-0.3549279075	 1.2779889126	-0.124266
C	 1.1882829989	 0.8196024246	 2.1944466543	-0.400419
H	-0.3196150972	 2.1358852322	 0.2652141532	 0.121843
H	-1.2996178451	 1.3826169768	-0.998105368	 0.115348
H	-1.6633031812	 1.0713705851	 0.7021082701	 0.120308
H	-0.4974692396	-0.8672717587	-0.3393056108	 0.086036
H	 0.9427965535	-0.1694293759	-2.0684455806	 0.105917
H	 1.6083273246	 1.1782236711	-1.135007645	 0.097376
H	 4.0350847338	-0.196583405	-1.5332027953	 0.119219
H	 4.0653774986	-1.723852503	-0.6120102848	 0.164589
H	 3.2106647114	-1.6336944608	-2.1778414252	 0.120902
H	 0.2279408557	-1.0743945431	 1.8622457041	 0.095088
H	 1.7714045624	 1.5797258792	 1.6628581307	 0.115726
H	 0.3000151579	 1.304479472	 2.6088546909	 0.115872
H	 1.7992996266	 0.4502569213	 3.0221059998	 0.141075
81.1281	124.0414	158.2305	197.632	232.3969	252.6563	258.6092	275.057	292.2122	331.3611	457.378	499.4168	592.3487	638.8208	729.4786	776.1811	803.6148	908.8051	963.4597	969.8847	1011.6341	1034.1948	1068.124	1095.6913	1130.6479	1150.2616	1174.0797	1198.0252	1215.2334	1275.6088	1292.6788	1311.4862	1334.7327	1361.5788	1379.6148	1401.5365	1414.7834	1431.8196	1451.9268	1492.8562	1493.8776	1496.2505	1505.047	1508.4679	1512.7095	1541.9271	1801.0636	2967.7301	3008.5168	3023.1851	3033.9516	3037.3003	3043.1674	3058.6404	3067.2912	3097.1283	3105.5761	3111.2821	3123.1363	3141.9642
CC1CN(C)C(=O)C1C	C[C@H]1CN(C)C(=O)[C@H]1C	
InChI=1S/C7H13NO/c1-5-4-8(3)7(9)6(5)2/h5-6H,4H2,1-3H3	InChI=1S/C7H13NO/c1-5-4-8(3)7(9)6(5)2/h5-6H,4H2,1-3H3/t5-,6-/m0/s1
