19
gdb 37789	2.46837	2.14534	1.62579	1.4775	78.45	-0.2186	0.0182	0.2369	911.5367	0.163332	-385.887429	-385.880854	-385.87991	-385.918067	27.745	
C	-0.0796743453	 1.4310412332	-0.2107277294	-0.242895
C	 1.3113456945	 1.991184469	 0.0309561329	-0.110348
C	 2.1389970319	 1.4877426537	 1.2096263091	-0.070463
C	 1.639394693	 0.8624038368	 2.5037715105	-0.28088
C	 0.487606461	-0.1054252396	 2.4657527957	-0.046436
C	-0.1773341294	-0.5337577212	 1.3963605691	-0.059287
C	 0.1211102287	-0.0961493143	-0.0202162774	 0.021091
O	 1.491966811	-0.3512912121	-0.3764885479	-0.257101
C	 2.2362872904	 0.8120776829	-0.13406967	 0.092408
H	-0.8484763843	 1.817420334	 0.4623800747	 0.108008
H	-0.3813364783	 1.6597387814	-1.2392274306	 0.102402
H	 1.5438786897	 2.9669756646	-0.3806312486	 0.084594
H	 2.9910578844	 2.1389754702	 1.3990477566	 0.08609
H	 2.491056425	 0.3549083176	 2.9828836548	 0.116183
H	 1.3769932511	 1.6720599201	 3.2024864989	 0.110406
H	 0.1955336073	-0.4828631807	 3.4443679459	 0.088515
H	-0.9974327915	-1.2349400722	 1.5268141794	 0.082458
H	-0.4886187324	-0.677297334	-0.7172042148	 0.081344
H	 3.1573945033	 0.8253644706	-0.7060388689	 0.093911
140.8447	269.5809	277.4212	409.7576	441.379	488.2093	594.1186	678.1018	709.8612	716.5747	777.5121	801.4016	814.5606	863.9121	871.6111	921.4321	953.6605	968.1514	1003.4828	1012.2618	1038.7052	1051.4239	1073.2611	1089.3677	1110.0591	1135.7778	1202.2296	1205.1106	1228.5282	1261.9386	1280.7974	1313.6834	1347.1629	1350.2845	1384.2515	1390.7589	1420.5856	1446.7256	1472.4107	1493.823	1737.6812	2983.3965	2998.2499	3039.9598	3070.5074	3100.708	3114.2984	3134.3164	3163.5538	3164.9594	3176.0271
C1C2C3CC=CC1OC23	C1[C@H]2[C@H]3CC=C[C@@H]1O[C@@H]23	
InChI=1S/C8H10O/c1-2-5-4-7-6(3-1)8(7)9-5/h1-2,5-8H,3-4H2	InChI=1S/C8H10O/c1-2-5-4-7-6(3-1)8(7)9-5/h1-2,5-8H,3-4H2/t5-,6+,7-,8+/m0/s1
