16
gdb 77441	2.44079	1.57354	1.23782	0.8805	67.68	-0.25	0.0126	0.2626	1044.0283	0.121728	-474.983107	-474.974208	-474.973264	-475.016252	33.091	
C	 0.0904886586	 1.5288493017	-0.0390715585	-0.496362
C	 0.0642838203	 0.0469263711	 0.0721954878	 0.347462
O	 0.5872615391	-0.7583484556	-1.0379373484	-0.30076
C	 1.2111159494	-1.629272459	-0.1483919145	 0.392713
N	 2.0055620181	-2.5799657569	-0.3309107779	-0.576065
C	 0.6129975784	-0.9785717126	 1.0450673772	 0.141317
O	 1.1365599303	-0.8287347808	 2.3109133343	-0.45836
C	-0.9072685584	-0.8253794424	 0.8181614587	-0.005128
O	-1.550834464	-0.241195312	 1.900984573	-0.431105
H	 1.1113332045	 1.9086459701	-0.1363100647	 0.137499
H	-0.4865691284	 1.8503790219	-0.9125004305	 0.14193
H	-0.3709278232	 1.959776513	 0.8526754929	 0.149421
H	 2.2060679414	-2.7220590118	-1.3217102867	 0.235154
H	 1.3711701874	-1.7064814527	 2.6385725868	 0.312679
H	-1.4910107361	-1.5782551004	 0.2905740278	 0.112708
H	-0.9624664675	-0.3276146635	 2.6652509627	 0.296896
134.1298	145.6976	178.064	199.7034	212.2199	260.4406	295.0295	356.2669	415.0352	455.0331	553.6053	588.0275	608.478	662.9173	735.2977	781.3343	859.9078	870.1124	929.7915	976.0989	1027.1398	1050.0796	1109.0212	1134.2549	1177.9766	1235.5166	1290.21	1317.1345	1368.631	1383.5603	1412.2545	1475.6847	1484.9037	1511.6278	1839.6028	3042.6859	3109.3654	3120.0311	3133.8893	3487.2154	3724.4248	3779.8818
CC12OC(=N)C1(O)C2O	C[C@@]12O[C]([NH])[C@]1(O)[C@H]2O	
InChI=1S/C5H7NO3/c1-4-2(7)5(4,8)3(6)9-4/h2,6-8H,1H3	InChI=1S/C5H7NO3/c1-4-2(7)5(4,8)3(6)9-4/h2,6-8H,1H3/t2-,4-,5+/m0/s1
