18
gdb 33025	4.69486	0.84526	0.76334	2.3173	80.92	-0.2507	-0.021	0.2297	1471.4059	0.149774	-402.003694	-401.995357	-401.994413	-402.03767	30.474	
O	-0.0650695577	 1.4573087706	 0.0106313439	-0.415856
C	 0.0303509714	 0.0434819284	 0.0026929393	-0.060826
C	-1.3968597306	-0.5127196193	 0.0119598218	-0.297451
C	-1.4152380106	-2.020122878	 0.0042914026	 0.291279
C	-1.4145077907	-2.7462124449	-1.1885020753	-0.194948
C	-1.398136032	-4.1367651273	-1.143242189	 0.013914
N	-1.3824103703	-4.8449798923	-0.0106858793	-0.270203
C	-1.383931168	-4.1486528821	 1.1293021397	 0.013941
C	-1.3996656485	-2.7586277523	 1.1893037464	-0.195088
H	 0.8254502454	 1.8202399971	 0.0053341888	 0.288764
H	 0.5609478065	-0.3226746374	-0.890471767	 0.093263
H	 0.5758970866	-0.3316583439	 0.8830225337	 0.093279
H	-1.9080957349	-0.1275986944	 0.9002569048	 0.117136
H	-1.923088235	-0.1184213335	-0.8634769408	 0.117193
H	-1.4335653931	-2.2345067291	-2.1459200824	 0.095501
H	-1.4012583475	-4.7115010503	-2.0668614811	 0.107294
H	-1.375526331	-4.7330031264	 2.0468374983	 0.107297
H	-1.4066606199	-2.2569599648	 2.1521806756	 0.095511
48.1008	97.5322	104.07	251.667	282.1713	335.9043	344.0236	391.9624	531.1107	608.975	682.8823	773.3075	804.5553	826.1809	862.3188	900.3729	987.6328	1000.8149	1008.6967	1012.4959	1046.9789	1081.8964	1095.4843	1118.3234	1213.7688	1234.6818	1242.6749	1250.0134	1294.507	1312.828	1336.409	1366.2791	1445.6623	1456.8139	1494.8624	1526.7941	1528.8792	1602.0455	1638.8051	2969.972	2999.744	3048.2949	3095.6376	3148.6316	3150.6281	3177.8187	3180.2419	3829.812
OCCC1=CC=NC=C1	OCCc1ccncc1	
InChI=1S/C7H9NO/c9-6-3-7-1-4-8-5-2-7/h1-2,4-5,9H,3,6H2	InChI=1S/C7H9NO/c9-6-3-7-1-4-8-5-2-7/h1-2,4-5,9H,3,6H2
