20
gdb 107495	2.14053	1.74067	1.26393	1.6798	78.6	-0.2302	0.0766	0.3067	1085.6965	0.171063	-403.080984	-403.072486	-403.071542	-403.114094	33.094	
O	 0.0269840857	 1.4514271086	 0.0265730452	-0.414341
C	 0.0416690593	 0.0362581193	-0.0512034179	-0.167104
C	-1.3306595753	-0.5567445259	 0.0937469728	 0.218999
C	-1.8516316573	-1.6404060609	-0.7672154339	-0.288631
N	-2.4009773542	-0.2844155483	-0.9669610563	-0.178034
C	-3.3992992627	-0.0863517993	 0.1489176684	-0.24871
C	-2.3133250612	-0.2736332584	 1.2122668175	 0.330691
C	-2.3776126722	-0.8812172394	 2.5842689911	-0.337823
C	-2.0782678572	 0.5911850894	 2.409811275	-0.326045
H	-0.6306778741	 1.7474482058	-0.6139681088	 0.29115
H	 0.484704111	-0.3100311947	-0.9980435102	 0.093662
H	 0.6947308011	-0.3093872381	 0.7592001974	 0.110849
H	-1.2337198255	-1.9728288275	-1.5963894234	 0.118983
H	-2.4917478637	-2.4093866283	-0.3392308376	 0.112372
H	-3.8126416354	 0.9246348511	 0.1053112571	 0.11134
H	-4.2196815384	-0.8128977319	 0.128690879	 0.104158
H	-3.3520977418	-1.1637985138	 2.9699540301	 0.112707
H	-1.5700086708	-1.5377001603	 2.8933243738	 0.112334
H	-1.0689172746	 0.9423903557	 2.5912906095	 0.131473
H	-2.8515439827	 1.3054625668	 2.6761799412	 0.111972
67.7528	145.2994	157.1358	214.8742	264.6889	357.9075	401.776	432.6103	460.6177	527.3075	595.4474	652.8215	735.8038	769.9807	842.3948	870.8312	881.4586	912.7839	961.9792	965.1508	992.8359	1004.0944	1054.6533	1069.8483	1074.2498	1090.9257	1121.2996	1128.9175	1174.5186	1185.0486	1197.3288	1220.6335	1282.8565	1302.2988	1339.5974	1384.7869	1416.799	1432.2039	1466.6683	1488.3543	1493.6315	1507.9867	1511.1845	2983.8281	3034.136	3056.957	3095.2477	3100.0815	3122.1359	3130.0477	3191.4322	3202.182	3220.9797	3791.553
OCC12CN1CC21CC1	OC[C@]12CN1CC12CC1	
InChI=1S/C7H11NO/c9-5-7-4-8(7)3-6(7)1-2-6/h9H,1-5H2	InChI=1S/C7H11NO/c9-5-7-4-8(7)3-6(7)1-2-6/h9H,1-5H2/t7-,8?/m0/s1
