18
gdb 13704	5.3864	0.84273	0.77105	2.0379	78.96	-0.2431	0.0309	0.274	1519.173	0.151512	-347.765723	-347.756424	-347.75548	-347.800943	32.347	
C	 0.008147327	 1.6447236403	 0.0406024623	-0.36515
C	 0.0154329467	 0.1050344878	 0.0273420051	-0.318829
C	 0.6627389421	-0.4552002264	-1.1537054335	 0.115693
C	 1.2094063975	-0.8987293481	-2.1323474632	 0.073439
C	 1.8436611717	-1.3964201571	-3.3225494144	-0.162264
O	 3.1218129643	-2.0484366899	-3.1835938748	-0.245942
C	 2.0129905204	-2.842360644	-3.5989724662	 0.097691
C	 1.5410050712	-3.9187101884	-2.6591775515	-0.424012
H	 1.0279741749	 2.0377895004	 0.0186460692	 0.132136
H	-0.5241957769	 2.0384775807	-0.8293994693	 0.128712
H	-0.4858992027	 2.0145994285	 0.9438519694	 0.116045
H	 0.5243235954	-0.2681052413	 0.9253285464	 0.134669
H	-1.0149423521	-0.2685659787	 0.0889520593	 0.130874
H	 1.7911875034	-0.728110624	-4.1825508343	 0.108111
H	 2.0497106683	-3.1256550084	-4.6534242871	 0.090048
H	 1.4503234718	-3.5330244097	-1.6417276025	 0.138939
H	 0.5656358837	-4.3006700928	-2.9791834282	 0.121418
H	 2.2468810833	-4.7556620988	-2.6567596966	 0.128423
28.7242	80.8316	115.6459	154.2806	186.2528	226.3684	317.3909	336.1782	401.3084	489.8447	529.2281	568.98	738.7783	782.3058	785.5642	854.3222	941.641	969.9793	1020.2746	1075.6623	1083.2424	1103.5106	1140.3083	1165.2596	1196.6283	1285.8336	1288.7977	1349.6771	1378.4455	1409.9344	1412.634	1448.25	1472.8225	1485.9901	1494.667	1496.7178	1505.4161	2361.3225	3020.5414	3039.6488	3045.6235	3048.3217	3080.2433	3102.5531	3103.3132	3119.1801	3125.647	3137.8952
CCC#CC1OC1C	CCC#C[C@H]1O[C@H]1C	
InChI=1S/C7H10O/c1-3-4-5-7-6(2)8-7/h6-7H,3H2,1-2H3	InChI=1S/C7H10O/c1-3-4-5-7-6(2)8-7/h6-7H,3H2,1-2H3/t6-,7+/m0/s1
