20
gdb 99605	2.10345	1.33978	0.96763	2.221	78.8	-0.2806	0.0307	0.3113	1297.8998	0.168713	-403.153113	-403.143065	-403.142121	-403.188592	36.194	
C	 0.6680549768	 1.3708247343	 0.6274893199	-0.401974
C	 1.0034690205	-0.0861114278	 0.3019387389	-0.199485
C	 0.4244298533	-0.5448043183	-1.0558116962	-0.199466
C	 1.0793155237	 0.1567146172	-2.1659571732	 0.284119
N	 1.6116384075	 0.7045130266	-3.0338074223	-0.336273
C	 0.4690086342	-2.0660029689	-1.3071878864	 0.399789
C	-0.2889980549	-2.5275056741	-2.531897027	-0.468079
C	 1.562593029	-2.8850702598	-0.7674724481	-0.220586
O	 0.2729080925	-2.8632976256	-0.1387169051	-0.274131
H	 1.0684099762	 2.0527530851	-0.1292339897	 0.141061
H	-0.4149581488	 1.5264217448	 0.6819916038	 0.120218
H	 1.0939533186	 1.6551793843	 1.5937550451	 0.123263
H	 2.0901876716	-0.2193201438	 0.2954165978	 0.115679
H	 0.5978314095	-0.756820168	 1.0636723747	 0.13299
H	-0.6366868614	-0.2573235588	-1.0816318674	 0.127293
H	 0.123750123	-2.0779634248	-3.4398731967	 0.150652
H	-0.2375045791	-3.6146936977	-2.6219004139	 0.132804
H	-1.3437716491	-2.240069989	-2.4599380125	 0.128872
H	 1.8198496351	-3.8175361893	-1.2668617068	 0.121542
H	 2.3668329319	-2.4315568565	-0.1933917449	 0.121712
40.7369	83.3895	141.4972	182.2705	190.8034	196.7389	268.3856	320.1706	359.3507	362.1874	405.8686	467.1988	541.6423	568.9095	745.9647	781.5041	836.237	884.2622	921.8382	948.5132	969.0887	1020.6553	1053.9667	1099.6499	1120.8772	1127.8119	1132.6783	1170.9515	1234.3219	1275.5083	1299.3614	1343.4634	1364.4598	1403.7761	1415.0972	1421.377	1485.0861	1492.2267	1495.6189	1499.2034	1508.0107	1533.4827	2352.8007	3008.6032	3036.3901	3040.7147	3052.7435	3094.7334	3097.6182	3108.3032	3112.2793	3119.4545	3132.9117	3185.5579
CCC(C#N)C1(C)CO1	CC[C@@H](C#N)[C@@]1(C)CO1	
InChI=1S/C7H11NO/c1-3-6(4-8)7(2)5-9-7/h6H,3,5H2,1-2H3	InChI=1S/C7H11NO/c1-3-6(4-8)7(2)5-9-7/h6H,3,5H2,1-2H3/t6-,7+/m0/s1
