17
gdb 127201	3.29338	1.24587	0.91856	2.6556	71.72	-0.2204	0.0094	0.2298	1235.5587	0.136643	-451.314986	-451.305823	-451.304879	-451.349647	32.296	
C	-0.0557712826	 1.4181853427	 0.0174419294	-0.349567
N	 0.0056463004	-0.0290741245	 0.0355163579	-0.149258
C	 0.0187978318	-0.8143966493	-1.1110625363	 0.480828
N	-0.0201667511	-0.3847461509	-2.3012484844	-0.616001
O	 0.0812080484	-2.1037685903	-0.6668030647	-0.246868
N	 0.1069146372	-2.1218950519	 0.7629725773	-0.208807
C	 0.0603724324	-0.8780192546	 1.1095683206	 0.382599
C	 0.0662482108	-0.4259469115	 2.5459830903	-0.278144
N	 0.1307142284	-1.4868281532	 3.5378271087	-0.485068
H	 0.82639812	 1.8586653773	 0.4923143444	 0.140803
H	-0.0860173551	 1.7161266173	-1.0314852455	 0.188577
H	-0.9554620284	 1.78345658	 0.5223075269	 0.140799
H	 0.0006733862	-1.1496054449	-2.9698597366	 0.233835
H	 0.9144590551	 0.2555341502	 2.6929211479	 0.137502
H	-0.832943324	 0.1783273889	 2.7242816621	 0.137576
H	-0.6519228397	-2.1204776483	 3.400344441	 0.245606
H	 0.9588798201	-2.0514458472	 3.3696085309	 0.245588
55.5426	80.8001	130.7045	174.0735	183.194	249.0779	284.707	340.834	374.2584	535.6955	620.2313	643.1169	722.2187	742.8346	745.0975	789.4298	901.9657	913.1237	942.3178	989.9447	1040.4562	1133.4507	1158.0056	1194.3413	1195.4701	1232.4739	1341.4851	1378.5631	1395.0967	1433.2084	1466.7949	1495.9288	1497.6516	1509.8632	1655.1875	1678.5606	1775.346	3022.0091	3038.6362	3053.0075	3099.9647	3153.2296	3497.6883	3547.7612	3566.0024
CN1C(=N)ON=C1CN	CN1[C@@H]([NH])ON=C1CN	
InChI=1S/C4H8N4O/c1-8-3(2-5)7-9-4(8)6/h6H,2,5H2,1H3	InChI=1S/C4H9N4O/c1-8-3(2-5)7-9-4(8)6/h4,6H,2,5H2,1H3/t4-/m1/s1
