21
gdb 39902	2.52033	1.74125	1.5584	1.7278	80.34	-0.2508	0.0804	0.3313	992.5778	0.186026	-387.092873	-387.085566	-387.084622	-387.124305	30.181	
C	 0.0622807131	 1.4602532955	 0.0094712613	-0.304575
O	 1.1978903261	 0.5748544625	-0.0066099809	-0.316592
C	-0.1052447035	 0.0107714793	 0.0031335829	 0.538331
C	-0.5689278522	-0.8890016009	 1.1443479347	-0.101267
C	-2.0693779692	-1.0293168049	 0.8014022857	-0.2144
C	-2.0848432249	-1.0206471801	-0.7677140622	-0.2144
C	-0.5914306569	-0.8763900291	-1.1385951756	-0.101261
C	 0.1370552102	-2.1985663154	-0.7954376928	-0.212858
C	 0.1525005302	-2.2072331916	 0.7723085513	-0.212858
H	-0.0720182485	 2.0232017673	 0.9327638904	 0.11168
H	-0.0901486216	 2.0333279962	-0.9047315931	 0.11168
H	-0.3616735211	-0.5274431787	 2.152318208	 0.063569
H	-2.4966040896	-1.9443061725	 1.2214049786	 0.097458
H	-2.6436464036	-0.1889524872	 1.2023265077	 0.096336
H	-2.5203721001	-1.9309830958	-1.1892974892	 0.097458
H	-2.6668064001	-0.1759625293	-1.1479297825	 0.096336
H	-0.4040413682	-0.5036879962	-2.1463955651	 0.063568
H	-0.3767895639	-3.0663929236	-1.2186669366	 0.092618
H	 1.1549343394	-2.1899353884	-1.1935282933	 0.10828
H	 1.178024663	-2.2029137488	 1.1503423794	 0.108279
H	-0.3530199484	-3.0797305482	 1.1959587612	 0.092618
147.4813	151.3264	261.1542	290.6242	357.0141	381.7778	538.4862	577.8004	585.4092	740.4752	788.4207	802.9911	841.6439	862.9945	886.3161	890.5287	916.1024	927.9973	959.3923	996.3402	1001.2987	1016.5619	1026.7039	1087.8214	1120.703	1122.0906	1132.8147	1171.875	1197.7361	1215.7412	1217.8406	1238.2274	1273.7248	1285.2486	1292.9868	1305.3227	1324.202	1339.3736	1346.8847	1454.2463	1480.3185	1493.6744	1498.0414	1514.5743	1545.4555	3045.5438	3051.0127	3056.2582	3061.2238	3076.194	3080.8019	3089.4621	3101.5335	3105.9575	3107.2333	3112.9422	3159.9071
C1OC11C2CCC1CC2	C1O[C@]21[C@H]1CC[C@@H]2CC1	
InChI=1S/C8H12O/c1-2-7-4-3-6(1)8(7)5-9-8/h6-7H,1-5H2	InChI=1S/C8H12O/c1-2-7-4-3-6(1)8(7)5-9-8/h6-7H,1-5H2/t6-,7+,8-
