21
gdb 70568	2.47993	1.8039	1.31171	1.3806	81.6	-0.2346	0.0875	0.3222	1051.3468	0.184178	-387.069099	-387.061335	-387.060391	-387.100679	32.232	
C	-0.1017364263	 1.4817745638	 0.018057487	-0.475201
C	-0.0337703213	-0.0323048446	 0.0537417729	 0.352547
C	-0.2093337545	-0.7030583077	 1.4001073518	-0.345696
C	 1.146891948	-0.692002512	 0.7394806046	-0.066802
C	 1.6543352018	-1.9856955558	 0.1313852351	-0.101601
O	 0.5905390855	-2.7626605604	-0.4158601619	-0.256322
C	-0.0659046772	-2.1199716406	-1.4707116212	 0.087984
C	-1.5254113271	-1.8184072516	-1.280076924	-0.328763
C	-0.5053008448	-0.7003783456	-1.220524881	-0.108166
H	 0.474252302	 1.8867006577	-0.8226489058	 0.113806
H	-1.1364546875	 1.8275360021	-0.0912321449	 0.118803
H	 0.3012844077	 1.917443773	 0.9377431665	 0.111062
H	-0.3708999245	-0.0556038753	 2.255578855	 0.103962
H	-0.7247020139	-1.6546396595	 1.452996922	 0.123159
H	 1.9195948555	-0.0497204284	 1.1536516204	 0.07763
H	 2.410060609	-1.7732577911	-0.6423459762	 0.08807
H	 2.1199017729	-2.6231911917	 0.8901455615	 0.109
H	 0.2973327197	-2.4057570835	-2.4573084673	 0.083272
H	-2.1765564471	-1.8666482693	-2.1460779079	 0.109368
H	-1.9764197346	-2.1536376659	-0.3532735806	 0.123031
H	-0.4849829732	-0.0379812036	-2.0811868561	 0.08086
163.4723	220.7004	249.1987	269.8126	313.4805	371.8773	401.2425	439.9246	510.2823	563.3894	649.3346	731.6622	782.334	794.7299	820.74	868.0661	892.8409	939.6726	967.5118	995.1407	1000.9225	1033.4146	1058.5569	1067.7711	1075.4513	1108.9558	1112.9674	1117.1198	1129.1624	1137.5534	1177.2564	1228.4837	1235.6123	1296.0526	1310.0353	1365.9886	1381.3942	1413.5478	1418.2972	1419.4949	1479.6094	1485.919	1491.3397	1499.6461	1504.6676	2972.7165	3019.6173	3069.4983	3079.3094	3097.4565	3102.062	3134.2216	3136.8865	3142.5534	3144.8512	3223.6677	3227.4192
CC12CC1COC1CC21	C[C@]12C[C@H]1CO[C@H]1C[C@@H]21	
InChI=1S/C8H12O/c1-8-3-5(8)4-9-7-2-6(7)8/h5-7H,2-4H2,1H3	InChI=1S/C8H12O/c1-8-3-5(8)4-9-7-2-6(7)8/h5-7H,2-4H2,1H3/t5-,6+,7-,8-/m0/s1
