19
gdb 57688	2.91746	0.90343	0.81596	1.6596	84.55	-0.2541	0.025	0.2792	1482.3736	0.153364	-385.80526	-385.794455	-385.793511	-385.842113	39.215	
C	 0.0549736445	 1.5816289639	 0.0091574407	-0.420885
C	 0.0219823224	 0.0404555521	 0.0615453102	 0.192057
C	 0.8310793447	-0.4929172865	 1.2615092173	-0.420899
O	-1.3278763927	-0.4600996776	 0.0688635473	-0.287476
C	-2.1425240837	-0.0987118815	 1.1726333002	-0.229153
C	-3.4600240904	-0.697651157	 0.9977504975	 0.294557
C	-4.5545362772	-1.1774246601	 0.8819211092	-0.416129
C	 0.5989446987	-0.4931807144	-1.1799663624	 0.338678
C	 1.1096426721	-0.9084370843	-2.1843308108	-0.462265
H	 1.0775703737	 1.9254546501	-0.1648149561	 0.131144
H	-0.5765121782	 1.9413605204	-0.806477094	 0.137645
H	-0.2902141917	 2.0199819562	 0.950053217	 0.117016
H	 0.4857647013	-0.0537896651	 2.2019970794	 0.117018
H	 0.7408007676	-1.5800880555	 1.3194228698	 0.137647
H	 1.8866580286	-0.2373297968	 1.1406263479	 0.131149
H	-1.7125808804	-0.4483861004	 2.1231787653	 0.121592
H	-2.252372627	 0.9931550106	 1.2528035552	 0.121592
H	-5.5199601334	-1.6056164041	 0.7714412906	 0.199947
H	 1.5478101012	-1.2830053101	-3.0763496744	 0.196765
15.6171	91.7791	99.8749	175.8782	188.8194	247.7629	255.2158	279.8036	329.9798	353.0387	386.4874	450.1932	453.4214	558.4307	590.111	607.878	626.528	666.134	673.4657	736.1224	877.3098	917.6418	955.9249	991.0033	1012.8655	1036.5897	1083.1649	1175.1424	1182.1109	1256.2948	1264.3195	1391.3347	1401.2684	1418.4467	1477.4562	1486.2533	1495.3418	1499.6159	1508.7944	2243.206	2248.5453	2984.6877	3008.5456	3046.124	3050.4529	3117.5323	3123.1502	3134.2947	3136.2852	3502.393	3506.576
CC(C)(OCC#C)C#C	CC(C)(OCC#C)C#C	
InChI=1S/C8H10O/c1-5-7-9-8(3,4)6-2/h1-2H,7H2,3-4H3	InChI=1S/C8H10O/c1-5-7-9-8(3,4)6-2/h1-2H,7H2,3-4H3
