16
gdb 45053	2.60312	1.85073	1.26555	1.3961	68.99	-0.2555	-0.0356	0.2199	975.4849	0.125123	-437.868353	-437.861119	-437.860175	-437.9002	27.985	
O	 0.0308944745	 0.186614765	-0.6726385273	-0.324578
C	-0.0139931404	 1.2622112563	-0.128539406	 0.33318
C	-1.2689929541	 1.9484030897	 0.4337121382	-0.366386
C	-0.78245629	 3.2967046014	 0.9256522788	 0.030686
O	 0.1667230481	 3.1987311698	 1.9917535428	-0.254817
C	 0.6632517161	 3.4448229797	 0.6667530706	-0.081816
C	 1.1665718796	 2.1941889226	 0.0218952884	 0.254656
C	 2.5245953726	 1.60618866	 0.1987670163	-0.263648
N	 2.1615085705	 2.2439119414	-1.0634488694	-0.360716
H	-2.0151697059	 2.039558955	-0.3636945754	 0.138652
H	-1.7120361648	 1.3432348396	 1.2305594033	 0.150858
H	-1.4579017559	 4.1462086417	 0.9735187212	 0.108352
H	 1.1582589786	 4.3960076807	 0.4983727555	 0.115346
H	 3.2502367532	 2.1453222175	 0.8006427668	 0.133384
H	 2.5819002523	 0.5218256013	 0.236895105	 0.137602
H	 1.9152709957	 1.5217304481	-1.7410418488	 0.249246
80.0311	179.9127	251.9441	260.5995	356.4486	433.7742	475.8719	563.9698	608.4747	682.9024	730.3593	821.7832	852.8558	876.1656	890.711	938.1061	956.7282	997.8823	1007.9658	1034.3519	1078.867	1105.9256	1111.2706	1151.1979	1184.4601	1238.2827	1269.5954	1280.4395	1305.85	1323.1264	1398.4042	1436.404	1439.9532	1498.4362	1829.5684	3054.2284	3099.5688	3113.4173	3154.6322	3173.0593	3209.3022	3465.9834
O=C1CC2OC2C11CN1	O=C1C[C@H]2O[C@H]2[C@]21CN2	
InChI=1S/C6H7NO2/c8-4-1-3-5(9-3)6(4)2-7-6/h3,5,7H,1-2H2	InChI=1S/C6H7NO2/c8-4-1-3-5(9-3)6(4)2-7-6/h3,5,7H,1-2H2/t3-,5-,6-/m1/s1
