21
gdb 110873	2.35596	1.49398	1.1983	2.986	77.36	-0.2455	0.0722	0.3176	1142.2372	0.183528	-424.212322	-424.203659	-424.202715	-424.245984	33.472	
C	 0.3579951594	 1.5019588529	 0.2510728588	-0.410786
C	 0.1918476781	-0.0022618003	 0.1389575144	 0.16325
C	 0.646024678	-0.6374754796	-1.1983926959	-0.278825
C	 1.2368832885	-1.9814813295	-0.7756355453	-0.094528
C	 2.5986724489	-2.0252029594	-0.0793980164	-0.072951
C	 3.5841506432	-0.8656340018	-0.0534637516	-0.087598
O	 3.9119189909	-0.4606653518	 1.2642213094	-0.427106
C	 1.3287993354	-1.9372543457	 0.7223101335	 0.061546
O	 0.9924534334	-0.6384659136	 1.1585737297	-0.284779
H	 1.3994472949	 1.7908307438	 0.0776452215	 0.128704
H	-0.2702290879	 2.0083177271	-0.4883964549	 0.119768
H	 0.0642346893	 1.8504086992	 1.2451055003	 0.128922
H	-0.86015408	-0.2711742635	 0.3223150281	 0.075869
H	-0.2016206049	-0.7808879382	-1.873911096	 0.107372
H	 1.3666486048	 0.0045162837	-1.7157408153	 0.109231
H	 0.9066815961	-2.8760438401	-1.2898678616	 0.092677
H	 3.0578716525	-3.0103805235	-0.0769207004	 0.091638
H	 4.5230984921	-1.1737052005	-0.5241282473	 0.106861
H	 3.2055321112	-0.0177141725	-0.6418259941	 0.083006
H	 3.0707367627	-0.21670578	 1.6713200358	 0.291501
H	 1.0018491536	-2.7346256668	 1.3821668971	 0.096228
56.8547	87.5676	171.8682	238.6966	265.0048	315.6516	347.0928	452.6144	488.788	541.122	583.0842	654.5232	725.7932	778.8443	787.7817	825.4465	891.1153	909.6331	922.8832	974.3672	1008.0569	1037.6092	1054.9952	1073.7604	1094.35	1105.1005	1123.6884	1138.3393	1158.2058	1200.9485	1226.2408	1240.5605	1290.1575	1315.1473	1344.3557	1366.0417	1383.233	1401.9169	1414.2438	1415.9736	1446.4018	1485.4803	1492.1824	1497.4253	1514.4306	2977.6499	2997.9968	3039.2637	3051.1033	3072.3214	3095.0416	3112.9029	3118.5526	3140.1067	3155.9616	3180.223	3770.7056
CC1CC2C(CO)C2O1	C[C@H]1C[C@H]2[C@@H](CO)[C@H]2O1	
InChI=1S/C7H12O2/c1-4-2-5-6(3-8)7(5)9-4/h4-8H,2-3H2,1H3	InChI=1S/C7H12O2/c1-4-2-5-6(3-8)7(5)9-4/h4-8H,2-3H2,1H3/t4-,5-,6+,7-/m0/s1
