17
gdb 111950	3.20118	1.29256	0.99379	4.4917	71.49	-0.2304	-0.058	0.1724	1170.9523	0.135169	-458.970689	-458.961953	-458.961008	-459.005344	31.674	
C	-0.600165595	 1.0686689103	-0.1412054748	-0.251252
O	 0.4478392616	 0.1435639107	 0.1197102681	-0.257973
C	 0.9322637868	-0.5115842121	-1.0399660846	 0.024062
C	 2.3087043857	-1.0592966181	-0.7464175864	-0.073323
C	 2.4215820451	-2.3692520491	-0.9851865061	-0.185066
C	 1.1307624912	-2.925370235	-1.4581115081	 0.364023
O	 0.906936794	-4.0570304664	-1.8098221284	-0.314573
C	 0.0891325344	-1.7726838982	-1.4202526349	-0.009251
O	-0.9345665855	-2.0343964447	-0.4845799136	-0.420225
H	-0.2686091404	 1.8502344474	-0.8393538021	 0.115799
H	-1.4854819923	 0.5688888377	-0.5516856512	 0.136234
H	-0.8573468522	 1.5311625191	 0.8141422851	 0.135279
H	 0.9766220735	 0.2054107341	-1.8739471213	 0.088702
H	 3.0927620999	-0.4047019056	-0.3821711712	 0.127119
H	 3.3097209582	-2.9777246826	-0.8684088411	 0.125749
H	-0.3800447248	-1.6854935367	-2.405243001	 0.103003
H	-0.6463883003	-1.6333458707	 0.3468872815	 0.291692
18.0967	120.4125	177.7954	197.0287	249.4478	297.9631	326.3507	397.0715	433.9081	466.4856	546.7739	694.7783	698.693	783.1068	815.9245	829.0172	917.8731	1004.5996	1010.4391	1028.8345	1103.5087	1110.8225	1140.2825	1175.6063	1179.1526	1218.9513	1234.4734	1302.1575	1313.0985	1351.0059	1376.7909	1433.5934	1477.2114	1487.7472	1510.4513	1655.1317	1828.7151	2984.4502	3000.9949	3063.9453	3070.308	3127.5584	3196.5512	3225.2799	3749.8155
COC1C=CC(=O)C1O	CO[C@H]1C=CC(=O)[C@H]1O	
InChI=1S/C6H8O3/c1-9-5-3-2-4(7)6(5)8/h2-3,5-6,8H,1H3	InChI=1S/C6H8O3/c1-9-5-3-2-4(7)6(5)8/h2-3,5-6,8H,1H3/t5-,6+/m0/s1
