15
gdb 61334	6.70532	0.55812	0.52673	4.1762	80.31	-0.2654	-0.0606	0.2048	1953.4737	0.10823	-420.558816	-420.548631	-420.547686	-420.595972	34.237	
O	-0.0833243873	 1.4416472982	 0.0181452746	-0.405181
C	 0.0069349754	 0.0278186796	 0.0396675377	-0.044428
C	 0.6582981673	-0.5295179652	-1.2576371805	-0.378784
C	-0.0505403876	-0.1309297445	-2.4613097556	 0.093539
C	-0.6411373726	 0.1884843727	-3.4650951957	 0.050506
C	-1.3718105855	 0.5945750196	-4.637379668	 0.017996
O	-1.0253631154	 0.3702465899	-5.7746276546	-0.229373
C	 0.7289391233	-0.4647495595	 1.2150958555	 0.28927
C	 1.3664822738	-0.8446393419	 2.1605166068	-0.431394
H	 0.7939670811	 1.7984071831	 0.1981226028	 0.290301
H	-1.030721451	-0.3224259078	 0.0741979458	 0.135067
H	 1.6995405678	-0.1861405635	-1.3059264308	 0.145876
H	 0.6991348689	-1.6239876363	-1.1961563991	 0.156717
H	-2.3074296248	 1.147556998	-4.4163825762	 0.101327
H	 1.9084090367	-1.1836751524	 3.0092533775	 0.208562
24.9208	53.5816	63.0802	155.532	173.4701	185.5997	226.6544	301.5414	352.5411	407.2031	452.5619	534.0662	568.9642	612.6213	652.6256	682.9054	836.9144	850.0486	944.54	1022.2932	1026.4292	1081.707	1159.236	1193.6637	1273.5629	1309.4106	1356.4238	1421.351	1423.0476	1448.4576	1767.6078	2234.9856	2333.2252	2919.2286	3028.5799	3053.0326	3070.9332	3500.8226	3804.0596
OC(CC#CC=O)C#C	O[C@@H](CC#CC=O)C#C	
InChI=1S/C7H6O2/c1-2-7(9)5-3-4-6-8/h1,6-7,9H,5H2	InChI=1S/C7H6O2/c1-2-7(9)5-3-4-6-8/h1,6-7,9H,5H2/t7-/m1/s1
