17
gdb 62003	4.05831	0.74051	0.63995	2.7392	72.57	-0.2453	0.021	0.2663	1662.8676	0.13413	-455.14233	-455.132147	-455.131203	-455.178723	36.423	
N	-0.054544628	 1.3478186039	-0.1770608923	-0.567119
C	 0.048303496	-0.0073161666	 0.1219693729	 0.455174
O	 1.0343654552	-0.4930564873	 0.6447894598	-0.393744
N	-1.0532237677	-0.7419129902	-0.2502918772	-0.345318
C	-1.0517810581	-2.1844724015	-0.1692998285	-0.144287
C	-2.4889443488	-2.6768857757	 0.0681697614	-0.065975
O	-3.3664164434	-2.1580656632	-0.9378538588	-0.428549
C	-2.5466204099	-4.1355890217	 0.1424146194	 0.292975
C	-2.5731779977	-5.3371658457	 0.1550148251	-0.434605
H	 0.642087757	 1.8967310215	 0.3037806941	 0.259878
H	-0.9761475039	 1.759236266	-0.1655862504	 0.246832
H	-1.7338072246	-0.3420088106	-0.8772047604	 0.245241
H	-0.6631741546	-2.6539874041	-1.0860419048	 0.103136
H	-0.3952485504	-2.4792190908	 0.6513666778	 0.154102
H	-2.8507859575	-2.2405425045	 1.0062330358	 0.126518
H	-3.2714085405	-2.7163242591	-1.7181899112	 0.289612
H	-2.6064322032	-6.3985512903	 0.1861468372	 0.20613
27.2192	67.9345	85.3867	163.4601	205.0497	250.0547	290.2895	319.206	388.2899	400.0596	474.9038	516.5226	549.8956	567.7324	577.6034	642.1566	672.8617	681.6371	777.3926	850.7974	968.1897	972.0604	1077.6325	1082.559	1103.0254	1175.055	1217.6901	1277.7285	1285.1821	1334.1117	1394.9008	1421.2166	1499.5271	1535.244	1627.5193	1801.6493	2236.2837	2988.7082	3053.4997	3125.1373	3501.8837	3571.6303	3629.6684	3685.9642	3801.9303
NC(=O)NCC(O)C#C	NC(=O)NC[C@@H](O)C#C	
InChI=1S/C5H8N2O2/c1-2-4(8)3-7-5(6)9/h1,4,8H,3H2,(H3,6,7,9)	InChI=1S/C5H8N2O2/c1-2-4(8)3-7-5(6)9/h1,4,8H,3H2,(H3,6,7,9)/t4-/m0/s1
