19
gdb 62955	2.11466	1.84631	1.42842	0.6603	74.5	-0.2513	0.071	0.3222	1018.4409	0.156678	-422.96481	-422.956182	-422.955238	-422.997472	33.372	
C	-0.0261431272	 1.5732758239	-0.1132769035	-0.451092
C	 0.004801931	 0.0535118073	 0.0021554608	 0.167513
C	-1.3781259529	-0.5817594879	-0.137557864	-0.435249
C	 1.0655043696	-0.6633341922	-0.8775340466	 0.005146
O	 2.3574322197	-0.1932311234	-0.4823323099	-0.248715
C	 1.7485024741	-1.2424233642	 0.2910661908	-0.103343
C	 0.7757751724	-0.5454331705	 1.2264525003	 0.421726
C	 0.9501592362	-0.0832520297	 2.5997220204	-0.263649
O	 0.1114990342	-1.2114364303	 2.2818872538	-0.277749
H	 0.9848317852	 1.9839099709	-0.055810811	 0.133899
H	-0.4726228327	 1.8845723916	-1.0645294066	 0.113683
H	-0.6254841059	 2.0142089776	 0.6910532177	 0.114338
H	-1.8359330762	-0.2969368627	-1.0909907642	 0.112635
H	-1.3261928793	-1.6739549026	-0.0936637961	 0.123048
H	-2.0366636262	-0.2519621713	 0.6709516515	 0.128716
H	 0.9560426747	-1.0453739183	-1.8867270474	 0.10455
H	 2.2965444142	-2.1679348149	 0.4229371643	 0.115092
H	 1.8637631567	-0.3193643735	 3.1430492204	 0.120364
H	 0.4183871824	 0.8023987202	 2.9439051092	 0.119087
115.3586	196.2897	205.3895	218.3975	246.1595	268.7703	308.9197	343.5011	413.9197	523.8249	555.222	607.3606	658.3899	833.3197	844.5606	859.7366	872.3354	906.6676	954.5158	957.4553	979.7061	994.6177	1034.8311	1046.8762	1119.4308	1136.5891	1153.6422	1190.6515	1205.9363	1218.9153	1241.2216	1302.2566	1366.5343	1397.6083	1416.5375	1443.5458	1482.0573	1484.008	1499.7366	1506.9688	1537.876	3028.6926	3035.7324	3085.9676	3089.1681	3104.2446	3113.6091	3122.1574	3173.7095	3175.786	3195.0195
CC1(C)C2OC2C11CO1	CC1(C)[C@H]2O[C@H]2[C@]21CO2	
InChI=1S/C7H10O2/c1-6(2)4-5(9-4)7(6)3-8-7/h4-5H,3H2,1-2H3	InChI=1S/C7H10O2/c1-6(2)4-5(9-4)7(6)3-8-7/h4-5H,3H2,1-2H3/t4-,5+,7-/m0/s1
