23
gdb 89985	2.64936	1.25809	1.11719	2.068	84.68	-0.2404	0.063	0.3033	1239.0502	0.205279	-388.263546	-388.254145	-388.253201	-388.297927	35.669	
C	-0.349886983	 1.4931703188	-0.061761798	-0.397745
C	-0.065711623	-0.0047503873	 0.0118525367	 0.003436
C	 1.1001837466	-0.4682091713	-0.9101533461	-0.310849
C	 2.0421453533	-0.5086404283	 0.316444611	 0.299
C	 3.1772123781	-1.5329257989	 0.4802706847	-0.141496
O	 4.1728340105	-0.4970263931	 0.6008959846	-0.276235
C	 3.1764499773	 0.533517905	 0.453362708	-0.129347
C	 0.7870546005	-0.4834848765	 1.2351094724	-0.030677
C	 0.7939969306	 0.2996561292	 2.5397550716	-0.424473
H	 0.564659859	 2.0905850163	 0.0281156603	 0.116604
H	-0.8099641399	 1.7469079425	-1.0229331881	 0.11482
H	-1.0341070908	 1.8142758238	 0.7307187063	 0.115314
H	-1.0032256557	-0.5533427646	-0.1206068943	 0.063455
H	 0.9354374748	-1.4652433442	-1.330882154	 0.097441
H	 1.3835985184	 0.2076453518	-1.7234214739	 0.096184
H	 3.121758745	-2.1569374588	 1.3835440548	 0.094045
H	 3.358772803	-2.1816917476	-0.3878588527	 0.095386
H	 3.3521515885	 1.1504805045	-0.4386275561	 0.093857
H	 3.1361847568	 1.1880709558	 1.3334550775	 0.097909
H	 0.5199970778	-1.5257939175	 1.4521427843	 0.070599
H	 1.0252715681	 1.3581556505	 2.3876629505	 0.117837
H	-0.1826910008	 0.24344321	 3.0329869277	 0.11521
H	 1.5376954349	-0.1043445	 3.2359739628	 0.119726
59.0386	70.3944	202.8085	211.7924	242.5578	249.3244	262.7356	330.8848	371.8783	422.9102	487.2128	542.2618	716.0761	787.0059	821.1597	853.6402	866.7171	907.7459	946.5538	954.6167	986.6342	990.1409	1033.3246	1040.8966	1063.3403	1109.1743	1117.8363	1151.8285	1160.4579	1193.9422	1201.4867	1204.3201	1225.7034	1271.5365	1285.532	1297.2597	1306.2664	1369.574	1370.4586	1381.7342	1410.3504	1415.8608	1482.3038	1491.2419	1492.0361	1502.1297	1503.6558	1508.9874	1531.7089	2987.1202	3002.1325	3015.1546	3025.7024	3029.9758	3031.3654	3039.234	3041.4864	3051.9621	3089.6997	3090.6639	3093.3221	3097.6377	3104.6063
CC1CC2(COC2)C1C	C[C@H]1CC2(COC2)[C@H]1C	
InChI=1S/C8H14O/c1-6-3-8(7(6)2)4-9-5-8/h6-7H,3-5H2,1-2H3	InChI=1S/C8H14O/c1-6-3-8(7(6)2)4-9-5-8/h6-7H,3-5H2,1-2H3/t6-,7-/m0/s1
