20
gdb 97456	7.39557	0.49531	0.4696	1.4524	81.84	-0.2481	-0.0205	0.2276	2322.4633	0.166534	-440.302308	-440.291083	-440.290139	-440.341448	37.014	
C	-0.0240159282	 1.3803197767	 0.0591636671	-0.314698
N	 0.1127020003	-0.0589915324	 0.1298648166	-0.206035
C	 0.5291022777	-0.650698724	-0.898323651	 0.131556
O	 0.6817107885	-1.9905050419	-0.9069492373	-0.211378
C	 1.161077006	-2.5525995586	-2.1298932804	-0.074148
C	 1.2530847832	-4.0555158381	-1.9254297384	-0.314805
C	 1.7560254502	-4.7828412237	-3.1634188078	 0.377889
C	 1.875787853	-6.291002528	-3.0572164089	-0.474005
O	 2.0426980706	-4.1830147311	-4.1754896038	-0.292125
H	 0.5948244192	 1.8474530435	 0.8339420081	 0.127299
H	 0.2593413475	 1.811904557	-0.9151911053	 0.095619
H	-1.0619921093	 1.6623620067	 0.2701388766	 0.127285
H	 0.7964044059	-0.1549521277	-1.8454172298	 0.075479
H	 0.4785735756	-2.3192021916	-2.955517175	 0.122768
H	 2.1440571992	-2.1396737502	-2.3850957973	 0.122993
H	 1.9153313646	-4.2821352161	-1.0800821013	 0.137896
H	 0.2727239183	-4.4594619213	-1.6422484007	 0.13763
H	 0.900510558	-6.7346775053	-2.8272773607	 0.14261
H	 2.2531910852	-6.6991884866	-3.9952806157	 0.146079
H	 2.5487165645	-6.5642511373	-2.2367891949	 0.142089
20.6623	47.1313	63.0879	84.3064	113.5376	120.7475	206.3632	210.0486	268.9887	309.2841	364.4814	480.6181	489.8228	558.9571	630.0916	760.8404	846.1364	937.6013	941.608	983.2777	1033.8711	1067.9828	1113.8179	1119.4508	1141.2066	1155.648	1184.1136	1217.1319	1251.1564	1306.2927	1335.9207	1385.3579	1396.6633	1432.935	1450.867	1457.0798	1467.2212	1476.0554	1480.4204	1505.2867	1514.5554	1781.6974	1806.4025	2964.974	2987.8188	3028.0149	3034.054	3041.1523	3056.7068	3058.5544	3075.8315	3080.8262	3098.8145	3154.5
CN=COCCC(C)=O	CN=COCCC(=O)C	
InChI=1S/C6H11NO2/c1-6(8)3-4-9-5-7-2/h5H,3-4H2,1-2H3	InChI=1S/C6H11NO2/c1-6(8)3-4-9-5-7-2/h5H,3-4H2,1-2H3
