16
gdb 28609	5.04363	0.9773	0.86002	2.5263	71.7	-0.2058	0.0377	0.2435	1295.3597	0.126916	-434.076882	-434.069051	-434.068107	-434.110029	29.324	
O	-0.0198398931	 1.297197659	 0.2397926824	-0.424912
C	 0.048822548	-0.0288949682	 0.0363815194	 0.443798
N	 0.167161875	-0.6432322288	-1.108380455	-0.360382
C	 0.1904300877	-1.9892978329	-0.7741499713	-0.182031
C	 0.0750250794	-2.171046189	 0.5757218944	 0.291651
N	-0.0089820481	-0.8754116193	 1.0948319005	-0.367418
C	 0.0664028508	-3.3719086042	 1.4326817567	-0.140111
C	-1.2226924451	-3.9326795879	 1.9382888982	-0.233109
N	-0.4566284979	-4.6412117276	 0.9029245477	-0.305523
H	 0.0396235818	 1.7059801617	-0.633093254	 0.315327
H	 0.3047607264	-2.748056061	-1.5332219905	 0.112803
H	-0.1324578733	-0.6142373984	 2.0583448682	 0.271635
H	 0.9458434669	-3.5125449801	 2.0611341888	 0.104322
H	-1.252649853	-4.4272195095	 2.9050454408	 0.120065
H	-2.138247171	-3.4238660608	 1.6499313216	 0.116612
H	-0.8860833646	-4.4680975732	-0.0030591279	 0.237271
41.5479	126.8736	164.8792	279.499	361.9808	406.5806	423.8647	474.7882	503.4912	612.1755	681.7276	730.7548	735.7602	834.1692	843.2481	883.7289	965.8681	991.308	1017.61	1045.7338	1102.1038	1142.5782	1154.219	1173.0067	1207.1556	1228.0351	1262.8764	1294.5497	1301.3658	1366.5642	1415.3283	1503.4161	1552.3333	1604.03	1642.7133	3097.8851	3110.9872	3200.4146	3250.5351	3500.0416	3671.5497	3802.501
OC1=NC=C(N1)C1CN1	Oc1ncc([nH]1)[C@H]1CN1	
InChI=1S/C5H7N3O/c9-5-7-2-4(8-5)3-1-6-3/h2-3,6H,1H2,(H2,7,8,9)	InChI=1S/C5H7N3O/c9-5-7-2-4(8-5)3-1-6-3/h2-3,6H,1H2,(H2,7,8,9)/t3-/m1/s1
