13
gdb 18416	3.35858	2.04541	1.66324	3.6861	63.84	-0.2514	-0.0212	0.2302	788.8178	0.094317	-361.402185	-361.395336	-361.394392	-361.433233	25.83	
O	 0.0267510569	 0.0128108632	 0.0465842332	-0.279506
C	-0.0211841375	 1.1983192551	 0.0795077282	 0.415186
C	-1.1281173617	 2.2659072771	 0.1359487381	-0.386165
C	 0.0211391812	 3.2653368029	 0.042665247	-0.02868
C	 1.0199063129	 3.0695042143	 1.1158130538	-0.211268
C	 0.6905935454	 2.5752174537	 2.4231934807	 0.356387
C	 0.4329378877	 2.1734852906	 3.5264781315	-0.438377
N	 1.070477648	 2.1625581126	-0.0945605557	-0.195721
H	-1.7587472033	 2.2323263413	-0.755695671	 0.146408
H	-1.7517890707	 2.2900171668	 1.0313947724	 0.14854
H	 0.0550147207	 4.1257315402	-0.6144965384	 0.121116
H	 1.870413992	 3.7458732536	 1.0932862827	 0.139453
H	 0.2074702384	 1.8111772088	 4.4994139273	 0.212626
97.289	155.2804	225.1995	346.2312	468.0729	481.119	547.7138	609.0748	632.0488	662.6745	678.1925	743.3744	804.3979	850.765	928.2533	964.4269	998.9931	1021.4682	1064.6273	1105.2309	1150.8167	1221.7062	1235.0909	1336.373	1391.3509	1449.8375	1931.4153	2239.4966	3079.2428	3137.1007	3147.5259	3195.5399	3500.6394
O=C1CC2C(C#C)N12	O=C1C[C@H]2[C@@H](C#C)N12	
InChI=1S/C6H5NO/c1-2-4-5-3-6(8)7(4)5/h1,4-5H,3H2	InChI=1S/C6H5NO/c1-2-4-5-3-6(8)7(4)5/h1,4-5H,3H2/t4-,5+,7?/m1/s1
