19
gdb 79088	2.92448	1.62514	1.38658	1.3774	79.04	-0.2186	0.0037	0.2223	999.6866	0.159525	-385.837336	-385.829606	-385.828662	-385.868919	31.475	
C	 0.0432352851	 1.5035160067	-0.0144530142	-0.526361
C	 0.0288628098	 0.0019518206	-0.0340526385	 0.298776
C	 0.5278076461	-0.9540927997	-1.1474158225	 0.123223
O	 1.8790990341	-0.9524195721	-1.5355753868	-0.455055
C	 0.016454725	-1.9062353635	-0.0453292655	-0.100724
C	 0.6384294607	-0.9762036388	 1.066666271	-0.130921
C	-0.3296882432	-0.975647761	 2.237139997	-0.115281
C	-1.5297253613	-0.9627717388	 1.653175281	-0.1069
C	-1.2157581973	-0.9555880055	 0.1668096735	-0.099374
H	 1.0619206225	 1.8840745154	-0.1463320117	 0.122526
H	-0.5712189424	 1.9128261131	-0.8238650155	 0.120975
H	-0.3458280841	 1.883657027	 0.9365251875	 0.123778
H	-0.0477680989	-0.9421078147	-2.0776115548	 0.077815
H	 2.4290308887	-1.0181872385	-0.7484607023	 0.282007
H	 0.0001068115	-2.9990651646	-0.0397697262	 0.069492
H	 1.7115568825	-0.9848439453	 1.2694969476	 0.049483
H	-0.068926336	-0.9797512635	 3.2859269948	 0.101534
H	-2.5159034104	-0.9525748267	 2.0954446316	 0.103732
H	-2.0233736825	-0.9466352298	-0.566925086	 0.061274
187.8847	210.0715	221.0827	236.1957	268.5194	301.5197	489.3702	524.4792	547.9152	615.6476	710.5943	727.2551	763.1624	783.9126	808.7111	861.8016	907.0498	917.3066	920.7598	951.0062	969.2204	996.2513	1026.5565	1097.756	1119.2257	1124.1202	1128.3108	1146.3479	1173.2427	1213.4775	1245.2613	1260.2794	1280.2593	1297.2886	1331.7487	1339.663	1402.6425	1454.0682	1485.676	1487.0746	1633.7649	3026.1527	3071.5046	3082.3628	3090.2449	3094.4788	3096.7341	3107.0929	3220.6605	3247.8874	3819.7428
CC12C(O)C3C1C=CC23	C[C@@]12[C@@H](O)[C@H]3[C@@H]1C=C[C@@H]23	
InChI=1S/C8H10O/c1-8-4-2-3-5(8)6(4)7(8)9/h2-7,9H,1H3	InChI=1S/C8H10O/c1-8-4-2-3-5(8)6(4)7(8)9/h2-7,9H,1H3/t4-,5+,6-,7-,8+/m0/s1
