20
gdb 55275	2.42489	1.36554	1.10407	1.7933	75.43	-0.2285	-0.0141	0.2144	1187.7125	0.168247	-440.283854	-440.273902	-440.272958	-440.318932	36.589	
C	 0.6632790215	 0.4995244914	-0.7697554502	-0.481169
C	-0.5808947039	 0.7216423083	 0.0595594685	 0.367733
O	-0.8324514074	 1.7759034978	 0.6057866196	-0.321555
C	-1.5498007477	-0.4361528293	 0.2170978741	-0.121959
N	-1.089955585	-1.8025013198	-0.1107061478	-0.334559
C	-1.827264204	-2.3532063633	 1.0561690184	-0.198947
C	-1.8833902593	-0.9355973281	 1.6738428401	 0.391147
C	-0.8050517993	-0.6558901322	 2.7114165385	-0.457368
O	-3.1663676535	-0.6162836354	 2.1501015721	-0.467177
H	 1.2933722535	 1.3892873105	-0.7454422009	 0.135554
H	 1.2040860628	-0.3780569449	-0.4040342353	 0.155685
H	 0.383596647	 0.2738430902	-1.806355316	 0.134658
H	-2.4983914223	-0.1455744547	-0.257950879	 0.09698
H	-1.3947086029	-2.1572895935	-1.0104245041	 0.222407
H	-2.8414245154	-2.7045735995	 0.8306251514	 0.106995
H	-1.2856282168	-3.1256005497	 1.6117465894	 0.103154
H	 0.1757849062	-0.9845574888	 2.3540902353	 0.127144
H	-0.7427339162	 0.4151509573	 2.9290645527	 0.134171
H	-1.0378488606	-1.1930969959	 3.6357110182	 0.121844
H	-3.1381026267	 0.2868316996	 2.4867248849	 0.285263
47.3083	96.8138	115.4959	157.4869	221.6516	274.0386	284.3124	324.5054	353.4115	390.106	443.1408	486.6841	505.7397	605.0105	629.0607	727.0542	811.3848	898.9078	909.4909	948.3254	983.9632	992.4146	1019.7593	1029.2377	1055.4771	1119.1974	1135.7269	1172.0028	1194.2322	1245.3332	1269.2722	1308.7751	1347.8746	1372.4906	1377.1447	1398.8387	1403.7509	1454.6176	1465.3959	1491.8495	1497.2405	1515.5479	1790.2086	2997.4313	3024.0745	3035.9198	3036.4425	3078.0251	3102.5067	3111.0413	3115.1968	3156.7863	3526.8624	3797.3495
CC(=O)C1NCC1(C)O	CC(=O)[C@H]1NC[C@]1(C)O	
InChI=1S/C6H11NO2/c1-4(8)5-6(2,9)3-7-5/h5,7,9H,3H2,1-2H3	InChI=1S/C6H11NO2/c1-4(8)5-6(2,9)3-7-5/h5,7,9H,3H2,1-2H3/t5-,6+/m1/s1
