18
gdb 76840	2.28824	1.80986	1.38958	4.1011	71.76	-0.2334	0.0032	0.2367	996.3298	0.147242	-439.074013	-439.06567	-439.064726	-439.106898	31.735	
C	-0.2916943988	 1.5453373954	 0.0964983207	-0.414777
C	-0.0120377713	 0.0593048774	-0.0067598813	 0.007329
C	 0.7367665062	-0.4947836669	-1.2772748848	 0.063222
O	 1.4184505069	 0.4632309991	-2.0531397998	-0.414281
C	 1.7109391685	-1.2160163679	-0.3059926872	 0.006013
C	 3.0695439563	-0.5558671394	 0.0052863759	-0.381524
C	 2.2739243498	 0.2641270748	 1.0465048167	 0.397313
O	 2.4828687578	 1.2269167822	 1.7253059553	-0.329503
N	 1.0850059315	-0.5028232421	 0.8636001821	-0.158657
H	 0.5779342616	 2.1389513535	-0.1921621417	 0.142802
H	-1.1327971249	 1.8130616145	-0.5528861414	 0.110065
H	-0.5589183855	 1.8129944769	 1.1222042213	 0.146547
H	-0.9249186329	-0.5149593049	 0.184384393	 0.088833
H	 0.1329670143	-1.1627762291	-1.9055078952	 0.072963
H	 0.7706880328	 0.9798242386	-2.5434702377	 0.293212
H	 1.6588034858	-2.3055939267	-0.3011465506	 0.085041
H	 3.8308016996	-1.2268843933	 0.4096527575	 0.130116
H	 3.4984628925	 0.0589465881	-0.7864500126	 0.155285
68.6143	153.1047	200.0827	231.5333	258.0443	286.3114	374.2713	437.3188	505.0651	527.3549	557.4557	698.2683	719.7353	762.3865	829.6508	850.4162	936.3759	976.0597	987.7023	1007.8362	1034.6778	1066.4363	1094.613	1154.3978	1156.8038	1170.2113	1197.8524	1218.557	1240.0298	1290.2193	1301.315	1335.2119	1375.8503	1402.5714	1418.9482	1440.4406	1484.7122	1496.1588	1883.3452	3010.863	3039.8189	3047.6185	3081.6725	3102.4522	3111.868	3138.7732	3150.6659	3818.0825
CC1C(O)C2CC(=O)N12	C[C@H]1[C@@H](O)[C@H]2CC(=O)N12	
InChI=1S/C6H9NO2/c1-3-6(9)4-2-5(8)7(3)4/h3-4,6,9H,2H2,1H3	InChI=1S/C6H9NO2/c1-3-6(9)4-2-5(8)7(3)4/h3-4,6,9H,2H2,1H3/t3-,4+,6+/m0/s1
