18
gdb 83856	2.27017	1.80638	1.38647	3.2098	73.05	-0.245	0.009	0.254	997.8762	0.149773	-439.081672	-439.073967	-439.073023	-439.113819	30.379	
O	 0.0622477142	 1.3966816588	 0.0437819034	-0.422417
C	-0.0150623458	 0.0093892812	-0.009426997	 0.122341
C	-1.3334826425	-0.7075090131	 0.0520133079	-0.116845
C	-2.5962748705	 0.1455694871	 0.0801596814	-0.248576
C	-3.0279865355	 0.5413723054	-1.3276737895	-0.089331
O	-1.9147571539	 1.0305575945	-2.1088902798	-0.275381
C	-0.9575149641	 0.0709717403	-2.3988496707	 0.363597
N	-0.4449115147	-0.0367562683	-3.5491075163	-0.510721
C	-0.5108899954	-0.7362458564	-1.2440463841	-0.147064
H	-0.5050113686	 1.7706083116	-0.6429090261	 0.298521
H	 0.8311038967	-0.4313279064	 0.5063913446	 0.114621
H	-1.3646903712	-1.6362912689	 0.6115320117	 0.098074
H	-3.4140718018	-0.4005935359	 0.5595303997	 0.112227
H	-2.4148460463	 1.0469400312	 0.6773192345	 0.124334
H	-3.4719278426	-0.3118003448	-1.8559542564	 0.116583
H	-3.7544047631	 1.3569379376	-1.3204162313	 0.121543
H	-0.8866256396	 0.6263233252	-4.189252444	 0.222187
H	 0.0113195247	-1.6430515791	-1.5203256382	 0.116306
89.6734	158.5978	197.4248	275.641	399.3133	414.3893	423.7809	492.9528	498.1066	593.477	691.6736	737.3163	762.436	776.3323	818.2317	899.6386	920.8234	931.4541	947.1025	1020.6283	1046.3174	1051.7698	1084.6729	1119.1746	1125.64	1132.2989	1213.013	1253.0895	1277.1719	1295.2046	1333.6451	1358.7929	1373.4544	1375.5667	1420.1766	1456.9939	1487.1368	1506.2144	1753.3733	3027.6197	3039.5655	3089.1134	3110.3207	3159.951	3174.045	3200.1409	3467.5189	3761.8156
OC1C2CCOC(=N)C12	O[C@H]1[C@H]2CCO[C]([NH])[C@@H]12	
InChI=1S/C6H9NO2/c7-6-4-3(5(4)8)1-2-9-6/h3-5,7-8H,1-2H2	InChI=1S/C6H9NO2/c7-6-4-3(5(4)8)1-2-9-6/h3-5,7-8H,1-2H2/t3-,4+,5-/m0/s1
