19
gdb 32851	6.16499	0.79813	0.72025	1.7313	80.93	-0.1932	0.0392	0.2324	1613.057	0.159453	-419.25219	-419.242812	-419.241868	-419.287054	33.674	
C	 0.038697982	 1.4459441442	 0.1195472661	-0.394447
C	-0.1934976134	-0.0302251729	-0.1842094495	-0.123185
N	 0.7725860622	-0.5044655314	-1.1699578303	-0.397814
C	 0.8984884566	-1.831551525	-1.4648170254	 0.499242
N	 1.3912139477	-2.3551849336	-2.5484721614	-0.413044
C	 1.3618240232	-3.7313438932	-2.3013674394	 0.263173
C	 1.8536210579	-4.7126723281	-3.3096551368	-0.490283
C	 0.8381878751	-3.9504868543	-1.0762859162	-0.141273
O	 0.5276242111	-2.718186877	-0.5159712219	-0.191345
H	 1.0501341481	 1.6103544455	 0.5015758407	 0.13285
H	-0.0900858663	 2.0609208391	-0.7785950477	 0.118443
H	-0.6786566134	 1.7976260866	 0.8660923963	 0.124866
H	-0.0632737179	-0.6276351464	 0.7218684451	 0.134514
H	-1.2297006814	-0.1878857608	-0.5228908347	 0.103779
H	 0.888370111	 0.0742353956	-1.9894586736	 0.2531
H	 2.9102039304	-4.5382940163	-3.540092662	 0.135251
H	 1.7441224893	-5.7384651256	-2.9482668729	 0.119813
H	 1.299774472	-4.6160026581	-4.2497591061	 0.13424
H	 0.6127435457	-4.8145809785	-0.4773462303	 0.132123
52.8277	71.6365	130.9636	152.0813	211.2954	260.419	297.6094	340.1872	350.6551	477.604	565.32	637.282	671.0335	674.1848	759.4544	784.5964	817.8813	921.5091	970.5784	1011.3098	1027.0115	1066.7852	1072.0301	1102.0148	1145.5821	1186.4097	1235.7564	1296.1565	1308.1605	1368.4015	1411.8331	1417.0159	1427.2848	1466.0985	1474.1808	1491.1835	1494.4151	1500.1709	1524.6146	1648.283	1676.8915	2978.6822	3035.0944	3036.8941	3087.177	3089.4959	3109.7318	3119.7303	3124.8658	3301.2377	3610.3062
CCNC1=NC(C)=CO1	CCNc1nc(C)co1	
InChI=1S/C6H10N2O/c1-3-7-6-8-5(2)4-9-6/h4H,3H2,1-2H3,(H,7,8)	InChI=1S/C6H10N2O/c1-3-7-6-8-5(2)4-9-6/h4H,3H2,1-2H3,(H,7,8)
