19
gdb 40301	4.81932	0.65415	0.64522	1.9274	87.97	-0.2343	0.0261	0.2604	1813.5263	0.159017	-385.825539	-385.816446	-385.815502	-385.862119	32.228	
C	-0.0585881608	 1.2013323178	-0.5424333029	-0.249595
C	 1.1681033145	 1.284013636	 0.3135471062	-0.251598
C	 0.5101229253	-0.0681118627	 0.0756992388	-0.158675
C	-0.1929245736	-0.7244669861	 1.1370150166	 0.091497
C	-0.7882938291	-1.2802859557	 2.0274045138	 0.077149
C	-1.4897418021	-1.9486167226	 3.1054136688	-0.032467
C	-1.4199884307	-1.3231782717	 4.5273838669	-0.282424
C	-2.9571118204	-1.3126435794	 4.4440063722	-0.058913
O	-2.9352616636	-1.7735328171	 3.0769406014	-0.280118
H	-0.9926758272	 1.5688458361	-0.1353368633	 0.1312
H	 0.0465026034	 1.3160192111	-1.6152663906	 0.120225
H	 2.125681814	 1.4582314311	-0.163992684	 0.119282
H	 1.0705900299	 1.7090673706	 1.3052049356	 0.125635
H	 1.0310574504	-0.7304083883	-0.6097395146	 0.111086
H	-1.240876469	-3.019173826	 3.0979955997	 0.098493
H	-0.9728907813	-1.952562988	 5.297563591	 0.112957
H	-0.9576012754	-0.3363377777	 4.5445644071	 0.119687
H	-3.4635730935	-2.0261298767	 5.1068162219	 0.0998
H	-3.444302901	-0.3353884906	 4.5375187154	 0.10678
15.6916	55.3123	85.5536	101.1802	203.0541	242.567	371.3672	455.889	543.3694	553.7515	669.4878	765.7873	795.4751	821.7859	823.4244	879.4023	893.4124	937.2241	948.6114	998.0098	1025.2217	1061.6931	1079.7819	1085.7131	1091.3304	1118.0582	1164.2087	1188.3551	1201.4077	1214.3502	1232.1297	1255.508	1261.4147	1351.6363	1368.5099	1395.4374	1467.0122	1488.1199	1496.3519	1532.0363	2350.1376	2998.2736	3014.8267	3057.7641	3089.7606	3141.4709	3143.268	3148.1388	3149.5923	3226.5785	3241.7738
C1CC1C#CC1CCO1	C1CC1C#C[C@H]1CCO1	
InChI=1S/C8H10O/c1-2-7(1)3-4-8-5-6-9-8/h7-8H,1-2,5-6H2	InChI=1S/C8H10O/c1-2-7(1)3-4-8-5-6-9-8/h7-8H,1-2,5-6H2/t8-/m0/s1
