14
gdb 18984	4.50429	2.34004	1.91069	0.9945	55.73	-0.246	0.0606	0.3067	689.5261	0.109028	-419.595377	-419.589981	-419.589037	-419.624672	21.938	
C	 0.0236147213	 1.4029759388	 0.078195616	 0.017937
O	 1.3451788068	 1.8911755747	 0.0574305571	-0.263141
C	 2.1112232285	 1.211849045	-0.9032937534	 0.119733
C	 1.3814910366	 0.4087990075	-2.0318443838	-0.054646
O	 2.5648492792	-0.4522562919	-2.1292705128	-0.303248
C	 2.3672518108	-0.3040680153	-0.6777469313	-0.007572
C	 0.8455155314	-0.5282372209	-0.8979515314	 0.119733
O	-0.0339026135	-0.0047743063	 0.0632551405	-0.26314
H	-0.4437725215	 1.7457865934	 1.0025094242	 0.129044
H	-0.5208636271	 1.7963333397	-0.7973968529	 0.093983
H	 2.9693140673	 1.8147039489	-1.2002463685	 0.105285
H	 0.9262797243	 0.7370425146	-2.9660178492	 0.10124
H	 3.0613495444	-0.8068801727	-0.0058064859	 0.099508
H	 0.5353622633	-1.5314653833	-1.1899664484	 0.105285
265.1519	291.7762	435.8869	467.7344	539.6622	571.1502	719.722	773.1252	860.2062	879.4179	893.8022	905.139	982.6785	999.0968	1029.9038	1031.0522	1054.4825	1139.9795	1145.2196	1175.1349	1178.0524	1211.234	1219.1596	1260.9127	1265.5207	1277.4633	1332.6398	1387.5567	1447.9966	1522.6949	2955.6715	3117.6957	3123.5721	3127.3884	3127.9542	3141.8943
C1OC2C3OC2C3O1	C1O[C@@H]2[C@H]3O[C@@H]2[C@H]3O1	
InChI=1S/C5H6O3/c1-6-2-4-3(7-1)5(2)8-4/h2-5H,1H2	InChI=1S/C5H6O3/c1-6-2-4-3(7-1)5(2)8-4/h2-5H,1H2/t2-,3+,4-,5+
