19
gdb 82815	2.43508	1.98523	1.54941	2.1662	73.85	-0.2409	0.0693	0.3103	945.6305	0.160006	-422.986501	-422.979017	-422.978073	-423.017924	30.595	
C	 0.0982581001	 1.4842637864	-0.0644609854	-0.49993
C	-0.0663348077	-0.0038649062	 0.0504808662	 0.393873
O	 0.5064731739	-0.7226499447	-1.0846620511	-0.355042
C	-0.5953506132	-1.6709324211	-1.093333308	 0.105571
C	-0.3745546272	-2.8093316801	-0.0751831072	-0.251422
C	-0.7647926103	-1.8325497151	 1.0606547056	-0.102385
C	 0.3550300135	-0.7743076051	 1.3298367942	 0.128443
O	 1.6931131369	-1.1750203594	 1.3962257864	-0.446724
C	-1.3685642324	-0.8525109742	-0.0212719517	-0.152559
H	 1.1615972139	 1.7474201316	-0.041053882	 0.135113
H	-0.3266622534	 1.8547113679	-1.0018844608	 0.125418
H	-0.3961004001	 1.9903867412	 0.7708436605	 0.120234
H	-0.9210796589	-1.897076514	-2.1104072879	 0.079851
H	-1.1352290634	-3.5864930804	-0.2007953666	 0.104259
H	 0.6148012328	-3.2748919578	-0.0405617924	 0.103621
H	-1.3062015253	-2.2236526471	 1.9211568653	 0.068187
H	 0.1242226993	-0.2006304677	 2.2342796949	 0.081915
H	 1.9562193612	-1.3308698558	 0.4777143604	 0.286987
H	-2.3871700798	-0.4807658384	-0.0846204604	 0.07459
165.1379	200.4955	225.2208	260.5783	289.7123	435.6613	485.1713	532.6446	576.3253	592.8538	696.1418	764.8105	796.5751	828.8151	852.1493	857.0422	900.0323	922.1558	968.9653	978.9495	1001.0889	1031.7784	1100.4031	1119.3712	1127.954	1141.6963	1144.7015	1175.6879	1186.9413	1207.5943	1257.8482	1265.476	1306.8041	1310.7283	1330.2045	1349.2567	1409.0178	1439.7577	1477.3267	1479.3634	1488.5752	3033.8727	3047.0574	3053.2911	3089.7537	3101.8645	3104.304	3114.2015	3115.2966	3158.0178	3735.8548
CC12OC3CC(C1O)C23	C[C@@]12O[C@H]3C[C@@H]([C@H]1O)[C@@H]23	
InChI=1S/C7H10O2/c1-7-5-3(6(7)8)2-4(5)9-7/h3-6,8H,2H2,1H3	InChI=1S/C7H10O2/c1-7-5-3(6(7)8)2-4(5)9-7/h3-6,8H,2H2,1H3/t3-,4+,5-,6-,7+/m1/s1
