18
gdb 9821	3.76634	1.44708	1.15443	3.3881	69.01	-0.2642	-0.0232	0.241	1056.9621	0.151973	-384.949987	-384.941359	-384.940415	-384.983321	31.865	
C	 0.1270240075	 1.5203895645	-0.2168960158	-0.489498
C	 0.0214331877	 0.0118464818	-0.0991771538	 0.240468
C	 1.3108747169	-0.8078781687	-0.0614318474	-0.27461
C	 0.5119984526	-0.6546818654	 1.1857347625	-0.274612
C	-1.1270045117	-0.6830551758	-0.7495763179	 0.296406
O	-1.2757317179	-1.8921725166	-0.695898348	-0.353843
C	-2.1646920346	 0.1315765373	-1.5151650242	-0.143506
O	-3.1549463301	-0.6930332551	-2.0475053255	-0.421935
H	 1.0167334987	 1.8776473377	 0.309048091	 0.122038
H	 0.2131576295	 1.8452811359	-1.259254955	 0.128087
H	-0.7373359034	 2.0276389906	 0.2247690167	 0.128092
H	 1.2812905817	-1.7692330849	-0.5602113834	 0.140306
H	 2.2368149469	-0.2529062959	-0.1640798475	 0.119231
H	 0.8739613235	 0.0085751284	 1.9635269932	 0.119226
H	-0.0549271966	-1.5130092347	 1.5259141073	 0.140318
H	-2.5934740817	 0.883214027	-0.8313369971	 0.115216
H	-1.6481980838	 0.7005703276	-2.3063641109	 0.115184
H	-2.8996120649	-1.5901945236	-1.7739624743	 0.293431
45.3952	123.5694	201.7312	206.4321	277.7048	314.6217	345.9261	347.2942	424.8213	463.5642	569.4764	576.4805	771.4539	794.5511	819.5534	863.2331	938.7906	960.9764	1028.5684	1035.159	1076.0483	1086.9228	1090.7354	1118.8295	1154.6552	1205.0394	1253.2589	1292.9789	1314.0462	1348.0602	1420.7964	1452.6604	1453.9136	1483.3969	1490.8823	1493.4589	1503.7243	1759.4512	2969.8948	2983.9955	3033.2595	3094.6223	3108.1756	3138.7449	3140.7727	3228.7637	3242.2923	3659.9699
CC1(CC1)C(=O)CO	CC1(CC1)C(=O)CO	
InChI=1S/C6H10O2/c1-6(2-3-6)5(8)4-7/h7H,2-4H2,1H3	InChI=1S/C6H10O2/c1-6(2-3-6)5(8)4-7/h7H,2-4H2,1H3
