18
gdb 95058	2.22192	1.93924	1.23612	3.9317	72.29	-0.2576	0.0291	0.2867	1026.3978	0.149223	-439.095166	-439.087397	-439.086453	-439.127458	30.225	
O	 0.276171087	 1.1543355325	-0.6821315674	-0.421697
C	 0.0648637989	-0.0802290347	-0.0367081761	 0.135674
C	 0.4654589536	-0.1261113123	 1.4536835887	-0.269418
C	-0.3442010391	-1.309038134	 2.0138900458	-0.232526
C	-1.6749582796	-1.2270021025	 1.2715328407	 0.113928
O	-2.5150969047	-0.1298304776	 1.7674111429	-0.280101
C	-2.3716408605	 0.5733189802	 0.5826500057	 0.449758
N	-2.9011523463	 1.6459554803	 0.2121684585	-0.54075
C	-1.4331492571	-0.4408288456	-0.0441711121	-0.177539
H	 1.2205002973	 1.3393599675	-0.6758217163	 0.285981
H	 0.593010305	-0.8916240674	-0.5667394361	 0.068559
H	 1.5440481058	-0.2377894185	 1.596835668	 0.093591
H	 0.1592609886	 0.8125082792	 1.9270408115	 0.129037
H	 0.1389967943	-2.262286362	 1.7668821789	 0.106118
H	-0.4792044452	-1.2782372042	 3.0982128104	 0.11964
H	-2.2520239527	-2.1525075421	 1.2371334959	 0.090394
H	-3.5147107716	 2.0214721725	 0.9382575748	 0.224411
H	-1.7765402137	-0.8582797412	-0.9897751837	 0.10494
92.858	149.3069	200.1948	245.1485	341.9672	355.756	441.9644	487.5889	526.9375	605.4625	695.9505	783.7448	814.0829	855.8378	877.6525	879.7301	910.3095	945.3881	963.6541	1008.5108	1038.2823	1054.4718	1089.2254	1126.7833	1158.4977	1189.6876	1205.0589	1225.422	1245.0829	1299.4049	1304.423	1313.5331	1340.2287	1363.2304	1381.5056	1430.0038	1472.5341	1497.0739	1824.1972	2947.0523	3039.2756	3054.2213	3096.8393	3100.6353	3106.1042	3127.7394	3468.1366	3820.7946
OC1CCC2OC(=N)C12	O[C@H]1CC[C@H]2O[C]([NH])[C@@H]12	
InChI=1S/C6H9NO2/c7-6-5-3(8)1-2-4(5)9-6/h3-5,7-8H,1-2H2	InChI=1S/C6H9NO2/c7-6-5-3(8)1-2-4(5)9-6/h3-5,7-8H,1-2H2/t3-,4+,5-/m0/s1
