16
gdb 27416	2.48455	1.72294	1.11871	2.7283	82.28	-0.2403	-0.0804	0.1599	1079.9525	0.125385	-396.951453	-396.943575	-396.942631	-396.983957	29.485	
C	 0.0422651855	 1.4369128547	 0.2840319983	-0.433358
C	-0.0973059309	-0.019724923	-0.0703974363	 0.328394
N	-1.2537502686	-0.5672476076	 0.0205222218	-0.291143
C	-1.5253066407	-1.9173477217	-0.2264639637	 0.286713
N	-2.5530868567	-2.3357413549	-0.855759989	-0.501506
C	-0.635521236	-2.9111810463	 0.4111713176	-0.069308
C	 0.70686073	-2.8349739089	 0.3768786895	-0.094776
C	 1.445137293	-1.7828122649	-0.3021855214	 0.007749
N	 1.1038591847	-0.5654689884	-0.5364267098	-0.257211
H	 0.3534535865	 2.0033342636	-0.5996695551	 0.148197
H	-0.9010640918	 1.8274423897	 0.6642884895	 0.140203
H	 0.8301313804	 1.5674323431	 1.0335575371	 0.138071
H	-3.0791849797	-1.5344609216	-1.2147137853	 0.2213
H	-1.1251552201	-3.777063823	 0.8475036194	 0.137403
H	 1.2988477095	-3.6552102234	 0.7741511767	 0.115327
H	 2.4393160249	-2.0677453474	-0.6583632893	 0.123945
91.3249	136.101	170.3224	257.8142	298.7016	387.249	417.5051	428.6236	501.8202	602.2187	664.6035	680.5827	785.6253	828.3244	859.6597	915.2241	920.8342	964.8899	1007.0797	1018.0103	1042.1833	1065.4701	1126.2246	1202.9091	1244.0259	1354.3819	1399.3387	1418.2823	1442.4942	1467.953	1473.647	1602.8297	1672.3129	1687.2611	1710.7717	3045.1216	3087.206	3102.421	3162.6069	3163.4402	3186.2139	3443.9241
CC1=NC(=N)C=CC=N1	CC1=N[C]([NH])C=CC=N1	
InChI=1S/C6H7N3/c1-5-8-4-2-3-6(7)9-5/h2-4,7H,1H3	InChI=1S/C6H7N3/c1-5-8-4-2-3-6(7)9-5/h2-4,7H,1H3
