19
gdb 41565	2.91459	1.76455	1.62366	1.5301	78.48	-0.2331	0.0233	0.2564	925.985	0.162376	-385.862739	-385.856054	-385.85511	-385.893758	27.58	
C	 0.2820974994	 1.6172983623	-0.0462181746	-0.079095
O	 1.5586296407	 1.3625141401	 0.5941740178	-0.290295
C	 1.2669394919	-0.0443669046	 0.717060404	 0.108409
C	-0.058556974	 0.1192100662	-0.0742496549	-0.098209
C	 0.5686706156	-0.7174985026	-1.2501906923	-0.065575
C	 1.0440632826	 0.0003069775	-2.4807303896	-0.091964
C	 2.3635706761	 0.2004202217	-2.4674350005	-0.048275
C	 3.0458277258	-0.3473388517	-1.2318020619	-0.276772
C	 1.8760784972	-0.9275002854	-0.4079792347	-0.042993
H	-0.3710654194	 2.2131736763	 0.6043671921	 0.09602
H	 0.3995396822	 2.1248108399	-1.0093481738	 0.105541
H	 1.3507389948	-0.394627089	 1.7503263748	 0.068707
H	-1.0365604434	-0.1906359955	 0.2912390139	 0.071692
H	-0.0163941332	-1.6151049255	-1.4728511905	 0.071141
H	 0.377571267	 0.3192862108	-3.2754459351	 0.08847
H	 2.9189233152	 0.7033971	-3.2528223889	 0.09206
H	 3.7926733126	-1.1085607393	-1.4891653278	 0.098255
H	 3.5693787139	 0.4445315551	-0.684048517	 0.125138
H	 2.0507590149	-1.9528681563	-0.074908541	 0.067746
104.3399	198.9031	258.7551	364.5989	482.2098	519.6847	626.9873	698.6146	730.3011	767.099	800.4946	817.725	871.238	889.8137	925.431	937.2289	954.6764	974.1394	980.7215	1005.0629	1041.877	1052.1168	1075.8726	1087.1741	1126.6038	1144.5669	1171.1121	1186.5641	1201.1149	1227.7176	1255.8692	1271.308	1298.7251	1308.0687	1322.7561	1332.4315	1365.8235	1380.1887	1471.3595	1514.7227	1673.716	3013.273	3025.3331	3051.6258	3055.3675	3064.5638	3072.3252	3086.0682	3118.9122	3172.0336	3197.4122
C1OC2C1C1C=CCC21	C1O[C@H]2[C@@H]1[C@H]1C=CC[C@@H]21	
InChI=1S/C8H10O/c1-2-5-6(3-1)8-7(5)4-9-8/h1-2,5-8H,3-4H2	InChI=1S/C8H10O/c1-2-5-6(3-1)8-7(5)4-9-8/h1-2,5-8H,3-4H2/t5-,6+,7-,8+/m0/s1
