16
gdb 130434	3.03308	1.3361	0.95714	1.7974	67.94	-0.1859	0.0357	0.2216	1172.7886	0.126292	-471.209931	-471.201378	-471.200434	-471.242862	32.125	
N	 0.1145575524	 1.5120591076	 0.1592981035	-0.524161
H	 0.5852061561	 0.674967997	-0.173138371	 0.242898
H	 1.4891893413	 2.4459290101	 1.326963982	 0.295024
H	-0.3811776189	 1.904946234	-0.634363518	 0.239535
C	-0.8385133705	 1.152098322	 1.234448029	-0.274059
C	-0.0657896383	 0.820892605	 2.4723185201	 0.250468
N	-0.4469467492	-0.1111208589	 3.3455994656	-0.324021
N	 0.5038223645	-0.0686057566	 4.3120589544	-0.263238
C	 1.474562834	 0.8427751167	 4.0557469223	 0.359582
O	 2.5126235312	 1.0099317897	 4.9062871284	-0.441103
C	 1.1378441437	 1.4501620568	 2.8649964134	 0.082812
O	 1.8447951925	 2.4337079629	 2.2374713845	-0.474505
H	-1.4695129612	 2.0340816102	 1.4050512646	 0.122462
H	-1.5101886365	 0.32050672	 0.9814650628	 0.11597
H	 0.4526152126	-0.69230013	 5.098253979	 0.275221
H	 3.0890918664	 1.6816213334	 4.5232924895	 0.317115
95.232	158.2405	221.0439	255.3748	284.9332	290.2805	333.9186	354.5527	405.1964	448.3153	540.0304	602.82	657.9782	691.6061	712.4945	746.1295	806.7852	896.0005	993.8088	1029.0684	1069.6541	1149.249	1168.9687	1179.1571	1264.899	1301.7407	1371.1838	1400.7638	1412.0036	1454.5484	1499.4836	1527.3759	1596.5648	1650.7018	1700.0087	3007.3019	3042.0274	3492.9031	3548.2519	3575.4296	3687.1785	3812.5448
[NH3+]CC1=NNC(O)=C1[O-]	NCc1n[nH]c(O)c1O	
InChI=1S/C4H7N3O2/c5-1-2-3(8)4(9)7-6-2/h8H,1,5H2,(H2,6,7,9)	InChI=1S/C4H7N3O2/c5-1-2-3(8)4(9)7-6-2/h8H,1,5H2,(H2,6,7,9)
