18
gdb 117861	3.76425	0.57553	0.51226	6.4697	87.74	-0.28	-0.0354	0.2446	2046.4155	0.145844	-401.93571	-401.925322	-401.924378	-401.972208	35.802	
C	-0.0928869795	 1.5973818463	 0.0893604648	-0.390783
C	 0.0200101652	 0.0585866667	 0.004960327	-0.201052
C	 0.7133754451	-0.4372129549	-1.2872410156	-0.164523
C	-0.0579249141	-0.1064267865	-2.5614463996	-0.086931
O	 0.6171397318	-0.7491910035	-3.6289844223	-0.418089
C	 0.7175332719	-0.4614556049	 1.1749689175	 0.098653
C	 1.3080222261	-0.8835167464	 2.1417379344	 0.053939
C	 1.9717080847	-1.359563154	 3.2354327433	 0.201229
N	 2.5361953963	-1.7638646438	 4.1671145078	-0.33908
H	 0.8961350418	 2.0598334841	 0.0217749129	 0.136516
H	-0.7117218885	 1.9814342891	-0.7252184257	 0.128196
H	-0.5482075008	 1.9013874499	 1.03491526	 0.136539
H	-0.9973458507	-0.3592610488	 0.0252789123	 0.123022
H	 1.7203013616	-0.0109144266	-1.3508056732	 0.122541
H	 0.8314723761	-1.5241895255	-1.2397696333	 0.128207
H	-1.0973589902	-0.4651521631	-2.4690806861	 0.087954
H	-0.1001711885	 0.9817606657	-2.7182939474	 0.093807
H	 0.1824423116	-0.5081557638	-4.4521788469	 0.289856
60.4644	67.5955	86.6819	126.4262	183.5055	223.3643	251.2186	259.4062	292.4548	335.0291	383.7053	509.982	533.9201	581.2115	594.7136	713.9134	795.309	877.3555	971.148	1019.1944	1024.2496	1084.0175	1105.6881	1148.5793	1195.0051	1234.8932	1243.0433	1305.5426	1312.1812	1331.0764	1366.3344	1412.2812	1464.3074	1488.6775	1495.1496	1504.6083	1528.7718	2262.5853	2399.087	2956.7502	2999.3241	3000.8154	3049.4291	3052.8229	3099.2108	3125.6244	3129.7417	3831.9184
CC(CCO)C#CC#N	C[C@@H](CCO)C#CC#N	
InChI=1S/C7H9NO/c1-7(4-6-9)3-2-5-8/h7,9H,4,6H2,1H3	InChI=1S/C7H9NO/c1-7(4-6-9)3-2-5-8/h7,9H,4,6H2,1H3/t7-/m1/s1
