17
gdb 14001	3.86739	1.53494	1.30228	4.2881	73.53	-0.2792	0.0279	0.3071	972.552	0.142985	-326.720924	-326.713434	-326.71249	-326.752951	28.12	
N	 0.0283895458	-1.1352035289	-0.0853141721	-0.346214
C	 0.0086231919	 0.0211798468	-0.0339988748	 0.290994
C	 0.0167719714	 1.4542615654	 0.0178672611	-0.230262
C	 0.5321840983	 2.1615707717	 1.2690221709	-0.352728
C	 1.3470544666	 2.1952174001	 0.0250727989	 0.363671
C	 2.7080003901	 1.5491348684	-0.2649991592	-0.296269
C	 2.8797144158	 2.5549840716	-1.4426282589	-0.202181
C	 1.6699640173	 3.3747307956	-0.9020533635	-0.296521
H	-0.8063508978	 1.9261536682	-0.5096313319	 0.129347
H	-0.0036908804	 3.0557622871	 1.5704041024	 0.126983
H	 0.8671731904	 1.533245765	 2.0873396774	 0.138276
H	 3.4258068806	 1.7152927132	 0.5436995384	 0.108986
H	 2.700088556	 0.4852218054	-0.5130793593	 0.129654
H	 3.8349644221	 3.0791704962	-1.5023192371	 0.10537
H	 2.6716065404	 2.0972938149	-2.4121739199	 0.114973
H	 0.9009951893	 3.6649815612	-1.6227251108	 0.105922
H	 1.9778552423	 4.264609358	-0.3441963616	 0.109998
80.5286	131.2928	147.5562	299.1468	320.3193	363.8732	516.6531	548.191	603.1885	713.874	773.3824	803.5271	838.6161	880.0586	902.235	937.3719	946.5828	967.3282	1053.5596	1071.6302	1081.7869	1117.8483	1137.7591	1188.0421	1227.3933	1236.0169	1256.8298	1270.2063	1282.3026	1328.2747	1406.6994	1475.7053	1480.1099	1485.5089	1506.9751	2347.3933	3050.1217	3057.8965	3074.6481	3098.6709	3109.7471	3131.0869	3131.8391	3160.0943	3221.343
N#CC1CC11CCC1	N#C[C@H]1CC21CCC2	
InChI=1S/C7H9N/c8-5-6-4-7(6)2-1-3-7/h6H,1-4H2	InChI=1S/C7H9N/c8-5-6-4-7(6)2-1-3-7/h6H,1-4H2/t6-/m1/s1
