20
gdb 89012	4.24391	0.70101	0.65082	4.7765	77.88	-0.2369	0.0412	0.2781	1747.5504	0.16916	-440.299835	-440.289402	-440.288458	-440.338013	36.515	
C	-0.1923533507	 1.4509028201	-0.3516326507	-0.480688
C	-0.1029265865	 0.0506523601	 0.2392728342	 0.405401
O	 0.4957782647	-0.1710513825	 1.2768991325	-0.373935
N	-0.7364018271	-0.9225643901	-0.4803343995	-0.309594
C	-0.8108918385	-2.3086146394	-0.0432612997	-0.186302
C	-2.2321913868	-2.7387083367	 0.2531982	-0.019731
C	-3.1621007636	-3.1420577311	-0.8816767765	-0.338107
C	-2.6456493204	-4.1712921857	 0.0935876203	 0.099041
O	-1.6570399513	-5.0716953089	-0.3169796213	-0.414917
H	 0.8196787883	 1.8463725678	-0.4683286519	 0.151786
H	-0.7056832784	 1.4939368805	-1.3160569689	 0.106658
H	-0.7150418151	 2.0986265786	 0.3577150091	 0.149856
H	-1.2582799593	-0.6579986105	-1.2993791897	 0.239575
H	-0.3741200574	-2.9698369273	-0.7979172168	 0.116387
H	-0.1916829391	-2.3721055301	 0.8542745267	 0.152335
H	-2.6922329914	-2.2037817598	 1.0791884345	 0.098213
H	-4.2062679808	-2.8514180434	-0.8434041643	 0.11338
H	-2.7337224392	-3.176380893	-1.8792156406	 0.109457
H	-3.346903102	-4.5705266233	 0.8261192284	 0.091249
H	-2.0673681152	-5.7177313853	-0.9010149259	 0.289936
20.0892	36.0382	52.2442	81.3051	170.6856	235.8969	280.0811	308.373	368.3588	436.3471	453.1253	465.4858	567.5736	629.312	642.834	767.6634	831.94	862.735	894.396	952.1844	985.7421	999.8692	1045.7826	1049.8611	1078.6145	1106.0122	1136.085	1168.5563	1179.379	1236.7726	1257.8614	1277.5346	1305.6237	1353.9069	1394.8574	1411.2911	1427.7055	1470.7544	1483.3381	1486.2225	1494.4256	1539.1786	1779.8774	3048.1423	3059.838	3099.3095	3120.2524	3123.8199	3124.0699	3130.2789	3152.1187	3213.9976	3646.1872	3808.8227
CC(=O)NCC1CC1O	CC(=O)NC[C@H]1C[C@H]1O	
InChI=1S/C6H11NO2/c1-4(8)7-3-5-2-6(5)9/h5-6,9H,2-3H2,1H3,(H,7,8)	InChI=1S/C6H11NO2/c1-4(8)7-3-5-2-6(5)9/h5-6,9H,2-3H2,1H3,(H,7,8)/t5-,6-/m1/s1
