13
gdb 23930	9.53685	0.67903	0.6339	2.9193	99.01	-0.2173	-0.0432	0.174	1631.2949	0.090256	-378.460638	-378.452897	-378.451953	-378.49336	28.501	
C	 0.1158536881	-3.7609631727	-0.0197095478	-0.607941
C	 0.0662080815	-2.5530287196	-0.0122758741	 0.26097
C	 0.0150292865	-1.1978861806	-0.0039961308	-0.092041
C	-0.0410882319	 0.0160077469	 0.0035532775	 0.405083
C	-0.0934250956	 1.4134710735	 0.0120201318	 0.045025
C	-1.1488809702	 2.3112126986	 0.03097691	-0.195137
N	-0.6965622849	 3.5987691368	 0.0321657268	-0.235245
C	 0.6181967022	 3.5090915127	 0.0142757076	 0.004769
N	 1.0380410859	 2.2191866849	 0.0015347667	-0.319538
H	 0.1542503151	-4.8219099852	-0.0261675664	 0.193149
H	-2.2011728525	 2.0733388115	 0.0435635199	 0.124906
H	 1.3080868558	 4.3397640823	 0.0097717515	 0.139281
H	 1.9879503799	 1.8858695709	-0.0128115927	 0.27672
74.988	85.313	221.8697	230.8699	436.4546	438.12	480.9076	487.3806	544.1163	545.9698	580.2965	615.979	673.1664	683.4649	824.1937	867.2798	915.053	957.4873	1052.0986	1125.9238	1164.9349	1256.7874	1317.2676	1360.2932	1423.1371	1479.0627	1587.4747	2176.9997	2329.2583	3254.4733	3260.9222	3504.1851	3662.2131
C#CC#CC1=CN=CN1	C#CC#Cc1cnc[nH]1	
InChI=1S/C7H4N2/c1-2-3-4-7-5-8-6-9-7/h1,5-6H,(H,8,9)	InChI=1S/C7H4N2/c1-2-3-4-7-5-8-6-9-7/h1,5-6H,(H,8,9)
