23
gdb 106769	2.03781	1.47715	1.08263	1.6234	86.26	-0.24	0.0712	0.3112	1264.8039	0.20429	-388.273662	-388.26367	-388.262725	-388.308294	38.07	
C	-0.3352516349	 1.4925284476	 0.0862276141	-0.373056
C	 0.1128779549	 0.0349604348	-0.0919347014	-0.292783
C	 0.8374126369	-0.5046421631	 1.1115320896	 0.286111
C	 0.1387606344	-1.0005806571	 2.3547159759	-0.375717
C	 1.0638329202	-1.9392265115	 1.6248205046	 0.284215
C	 0.6213868725	-3.2664279286	 1.0767348047	-0.498038
C	 2.5070369132	-1.585602867	 2.0165555933	-0.326234
C	 2.2802297853	-0.1256839714	 1.5047126154	 0.106955
O	 3.1158063673	 0.2804971383	 0.4412572113	-0.439302
H	 0.5279038941	 2.1432424315	 0.2572070576	 0.130255
H	-0.8588870317	 1.8563195144	-0.803384907	 0.107749
H	-1.0095122094	 1.5951713737	 0.9427606793	 0.115339
H	-0.7571056378	-0.5986234806	-0.3059927595	 0.09372
H	 0.7646449515	-0.0305586572	-0.972770112	 0.086296
H	 0.4036272452	-0.6110656233	 3.3368910605	 0.098597
H	-0.9220950422	-1.2042854841	 2.2350020501	 0.105512
H	-0.4031124118	-3.2176122163	 0.6928433832	 0.117545
H	 1.2697732783	-3.6015153086	 0.2583933126	 0.109436
H	 0.64335512	-4.042550397	 1.8518724282	 0.121094
H	 2.7819131079	-1.7223611113	 3.0686069257	 0.092653
H	 3.2567842735	-2.0870767169	 1.3952112557	 0.091687
H	 2.3701183566	 0.6668942343	 2.2550134306	 0.081621
H	 3.1043925262	-0.4114541507	-0.2293199827	 0.276345
61.3038	112.3784	141.0575	199.7741	207.3451	252.3175	272.0677	322.94	331.3745	420.1752	437.9195	481.9082	488.0383	589.7425	708.3125	741.8944	784.4949	833.6355	870.4402	911.8186	953.2593	966.1607	994.2792	1013.9281	1037.1187	1058.5625	1067.887	1097.6433	1102.9183	1142.4748	1197.9544	1233.988	1241.8574	1258.2217	1293.2209	1311.98	1327.4665	1359.5843	1399.8855	1406.9344	1423.517	1432.0065	1474.9926	1481.0715	1486.1656	1497.7038	1498.908	1506.902	1512.2626	3014.2572	3016.7352	3029.7507	3035.2851	3047.8469	3052.2866	3072.5346	3082.9804	3088.5879	3092.0334	3104.3694	3110.7903	3178.9169	3798.6196
CCC12CC1(C)CC2O	CC[C@@]12C[C@]1(C)C[C@H]2O	
InChI=1S/C8H14O/c1-3-8-5-7(8,2)4-6(8)9/h6,9H,3-5H2,1-2H3	InChI=1S/C8H14O/c1-3-8-5-7(8,2)4-6(8)9/h6,9H,3-5H2,1-2H3/t6-,7+,8+/m1/s1
