17
gdb 124236	2.57133	1.54314	0.97601	1.7733	78.06	-0.2472	-0.0517	0.1955	1175.2783	0.13602	-418.060568	-418.051639	-418.050695	-418.094735	31.787	
C	-0.083592452	 1.5170181248	 0.0870135668	-0.510895
C	 0.04029544	 0.0003622625	 0.0646138337	 0.324993
O	 1.1252301637	-0.5499991599	 0.0945716481	-0.322624
C	-1.1982895011	-0.7834297441	 0.0053532265	 0.210567
C	-1.3827221649	-2.1666099437	-0.0259741161	 0.121731
C	-0.336539819	-3.2341304066	-0.0067833852	-0.492461
C	-2.7801935291	-2.3213111071	-0.0797976048	-0.070101
N	-3.4248273312	-1.1505143625	-0.0825541613	-0.218566
N	-2.4534599384	-0.2386243009	-0.030851643	-0.27218
H	 0.9147449198	 1.9525283342	 0.1313582556	 0.152366
H	-0.5955111515	 1.8811823802	-0.8113717408	 0.139076
H	-0.6603928463	 1.8497631984	 0.9578491206	 0.139069
H	 0.2833908019	-3.1688802257	 0.8922909444	 0.144897
H	-0.7979601416	-4.2248362314	-0.0405194032	 0.116885
H	 0.3462680461	-3.1387073185	-0.8562479056	 0.144862
H	-3.3447090798	-3.2419435424	-0.1167721044	 0.117657
H	-2.7021876766	 0.7364584825	-0.0225836412	 0.274724
71.1191	88.249	135.3496	169.8816	177.3913	279.852	290.8215	415.0785	477.289	521.1219	565.5738	635.3991	684.5993	699.0043	713.3971	886.9087	941.4128	954.5991	1009.6982	1038.9288	1065.766	1088.5174	1157.9686	1245.1342	1258.9928	1292.3936	1363.3657	1377.8135	1421.4441	1441.7355	1471.7932	1477.7012	1479.9251	1483.24	1514.9773	1594.7087	1762.5953	3030.3259	3043.2996	3091.842	3102.1952	3118.4227	3155.1252	3242.9837	3667.8313
CC(=O)C1=C(C)C=NN1	CC(=O)c1c(C)cn[nH]1	
InChI=1S/C6H8N2O/c1-4-3-7-8-6(4)5(2)9/h3H,1-2H3,(H,7,8)	InChI=1S/C6H8N2O/c1-4-3-7-8-6(4)5(2)9/h3H,1-2H3,(H,7,8)
