18
gdb 90581	3.46512	1.30638	1.03035	2.6466	79.53	-0.2316	-0.0207	0.2108	1166.5054	0.147949	-401.929128	-401.921069	-401.920125	-401.96194	30.782	
C	-0.3940651851	 1.4719743787	-0.0378394974	-0.368142
C	 0.0726370158	 0.0283338694	 0.0895863733	-0.058484
N	 1.24381661	-0.2614186074	-0.8450955004	-0.355759
C	 2.1794161635	-0.3344103637	 0.3366246106	-0.105725
C	 0.9908745685	-0.330080442	 1.2435271967	 0.258562
C	 1.1051928816	-1.1293503809	 2.3055404078	-0.238489
C	 2.5058450824	-1.722172676	 2.3365244577	-0.350769
C	 2.9028050431	-1.6054088823	 0.8304075523	 0.348928
O	 3.5322075288	-2.3989230394	 0.1905036451	-0.288339
H	 0.4416280695	 2.1658130553	 0.0899641204	 0.122912
H	-0.827174257	 1.6405589738	-1.0280471594	 0.123915
H	-1.1527906241	 1.6993483824	 0.7182808321	 0.116242
H	-0.7762961743	-0.6541783656	-0.0351065377	 0.086395
H	 1.1472772303	-1.1813164146	-1.2696942416	 0.231366
H	 2.8767014718	 0.5128248054	 0.3464449601	 0.107799
H	 0.3036796929	-1.4807182164	 2.9448216372	 0.105213
H	 3.2244937229	-1.1674327814	 2.9551167283	 0.1324
H	 2.5373408894	-2.7660539852	 2.6619437651	 0.131976
66.9554	152.3375	167.7906	236.6538	299.0072	310.5269	426.0604	458.2728	554.4628	636.6847	658.8325	734.4372	756.9788	812.5423	838.2348	849.6557	907.2607	927.9908	974.479	1008.2943	1019.3365	1046.8193	1091.0104	1129.9014	1155.2392	1158.8452	1212.4185	1242.435	1255.172	1270.0254	1317.4635	1336.3082	1375.3315	1409.4818	1459.5773	1487.2903	1491.9045	1711.3161	1861.4491	3018.2569	3023.4234	3035.6215	3039.0667	3093.0198	3111.2749	3119.7939	3197.327	3495.4078
CC1NC2C1=CCC2=O	C[C@H]1N[C@H]2[C]1[CH]CC2=O	
InChI=1S/C7H9NO/c1-4-5-2-3-6(9)7(5)8-4/h2,4,7-8H,3H2,1H3	InChI=1S/C7H9NO/c1-4-5-2-3-6(9)7(5)8-4/h2,4,7-8H,3H2,1H3/t4-,7+/m1/s1
