17
gdb 67787	2.71428	2.38593	1.65037	1.1996	74.25	-0.231	0.0079	0.2389	838.8901	0.137775	-384.6347	-384.628464	-384.62752	-384.664685	27.389	
O	-0.0938388942	 1.3458157727	 0.0261156024	-0.511227
C	 0.0567811903	-0.0466173445	 0.0118550611	 0.411962
C	 1.0399436518	-0.6703154364	 0.9741168796	-0.180324
C	 1.3347960221	-1.9022887541	 0.5400245236	-0.084654
C	 0.554472899	-2.164907013	-0.72337983	-0.089449
C	-1.0004256898	-2.1677678692	-0.5268527455	-0.075927
C	-1.2265195549	-1.0522827887	-1.511537229	-0.111264
C	-1.3254015837	-0.7583205821	-0.0388306061	-0.089152
C	 0.3090929453	-0.7619122158	-1.3624491344	-0.133331
H	 0.7787252339	 1.7360675751	-0.0951246419	 0.274317
H	 1.350238794	-0.2067639425	 1.9036946106	 0.096951
H	 1.9444073311	-2.6376738465	 1.0522952982	 0.097358
H	 0.9119622821	-2.9564748659	-1.3824848362	 0.065617
H	-1.6365368951	-3.0122129272	-0.2944941519	 0.085905
H	-1.9268686273	-0.9323769083	-2.3237744958	 0.09035
H	-2.1948157093	-0.5350562626	 0.5652554388	 0.088476
H	 0.9883605246	-0.3335529308	-2.0994644835	 0.064392
279.1978	300.3824	346.9861	384.5981	444.1473	544.923	624.7871	682.0837	717.1012	737.7998	794.8177	810.2616	813.4046	835.1589	859.6863	906.3804	925.9957	949.2095	963.3958	987.3701	1013.8239	1021.054	1031.3576	1048.2745	1078.0473	1107.8903	1140.7703	1169.5374	1188.3799	1220.0651	1239.4548	1250.5885	1286.3911	1356.2789	1362.2369	1365.3074	1635.328	3105.9928	3119.4105	3184.7711	3193.9942	3205.1962	3210.1174	3234.4266	3799.6421
OC12C=CC3C4C(C14)C23	O[C@@]12C=C[C@H]3[C@@H]4[C@@H]([C@H]14)[C@@H]23	
InChI=1S/C8H8O/c9-8-2-1-3-4-5(6(3)8)7(4)8/h1-7,9H	InChI=1S/C8H8O/c9-8-2-1-3-4-5(6(3)8)7(4)8/h1-7,9H/t3-,4+,5+,6-,7+,8+/m0/s1
