21
gdb 70931	3.40493	1.42687	1.23298	1.9684	82.65	-0.2263	0.0792	0.3055	1103.6623	0.183208	-387.02199	-387.013993	-387.013049	-387.054259	32.383	
C	-0.1996338949	 1.4737270169	-0.079861214	-0.512837
C	 0.0563563368	-0.0010242061	-0.0498256045	 0.363746
C	 0.5290225642	-0.9586034702	-1.15917956	-0.314459
C	 0.0324446756	-1.7905779934	 0.0565323007	 0.450895
C	 0.3354520167	-3.2238253002	 0.389099305	-0.366261
C	 1.8450831685	-3.0792869022	 0.8334687346	-0.19248
C	 2.1657083779	-1.5427214795	 1.0868610879	-0.292941
C	 0.78053181	-0.891140282	 1.0247109288	-0.033196
O	-1.150848973	-0.8995715773	 0.1304751445	-0.404672
H	 0.7414751536	 2.0138635795	-0.2241350288	 0.124913
H	-0.8775570269	 1.7315911181	-0.8992531275	 0.132165
H	-0.6483867836	 1.8049158554	 0.8613277821	 0.132247
H	-0.1188484079	-1.0012527344	-2.0359270932	 0.099468
H	 1.5895958426	-0.9770320157	-1.4192256642	 0.092889
H	-0.2873136973	-3.5590200294	 1.2245057745	 0.1166
H	 0.2113486248	-3.9299262515	-0.4357882822	 0.105215
H	 2.0279859576	-3.669228933	 1.734971616	 0.108981
H	 2.5070409089	-3.4787629092	 0.0605808663	 0.107629
H	 2.651781037	-1.3934406563	 2.0538176577	 0.10085
H	 2.8568993379	-1.1719130841	 0.3262194104	 0.106537
H	 0.2866769917	-0.8246812753	 1.9980818857	 0.074711
78.0195	193.3199	209.9282	225.1622	321.483	355.7733	455.8177	510.1671	565.3649	625.718	654.2684	670.9796	696.6257	755.1623	810.074	843.2067	874.9442	910.2883	936.5029	965.2612	979.2331	1013.5874	1060.4543	1064.2245	1091.6056	1111.351	1122.3261	1147.2649	1182.8805	1208.0332	1238.2312	1243.6401	1257.4008	1273.6001	1299.7825	1304.5465	1350.403	1391.1514	1417.1833	1476.365	1481.2179	1487.4429	1488.9283	1504.832	1516.1084	3038.3851	3053.1974	3060.8652	3066.3898	3070.5729	3074.7868	3091.7895	3104.6827	3112.3577	3115.3253	3119.1764	3141.8132
CC12CC3(CCCC13)O2	C[C@@]12C[C@]3(CCC[C@@H]13)O2	
InChI=1S/C8H12O/c1-7-5-8(9-7)4-2-3-6(7)8/h6H,2-5H2,1H3	InChI=1S/C8H12O/c1-7-5-8(9-7)4-2-3-6(7)8/h6H,2-5H2,1H3/t6-,7+,8-/m0/s1
