18
gdb 119133	2.39363	1.15063	0.91987	2.6976	68.21	-0.2487	0.0137	0.2624	1303.8766	0.14592	-476.229507	-476.219695	-476.218751	-476.264836	35.17	
N	-0.0456487501	 1.3009572597	 0.0151155072	-0.530139
C	 0.0426429267	-0.051695789	 0.1187432301	 0.337871
O	 1.0651062947	-0.6600358975	 0.3725488625	-0.368558
C	-1.2824599866	-0.7745918964	-0.0789791236	 0.294742
C	-1.1964379759	-2.1601241182	-0.6740205115	-0.258242
C	-0.7013934387	-2.1554944795	-2.1179424429	-0.08058
O	-0.7371847402	-3.4988455781	-2.5748225088	-0.420546
C	-2.3949231708	-0.4054882813	 0.8174975939	-0.214038
O	-2.3656145456	 0.0629751625	-0.5319928186	-0.286258
H	 0.8019967578	 1.8407215161	 0.0687709035	 0.263708
H	-0.8836665491	 1.7083206833	-0.3666195014	 0.273948
H	-0.5122918534	-2.7575821957	-0.065149955	 0.138033
H	-2.1837245163	-2.6305393271	-0.6422541492	 0.109445
H	-1.3511906513	-1.5074575457	-2.7269373812	 0.093671
H	 0.3186401524	-1.7461772893	-2.1553953286	 0.106256
H	-0.3716298274	-3.5229468416	-3.4636429646	 0.286658
H	-3.1611041633	-1.1470609084	 1.0364941325	 0.128004
H	-2.242954133	 0.3570241063	 1.5788906256	 0.126025
62.4772	78.4894	89.1316	152.3074	243.5396	250.1289	289.0366	341.4467	355.6787	362.6507	446.2641	512.3675	541.7632	638.4508	726.2261	766.0219	784.4683	850.0529	934.3547	943.4925	1031.3804	1060.9864	1084.7992	1100.7282	1134.6883	1169.8063	1201.9696	1246.3655	1250.5077	1314.1634	1324.2604	1381.2851	1405.2048	1461.0621	1469.57	1517.8827	1530.2315	1594.3634	1797.3029	2976.7617	3017.1981	3062.2625	3091.0715	3115.8265	3183.985	3593.0191	3731.9125	3834.4548
NC(=O)C1(CCO)CO1	NC(=O)[C@@]1(CCO)CO1	
InChI=1S/C5H9NO3/c6-4(8)5(1-2-7)3-9-5/h7H,1-3H2,(H2,6,8)	InChI=1S/C5H9NO3/c6-4(8)5(1-2-7)3-9-5/h7H,1-3H2,(H2,6,8)/t5-/m1/s1
