18
gdb 39701	4.28059	1.55402	1.50724	1.7912	78.44	-0.2248	0.0817	0.3065	930.5192	0.149593	-364.701166	-364.694854	-364.693909	-364.731564	26.912	
C	-0.0966570305	 1.515302636	-0.0019089652	-0.342053
C	 1.2485520989	 0.8091586451	-0.0045200023	-0.344998
C	-0.0290242274	 0.0248848804	 0.0124988713	 0.448936
C	-0.4578191155	-1.0132891431	 1.0519537429	-0.190196
C	-1.9387547555	-1.3157902413	 0.726683275	-0.043113
C	-1.6452527909	-2.5496370692	-0.0382492015	-0.06963
C	-0.1446985593	-2.1624416014	 0.0036093595	-0.054677
C	-0.4516611136	-1.0159475413	-1.0106203087	-0.115805
N	-1.9407716338	-1.2861915445	-0.7801126871	-0.153451
H	-0.3992228195	 2.0253885734	 0.907200058	 0.112388
H	-0.4165438083	 2.0068911688	-0.9148870603	 0.118212
H	 1.832327409	 0.8291671735	-0.9194256599	 0.113991
H	 1.8440677949	 0.8451396871	 0.9021924451	 0.112765
H	-0.1185592649	-1.0161769326	 2.0861096313	 0.071719
H	-2.8384630942	-0.9923201365	 1.2343262713	 0.095341
H	-2.1926195756	-3.4720003374	-0.188239781	 0.094429
H	 0.742879961	-2.7882470327	 0.0284493971	 0.074842
H	-0.1755522449	-0.9876512544	-2.0638063254	 0.071298
149.7251	243.4868	254.6206	467.0062	563.7442	580.9001	739.5306	761.4919	775.5328	787.4748	813.0428	839.2198	871.3217	882.6716	892.8341	907.7758	943.2238	953.1033	967.2191	979.1034	1004.4466	1033.0135	1040.1462	1052.1812	1077.4419	1078.0313	1138.8432	1151.6391	1179.004	1184.6377	1200.8271	1225.9577	1233.8425	1251.0937	1265.0502	1325.3638	1412.1173	1464.5311	1509.6031	3122.7374	3124.7957	3127.4334	3135.033	3155.7456	3183.4156	3198.4749	3200.3885	3214.8936
C1CC11C2C3C4C2C1N34	C1CC21[C@H]1[C@@H]3[C@@H]4[C@H]1[C@H]2N34	
InChI=1S/C8H9N/c1-2-8(1)4-3-5-6(4)9(5)7(3)8/h3-7H,1-2H2	InChI=1S/C8H9N/c1-2-8(1)4-3-5-6(4)9(5)7(3)8/h3-7H,1-2H2/t3-,4+,5-,6+,7+,9?/m0/s1
