17
gdb 122707	4.34151	0.61719	0.57216	1.5672	73.53	-0.2756	-0.0037	0.2719	1881.6007	0.134189	-455.140487	-455.130522	-455.129578	-455.177523	33.619	
O	 0.3126876558	 1.0189495434	-0.6077473612	-0.415499
C	-0.2168269167	-0.006234483	 0.203803022	-0.062362
C	-1.7344609501	-0.0497482045	 0.1415115795	-0.095922
O	-2.0730156652	-0.3353819475	-1.2257855321	-0.222188
C	-3.3636990678	-0.2023977448	-1.5654329564	 0.146199
N	-3.7263627735	-0.4628337773	-2.7455123014	-0.240512
C	-5.1180548513	-0.315773823	-3.1209363596	-0.240135
C	-6.0473245673	 0.1332769241	-2.0670120379	 0.231536
N	-6.7341094028	 0.4861355277	-1.2067739961	-0.312332
H	 0.0021036289	 0.8509660896	-1.5047809602	 0.296219
H	 0.1819306357	-0.9946575654	-0.0718847251	 0.105789
H	 0.0917939333	 0.2049134742	 1.23264369	 0.11999
H	-2.1344663909	-0.8318639074	 0.7993532647	 0.116265
H	-2.1540467464	 0.9205301743	 0.4324628687	 0.126131
H	-4.0230213103	 0.137336563	-0.7566994866	 0.116603
H	-5.1865449656	 0.3901209798	-3.9579425851	 0.165079
H	-5.4826690959	-1.2750157634	-3.5087953031	 0.165138
19.9259	63.6981	95.2872	143.1252	163.1244	193.9917	278.9934	285.8882	374.8321	394.1883	412.8643	482.3241	548.1721	676.9803	890.3379	899.4681	906.9523	964.5578	1022.1896	1028.0348	1079.8562	1091.5621	1132.4032	1232.2412	1266.5976	1270.0905	1275.7829	1350.1548	1390.2577	1395.4773	1429.5056	1439.3126	1466.3177	1494.8387	1500.2766	1771.4895	2350.6441	2993.1626	3018.1052	3033.7541	3048.8447	3058.5462	3076.1081	3087.2252	3804.6228
OCCOC=NCC#N	OCCOC=NCC#N	
InChI=1S/C5H8N2O2/c6-1-2-7-5-9-4-3-8/h5,8H,2-4H2	InChI=1S/C5H8N2O2/c6-1-2-7-5-9-4-3-8/h5,8H,2-4H2
