14
gdb 131353	5.99781	0.9066	0.79139	2.2481	68.07	-0.232	0.0097	0.2417	1325.2909	0.102449	-432.903518	-432.895511	-432.894567	-432.937696	28.903	
O	-0.5634412122	 1.2486248048	-0.3702503801	-0.426806
C	-0.1308344647	 0.0192063336	-0.0310013531	 0.445259
N	 0.7264363821	-0.6533888984	-0.7858091469	-0.33541
N	 0.9032868404	-1.8172077625	-0.1120147345	-0.261741
C	 0.1829522179	-1.879623584	 1.0300168681	 0.423081
C	 0.2111422889	-3.070864652	 1.9511017992	-0.459686
C	 1.0961189792	-4.1289810562	 1.4656854849	 0.270223
N	 1.8046933612	-4.9405697573	 1.0487119352	-0.304011
C	-0.5153776485	-0.6915938409	 1.1267890582	-0.422272
H	-0.1362701293	 1.4802566088	-1.2047537196	 0.306047
H	 1.5228682813	-2.5190265552	-0.4830996918	 0.289998
H	 0.5428257725	-2.7729300458	 2.9529970304	 0.180183
H	-0.7962593787	-3.487565716	 2.0696208318	 0.180178
H	-1.1938092799	-0.3798429689	 1.9028016884	 0.114958
14.5517	113.9116	179.337	280.4942	357.4374	376.9792	417.2983	436.9265	477.6059	496.3327	660.1252	684.8133	714.9486	777.9486	782.5846	944.5606	950.8686	1007.2315	1041.9458	1146.2611	1186.2833	1216.6546	1233.2699	1295.8937	1342.4157	1449.3506	1461.559	1538.0187	1566.2448	1614.2672	2366.3279	3037.8319	3067.5472	3277.0629	3661.1145	3793.8436
OC1=NNC(CC#N)=C1	Oc1n[nH]c(CC#N)c1	
InChI=1S/C5H5N3O/c6-2-1-4-3-5(9)8-7-4/h3H,1H2,(H2,7,8,9)	InChI=1S/C5H5N3O/c6-2-1-4-3-5(9)8-7-4/h3H,1H2,(H2,7,8,9)
