16
gdb 64856	3.52196	0.97713	0.87437	4.2145	74.68	-0.2877	-0.0047	0.283	1300.5011	0.125331	-396.941472	-396.932919	-396.931974	-396.974885	31.596	
N	-0.0339562319	 1.5097839292	 0.0131229173	-0.542566
C	-0.0031641707	 0.0501706696	-0.0126291309	 0.130763
C	 0.2062557881	-0.5012768626	 1.4316223059	-0.247251
C	-1.3445629555	-0.5484216056	 1.5896087879	-0.136191
C	-1.4577596961	-0.5117294415	 0.0345976034	-0.247252
C	-1.9257066088	-1.6787176238	 2.2902732236	 0.271733
N	-2.3807992245	-2.5888273703	 2.8391488104	-0.320266
C	 0.8740207214	-0.500054247	-1.0533349834	 0.222365
N	 1.5730890487	-0.9009533359	-1.8829998622	-0.330581
H	 0.9021036394	 1.8769349784	 0.1635313958	 0.247003
H	-0.3468671768	 1.8690836217	-0.884998025	 0.247003
H	 0.6427499102	-1.5006022487	 1.4265174019	 0.147702
H	 0.7575799147	 0.1464511869	 2.1138709573	 0.131827
H	-1.7141798944	 0.3822666422	 2.0229018969	 0.146183
H	-2.2298986232	 0.1276838993	-0.3942677998	 0.131826
H	-1.5209255406	-1.514193542	-0.3899968091	 0.147702
65.9279	151.6369	178.9153	192.9847	238.8458	308.3082	385.1494	388.5459	471.8026	524.7853	559.6918	595.1079	600.0339	707.8624	844.9771	866.3989	912.155	947.3193	956.7256	1012.4432	1047.8408	1071.7478	1134.8318	1179.3678	1247.7967	1251.8756	1268.6557	1285.7165	1302.744	1350.7599	1464.8545	1484.9748	1661.8651	2343.2942	2357.7717	3088.3837	3091.8703	3105.3096	3155.721	3158.	3485.9543	3565.0308
NC1(CC(C1)C#N)C#N	N[C@]1(C[C@@H](C1)C#N)C#N	
InChI=1S/C6H7N3/c7-3-5-1-6(9,2-5)4-8/h5H,1-2,9H2	InChI=1S/C6H7N3/c7-3-5-1-6(9,2-5)4-8/h5H,1-2,9H2/t5-,6-
