16
gdb 69801	2.64124	1.92796	1.35156	3.3445	68.14	-0.2512	-0.0239	0.2272	938.8984	0.124597	-437.862744	-437.855361	-437.854417	-437.89435	29.105	
O	-0.0444376702	 1.4172263887	 0.0080661991	-0.46622
C	-0.0571912357	 0.0336516485	-0.0039185086	 0.347718
C	-0.421382367	-0.7294425401	-1.2593631785	-0.363351
C	-1.2929868162	-0.8250696776	-0.0245921796	-0.131191
C	-1.0311626529	-1.9481869115	 0.9656255278	-0.028383
C	 0.0102734976	-2.9822480578	 0.7362464682	-0.261451
N	 0.3132361683	-1.7836371215	 1.5560882441	-0.129199
C	 0.9241183524	-0.6609253577	 0.9175182892	 0.314649
O	 2.0317363286	-0.2517236065	 1.1501700326	-0.334972
H	 0.8783550149	 1.6705935049	 0.150985398	 0.298492
H	-0.8082308493	-0.0938903212	-2.0490918092	 0.134819
H	 0.1595315788	-1.5748533492	-1.610072008	 0.121605
H	-2.2866544588	-0.3967641709	-0.053998392	 0.112831
H	-1.8211014135	-2.1586114951	 1.6805196118	 0.11057
H	-0.0159849292	-3.908399092	 1.3029615985	 0.137429
H	 0.4799480121	-3.0684883309	-0.2374733133	 0.136654
106.0029	212.708	233.2205	300.3159	329.5051	380.6503	476.4842	493.1815	583.8181	645.6727	668.3876	769.5583	793.3404	832.7633	855.5812	904.2878	930.2424	971.4613	1006.3668	1039.7567	1049.2455	1062.3593	1081.1304	1094.4344	1120.5117	1157.9965	1203.6197	1272.2694	1307.742	1365.0159	1376.4969	1422.3567	1491.625	1514.9131	1838.818	3124.2353	3134.4519	3153.3919	3199.5109	3212.3748	3222.9688	3753.0043
OC12CC1C1CN1C2=O	O[C@]12C[C@H]1[C@H]1CN1C2=O	
InChI=1S/C6H7NO2/c8-5-6(9)1-3(6)4-2-7(4)5/h3-4,9H,1-2H2	InChI=1S/C6H7NO2/c8-5-6(9)1-3(6)4-2-7(4)5/h3-4,9H,1-2H2/t3-,4+,6+,7?/m0/s1
