18
gdb 86605	3.78427	0.982	0.83435	1.9577	73.28	-0.2427	-0.0336	0.2091	1360.6777	0.14675	-439.052008	-439.043028	-439.042084	-439.086587	32.392	
O	 0.097601512	 1.4351747458	 0.3132783203	-0.432513
C	 0.0777595281	 0.0595415371	 0.0987230534	 0.073303
C	-1.2670304515	-0.7515426055	 0.0435730358	-0.303623
C	-0.6962771052	-1.6134987978	-1.1362310609	-0.129551
C	-1.5725687962	-1.9877004007	-2.2963383573	 0.030391
C	-1.2415988875	-3.1555787201	-3.1490277686	-0.240411
N	-2.4084324772	-3.200872947	-2.2509579554	-0.326059
C	 0.2942136266	-0.4464158628	-1.3286565347	 0.324371
O	 0.737565827	 0.1084995719	-2.2957143772	-0.307958
H	 0.1481673591	 1.8598350765	-0.5523768382	 0.296374
H	 0.7635652353	-0.4287765493	 0.8033359104	 0.110411
H	-1.5541832034	-1.2789169504	 0.952973761	 0.118045
H	-2.0880745756	-0.1141858288	-0.2939720479	 0.125859
H	-0.173244244	-2.4949247207	-0.7451001588	 0.095849
H	-2.0728298115	-1.1430332705	-2.7659135698	 0.098403
H	-1.4778727884	-3.137707086	-4.2086607132	 0.126964
H	-0.3595874019	-3.737720854	-2.8933047447	 0.11193
H	-2.1830771657	-3.7449927976	-1.4209149042	 0.228216
55.8613	82.2054	125.0846	146.3792	224.6108	272.8429	312.6286	372.1036	408.0783	525.3937	634.8116	703.1509	789.267	813.9507	844.6852	875.2766	937.0798	959.9507	960.0589	993.6603	1020.2963	1063.0961	1075.424	1127.5048	1152.2247	1158.816	1162.3132	1223.182	1243.8342	1248.9691	1261.6333	1284.4277	1318.3008	1342.4578	1412.5807	1436.1788	1482.0317	1512.5299	1864.6819	3027.2347	3038.0341	3077.9141	3109.5266	3127.6512	3147.1785	3195.987	3489.4894	3775.4157
OC1CC(C2CN2)C1=O	O[C@H]1C[C@@H]([C@H]2CN2)C1=O	
InChI=1S/C6H9NO2/c8-5-1-3(6(5)9)4-2-7-4/h3-5,7-8H,1-2H2	InChI=1S/C6H9NO2/c8-5-1-3(6(5)9)4-2-7-4/h3-5,7-8H,1-2H2/t3-,4+,5-/m0/s1
