19
gdb 23150	2.05561	1.26056	0.8829	9.5538	82.41	-0.1353	0.0191	0.1544	1348.7705	0.157509	-456.206824	-456.197202	-456.196258	-456.241487	34.812	
C	-0.5882371236	 1.3879394501	-0.5984318946	-0.342758
N	-0.7194074968	-0.0848846785	-0.5290486015	-0.241344
H	-1.5178721867	-0.463039349	-1.0910528411	 0.309915
H	 0.1189454371	-0.5571655784	-0.8704960349	 0.29243
C	-1.0115457813	-0.7284458237	 0.9002942896	-0.287059
C	-1.2693070253	-2.1489970005	 0.7063211251	 0.17917
N	-0.2274355139	-2.9645512189	 1.0020794881	-0.098617
O	-0.3425504968	-4.1849406196	 0.7382727176	-0.420315
C	-2.4181494163	-2.5915843127	-0.0760672371	 0.011214
C	-3.6904832954	-1.8789535602	-0.2223615666	-0.189216
O	-2.7535989838	-1.7297141606	-1.300487575	-0.311022
H	-0.4066293561	 1.7050209526	-1.6270480195	 0.163833
H	-1.5148851329	 1.8377442871	-0.2383987248	 0.168292
H	 0.2391257068	 1.7070971744	 0.0381397295	 0.166861
H	-0.1112110438	-0.5722113211	 1.4974272281	 0.140629
H	-1.8379810278	-0.1089770552	 1.2674582324	 0.115918
H	-2.3832868278	-3.6506951013	-0.314412749	 0.12328
H	-4.5943020103	-2.4284332823	-0.4860025783	 0.121662
H	-3.8855542055	-0.9785507324	 0.3623198219	 0.097128
76.3962	102.7548	160.5218	174.5248	208.1901	236.9628	278.0613	310.7677	329.0276	361.1747	448.7907	519.8244	581.8446	647.002	737.475	794.2573	835.8225	945.8587	949.6472	1008.0021	1014.1994	1096.5721	1109.5721	1150.9881	1155.7618	1179.8295	1240.1348	1269.736	1293.4247	1330.4386	1361.4299	1365.247	1403.6399	1428.6435	1454.8124	1461.72	1468.6551	1496.1435	1501.3454	1532.0948	1684.1854	3026.5499	3034.8798	3067.1958	3070.2624	3129.5449	3142.6973	3151.8427	3157.5805	3177.3193	3475.193
C[NH2+]CC(=N[O-])C1CO1	C[NH2]CC(=N[O])[C@H]1CO1	
InChI=1S/C5H10N2O2/c1-6-2-4(7-8)5-3-9-5/h5-6,8H,2-3H2,1H3	InChI=1S/C5H10N2O2/c1-6-2-4(7-8)5-3-9-5/h5H,2-3,6H2,1H3/t5-/m1/s1
