21
gdb 38316	3.37597	1.60862	1.40929	1.3901	80.86	-0.2455	0.0897	0.3352	1000.7856	0.18739	-387.089895	-387.083276	-387.082332	-387.120636	28.349	
C	-0.0746058558	 1.6013006957	 0.1113118831	-0.225996
C	 1.4721377899	 1.4343624926	 0.0531415393	-0.036749
C	 1.2522332189	 0.1376963629	 0.8929923637	-0.232988
C	-0.0536959429	 0.0503318428	 0.0436161472	-0.047578
C	 0.529994456	-0.2042840956	-1.3534602499	 0.137177
O	-0.345313363	 0.1772972507	-2.4041948584	-0.270522
C	 0.4234646775	 0.8691501787	-3.3802481588	-0.072476
C	 1.4432877271	 1.7071877408	-2.5881831561	-0.26546
C	 1.7101675257	 0.8312497541	-1.3481205876	-0.008218
H	-0.4100443495	 1.9674043841	 1.0841632666	 0.093704
H	-0.5851689115	 2.1388059304	-0.6899647305	 0.099701
H	 2.1492804916	 2.2254059621	 0.3783990627	 0.058441
H	 1.9887355765	-0.6672524907	 0.7966598706	 0.08719
H	 1.0519890769	 0.3371632552	 1.9481977232	 0.096808
H	-0.9063357413	-0.5574212969	 0.3457884914	 0.063587
H	 0.8565870983	-1.2442154129	-1.4915494483	 0.060955
H	 0.9407462812	 0.155661373	-4.0431406502	 0.086194
H	-0.2643448852	 1.4619061259	-3.9900527405	 0.105589
H	 2.3484816387	 1.9119080623	-3.1655564748	 0.097444
H	 1.0053840559	 2.6692176653	-2.3051411534	 0.105677
H	 2.6881850748	 0.3463777793	-1.4065388793	 0.067521
166.7722	186.0047	320.4423	373.528	458.9461	540.0218	581.6095	617.4429	743.2494	802.406	837.8239	847.6506	854.1198	881.8982	890.1663	923.3493	943.9662	970.5905	999.7554	1004.6178	1030.6514	1040.8483	1067.2193	1076.5288	1104.8683	1109.8656	1120.0852	1142.6005	1203.2775	1220.8048	1231.1965	1240.6915	1248.2349	1251.1616	1291.9346	1302.8055	1305.2723	1338.8102	1350.6544	1361.7486	1396.2804	1482.4714	1497.1924	1519.2941	1521.7083	2965.4089	3002.4361	3043.9706	3055.406	3064.8773	3069.7034	3085.1483	3103.0173	3105.5958	3111.3973	3119.9895	3127.0749
C1C2CC1C1OCCC21	C1[C@H]2C[C@@H]1[C@H]1OCC[C@@H]21	
InChI=1S/C8H12O/c1-2-9-8-6-3-5(4-6)7(1)8/h5-8H,1-4H2	InChI=1S/C8H12O/c1-2-9-8-6-3-5(4-6)7(1)8/h5-8H,1-4H2/t5-,6+,7-,8+/m0/s1
