16
gdb 13354	5.2485	1.22438	1.12305	4.2577	61.7	-0.2721	0.0065	0.2786	1061.4745	0.131053	-420.912314	-420.904649	-420.903705	-420.945846	26.561	
O	 0.0129615049	 0.1418564043	-0.5289350086	-0.274706
C	 0.0282463153	 1.2643529338	-0.1219651742	 0.173124
O	 1.1062125494	 2.0670481525	-0.2441376892	-0.203522
C	 0.9451797094	 3.4318396537	 0.1960035688	 0.215627
C	 2.3500136885	 4.0635230828	 0.2501170469	-0.268246
C	 2.3139738395	 5.1322353805	-0.8668049951	-0.21304
C	 1.0892634743	 4.7153996462	-1.6883652833	-0.093339
O	 0.1886992525	 4.1604746145	-0.7194982548	-0.237637
H	-0.8175392588	 1.7505267469	 0.3997020487	 0.084798
H	 0.4009344296	 3.4289300207	 1.1454123623	 0.097548
H	 2.5505732777	 4.4953712782	 1.2321440597	 0.118626
H	 3.0962104231	 3.290248498	 0.0611806544	 0.136458
H	 2.1594205431	 6.1283634065	-0.4434470872	 0.115713
H	 3.2301634367	 5.1549394892	-1.4603952144	 0.114775
H	 0.5720174103	 5.5418892698	-2.1790982111	 0.117966
H	 1.3458383344	 3.9587242624	-2.4414992629	 0.115854
36.7457	71.9435	134.2129	218.7759	227.0516	384.3214	504.6585	611.0903	663.4516	752.551	845.4444	886.282	927.4155	941.8372	963.8024	990.432	1045.8355	1052.9251	1089.4577	1135.842	1179.4751	1213.8075	1233.9327	1256.8435	1311.5059	1319.2428	1357.4308	1377.9898	1401.0842	1444.5341	1483.8062	1499.0484	1519.7454	1868.2232	2962.7581	3022.6771	3065.8385	3066.4207	3087.037	3111.9291	3119.8606	3138.4415
O=COC1CCCO1	O=CO[C@H]1CCCO1	
InChI=1S/C5H8O3/c6-4-8-5-2-1-3-7-5/h4-5H,1-3H2	InChI=1S/C5H8O3/c6-4-8-5-2-1-3-7-5/h4-5H,1-3H2/t5-/m0/s1
