21
gdb 38349	2.30303	1.92786	1.31317	0.3125	87.99	-0.2291	0.0076	0.2367	1048.1141	0.186085	-349.940348	-349.932847	-349.931903	-349.971856	31.066	
C	-0.0566237291	 1.5800033912	-0.0676287423	-0.223122
C	 1.5100017477	 1.5499624104	 0.0435809378	-0.038041
C	 1.3793832744	 0.1115476721	 0.6169045092	-0.24813
C	-0.0640873378	 0.0135626999	 0.0498161482	-0.038041
C	-0.2655187263	-0.6972074526	-1.2593969629	-0.05023
C	 0.5992415307	-0.9540119215	-2.2431800645	-0.059743
C	 2.0789379119	-0.6171624994	-2.3387013544	-0.319804
C	 2.451916616	 0.8543007352	-2.2505176615	-0.059743
C	 2.2201267609	 1.728920504	-1.2692420498	-0.05023
H	-0.5201306086	 2.0584019233	 0.7999567581	 0.094151
H	-0.4740118568	 2.0039179448	-0.9823693414	 0.103662
H	 1.9153729478	 2.2770024029	 0.7530768078	 0.067279
H	 2.1113125947	-0.6395257392	 0.3238491865	 0.101341
H	 1.3518731188	 0.144166216	 1.709404806	 0.094764
H	-0.7978484711	-0.3712552271	 0.763823941	 0.067279
H	-1.2937321185	-1.0150190124	-1.42885506	 0.080276
H	 0.2024407398	-1.4723503718	-3.1135646765	 0.085372
H	 2.6392701477	-1.1881954437	-1.5881746595	 0.128649
H	 2.4406915973	-0.991692776	-3.3003079287	 0.098662
H	 2.9761815729	 1.2349708625	-3.1245494147	 0.085372
H	 2.5620629275	 2.7484488514	-1.4441265886	 0.080276
141.5469	191.1154	245.3289	282.7887	300.2573	394.5591	489.192	551.0866	642.6397	691.9994	715.0555	725.719	781.2326	791.4989	794.6685	858.3538	880.153	931.5738	961.3618	972.8324	1000.4963	1001.4893	1023.1382	1063.5534	1092.6827	1094.4533	1117.0687	1171.101	1180.9907	1217.0524	1258.0437	1259.0349	1262.2073	1293.2546	1295.2037	1359.9746	1374.6561	1384.1486	1417.5719	1431.3764	1465.2251	1482.5097	1509.0256	1716.0178	1728.0546	3028.8765	3046.1193	3053.225	3058.3068	3073.0898	3074.644	3119.996	3121.6042	3123.6836	3139.9842	3148.5574	3152.2868
C1C2CC1C=CCC=C2	C1[C@H]2C[C@@H]1C=CCC=C2	
InChI=1S/C9H12/c1-2-4-8-6-9(7-8)5-3-1/h2-5,8-9H,1,6-7H2/b4-2-,5-3-	InChI=1S/C9H12/c1-2-4-8-6-9(7-8)5-3-1/h2-5,8-9H,1,6-7H2/b4-2-,5-3-/t8-,9+
