22
gdb 105873	2.14951	1.41576	1.16977	2.051	81.88	-0.2299	0.0741	0.304	1211.2601	0.193694	-404.304113	-404.29443	-404.293486	-404.338325	36.583	
C	-0.1096880287	 1.4241561425	-0.3309753267	-0.432054
C	 0.0326984773	-0.0081250201	 0.1327658514	-0.020138
N	 1.2417533719	-0.8450898315	-0.0470728927	-0.203598
C	 2.4378417979	 0.0068827701	 0.3001785269	-0.193691
C	 1.9763803116	 0.1768330538	 1.7715042425	-0.017456
C	 1.94749454	 1.5301649984	 2.4729913838	-0.427629
C	 0.6812295836	-0.5357400285	 1.3559441899	 0.24218
C	 0.097089668	-1.6654729932	 2.1627981153	-0.15371
O	 1.0597447382	-2.6783967189	 2.4092025866	-0.41649
H	 0.7489227801	 2.0528154248	-0.0985720054	 0.126954
H	-0.25800005	 1.4477920417	-1.4162820665	 0.12665
H	-0.99063574	 1.8785499348	 0.1345031945	 0.125042
H	-0.8369981325	-0.6016329663	-0.1500109629	 0.091487
H	 3.3519490902	-0.5776516748	 0.1795255851	 0.107038
H	 2.5300305127	 0.9159966828	-0.3020014459	 0.101769
H	 2.5390667973	-0.5279868582	 2.3904659361	 0.098818
H	 1.3977047443	 2.2898072136	 1.9119616954	 0.117539
H	 1.4763877728	 1.442828086	 3.4584577148	 0.11972
H	 2.9654606932	 1.903444126	 2.6306891227	 0.117217
H	-0.2293850176	-1.305808863	 3.1459977069	 0.110241
H	-0.7870913411	-2.073108158	 1.6487382883	 0.089657
H	 1.4105039707	-2.9187948618	 1.5423677999	 0.290451
76.7455	129.5775	163.9979	187.9166	205.8671	216.3248	276.3104	315.0521	352.8544	414.7632	470.8981	514.6183	629.4364	641.5045	685.0934	720.516	830.2264	874.022	899.1059	940.6403	950.9195	1002.5135	1043.5629	1071.5639	1103.4764	1114.3383	1131.8752	1148.5624	1160.2866	1191.8843	1209.1293	1247.1536	1279.5722	1321.5231	1330.2419	1383.6451	1399.1019	1406.3589	1412.6354	1425.0077	1462.0369	1487.8722	1491.1919	1498.0951	1501.8854	1505.5925	1516.441	2983.295	3033.2434	3040.0364	3054.7047	3057.857	3064.616	3091.5487	3095.6841	3102.7612	3108.0695	3117.9054	3151.9819	3778.0815
CC1N2CC(C)C12CO	C[C@H]1N2C[C@@H](C)[C@@]12CO	
InChI=1S/C7H13NO/c1-5-3-8-6(2)7(5,8)4-9/h5-6,9H,3-4H2,1-2H3	InChI=1S/C7H13NO/c1-5-3-8-6(2)7(5,8)4-9/h5-6,9H,3-4H2,1-2H3/t5-,6-,7+,8?/m1/s1
