21
gdb 89489	2.69598	1.63318	1.39656	1.4214	76.99	-0.2427	0.0855	0.3282	1049.9446	0.183555	-424.256169	-424.248	-424.247056	-424.288334	32.86	
C	-0.2495480793	 1.5218325742	-0.0655166675	-0.414585
C	 0.0552713759	 0.0341237808	-0.0072063648	 0.145606
O	 0.8113160399	-0.3840765633	-1.1620328014	-0.331009
C	 1.8933731201	-1.175870597	-0.6413449724	 0.483205
C	 2.3071305957	-2.2244570873	-1.6395410548	-0.474273
C	 2.9652437182	-0.1958076368	-0.1077666802	-0.253576
C	 2.2842164781	 0.2813884818	 1.2087136723	-0.230093
C	 0.9524434777	-0.4943997082	 1.134260517	 0.021314
O	 1.3632024669	-1.7418207975	 0.5509479363	-0.280471
H	 0.6618139633	 2.1200294532	-0.1412169648	 0.122345
H	-0.8666215378	 1.7407556576	-0.9414804344	 0.129709
H	-0.8046339347	 1.8370456769	 0.8249259778	 0.1139
H	-0.889378262	-0.5280409565	 0.0107582573	 0.078266
H	 2.6762033247	-1.7461388214	-2.550270051	 0.129734
H	 3.1003914847	-2.8507883367	-1.224109769	 0.125554
H	 1.4500402396	-2.8512976428	-1.8949015718	 0.134379
H	 3.9108691167	-0.7098079088	 0.0834303233	 0.10088
H	 3.1437634566	 0.6097757567	-0.8224830048	 0.106753
H	 2.8470759053	-0.0374670532	 2.0886365934	 0.107309
H	 2.1543511662	 1.3633679817	 1.2687420021	 0.104199
H	 0.4406640641	-0.6681884935	 2.0803590577	 0.080853
122.59	189.6249	209.9927	241.0963	292.7938	304.5272	395.1192	431.4128	496.0479	558.2284	629.6813	639.6399	750.7655	826.6744	837.8877	843.3261	865.3279	886.9012	922.7524	937.5284	970.253	1016.3457	1019.9298	1071.6803	1097.5092	1117.4999	1154.6138	1181.5805	1189.5254	1214.668	1247.3437	1282.3179	1311.5549	1329.7075	1349.2678	1360.7803	1388.3551	1408.4523	1422.4575	1477.3095	1482.0897	1485.6665	1488.2784	1494.609	1512.8955	2996.7173	3040.49	3055.7798	3064.7414	3078.7788	3108.9316	3112.3664	3124.126	3128.2863	3131.1239	3133.9003	3139.2914
CC1OC2(C)CCC1O2	C[C@H]1O[C@@]2(C)CC[C@@H]1O2	
InChI=1S/C7H12O2/c1-5-6-3-4-7(2,8-5)9-6/h5-6H,3-4H2,1-2H3	InChI=1S/C7H12O2/c1-5-6-3-4-7(2,8-5)9-6/h5-6H,3-4H2,1-2H3/t5-,6+,7-/m1/s1
