19
gdb 7277	3.52403	1.16603	1.04058	5.3065	72.	-0.2815	0.0425	0.324	1187.3505	0.163556	-365.087297	-365.077657	-365.076713	-365.12167	34.505	
C	 0.0120665654	 1.5361954345	 0.1549379364	-0.421913
C	-0.0410910161	 0.0159403398	-0.0089366271	 0.123022
O	-1.3860651247	-0.4509978016	-0.0950319267	-0.436348
C	 0.6920160805	-0.5178936211	-1.2544326578	 0.030664
C	 0.8369344254	-2.0437045345	-1.1919630498	-0.41174
C	-0.0346952068	-0.0776573456	-2.5507319951	-0.341018
C	 0.6937123866	-0.4538143245	-3.759184426	 0.261862
N	 1.2837580116	-0.7508611715	-4.707813782	-0.318747
H	 1.0467808917	 1.8918348007	 0.1947089489	 0.124108
H	-0.50342484	 2.0501365587	-0.661537192	 0.127942
H	-0.4739286019	 1.8344546712	 1.0909910908	 0.112051
H	 0.4546935435	-0.4379967492	 0.8650574925	 0.070946
H	-1.8641393943	-0.1449270783	 0.6814750026	 0.287202
H	 1.6916510262	-0.0673261957	-1.2572870667	 0.09112
H	 1.3430820572	-2.4298443929	-2.0807369624	 0.139407
H	 1.4223488894	-2.3391194475	-0.3156227719	 0.11389
H	-0.1461581216	-2.516809365	-1.116725702	 0.136408
H	-1.0324265386	-0.5260621618	-2.5776299887	 0.167372
H	-0.1756858535	 1.0076967644	-2.5693055531	 0.143773
65.8476	84.3028	146.0642	224.4073	231.7256	236.8218	268.6298	275.577	338.3473	390.5293	401.4656	496.435	540.4387	603.6716	793.9101	867.697	896.4013	934.3146	968.721	1018.7511	1028.8229	1064.5565	1121.3605	1142.9262	1174.5409	1211.0208	1265.2673	1309.1746	1342.8165	1369.2111	1390.8454	1407.6735	1412.3253	1422.0558	1467.9459	1492.6789	1500.036	1500.7671	1505.7542	2358.7022	2961.2064	3031.6667	3040.7029	3043.8518	3060.0172	3095.1549	3103.1779	3112.5025	3117.2913	3126.8569	3827.6814
CC(O)C(C)CC#N	C[C@@H](O)[C@@H](C)CC#N	
InChI=1S/C6H11NO/c1-5(3-4-7)6(2)8/h5-6,8H,3H2,1-2H3	InChI=1S/C6H11NO/c1-5(3-4-7)6(2)8/h5-6,8H,3H2,1-2H3/t5-,6+/m0/s1
