19
gdb 109402	2.41974	1.38683	1.06091	4.0376	76.17	-0.2454	-0.0199	0.2255	1190.8811	0.15826	-423.017292	-423.00835	-423.007406	-423.050898	33.639	
C	-0.026676772	 1.5527420329	 0.1115390502	-0.497464
C	 0.0044268063	 0.054433824	 0.0232430122	 0.325904
C	-0.8110915004	-0.8447041434	 0.8849144164	-0.3305
C	 0.712245546	-0.951482535	 0.9835654019	-0.226747
C	 1.1926032335	-1.70998592	-0.2109994035	 0.425505
O	 1.895575079	-2.6714973959	-0.3870672993	-0.342932
C	 0.5290747827	-0.7296998106	-1.2033916152	-0.195767
C	-0.3682941272	-1.3346988723	-2.2806808953	-0.087198
O	 0.3929656842	-2.1769368347	-3.1274556727	-0.422588
H	 0.9218945375	 1.9902345021	-0.2178015611	 0.127401
H	-0.8208398686	 1.967141324	-0.5202532245	 0.131529
H	-0.2158544307	 1.8845145556	 1.1373769893	 0.124942
H	-1.2639085515	-0.3799299227	 1.7558556955	 0.126612
H	-1.3918802451	-1.6665894743	 0.4786402586	 0.127644
H	 1.2250345244	-0.797900277	 1.9251589276	 0.11191
H	 1.3378870401	-0.1728119681	-1.6944850656	 0.109396
H	-1.2086371498	-1.8798255823	-1.8219348888	 0.086399
H	-0.80043853	-0.5547200115	-2.9176186492	 0.108226
H	 0.9254299315	-2.7499996909	-2.5604537065	 0.297726
101.5021	105.6423	144.0024	208.344	233.0062	259.489	341.6535	393.4798	447.1594	483.6138	494.1749	585.6741	650.1704	735.6885	768.4536	810.2209	905.2067	944.3409	980.6203	990.1343	1014.6182	1060.6723	1068.1378	1081.6063	1102.6748	1110.6486	1145.9272	1162.2754	1209.9156	1246.6446	1278.2458	1323.6405	1372.2886	1400.3223	1425.6094	1445.1424	1485.2888	1497.0463	1502.6515	1519.8071	1858.1632	2974.2739	3027.4754	3035.1281	3059.5662	3088.5881	3102.7934	3122.8929	3193.6593	3204.4975	3765.5079
CC12CC1C(=O)C2CO	C[C@]12C[C@H]1C(=O)[C@H]2CO	
InChI=1S/C7H10O2/c1-7-2-4(7)6(9)5(7)3-8/h4-5,8H,2-3H2,1H3	InChI=1S/C7H10O2/c1-7-2-4(7)6(9)5(7)3-8/h4-5,8H,2-3H2,1H3/t4-,5+,7-/m0/s1
