17
gdb 67859	2.32602	1.4817	1.17658	2.5914	74.7	-0.2317	-0.0203	0.2115	1093.1441	0.135113	-421.82481	-421.816697	-421.815753	-421.857425	31.065	
O	-0.0266207558	 1.3683631426	 0.0487019038	-0.459547
C	-0.0064974236	-0.017934083	-0.0417853352	 0.362141
C	 0.9130736554	-0.6883011103	-1.0171468381	-0.159141
C	 0.3135675483	-1.714924404	-1.6227733348	-0.06569
C	-1.1139601696	-1.8957463835	-1.1484757786	-0.288109
C	-1.2775620192	-0.8052795271	-0.0900855751	-0.117995
C	-0.4309740708	-0.8353516303	 1.1947698769	-0.184729
C	 0.3061044096	-2.0156656142	 1.6941238327	 0.145673
O	 0.4079182279	-2.2869286262	 2.8691925265	-0.277327
H	 0.7109161765	 1.6498826164	 0.6011740673	 0.290475
H	 1.9320223868	-0.3547014327	-1.1758640842	 0.101878
H	 0.7768638656	-2.3795277218	-2.3428352628	 0.106794
H	-1.8301049441	-1.7562495262	-1.9685070261	 0.122125
H	-1.2940428827	-2.9032788016	-0.7544623809	 0.124295
H	-2.2305607529	-0.3016304173	 0.0129507112	 0.111885
H	-0.8475201001	-0.2274458573	 1.9923533402	 0.111222
H	 0.7862890287	-2.6500470736	 0.9209512772	 0.076049
91.0168	164.0751	210.3732	227.2786	293.6696	302.1746	389.5881	449.5941	476.6641	531.916	621.1529	705.5062	748.9298	791.6396	870.1043	892.516	923.9575	944.0353	963.6867	988.0684	1033.554	1058.4137	1070.132	1105.7036	1151.1047	1183.1841	1203.4719	1240.0185	1293.7582	1308.6916	1327.2902	1364.2578	1420.0641	1454.751	1475.6921	1666.9911	1797.5358	2917.2657	3026.544	3056.2048	3164.9103	3190.9322	3195.236	3215.1367	3800.8784
OC12C=CCC1C2C=O	O[C@]12C=CC[C@H]1[C@H]2C=O	
InChI=1S/C7H8O2/c8-4-6-5-2-1-3-7(5,6)9/h1,3-6,9H,2H2	InChI=1S/C7H8O2/c8-4-6-5-2-1-3-7(5,6)9/h1,3-6,9H,2H2/t5-,6+,7+/m0/s1
