18
gdb 30882	2.61658	1.27917	0.90818	2.8579	77.18	-0.1746	0.0488	0.2234	1298.0775	0.146107	-439.105287	-439.09545	-439.094506	-439.140298	35.065	
C	 0.288150804	 1.0155490072	-0.3321921243	-0.249414
O	-0.2256878722	 0.1836548868	 0.7136308844	-0.278095
C	-1.313116958	-0.5559807925	 0.365092957	 0.196899
C	-1.3866951572	-1.8658442518	-0.0390890592	 0.255014
O	-0.3465104624	-2.7307397976	-0.2314332861	-0.461019
C	-2.7609508693	-2.1767617872	-0.2360758441	-0.318856
C	-3.4931361425	-1.0451476651	 0.0563191926	 0.319296
C	-4.9675478333	-0.8133771522	 0.0390244618	-0.501268
N	-2.6048909368	-0.0556478275	 0.4102518487	-0.363308
H	 1.1731780206	 1.5143662629	 0.0692103427	 0.129275
H	 0.5639611363	 0.4191511635	-1.2098566248	 0.125444
H	-0.4471595869	 1.7708127986	-0.6359130857	 0.115527
H	 0.4439787954	-2.313095855	 0.1287294212	 0.293925
H	-3.1590849247	-3.1254020312	-0.5608153915	 0.09572
H	-5.3601535186	-0.5488892236	 1.0295614444	 0.123541
H	-5.2543833555	-0.0086322784	-0.6499392657	 0.123542
H	-5.4801074883	-1.722332042	-0.2841700333	 0.137761
H	-2.8491191807	 0.8411437851	 0.793192022	 0.256015
56.972	99.5755	132.4562	147.506	207.7585	258.4354	273.4793	277.6113	345.1847	376.3069	432.7659	518.0086	587.1221	641.4072	656.9654	691.3213	779.9464	810.8398	999.3484	1013.0015	1013.2643	1060.2457	1131.9243	1171.5424	1174.9992	1204.3577	1240.4096	1256.6022	1361.6867	1417.0148	1445.0068	1469.9164	1479.1826	1484.9855	1501.7979	1502.8515	1525.1465	1568.3051	1679.8124	3010.7504	3012.1137	3053.7232	3076.9122	3121.5114	3126.5856	3253.3668	3677.1253	3806.5769
COC1=C(O)C=C(C)N1	COc1c(O)cc(C)[nH]1	
InChI=1S/C6H9NO2/c1-4-3-5(8)6(7-4)9-2/h3,7-8H,1-2H3	InChI=1S/C6H9NO2/c1-4-3-5(8)6(7-4)9-2/h3,7-8H,1-2H3
