18
gdb 66340	2.42256	1.53315	1.29325	1.6008	73.05	-0.2454	-0.0289	0.2165	1056.4464	0.147586	-439.112997	-439.104524	-439.10358	-439.146199	31.57	
C	 0.1090146016	 1.6136839832	 0.1967348875	-0.42502
C	 0.0461094625	 0.0787350045	 0.0845042422	 0.171082
C	 0.6089541307	-0.413259031	-1.2547036641	-0.25969
C	 0.9023481793	-1.9042154564	-1.170014458	-0.093515
O	 1.7393858347	-2.2087768212	-0.0381530074	-0.218305
C	 1.5018861251	-1.488952514	 1.07384992	 0.129644
N	 0.753422977	-0.4789562536	 1.2452581744	-0.307667
C	-1.4242011301	-0.3190081095	 0.2582322686	 0.162678
O	-2.1206991091	-0.782875086	-0.6075861345	-0.261981
H	 1.1540785308	 1.935939738	 0.1896680775	 0.129225
H	-0.4150817132	 2.0901755145	-0.6376272609	 0.123064
H	-0.3375951714	 1.9475793415	 1.1375199138	 0.130532
H	-0.108153099	-0.2311225551	-2.0595170167	 0.126093
H	 1.5301675921	 0.1329903803	-1.4835360732	 0.107664
H	-0.0275996816	-2.4742453033	-1.0713577954	 0.135971
H	 1.445636867	-2.2702277728	-2.0431982992	 0.122433
H	 2.0814626954	-1.8864662825	 1.9057243928	 0.130164
H	-1.808449942	-0.1339941566	 1.2841532126	 0.097627
69.423	116.4217	194.6096	236.5821	292.5149	307.8091	331.1036	347.1264	470.3918	507.7296	561.3081	611.7633	752.9595	790.2789	863.3271	884.8661	925.4828	964.9295	981.4811	1015.3555	1031.6259	1050.106	1136.4975	1166.1217	1195.2682	1246.5955	1280.3588	1295.0889	1362.3959	1393.0923	1400.3898	1409.5371	1418.9105	1467.3088	1484.4344	1493.957	1515.4342	1710.3721	1825.0194	2908.8693	3038.4216	3050.1398	3057.9238	3107.5128	3117.9931	3119.2105	3120.0034	3154.503
CC1(CCOC=N1)C=O	C[C@]1(CCOC=N1)C=O	
InChI=1S/C6H9NO2/c1-6(4-8)2-3-9-5-7-6/h4-5H,2-3H2,1H3	InChI=1S/C6H9NO2/c1-6(4-8)2-3-9-5-7-6/h4-5H,2-3H2,1H3/t6-/m0/s1
