23
gdb 82638	2.264	1.67121	1.30071	0.4538	90.	-0.2273	0.0889	0.3162	1139.7085	0.205222	-351.124151	-351.114896	-351.113952	-351.157317	36.161	
C	-0.0067653303	 1.6314993383	-0.0265641309	-0.429585
C	 0.0882031152	 0.1100123655	 0.0003199568	-0.012353
C	 1.1066348932	-0.6552575484	-0.8984716168	-0.130932
C	 2.5039923458	-0.1125400696	-0.4982402936	-0.241284
C	 2.2418493177	-0.7519355059	 0.8615375131	-0.162424
C	 0.7329969195	-0.6285079723	 1.178171567	 0.295916
C	 0.2067737349	-0.7366900125	 2.5796066255	-0.512768
C	 1.2414108853	-1.7262658971	 0.2699807166	 0.312106
C	 1.1264390641	-3.2145897837	 0.3044276579	-0.532319
H	 0.949095864	 2.1088759072	 0.2067434321	 0.116827
H	-0.331626993	 1.9889589632	-1.0106316546	 0.110028
H	-0.7373979057	 1.987033774	 0.7087919977	 0.111321
H	-0.9076808317	-0.320494292	-0.1684586758	 0.060468
H	 0.8694608626	-0.8680061058	-1.9402938472	 0.059102
H	 3.2989384437	-0.6417387277	-1.0326068851	 0.093441
H	 2.6830064844	 0.9662484941	-0.5673892555	 0.083924
H	 2.9502531684	-0.9434743172	 1.6594210379	 0.073454
H	 0.2694275581	 0.2222447357	 3.108010602	 0.119164
H	-0.8435580078	-1.051652098	 2.5884657353	 0.113597
H	 0.7752822735	-1.4676778833	 3.165274317	 0.114904
H	 0.1391075499	-3.5531181277	-0.0325081107	 0.11786
H	 1.8755457284	-3.696031997	-0.3356584162	 0.119377
H	 1.2735934898	-3.5926669799	 1.3223744874	 0.120176
147.3985	173.8305	182.175	189.8833	199.3233	216.6024	294.9069	300.4433	339.8904	491.8602	560.0796	596.7621	659.7678	675.979	744.3328	784.4038	847.447	890.4708	920.1463	925.8801	965.7219	991.4468	1012.6366	1038.8064	1076.7126	1081.5035	1102.0171	1119.2086	1129.0788	1139.2756	1163.917	1197.2871	1224.0953	1236.0774	1270.566	1291.6563	1338.0612	1386.3978	1405.5274	1412.473	1416.8241	1470.126	1482.7798	1488.1255	1491.7315	1493.4381	1495.5085	1506.9911	1513.524	3014.4627	3015.7886	3017.9838	3026.7929	3033.6679	3070.3231	3074.4713	3083.0715	3083.9387	3086.0429	3087.0983	3108.2157	3118.8104	3178.2616
CC1C2CC3C1(C)C23C	C[C@H]1[C@H]2C[C@H]3[C@]1(C)[C@@]23C	
InChI=1S/C9H14/c1-5-6-4-7-8(5,2)9(6,7)3/h5-7H,4H2,1-3H3	InChI=1S/C9H14/c1-5-6-4-7-8(5,2)9(6,7)3/h5-7H,4H2,1-3H3/t5-,6+,7-,8+,9-/m0/s1
