14
gdb 108748	2.64502	1.3514	0.8994	2.9133	69.54	-0.2802	-0.0853	0.1949	1198.5404	0.100791	-473.874865	-473.866815	-473.865871	-473.908009	28.859	
O	 0.0082573792	 1.4191293537	 0.0078546967	-0.414636
C	-0.0146630859	 0.008263054	 0.0024627555	-0.174511
C	-1.4312064913	-0.4455788518	 0.012163977	 0.160065
C	-2.5705806695	 0.2558237354	 0.0238053077	-0.277957
C	-3.6932013721	-0.6888355092	 0.0291690349	 0.419091
N	-4.924701353	-0.417632261	 0.0398724372	-0.513596
O	-3.171526787	-1.9777158817	 0.020215957	-0.233209
C	-1.7875514013	-1.8893173671	 0.0098953025	 0.396063
O	-1.0785673214	-2.8517132911	 0.0003070197	-0.322556
H	 0.9252893742	 1.7078145118	 0.0013320097	 0.299869
H	 0.4854649239	-0.4162602898	-0.8840318504	 0.127569
H	 0.4997787277	-0.4232553599	 0.8773056654	 0.127562
H	-2.7002300398	 1.3267587176	 0.0287492866	 0.163144
H	-5.4868485337	-1.2706272509	 0.0411182606	 0.243102
81.6389	156.2619	159.4009	181.2943	237.1589	330.5195	376.4042	402.4582	586.9931	632.0511	673.694	674.9561	776.1692	830.7487	893.6674	916.0033	929.1922	1010.1076	1034.7476	1076.9873	1119.1783	1170.1814	1225.1743	1241.7215	1314.1608	1346.4521	1470.2079	1495.9465	1701.1853	1765.6363	1883.6844	2967.9991	2985.2216	3271.6394	3482.0557	3841.1044
OCC1=CC(=N)OC1=O	OC[C]1C=C([NH])OC1=O	
InChI=1S/C5H5NO3/c6-4-1-3(2-7)5(8)9-4/h1,6-7H,2H2	InChI=1S/C5H5NO3/c6-4-1-3(2-7)5(8)9-4/h1,6-7H,2H2
