15
gdb 15281	4.96795	1.12216	0.9824	1.7318	74.06	-0.2478	0.0299	0.2777	1154.0277	0.11667	-325.426518	-325.418231	-325.417287	-325.459587	30.441	
C	 0.0705538888	-1.1814060625	-0.3563771429	-0.441093
C	 0.0285178369	-0.0205552162	-0.0484924077	 0.296802
C	 0.0107197344	 1.3868607604	 0.3341839259	-0.360561
C	 1.3804632249	 2.0327291435	 0.2083232284	 0.00029
N	 1.7178009116	 2.605680612	-1.0914151532	-0.312582
C	 1.5410969114	 3.5156387622	 0.0680096555	-0.256138
C	 0.4216944825	 4.4170168012	 0.0467846059	 0.381207
C	-0.506185731	 5.1814568683	 0.0660261184	-0.445667
H	 0.0920358309	-2.2052878574	-0.6362607517	 0.195198
H	-0.6958424708	 1.9431725245	-0.2901182412	 0.152237
H	-0.337969186	 1.4848730738	 1.3705460348	 0.134518
H	 2.1688184944	 1.5244392051	 0.7604204492	 0.101296
H	 2.7082338524	 2.4967083368	-1.2928152045	 0.24015
H	 2.4421361184	 3.933137466	 0.5129177331	 0.113248
H	-1.3265109488	 5.8558565525	 0.06939084	 0.201095
58.3393	92.95	160.2187	216.3352	324.0019	338.1891	369.339	497.1306	551.3465	595.7279	617.3879	620.762	643.8568	662.1215	805.0402	834.1505	876.5274	935.1048	969.8926	1005.3991	1015.0492	1112.7053	1178.8583	1211.8061	1247.2505	1271.9168	1322.0154	1400.0283	1454.8011	1459.2778	2239.7508	2240.867	3028.8951	3082.0023	3121.5912	3131.7259	3503.3326	3507.3893	3509.0227
C#CCC1NC1C#C	C#CC[C@H]1N[C@H]1C#C	
InChI=1S/C7H7N/c1-3-5-7-6(4-2)8-7/h1-2,6-8H,5H2	InChI=1S/C7H7N/c1-3-5-7-6(4-2)8-7/h1-2,6-8H,5H2/t6-,7+/m0/s1
