23
gdb 93850	2.16692	1.53408	1.14936	1.8459	80.06	-0.2459	0.0624	0.3083	1189.6193	0.20496	-425.445989	-425.435973	-425.435029	-425.479973	38.974	
C	-0.7581522591	 1.3044317523	 0.0329464561	-0.428239
C	-0.0559615404	-0.0507593382	 0.0219637578	 0.042882
C	 0.8414677591	-0.3091454418	-1.2168383721	-0.2326
C	 1.946238213	-1.301366547	-0.7540594379	-0.260838
C	 1.6073099494	-1.61233109	 0.7144023311	 0.101784
O	 2.6870077079	-2.0368544376	 1.5290888352	-0.453132
C	 0.8618830125	-0.3540252559	 1.2236898655	 0.353808
C	 1.8292875602	 0.7848020353	 1.5733513554	-0.457445
O	 0.0521175089	-0.6531676529	 2.3548069781	-0.493953
H	-0.0448768097	 2.1312630185	-0.0525513585	 0.110439
H	-1.4562969929	 1.3864057336	-0.8069157259	 0.109687
H	-1.3275671721	 1.4381773942	 0.9578309635	 0.129613
H	-0.8284386174	-0.8295406828	 0.0593380352	 0.082137
H	 0.2559075108	-0.7012713353	-2.0525832138	 0.102316
H	 1.2862987022	 0.6293099081	-1.5649099804	 0.098041
H	 1.9937744837	-2.208786055	-1.3607188859	 0.107596
H	 2.9382061689	-0.8356812893	-0.8110531854	 0.088276
H	 0.8841235851	-2.4342010446	 0.7672146837	 0.093047
H	 3.4289810389	-1.4427177162	 1.3739309127	 0.279663
H	 2.4151688955	 1.1206296964	 0.7107761299	 0.110353
H	 1.2746038829	 1.6409700803	 1.9630645813	 0.131128
H	 2.5280273435	 0.4582996862	 2.351566978	 0.106321
H	 0.6336117094	-1.0371174584	 3.0217703763	 0.279117
100.89	115.8574	206.7906	226.3446	240.8245	254.3857	293.808	297.6933	328.1657	368.0384	398.6828	445.2611	492.3715	556.7912	561.7321	601.9641	709.2307	818.0653	834.9652	891.205	943.6467	979.2033	991.6015	1010.1343	1057.9611	1064.3044	1072.27	1112.5546	1143.6144	1146.5233	1207.6213	1232.9118	1254.0112	1282.6284	1300.811	1316.4427	1333.3974	1348.087	1360.6463	1393.1107	1406.3261	1410.8515	1442.7661	1483.7482	1492.3496	1497.7149	1502.742	1508.9213	1512.6252	3019.8177	3026.2612	3031.3807	3032.8785	3046.9262	3050.9833	3082.8082	3093.1455	3095.6793	3103.2269	3108.8427	3126.5418	3788.3346	3807.5879
CC1CCC(O)C1(C)O	C[C@H]1CC[C@@H](O)[C@]1(C)O	
InChI=1S/C7H14O2/c1-5-3-4-6(8)7(5,2)9/h5-6,8-9H,3-4H2,1-2H3	InChI=1S/C7H14O2/c1-5-3-4-6(8)7(5,2)9/h5-6,8-9H,3-4H2,1-2H3/t5-,6+,7+/m0/s1
