14
gdb 19750	3.77023	2.35325	2.23882	3.0831	59.3	-0.2268	-0.0193	0.2074	676.321	0.109679	-382.545185	-382.539776	-382.538832	-382.574552	22.157	
O	 0.0079763001	 0.007161468	 0.033581353	-0.33305
C	-0.0362097802	 1.2052323976	 0.0063260491	 0.471016
C	-1.1947111737	 2.1560373511	 0.0108384419	-0.244355
C	-0.6766423567	 3.3755476457	 0.8157327655	-0.114584
C	 0.7568591125	 3.0593770252	 1.2570586447	-0.240845
C	 1.1175844546	 2.2473271995	-0.0075912795	-0.071694
O	 0.7145490785	 3.1089450832	-1.0847710304	-0.260115
C	-0.6173042935	 3.383823642	-0.6759421161	 0.106176
H	-2.2303158361	 1.8553791667	-0.0328430252	 0.114083
H	-1.3558315226	 3.9974115028	 1.3819037605	 0.108175
H	 1.3691570582	 3.9582340114	 1.3678117411	 0.117724
H	 0.8142309946	 2.4568852965	 2.1676859503	 0.121773
H	 2.1292212399	 1.881927442	-0.1516193902	 0.104587
H	-1.1724979256	 4.0307700282	-1.3391653549	 0.121111
162.772	380.8778	454.1662	514.2719	608.5302	663.9605	724.7453	785.7841	804.4111	831.2208	843.3144	908.174	912.8714	950.0213	964.7319	981.8839	1036.0709	1044.7727	1066.9705	1078.8758	1139.2657	1156.5915	1206.7795	1248.8899	1269.7466	1285.3694	1317.6494	1377.2323	1485.6799	1881.0201	3061.9851	3116.0603	3187.1878	3216.9011	3231.5313	3243.4009
O=C1C2C3CC1OC23	O=C1[C@H]2[C@H]3C[C@@H]1O[C@@H]23	
InChI=1S/C6H6O2/c7-5-3-1-2-4(5)6(2)8-3/h2-4,6H,1H2	InChI=1S/C6H6O2/c7-5-3-1-2-4(5)6(2)8-3/h2-4,6H,1H2/t2-,3+,4-,6-/m1/s1
