19
gdb 59929	2.18025	1.07947	0.8664	1.2342	84.32	-0.2626	0.0103	0.273	1436.1635	0.153863	-385.807257	-385.796562	-385.795617	-385.843506	38.666	
C	-0.4502238734	 1.3301719342	-0.0727902542	-0.394695
C	 0.0650156587	-0.1094887291	-0.0136432268	 0.160349
C	 1.0505249466	-0.4193587019	-1.1335940963	-0.393822
O	 0.7736745507	-0.3569976826	 1.2104306121	-0.260837
C	-0.0452680423	-0.6007911824	 2.3442288162	-0.228636
C	-0.7617057386	-1.8869747042	 2.2537501503	 0.348659
C	-1.3586954155	-2.925244308	 2.160842825	-0.470625
C	 0.802693807	-0.5535924824	 3.5387072412	 0.314369
C	 1.4752800092	-0.5004971021	 4.5309440836	-0.412022
H	 0.3846245008	 2.0344970539	-0.0035033719	 0.12645
H	-0.9765463134	 1.5061426528	-1.0163843186	 0.11742
H	-1.1517549862	 1.5502274469	 0.737894854	 0.116057
H	-0.7826362609	-0.8068024204	-0.0783834186	 0.083436
H	 1.9255330732	 0.2342729068	-1.0605272306	 0.125417
H	 1.3901009751	-1.4557813261	-1.0661747549	 0.126824
H	 0.5830723326	-0.2646384214	-2.110581761	 0.112752
H	-0.8032852469	 0.1943652858	 2.4425910595	 0.123847
H	-1.8791810435	-3.8484122152	 2.0878557075	 0.203945
H	 2.0772412468	-0.4595120745	 5.4050238635	 0.201115
35.3083	79.2961	125.5926	130.9983	203.6181	217.9104	242.4627	287.2644	330.9958	338.3189	429.6754	452.6938	500.8556	558.1087	618.7421	633.8963	640.1387	672.1345	679.7683	839.2127	895.7624	928.4867	936.3381	947.4526	1037.1563	1074.4938	1143.0021	1161.5616	1201.1913	1322.0087	1325.5542	1371.9553	1389.9487	1403.573	1415.7397	1480.7535	1484.1358	1495.244	1508.8954	2234.5551	2251.1174	2960.7305	3004.8705	3036.4214	3043.6272	3104.6021	3111.3728	3118.4976	3126.69	3501.4895	3503.8245
CC(C)OC(C#C)C#C	CC(C)OC(C#C)C#C	
InChI=1S/C8H10O/c1-5-8(6-2)9-7(3)4/h1-2,7-8H,3-4H3	InChI=1S/C8H10O/c1-5-8(6-2)9-7(3)4/h1-2,7-8H,3-4H3
