15
gdb 28837	3.20085	1.43495	1.0867	4.3449	83.06	-0.2164	-0.0683	0.1481	1078.5555	0.114639	-412.994291	-412.986692	-412.985748	-413.026353	29.182	
N	 0.0949559836	 1.3393527665	-0.2289650679	-0.571531
C	 0.0080898865	-0.0444588192	-0.05047166	 0.245124
C	-1.1787448505	-0.7099033727	-0.1889179958	-0.077801
N	-1.4955624578	-1.9718099212	 0.2419451359	-0.184734
C	-0.6723152901	-2.9454800515	 0.3554477929	-0.015051
C	 0.7554210134	-2.922576992	-0.0672914284	 0.285448
N	 1.2018736765	-3.856498563	-0.8090984002	-0.494764
N	 1.538318387	-1.9120312753	 0.4932329785	-0.247607
C	 1.2044637178	-0.672604206	 0.4901223004	-0.029351
H	 0.961748891	 1.6612678404	-0.6374043756	 0.256347
H	-0.7030007175	 1.7540010997	-0.6903456928	 0.255339
H	-2.0375470633	-0.1448902303	-0.5497047842	 0.099817
H	-1.042396866	-3.8866346295	 0.7616959391	 0.135299
H	 2.200117117	-3.7098872463	-0.985224914	 0.221056
H	 1.9154589524	 0.0184096804	 0.9514323023	 0.122408
79.4828	174.953	291.8523	309.4397	339.6436	359.6583	422.3701	454.5646	508.6801	597.7689	619.5777	673.6932	696.9519	768.6134	862.2882	895.5807	912.7441	933.0036	953.0865	982.9016	1063.3011	1103.7799	1186.07	1289.1756	1332.0505	1381.0446	1410.726	1458.3473	1564.7257	1651.2156	1663.0868	1683.2826	1710.7798	3090.6699	3128.1391	3134.9926	3433.6981	3550.1258	3648.7528
NC1=CN=CC(=N)N=C1	NC1=CN=C[C]([NH])N=C1	
InChI=1S/C5H6N4/c6-4-1-8-3-5(7)9-2-4/h1-3,7H,6H2	InChI=1S/C5H6N4/c6-4-1-8-3-5(7)9-2-4/h1-3,7H,6H2
