18
gdb 84389	2.10206	1.83513	1.11202	3.3042	77.45	-0.231	0.0021	0.2331	1113.4487	0.148121	-398.152981	-398.143952	-398.143008	-398.186969	32.419	
C	-0.2353566633	 1.5692194605	-0.0770648604	-0.398666
C	 0.1039031042	 0.0847703956	-0.0557954403	 0.036946
N	 0.9983478469	-0.3027410788	-1.1610482049	-0.269446
C	 1.8591382388	-1.1014428096	-0.6665049256	 0.068071
N	 1.7662789649	-1.403059427	 0.6816068477	-0.046106
C	 2.8490726731	-1.9716324066	 1.4591196958	-0.346536
C	 0.8207963813	-0.4405734632	 1.2514331442	-0.178016
C	 1.5164457428	 0.61058009	 2.0217809123	 0.28833
N	 2.0796272696	 1.4122313527	 2.635518557	-0.334329
H	 0.6659833368	 2.1794550138	 0.0220920448	 0.142804
H	-0.7122126932	 1.8136638096	-1.0292050643	 0.133837
H	-0.9219018087	 1.8319647881	 0.7339281008	 0.118865
H	-0.8233745785	-0.4941587951	-0.1632173916	 0.100048
H	 2.6364823785	-1.5890377086	-1.2485808689	 0.130707
H	 3.4601123802	-2.5975670872	 0.8043802046	 0.140179
H	 3.4915393247	-1.2041651388	 1.912129587	 0.14659
H	 2.4523014204	-2.6059142951	 2.2584888004	 0.135929
H	 0.1134638415	-0.9292716801	 1.9288648514	 0.130796
61.7603	122.7517	151.5758	170.1551	222.0897	241.0227	284.3985	363.7001	386.0392	473.0723	538.9101	609.3254	668.6483	765.4872	823.2178	872.1906	921.9803	956.1398	986.4772	1052.4233	1071.2614	1121.5847	1150.9293	1156.8677	1213.7044	1244.1313	1298.8937	1324.4603	1340.793	1363.877	1394.3958	1416.3514	1466.3036	1481.1163	1485.5161	1496.2949	1522.9013	1690.5808	2346.3302	3009.721	3010.1646	3046.6561	3059.3339	3076.8766	3119.7897	3123.267	3132.8992	3181.4425
CC1N=CN(C)C1C#N	C[C@H]1[N][CH]N(C)[C@H]1C#N	
InChI=1S/C6H9N3/c1-5-6(3-7)9(2)4-8-5/h4-6H,1-2H3	InChI=1S/C6H9N3/c1-5-6(3-7)9(2)4-8-5/h4-6H,1-2H3/t5-,6+/m1/s1
