19
gdb 72511	2.76534	1.74506	1.71791	1.3843	78.66	-0.2274	-0.006	0.2214	931.0592	0.160704	-385.890369	-385.883128	-385.882184	-385.921243	30.589	
C	-0.0203665357	 1.5254736367	 0.0266318583	-0.494171
C	-0.0256638595	 0.0013743267	 0.0492425036	 0.178622
C	 0.6988004831	-0.6091711023	-1.2161134339	-0.061541
O	 0.6792444549	-2.0219591159	-1.1694805059	-0.273564
C	-0.0027662878	-2.517972838	 0.0311031021	-0.008155
C	 0.7418606735	-1.9424700442	 1.2193073182	-0.082177
C	 0.7384284397	-0.6112248923	 1.214250203	-0.091279
C	-1.4088532455	-1.9531890127	-0.0068871596	-0.082176
C	-1.4127668208	-0.6219461236	-0.0122025015	-0.09128
H	 1.0020992072	 1.917316718	 0.0165625521	 0.117923
H	-0.5355420921	 1.9096571604	-0.8599768115	 0.117923
H	-0.5257328114	 1.9300312313	 0.9096213479	 0.122844
H	 0.1885851342	-0.2672484328	-2.1265972745	 0.093148
H	 1.7396048402	-0.2595236662	-1.2422937846	 0.093148
H	 0.0425507792	-3.6036446876	-0.0388904774	 0.073341
H	 1.2669107691	-2.5711353921	 1.9278072857	 0.100863
H	 1.2772721194	 0.0207749865	 1.9117431002	 0.092834
H	-2.2812412572	-2.5888175816	-0.0951225924	 0.100863
H	-2.2921920604	 0.0029862495	-0.1233025098	 0.092834
212.7501	243.2874	274.3019	302.9854	398.7536	408.0981	466.2363	488.9861	545.434	657.2453	693.3645	695.8026	718.3119	734.7446	833.6943	875.4999	911.2141	921.6433	935.1665	950.7209	984.4417	999.843	1021.508	1035.0104	1106.6216	1136.1367	1164.6841	1198.7162	1224.0894	1262.2207	1291.4667	1314.7093	1343.7772	1359.0664	1391.3417	1414.1783	1495.436	1497.484	1516.6614	1644.375	1694.0365	2996.9051	3031.1601	3036.5844	3100.3236	3101.198	3128.2351	3179.4644	3181.0631	3209.4613	3212.2752
CC12COC(C=C1)C=C2	C[C@@]12CO[C@@H](C=C1)C=C2	
InChI=1S/C8H10O/c1-8-4-2-7(3-5-8)9-6-8/h2-5,7H,6H2,1H3	InChI=1S/C8H10O/c1-8-4-2-7(3-5-8)9-6-8/h2-5,7H,6H2,1H3/t7-,8+
