24
gdb 6417	4.03347	0.89654	0.87658	1.3154	82.13	-0.2613	0.0703	0.3316	1498.9312	0.220968	-351.421805	-351.411033	-351.410089	-351.457697	39.155	
C	 0.022033502	 1.5691175522	 0.1838042064	-0.381362
C	 0.0089249329	 0.0456249488	 0.0401690853	-0.183558
C	 0.6677152046	-0.4460073153	-1.2559602738	 0.127195
O	 2.0182116636	 0.0110510495	-1.3583627307	-0.427399
C	 0.580100676	-1.9709850511	-1.4047760457	-0.196283
C	 1.211739628	-2.5422786481	-2.6875428111	 0.050254
C	 1.299941725	-4.0721371622	-2.6085753124	-0.391467
C	 0.4541154317	-2.1098422864	-3.9506418564	-0.386822
H	 1.0432876567	 1.9525276527	 0.1145937163	 0.126674
H	-0.5634862321	 2.0436701706	-0.6115824779	 0.113002
H	-0.402144269	 1.8824324916	 1.1425086069	 0.107141
H	 0.5287599864	-0.4161839952	 0.8929492008	 0.082357
H	-1.0218850423	-0.3289661535	 0.0755100174	 0.094762
H	 0.1617119071	 0.034489747	-2.1026516673	 0.086478
H	 2.5148893762	-0.3958608237	-0.6388737552	 0.27448
H	 1.0709480188	-2.4259172722	-0.5304305854	 0.075859
H	-0.4751088801	-2.2732752765	-1.3480716788	 0.089617
H	 2.2303761644	-2.1401516715	-2.7516504169	 0.082021
H	 0.301993291	-4.5215257651	-2.5334750717	 0.108755
H	 1.7818651985	-4.4872086446	-3.5001140802	 0.108663
H	 1.875539074	-4.3967418037	-1.7348968254	 0.104772
H	 0.9172519442	-2.5364343045	-4.8464818473	 0.109256
H	-0.5872462548	-2.4541617343	-3.9207925869	 0.106162
H	 0.445491187	-1.0230254544	-4.0729888402	 0.119444
40.9267	82.1174	125.6616	138.726	218.8358	225.8417	245.6865	266.4072	301.1637	314.9244	358.162	416.4448	428.7766	473.4713	552.4421	777.6756	816.0604	844.0968	897.9299	930.9605	956.0921	967.2087	976.8975	1018.6698	1057.4586	1088.3306	1111.2065	1137.3408	1174.4922	1193.1372	1237.0504	1268.0708	1286.9822	1329.9067	1354.2814	1376.0722	1381.604	1391.8442	1403.0498	1406.8987	1420.5317	1424.4304	1470.7381	1482.788	1488.7991	1495.0464	1495.9801	1505.4096	1509.4184	1512.1936	2986.0375	2999.149	3019.9951	3022.5703	3026.1902	3035.895	3037.1847	3040.769	3056.4003	3084.3696	3091.8366	3095.7535	3100.4028	3107.7264	3122.329	3789.0696
CCC(O)CC(C)C	CC[C@@H](O)CC(C)C	
InChI=1S/C7H16O/c1-4-7(8)5-6(2)3/h6-8H,4-5H2,1-3H3	InChI=1S/C7H16O/c1-4-7(8)5-6(2)3/h6-8H,4-5H2,1-3H3/t7-/m1/s1
