23
gdb 119051	1.94852	1.12746	0.88161	0.9779	82.62	-0.241	0.0794	0.3204	1479.8911	0.202642	-425.40098	-425.390059	-425.389115	-425.437201	39.72	
C	 0.7679229167	 1.3251421209	-0.7967064532	-0.383251
C	 0.7137469812	-0.1727543129	-0.4873471396	-0.159511
C	 0.6580121798	-0.4687207773	 1.0168367897	-0.249122
C	 0.5500352432	-1.9492168296	 1.3237774516	 0.410125
C	 1.7898520805	-2.8091227706	 1.2988443998	-0.379101
C	 1.094515104	-2.5082053258	 2.6118795227	 0.024408
O	 1.6678878468	-1.6197494688	 3.5265972642	-0.422045
O	-0.5790249082	-2.6067226181	 0.80758034	-0.283875
C	-1.8012669944	-2.2536894061	 1.4280441204	-0.252236
H	 1.6501962459	 1.7931007569	-0.3452918477	 0.111575
H	 0.8089505609	 1.5088922319	-1.8750245513	 0.109616
H	-0.1143537011	 1.8440290116	-0.4048076827	 0.111201
H	-0.1589607022	-0.6243178707	-0.9726681167	 0.10672
H	 1.5902318933	-0.6723672255	-0.9192751346	 0.094443
H	 1.5459724509	-0.0760355147	 1.52156007	 0.110012
H	-0.1930687153	 0.061992605	 1.4646589047	 0.093425
H	 1.6968351139	-3.8097719747	 0.8927702489	 0.119955
H	 2.7337610416	-2.3088317498	 1.1085565454	 0.111654
H	 0.5223341713	-3.3247484665	 3.052481479	 0.092024
H	 2.4577452474	-2.0349659252	 3.8885716011	 0.288694
H	-1.7533334493	-2.3763476567	 2.5192529025	 0.110072
H	-2.0986449005	-1.2191307155	 1.2087520552	 0.110953
H	-2.5635032463	-2.9262024777	 1.0270089706	 0.124264
67.6064	76.5096	114.7756	133.007	175.7967	211.5586	240.2983	252.1227	299.955	315.3514	332.9955	430.0135	456.2507	497.035	574.8732	731.6758	747.3068	829.7125	870.4558	896.9054	912.5489	963.3348	990.4182	1022.7308	1046.7021	1062.2299	1107.2975	1118.3506	1124.4085	1177.2676	1184.2804	1213.6886	1237.0785	1266.0234	1294.1709	1300.304	1331.8116	1339.9608	1393.1867	1409.5034	1411.7953	1469.0673	1479.9447	1487.9932	1492.8879	1499.1572	1500.9035	1509.9407	1513.9897	2993.7775	3018.1961	3026.0737	3030.744	3046.8299	3058.9675	3084.8703	3096.5779	3099.3873	3100.7383	3114.4696	3133.0114	3228.6243	3802.1
CCCC1(CC1O)OC	CCC[C@]1(C[C@H]1O)OC	
InChI=1S/C7H14O2/c1-3-4-7(9-2)5-6(7)8/h6,8H,3-5H2,1-2H3	InChI=1S/C7H14O2/c1-3-4-7(9-2)5-6(7)8/h6,8H,3-5H2,1-2H3/t6-,7-/m1/s1
