20
gdb 88531	3.28305	1.2763	1.14122	1.6027	79.64	-0.2304	0.07	0.3004	1156.4531	0.170876	-403.052636	-403.044286	-403.043342	-403.086566	32.153	
C	 1.104115158	 1.2134198847	-0.6161974429	-0.397894
C	 0.1923513072	 0.1522779798	-0.0509333149	 0.021972
N	 0.7918015632	-1.1139236479	 0.3911321722	-0.334182
C	 0.1395895968	-0.2403774228	 1.3882367611	-0.241584
C	 1.0054123145	 0.3514554037	 2.4470453761	 0.506706
C	 0.866628601	 0.2086510656	 3.9897491828	-0.267184
C	 1.9149624322	 1.2959116449	 3.6736235597	 0.046823
C	 2.5476285131	 0.3718452669	 2.6080994212	-0.253302
O	 1.0060405711	 1.8370731872	 2.6373329943	-0.352259
H	 2.0903985677	 1.1746216113	-0.1535618317	 0.133188
H	 1.2289500184	 1.068346448	-1.6948051158	 0.111709
H	 0.6857627043	 2.2101148802	-0.4480501595	 0.130972
H	-0.769151077	 0.0799883137	-0.5595708079	 0.083077
H	 0.1892922511	-1.9013154417	 0.168041983	 0.232685
H	-0.839994773	-0.5453095167	 1.752855438	 0.082612
H	-0.0736302915	 0.5775624169	 4.4027458309	 0.102631
H	 1.2048991304	-0.7227985946	 4.4515957805	 0.09457
H	 2.3919054701	 2.0120384652	 4.3417900137	 0.093061
H	 3.033935013	-0.5483517625	 2.9398822879	 0.097885
H	 3.0985066795	 0.8817351181	 1.8187275712	 0.108515
24.1943	120.6015	175.6983	193.0057	270.6582	375.3855	412.5108	483.4624	544.5464	589.2673	670.0709	731.7935	783.0035	811.4845	849.7707	891.0179	917.1072	947.0658	955.5927	977.2506	984.3651	1010.9141	1022.8013	1065.8328	1090.6045	1099.1403	1121.8956	1145.0119	1155.7755	1192.2622	1215.8716	1234.8795	1242.9627	1247.4011	1262.6193	1336.7743	1405.1549	1434.1444	1465.2414	1465.9569	1485.5198	1499.6598	1516.3568	3042.9444	3056.9324	3074.2364	3098.4535	3106.6787	3116.3594	3126.0054	3140.7531	3152.4057	3160.0486	3506.4136
CC1NC1C12CC(C1)O2	C[C@H]1N[C@H]1[C@@]12C[C@@H](C1)O2	
InChI=1S/C7H11NO/c1-4-6(8-4)7-2-5(3-7)9-7/h4-6,8H,2-3H2,1H3	InChI=1S/C7H11NO/c1-4-6(8-4)7-2-5(3-7)9-7/h4-6,8H,2-3H2,1H3/t4-,5-,6-,7+/m1/s1
