17
gdb 61505	3.88313	0.80807	0.70563	2.9744	72.55	-0.2577	-0.0529	0.2049	1530.812	0.132261	-458.927429	-458.917773	-458.916829	-458.962413	35.094	
O	-0.1323415577	 1.4353237435	-0.0016422828	-0.433282
C	-0.005410166	 0.0304675922	-0.0153863243	 0.029235
C	 0.7031821073	-0.4837622091	-1.2834539626	-0.244899
C	 0.0193590806	 0.0234707042	-2.5767896337	-0.062388
O	 0.2131242616	 1.4119539687	-2.7615375376	-0.432738
C	 0.5482858127	-0.6868418162	-3.7421880382	 0.343536
C	 0.9831591134	-1.3029831895	-4.6769730348	-0.437833
C	 0.7466451313	-0.4210212821	 1.2200884343	 0.138229
O	 1.1938803439	 0.3760606803	 2.0088822088	-0.255953
H	 0.3844716041	 1.7411122293	 0.7628682589	 0.302205
H	-1.0109576162	-0.422966583	 0.0271389011	 0.107457
H	 1.7456523123	-0.1477811376	-1.2972899021	 0.129382
H	 0.6977338531	-1.5792505736	-1.2742271836	 0.117084
H	-1.0584866475	-0.2117563455	-2.499596904	 0.092596
H	 0.0456848322	 1.8225842635	-1.9002066258	 0.298563
H	 1.3611884871	-1.8345370002	-5.5150955403	 0.198821
H	 0.8765157676	-1.5133325249	 1.3509833468	 0.109985
62.0994	79.6639	119.7808	166.6636	224.9119	273.2343	311.705	342.1501	371.5927	454.4312	499.4767	521.5407	550.4434	582.5319	630.3677	669.5305	755.2481	842.1488	867.6943	920.3799	988.3487	996.2122	1071.8482	1102.1719	1160.1615	1224.6599	1251.3089	1288.8041	1327.5595	1344.4595	1366.7103	1399.8647	1430.7588	1461.7541	1477.17	1811.8082	2243.7481	2924.566	2945.4294	2968.7153	3044.3057	3097.6717	3504.3993	3662.1009	3715.541
OC(CC(O)C#C)C=O	O[C@@H](C[C@@H](O)C#C)C=O	
InChI=1S/C6H8O3/c1-2-5(8)3-6(9)4-7/h1,4-6,8-9H,3H2	InChI=1S/C6H8O3/c1-2-5(8)3-6(9)4-7/h1,4-6,8-9H,3H2/t5-,6-/m0/s1
