18
gdb 37620	2.90932	2.3159	2.07198	1.3378	77.35	-0.2241	0.0143	0.2384	788.1999	0.152652	-364.778039	-364.772551	-364.771607	-364.807366	25.155	
C	-0.0141552359	 1.4930223575	-0.0301833633	-0.160044
C	 1.5192681896	 1.8307288424	 0.0749890555	-0.104033
C	 1.8406868394	 1.6770549731	 1.5357351325	-0.076432
C	 1.488468618	 0.4933376616	 2.0530630882	-0.066183
C	 0.9879577113	-0.5005478621	 1.0569988122	-0.052845
C	 1.9935007098	-0.7115746024	-0.0850443453	-0.085158
C	 2.0865129892	 0.6456740768	-0.762546081	-0.060151
C	 0.9554410063	-0.3076039892	-1.0791446187	-0.047144
N	-0.0256212005	 0.0267559664	-0.0138057557	-0.134902
H	-0.5991957034	 1.9223146987	 0.7858898751	 0.1012
H	-0.4264314097	 1.8203612043	-0.991096858	 0.101514
H	 1.7969428924	 2.8034793934	-0.3335977133	 0.060368
H	 2.2473937998	 2.4962499165	 2.1189144677	 0.090799
H	 1.5817669665	 0.2327754224	 3.1014065334	 0.090078
H	 0.5903532022	-1.417880862	 1.4908862641	 0.077059
H	 2.7708567553	-1.4641297993	-0.132071362	 0.088328
H	 2.8966235363	 0.8056362338	-1.4631240085	 0.087971
H	 0.6545637634	-0.6819398519	-2.0488916729	 0.089575
358.6418	402.706	442.7706	555.4508	589.7647	664.0007	689.1407	721.1693	739.9558	779.5519	805.4807	821.8214	848.5338	897.8729	926.5707	949.9998	960.3686	962.8538	980.6118	1005.6201	1037.449	1050.7239	1060.1176	1062.1124	1093.955	1097.8376	1157.9409	1196.9116	1219.5087	1229.0327	1245.1011	1266.6269	1291.485	1315.7147	1338.6447	1382.1738	1393.5335	1486.8976	1661.5362	3045.6441	3097.4263	3107.2255	3114.5478	3174.965	3182.7913	3190.6797	3198.5511	3204.6147
C1C2C=CC3C4C2C4N13	C1[C@H]2C=C[C@@H]3[C@@H]4[C@H]2[C@@H]4N13	
InChI=1S/C8H9N/c1-2-5-7-6-4(1)3-9(5)8(6)7/h1-2,4-8H,3H2	InChI=1S/C8H9N/c1-2-5-7-6-4(1)3-9(5)8(6)7/h1-2,4-8H,3H2/t4-,5-,6+,7-,8+/m1/s1
