17
gdb 84828	3.05727	1.21958	0.97868	4.0186	70.74	-0.2634	-0.0013	0.2622	1194.6107	0.135701	-458.990568	-458.982195	-458.981251	-459.024325	30.721	
O	-0.1492496696	 0.9999797573	-0.8531399575	-0.4268
C	-0.1107243088	-0.1728646866	-0.0677217091	 0.092408
C	 0.4104270906	-0.0006749832	 1.3405943723	-0.114897
C	-0.3310927573	-0.6534101858	 2.232295728	-0.056119
C	-1.4897670695	-1.3828988633	 1.5925424896	-0.280867
C	-1.5211168054	-0.818545238	 0.1601064729	 0.06027
O	-2.5168938458	 0.2151978867	 0.120262875	-0.202506
C	-3.0899893377	 0.4849633844	-1.0728330787	 0.171589
O	-3.8495092901	 1.3932235065	-1.2251854151	-0.277032
H	-0.6632304544	 1.6554917608	-0.3661527207	 0.294219
H	 0.5220533428	-0.8672262841	-0.6350851764	 0.101671
H	 1.3066756402	 0.5730881387	 1.545064734	 0.108133
H	-0.1353995524	-0.7043404426	 3.2973191084	 0.105942
H	-1.3188217034	-2.4669032615	 1.5809109798	 0.118801
H	-2.4458349747	-1.2160465105	 2.0985303268	 0.13124
H	-1.7585989158	-1.5719441804	-0.5969607995	 0.088179
H	-2.7969231187	-0.2296074883	-1.8638798298	 0.085769
64.5819	71.5735	150.606	230.6809	289.0631	302.6225	376.7493	447.5125	466.7834	554.2217	618.3786	728.4681	765.8189	823.4761	855.2129	918.148	955.1657	983.4599	1009.7588	1028.8668	1043.47	1088.3598	1095.2304	1141.973	1174.5198	1216.2029	1236.9795	1272.2618	1302.8785	1328.3791	1372.2375	1378.0073	1431.7416	1439.5745	1473.8381	1685.7226	1865.2334	2970.5371	3028.1215	3029.8369	3066.1086	3081.2427	3192.1858	3217.0952	3792.7815
OC1C=CCC1OC=O	O[C@H]1C=CC[C@H]1OC=O	
InChI=1S/C6H8O3/c7-4-9-6-3-1-2-5(6)8/h1-2,4-6,8H,3H2	InChI=1S/C6H8O3/c7-4-9-6-3-1-2-5(6)8/h1-2,4-6,8H,3H2/t5-,6+/m0/s1
