15
gdb 16718	5.96773	1.40733	1.26004	4.732	73.8	-0.249	-0.0415	0.2074	945.0782	0.121085	-325.546303	-325.539792	-325.538848	-325.576931	25.231	
N	 0.0447903679	-1.1231890808	 0.1390508372	-0.339135
C	-0.0108863272	 0.0332877162	 0.0838997512	 0.201528
C	-0.0354277945	 1.4504442735	 0.0089302611	 0.17751
C	-1.1413776971	 2.214968188	-0.0199243398	-0.153523
C	-0.8105597782	 3.6590904033	-0.0083678966	-0.068314
C	-0.0712898739	 4.1346701263	 1.2340263125	-0.274648
C	 0.7139559119	 3.7222030497	 0.0229582575	-0.045641
C	 1.2377471931	 2.2885436259	-0.0392202065	-0.324109
H	-2.1542291799	 1.830749865	-0.0212311445	 0.122871
H	-1.4236219014	 4.3636685419	-0.5577040844	 0.10106
H	-0.1169760153	 5.1956819403	 1.4545582641	 0.121472
H	-0.0811015764	 3.4876500586	 2.10529177	 0.123151
H	 1.2428152948	 4.4890167265	-0.5294231238	 0.098668
H	 1.9135763116	 2.0479355577	 0.7892434665	 0.131151
H	 1.7921947845	 2.095211908	-0.9652326146	 0.127958
123.439	166.0132	302.1936	348.4397	462.4664	535.836	565.2071	569.1706	689.019	791.735	806.9686	852.7264	885.4961	914.5419	937.6049	984.3782	1016.7186	1051.0742	1070.956	1093.4381	1103.9312	1178.0912	1185.7486	1211.1213	1278.5723	1316.2337	1351.4256	1374.1955	1473.1188	1485.6133	1656.0874	2332.8701	3035.7181	3069.6688	3128.3059	3179.8327	3188.6167	3213.8353	3219.6843
N#CC1=CC2CC2C1	N#CC1=C[C@H]2C[C@H]2C1	
InChI=1S/C7H7N/c8-4-5-1-6-3-7(6)2-5/h1,6-7H,2-3H2	InChI=1S/C7H7N/c8-4-5-1-6-3-7(6)2-5/h1,6-7H,2-3H2/t6-,7+/m0/s1
