19
gdb 81164	2.41886	1.61022	1.22915	1.7014	75.62	-0.2464	-0.0327	0.2137	1070.1454	0.159135	-423.010517	-423.002285	-423.001341	-423.043536	31.375	
C	-0.2142114318	 1.5259146184	-0.0140935571	-0.439085
C	-0.002046025	 0.0187922579	-0.0053622616	-0.011978
C	 1.1592834916	-0.593209245	-0.8367949212	 0.090639
C	 2.1337572795	-0.2134782222	 0.3022305001	-0.288654
C	 0.8933384004	-0.601582828	 1.1584911432	 0.191571
C	 0.7606169225	-2.0902105103	 0.7780685371	-0.127487
O	 0.9683436102	-2.0061885419	-0.6492473781	-0.277779
C	 0.6951916444	-0.1981053857	 2.577277258	 0.040316
O	 1.4598242983	 0.4893707749	 3.209078295	-0.248239
H	 0.70029268	 2.09300159	 0.1742182844	 0.132442
H	-0.6090584377	 1.8422878955	-0.9856174551	 0.125541
H	-0.9450472529	 1.8193886321	 0.7464783404	 0.127295
H	-0.9545013705	-0.497741585	-0.1616888175	 0.082188
H	 1.3260665004	-0.3793077722	-1.8916270824	 0.084122
H	 3.0313106403	-0.8262227542	 0.404453172	 0.109498
H	 2.3824499984	 0.8436245014	 0.3646433222	 0.121516
H	 1.5317946747	-2.7203263803	 1.2356192603	 0.111994
H	-0.2269132949	-2.513515931	 0.9972697906	 0.105628
H	-0.2545943879	-0.5635241444	 3.0346383999	 0.070473
57.9472	165.3053	188.4106	204.5749	286.8601	316.8482	364.2975	459.4834	485.9541	530.8943	650.8664	704.2818	802.2035	833.7176	863.5098	911.8276	940.9171	962.0906	985.2934	1024.7717	1028.8716	1059.2763	1096.5641	1100.8512	1136.5555	1175.3182	1188.0988	1198.6244	1230.8442	1241.4617	1272.9826	1297.8831	1363.0509	1383.2114	1419.2077	1428.702	1489.0194	1495.7555	1509.9028	1529.3274	1814.6742	2850.9048	3022.2589	3038.9326	3056.4598	3065.9573	3091.2791	3096.7528	3123.5654	3135.5247	3170.2202
CC1C2CC1(CO2)C=O	C[C@H]1[C@H]2C[C@@]1(CO2)C=O	
InChI=1S/C7H10O2/c1-5-6-2-7(5,3-8)4-9-6/h3,5-6H,2,4H2,1H3	InChI=1S/C7H10O2/c1-5-6-2-7(5,3-8)4-9-6/h3,5-6H,2,4H2,1H3/t5-,6+,7-/m0/s1
