18
gdb 82738	2.98837	1.94405	1.56775	1.9582	74.52	-0.213	0.0056	0.2185	889.7196	0.151062	-401.903497	-401.897046	-401.896102	-401.933818	27.724	
O	-0.1034771659	 1.4394676107	-0.0302033504	-0.444414
C	-0.0239113536	 0.0249393703	-0.0172636552	 0.135987
C	-1.4057320439	-0.5794594746	-0.2810426833	-0.079286
C	-1.6155865055	-0.0950225927	-1.7301032437	-0.175015
N	-0.5192180815	-1.0618730985	-2.1112930495	-0.12578
C	-1.035995498	-1.9565251755	-0.9909781371	-0.032592
C	 0.1750185484	-2.7194207304	-0.5372845709	-0.095695
C	 1.229770079	-1.9453988819	-0.8050498285	-0.073572
C	 0.6766440227	-0.6259255639	-1.2919940764	-0.096302
H	 0.7803430242	 1.7857432346	 0.1255845662	 0.282929
H	 0.4339474372	-0.3271748554	 0.9140778784	 0.064423
H	-2.1509772312	-0.4992891269	 0.5106335089	 0.068264
H	-2.554583453	-0.4291310206	-2.1778584683	 0.100445
H	-1.4288240117	 0.9535333241	-1.9582828816	 0.120236
H	-1.9142823855	-2.5334385315	-1.2853502812	 0.078227
H	 0.1630163527	-3.7053103828	-0.092281192	 0.104303
H	 2.273568198	-2.1438284975	-0.5989255958	 0.102039
H	 1.3463408876	 0.0469673126	-1.8289123596	 0.065804
230.3615	274.5895	321.4766	370.0894	416.7325	474.4816	581.0607	645.1306	712.8573	760.267	772.6283	823.6195	831.9942	865.4107	896.0741	921.5666	939.61	968.2525	971.466	987.9109	1011.0901	1035.526	1064.0122	1102.0041	1126.5137	1150.341	1167.3008	1176.8495	1209.897	1240.0812	1261.6297	1269.5604	1295.1458	1319.8176	1327.2984	1359.2469	1427.0765	1510.8266	1645.3234	3033.0585	3074.0743	3099.7481	3107.1625	3115.1095	3149.8499	3207.2914	3232.757	3824.5162
OC1C2CN3C2C=CC13	O[C@H]1[C@H]2CN3[C@H]2C=C[C@H]13	
InChI=1S/C7H9NO/c9-7-4-3-8-5(4)1-2-6(7)8/h1-2,4-7,9H,3H2	InChI=1S/C7H9NO/c9-7-4-3-8-5(4)1-2-6(7)8/h1-2,4-7,9H,3H2/t4-,5-,6+,7-/m0/s1
