19
gdb 115217	4.19107	0.96091	0.82321	6.1052	72.38	-0.277	0.0423	0.3193	1397.9715	0.159823	-460.213872	-460.204986	-460.204042	-460.24828	31.947	
C	 0.1307163807	 1.6184384669	-0.0440905226	-0.392963
C	 0.0977080895	 0.0863875389	-0.0197630889	-0.195674
C	 0.6495624768	-0.5351807528	 1.2715652102	-0.037947
C	-0.20929763	-0.2427445538	 2.492079152	-0.064992
O	 0.2841532449	-0.9130765385	 3.6609889435	-0.258536
C	 0.9042026954	-2.1122499579	 3.6060123251	 0.468121
O	 1.2408471622	-2.6700906516	 4.6065959659	-0.360876
O	 1.1631444572	-2.6526458663	 2.3952827046	-0.259111
C	 0.7264230768	-2.0499002109	 1.1692737037	-0.073673
H	 1.1476378344	 1.99444602	 0.1104963313	 0.125051
H	-0.2210074444	 1.996639071	-1.0081812828	 0.124643
H	-0.5074338747	 2.0552503653	 0.7302444883	 0.125292
H	-0.930723901	-0.2645339918	-0.1785427524	 0.105367
H	 0.6827330647	-0.2987876019	-0.8641768827	 0.108602
H	 1.6602908809	-0.1479307268	 1.4577706589	 0.100011
H	-0.2206006546	 0.8163729804	 2.7569618498	 0.129013
H	-1.2460194227	-0.5614843072	 2.3142292137	 0.114892
H	-0.2551311584	-2.4666843965	 0.9046782204	 0.115156
H	 1.4466977923	-2.3745788565	 0.4137910821	 0.127625
73.0788	86.4703	92.904	179.7954	202.547	261.5063	349.3734	419.015	440.5939	482.6384	585.4079	712.321	764.8111	776.3308	808.3124	910.2737	926.3019	949.9286	1013.9916	1032.514	1071.439	1109.9758	1161.0374	1167.366	1179.9531	1185.6809	1248.5962	1274.458	1310.8415	1323.2194	1376.0797	1395.2248	1417.1822	1428.5101	1431.659	1487.4706	1501.7885	1506.5845	1512.5312	1523.6184	1879.8344	3010.4543	3013.9675	3017.2182	3032.5962	3039.8527	3053.9267	3094.933	3106.2097	3109.7501	3114.1986
CCC1COC(=O)OC1	CCC1COC(=O)OC1	
InChI=1S/C6H10O3/c1-2-5-3-8-6(7)9-4-5/h5H,2-4H2,1H3	InChI=1S/C6H10O3/c1-2-5-3-8-6(7)9-4-5/h5H,2-4H2,1H3
