17
gdb 75311	2.40632	1.69008	1.16329	3.2102	79.52	-0.2488	-0.0087	0.2401	1074.3114	0.136913	-380.875999	-380.867969	-380.867024	-380.908401	30.608	
C	-0.0475478697	 1.5036611266	 0.0570297424	-0.506994
C	-0.0362929929	 0.0117156468	-0.0171010841	 0.285155
C	 0.0380116113	-0.7734430436	-1.0960796722	-0.172821
C	 0.0261181532	-2.2518562505	-0.773034114	-0.2657
C	 0.0168320678	-2.2768413831	 0.7505173239	-0.090645
N	 1.1962636428	-1.6592580729	 1.3715910687	-0.358054
C	-0.0574281739	-0.8517855563	 1.2166104753	 0.138067
C	-0.7783919948	-0.4584327944	 2.3934323539	 0.192479
N	-1.3497493506	-0.1205628253	 3.3416049955	-0.348499
H	 0.8328024597	 1.8775962347	 0.593964305	 0.141101
H	-0.0553937439	 1.947973069	-0.9411144	 0.129358
H	-0.9262981234	 1.8670818803	 0.6028391021	 0.145839
H	 0.1350854886	-0.4055730808	-2.1115167152	 0.101594
H	-0.8590593442	-2.7545887278	-1.1827795231	 0.11813
H	 0.9054419939	-2.7710655636	-1.1720466661	 0.129776
H	-0.5019038013	-3.063896148	 1.2862147131	 0.115103
H	 1.2624743574	-1.9800711611	 2.3374302546	 0.24611
123.2735	140.4442	186.8937	211.8907	288.2671	318.9147	401.2784	491.8988	545.6614	573.6751	617.3915	627.1413	733.8856	814.7795	843.711	853.8563	915.4017	965.9396	986.6956	1031.728	1053.8547	1059.6149	1071.1857	1142.7097	1189.0675	1198.9439	1255.396	1283.3219	1330.5525	1355.5399	1405.805	1418.3769	1466.9308	1478.1159	1488.3141	1710.6207	2346.5897	3026.442	3028.6274	3065.2992	3076.5972	3121.4856	3180.151	3196.7246	3474.9701
CC1=CCC2NC12C#N	CC1=CC[C@H]2N[C@@]12C#N	
InChI=1S/C7H8N2/c1-5-2-3-6-7(5,4-8)9-6/h2,6,9H,3H2,1H3	InChI=1S/C7H8N2/c1-5-2-3-6-7(5,4-8)9-6/h2,6,9H,3H2,1H3/t6-,7+/m1/s1
