19
gdb 53599	5.08312	0.72903	0.68819	1.887	83.76	-0.2379	0.0619	0.2999	1669.1365	0.157595	-385.827423	-385.818041	-385.817097	-385.865317	33.184	
C	 0.0172421736	 1.4297993964	-0.1756559521	-0.496566
C	 0.0180425085	-0.0191592716	-0.0281931414	 0.07716
C	 0.0341021448	-1.2170676991	 0.095879583	 0.043788
C	 0.0132891095	-2.6693375214	 0.237550048	-0.362491
C	-1.3949228527	-3.2605485086	 0.099744737	 0.001385
C	-2.1006178638	-3.1881258639	-1.3060958134	-0.263213
C	-2.1580626355	-4.7203804709	-1.3005789144	 0.036374
O	-0.8092328962	-5.1942798748	-1.1871350548	-0.245426
C	-1.4904599056	-4.7954257675	 0.0084927677	-0.000915
H	 1.0374091721	 1.8298213069	-0.1822007744	 0.14673
H	-0.4620760964	 1.7359007846	-1.1122967399	 0.144995
H	-0.5220709557	 1.9161138233	 0.6450011929	 0.144213
H	 0.6556510083	-3.1331833837	-0.5203733347	 0.141119
H	 0.4299277969	-2.954008677	 1.213628738	 0.120321
H	-2.0522380364	-2.866082641	 0.8794528664	 0.085644
H	-3.0819326135	-2.7114116155	-1.2577536588	 0.1075
H	-1.5204874465	-2.7488998201	-2.1210086201	 0.116018
H	-2.8756301072	-5.3862538569	-1.7655176743	 0.10398
H	-1.558573354	-5.5277029092	 0.8053811353	 0.099383
3.5543	49.3241	78.9853	161.6348	213.4111	249.3275	316.7302	384.6621	400.0076	490.1734	546.6212	724.6432	776.9809	810.1449	837.1028	853.8872	882.6821	938.941	954.1512	1001.907	1036.502	1053.3956	1054.0958	1061.6939	1100.7136	1143.7292	1166.3222	1209.5179	1237.1026	1239.0625	1243.5731	1275.5151	1315.4194	1366.9047	1393.9462	1415.7056	1471.8843	1479.3765	1480.0795	1480.1705	2372.099	3011.8744	3024.7771	3054.7132	3070.3349	3078.1478	3083.8957	3084.5818	3128.146	3175.2574	3192.8168
CC#CCC1CC2OC12	CC#CC[C@H]1C[C@H]2O[C@@H]12	
InChI=1S/C8H10O/c1-2-3-4-6-5-7-8(6)9-7/h6-8H,4-5H2,1H3	InChI=1S/C8H10O/c1-2-3-4-6-5-7-8(6)9-7/h6-8H,4-5H2,1H3/t6-,7+,8-/m0/s1
