19
gdb 11749	4.9905	1.28948	1.20691	2.6167	71.61	-0.2448	0.0696	0.3144	1068.7951	0.165474	-365.024652	-365.016383	-365.015439	-365.057311	31.138	
C	-0.3064288124	 1.4917224777	 0.0836441031	-0.378837
C	 0.1212872313	 0.0264647837	-0.074324372	-0.276521
C	 0.9004364989	-0.4752933347	 1.1074124388	 0.366189
C	 2.3476703373	-0.0975022587	 1.4742439924	-0.345055
C	 2.5384160795	-1.5567906269	 2.0236264149	 0.106787
O	 2.7911418233	-1.72154697	 3.4038409819	-0.432759
C	 1.0893549216	-1.8671800136	 1.6531943867	-0.108925
N	 0.1828974132	-0.9210680166	 2.2977349512	-0.359403
H	 0.5617615662	 2.1514400787	 0.1896580427	 0.113263
H	-0.8777588364	 1.8311520589	-0.7855380703	 0.111569
H	-0.933140889	 1.615278542	 0.9722048989	 0.128972
H	-0.7644083288	-0.606086974	-0.1973795056	 0.109914
H	 0.728144725	-0.0886014939	-0.9817320498	 0.092314
H	 2.9873302169	 0.1111228532	 0.6119828832	 0.101402
H	 2.4571699536	 0.7088450312	 2.2075617423	 0.092683
H	 3.2541393722	-2.1245612235	 1.4142807048	 0.072842
H	 3.6778053804	-1.3965036872	 3.5900994062	 0.285231
H	 0.6956087229	-2.8223594109	 1.3241878744	 0.08807
H	 0.5774971345	-0.5676439254	 3.1678726463	 0.232264
80.3009	107.6615	183.5423	222.319	281.7328	318.8756	359.9745	412.1673	453.6712	596.2809	660.8143	733.8908	786.7673	819.5871	868.2216	927.4683	951.1702	975.2547	992.0272	1010.3567	1063.7788	1069.5546	1119.0341	1136.3095	1163.3555	1180.4129	1199.5172	1237.3161	1258.2315	1280.1106	1302.0665	1342.1116	1352.9169	1404.9692	1409.7896	1448.3984	1475.1302	1485.3722	1498.4521	1509.2817	3011.589	3024.5848	3034.1652	3039.8506	3071.186	3098.5398	3102.9255	3112.4868	3175.8164	3469.1996	3816.1306
CCC12CC(O)C1N2	CC[C@]12C[C@@H](O)[C@H]1N2	
InChI=1S/C6H11NO/c1-2-6-3-4(8)5(6)7-6/h4-5,7-8H,2-3H2,1H3	InChI=1S/C6H11NO/c1-2-6-3-4(8)5(6)7-6/h4-5,7-8H,2-3H2,1H3/t4-,5-,6+/m1/s1
