18
gdb 12548	3.28657	1.81785	1.23912	0.3217	69.63	-0.2445	0.0192	0.2637	971.4918	0.154858	-384.932474	-384.924776	-384.923832	-384.964588	29.214	
O	-0.0258790072	 1.4910401064	 0.0876562216	-0.431351
C	 0.0599017539	 0.0710046688	 0.0049416704	 0.094923
C	 0.5836730474	-0.5111590721	 1.3242199384	-0.101479
O	 1.0427110649	-1.836354598	 1.1719653404	-0.233615
C	 0.0630266405	-2.8431924648	 1.2997320517	-0.128819
C	-1.0428788311	-2.8761383526	 0.274209246	-0.057114
C	-1.6089154381	-1.8802856153	-0.4082346462	-0.071088
C	-1.3436155092	-0.3987194093	-0.3672503332	-0.24191
H	 0.8662570858	 1.8391546916	 0.1838929242	 0.283871
H	 0.7649679709	-0.2381645553	-0.782014245	 0.077751
H	 1.4511600126	 0.07844233	 1.6474456562	 0.090055
H	-0.1819155936	-0.433516967	 2.1130999899	 0.092377
H	 0.6179484525	-3.7865780761	 1.2526896271	 0.114557
H	-0.3913899352	-2.7991424988	 2.3080684232	 0.099428
H	-1.4500100094	-3.875415793	 0.1248528001	 0.087994
H	-2.4282880035	-2.1549940624	-1.0700524865	 0.089884
H	-2.0416066229	 0.0667764065	 0.3460967307	 0.122161
H	-1.5943373082	 0.0399751513	-1.339400649	 0.112376
72.2092	126.9219	287.6267	297.2952	322.1401	356.8399	408.25	419.5691	453.2991	559.7435	680.1218	773.9888	837.2903	904.0585	908.237	952.8867	1004.1905	1029.8074	1039.2516	1073.9859	1094.2332	1105.4724	1173.6009	1214.2006	1243.2412	1281.409	1297.0027	1324.373	1342.0338	1364.032	1405.1432	1414.4339	1425.657	1445.6506	1474.6925	1480.1825	1495.7342	1736.9685	2924.0413	2977.1083	2986.471	3001.1689	3044.2247	3061.0492	3062.3471	3124.6336	3149.3248	3818.8764
OC1COCC=CC1	O[C@H]1COCC=CC1	
InChI=1S/C6H10O2/c7-6-3-1-2-4-8-5-6/h1-2,6-7H,3-5H2	InChI=1S/C6H10O2/c7-6-3-1-2-4-8-5-6/h1-2,6-7H,3-5H2/t6-/m1/s1
