17
gdb 70159	2.56618	1.68696	1.17044	4.8295	73.17	-0.23	-0.0805	0.1495	1055.7208	0.135225	-421.860549	-421.852354	-421.85141	-421.893298	30.956	
C	-0.2305690289	 1.5494339471	 0.0756875624	-0.478878
C	 0.0683839303	 0.0735247346	 0.0097325062	 0.213628
C	-0.7430786107	-0.9213201944	 0.8480048657	-0.323366
C	 0.7109955791	-0.744805456	 1.1347193769	-0.095049
C	 1.6345204155	-1.8065065771	 0.5524369298	-0.346001
C	 1.3591322533	-1.7983913116	-0.9501519633	 0.301013
O	 1.7176342073	-2.600265937	-1.7672760645	-0.275312
C	 0.5478708603	-0.501925748	-1.2757393572	 0.265233
O	 0.4234853803	-0.0426600488	-2.3820815751	-0.302746
H	 0.6515747639	 2.1417333559	-0.1871604028	 0.132159
H	-1.0242846808	 1.8109488255	-0.6305342313	 0.143814
H	-0.5523214754	 1.8417323143	 1.0795889888	 0.116702
H	-1.4626747949	-0.4653764243	 1.5190035465	 0.132423
H	-1.0837414245	-1.849016495	 0.3969557563	 0.131311
H	 1.0064410645	-0.2356607647	 2.0450684776	 0.103163
H	 2.6889900665	-1.5387651531	 0.6970333707	 0.143359
H	 1.4925668242	-2.8058107772	 0.9750681632	 0.138545
77.8194	149.6367	180.5551	253.0721	268.591	320.4834	394.5593	417.7439	510.4113	534.4371	599.1497	658.1128	724.7921	807.2125	821.7766	871.1883	910.7709	966.0517	988.2778	1037.4131	1054.2539	1065.7605	1100.3039	1110.5913	1135.9405	1187.3007	1272.6274	1275.7209	1335.7155	1395.8218	1419.5786	1449.5308	1483.5517	1494.8761	1497.5823	1828.5116	1857.5564	3037.9432	3038.9416	3088.6568	3106.9687	3113.6745	3124.7729	3174.4044	3214.193
CC12CC1CC(=O)C2=O	C[C@]12C[C@H]1CC(=O)C2=O	
InChI=1S/C7H8O2/c1-7-3-4(7)2-5(8)6(7)9/h4H,2-3H2,1H3	InChI=1S/C7H8O2/c1-7-3-4(7)2-5(8)6(7)9/h4H,2-3H2,1H3/t4-,7+/m1/s1
