22
gdb 120695	3.05343	0.82158	0.73449	3.3028	84.38	-0.2436	0.0295	0.273	1654.3812	0.193481	-404.384592	-404.374137	-404.373192	-404.420797	37.931	
C	 0.0233578804	 1.5213101337	 0.1897583219	-0.381355
C	-0.080442588	 0.0155156144	-0.066593353	-0.156482
C	 0.9866996558	-0.4960210011	-1.04417143	-0.204575
C	 0.8868241632	-1.9902268533	-1.2724417413	 0.001339
C	-0.0551469054	-2.5766900599	-2.2767220943	-0.282055
C	 1.4366230789	-2.6849405702	-2.5203176198	-0.152271
C	 2.0203733434	-1.8825663408	-3.6410429336	 0.418173
N	 3.2031896508	-2.3666662123	-4.1313023824	-0.533776
O	 1.491799429	-0.8879647481	-4.1100307885	-0.3764
H	 0.9968954493	 1.7842913226	 0.6188704399	 0.110711
H	-0.0893244918	 2.0877985194	-0.7411060306	 0.1189
H	-0.7497923592	 1.863490481	 0.8850016153	 0.10792
H	 0.0034273126	-0.5257909222	 0.8856683035	 0.086486
H	-1.0748627535	-0.2235345328	-0.4642147799	 0.098977
H	 0.8981309687	 0.0238645259	-2.0019740885	 0.137029
H	 1.9833596938	-0.2552586331	-0.6479224182	 0.085245
H	 1.0264222846	-2.5824369259	-0.3698932353	 0.084249
H	-0.5979210943	-3.4846339578	-2.0393168439	 0.109067
H	-0.5679339992	-1.8828164241	-2.9345524289	 0.139766
H	 1.8969163336	-3.6539066384	-2.3523602867	 0.074989
H	 3.7179492445	-3.0888138594	-3.6589576497	 0.255682
H	 3.6830013829	-1.8099170578	-4.8197367859	 0.258382
55.1907	77.0043	86.8457	121.5124	205.9988	211.72	240.1992	249.0467	334.2273	372.3769	429.1304	463.755	578.4973	626.7014	748.228	754.5109	800.1583	810.4287	866.4057	870.9893	903.7491	942.9778	1000.248	1032.4171	1058.3831	1076.798	1084.3556	1120.0498	1128.2226	1147.9468	1203.2412	1237.4189	1272.7918	1285.3555	1308.6696	1330.1833	1384.4876	1410.6719	1423.3465	1438.0707	1481.1051	1488.3003	1498.4582	1499.7013	1512.8317	1615.7375	1775.1247	3008.8305	3013.8449	3028.7781	3047.4332	3093.111	3099.2005	3101.5424	3123.445	3134.5435	3148.8678	3227.6015	3601.1802	3736.6114
CCCC1CC1C(N)=O	CCC[C@H]1C[C@H]1C(=O)N	
InChI=1S/C7H13NO/c1-2-3-5-4-6(5)7(8)9/h5-6H,2-4H2,1H3,(H2,8,9)	InChI=1S/C7H13NO/c1-2-3-5-4-6(5)7(8)9/h5-6H,2-4H2,1H3,(H2,8,9)/t5-,6+/m0/s1
