22
gdb 121465	5.18459	0.68985	0.62993	2.8578	86.96	-0.2404	0.0321	0.2725	1857.2447	0.194579	-404.37867	-404.368995	-404.368051	-404.414715	34.852	
C	-0.2267785543	 1.6345696585	 0.1537879457	-0.381895
C	-0.2176829154	 0.1089779421	 0.0378973045	-0.161686
C	 1.0062097411	-0.5266854139	 0.6974879844	-0.123944
N	 0.9551969245	-1.9803738532	 0.578239256	-0.345417
C	 1.9896759751	-2.647154907	 0.840541459	 0.442689
C	 2.1219165976	-4.1543693212	 0.7831639487	-0.314911
C	 3.6404611383	-4.3581790503	 0.6864791208	-0.230373
C	 4.1642891606	-3.1299531712	 1.4429665181	-0.075267
O	 3.1893364404	-2.0989140036	 1.224121059	-0.24915
H	 0.6575636621	 2.0760300522	-0.3201303025	 0.110509
H	-1.1101626655	 2.065991463	-0.326882224	 0.109426
H	-0.230315779	 1.9545117845	 1.2022362468	 0.1105
H	-1.120259616	-0.3130963979	 0.4953050619	 0.098879
H	-0.2428727002	-0.1900197492	-1.0170295869	 0.095423
H	 1.9276659723	-0.1234072258	 0.2514444553	 0.097499
H	 1.0393826653	-0.2435500894	 1.7607366473	 0.096988
H	 1.7243354329	-4.5856436867	 1.7098472232	 0.127283
H	 1.5498325163	-4.5689099887	-0.0467003456	 0.134326
H	 3.9900203803	-5.2967821149	 1.1209363656	 0.111235
H	 3.9655427536	-4.323713837	-0.3579527716	 0.118781
H	 4.2433151087	-3.320318008	 2.52132397	 0.11005
H	 5.1287065512	-2.7635100124	 1.0832556246	 0.119054
24.6878	85.1074	106.4159	127.7566	210.0393	234.4709	255.0121	291.308	336.7362	519.7145	567.9878	639.8394	716.6786	748.9423	819.4376	878.6537	882.3804	892.7204	901.5614	934.8743	1004.0932	1025.2583	1058.443	1075.474	1095.9691	1131.6125	1151.8579	1189.7674	1197.3355	1212.666	1256.7183	1262.3891	1312.1481	1318.5467	1325.8862	1339.5542	1396.7998	1403.8854	1413.8683	1474.3444	1476.4009	1492.8911	1497.5264	1499.9987	1511.6189	1525.3546	1796.8642	2981.5398	3010.4334	3021.7298	3026.657	3032.7014	3043.0326	3060.7486	3064.3295	3093.1537	3099.2732	3100.985	3118.7209	3135.4993
CCCN=C1CCCO1	CCCN=C1CCCO1	
InChI=1S/C7H13NO/c1-2-5-8-7-4-3-6-9-7/h2-6H2,1H3	InChI=1S/C7H13NO/c1-2-5-8-7-4-3-6-9-7/h2-6H2,1H3
