25
gdb 119397	3.76662	0.92167	0.88058	0.0787	92.65	-0.2807	0.0847	0.3654	1496.7972	0.230992	-352.361714	-352.352703	-352.351759	-352.395657	35.672	
C	-0.0442085555	 1.6024675111	 0.0819145894	-0.377523
C	-0.0055366822	 0.0717373451	 0.0923358844	-0.16805
C	-1.3915333184	-0.5602467451	-0.1016684951	-0.303258
C	-1.4104186176	-2.0750967356	-0.0419452915	 0.383421
C	-1.0389620074	-2.8741874728	 1.250664992	-0.254419
C	-1.8486883791	-4.0036870794	 0.5551777198	-0.016873
C	-2.7543405866	-2.870508509	-0.0007805738	-0.27052
C	-0.9638272778	-4.3284732475	-0.6636325479	-0.211865
C	-0.6309540212	-2.8697750408	-1.1187904325	-0.247797
H	 0.9534344992	 2.0298015891	 0.2243962872	 0.108708
H	-0.4365067219	 1.9821498246	-0.8682611016	 0.112499
H	-0.6886598392	 1.9872586953	 0.8803893396	 0.112278
H	 0.6741108679	-0.2798473265	-0.6935111719	 0.098133
H	 0.4208271724	-0.2767742716	 1.0418931503	 0.097879
H	-2.0718872361	-0.1643143077	 0.6652407292	 0.08585
H	-1.8045172448	-0.2344057714	-1.067682331	 0.088388
H	 0.0194468622	-3.0547672113	 1.4653801539	 0.082313
H	-1.5398470427	-2.4805620699	 2.1394109842	 0.089077
H	-2.2586098042	-4.8447527231	 1.1152852146	 0.054061
H	-3.4458714049	-2.4738984295	 0.7475237684	 0.088817
H	-3.2815670341	-3.0438715249	-0.9451531442	 0.081127
H	-0.0708952178	-4.8987030531	-0.390183673	 0.091736
H	-1.5020208724	-4.8965606751	-1.4283478519	 0.09227
H	-0.9922445305	-2.6478526453	-2.1283100476	 0.090066
H	 0.4422915328	-2.6605475457	-1.0962552909	 0.093679
71.3042	82.3685	131.7925	243.1016	269.5819	305.5042	315.2221	378.8839	441.7362	507.9038	621.0994	702.2914	743.1359	823.757	829.5903	836.101	863.4464	886.4439	903.8739	915.9699	940.5536	968.7469	972.6814	995.1196	1003.8375	1047.497	1073.4538	1092.7695	1098.5917	1131.632	1148.9754	1169.8648	1203.4736	1229.9558	1241.3266	1245.9468	1268.4175	1279.2413	1294.0117	1315.7548	1323.9646	1340.2727	1347.9352	1396.2921	1409.1119	1479.5371	1485.7564	1491.6692	1493.7145	1498.8222	1501.0129	1509.9114	1532.6966	2995.6338	3022.0879	3025.1697	3027.4986	3036.7314	3041.1289	3043.855	3053.3511	3058.101	3079.6268	3094.6395	3096.6755	3099.4576	3101.7057	3102.81	3109.6683
CCCC12CC(C1)CC2	CCC[C@@]12C[C@@H](C1)CC2	
InChI=1S/C9H16/c1-2-4-9-5-3-8(6-9)7-9/h8H,2-7H2,1H3	InChI=1S/C9H16/c1-2-4-9-5-3-8(6-9)7-9/h8H,2-7H2,1H3/t8-,9+
