17
gdb 62323	4.03655	1.26575	1.12357	3.1321	77.05	-0.2263	0.023	0.2492	1089.0584	0.13662	-380.794015	-380.786184	-380.78524	-380.825983	30.974	
N	 0.0458615223	 1.5353287609	-0.0924165759	-0.564264
C	-0.0521317858	 0.0995615195	 0.0125955396	 0.11311
C	 0.9936118627	-0.6140385905	-0.7167477675	 0.237359
N	 1.8471535346	-1.1183910744	-1.3141075606	-0.342671
C	-0.4572476649	-0.6826914466	 1.2556581568	-0.079539
C	-1.6464593281	-0.1365039272	 2.0920512528	-0.077137
C	-2.2970391115	 1.1258416889	 1.5909140295	-0.300416
C	-2.5304497074	-0.1670323923	 0.8547732941	-0.07705
C	-1.3410361925	-0.7128728735	 0.0184431712	-0.079644
H	 0.942841444	 1.8501812826	 0.2658156909	 0.244559
H	-0.0089931156	 1.8176929159	-1.0667360343	 0.244561
H	 0.1998686164	-1.4567595606	 1.6307192183	 0.112653
H	-1.8566251622	-0.5490077131	 3.0700209236	 0.098159
H	-3.1526997782	 1.4173029932	 2.1949854505	 0.109075
H	-1.7303320455	 1.938751886	 1.1659420758	 0.150437
H	-3.5138032721	-0.6062443817	 0.7505396846	 0.098165
H	-1.4645673763	-1.5136009572	-0.6993517595	 0.112645
122.55	157.2789	212.5502	263.911	296.5783	346.7985	450.9718	506.6836	571.5495	572.8391	689.5285	692.5994	738.1486	777.6038	826.8814	855.4142	875.153	884.7754	960.3109	988.4441	1027.6694	1031.3881	1041.9829	1057.5218	1088.7272	1090.0806	1118.3364	1193.794	1260.3776	1273.8442	1282.6501	1283.6328	1330.0513	1400.0447	1470.7036	1651.0116	2336.046	3132.479	3186.6955	3195.953	3196.2556	3206.0868	3263.5972	3489.1579	3570.3772
NC1(C#N)C2C3CC3C12	N[C@@]1(C#N)[C@H]2[C@H]3C[C@H]3[C@@H]12	
InChI=1S/C7H8N2/c8-2-7(9)5-3-1-4(3)6(5)7/h3-6H,1,9H2	InChI=1S/C7H8N2/c8-2-7(9)5-3-1-4(3)6(5)7/h3-6H,1,9H2/t3-,4+,5-,6+,7-
