21
gdb 61855	4.28269	0.74492	0.70897	3.2963	80.14	-0.2426	-0.0198	0.2227	1636.6097	0.180742	-424.221883	-424.21206	-424.211115	-424.257645	35.447	
O	-0.4495539889	 1.3482480384	 0.0589992694	-0.426482
C	-0.01934803	-0.0086997081	-0.0078050244	 0.068574
C	 0.8158458245	-0.2580382264	-1.2800729864	-0.299306
C	 0.0494871692	 0.0446063615	-2.5505806399	 0.155276
O	 0.031473671	-0.6725705743	-3.5188407493	-0.243487
C	 0.7151972235	-0.4590005651	 1.2545993564	 0.047524
C	 1.9751728785	 0.3202477396	 1.7403291683	-0.239244
C	 1.4702574446	 0.1389205645	 3.1976645241	-0.209229
C	 0.0592605386	-0.177796601	 2.6343895343	-0.2424
H	 0.333615205	 1.904926196	 0.1350561118	 0.279838
H	-0.9536134538	-0.5810526922	-0.0789180625	 0.100765
H	 1.6963955481	 0.4028218974	-1.2514447684	 0.114379
H	 1.1796158996	-1.2886791777	-1.3298216819	 0.121593
H	-0.516355214	 1.000408248	-2.5277903518	 0.091401
H	 0.9548257858	-1.5234129425	 1.1539107896	 0.076009
H	 2.9569368023	-0.0818396071	 1.4801831887	 0.102478
H	 1.9496296197	 1.3755788739	 1.4438823567	 0.083104
H	 1.9245646974	-0.735052362	 3.6726363139	 0.105779
H	 1.5674555938	 0.9907971606	 3.8742721306	 0.100096
H	-0.5680624414	 0.7158501177	 2.5816380529	 0.116185
H	-0.5098006535	-0.9858381611	 3.0998428279	 0.097147
51.8066	77.7377	87.9884	123.0764	161.818	255.8705	285.2332	314.1677	342.4403	430.7479	536.1395	575.0787	666.8851	751.2334	787.027	813.4524	878.2201	903.2415	937.7183	952.4396	966.8657	1006.9501	1025.0737	1058.7823	1080.4919	1132.3249	1148.9346	1192.2275	1203.1823	1242.2427	1250.348	1256.5752	1269.3243	1275.6706	1300.3354	1301.9876	1354.7824	1375.8112	1417.0933	1424.5053	1453.3143	1476.9832	1485.5224	1508.9256	1829.4764	2909.7401	2998.6031	3029.4446	3033.0846	3046.8675	3059.5617	3065.1209	3095.0366	3098.1378	3108.9211	3125.0245	3796.9658
OC(CC=O)C1CCC1	O[C@@H](CC=O)C1CCC1	
InChI=1S/C7H12O2/c8-5-4-7(9)6-2-1-3-6/h5-7,9H,1-4H2	InChI=1S/C7H12O2/c8-5-4-7(9)6-2-1-3-6/h5-7,9H,1-4H2/t7-/m0/s1
