14
gdb 72788	2.54497	1.81744	1.34991	1.4131	62.71	-0.2412	-0.0597	0.1815	933.3476	0.100055	-473.78773	-473.780027	-473.779083	-473.820178	28.193	
O	-0.1399833994	 1.3872915621	 0.3028334442	-0.455113
C	-0.0516189224	-0.0080472228	 0.1207742491	 0.1895
C	-1.4526232183	-0.5534126645	-0.2680247815	-0.149805
O	-0.9720830278	-0.8206013967	-1.6524768462	-0.260176
C	 0.2995959594	-0.6105656939	-1.2014191341	 0.343811
N	 1.401422925	-1.1966038827	-1.4116155635	-0.284212
C	 2.1797804171	-0.9628284822	-0.1711324352	-0.275287
C	 1.1293592515	-0.6172247782	 0.9390909451	 0.275662
O	 1.2537691074	-0.741917986	 2.1215924964	-0.269973
H	 0.7447729515	 1.7637739866	 0.3710122514	 0.297458
H	-1.7709691766	-1.4870366512	 0.1976255902	 0.147008
H	-2.2305132186	 0.2097031931	-0.256677665	 0.151643
H	 2.7318786037	-1.8681195476	 0.096962476	 0.152755
H	 2.9155950175	-0.1531090262	-0.266060957	 0.13673
75.0904	151.6991	208.4427	251.1664	263.3959	302.2693	426.3665	540.7143	575.6149	638.5683	653.3846	692.3837	790.9274	864.3572	902.614	927.5198	992.8318	1013.8023	1063.8957	1113.3046	1138.5817	1171.5633	1201.8708	1225.9932	1271.5601	1344.7939	1366.0197	1464.7676	1482.7776	1747.9261	1873.9602	3024.2082	3087.5933	3096.1525	3169.2715	3803.7643
OC12COC1=NCC2=O	O[C@@]12CO[C]1[N]CC2=O	
InChI=1S/C5H5NO3/c7-3-1-6-4-5(3,8)2-9-4/h8H,1-2H2	InChI=1S/C5H5NO3/c7-3-1-6-4-5(3,8)2-9-4/h8H,1-2H2/t5-/m1/s1
