15
gdb 128187	4.06867	1.15098	0.90421	4.5879	78.38	-0.2192	-0.0812	0.138	1232.4255	0.111877	-450.081555	-450.073055	-450.07211	-450.115348	30.401	
C	-0.0395068326	 1.486818586	 0.080602441	-0.323531
N	 0.1386178443	 0.0469384899	-0.0345540122	-0.362358
C	 0.6653985357	-0.7428682217	 0.9427227873	 0.469375
C	 0.5986159802	-2.0964705342	 0.9933962428	-0.301884
C	 1.2546366013	-2.8009819819	 2.056087255	 0.436074
N	 1.2644089155	-4.0619580942	 2.1992495404	-0.546535
O	 1.9172881329	-1.9837376001	 2.9832533941	-0.281654
N	 1.9292669879	-0.5747099327	 2.882110134	 0.052754
N	 1.3532433176	-0.0231303629	 1.9407478658	-0.177157
H	 0.8841560812	 1.9536146028	 0.4226964385	 0.167186
H	-0.2844847239	 1.8794114779	-0.9084296162	 0.133648
H	-0.842418178	 1.7625787203	 0.7771176035	 0.132758
H	-0.4571691761	-0.4279307324	-0.6933488775	 0.256628
H	 0.069578195	-2.6859666556	 0.2554364084	 0.119272
H	 1.791853519	-4.3300854013	 3.0301048051	 0.225424
65.9866	96.6516	126.1478	162.919	220.768	368.5221	419.0935	433.6254	470.9165	534.1563	625.0024	663.2375	744.5673	753.059	782.4067	822.8305	859.9191	884.189	981.7604	1052.5188	1102.1086	1149.6849	1166.8498	1266.8265	1320.0254	1385.4048	1465.4867	1487.495	1490.5779	1523.7184	1608.8373	1696.045	1749.5022	3017.052	3106.9453	3154.5369	3214.8227	3494.6165	3639.6504
CNC1=CC(=N)ON=N1	CNC1=N[N]OC(=C1)[NH]	
InChI=1S/C4H6N4O/c1-6-4-2-3(5)9-8-7-4/h2,5-6H,1H3	InChI=1S/C4H6N4O/c1-6-4-2-3(5)9-8-7-4/h2,5-6H,1H3
