16
gdb 124144	6.55072	0.75275	0.68089	3.1471	86.6	-0.2347	-0.0223	0.2123	1644.1675	0.124536	-396.948714	-396.939567	-396.938622	-396.984602	31.294	
C	-0.0915460658	 1.4543268255	 0.0395851886	-0.512286
C	-0.0024671622	 0.0043150467	 0.0192234603	 0.255364
C	 0.0865398455	-1.1979502302	 0.0031586431	-0.072896
C	 0.1639145689	-2.6080832943	-0.0171629418	 0.184276
N	 1.2522400189	-3.3685106074	 0.0193879307	-0.348366
C	 0.7555066977	-4.6372763677	-0.024371473	 0.317256
C	 1.6218286134	-5.8512697986	-0.0056392352	-0.496689
N	-0.5703047989	-4.7088918837	-0.0855404899	-0.241572
N	-0.930862534	-3.4082746696	-0.0798466946	-0.263788
H	 0.9063301759	 1.9050879622	 0.0267251993	 0.163882
H	-0.6406094085	 1.8302322447	-0.8306898398	 0.157239
H	-0.607323551	 1.8075440286	 0.9393049009	 0.157603
H	 2.231029779	-5.8767205121	 0.9030799523	 0.140587
H	 1.0075256015	-6.7521499397	-0.0474234771	 0.13903
H	 2.3089642556	-5.8483167532	-0.8573477969	 0.140577
H	-1.9018121859	-3.1450858512	-0.1191467971	 0.279783
17.7441	86.1334	90.1465	103.9261	232.3262	283.7848	332.5436	365.7311	465.8256	472.732	548.9385	553.0241	714.503	715.708	755.9236	978.5272	1006.4711	1024.6437	1050.4553	1051.1807	1071.0039	1113.3301	1178.7594	1277.7001	1379.1053	1403.5259	1412.4671	1422.555	1472.6254	1473.5078	1478.2671	1480.6048	1529.4738	1571.8578	2366.1188	3030.0924	3048.4364	3091.0876	3098.181	3105.3839	3145.559	3665.1154
CC#CC1=NC(C)=NN1	CC#Cc1nc(C)n[nH]1	
InChI=1S/C6H7N3/c1-3-4-6-7-5(2)8-9-6/h1-2H3,(H,7,8,9)	InChI=1S/C6H7N3/c1-3-4-6-7-5(2)8-9-6/h1-2H3,(H,7,8,9)
