17
gdb 78547	2.40699	1.56037	1.25552	2.2693	68.46	-0.2025	0.0721	0.2746	1043.0248	0.133363	-458.864966	-458.856481	-458.855537	-458.897276	33.711	
O	 0.0035702904	 1.4903872379	-0.0602155663	-0.417766
C	-0.1274926486	 0.1015866848	 0.0855137153	 0.049961
C	-0.5846283588	-0.6780028514	 1.3054229278	-0.309373
C	-1.8628295075	-0.1540726104	 2.029041929	 0.393502
O	-2.2832887271	-0.753968296	 3.2035058249	-0.456062
C	-2.3838183734	 1.1707947826	 1.5454947891	-0.364344
C	-2.6277106827	-0.0999502998	 0.7390170691	-0.204466
C	-1.3937881163	-0.646042324	-0.0307165042	 0.36487
O	-1.5383210682	-1.5795424851	-1.0372628013	-0.44939
H	 0.7933692917	 1.7584420954	 0.4227826625	 0.283656
H	 0.6649209759	-0.4577072001	-0.4198217577	 0.102093
H	 0.0227070849	-1.4647388815	 1.7373939155	 0.092362
H	-1.8743354486	-0.2867012671	 3.9412179465	 0.284166
H	-3.2747540732	 1.4888393565	 2.0818874415	 0.108615
H	-1.7427845038	 1.9595780214	 1.1798244161	 0.138907
H	-3.626878041	-0.4579257388	 0.525047072	 0.095202
H	-2.1133871838	-2.2835891144	-0.7155000099	 0.288067
136.8218	217.8536	249.3316	269.1123	285.3833	313.634	345.9491	365.6626	403.0654	428.7038	516.3154	585.3654	602.7218	662.6571	766.8737	818.9784	857.3029	870.6419	905.3831	957.2958	971.491	995.3251	1020.2637	1083.4208	1087.6734	1093.3108	1155.192	1186.8446	1238.9155	1259.566	1277.8925	1299.0118	1334.2631	1377.4236	1405.9903	1486.6593	1514.928	3070.5337	3127.549	3185.5924	3195.1275	3249.897	3778.8522	3787.2239	3797.5953
OC1C2C3(O)CC3C12O	O[C@H]1[C@H]2[C@@]3(O)C[C@H]3[C@@]12O	
InChI=1S/C6H8O3/c7-4-3-5(8)1-2(5)6(3,4)9/h2-4,7-9H,1H2	InChI=1S/C6H8O3/c7-4-3-5(8)1-2(5)6(3,4)9/h2-4,7-9H,1H2/t2-,3+,4+,5-,6+/m1/s1
