17
gdb 127770	3.23684	1.60101	1.09763	5.1601	75.85	-0.2003	0.0172	0.2175	1076.9583	0.139231	-414.175443	-414.167727	-414.166782	-414.207928	28.545	
C	 0.024871991	 1.42604142	-0.0158810159	-0.347169
N	 0.0381845693	-0.0150674	 0.070523906	-0.092807
N	 0.1777700374	-0.7799516767	-1.0811709708	-0.18365
N	 0.1529127052	-2.03697274	-0.7328817596	-0.285338
C	 0.0285331845	-2.1087240262	 0.6109518561	 0.264971
C	-0.0454850029	-0.8422829824	 1.1226201969	 0.39426
N	-0.3035841948	-0.7667706429	 2.4866450006	-0.416289
C	-0.0575411426	-2.1719031829	 2.9667529677	-0.170053
C	-0.1698899933	-3.1093470721	 1.7116625226	-0.338308
H	 0.9061152035	 1.8632544739	 0.4653397406	 0.137103
H	 0.0326540323	 1.6836499662	-1.0753089483	 0.171331
H	-0.8772988524	 1.8327132965	 0.4510706171	 0.145703
H	 0.2222230548	-0.0734139663	 3.0046789075	 0.239613
H	 0.9488909721	-2.248347381	 3.3960871333	 0.113001
H	-0.7805313764	-2.4255566586	 3.7450558949	 0.120183
H	-1.157813777	-3.5828843244	 1.6635419447	 0.12425
H	 0.5734875694	-3.9103537931	 1.7502147366	 0.123199
99.3229	130.8465	147.8633	246.111	265.777	305.4144	502.6588	555.9948	636.3513	655.1576	680.1753	718.9408	805.7695	834.5767	856.4815	934.9901	957.2934	1008.1798	1072.1054	1121.1149	1152.2728	1185.9335	1203.8981	1228.3901	1287.6759	1291.0798	1301.3619	1330.5534	1413.9707	1428.9156	1447.7431	1485.8732	1495.0339	1505.5489	1515.8825	1587.5727	1634.5031	3026.4899	3031.7768	3037.6713	3082.3552	3099.2498	3102.6787	3156.7601	3547.2161
CN1N=NC2=C1NCC2	Cn1nnc2c1NCC2	
InChI=1S/C5H8N4/c1-9-5-4(7-8-9)2-3-6-5/h6H,2-3H2,1H3	InChI=1S/C5H8N4/c1-9-5-4(7-8-9)2-3-6-5/h6H,2-3H2,1H3
