19
gdb 64956	3.08374	1.18802	0.99628	3.0398	77.53	-0.2474	-0.0271	0.2203	1245.5133	0.159301	-419.174322	-419.16533	-419.164386	-419.208449	33.231	
C	 0.1428277181	 1.3622830965	-1.1136694502	-0.465808
C	-0.0016187533	 0.2622243461	-0.0851916562	 0.201003
C	 0.8103415863	-0.9889581576	-0.2457497032	-0.268488
N	 1.1178431099	-0.0502756265	 0.8311494717	-0.337647
C	-1.3732334538	 0.1367483529	 0.5228610043	 0.363448
O	-2.3378924446	 0.6485209921	-0.0161691755	-0.354499
C	-1.5311414242	-0.6388247032	 1.7918341633	-0.110753
C	-2.3888644759	 0.0040558586	 2.8405959338	-0.218893
N	-2.8826943307	-1.1429912623	 2.0930126339	-0.310683
H	 1.1346743453	 1.3320085737	-1.5752439536	 0.10766
H	-0.6129922975	 1.2569654125	-1.8950030553	 0.149764
H	 0.0027825479	 2.346066453	-0.6543879912	 0.132534
H	 0.4156481532	-1.9489450323	 0.0751969925	 0.133113
H	 1.4583639858	-1.0330296082	-1.1173030619	 0.12455
H	 1.9207793856	 0.5238582862	 0.5860639419	 0.238523
H	-0.7060012874	-1.2618756396	 2.1112269346	 0.11565
H	-2.152855645	-0.1794771509	 3.8846800519	 0.125822
H	-2.7911941891	 0.9864177581	 2.6100019412	 0.129394
H	-3.4915569407	-0.7955476489	 1.3502721881	 0.24531
63.2876	76.1929	174.6618	191.2532	241.8895	289.9605	325.8961	332.4765	375.0142	460.0209	528.9622	743.3319	755.2112	823.0179	835.5897	855.373	891.2053	938.4233	962.5993	986.7529	1000.5424	1012.6284	1049.1827	1087.2205	1120.492	1125.5782	1129.5162	1146.4765	1190.2544	1259.5572	1288.0566	1319.333	1342.1289	1359.7373	1413.0137	1419.0311	1478.2119	1496.4025	1499.078	1511.41	1761.7014	3040.9634	3106.5988	3109.2182	3113.585	3130.6567	3195.1817	3199.5184	3210.0432	3456.3503	3502.4225
CC1(CN1)C(=O)C1CN1	C[C@]1(CN1)C(=O)[C@H]1CN1	
InChI=1S/C6H10N2O/c1-6(3-8-6)5(9)4-2-7-4/h4,7-8H,2-3H2,1H3	InChI=1S/C6H10N2O/c1-6(3-8-6)5(9)4-2-7-4/h4,7-8H,2-3H2,1H3/t4-,6+/m1/s1
