19
gdb 31116	2.14315	1.58942	0.96428	3.2115	80.52	-0.1711	0.0459	0.217	1226.3211	0.160109	-419.239978	-419.23038	-419.229436	-419.274141	35.835	
C	-0.1459549591	 1.5551155637	 0.1923544434	-0.505262
C	-0.0593783481	 0.0754232491	 0.0019806009	 0.212144
C	 0.015298918	-0.6954039191	-1.1465763623	 0.125232
C	 0.0638981242	-0.2505818911	-2.5696518009	-0.200008
O	 1.202453763	-0.7830958553	-3.2703582956	-0.417946
C	 0.0482637301	-2.071696961	-0.7415904426	 0.180115
N	 0.0709466355	-3.1435554813	-1.6495112119	-0.613952
C	-0.0124093343	-2.0983050134	 0.6312154283	-0.181265
N	-0.0831068287	-0.7830477107	 1.0655348826	-0.305726
H	 0.1277262865	 2.0787687109	-0.7266336649	 0.135904
H	-1.1575112157	 1.8835287066	 0.4641878625	 0.131618
H	 0.5321055404	 1.9011452714	 0.9819442552	 0.121267
H	-0.7974201954	-0.6253365552	-3.1349547952	 0.118275
H	 0.0451597459	 0.8468397197	-2.6408726543	 0.088442
H	 1.9721277256	-0.5911135139	-2.7232227196	 0.27658
H	 0.613347013	-2.9033030605	-2.4719048921	 0.249069
H	 0.4179767351	-4.0024021397	-1.2433358177	 0.231415
H	-0.0056083848	-2.9190446788	 1.3295765904	 0.101896
H	-0.1391939113	-0.5001131415	 2.0274961638	 0.252203
79.9957	112.7279	141.0976	197.5091	236.4058	275.7128	293.5946	336.094	381.7894	407.9976	443.5198	495.1937	580.2537	619.6143	643.7214	692.4019	740.1606	767.1305	812.6781	939.7164	975.9631	1004.5519	1055.1955	1084.5354	1103.8576	1135.6814	1214.1597	1238.4864	1290.4623	1339.1755	1350.3544	1415.7499	1421.5796	1459.1892	1481.0162	1481.9461	1502.0694	1514.4955	1573.2654	1646.9947	1663.4933	2995.3779	3015.4532	3053.024	3060.8578	3118.563	3262.8717	3518.6649	3617.7644	3686.95	3800.4723
CC1=C(CO)C(N)=CN1	Cc1c(CO)c(N)c[nH]1	
InChI=1S/C6H10N2O/c1-4-5(3-9)6(7)2-8-4/h2,8-9H,3,7H2,1H3	InChI=1S/C6H10N2O/c1-4-5(3-9)6(7)2-8-4/h2,8-9H,3,7H2,1H3
