19
gdb 72850	3.03705	1.30853	1.09413	1.7774	81.7	-0.2503	0.026	0.2763	1168.8679	0.157527	-385.829397	-385.820705	-385.819761	-385.862756	33.443	
C	-0.4789132513	 1.5687332982	 0.076480891	-0.473211
C	-0.0903391466	 0.1147021692	 0.0759254873	 0.458276
C	-1.1767170365	-0.9919696978	 0.1027585083	-0.270045
C	-0.3487973728	-1.7660584512	 1.1769424776	-0.242659
C	 0.7200744576	-0.6423364658	 1.1744727991	-0.133522
C	 1.7970171726	-0.8046236857	 0.0755455673	-0.082648
O	 0.9337767873	-0.1832030931	-0.9146106237	-0.329004
C	 3.0367913803	-0.0702504381	 0.2814652222	 0.326683
C	 4.0580664369	 0.535095307	 0.4715713143	-0.433134
H	 0.4007470486	 2.2047389968	 0.2101662818	 0.131021
H	-0.9485182565	 1.8324832629	-0.8781855832	 0.129072
H	-1.1944109612	 1.7814464348	 0.8774210773	 0.114732
H	-2.1483934374	-0.6473414147	 0.467270372	 0.100271
H	-1.3141955614	-1.4897130908	-0.8592858153	 0.110603
H	-0.8642350161	-1.8657220957	 2.1343899068	 0.105292
H	 0.0165062729	-2.7539300832	 0.8832154722	 0.103447
H	 1.0368455465	-0.211210808	 2.1223823834	 0.086196
H	 2.0228956227	-1.8449288432	-0.1950885742	 0.099961
H	 4.9635697044	 1.0671182183	 0.6296868458	 0.198669
56.5367	144.4875	169.0212	213.3784	261.5227	328.3508	357.6395	388.9245	455.2568	529.3023	621.6598	634.7119	665.6983	719.0951	742.5938	846.0314	868.9684	905.4819	919.1193	945.9887	952.4951	985.7398	996.6363	1047.371	1111.7428	1140.3934	1165.7866	1195.3787	1222.3592	1234.9216	1246.1622	1274.1505	1292.457	1326.457	1370.1273	1408.2559	1466.0436	1479.6453	1488.7493	1489.8874	2232.3244	3011.1168	3031.3471	3058.3863	3063.9161	3099.1763	3106.1186	3115.6559	3125.4141	3131.7042	3502.4739
CC12CCC1C(O2)C#C	C[C@]12CC[C@H]1[C@@H](O2)C#C	
InChI=1S/C8H10O/c1-3-7-6-4-5-8(6,2)9-7/h1,6-7H,4-5H2,2H3	InChI=1S/C8H10O/c1-3-7-6-4-5-8(6,2)9-7/h1,6-7H,4-5H2,2H3/t6-,7-,8-/m0/s1
