22
gdb 121021	3.07824	0.97346	0.8009	1.7742	82.67	-0.2437	0.0255	0.2692	1509.3242	0.194347	-404.377605	-404.3679	-404.366956	-404.413385	35.28	
C	-0.0153249212	 1.5825885396	 0.2732855028	-0.384058
C	-0.1416532439	 0.0803781501	 0.0085333368	-0.171418
C	 0.8213471031	-0.4153714578	-1.0775247818	-0.185397
C	 0.7041109923	-1.9095982268	-1.3448175258	 0.085371
O	-0.6451303983	-2.2080959618	-1.8189262041	-0.234547
C	-0.4828210763	-3.0134644869	-2.8918426747	 0.114445
N	 0.6779187333	-3.2943050876	-3.3116664065	-0.272102
C	 1.6188167347	-2.5497063058	-2.444510726	 0.001373
C	 2.4574869929	-1.5925195668	-3.294332683	-0.386909
H	 0.9969812245	 1.8461120575	 0.6002305518	 0.112434
H	-0.2313816496	 2.1637471927	-0.6300873038	 0.115773
H	-0.7115740633	 1.9086344195	 1.0520146903	 0.114092
H	 0.0462999369	-0.474742384	 0.9373261672	 0.093761
H	-1.1673314841	-0.1614199552	-0.2903482752	 0.117139
H	 0.6441328786	 0.1358097937	-2.0085541802	 0.104656
H	 1.8551212517	-0.2000640186	-0.777134553	 0.10026
H	 0.8184968715	-2.455473647	-0.4000385582	 0.087254
H	-1.4109108911	-3.3664170701	-3.3293415948	 0.136351
H	 2.2967244034	-3.271889293	-1.9763849471	 0.087911
H	 1.8298404488	-0.8632807942	-3.8145334916	 0.121515
H	 3.1893338113	-1.0518578618	-2.6865271548	 0.112057
H	 2.9968683848	-2.1667739557	-4.0517837185	 0.13004
28.4096	95.6001	97.9985	128.8436	243.7327	250.4409	279.6593	314.2142	328.1356	416.9215	513.0168	573.7284	722.9985	747.2218	806.801	841.037	856.018	904.6985	917.2929	950.5065	966.5251	1040.0595	1056.6014	1075.6966	1086.9672	1114.0315	1137.2232	1157.5306	1179.1937	1261.4394	1287.1689	1298.7446	1323.1407	1328.4602	1351.0537	1375.0503	1382.9143	1405.9051	1409.6781	1416.6223	1470.5118	1490.3385	1493.7612	1498.9331	1500.5497	1509.9929	1708.6778	3016.5104	3019.1931	3024.4896	3029.8471	3042.6769	3044.0328	3061.183	3076.7672	3098.6598	3103.5648	3115.994	3123.8699	3207.8507
CCCC1OC=NC1C	CCC[C@H]1OC=N[C@H]1C	
InChI=1S/C7H13NO/c1-3-4-7-6(2)8-5-9-7/h5-7H,3-4H2,1-2H3	InChI=1S/C7H13NO/c1-3-4-7-6(2)8-5-9-7/h5-7H,3-4H2,1-2H3/t6-,7+/m0/s1
