19
gdb 110336	2.95775	1.13293	0.99313	2.7971	76.34	-0.2402	-0.0171	0.2231	1272.4518	0.157866	-423.01181	-423.002664	-423.001719	-423.046278	33.702	
C	 0.2283068876	 1.4017067463	-0.1667598389	-0.377062
C	-0.2087461374	-0.0380130937	 0.124751029	-0.213974
C	 0.6065788902	-0.6654833766	 1.244113159	-0.00883
C	 0.7611075867	-2.1152669565	 1.5262432379	-0.105441
C	 2.0028398094	-1.2547275791	 1.0703508069	-0.199994
C	 2.088574616	-2.1481245707	-0.114008457	 0.367582
O	 2.9817264319	-2.4564542993	-0.8594069752	-0.339636
C	 0.7901056103	-2.9387087253	 0.2319440819	 0.029639
O	 1.1015498169	-4.2961354753	 0.4451163687	-0.44699
H	 1.2761531744	 1.438046684	-0.4816623757	 0.127764
H	-0.3785494853	 1.8432902252	-0.9624778296	 0.118136
H	 0.1253212314	 2.0345355976	 0.7216616584	 0.115911
H	-1.2673506111	-0.052095608	 0.4142073611	 0.105978
H	-0.1335386724	-0.632262534	-0.7909242086	 0.111519
H	 0.5732292714	-0.0730757767	 2.1584371776	 0.101995
H	 0.6258826844	-2.5597288589	 2.5033471722	 0.11811
H	 2.8508110093	-0.8874162243	 1.6358850464	 0.112413
H	-0.0836361812	-2.8308635023	-0.4224931458	 0.085142
H	 1.7710967074	-4.5333833024	-0.2091354483	 0.297738
50.0099	81.8495	151.6174	192.4396	238.4476	255.9527	295.3158	346.9828	408.3761	487.3224	572.1471	636.0455	685.4465	759.9034	796.2555	855.1375	873.9781	896.005	940.6539	946.9574	1014.7763	1030.7312	1060.566	1075.598	1112.2223	1137.1895	1145.8417	1179.7995	1210.0709	1285.6542	1295.7687	1315.8882	1346.1499	1358.8645	1387.6269	1410.9951	1446.8116	1484.8432	1498.4392	1506.8583	1853.5891	3020.2689	3029.5494	3034.6054	3073.4715	3103.1319	3111.938	3116.1526	3190.3938	3212.524	3773.9229
CCC1C2C1C(=O)C2O	CC[C@H]1[C@@H]2[C@H]1C(=O)[C@H]2O	
InChI=1S/C7H10O2/c1-2-3-4-5(3)7(9)6(4)8/h3-6,8H,2H2,1H3	InChI=1S/C7H10O2/c1-2-3-4-5(3)7(9)6(4)8/h3-6,8H,2H2,1H3/t3-,4+,5-,6-/m0/s1
