17
gdb 74924	2.87999	1.54447	1.35092	0.7907	73.48	-0.2248	0.0048	0.2296	1013.4234	0.135412	-421.779519	-421.771942	-421.770998	-421.811146	30.368	
C	 0.068236292	 1.4688590585	 0.061896105	-0.500839
C	-0.0744872965	-0.0165703773	-0.028643922	 0.35528
C	-0.1073727002	-0.7797345025	-1.138226657	-0.199138
C	-0.0196747539	-2.2144328833	-0.7288746061	-0.041489
O	 1.3616356256	-2.4063200407	-0.1760719354	-0.289198
C	 0.869937942	-2.1822765572	 1.1152382988	 0.000439
C	-0.1064457417	-0.9057281248	 1.1601457118	-0.238731
C	-0.567362954	-2.2694892838	 0.752666188	 0.304528
O	-1.682680488	-2.8867079889	 1.2604990746	-0.451365
H	 1.0153164254	 1.7443776605	 0.5423526141	 0.133876
H	 0.0440208466	 1.9328926535	-0.9275032536	 0.126317
H	-0.7319993794	 1.9106071188	 0.6682702237	 0.127383
H	-0.0226087325	-0.4300780431	-2.1590738228	 0.095502
H	-0.2517449658	-3.0010881118	-1.4455421376	 0.080067
H	 1.4845107103	-2.4558539695	 1.9640366647	 0.116615
H	-0.3335355684	-0.5503873253	 2.1589469003	 0.089445
H	-1.5409964413	-3.840368123	 1.2394766636	 0.291307
150.3492	165.4584	256.898	272.9132	358.2852	363.5803	449.4454	471.1776	560.9958	617.1734	636.8421	699.8888	745.6552	777.6297	823.0594	871.6971	910.0216	946.9599	950.4747	973.9308	1023.9627	1049.4751	1068.5567	1083.62	1131.5135	1169.6398	1197.1638	1211.1526	1269.0185	1303.3768	1320.3832	1363.2929	1412.9601	1478.722	1480.8533	1489.5803	1662.4162	3021.3422	3069.2678	3114.4478	3129.8788	3186.6059	3198.7004	3213.6211	3786.8938
CC1=CC2OC3C1C23O	CC1=C[C@H]2O[C@H]3[C@@H]1[C@@]23O	
InChI=1S/C7H8O2/c1-3-2-4-7(8)5(3)6(7)9-4/h2,4-6,8H,1H3	InChI=1S/C7H8O2/c1-3-2-4-7(8)5(3)6(7)9-4/h2,4-6,8H,1H3/t4-,5-,6+,7+/m1/s1
