15
gdb 44997	3.73599	1.26132	1.0742	3.6972	72.4	-0.2413	0.0256	0.2669	1094.3366	0.113007	-416.80213	-416.794355	-416.793411	-416.834182	30.412	
O	-0.0285516799	-0.0316644389	 0.1695541445	-0.393805
C	-0.0429721843	 1.1629901814	-0.0102654162	 0.418154
N	-1.1679292418	 1.9844441019	-0.0901512582	-0.342068
C	-0.8174481713	 3.3677016281	 0.0055013728	-0.046305
C	-0.0030214379	 3.8404304133	 1.1877304169	-0.336199
C	 0.704864928	 3.3862501368	-0.0920782058	 0.147961
N	 1.0564283949	 1.9958057534	-0.1862364107	-0.400276
C	 1.4413629046	 4.3190222709	-0.8918515055	 0.246483
C	 2.0830570061	 5.1051973905	-1.5362718775	-0.399987
H	-2.0272378748	 1.6231290622	 0.2918727552	 0.259442
H	-1.4165543541	 4.0712061527	-0.5598483414	 0.127028
H	 0.0018382215	 4.906719079	 1.3813710591	 0.133275
H	 0.0774530433	 3.1974557554	 2.0574885588	 0.127138
H	 1.9664268731	 1.6534345536	 0.0751023222	 0.26107
H	 2.6433666528	 5.7939944698	-2.1188843046	 0.198092
112.6029	144.844	188.7379	333.1361	392.0864	448.7304	458.4087	465.7892	496.4823	545.6373	589.8691	604.7542	677.2505	702.3084	768.0427	782.967	844.5354	907.2241	942.062	987.9425	1030.7115	1042.65	1077.9953	1147.1885	1234.1236	1262.9765	1314.6562	1379.336	1380.3536	1413.6673	1463.5577	1856.7151	2242.8279	3136.1781	3184.6913	3237.5919	3501.812	3646.2637	3657.8021
O=C1NC2CC2(N1)C#C	O=C1N[C@H]2C[C@]2(N1)C#C	
InChI=1S/C6H6N2O/c1-2-6-3-4(6)7-5(9)8-6/h1,4H,3H2,(H2,7,8,9)	InChI=1S/C6H6N2O/c1-2-6-3-4(6)7-5(9)8-6/h1,4H,3H2,(H2,7,8,9)/t4-,6+/m0/s1
