19
gdb 90982	2.69542	1.83071	1.32983	3.1436	73.88	-0.2233	0.0674	0.2908	995.9547	0.159147	-422.967567	-422.959758	-422.958813	-422.999432	31.365	
C	-0.1379982949	 1.5492163379	-0.0024661049	-0.397094
C	 0.0070473922	 0.0271100951	-0.0071920016	-0.068182
C	 0.9249781651	-0.5416583732	-1.1323280073	-0.272326
C	 1.9697933851	-1.2768100781	-0.2986342508	-0.036444
C	 1.293436604	-1.9611741343	 0.919418711	-0.029067
O	 2.4733890621	-1.7158422676	 1.7568046854	-0.319803
C	 2.2835144303	-0.473445451	 0.9971966055	 0.010771
C	 0.743753656	-0.517272192	 1.2229056549	 0.433496
O	 0.2850313611	-0.1663568297	 2.4827734737	-0.483648
H	 0.8431593895	 2.0373195114	 0.0107508318	 0.117562
H	-0.6727584682	 1.8975203459	-0.8917256797	 0.11336
H	-0.6852987579	 1.8881290222	 0.8823317102	 0.118717
H	-0.9934103149	-0.4240601276	-0.0613856481	 0.06339
H	 0.3937701062	-1.2124105676	-1.8144272324	 0.103368
H	 1.3677104575	 0.2565210374	-1.7373392744	 0.104439
H	 2.7964869559	-1.8000659304	-0.7750809415	 0.082667
H	 0.8024783831	-2.9329223281	 0.9933343798	 0.084638
H	 2.9876027422	 0.3417357668	 1.1659452207	 0.091032
H	-0.6457709745	-0.4062187871	 2.5477717276	 0.283124
113.3948	220.7166	230.7425	240.4501	333.4975	335.9168	370.4843	476.5065	509.3158	654.07	684.3702	695.9032	759.0963	818.3794	849.5248	895.7464	902.2051	927.9876	940.3003	981.9506	1005.5804	1036.6327	1072.6713	1102.154	1114.2619	1144.9936	1161.1535	1175.1872	1201.3225	1235.7428	1243.1904	1278.0768	1286.1153	1310.4766	1328.7547	1368.8754	1406.6219	1410.9853	1494.0316	1495.4007	1499.4614	3003.0211	3031.2467	3046.2686	3086.492	3098.2404	3103.8828	3108.924	3116.329	3147.1371	3803.4539
CC1CC2C3OC2C13O	C[C@H]1C[C@@H]2[C@H]3O[C@@H]2[C@@]13O	
InChI=1S/C7H10O2/c1-3-2-4-5-7(3,8)6(4)9-5/h3-6,8H,2H2,1H3	InChI=1S/C7H10O2/c1-3-2-4-5-7(3,8)6(4)9-5/h3-6,8H,2H2,1H3/t3-,4-,5-,6+,7-/m0/s1
