18
gdb 105820	2.56967	1.52754	1.27255	2.9732	71.52	-0.2162	0.0643	0.2805	1060.816	0.14667	-438.972501	-438.96433	-438.963386	-439.005186	31.721	
C	 0.0221313654	 1.3345894991	 0.267045528	-0.257721
O	-0.0334207055	-0.0099714642	-0.1927707471	-0.272059
C	-1.2866260739	-0.5677385702	-0.0745200501	 0.346711
C	-1.8574324314	-1.1046146469	 1.2111876869	 0.057807
O	-3.0442332693	-0.7925984348	 1.850167703	-0.425379
C	-1.6330907257	-2.0645111524	 0.0476196694	-0.229721
C	-2.63731269	-1.8875737606	-1.1182018499	-0.03906
N	-3.6631687166	-0.8617204787	-0.7498358963	-0.369695
C	-2.3176316936	-0.4557325952	-1.2439609673	-0.129521
H	 1.0516457754	 1.6734328178	 0.1329202698	 0.127389
H	-0.6472728891	 1.9881449283	-0.309778978	 0.110447
H	-0.2515157932	 1.404358648	 1.327754956	 0.124996
H	-1.0578036582	-1.2243979417	 1.9415749571	 0.110717
H	-3.6936070268	-0.7044684496	 1.1307505949	 0.298765
H	-0.9671496651	-2.9155064085	 0.1163505862	 0.10025
H	-2.8534834826	-2.6247057887	-1.8798872468	 0.104627
H	-4.3179542787	-0.7830208399	-1.5271787336	 0.236609
H	-2.1963822111	 0.1648788881	-2.1221812923	 0.104836
84.0891	155.7246	166.3999	246.07	282.6588	353.8194	375.5439	451.6783	511.1733	606.3511	666.1914	706.8959	725.7412	789.1547	817.1411	829.6959	875.4003	908.3275	947.4482	975.3341	1014.7318	1049.0147	1056.3718	1098.7536	1120.5502	1128.5551	1179.7432	1195.9965	1212.063	1229.5925	1270.3087	1306.2525	1323.5945	1330.7384	1426.4664	1478.9956	1486.8559	1502.7105	1505.6429	2997.6968	3056.4615	3124.695	3125.6028	3190.6897	3198.0837	3209.8597	3473.1873	3612.5696
COC12C(O)C1C1NC21	CO[C@]12[C@@H](O)[C@H]1[C@H]1N[C@@H]21	
InChI=1S/C6H9NO2/c1-9-6-2(5(6)8)3-4(6)7-3/h2-5,7-8H,1H3	InChI=1S/C6H9NO2/c1-9-6-2(5(6)8)3-4(6)7-3/h2-5,7-8H,1H3/t2-,3-,4-,5+,6-/m1/s1
