20
gdb 26359	2.47416	1.45462	0.98909	1.2897	82.38	-0.1918	0.0313	0.2231	1237.6061	0.170605	-403.16378	-403.154488	-403.153544	-403.197687	34.629	
C	 0.4252567959	 0.938754716	-0.5200748845	-0.33695
N	 0.0334983167	-0.2358621186	 0.2522517924	-0.152167
C	 0.4546368757	-0.1448732003	 1.6398462473	-0.328354
C	-1.2928570778	-0.6646156114	 0.0735432018	 0.171171
C	-2.2588400687	-0.8196221416	 1.0276442834	-0.10304
O	-3.3909823093	-1.3497534135	 0.4805613518	-0.155364
C	-3.1404871632	-1.5186587689	-0.8408080852	-0.085972
C	-1.880505476	-1.1289722317	-1.1679340437	 0.165487
C	-1.2314517708	-1.2318454925	-2.5132738366	-0.512121
H	 1.5110031782	 1.0647568545	-0.4592920056	 0.117874
H	 0.1580251324	 0.8126393983	-1.5697209898	 0.128912
H	-0.0505055325	 1.8655052922	-0.1539696258	 0.102768
H	-0.0537265819	 0.664255711	 2.1957817128	 0.099621
H	 0.2515488856	-1.0912327963	 2.1483801411	 0.128787
H	 1.5309436563	 0.0481055125	 1.6789550674	 0.11824
H	-2.2903147947	-0.6397819519	 2.0878699199	 0.127144
H	-3.9442092119	-1.9408252985	-1.4228476431	 0.128743
H	-1.8019231106	-1.8953227465	-3.1694877632	 0.121985
H	-1.1546201798	-0.2622546164	-3.0204349474	 0.128052
H	-0.2158313036	-1.6327027361	-2.4266654829	 0.135186
64.0755	155.5705	173.8482	206.9826	221.9877	257.9608	279.2964	299.9378	376.8828	421.1629	501.7317	594.7449	612.7535	667.1115	694.0269	738.8176	763.7384	885.096	958.1379	1013.8604	1064.9598	1071.728	1087.5925	1121.1468	1157.875	1179.1466	1185.3936	1235.6374	1268.184	1278.9741	1356.9282	1395.8923	1417.3106	1441.9856	1469.9262	1477.5165	1486.6751	1493.192	1497.3809	1505.5182	1516.115	1588.5588	1654.7585	2937.6641	2953.9569	3023.0699	3065.6469	3071.7034	3076.0866	3108.096	3114.6476	3141.9955	3265.0816	3289.036
CN(C)C1=COC=C1C	CN(C)c1cocc1C	
InChI=1S/C7H11NO/c1-6-4-9-5-7(6)8(2)3/h4-5H,1-3H3	InChI=1S/C7H11NO/c1-6-4-9-5-7(6)8(2)3/h4-5H,1-3H3
