17
gdb 108961	3.35264	1.214	1.16243	2.7041	68.39	-0.2232	0.0135	0.2367	1111.7847	0.136334	-455.126405	-455.117879	-455.116935	-455.159796	31.614	
O	 0.0159339994	 1.40057504	-0.048490827	-0.420497
C	-0.0147408679	 0.0010026154	 0.0246624686	-0.133436
C	-1.4282637871	-0.5097526894	 0.0697948521	 0.352921
N	-2.4328031454	 0.2978751868	 0.050279447	-0.342168
C	-3.6201585956	-0.5220688299	 0.0052740535	-0.085282
C	-3.7620454247	-1.4142791143	-1.2109876104	 0.089312
O	-2.951803134	-1.2381067536	-2.3268330882	-0.429331
C	-3.1563688194	-1.9890047443	 0.0532364399	-0.087152
N	-1.731683269	-1.844682319	 0.2005753076	-0.326867
H	-0.9106123126	 1.6829233503	 0.0065664747	 0.295655
H	 0.4996907621	-0.4394726256	-0.8449001463	 0.111125
H	 0.5176182724	-0.3603115263	 0.9196261924	 0.114566
H	-4.5030270878	-0.1408506574	 0.5043668653	 0.101448
H	-4.7767128128	-1.7416373923	-1.4294662489	 0.100404
H	-2.8060426365	-0.2912163587	-2.4401589421	 0.297175
H	-3.6325900162	-2.7892028464	 0.6073854821	 0.106293
H	-1.107218415	-2.5516581254	-0.1566352002	 0.255832
65.3578	126.2983	153.4184	221.926	246.5667	296.5456	356.7753	400.8096	450.0768	565.6691	593.9162	691.3207	699.5463	771.4081	773.9452	830.9034	949.252	978.5313	1030.3635	1037.6009	1046.0266	1084.1042	1109.8681	1126.3944	1135.6052	1214.2527	1236.9164	1252.9887	1307.1182	1332.0177	1346.1067	1354.4053	1404.9022	1444.2312	1500.2952	1511.898	1660.3557	2973.1097	2987.4825	3123.5671	3174.2583	3183.1964	3625.2726	3687.2927	3781.9701
OCC1=NC2C(O)C2N1	OCC1=N[C@H]2[C@@H](O)[C@H]2N1	
InChI=1S/C5H8N2O2/c8-1-2-6-3-4(7-2)5(3)9/h3-5,8-9H,1H2,(H,6,7)	InChI=1S/C5H8N2O2/c8-1-2-6-3-4(7-2)5(3)9/h3-5,8-9H,1H2,(H,6,7)/t3-,4+,5-
