14
gdb 10899	3.12665	1.97691	1.5414	2.4929	58.33	-0.235	-0.0201	0.2148	828.7955	0.10526	-419.650838	-419.643173	-419.642228	-419.682656	28.209	
O	-0.0411327798	 1.4773913453	-0.1224075777	-0.43832
C	-0.0151220502	 0.0755278149	-0.007368879	-0.081706
C	 0.2161814547	-0.5785741047	 1.3876896579	 0.406546
O	 1.1438486843	-0.5453130071	 2.1481060884	-0.326278
C	-1.0877548393	-1.3043315383	 1.3258681873	-0.253845
C	-2.1941571107	-0.2519938471	 1.1300547569	-0.337703
C	-1.3723834131	-0.633758636	-0.0451723981	 0.401781
O	-1.8735153932	-1.2735191128	-1.1562213563	-0.459748
H	 0.7939910739	 1.8128509978	 0.2228453104	 0.298107
H	 0.6663974591	-0.3946812065	-0.7345048776	 0.101699
H	-1.3260639014	-2.2976422112	 1.6840339951	 0.122303
H	-3.1880553	-0.6877395366	 1.1527255274	 0.12984
H	-2.1096606569	 0.7313968891	 1.5797567862	 0.139686
H	-2.4780786971	-0.6743026869	-1.607772341	 0.297636
103.6718	164.4483	220.2216	232.6693	281.0561	304.7671	403.1069	504.413	539.4718	584.8294	676.4116	740.2151	796.8449	830.8746	935.3007	961.5419	986.5925	1043.3179	1081.5923	1108.01	1136.2174	1139.561	1215.5206	1259.8712	1299.6437	1321.0913	1369.8569	1431.7556	1498.0396	1883.0844	2986.781	3130.6113	3204.7495	3221.4033	3801.7605	3804.3909
OC1C(=O)C2CC12O	O[C@H]1C(=O)[C@H]2C[C@@]12O	
InChI=1S/C5H6O3/c6-3-2-1-5(2,8)4(3)7/h2,4,7-8H,1H2	InChI=1S/C5H6O3/c6-3-2-1-5(2,8)4(3)7/h2,4,7-8H,1H2/t2-,4+,5+/m1/s1
