18
gdb 12674	2.64559	2.22107	1.4583	4.2563	66.83	-0.2612	0.0159	0.2771	909.9022	0.154329	-384.998365	-384.990439	-384.989495	-385.030485	29.581	
C	 0.1318673973	 1.633871143	-0.149228535	-0.400641
C	 0.0160631205	 0.1125851493	-0.0008373823	-0.026765
C	 0.7513643856	-0.6281516509	-1.1341022977	-0.090974
O	 2.1072103498	-0.794822648	-0.6814559944	-0.224659
C	 2.1648863201	-0.7108168694	 0.6759046809	 0.444784
O	 3.189243239	-0.8284241217	 1.2842215096	-0.345076
C	 0.7592569314	-0.4624805185	 1.225629596	-0.136035
C	 0.7669781136	 0.3274691015	 2.5308504233	-0.411124
H	 1.1786768893	 1.9545967217	-0.1908363849	 0.134477
H	-0.3539853702	 1.964063028	-1.0728370836	 0.118724
H	-0.3464942787	 2.1561133701	 0.68355307	 0.12543
H	-1.0410271861	-0.168968551	 0.0098482393	 0.082794
H	 0.3210711448	-1.6186367827	-1.3260565582	 0.111796
H	 0.7836563627	-0.0704153296	-2.0730178268	 0.12119
H	 0.3503201114	-1.4644997073	 1.424628976	 0.109498
H	 1.1664084469	 1.3350059112	 2.3897155061	 0.129126
H	-0.240980274	 0.4118889411	 2.9476631009	 0.114088
H	 1.4049047867	-0.1790005068	 3.2592519207	 0.143366
88.9275	180.5102	204.1997	237.5487	254.5534	277.6497	361.4143	461.8225	513.787	596.67	709.5857	722.0338	778.0488	828.7315	894.3962	960.0112	999.2284	1021.0844	1053.6462	1063.7643	1114.9031	1137.7799	1172.2422	1193.893	1244.8791	1264.9046	1311.3923	1351.3546	1374.7754	1394.9537	1410.0098	1421.4344	1491.2183	1493.3877	1500.0901	1509.0083	1519.6641	1878.2095	3000.7135	3029.9875	3036.1719	3048.8748	3063.1582	3102.6379	3104.2547	3115.3684	3120.1853	3129.6894
CC1COC(=O)C1C	C[C@H]1COC(=O)[C@H]1C	
InChI=1S/C6H10O2/c1-4-3-8-6(7)5(4)2/h4-5H,3H2,1-2H3	InChI=1S/C6H10O2/c1-4-3-8-6(7)5(4)2/h4-5H,3H2,1-2H3/t4-,5-/m0/s1
