15
gdb 16099	4.39985	1.72098	1.48564	4.5041	70.98	-0.2518	-0.0049	0.2469	857.5247	0.120772	-325.542105	-325.535581	-325.534637	-325.572614	25.5	
N	 0.0625625683	-1.1673452576	-0.0591605716	-0.348137
C	 0.0418299844	-0.0112187555	-0.0106840251	 0.1957
C	 0.0046224775	 1.4209723178	 0.0472964237	 0.187978
C	 0.3876336012	 2.2340032641	-1.1901435986	-0.306307
C	 1.2735072514	 2.2913091558	 0.0156925218	-0.081441
C	 1.0667291734	 3.4161957379	 1.0284655142	-0.279824
C	-0.3579293178	 3.2203931292	 1.5022942904	-0.077433
C	-0.9183205952	 2.1204874977	 0.9985646518	-0.144096
H	 0.7559049848	 1.6789203168	-2.0456386925	 0.137888
H	-0.2539851638	 3.0767370025	-1.4245524808	 0.128667
H	 2.2417054612	 1.8113178598	-0.050904715	 0.11608
H	 1.7770330335	 3.3405627734	 1.8616133097	 0.122978
H	 1.2211900007	 4.4047380311	 0.5780535011	 0.121601
H	-0.8520623416	 3.9220700447	 2.1638932851	 0.108689
H	-1.918692498	 1.7574360823	 1.1972563559	 0.117657
148.9705	164.3	282.4969	368.2531	460.0172	507.8338	556.8829	590.3992	716.4319	747.4349	761.1813	822.0197	894.3155	923.4546	945.5242	960.0575	972.555	1031.3252	1052.5572	1080.9116	1093.0282	1139.749	1193.2037	1241.3203	1260.5898	1318.4781	1341.8146	1398.1432	1471.2437	1483.1554	1671.8806	2349.3845	3025.1028	3053.8535	3133.6159	3195.87	3200.2643	3226.4502	3228.6958
N#CC12CC1CC=C2	N#C[C@]12C[C@H]1CC=C2	
InChI=1S/C7H7N/c8-5-7-3-1-2-6(7)4-7/h1,3,6H,2,4H2	InChI=1S/C7H7N/c8-5-7-3-1-2-6(7)4-7/h1,3,6H,2,4H2/t6-,7+/m1/s1
