17
gdb 98867	3.5608	1.11496	0.92644	2.0871	70.36	-0.2406	0.0086	0.2492	1258.5727	0.137369	-455.191502	-455.182786	-455.181842	-455.226163	30.336	
C	-0.2738343504	 1.3620740775	 0.8309271052	-0.333286
N	-0.0935337833	-0.0747679883	 0.8523791942	-0.305558
C	 0.9585429406	-0.6918118186	 0.2673555671	 0.393303
O	 1.8523083408	-0.1301336992	-0.344920783	-0.387361
C	 0.9369961639	-2.2252043659	 0.3900559264	-0.101049
C	 2.3512539463	-2.8196970761	 0.5956631466	-0.114985
O	 2.2513517376	-3.5011426783	 1.8763492749	-0.215441
C	 0.9754809805	-3.345013512	 2.2732158175	 0.127835
N	 0.1567022711	-2.695634905	 1.5512544469	-0.29378
H	 0.529186297	 1.7863016969	 0.2268126258	 0.167992
H	-1.2383610761	 1.6329646296	 0.3879320555	 0.127341
H	-0.2224905201	 1.7866599082	 1.8399990054	 0.127138
H	-0.7140806989	-0.6627905556	 1.3895829629	 0.263982
H	 0.4750280396	-2.5966473212	-0.5318786726	 0.121551
H	 2.6296954287	-3.560828977	-0.1559646024	 0.124953
H	 3.1218779816	-2.0498573213	 0.6548100295	 0.149509
H	 0.7390959111	-3.8077732537	 3.2252073605	 0.147856
57.6038	76.4842	91.8528	145.506	183.1721	301.1572	320.9095	439.1098	502.6868	570.4887	634.3146	740.8026	787.8429	854.2133	895.0114	947.5573	970.0303	992.9549	1017.5745	1073.4874	1106.0621	1153.6507	1157.8774	1181.4843	1197.6117	1258.6343	1271.4678	1313.6376	1334.0357	1371.6824	1440.4223	1496.3288	1499.8001	1524.069	1572.9113	1695.3711	1778.1495	3028.2494	3041.564	3080.2715	3080.5048	3138.1225	3151.1313	3215.1448	3607.178
CNC(=O)C1COC=N1	CNC(=O)[C@H]1COC=N1	
InChI=1S/C5H8N2O2/c1-6-5(8)4-2-9-3-7-4/h3-4H,2H2,1H3,(H,6,8)	InChI=1S/C5H8N2O2/c1-6-5(8)4-2-9-3-7-4/h3-4H,2H2,1H3,(H,6,8)/t4-/m1/s1
