16
gdb 28258	4.76884	1.2425	1.00355	1.9862	71.71	-0.1666	0.0515	0.2181	1127.6142	0.128389	-434.096389	-434.089132	-434.088188	-434.12787	28.384	
O	 0.0045795189	 1.2716301742	 0.1424099882	-0.42251
C	 0.0524269607	-0.0667405288	 0.0322020451	 0.418876
N	 0.1491210138	-0.7468666926	-1.0903644071	-0.455921
C	 0.0691039742	-2.0484069988	-0.6523589073	 0.322564
C	-0.1041314627	-2.1535368907	 0.6896778967	 0.193545
C	 0.1411586774	-3.5533389785	 1.1519141388	-0.329692
C	-0.0269607236	-4.2770870988	-0.2292179167	-0.157487
N	 0.3436705967	-3.2774534	-1.2722323239	-0.390777
N	-0.0394790147	-0.8328996791	 1.1543971355	-0.408803
H	 0.0743448881	 1.6157591179	-0.7569258144	 0.314128
H	 1.1571175824	-3.6957758594	 1.5511599769	 0.107475
H	-0.5591985215	-3.9573896906	 1.8908388351	 0.101695
H	 0.599206813	-5.1685792289	-0.3124924063	 0.108059
H	-1.0781079346	-4.5797414656	-0.3360809796	 0.100721
H	-0.1355273291	-3.428858633	-2.1525115735	 0.23124
H	-0.2593211591	-0.4786046772	 2.0693228623	 0.266887
135.1349	194.5852	275.633	295.6098	316.0637	402.9844	457.7244	520.5549	542.2461	670.1702	679.8858	715.7506	738.8039	807.1439	840.4686	879.0062	941.9567	1023.4541	1042.1631	1079.8658	1126.3672	1175.3511	1189.3967	1225.5729	1255.7849	1306.6731	1316.8934	1352.9889	1415.286	1474.0881	1498.754	1515.945	1539.9799	1605.824	1654.1134	2980.6901	3000.6865	3051.3235	3093.8374	3535.2512	3675.8332	3806.2144
OC1=NC2=C(CCN2)N1	Oc1nc2c(CCN2)[nH]1	
InChI=1S/C5H7N3O/c9-5-7-3-1-2-6-4(3)8-5/h6H,1-2H2,(H2,7,8,9)	InChI=1S/C5H7N3O/c9-5-7-3-1-2-6-4(3)8-5/h6H,1-2H2,(H2,7,8,9)
