19
gdb 52907	2.45922	1.06266	0.84518	0.8059	91.37	-0.2408	0.0384	0.2792	1453.6098	0.156654	-348.685422	-348.675365	-348.674421	-348.722561	36.035	
C	 0.1929229156	 1.6125535556	-0.2379556136	-0.503144
C	 0.1063933115	 0.1644488819	-0.1173766546	 0.147148
C	 0.0447206443	-1.0349510924	-0.0280339451	-0.0586
C	-0.0595007524	-2.4808903838	 0.1118280561	-0.030422
C	 0.0717399819	-3.0687612965	 1.574324702	-0.237302
C	-1.1210338514	-4.0107330255	 1.2805946527	-0.22007
C	-1.5159163604	-3.0975449279	 0.0946577124	-0.23734
C	 0.8238400538	-3.1751479409	-0.8224752667	 0.304317
C	 1.5399592338	-3.7749112504	-1.5791737578	-0.476009
H	 1.0010122949	 1.9055989519	-0.9172775818	 0.150937
H	-0.7387189696	 2.0363196246	-0.6291649987	 0.147631
H	 0.3885959489	 2.0827903874	 0.7321684633	 0.147151
H	 1.0362686109	-3.5110601497	 1.8263173937	 0.113929
H	-0.1790647887	-2.2965732311	 2.3045213065	 0.113122
H	-0.7867554679	-4.9937529968	 0.9410411827	 0.116615
H	-1.8582113108	-4.1444737394	 2.0741735543	 0.101487
H	-2.2415319267	-2.3339353973	 0.3823079403	 0.113151
H	-1.8263243368	-3.5629771721	-0.8415399737	 0.113917
H	 2.1781709391	-4.2893745975	-2.253963852	 0.193485
8.9464	79.5151	106.1532	115.9456	183.3335	216.2724	293.6704	309.5222	445.4054	471.588	474.4857	551.6939	557.5498	614.8692	633.5809	680.2587	796.3564	861.8883	881.0283	932.6688	942.78	967.7276	1020.4157	1052.629	1053.8394	1061.6744	1153.5421	1205.639	1224.7904	1252.5458	1266.6086	1280.3255	1307.6706	1414.1727	1471.2466	1477.8243	1478.368	1482.7219	1501.8591	2232.9996	2369.0985	3026.2259	3071.7088	3074.3612	3078.8836	3086.3738	3087.7809	3118.5505	3138.3859	3144.509	3503.1821
CC#CC1(CCC1)C#C	CC#CC1(CCC1)C#C	
InChI=1S/C9H10/c1-3-6-9(4-2)7-5-8-9/h2H,5,7-8H2,1H3	InChI=1S/C9H10/c1-3-6-9(4-2)7-5-8-9/h2H,5,7-8H2,1H3
