21
gdb 40669	3.52152	0.97839	0.88674	1.9139	83.57	-0.2382	0.0715	0.3097	1392.388	0.182529	-387.034291	-387.025603	-387.024659	-387.068398	32.845	
C	-0.3688744236	 1.305390967	-0.4283656984	-0.272746
C	 1.0383504834	 1.4233537342	 0.1033318285	-0.270565
C	 0.3501948729	 0.0793339076	 0.0788856391	 0.023526
C	-0.0771523254	-0.5794101845	 1.3519721026	-0.072261
C	-0.7470042133	-1.9394268891	 1.3311176491	-0.370482
C	 0.6428086115	-1.7899824426	 1.8701097402	 0.286604
C	 1.9437142807	-2.4149244701	 1.3739287006	-0.136757
O	 2.3823958777	-2.6290584158	 2.7341611902	-0.277299
C	 1.1653289005	-2.0697436493	 3.2752768436	-0.137394
H	-1.1756536395	 1.7028492047	 0.1788747091	 0.111641
H	-0.5281250538	 1.406144989	-1.4962587676	 0.11134
H	 1.8436908577	 1.6055412245	-0.5996541437	 0.11225
H	 1.1771122476	 1.9009935919	 1.0677945676	 0.112117
H	 0.6943663101	-0.6139875698	-0.6849277244	 0.078983
H	-0.4353584371	 0.1128262855	 2.1126688357	 0.079297
H	-1.5530129886	-2.1332853181	 2.0324079941	 0.111815
H	-0.8678753896	-2.4279695012	 0.3680642693	 0.112227
H	 1.8443774434	-3.3596190838	 0.8223664902	 0.097951
H	 2.6212574226	-1.7475739619	 0.825055338	 0.103013
H	 1.3608468652	-1.1899963531	 3.9034278771	 0.098223
H	 0.5985611078	-2.808345455	 3.8586786292	 0.098516
54.065	99.1596	129.7804	146.6163	292.3567	309.2764	335.9663	402.7761	462.0523	601.9827	747.0166	802.6611	823.4844	858.4056	870.313	888.7361	903.3902	930.3409	975.2753	983.459	1007.406	1030.6896	1050.3055	1058.9953	1063.6058	1078.2738	1097.2491	1131.625	1135.5993	1151.9577	1160.9056	1197.415	1203.5837	1231.0872	1240.4427	1299.0945	1312.4268	1344.2383	1404.3424	1454.1606	1469.9444	1498.4069	1510.6457	1513.2781	1535.0868	2991.1822	3003.1241	3034.9463	3039.5313	3112.831	3115.6634	3129.1571	3132.266	3135.4807	3199.6061	3207.0474	3222.3986
C1CC1C1CC11COC1	C1CC1[C@H]1CC21COC2	
InChI=1S/C8H12O/c1-2-6(1)7-3-8(7)4-9-5-8/h6-7H,1-5H2	InChI=1S/C8H12O/c1-2-6(1)7-3-8(7)4-9-5-8/h6-7H,1-5H2/t7-/m1/s1
