13
gdb 129497	4.39962	1.16656	0.92207	2.5876	63.27	-0.2512	-0.0394	0.2118	1154.5812	0.090394	-486.103085	-486.095175	-486.094231	-486.136308	28.414	
N	-0.1092688298	 1.2750962324	 0.0571507544	-0.567263
C	 0.0489694788	-0.0661482105	-0.0173015814	 0.534002
O	 1.0834804352	-0.6750438823	-0.0835954573	-0.346614
N	-1.2221709634	-0.7475521414	-0.0099440543	 0.0223
N	-2.3896393205	-0.099548541	 0.0646245593	-0.218082
C	-3.2994416638	-1.0607633058	 0.0448610661	-0.119519
C	-2.6179428656	-2.2973987551	-0.044102739	 0.384576
O	-3.1739566071	-3.5156356735	-0.0895620262	-0.417259
N	-1.3152358202	-2.0858212129	-0.0776743783	-0.296665
H	 0.7195729098	 1.8414947544	 0.0626320514	 0.277092
H	-1.0262993814	 1.684568733	 0.1127128294	 0.285853
H	-4.3557745002	-0.8533582579	 0.0922129216	 0.145014
H	-2.4592845518	-4.1630386093	-0.1483875556	 0.316563
44.5012	126.4612	180.4225	203.9844	350.8614	389.7465	425.0881	439.0702	546.6995	571.0461	650.3709	655.5183	723.7264	758.8507	759.0368	859.83	982.9942	1047.4902	1097.9031	1178.0278	1234.9165	1276.0153	1307.3544	1377.1704	1439.8862	1529.5205	1590.726	1615.3942	1870.2523	3277.8187	3615.1565	3760.4774	3791.8552
NC(=O)N1N=CC(O)=N1	NC(=O)n1ncc(O)n1	
InChI=1S/C3H4N4O2/c4-3(9)7-5-1-2(8)6-7/h1H,(H2,4,9)(H,6,8)	InChI=1S/C3H4N4O2/c4-3(9)7-5-1-2(8)6-7/h1H,(H2,4,9)(H,6,8)
