19
gdb 81293	2.29198	1.7297	1.58999	3.7781	76.29	-0.2373	0.0267	0.2641	983.4975	0.162229	-419.1954	-419.187727	-419.186783	-419.227333	30.323	
C	-0.1732993384	 1.6189355817	-0.0153064693	-0.43692
C	 0.0440213294	 0.1129791182	-0.0191856544	 0.030187
C	 0.8309930091	-0.624181685	-1.1380132499	-0.053992
C	 2.0942675058	 0.1304665905	-1.517662773	-0.05802
O	 2.818684257	 0.5843657148	-0.356688608	-0.27034
C	 2.3789572378	 0.2123669726	 0.8814386853	 0.470353
N	 2.9780858182	 0.5424307311	 1.9446688381	-0.541534
C	 1.1023364189	-0.5843261973	 0.8877810182	-0.117869
N	 1.2762883217	-1.6698320631	-0.1509574874	-0.329867
H	 0.7623086173	 2.1720327099	-0.1325138346	 0.137557
H	-0.8468157599	 1.9151698791	-0.8270645958	 0.116743
H	-0.6315403638	 1.9387940749	 0.9262251709	 0.128659
H	-0.910546277	-0.4058046793	 0.1240878449	 0.077877
H	 0.3104494662	-0.9803527557	-2.0312154458	 0.07624
H	 2.7609893352	-0.5261973393	-2.0860556255	 0.124367
H	 1.8671410084	 1.0163748283	-2.120991802	 0.111949
H	 3.8125106915	 1.0910631294	 1.7238886323	 0.217828
H	 0.8561208478	-0.8951104377	 1.9015756175	 0.094698
H	 0.5085575648	-2.3282237832	-0.0247361915	 0.222082
115.8377	181.509	196.5555	237.3784	310.9386	417.664	423.8244	501.803	535.0789	625.0464	718.4624	749.807	813.97	841.4046	873.6278	881.7989	920.7685	963.2095	971.0829	993.748	1036.8428	1051.7095	1078.3588	1120.155	1140.4768	1160.6374	1172.6248	1211.2671	1249.1375	1261.0258	1300.1658	1313.8025	1354.1427	1386.1679	1410.2529	1420.7008	1438.6748	1497.3074	1498.1434	1509.6668	1765.3757	3035.7012	3039.4288	3042.1452	3077.8418	3085.6011	3098.0205	3120.3768	3137.9785	3457.316	3465.8725
CC1C2COC(=N)C1N2	C[C@H]1[C@H]2CO[C]([NH])[C@@H]1N2	
InChI=1S/C6H10N2O/c1-3-4-2-9-6(7)5(3)8-4/h3-5,7-8H,2H2,1H3	InChI=1S/C6H10N2O/c1-3-4-2-9-6(7)5(3)8-4/h3-5,7-8H,2H2,1H3/t3-,4+,5+/m0/s1
