20
gdb 107874	2.56061	1.56516	1.11357	2.9288	79.86	-0.2225	0.0635	0.286	1144.7234	0.170488	-403.044088	-403.035568	-403.034624	-403.077154	32.774	
C	-0.110092521	 1.3956372111	-0.3357536348	-0.427321
C	 0.0881357261	-0.1117705567	-0.29472061	-0.002708
C	 1.4934906046	-0.6805342833	-0.5574373072	-0.055246
N	 1.9990308367	-0.2193748034	 0.8404004823	-0.167134
C	 2.5413681459	-1.618436176	 1.0923219506	-0.239846
C	 1.2724050324	-1.9585528268	 0.3174181687	 0.328362
C	 0.7419911709	-3.3130909746	-0.0689958513	-0.231554
O	-0.4715615159	-3.1505172029	-0.7902694086	-0.413524
C	 0.5514212766	-0.7614819401	 1.0208701059	-0.055339
H	 0.7052748939	 1.9116573157	 0.1773735761	 0.138386
H	-0.1491231534	 1.7554857946	-1.3699242822	 0.110601
H	-1.053353084	 1.6778230131	 0.1450330789	 0.110583
H	-0.7103873817	-0.6585342616	-0.7994380925	 0.096321
H	 2.1420729457	-0.5813553429	-1.4315639274	 0.072909
H	 3.5080576647	-1.8054832416	 0.610757094	 0.094995
H	 2.5865816216	-1.8846579071	 2.1546120242	 0.094978
H	 1.5009784231	-3.8361581756	-0.674559129	 0.090681
H	 0.5881818295	-3.9121124053	 0.844154696	 0.090701
H	-0.8008890567	-4.021730313	-1.0288198966	 0.2913
H	 0.0875318612	-0.7579396535	 2.010521813	 0.072857
75.0605	151.4238	215.2993	223.7586	240.2614	251.7071	332.1921	406.8787	444.8404	515.369	675.2573	716.6948	746.627	842.2219	852.7121	867.1173	882.6084	918.3602	1012.8448	1027.9692	1035.481	1044.9255	1068.6665	1091.9318	1100.5916	1108.4522	1138.8464	1144.7907	1181.5502	1190.9896	1228.0415	1241.081	1265.9371	1268.9436	1286.5504	1347.2093	1395.7887	1408.3036	1463.835	1496.1677	1504.1844	1512.5363	1522.1751	2955.5361	2982.0802	3024.1849	3031.909	3079.4083	3080.7458	3084.8113	3089.0093	3101.791	3126.9701	3832.8205
CC1C2N3CC2(CO)C13	C[C@H]1[C@H]2N3C[C@@]2(CO)[C@H]13	
InChI=1S/C7H11NO/c1-4-5-7(3-9)2-8(5)6(4)7/h4-6,9H,2-3H2,1H3	InChI=1S/C7H11NO/c1-4-5-7(3-9)2-8(5)6(4)7/h4-6,9H,2-3H2,1H3/t4-,5+,6-,7-
