20
gdb 110277	2.11218	1.45993	1.14101	2.1891	79.77	-0.2354	-0.0225	0.2129	1194.9094	0.169866	-403.122864	-403.113737	-403.112793	-403.156953	34.049	
C	-1.2827257588	 3.417389122	 1.5125768612	-0.377817
C	-1.1003696472	 2.0617515219	 0.8187049639	-0.218748
C	 0.008134745	 1.2360904515	 1.4557311867	-0.050452
N	-0.1084774586	 0.7655895712	 2.8905341794	-0.158076
C	-1.0024958232	-0.3990416234	 2.9726544948	 0.022761
C	-2.2639246614	-0.6802606614	 2.1806452968	-0.431235
C	 0.3844617071	-0.62377226	 2.4680479616	-0.187016
C	 0.4677825836	-0.1751481786	 1.031139233	 0.369649
O	 0.8959675507	-0.6552903554	 0.0214783034	-0.313744
H	-0.3656303352	 4.0140203386	 1.462273711	 0.11915
H	-2.0845933683	 3.9930826277	 1.0410279824	 0.114933
H	-1.5337336664	 3.2862542504	 2.5694084706	 0.133593
H	-2.0479799728	 1.5194753793	 0.8179125826	 0.105909
H	-0.8276634125	 2.2112313169	-0.2334309238	 0.118482
H	 0.9316671529	 1.8342991518	 1.430301108	 0.11931
H	-1.1096954547	-0.6739280004	 4.0214160361	 0.109258
H	-2.1278994168	-0.6103622745	 1.1007170906	 0.143282
H	-2.5896781192	-1.7025472754	 2.4002352509	 0.130283
H	-3.0726048244	-0.0049014421	 2.47881319	 0.131307
H	 1.1339791003	-1.1868961303	 3.0130104209	 0.119171
57.0917	121.3867	142.4765	193.4783	233.6033	273.7333	304.2132	322.8976	375.0948	521.864	593.3426	638.4771	667.3223	683.662	776.3969	818.1516	854.7121	912.9778	915.5174	969.9148	998.5384	1048.0497	1073.2186	1078.6272	1108.9169	1132.551	1139.6279	1181.2679	1235.9198	1256.9012	1287.8442	1310.1122	1332.0733	1388.7624	1411.1928	1412.9121	1427.8124	1483.2055	1496.8599	1498.9473	1502.0862	1508.9826	1887.6542	3001.5478	3037.2453	3040.9518	3041.5791	3095.2108	3099.3442	3112.4327	3113.4974	3119.1463	3142.5454	3180.737
CCC1N2C(C)C2C1=O	CC[C@H]1N2[C@@H](C)[C@H]2C1=O	
InChI=1S/C7H11NO/c1-3-5-7(9)6-4(2)8(5)6/h4-6H,3H2,1-2H3	InChI=1S/C7H11NO/c1-3-5-7(9)6-4(2)8(5)6/h4-6H,3H2,1-2H3/t4-,5+,6-,8?/m0/s1
