25
gdb 104731	1.78978	1.47154	1.01043	1.6725	88.94	-0.2507	0.0774	0.3281	1370.1663	0.225481	-389.495594	-389.4842	-389.483255	-389.531687	42.137	
C	 0.9667789654	-0.478511036	 0.7953656971	-0.383546
C	 0.2511853263	-0.4522907725	-0.5615190362	-0.260047
C	-1.2479378157	-0.7270454767	-0.4749175723	 0.349657
C	-2.0650235873	 0.4772389607	-0.0109789855	-0.266266
C	-2.3267948308	 1.4767756721	-1.1464450835	-0.373115
O	-1.7978552978	-1.4264437225	-1.6112181202	-0.341719
C	-1.7599022411	-2.1203215972	-0.3516361029	 0.337513
C	-0.8275410691	-3.3180700532	-0.2984995752	-0.457964
C	-3.120115063	-2.4240184798	 0.2513260545	-0.455693
H	 2.0297576888	-0.2469385057	 0.6772919983	 0.115639
H	 0.5472879554	 0.2559842016	 1.4904808205	 0.119532
H	 0.8889930436	-1.462390013	 1.2685190438	 0.11908
H	 0.3962537384	 0.5294773433	-1.0290488487	 0.099774
H	 0.705697458	-1.1741381766	-1.2439513321	 0.109915
H	-3.0214919727	 0.1604162582	 0.4097409693	 0.09743
H	-1.5242325918	 0.9731385832	 0.8040612078	 0.097715
H	-2.9290525309	 2.3179092435	-0.7903858004	 0.108462
H	-1.3967893297	 1.8852144727	-1.5547731417	 0.116552
H	-2.8630390681	 0.9870808571	-1.9635163743	 0.135732
H	 0.1616464837	-3.1052622576	-0.702488157	 0.124364
H	-0.7133123888	-3.6695587682	 0.7329077386	 0.117376
H	-1.2581793653	-4.1408481243	-0.8801006875	 0.122885
H	-3.4987941131	-3.3697921133	-0.1518644272	 0.119553
H	-3.0532698756	-2.5322760416	 1.3397010287	 0.11716
H	-3.8522446688	-1.6511958441	 0.0181072963	 0.130012
70.7407	99.9627	129.6694	138.8696	175.7632	190.0463	202.0812	226.0145	290.5048	324.5122	359.0904	386.3136	411.5298	441.1308	498.8493	577.5509	663.3578	726.7828	783.8758	787.9863	898.7668	907.3777	935.9557	941.8247	997.1581	1004.9049	1043.3401	1064.3706	1074.6385	1113.3492	1152.8984	1182.6105	1206.1251	1244.1826	1283.0715	1299.5066	1354.3016	1362.8404	1404.2188	1404.6528	1412.4621	1414.1382	1446.1247	1474.0824	1479.0875	1488.8029	1495.11	1498.5872	1500.3107	1506.1658	1507.2084	1516.0981	1520.9822	3033.5589	3036.2337	3037.3428	3039.2672	3042.2108	3045.1526	3089.2046	3089.575	3094.1014	3094.9941	3107.4077	3110.1839	3112.5753	3124.4819	3147.1537	3151.2819
CCC1(CC)OC1(C)C	CCC1(CC)OC1(C)C	
InChI=1S/C8H16O/c1-5-8(6-2)7(3,4)9-8/h5-6H2,1-4H3	InChI=1S/C8H16O/c1-5-8(6-2)7(3,4)9-8/h5-6H2,1-4H3
