18
gdb 107534	2.00232	1.66717	1.09928	2.1998	78.1	-0.2383	0.0484	0.2867	1142.8887	0.14647	-401.859066	-401.850131	-401.849186	-401.892931	33.558	
O	-0.0015179702	 1.4046812237	 0.3522910957	-0.409967
C	 0.0318164764	 0.0376718619	-0.0244818789	-0.174444
C	-1.333844612	-0.5635589959	-0.1097915339	 0.308316
N	-2.0608984065	-1.0170530934	 1.1061404944	-0.368431
C	-1.834830665	-1.9616181896	-0.0157346952	-0.122099
C	-2.9567800311	-1.6929634742	-1.020878211	-0.234645
C	-2.4248914369	-0.2078730153	-1.150384533	-0.225674
C	-3.3235582332	 0.8911361939	-0.860470841	 0.349321
C	-4.0748949466	 1.8010572067	-0.6299230574	-0.468876
H	-0.6338867748	 1.4958742478	 1.0732845301	 0.294042
H	 0.5250065518	 0.0104402417	-1.003011314	 0.113311
H	 0.6482452641	-0.563894777	 0.6670074571	 0.081555
H	-1.3518287727	-1.2235022908	 1.8115851158	 0.225627
H	-1.2880306595	-2.8834719691	 0.1413262708	 0.100248
H	-2.8598096093	-2.2452429223	-1.9570992313	 0.108992
H	-3.9668642314	-1.7990554147	-0.6226286516	 0.122372
H	-1.9623247956	-0.0668036877	-2.1324209235	 0.106899
H	-4.7352252376	 2.6052169944	-0.419280753	 0.193453
70.9648	88.7229	133.815	200.1621	278.206	286.9371	349.1776	396.7983	454.6037	511.531	558.431	615.7011	630.6849	677.9921	723.5547	797.3747	892.9901	922.7768	927.5779	957.9411	1012.3431	1024.5592	1062.1329	1071.505	1080.4218	1117.5128	1168.6556	1189.5226	1203.5031	1246.8177	1290.4037	1312.6172	1350.3539	1365.4635	1414.4785	1450.2516	1479.5327	1501.2791	2236.1633	2946.3254	3055.3147	3059.0016	3079.9853	3142.2757	3189.2276	3451.8119	3504.7254	3810.6356
OCC12NC1CC2C#C	OC[C@]12N[C@H]1C[C@H]2C#C	
InChI=1S/C7H9NO/c1-2-5-3-6-7(5,4-9)8-6/h1,5-6,8-9H,3-4H2	InChI=1S/C7H9NO/c1-2-5-3-6-7(5,4-9)8-6/h1,5-6,8-9H,3-4H2/t5-,6+,7-/m1/s1
