18
gdb 85768	2.72559	1.23452	0.97568	1.9861	73.48	-0.2432	-0.035	0.2081	1240.4795	0.146607	-439.138271	-439.12908	-439.128136	-439.172936	33.636	
C	-0.6644878031	 0.9715887709	 1.3379020196	-0.404229
C	-0.0509301318	-0.0271879342	 0.3638578452	-0.084848
C	 0.2844186551	 0.4095217704	-1.1028869372	-0.262158
C	 1.7147555196	-0.1798479261	-0.9690491859	-0.223373
C	 2.9048348084	 0.6994498609	-1.350134559	 0.377019
N	 4.0459835954	 0.3767067337	-0.6752796787	-0.521325
O	 2.8265741948	 1.5721366546	-2.1899877832	-0.354978
C	 1.4371468894	-0.3602918906	 0.5322647821	 0.381605
O	 2.1585197933	-0.5503186415	 1.4745473829	-0.320335
H	-0.1057350329	 1.9128923213	 1.3387753897	 0.126611
H	-1.7008237206	 1.1943121468	 1.0663337253	 0.125469
H	-0.6550901336	 0.5735383878	 2.3568135468	 0.135912
H	-0.6231622696	-0.964071349	 0.3701210575	 0.108307
H	-0.3398845783	-0.0210217411	-1.8853842791	 0.112997
H	 0.3165546282	 1.4933671882	-1.2302822079	 0.134888
H	 1.8354786543	-1.15307784	-1.4584334244	 0.134397
H	 3.9690474601	-0.1384858026	 0.1915074804	 0.274467
H	 4.8335266113	 0.9958049906	-0.791145574	 0.259573
46.1373	69.3291	159.916	190.2873	216.1936	244.0996	332.6713	392.2564	451.0853	495.3832	559.1003	580.7244	609.4703	663.8676	719.8453	789.5164	818.4472	893.0494	918.3885	988.7693	1039.0067	1060.7942	1082.026	1122.0355	1139.2046	1144.949	1192.6965	1239.1409	1241.6141	1276.2436	1324.5489	1352.0424	1408.4819	1490.57	1495.4089	1496.0412	1631.2697	1806.27	1859.8028	3029.4822	3038.7149	3056.462	3088.128	3109.1254	3115.1545	3145.2904	3545.0846	3685.0645
CC1CC(C(N)=O)C1=O	C[C@H]1C[C@@H](C(=O)N)C1=O	
InChI=1S/C6H9NO2/c1-3-2-4(5(3)8)6(7)9/h3-4H,2H2,1H3,(H2,7,9)	InChI=1S/C6H9NO2/c1-3-2-4(5(3)8)6(7)9/h3-4H,2H2,1H3,(H2,7,9)/t3-,4+/m0/s1
