21
gdb 92846	3.48501	1.21706	0.95961	1.1415	85.57	-0.2298	0.0262	0.256	1253.2404	0.18457	-387.091657	-387.083584	-387.08264	-387.123892	32.596	
O	 0.0373034886	 1.4456582869	-0.1204412188	-0.440512
C	 0.0350572042	 0.0258128886	-0.034773264	 0.127812
C	 0.8302218406	-0.4623423676	 1.1962075505	-0.269331
C	 0.500442737	-1.8788695741	 1.6113457194	-0.24152
C	-0.4694020417	-2.5415517364	 0.9963245699	 0.347993
C	-1.3757828628	-3.7241334272	 1.2698087324	-0.317414
C	-2.5213176192	-2.8630629124	 0.6325087477	-0.251063
C	-1.4250680905	-1.9591445181	-0.0223653679	-0.040209
C	-1.4288275817	-0.4351199527	-0.0001666714	-0.237682
H	 0.953478351	 1.7412177676	-0.1315703782	 0.277792
H	 0.49775864	-0.403999863	-0.9396884258	 0.064272
H	 1.9072380138	-0.3514831515	 1.0009544563	 0.09182
H	 0.6065092302	 0.2200942465	 2.029383372	 0.112499
H	 1.0271269484	-2.2929720359	 2.4682997477	 0.081093
H	-1.1410110379	-4.5973790833	 0.6504786099	 0.10781
H	-1.4913914891	-4.0523961445	 2.3058591134	 0.106783
H	-3.2186246868	-3.371661908	-0.0369521134	 0.097692
H	-3.0840875454	-2.3211589278	 1.3971210554	 0.107381
H	-1.2091696754	-2.3284069606	-1.0342603766	 0.076349
H	-1.8963922844	-0.0680747432	 0.9217615108	 0.098473
H	-1.9674290389	 0.0078649667	-0.8438647096	 0.099961
121.0383	159.1828	261.4585	283.558	302.0879	318.4334	390.8477	409.7192	468.1904	527.3865	625.9127	696.9952	763.3233	785.3398	837.1397	873.8923	906.8282	917.3392	951.7023	975.6248	992.9587	1058.5752	1077.6417	1083.5236	1108.1515	1111.4623	1126.7855	1169.1074	1194.3182	1230.7724	1243.0065	1247.773	1263.4624	1283.9567	1301.6578	1319.4908	1342.5458	1374.4306	1390.3636	1438.6704	1474.7315	1481.1238	1489.4203	1498.2981	1772.2415	2948.6648	2992.9347	3006.6701	3021.4029	3034.8882	3038.7905	3061.34	3085.0456	3095.9989	3120.9977	3148.2723	3811.1946
OC1CC=C2CCC2C1	O[C@H]1C[CH][C]2CC[C@H]2C1	
InChI=1S/C8H12O/c9-8-4-3-6-1-2-7(6)5-8/h3,7-9H,1-2,4-5H2	InChI=1S/C8H12O/c9-8-4-3-6-1-2-7(6)5-8/h3,7-9H,1-2,4-5H2/t7-,8-/m0/s1
