15
gdb 12609	3.098	2.2388	1.33174	1.4483	62.84	-0.2576	-0.0157	0.2419	876.9641	0.119601	-399.892913	-399.885193	-399.884249	-399.926076	26.803	
C	-0.0100093604	 1.4708430236	 0.0039441317	-0.348812
N	 0.0073906487	 0.0192388403	 0.0041653781	-0.127992
C	 0.0841303207	-0.7299366793	-1.1656144952	 0.407607
O	 0.1425098172	-0.255001967	-2.272777013	-0.353997
C	 0.0793743569	-2.2054473006	-0.776228687	-0.345514
C	-0.0093199358	-2.2151043253	 0.7569790764	-0.34381
C	-0.0506982252	-0.7458551294	 1.1673737347	 0.412701
O	-0.120687777	-0.295827304	 2.2841345574	-0.353554
H	 0.8996634002	 1.859610848	-0.4605490111	 0.149703
H	-0.8697063568	 1.8384512173	-0.5619169507	 0.149686
H	-0.0734338198	 1.7981192842	 1.0418498215	 0.164218
H	-0.7658521503	-2.6956626091	-1.2659629766	 0.147228
H	 0.9870480496	-2.6744937786	-1.1644110659	 0.14723
H	-0.9049850413	-2.7106398659	 1.1401851337	 0.147653
H	 0.8476740433	-2.6896559343	 1.241722016	 0.147652
43.0032	82.0579	122.6053	220.6677	278.9539	384.7148	562.7014	577.5287	582.6944	596.3519	674.9546	710.2088	829.4328	956.3227	1013.3275	1025.5334	1074.5713	1127.0167	1153.892	1163.2664	1242.5281	1271.3182	1305.214	1310.0978	1403.6982	1455.6172	1458.7739	1478.0299	1488.8186	1508.6681	1806.1167	1867.3006	3056.2567	3072.0813	3078.9568	3106.857	3121.8649	3123.0891	3163.7139
CN1C(=O)CCC1=O	CN1C(=O)CCC1=O	
InChI=1S/C5H7NO2/c1-6-4(7)2-3-5(6)8/h2-3H2,1H3	InChI=1S/C5H7NO2/c1-6-4(7)2-3-5(6)8/h2-3H2,1H3
