17
gdb 51943	8.17486	0.41165	0.40817	0.255	80.65	-0.2526	-0.0341	0.2185	2517.4204	0.131487	-421.81587	-421.805348	-421.804404	-421.855433	34.042	
O	-0.1423910592	 0.0931050874	 0.3698202377	-0.229239
C	 0.1510673332	 0.8983240098	-0.4739906517	 0.156139
C	 1.411239222	 1.7356124201	-0.4718399781	-0.262185
C	 1.1006678979	 3.2373283158	-0.6753685163	-0.364913
C	 2.3041915376	 4.0514936791	-0.7857982933	 0.044774
C	 3.3127034534	 4.7060251453	-0.852822258	 0.092043
C	 4.5179450062	 5.5087593936	-1.0004675273	-0.414538
C	 4.9378411413	 5.6645995228	-2.4645230002	 0.171994
O	 5.4010320479	 6.673714778	-2.9199269317	-0.227982
H	-0.5171367107	 1.0801245868	-1.3498259404	 0.073396
H	 1.9557263999	 1.563070199	 0.4591878124	 0.136128
H	 2.0405388906	 1.392350235	-1.3041054332	 0.133847
H	 0.4860602806	 3.3628812738	-1.5768552069	 0.137529
H	 0.4893844659	 3.5984446729	 0.1613730976	 0.147388
H	 4.410243041	 6.5085643438	-0.5673801291	 0.156843
H	 5.360888265	 5.0264006608	-0.4815415068	 0.156623
H	 4.7918577276	 4.7505744159	-3.0804541545	 0.092153
10.5178	42.4201	59.2736	66.9615	91.3244	134.7088	259.1203	286.8443	311.874	437.1784	462.1187	505.0768	543.4148	718.2001	753.83	817.4079	851.6944	990.8251	1032.6989	1042.2416	1075.5906	1093.1008	1165.8459	1199.5461	1211.6412	1264.5514	1290.9853	1305.4139	1365.6918	1414.6275	1430.585	1440.724	1461.4396	1479.7818	1840.1377	1842.951	2370.753	2846.6514	2899.327	3000.6482	3017.1879	3030.376	3051.8159	3080.1542	3118.8652
O=CCCC#CCC=O	O=CCCC#CCC=O	
InChI=1S/C7H8O2/c8-6-4-2-1-3-5-7-9/h6-7H,2,4-5H2	InChI=1S/C7H8O2/c8-6-4-2-1-3-5-7-9/h6-7H,2,4-5H2
