23
gdb 77247	2.69346	0.95261	0.87754	2.6874	87.27	-0.2416	-0.0171	0.2245	1472.7822	0.202257	-388.297959	-388.28696	-388.286016	-388.334805	39.483	
C	-0.4295475868	 1.0712889303	-1.7774604876	-0.418664
C	-0.1368375109	-0.1371262754	-0.9116495312	-0.042993
C	 1.2621378309	-0.5054408221	-0.4446131484	-0.073137
C	 2.4933523667	 0.3148439236	-0.7984727441	-0.31248
C	 3.0286132537	-0.069972086	-2.1622644186	 0.173341
O	 3.2407452599	 0.6991062662	-3.0638481263	-0.241715
C	 0.2152244964	-0.0600825839	 0.5635860553	 0.297349
C	 0.3377605614	 1.2827751004	 1.2613656934	-0.452006
C	-0.3574093498	-1.1404529111	 1.4657603859	-0.446305
H	 0.2031964083	 1.930133386	-1.5437746611	 0.120963
H	-0.2730603231	 0.8355852493	-2.8355711786	 0.127519
H	-1.4711938612	 1.3898695992	-1.6594763399	 0.117461
H	-0.7547333854	-0.9937363786	-1.1742342005	 0.07874
H	 1.4722374693	-1.5737449134	-0.43049557	 0.079831
H	 2.3149642511	 1.3912004353	-0.798029689	 0.119637
H	 3.2862337777	 0.1091119918	-0.0633563366	 0.118009
H	 3.2157136749	-1.1631404785	-2.2877237212	 0.068472
H	 0.7232035023	 2.0740938512	 0.6163957018	 0.116686
H	-0.6406335433	 1.6107090016	 1.631611456	 0.116272
H	 1.0053852704	 1.208355564	 2.127960056	 0.114698
H	 0.2707645975	-1.2912372658	 2.3521636374	 0.11237
H	-1.3611498648	-0.8696956583	 1.8150530896	 0.11456
H	-0.434357875	-2.0998172256	 0.9445112179	 0.111393
34.1066	54.9303	130.7071	148.3608	178.6626	202.2894	225.7107	253.9107	274.801	295.8725	364.8492	433.6887	478.7853	499.8752	567.042	684.8702	752.2839	771.6438	866.8557	937.3979	968.2063	982.2226	1000.0715	1039.4129	1046.7719	1062.8688	1084.9594	1134.3468	1152.9445	1173.4938	1177.4427	1216.3762	1264.486	1286.8424	1334.2458	1385.4891	1410.1073	1418.6094	1426.7489	1430.4973	1455.1056	1463.1277	1481.5456	1489.2993	1494.391	1500.9188	1505.4426	1519.7733	1834.6446	2849.1878	3003.1011	3017.3548	3028.049	3036.5351	3075.849	3080.1707	3091.154	3096.7697	3105.6413	3115.0781	3121.6133	3125.8363	3137.1238
CC1C(CC=O)C1(C)C	C[C@H]1[C@@H](CC=O)C1(C)C	
InChI=1S/C8H14O/c1-6-7(4-5-9)8(6,2)3/h5-7H,4H2,1-3H3	InChI=1S/C8H14O/c1-6-7(4-5-9)8(6,2)3/h5-7H,4H2,1-3H3/t6-,7+/m0/s1
