19
gdb 30923	1.99637	1.85795	1.02923	3.7391	79.3	-0.2029	0.0385	0.2414	1187.7552	0.158543	-419.237089	-419.22717	-419.226226	-419.27265	34.109	
C	 0.0322407309	 1.4169454472	 0.0534966774	-0.251459
O	 0.066445606	-0.0124595625	 0.0578349286	-0.274622
C	 0.5681727619	-0.577062714	-1.0683650574	 0.247038
C	-0.0156413764	-0.9616554991	-2.2492299228	 0.191833
C	-1.4419003887	-0.8126790159	-2.6657423476	-0.494353
N	 0.935009365	-1.5620668437	-3.0495225018	-0.329051
C	 2.053166543	-1.539265034	-2.3623540505	-0.011436
N	 1.9015316322	-0.9515236409	-1.140675349	-0.047504
C	 2.9032927744	-0.7584028043	-0.1139875251	-0.342826
H	 1.0424524028	 1.8410872479	-0.0078174307	 0.115404
H	-0.562501666	 1.7921324787	-0.7867439386	 0.129676
H	-0.430195629	 1.720109419	 0.9950644176	 0.133078
H	-1.5487105198	-0.1142013957	-3.503795576	 0.126062
H	-1.8529093052	-1.7731067123	-2.9935132666	 0.133813
H	-2.0500581557	-0.4462249215	-1.8338593985	 0.118951
H	 3.0041607763	-1.939232028	-2.6843710382	 0.120278
H	 3.3445447919	 0.2438742289	-0.1591115094	 0.136102
H	 2.448041983	-0.8946107522	 0.8692065203	 0.155253
H	 3.6983819134	-1.4956051776	-0.2428535817	 0.143764
60.4249	75.0458	119.3727	131.7388	147.4808	179.4603	252.9549	271.9983	279.5926	428.8178	516.6203	581.9363	664.9997	694.9101	736.3078	777.4045	794.4806	978.0198	1035.2894	1063.6571	1065.2337	1082.472	1152.8735	1175.0308	1203.3863	1234.717	1272.1841	1323.444	1396.9605	1414.4453	1422.8002	1452.7925	1477.656	1480.7113	1484.4079	1489.7082	1495.4426	1502.4997	1518.3238	1540.318	1645.5578	3012.5843	3029.7346	3033.7537	3080.6952	3084.3353	3105.9595	3114.0633	3131.7621	3142.2004	3235.7022
COC1=C(C)N=CN1C	COc1c(C)ncn1C	
InChI=1S/C6H10N2O/c1-5-6(9-3)8(2)4-7-5/h4H,1-3H3	InChI=1S/C6H10N2O/c1-5-6(9-3)8(2)4-7-5/h4H,1-3H3
