21
gdb 88169	2.67788	1.31008	1.1143	2.4867	77.79	-0.2442	0.076	0.3203	1206.1182	0.181589	-424.221714	-424.212513	-424.211568	-424.255988	34.531	
C	-0.0280037255	 1.6143476242	-0.0183395764	-0.422545
C	-0.0750347024	 0.1129772507	 0.1075111393	 0.000584
O	 1.1181401832	-0.6112572829	-0.2238441375	-0.295893
C	 0.6574200202	-0.6448648643	 1.1324916167	 0.393737
C	 1.5700630397	-0.0407421886	 2.2009586283	-0.324588
C	 1.4676846254	-1.054715307	 3.3522069837	-0.090246
O	 1.1043352922	-2.2896909979	 2.7471091278	-0.260212
C	 0.1967111899	-2.0037663561	 1.6818590301	 0.040926
C	-1.2536750502	-2.0246342869	 2.1727447898	-0.401684
H	 0.9041054253	 2.017337701	 0.3841196113	 0.128725
H	-0.1008899175	 1.9098402024	-1.0701073707	 0.130836
H	-0.8685249002	 2.0709276448	 0.5161321939	 0.121298
H	-0.9822239904	-0.3429130948	-0.2962284947	 0.084582
H	 2.5864814931	 0.0069386599	 1.8011750682	 0.128143
H	 1.2753623891	 0.9676492044	 2.5019043729	 0.107145
H	 2.4105314476	-1.2097653021	 3.8823091127	 0.113086
H	 0.7122000088	-0.7395844235	 4.0888629556	 0.090778
H	 0.3450172877	-2.7736373732	 0.9184052927	 0.098049
H	-1.4474425361	-1.2215399458	 2.891345717	 0.113525
H	-1.9519447554	-1.9063609877	 1.3387026697	 0.116573
H	-1.4620121046	-2.9795191866	 2.6628695797	 0.12718
39.1242	145.7256	171.8836	195.7151	211.8324	231.9649	285.1142	374.0791	433.2987	461.4733	515.1809	544.3206	661.9284	751.5407	783.512	848.3596	878.3483	916.8671	949.2624	987.3012	1002.7418	1030.7059	1040.7432	1087.7919	1121.5079	1127.2452	1139.4319	1165.0658	1213.7273	1233.2584	1249.5176	1287.7004	1310.0822	1351.4536	1364.1475	1396.7165	1402.5543	1409.1163	1467.5896	1482.9181	1487.7557	1490.8066	1494.7257	1512.9892	1524.6683	2978.5074	3037.0376	3039.026	3063.3588	3065.2473	3076.9015	3093.397	3099.4146	3110.0921	3113.3774	3119.8109	3130.3101
CC1OC11CCOC1C	C[C@H]1O[C@]21CCO[C@H]2C	
InChI=1S/C7H12O2/c1-5-7(3-4-8-5)6(2)9-7/h5-6H,3-4H2,1-2H3	InChI=1S/C7H12O2/c1-5-7(3-4-8-5)6(2)9-7/h5-6H,3-4H2,1-2H3/t5-,6+,7+/m0/s1
