21
gdb 105670	1.80808	1.45147	1.20782	1.6976	78.66	-0.2449	-0.025	0.2199	1209.0577	0.1804	-424.226736	-424.216755	-424.215811	-424.261874	36.519	
C	 0.1324024295	 1.5961037801	 0.3384093896	-0.405301
C	-0.0104146098	 0.0920676781	 0.0752725313	-0.216321
C	 0.6656999272	-0.4106307712	-1.2161852797	 0.182685
C	 2.2269459845	-0.4670410861	-1.1208497323	-0.287108
C	 2.1174062739	-1.9858902091	-0.8060148184	-0.244884
C	 0.6720472636	-1.9739978639	-1.3349161452	 0.102006
O	-0.2365784824	-2.7249226672	-0.5698220397	-0.425415
C	 0.1064182793	 0.3011663565	-2.4209106692	 0.088671
O	-0.729240674	-0.1719240961	-3.1534496621	-0.264622
H	 1.1819077709	 1.9089218902	 0.3512989055	 0.119871
H	-0.3834034202	 2.1974750415	-0.4170057874	 0.122492
H	-0.2991202011	 1.8537004844	 1.3102000898	 0.121549
H	 0.408527427	-0.4709086034	 0.9163493349	 0.112185
H	-1.0712268178	-0.1795495781	 0.0363519166	 0.106796
H	 2.7158869163	-0.2685364099	-2.0792002879	 0.106467
H	 2.6925199821	 0.1630668398	-0.3601419622	 0.107523
H	 2.8247921101	-2.6592009503	-1.2937736349	 0.104037
H	 2.127641463	-2.1822955227	 0.2689330236	 0.118508
H	 0.6249186953	-2.2583276229	-2.3931122251	 0.08288
H	-1.072191283	-2.7543439454	-1.0473231532	 0.290508
H	 0.5213483056	 1.3167168357	-2.6179524143	 0.077475
54.9343	97.9537	111.8904	176.1079	184.8443	235.3482	286.1661	322.6273	331.8855	347.6407	416.9825	516.4448	563.4389	669.7318	721.8647	777.9785	805.7901	872.5388	933.3009	952.3268	983.568	993.568	1022.6783	1045.1041	1074.949	1129.5371	1155.3638	1181.5617	1215.1564	1227.1424	1249.4068	1259.4757	1266.6587	1304.4662	1340.949	1364.5869	1414.3065	1421.5724	1439.1947	1479.0724	1481.5168	1499.5981	1504.0437	1506.7763	1809.0134	2860.7153	3029.541	3036.9814	3041.385	3057.3542	3070.8176	3074.532	3104.8369	3107.2648	3109.3508	3128.9083	3815.6773
CCC1(CCC1O)C=O	CC[C@]1(CC[C@H]1O)C=O	
InChI=1S/C7H12O2/c1-2-7(5-8)4-3-6(7)9/h5-6,9H,2-4H2,1H3	InChI=1S/C7H12O2/c1-2-7(5-8)4-3-6(7)9/h5-6,9H,2-4H2,1H3/t6-,7+/m1/s1
