14
gdb 27570	3.68835	1.21115	0.91691	4.2257	77.59	-0.2766	-0.0847	0.1918	1193.5656	0.102486	-395.802298	-395.79458	-395.793636	-395.835453	27.393	
C	-0.0142446324	 1.5083389975	 0.0301195875	-0.471429
C	 0.025863432	 0.0081127312	-0.0182427124	 0.339467
C	-0.0650333577	-0.7014096519	-1.2171638805	-0.219532
C	-0.016161354	-2.0910235539	-1.1366751016	 0.231703
N	 0.1117897146	-2.7457051653	 0.0243486722	-0.301524
C	 0.1895481172	-1.9692025313	 1.1039855193	 0.063775
N	 0.1541482033	-0.6381658044	 1.1490437446	-0.289816
C	-0.1046261032	-2.8852192325	-2.3365185999	 0.247781
N	-0.178490765	-3.4892397783	-3.3195208554	-0.31374
H	 0.9010131236	 1.8909473449	 0.4921901511	 0.157193
H	-0.1204530978	 1.9455268509	-0.9646926278	 0.131232
H	-0.8487564582	 1.8388861102	 0.6561510617	 0.157192
H	-0.1691009398	-0.2004233263	-2.1714716931	 0.133337
H	 0.2937959374	-2.4833963007	 2.0560629044	 0.134361
45.6673	132.0482	151.3409	200.3873	349.105	370.2422	477.1751	480.2603	549.3178	584.6249	647.8545	793.4456	803.6258	906.9192	925.8284	999.9198	1002.388	1020.7012	1062.4896	1169.1357	1242.9219	1274.7414	1346.6779	1364.6525	1409.9329	1472.6098	1480.5388	1493.9567	1575.1505	1614.5266	2357.4136	3047.8252	3110.81	3137.7422	3172.2238	3212.0193	45.6635	132.0481	151.3409	200.3873	349.105	370.2423	477.1752	480.2603	549.3179	584.6253	647.8547	793.4455	803.6258	906.9198	925.8285	999.9199	1002.3878	1020.7014	1062.4899	1169.1362	1242.9219	1274.7415	1346.6778	1364.6527	1409.9332	1472.6103	1480.5392	1493.9568	1575.1506	1614.5267	2357.4143	3047.8252	3110.8099	3137.7422	3172.2238	3212.0194
CC1=CC(=NC=N1)C#N	Cc1cc(ncn1)C#N	
InChI=1S/C6H5N3/c1-5-2-6(3-7)9-4-8-5/h2,4H,1H3	InChI=1S/C6H5N3/c1-5-2-6(3-7)9-4-8-5/h2,4H,1H3
