20
gdb 121168	3.27301	0.89984	0.77359	1.1311	75.81	-0.2451	0.0633	0.3084	1496.4371	0.17023	-440.225415	-440.216035	-440.215091	-440.260412	33.961	
O	-0.0003230373	 1.4085373346	 0.2472147744	-0.42321
C	 0.0199486651	-0.0086320141	 0.1605136185	-0.07701
C	-1.4143021632	-0.4801544369	-0.0500900609	-0.192
C	-1.5095392125	-1.9884492905	-0.1888604345	 0.05607
O	-1.0901849188	-2.6907501397	 1.0104364566	-0.302557
C	-2.3378637871	-3.4174125081	 1.1040018956	-0.126681
C	-2.8838681898	-2.659059786	-0.098468827	 0.271696
C	-4.2205767077	-2.1009840658	-0.3784181751	-0.302056
N	-3.6879703337	-3.2404522688	-1.1587855131	-0.360499
H	 0.8873376506	 1.7076042009	 0.4642323802	 0.286201
H	 0.6497982633	-0.3478784946	-0.6790828962	 0.081906
H	 0.4185109056	-0.4661076575	 1.0770837989	 0.110984
H	-2.0293598088	-0.1471442211	 0.7926165118	 0.109993
H	-1.8136082674	-0.006398216	-0.9564311904	 0.101354
H	-0.9217043745	-2.3322149393	-1.0558825721	 0.072767
H	-2.207044269	-4.4941295386	 0.9398341553	 0.110718
H	-2.8393405217	-3.2503505438	 2.0647130485	 0.107216
H	-5.0604246039	-2.3447775126	 0.2670953453	 0.123072
H	-4.2808713421	-1.1230353828	-0.8497086037	 0.119386
H	-3.3609198868	-2.9238490593	-2.0693705222	 0.232651
65.839	93.3924	109.3981	113.7822	244.7768	262.2205	274.0843	335.6747	350.6212	454.4717	540.6152	575.0393	791.4907	818.5147	861.763	898.3121	924.2043	943.1974	967.5614	1011.0802	1018.7798	1051.0548	1070.5065	1084.6936	1092.8491	1126.8829	1145.6124	1153.7606	1216.3948	1233.6087	1262.4938	1274.6236	1289.4052	1310.9555	1317.6379	1339.5341	1394.4859	1440.9934	1459.9336	1478.7955	1518.5588	1520.9753	1529.771	2959.0619	2967.66	3017.0143	3017.6372	3031.2035	3064.3314	3085.6299	3104.8175	3189.0293	3486.6107	3831.1932
OCCC1OCC11CN1	OCC[C@H]1OC[C@]21CN2	
InChI=1S/C6H11NO2/c8-2-1-5-6(3-7-6)4-9-5/h5,7-8H,1-4H2	InChI=1S/C6H11NO2/c8-2-1-5-6(3-7-6)4-9-5/h5,7-8H,1-4H2/t5-,6+/m1/s1
