19
gdb 42415	2.91657	1.00045	0.82328	2.8892	82.58	-0.2578	-0.058	0.1998	1419.4109	0.157643	-385.85835	-385.849014	-385.848069	-385.894043	33.76	
O	-0.4311215627	 0.0712450467	 1.2905330467	-0.285154
C	-0.0142556874	 1.0131716024	 0.6508048145	 0.246814
C	 1.3665756062	 1.6070836598	 0.867501475	-0.329233
C	 2.4077412567	 0.9223371991	-0.0278726883	 0.059687
C	 2.4172604812	 1.1863939836	-1.5615199878	-0.221896
C	 3.9685559517	 1.1850677129	-1.5068143035	-0.212287
C	 3.8748236728	 1.4333918397	 0.0229974111	-0.237184
C	-0.8109625668	 1.6140741432	-0.4093870745	 0.288646
C	-1.4689306376	 2.1251551718	-1.2788725986	-0.460045
H	 1.3528604358	 2.6831506003	 0.6616122055	 0.106759
H	 1.6265028201	 1.44800236	 1.9191779425	 0.124884
H	 2.3825733408	-0.1556139085	 0.1651282351	 0.090847
H	 1.9222668108	 0.4590579473	-2.2087810471	 0.103177
H	 2.0235877309	 2.1807645077	-1.7947768908	 0.10372
H	 4.3807065596	 0.1971567478	-1.7308574209	 0.105695
H	 4.4985258226	 1.9263395757	-2.1088355164	 0.098403
H	 3.9134190727	 2.502020408	 0.2592721748	 0.099892
H	 4.5728129804	 0.9070295336	 0.6786091007	 0.100531
H	-2.0613711478	 2.5633807288	-2.0450331279	 0.216745
26.2302	64.9661	115.3179	154.2812	175.6027	250.5492	322.8014	376.6452	448.6796	584.4391	620.5906	643.056	701.5714	712.4812	768.2871	777.8043	819.6977	891.0008	912.8657	934.9242	964.7909	972.5387	1027.953	1088.0479	1105.3573	1170.7278	1201.1368	1231.1536	1255.6892	1261.1547	1268.6748	1275.1505	1299.3992	1318.877	1368.0722	1470.4762	1478.1907	1487.0184	1509.7483	1764.6245	2207.2668	3037.3835	3045.8177	3049.6295	3056.709	3061.3201	3095.8198	3101.0575	3106.3738	3121.461	3494.0117
O=C(CC1CCC1)C#C	O=C(CC1CCC1)C#C	
InChI=1S/C8H10O/c1-2-8(9)6-7-4-3-5-7/h1,7H,3-6H2	InChI=1S/C8H10O/c1-2-8(9)6-7-4-3-5-7/h1,7H,3-6H2
