18
gdb 52462	4.16859	0.53699	0.50284	4.6194	71.62	-0.2616	0.0053	0.2669	2084.4431	0.146043	-476.266777	-476.256576	-476.255632	-476.305928	33.576	
O	 0.8731223242	 0.6980508123	 1.6955300772	-0.321304
C	 0.5013832615	 1.4794736627	 0.8461258679	 0.155306
N	 1.1585484678	 1.7348535561	-0.3184020856	-0.273014
C	 2.4311647986	 1.1136970106	-0.6431854667	-0.168681
C	 3.6360779424	 2.0017508807	-0.3022935723	-0.193087
C	 4.9577026954	 1.3103984598	-0.6189737166	-0.08781
O	 6.0551901093	 2.2077726563	-0.4142673189	-0.175594
C	 6.8285845966	 2.0262747127	 0.6736543701	 0.17018
O	 7.7415633137	 2.7455353408	 0.9438324728	-0.271044
H	-0.4341561884	 2.0667532807	 0.9289017628	 0.080299
H	 0.7894189337	 2.4459742513	-0.9292443395	 0.250856
H	 2.4734946363	 0.1837258889	-0.0698306507	 0.150657
H	 2.4374275396	 0.8535646931	-1.7081438522	 0.11261
H	 3.5862910043	 2.9416811982	-0.8639904595	 0.114775
H	 3.6018937414	 2.2584114674	 0.762071103	 0.130076
H	 5.0871169016	 0.4105466713	-0.0029923342	 0.11974
H	 5.0036097334	 1.0057847099	-1.6695530961	 0.125548
H	 6.5270906687	 1.1429027571	 1.2711139282	 0.080485
8.3802	37.1893	75.0792	89.9293	132.7043	176.8292	249.5964	284.2356	356.0702	381.017	467.8737	529.5358	672.5328	725.8643	781.4299	885.014	981.2599	1030.1916	1034.3672	1044.2175	1052.4385	1076.0114	1131.3156	1181.2275	1214.535	1271.4412	1294.6412	1333.6037	1338.7977	1405.728	1414.2492	1429.7054	1434.8259	1474.5604	1492.7284	1511.3326	1532.6528	1805.4288	1869.1852	2940.8136	2942.8446	3020.2068	3035.7231	3044.9949	3071.8052	3092.3741	3112.4227	3636.7348
O=CNCCCOC=O	O=CNCCCOC=O	
InChI=1S/C5H9NO3/c7-4-6-2-1-3-9-5-8/h4-5H,1-3H2,(H,6,7)	InChI=1S/C5H9NO3/c7-4-6-2-1-3-9-5-8/h4-5H,1-3H2,(H,6,7)
