18
gdb 104503	1.95252	1.29281	0.97832	3.5184	72.08	-0.2793	0.0255	0.3049	1276.4413	0.14546	-439.080652	-439.07089	-439.069946	-439.115926	34.762	
C	 0.4573290348	 1.9334302285	 1.4737569421	-0.431042
C	 0.0361423198	 0.4913510146	 1.3646041202	 0.032203
O	 0.2025119259	-0.1663644481	 0.0947144903	-0.308401
C	 0.9335647489	-0.6680899144	 1.2237049598	 0.346334
C	 2.4395676483	-0.5653202138	 1.0819736664	-0.141599
O	 2.8965948139	-1.4517710598	 0.0727372071	-0.414847
C	 0.4446385104	-2.0421772318	 1.6887334018	-0.405585
C	 0.7081331469	-2.2680651709	 3.1078414731	 0.262094
N	 0.9263673319	-2.4189482994	 4.2325901068	-0.31016
H	 1.4046411022	 2.1274476492	 0.9688217758	 0.133094
H	-0.304518727	 2.5757652091	 1.0207042807	 0.137761
H	 0.5533428553	 2.2186512629	 2.5264740058	 0.138473
H	-0.9305757395	 0.2789014225	 1.8269576479	 0.097034
H	 2.7374122826	 0.4681208672	 0.8718295781	 0.101249
H	 2.927330079	-0.8761709553	 2.0114485725	 0.137465
H	 2.478701354	-1.1736149962	-0.7508257285	 0.296134
H	-0.6286361862	-2.1303096201	 1.4975642236	 0.158562
H	 0.955758619	-2.8117180744	 1.1002477364	 0.171229
52.3131	80.7237	120.98	151.3572	211.1203	246.9175	257.306	344.3958	391.9296	413.3664	442.7758	471.6801	529.6411	591.02	746.0086	784.589	878.8513	944.2613	957.6509	982.0306	1010.7095	1046.9419	1074.6328	1120.3252	1158.944	1188.6444	1219.2952	1272.8207	1315.665	1352.9169	1389.9831	1411.9434	1426.4888	1460.5835	1467.5759	1490.9711	1496.828	1514.9029	2362.0972	3036.3286	3046.6438	3057.4805	3083.382	3091.9032	3105.5527	3107.6826	3143.6497	3795.6894
CC1OC1(CO)CC#N	C[C@H]1O[C@]1(CO)CC#N	
InChI=1S/C6H9NO2/c1-5-6(4-8,9-5)2-3-7/h5,8H,2,4H2,1H3	InChI=1S/C6H9NO2/c1-5-6(4-8,9-5)2-3-7/h5,8H,2,4H2,1H3/t5-,6+/m1/s1
