18
gdb 28789	3.08233	1.63205	1.09348	2.9668	79.44	-0.1737	0.0545	0.2282	1092.7187	0.149864	-401.984581	-401.976741	-401.975797	-402.016979	29.667	
C	 0.0208878809	 1.4924194225	 0.0997510728	-0.498206
C	-0.0059674292	 0.0059336115	-0.0094360302	 0.250793
C	-0.0925896505	-0.8288664877	-1.100469105	-0.209367
C	-0.0606981181	-2.2003961835	-0.6662127517	-0.338061
C	 0.0484070265	-2.1309397065	 0.6935085214	 0.409789
O	 0.0478296538	-2.9898042626	 1.7501273935	-0.280012
C	 0.3800274231	-2.1967005541	 2.9057790146	-0.099081
C	 0.0292992897	-0.7303194239	 2.5378786075	-0.205967
N	 0.1043622738	-0.8271126836	 1.0960518191	-0.085603
H	 0.9477068505	 1.8634305123	 0.557443774	 0.120267
H	-0.0518913248	 1.9331433723	-0.8974728738	 0.135031
H	-0.8128923911	 1.8884165179	 0.6947529989	 0.119848
H	-0.1487455457	-0.4953611464	-2.1265442266	 0.08782
H	-0.1082830179	-3.0872634851	-1.2751188617	 0.09776
H	-0.1849504918	-2.5784178011	 3.7575586032	 0.126465
H	 1.4535390429	-2.2953447019	 3.1083885255	 0.119984
H	-0.9760046303	-0.4445054145	 2.8747343608	 0.122162
H	 0.7506905183	-0.0223879556	 2.9550177177	 0.126377
119.1256	147.7293	157.535	205.2238	239.5092	317.5755	508.243	603.8388	610.4331	636.0284	662.9478	732.0868	753.5425	784.6179	789.8776	888.3851	948.4248	988.5156	1025.7681	1030.2493	1062.062	1065.2803	1137.4251	1183.0995	1211.9398	1241.8608	1249.4922	1301.6	1332.6754	1379.6685	1417.694	1422.1569	1472.5205	1477.7939	1497.1002	1513.2055	1528.6356	1575.5407	1639.5436	3004.6456	3012.9813	3030.1368	3043.3529	3084.7516	3117.2288	3122.0928	3235.7085	3272.9486
CC1=CC=C2OCCN12	Cc1ccc2OCCn12	
InChI=1S/C7H9NO/c1-6-2-3-7-8(6)4-5-9-7/h2-3H,4-5H2,1H3	InChI=1S/C7H9NO/c1-6-2-3-7-8(6)4-5-9-7/h2-3H,4-5H2,1H3
