18
gdb 88412	2.58255	1.22802	0.96693	5.9432	74.02	-0.2485	-0.0342	0.2143	1249.1157	0.145809	-439.108581	-439.099267	-439.098323	-439.143156	33.175	
C	-0.6808228852	 1.2532386509	 0.2542886443	-0.419225
C	-0.0703463923	-0.1251260226	 0.1288111557	 0.000744
C	 1.3382115311	-0.2824218271	-0.376706502	-0.311443
C	 1.0211638625	-0.6186977978	 1.0611677074	-0.023752
N	 1.5220285272	 0.2226581999	 2.1252928558	-0.102536
C	 0.6426053604	 0.5172473049	 3.1825068569	 0.166024
O	 0.8952974909	 1.1540355023	 4.1656084921	-0.263325
C	 2.8913217493	 0.5404842634	 2.152950005	 0.162107
O	 3.453655226	 1.1898130889	 2.9890602439	-0.263792
H	 0.0546790597	 1.9921583401	 0.5836493797	 0.134563
H	-1.0717348306	 1.5828176831	-0.7136607118	 0.13041
H	-1.5109431018	 1.2638936003	 0.9682623444	 0.128445
H	-0.7699941673	-0.9008969508	-0.1693767613	 0.100211
H	 1.5873946592	-1.099963503	-1.0430543633	 0.128683
H	 1.8917757898	 0.6318004688	-0.5632767102	 0.132146
H	 0.9949749717	-1.676426622	 1.3109126107	 0.115055
H	-0.3487601248	 0.0650515095	 2.9849612985	 0.090779
H	 3.4011577341	 0.1002990612	 1.2755754944	 0.094906
54.3774	103.7549	151.6901	191.8304	216.6575	233.0861	260.3271	302.5298	353.2727	425.3392	520.3434	532.8278	664.3192	788.4633	844.6685	890.8486	939.5621	957.1075	1018.5942	1029.9323	1047.6123	1071.7622	1084.6646	1121.1632	1153.5077	1197.2768	1198.4762	1279.5652	1293.5233	1385.0755	1410.9393	1422.6339	1431.5626	1464.0626	1487.005	1495.1711	1504.403	1796.5195	1877.1544	2942.4236	2959.0174	3038.7888	3100.4047	3115.1466	3128.5653	3139.0785	3152.0645	3225.7127
CC1CC1N(C=O)C=O	C[C@H]1C[C@H]1N(C=O)C=O	
InChI=1S/C6H9NO2/c1-5-2-6(5)7(3-8)4-9/h3-6H,2H2,1H3	InChI=1S/C6H9NO2/c1-5-2-6(5)7(3-8)4-9/h3-6H,2H2,1H3/t5-,6+/m0/s1
