17
gdb 57746	6.67937	0.45251	0.43157	4.8535	104.22	-0.2551	-0.0793	0.1759	2459.3297	0.132743	-384.659076	-384.648601	-384.647657	-384.69869	35.092	
C	-0.0088331102	 1.5702948518	 0.0205605694	-0.378687
C	-0.0111414239	 0.0273513042	 0.0378886749	-0.17434
C	 0.7875616117	-0.5302295317	 1.235491548	-0.378839
C	-1.3707540292	-0.4988069135	 0.0278470586	 0.408424
C	-2.5018698005	-0.9361083243	 0.0261198422	-0.284694
C	-3.764939244	-1.424426822	 0.0284852886	-0.141521
C	-4.8970155707	-1.8666525348	 0.0317095683	 0.211969
C	-6.2494067835	-2.3509236084	 0.0270471287	-0.035973
O	-6.5686012331	-3.4997279083	 0.2393072292	-0.224317
H	 1.0200411901	 1.9399030266	-0.022907194	 0.121847
H	-0.55339128	 1.9565055419	-0.8445189117	 0.131567
H	-0.4790633952	 1.9664592384	 0.9253453113	 0.131706
H	 0.4755482114	-0.3227398505	-0.8838063768	 0.122983
H	 0.3425748944	-0.2048894153	 2.1803422912	 0.132351
H	 0.8051932364	-1.6226469998	 1.2242800136	 0.133861
H	 1.8179511797	-0.1645714085	 1.196030191	 0.122122
H	-7.0066384635	-1.5708565959	-0.1923043724	 0.101543
2.4354	54.0328	69.827	127.841	173.6493	223.4929	243.9318	259.8801	291.0418	349.3339	440.3314	489.7933	549.6745	575.3963	613.9412	699.6115	843.4106	932.8152	946.2822	964.96	1017.4074	1105.2405	1115.2012	1177.5054	1272.9449	1310.1951	1352.0779	1396.9442	1418.2457	1421.0449	1485.4354	1488.4994	1498.6033	1509.9891	1752.2476	2248.1384	2350.6436	2917.8997	3004.7072	3041.5748	3044.4455	3114.9218	3119.4891	3125.2373	3127.2336
CC(C)C#CC#CC=O	CC(C)C#CC#CC=O	
InChI=1S/C8H8O/c1-8(2)6-4-3-5-7-9/h7-8H,1-2H3	InChI=1S/C8H8O/c1-8(2)6-4-3-5-7-9/h7-8H,1-2H3
