19
gdb 103001	1.97799	1.41072	1.16948	5.8885	77.61	-0.217	0.0313	0.2482	1182.2616	0.15947	-415.354107	-415.343963	-415.343019	-415.388811	36.985	
C	 0.1852791326	 1.2967458186	 0.3806876184	-0.327046
N	-0.2241855191	 0.0705572126	-0.284395791	-0.337133
C	 0.6301092207	-0.4623944004	-1.2855053456	 0.15773
C	 0.5036530182	 0.1584609378	-2.5861251278	 0.279057
N	 0.4314996147	 0.656046312	-3.6289091041	-0.358151
C	 2.0331174056	-1.0784767286	-1.0141966948	-0.105682
N	 2.5389920872	-1.0554140485	 0.3314700085	-0.515145
C	 0.8547253464	-1.9840016214	-1.2622621755	-0.054946
N	 0.2646783717	-2.6884683862	-0.158569845	-0.517306
H	 1.1024301619	 1.2082202995	 0.9840952342	 0.093488
H	 0.3416484369	 2.0833095812	-0.3650991186	 0.13532
H	-0.6213305284	 1.6275213666	 1.0414828498	 0.123769
H	-0.5093521155	-0.6700863404	 0.3466314535	 0.23907
H	 2.7345478752	-0.9687349618	-1.8422622923	 0.094525
H	 3.27635129	-1.7468915062	 0.4350812063	 0.240076
H	 2.9481518863	-0.1545026732	 0.5530652352	 0.247309
H	 0.7978723433	-2.488235588	-2.2203421413	 0.116014
H	 0.0215865247	-3.6363936294	-0.411253164	 0.24365
H	 0.8962347278	-2.6952872644	 0.6356887241	 0.245401
88.4605	125.003	148.0505	180.0563	183.9041	192.3641	246.5799	260.2036	311.028	337.4208	469.9574	480.035	575.6353	605.1173	631.1871	667.2292	735.1809	782.4192	845.5449	859.5971	901.2204	1002.1622	1066.1995	1081.0573	1088.4596	1142.9405	1150.5289	1186.2035	1227.0925	1247.4247	1276.194	1333.5991	1386.1923	1453.3553	1459.2686	1484.4442	1489.6183	1520.7875	1625.4569	1656.2238	2339.6993	2978.2957	3065.7874	3085.5435	3106.522	3174.4614	3497.1873	3513.7056	3534.8151	3576.0552	3623.7286
CNC1(C#N)C(N)C1N	CN[C@@]1(C#N)[C@@H](N)[C@H]1N	
InChI=1S/C5H10N4/c1-9-5(2-6)3(7)4(5)8/h3-4,9H,7-8H2,1H3	InChI=1S/C5H10N4/c1-9-5(2-6)3(7)4(5)8/h3-4,9H,7-8H2,1H3/t3-,4+,5-
