23
gdb 65199	3.25816	1.16696	1.0915	0.2243	88.96	-0.2467	0.082	0.3286	1251.8714	0.206532	-351.112423	-351.103791	-351.102847	-351.145499	34.828	
C	 0.3073556227	 1.5679357604	 0.143732296	-0.476462
C	 0.1014320535	 0.0673554327	 0.0402823619	 0.380912
C	 1.0579235687	-0.6867744828	-0.8590500259	-0.305587
C	 1.175253551	-0.8152979688	 0.6402288298	-0.303646
C	-1.3148930114	-0.4737566439	 0.1152115949	-0.028532
C	-2.237624783	-0.2255972472	 1.3648550036	-0.277099
C	-3.3824109383	 0.1540477699	 0.414751732	-0.036512
C	-3.0056984417	 1.3759505325	-0.365463159	-0.272785
C	-2.4451308584	 0.0430126411	-0.7933387527	-0.078888
H	 1.3744816835	 1.8111393686	 0.1206748205	 0.105889
H	-0.1693403489	 2.0970869494	-0.6873831223	 0.123592
H	-0.0976002202	 1.9724047638	 1.0783606557	 0.113689
H	 0.6790664186	-1.5369727764	-1.4169059971	 0.105607
H	 1.8188948678	-0.1193686019	-1.3845790709	 0.105834
H	 2.0163345506	-0.3362234167	 1.1305457155	 0.105286
H	 0.8740652497	-1.7525286683	 1.0971373873	 0.105527
H	-1.2525980027	-1.5586517308	-0.024978345	 0.066592
H	-2.4095745613	-1.1340005009	 1.9457550828	 0.099173
H	-1.9287090785	 0.5682805024	 2.0528150992	 0.094909
H	-4.4086970636	-0.1791929464	 0.5069819559	 0.081875
H	-3.7764830381	 1.7649568402	-1.0239237804	 0.106435
H	-2.3857348803	 2.1451729543	 0.0846776309	 0.105401
H	-2.6605337097	-0.3507236411	-1.7803499926	 0.078789
61.7758	166.3486	181.0414	261.3553	275.0945	313.2378	335.0853	390.6916	460.8219	511.0289	653.1423	745.0654	774.4431	786.1056	801.9652	851.3083	864.7316	906.0723	925.8763	954.7537	955.8709	972.6774	1020.4082	1026.5293	1034.4709	1051.1278	1060.8296	1068.4901	1074.7132	1090.0677	1100.0417	1123.1333	1141.2492	1188.1863	1203.9263	1240.3903	1265.218	1282.9769	1299.6037	1338.2816	1369.0036	1400.3874	1427.6892	1466.8752	1483.2104	1492.4654	1499.3472	1505.4299	1510.708	3027.5154	3033.0544	3046.9458	3090.147	3099.628	3106.7415	3121.3344	3122.7543	3127.3653	3167.1955	3184.7989	3199.5313	3202.8348	3213.9559
CC1(CC1)C1CC2CC12	CC1(CC1)[C@H]1C[C@H]2C[C@@H]12	
InChI=1S/C9H14/c1-9(2-3-9)8-5-6-4-7(6)8/h6-8H,2-5H2,1H3	InChI=1S/C9H14/c1-9(2-3-9)8-5-6-4-7(6)8/h6-8H,2-5H2,1H3/t6-,7-,8+/m1/s1
