23
gdb 80571	2.32413	1.37984	1.16001	1.2501	85.21	-0.2429	0.0744	0.3173	1226.9095	0.205881	-388.296876	-388.287486	-388.286542	-388.330531	36.812	
C	 0.0341896261	 1.5702936006	-0.012782079	-0.407496
C	 0.0654520199	 0.043346972	-0.0215925832	 0.071463
C	 0.8750452172	-0.5773602659	-1.1881518868	-0.236159
C	 1.3129585139	-1.9521097258	-0.6902796027	-0.14927
C	 2.5387553846	-2.0040615785	 0.1991361265	 0.04745
O	 3.3658530341	-0.8865849153	 0.3532593995	-0.414733
C	 1.1766039261	-1.9790067263	 0.832445369	 0.316403
C	 0.6875184801	-3.193389839	 1.5872789438	-0.484644
C	 0.6677659531	-0.5942814211	 1.255767893	-0.297474
H	 1.047223109	 1.9777787708	 0.0848034305	 0.11661
H	-0.3995025846	 1.968096632	-0.9369503768	 0.107217
H	-0.5606439688	 1.9536325807	 0.8234039247	 0.109501
H	-0.9648818665	-0.3273056615	-0.114220864	 0.066369
H	 0.280173375	-0.6523406491	-2.1030444379	 0.091974
H	 1.7421465567	 0.0544029659	-1.4202265092	 0.082521
H	 1.083285303	-2.8299743217	-1.2863087111	 0.075022
H	 3.0686151034	-2.9570800908	 0.2401568597	 0.074107
H	 3.8731972756	-0.7761206346	-0.4579867048	 0.287772
H	 1.0724266551	-4.1195925586	 1.1474973252	 0.109931
H	 1.0084709508	-3.1668700937	 2.635491879	 0.11836
H	-0.4073487222	-3.2517757199	 1.5766044849	 0.113325
H	 1.4887833916	 0.0209426992	 1.6386885888	 0.11389
H	-0.0766673033	-0.6799399393	 2.0535530909	 0.087859
62.9512	200.138	211.4102	230.9167	246.7402	259.3611	273.6863	288.7432	351.6325	419.1363	502.0832	532.2083	560.75	624.9559	753.1724	806.4904	833.2829	844.1698	892.091	935.4837	936.1297	968.076	1001.1292	1044.671	1055.0091	1078.9926	1101.5414	1128.7871	1138.1136	1166.2366	1189.645	1251.6401	1257.8474	1280.886	1297.0473	1305.5465	1322.7886	1349.5834	1362.2651	1377.6533	1408.4663	1416.6907	1459.974	1485.4005	1491.1329	1494.9468	1497.611	1499.8239	1506.0821	3000.6076	3018.2193	3021.2596	3024.8569	3045.2105	3078.3536	3079.8215	3082.3354	3085.5322	3091.5055	3092.1825	3093.9159	3153.4097	3801.0163
CC1CC2C(O)C2(C)C1	C[C@H]1C[C@H]2[C@@H](O)[C@@]2(C)C1	
InChI=1S/C8H14O/c1-5-3-6-7(9)8(6,2)4-5/h5-7,9H,3-4H2,1-2H3	InChI=1S/C8H14O/c1-5-3-6-7(9)8(6,2)4-5/h5-7,9H,3-4H2,1-2H3/t5-,6-,7+,8-/m0/s1
