18
gdb 23171	1.96585	1.41787	0.89442	3.2216	72.31	-0.247	-0.0064	0.2407	1279.0159	0.145559	-476.155622	-476.146037	-476.145093	-476.190899	34.933	
O	-0.1916696314	 1.48983351	 0.1644144129	-0.427342
C	-0.0413669484	 0.1110866487	-0.1101009329	-0.057761
C	-1.4064860532	-0.590931204	-0.08400193	-0.140074
C	-1.4266515385	-2.1558168348	-0.1079611744	 0.09714
O	-0.1445742399	-2.6989897355	-0.3188645274	-0.422567
C	-1.96871909	-2.1786716116	 1.3635243166	-0.366634
C	-2.0021662981	-0.6669793332	 1.3061303565	 0.420725
N	-2.3084674458	 0.2830262754	 2.0878088514	-0.247116
O	-2.7559009033	-0.1967456284	 3.3309448635	-0.389221
H	-0.6797433078	 1.5621983839	 0.9958404595	 0.289624
H	 0.4044840853	 0.029005691	-1.1055415946	 0.115344
H	 0.6427543681	-0.3774613806	 0.5975120527	 0.095347
H	-2.0552640277	-0.1226740892	-0.8300207795	 0.09869
H	-2.1512551001	-2.5540404935	-0.8293915519	 0.077651
H	-0.2074501712	-3.6579598237	-0.269143295	 0.289376
H	-2.9326733443	-2.6681476115	 1.5279102064	 0.126242
H	-1.2451403955	-2.5708558277	 2.0856533226	 0.132396
H	-2.9814041083	 0.6158228246	 3.7968594137	 0.30818
27.3058	107.3893	159.9749	174.5636	198.3079	263.4227	312.2287	355.4305	408.5536	424.9916	456.4541	476.0216	518.2647	600.71	695.428	798.2846	872.7332	884.3408	951.9955	988.3151	1013.1925	1073.9414	1076.4885	1094.8663	1156.3058	1184.5022	1190.5	1203.2174	1224.0799	1274.548	1303.7075	1325.4416	1380.1719	1403.0867	1417.1344	1436.773	1447.3506	1512.2408	1775.4672	3008.6438	3015.6116	3052.8105	3067.9363	3089.7956	3106.1714	3748.49	3815.6301	3820.1467
OCC1C(O)CC1=NO	OC[C@H]1[C@@H](O)CC1=NO	
InChI=1S/C5H9NO3/c7-2-3-4(6-9)1-5(3)8/h3,5,7-9H,1-2H2	InChI=1S/C5H9NO3/c7-2-3-4(6-9)1-5(3)8/h3,5,7-9H,1-2H2/t3-,5+/m1/s1
