16
gdb 30125	3.91306	1.22776	1.0492	2.4394	72.3	-0.2317	-0.0013	0.2304	1127.2136	0.125683	-437.902122	-437.894796	-437.893851	-437.934367	28.234	
O	 0.1164941301	 1.4161428759	 0.2694762906	-0.423591
C	 0.0240021324	 0.0548166771	 0.0642344594	 0.150981
C	-0.4659923997	-0.8879441337	 1.113719707	-0.329787
C	-1.3374311945	-0.6342696561	-0.1232686835	-0.223896
C	-2.5294724001	 0.1945084754	 0.0148418939	 0.468885
N	-2.6568629556	 1.2953557236	 0.7032347227	-0.361012
C	-3.9618403334	 1.7119804044	 0.4699866861	-0.108522
C	-4.5621392091	 0.8286607038	-0.3561221398	-0.055754
O	-3.6513372979	-0.1523117792	-0.6580254044	-0.180329
H	-0.7381418366	 1.7279841308	 0.620131814	 0.301807
H	 0.8147072749	-0.291813671	-0.5941067032	 0.112475
H	-0.0134946709	-1.869451696	 1.2055593453	 0.120549
H	-0.8236989627	-0.4523007663	 2.0405111674	 0.136163
H	-1.4236050446	-1.4244939502	-0.858947829	 0.109308
H	-4.3617787516	 2.6088638947	 0.9146272168	 0.132646
H	-5.5383376406	 0.7313022268	-0.7971679633	 0.150077
66.1726	148.9582	187.4582	318.5915	367.6869	454.8289	532.6097	549.4557	625.4751	705.2502	741.6365	753.9354	782.53	825.9616	861.075	914.2944	937.0868	971.2048	1018.2456	1055.7124	1064.9453	1098.2783	1115.9561	1143.3873	1153.5883	1178.7856	1210.7216	1234.9226	1336.5214	1374.6963	1442.0775	1464.7853	1496.2081	1563.3517	1601.2488	3131.6919	3160.9564	3188.8144	3228.1289	3268.5264	3307.7201	3584.819
OC1CC1C1=NC=CO1	O[C@H]1C[C@H]1c1ncco1	
InChI=1S/C6H7NO2/c8-5-3-4(5)6-7-1-2-9-6/h1-2,4-5,8H,3H2	InChI=1S/C6H7NO2/c8-5-3-4(5)6-7-1-2-9-6/h1-2,4-5,8H,3H2/t4-,5+/m1/s1
