16
gdb 14574	14.1043	0.63186	0.61259	3.5719	72.45	-0.2551	0.0177	0.2727	1697.8147	0.129195	-342.748777	-342.739721	-342.738777	-342.783319	31.092	
C	-0.0352916783	-1.2098110703	-0.0157038016	-0.436488
C	-0.0329479246	-0.0083780866	 0.0052799556	 0.293616
C	 0.0054432342	 1.4475574691	 0.0312141091	-0.365263
C	 1.4403632269	 1.996424174	-0.0333207571	-0.122053
N	 1.4196847681	 3.4546177904	 0.0147192375	-0.298686
C	 2.7574948293	 4.0343128934	 0.0160622861	-0.262724
C	 2.697290746	 5.4986181806	 0.0143080912	 0.256443
N	 2.6512207012	 6.652266474	-0.0111851752	-0.295
H	-0.0526618572	-2.2713652048	-0.0326588146	 0.199554
H	-0.5738927488	 1.8445356093	-0.8137583193	 0.130617
H	-0.4755628277	 1.8279880452	 0.9395807904	 0.148808
H	 2.0019104241	 1.6333288869	 0.8352933724	 0.123977
H	 1.9468316422	 1.5950358846	-0.9284950376	 0.100551
H	 0.8969903797	 3.8209233136	-0.7754063311	 0.232535
H	 3.2807075756	 3.71151739	 0.9249207031	 0.159871
H	 3.3893225193	 3.7196766606	-0.835087599	 0.134242
45.7507	82.7528	113.4694	130.6806	159.5696	303.0268	351.4923	359.2209	394.2007	500.0503	588.2749	624.9966	650.8413	775.0312	794.1397	935.3438	965.7446	993.5402	1036.0689	1065.6067	1122.3801	1147.1007	1203.5249	1269.5495	1303.4281	1315.3878	1365.185	1417.8398	1475.8063	1490.9499	1497.3066	1519.1037	2242.807	2369.6426	2937.7609	2952.9904	3016.7582	3048.3423	3054.2566	3071.1348	3506.7424	3512.4672
C#CCCNCC#N	C#CCCNCC#N	
InChI=1S/C6H8N2/c1-2-3-5-8-6-4-7/h1,8H,3,5-6H2	InChI=1S/C6H8N2/c1-2-3-5-8-6-4-7/h1,8H,3,5-6H2
