19
gdb 124453	3.12384	1.20882	1.07983	3.7776	76.29	-0.2969	-0.0394	0.2574	1195.9912	0.157702	-419.182526	-419.173505	-419.172561	-419.216483	33.699	
C	 0.0498926574	 1.531236953	 0.0550285076	-0.40802
C	-0.0100140791	-0.0117276003	 0.0100205277	 0.126794
C	 0.6823394413	-0.5920369996	 1.2631071124	-0.408027
C	-1.4767940266	-0.4730132115	-0.032844152	-0.40181
C	 0.7300132243	-0.489887812	-1.2178234276	 0.35064
N	 0.1774022543	-1.1952910577	-2.1689055301	-0.165153
O	 1.1573470307	-1.4309226549	-3.0959490402	-0.157321
N	 2.340851058	-0.8643654102	-2.7191087585	-0.064505
C	 2.0996199629	-0.2867972679	-1.5773896187	-0.113431
H	 1.0815132379	 1.8957250347	 0.0941309719	 0.114273
H	-0.4315753343	 1.9701231703	-0.8238747068	 0.128404
H	-0.4675054705	 1.8993169181	 0.9466985289	 0.121084
H	 0.1711898009	-0.2450218341	 2.1667468575	 0.121085
H	 0.6574140738	-1.6857625117	 1.2562103805	 0.128401
H	 1.7286932683	-0.2770150748	 1.3303968696	 0.114272
H	-1.9914709323	-0.0785122794	-0.9127013691	 0.130111
H	-1.5492796338	-1.5630509005	-0.0680368655	 0.130099
H	-1.9998823072	-0.1200180038	 0.8614067672	 0.108551
H	 2.8798719939	 0.2431627922	-1.053882005	 0.144553
38.5147	151.7981	194.514	216.1074	268.5464	276.3578	324.5473	332.4622	340.0341	447.5785	470.8553	587.3131	649.8514	747.1608	830.5354	894.9174	898.5056	928.2627	934.7773	945.8851	963.8889	1016.8039	1040.3424	1048.2536	1056.6922	1158.0732	1229.5817	1238.1768	1267.71	1398.4029	1399.1522	1405.5464	1432.6011	1463.7829	1476.9346	1483.1454	1483.7985	1500.6812	1503.3424	1519.5851	1607.0682	3031.7277	3034.9717	3044.4873	3100.7861	3105.4748	3110.9661	3111.5329	3117.3037	3125.1429	3268.7324
CC(C)(C)C1=NON=C1	CC(C)(C)c1nonc1	
InChI=1S/C6H10N2O/c1-6(2,3)5-4-7-9-8-5/h4H,1-3H3	InChI=1S/C6H10N2O/c1-6(2,3)5-4-7-9-8-5/h4H,1-3H3
