14
gdb 29162	3.18281	1.47428	1.0088	3.1473	71.31	-0.1937	-0.047	0.1467	1088.225	0.101978	-470.061511	-470.053432	-470.052488	-470.093869	30.606	
N	 0.0551642561	 1.4416050258	 0.0585283206	-0.57663
C	-0.0210356326	 0.051839588	-0.0443716724	 0.278759
C	-1.1825692561	-0.632890272	-0.141599951	-0.059283
O	-1.1789169315	-1.9995474077	-0.3290479681	-0.193895
C	-0.0310183479	-2.6926831961	-0.4053568512	 0.398832
O	-0.0181852343	-3.8906127176	-0.5785311927	-0.3718
C	 1.2031341998	-1.8687630028	-0.2604430158	 0.265674
N	 2.3403727526	-2.5932607798	-0.2998795623	-0.54251
N	 1.2025613357	-0.5807496821	-0.0982069148	-0.373085
H	 0.9102276908	 1.7326549202	 0.5125831029	 0.251864
H	-0.7560271345	 1.8811667941	 0.4695389682	 0.247107
H	-2.1825382702	-0.2289984585	-0.1081506434	 0.122259
H	 2.2612538732	-3.572834314	-0.5170224199	 0.28384
H	 3.230765019	-2.1277224975	-0.3111499301	 0.268869
101.5421	180.7492	225.7158	252.6399	311.0694	352.6695	367.3845	456.5062	491.0347	528.9477	582.3061	599.2705	627.7553	676.9619	690.5845	734.3765	810.4599	827.278	975.8365	1071.6646	1152.5128	1179.919	1210.4776	1344.0452	1400.3763	1433.3681	1569.5473	1629.3511	1669.5616	1684.8307	1802.5733	3248.8289	3556.0559	3608.2217	3659.8194	3748.7196
NC1=COC(=O)C(N)=N1	Nc1coc(=O)c(N)n1	
InChI=1S/C4H5N3O2/c5-2-1-9-4(8)3(6)7-2/h1H,5H2,(H2,6,7)	InChI=1S/C4H5N3O2/c5-2-1-9-4(8)3(6)7-2/h1H,5H2,(H2,6,7)
