17
gdb 76940	2.76812	1.20339	1.12193	2.6917	76.29	-0.2564	-0.0639	0.1926	1156.1757	0.133195	-417.995446	-417.985906	-417.984962	-418.029504	33.936	
C	-0.3690886199	 1.4099104501	-0.1236951595	-0.337765
N	-0.0012532459	 0.0015639035	 0.0213473552	-0.113226
C	 1.3040829474	-0.508676292	-0.3926386363	-0.149362
C	 2.4263719091	 0.3381915587	-0.8906746956	 0.15065
O	 2.6207085618	 1.5020198744	-0.6228760493	-0.267204
C	 0.8785326484	-0.4393379603	 1.0822256572	 0.125053
C	 1.537043411	 0.5017663187	 2.07587536	-0.482523
C	 0.4866708497	-1.7139475543	 1.6674343869	 0.29028
N	 0.2022461932	-2.7244322902	 2.1512224576	-0.335292
H	 0.4537499087	 2.1181680907	-0.0007825914	 0.15324
H	-0.7921324204	 1.5378447392	-1.1237526977	 0.139266
H	-1.1558725202	 1.6238177186	 0.6048807711	 0.138299
H	 1.2598501955	-1.484412059	-0.8724261583	 0.123239
H	 3.1079851276	-0.2073401184	-1.5782665573	 0.101275
H	 1.9770887854	 1.3633834916	 1.5765956587	 0.171518
H	 0.7966086562	 0.844096855	 2.8052116517	 0.145191
H	 2.3228778826	-0.0274059164	 2.621214267	 0.147362
119.621	142.1224	151.8911	175.0623	181.9686	212.5503	230.6621	273.1826	344.7294	386.5014	441.5102	548.5016	575.5893	665.2775	736.7227	755.4808	866.3204	927.2565	972.9756	1029.9799	1085.6311	1103.86	1139.396	1150.3958	1171.5469	1251.227	1346.0832	1388.2164	1410.7789	1428.5644	1450.0461	1479.5571	1494.5423	1494.6158	1516.3845	1794.9342	2355.9715	2902.6074	3044.5111	3054.8019	3118.265	3119.6903	3125.6599	3132.3608	3168.0887
CN1C(C=O)C1(C)C#N	CN1[C@@H](C=O)[C@]1(C)C#N	
InChI=1S/C6H8N2O/c1-6(4-7)5(3-9)8(6)2/h3,5H,1-2H3	InChI=1S/C6H8N2O/c1-6(4-7)5(3-9)8(6)2/h3,5H,1-2H3/t5-,6-,8?/m0/s1
