14
gdb 28176	5.33377	1.2884	1.04229	3.1443	70.29	-0.188	0.0166	0.2046	1061.8958	0.104018	-432.891531	-432.884369	-432.883425	-432.923108	27.278	
N	 0.1352463151	 1.3714176924	 0.1062295713	-0.605955
C	-0.0210438465	-0.0244720638	 0.0161278218	 0.305707
C	-1.1334710324	-0.8391138211	 0.0262245926	-0.378198
C	-0.6297368642	-2.1809120793	 0.0402527145	 0.250117
C	 0.7331818124	-2.095262423	 0.0380540453	 0.376009
N	 1.1510637208	-0.8011163277	-0.0125474616	-0.43244
O	 1.2966247758	-3.3185728579	-0.0500100289	-0.215188
C	 0.1699540187	-4.135759585	-0.0722478794	 0.026601
N	-0.9717215653	-3.5309076898	-0.028809057	-0.339008
H	 0.3242005082	 1.8033428033	-0.7941558312	 0.247157
H	-0.695346442	 1.8029529063	 0.4916371138	 0.251361
H	-2.1570615567	-0.5001547479	 0.0046979151	 0.09909
H	 2.0567598607	-0.4294095314	 0.2178461195	 0.270034
H	 0.3741097854	-5.193461955	-0.1024911956	 0.144713
107.613	152.8367	243.5107	318.96	347.2751	415.9729	518.8877	567.1903	623.4274	633.1624	736.8571	759.8544	770.1234	781.5481	805.5078	841.5568	919.8432	996.3204	1031.0169	1145.2384	1149.7638	1182.2159	1251.7094	1305.3033	1382.1261	1455.4705	1526.4664	1551.785	1572.9351	1605.1306	1654.0313	3256.1051	3286.7897	3488.5027	3600.4113	3673.2741
NC1=CC2=C(N1)OC=N2	Nc1cc2c([nH]1)ocn2	
InChI=1S/C5H5N3O/c6-4-1-3-5(8-4)9-2-7-3/h1-2,8H,6H2	InChI=1S/C5H5N3O/c6-4-1-3-5(8-4)9-2-7-3/h1-2,8H,6H2
