16
gdb 9215	7.73288	0.81439	0.7721	4.51	64.69	-0.2459	-0.0257	0.2201	1430.2377	0.128603	-417.100446	-417.090943	-417.089999	-417.136042	31.424	
C	-0.0511117634	 1.4125756886	-0.4025444655	-0.323835
N	-0.0432665292	 0.0450009669	 0.0854391295	-0.363362
C	-1.2095691259	-0.6815627522	 0.133409122	 0.508014
O	-2.3116975491	-0.2019160961	-0.06844925	-0.39915
N	-1.0227921381	-2.0242038237	 0.4401942953	-0.381735
C	-2.1669880948	-2.8633221145	 0.7235108761	-0.239942
C	-2.1881733505	-4.1063176904	-0.149446866	 0.156876
O	-2.6000392219	-5.1786935594	 0.2060804851	-0.236746
H	 0.7090631414	 2.0000700603	 0.1200265873	 0.123554
H	 0.1330413979	 1.4770437838	-1.4829508734	 0.123417
H	-1.035531779	 1.8333071751	-0.1980351701	 0.170545
H	 0.822180563	-0.4644559006	 0.0046315055	 0.237695
H	-0.1473021702	-2.2895689405	 0.8630022197	 0.24119
H	-2.2357082674	-3.1609945444	 1.7761387282	 0.125689
H	-3.0532155037	-2.2617009075	 0.482294955	 0.17814
H	-1.785702969	-3.9350379554	-1.1745007386	 0.079651
50.0991	67.2526	73.3308	106.0894	150.9583	224.2045	319.0161	337.6352	364.7916	418.3282	485.0275	580.9488	705.9364	763.7763	786.5957	939.4781	1056.1133	1059.9185	1108.9215	1151.8973	1172.3054	1190.8675	1237.9092	1262.5163	1334.4254	1409.5479	1442.1546	1450.4473	1489.0402	1497.7493	1516.2389	1565.192	1787.7018	1840.117	2874.1524	3018.1145	3030.1036	3081.431	3088.5878	3159.5041	3622.2621	3629.2988
CNC(=O)NCC=O	CNC(=O)NCC=O	
InChI=1S/C4H8N2O2/c1-5-4(8)6-2-3-7/h3H,2H2,1H3,(H2,5,6,8)	InChI=1S/C4H8N2O2/c1-5-4(8)6-2-3-7/h3H,2H2,1H3,(H2,5,6,8)
