21
gdb 52737	2.00067	1.03496	0.71528	2.8951	89.49	-0.2404	-0.0246	0.2157	1632.5632	0.178103	-387.086095	-387.074594	-387.073649	-387.124646	39.232	
C	-0.0866042949	 1.4908921284	 0.0677925756	-0.500344
C	-0.0084831151	 0.0373720792	 0.037337813	 0.109209
C	 0.0757668325	-1.1648358209	 0.0246962499	 0.018938
C	 0.0912210337	-2.6248431847	-0.0034209343	-0.22824
C	-1.364521659	-3.0956754876	 0.0593717143	 0.163495
O	-1.8062867439	-3.8516217536	 0.8819628386	-0.251407
C	 0.7864914468	-3.2035356643	-1.2760387028	 0.026208
C	 2.2147074333	-2.6650065067	-1.4156111992	-0.394381
C	 0.7757140584	-4.7377895001	-1.2538996891	-0.402855
H	 0.7455085916	 1.9196885815	 0.636835761	 0.152493
H	-0.0515971045	 1.9138279594	-0.9420906726	 0.149994
H	-1.0172668138	 1.8279556478	 0.5371986927	 0.15299
H	 0.5941939246	-3.0227106665	 0.8868878381	 0.113568
H	-2.00248679	-2.6662303934	-0.7461656383	 0.083436
H	 0.2048379735	-2.859307132	-2.1422111896	 0.084313
H	 2.2278177566	-1.5731195856	-1.4521661927	 0.128736
H	 2.8354734741	-2.9831860829	-0.5698528054	 0.115438
H	 2.6785950673	-3.0465228972	-2.330725087	 0.113155
H	-0.2361304162	-5.1468040542	-1.1813402265	 0.128821
H	 1.2339103996	-5.1347686485	-2.1648823603	 0.114577
H	 1.3471766253	-5.1189628582	-0.3997296855	 0.121855
26.4082	50.701	64.5388	94.0865	119.8436	210.7271	230.4919	243.6797	285.1805	302.2931	337.8749	362.1362	417.7297	477.3377	494.5574	517.594	798.7976	837.3986	924.0414	933.5567	964.4307	996.0046	1049.1287	1052.2534	1058.5563	1134.846	1144.3825	1173.6023	1186.7988	1246.3555	1295.4255	1351.955	1360.9577	1401.8883	1414.4068	1418.7887	1424.9388	1477.2424	1478.1147	1485.7707	1489.6995	1503.343	1508.9296	1835.2086	2361.6059	2876.0197	3011.4989	3028.7801	3030.5699	3034.018	3039.6092	3090.4287	3090.9421	3095.031	3102.1893	3112.132	3123.538
CC#CC(C=O)C(C)C	CC#C[C@@H](C=O)C(C)C	
InChI=1S/C8H12O/c1-4-5-8(6-9)7(2)3/h6-8H,1-3H3	InChI=1S/C8H12O/c1-4-5-8(6-9)7(2)3/h6-8H,1-3H3/t8-/m0/s1
