20
gdb 101906	2.61095	0.74657	0.62139	3.5036	72.82	-0.248	0.0325	0.2805	1772.1404	0.169098	-477.436646	-477.425802	-477.424858	-477.474741	37.5	
O	-0.2847777254	 0.27564301	 1.4174644736	-0.406579
C	-0.2670534751	 0.2052047928	 0.0030070925	-0.092229
C	-1.4815765481	-0.5273223604	-0.5862157558	 0.092065
O	-1.4328410555	-0.4851393108	-2.0108070185	-0.430492
C	-1.6240721377	-1.9514895828	-0.048615144	-0.191851
C	-2.9208873579	-2.6239577964	-0.5155800358	-0.16771
N	-3.0692325875	-3.9896036302	-0.034298061	-0.270709
C	-3.6604733451	-4.2833544558	 1.1531781602	 0.152643
O	-4.1505913864	-3.4680201214	 1.9065997281	-0.326666
H	-1.0121753234	 0.8496573195	 1.6789466205	 0.289675
H	-0.1976817986	 1.1987302073	-0.463162427	 0.100102
H	 0.6482979291	-0.3432459128	-0.2567512494	 0.098173
H	-2.3858232672	 0.0424254985	-0.3278821621	 0.086634
H	-0.6419737414	-0.960824763	-2.2900613702	 0.279391
H	-0.7563726423	-2.5456687829	-0.373389133	 0.075574
H	-1.59646447	-1.9221693241	 1.0446041496	 0.136815
H	-3.7806012449	-2.0616117396	-0.1407500382	 0.140618
H	-2.9706176938	-2.6260486547	-1.6077339115	 0.116538
H	-2.6498914068	-4.7426826438	-0.5552910836	 0.245927
H	-3.6581028719	-5.3729420493	 1.3580543656	 0.07208
17.9152	50.2419	93.2568	123.1083	147.8044	218.9651	228.3949	289.5853	305.5878	313.0452	383.7461	451.0243	469.6252	519.1839	525.7974	727.8957	812.4029	872.1718	965.6096	966.7966	1030.7759	1035.2457	1054.0928	1088.2332	1112.5891	1129.98	1177.7528	1192.2718	1233.0666	1291.1239	1313.0179	1338.4119	1372.3697	1387.5045	1407.0037	1415.5254	1419.9528	1430.511	1471.9655	1489.9063	1503.6193	1530.5719	1804.3656	2931.2988	2995.4014	2999.6205	3013.1704	3051.1082	3064.3434	3094.3903	3118.765	3638.945	3791.2763	3814.9344
OCC(O)CCNC=O	OC[C@@H](O)CCNC=O	
InChI=1S/C5H11NO3/c7-3-5(9)1-2-6-4-8/h4-5,7,9H,1-3H2,(H,6,8)	InChI=1S/C5H11NO3/c7-3-5(9)1-2-6-4-8/h4-5,7,9H,1-3H2,(H,6,8)/t5-/m0/s1
