17
gdb 8394	4.01901	1.64543	1.42946	2.2779	68.52	-0.2231	-0.0256	0.1975	917.4407	0.14199	-363.797481	-363.789874	-363.78893	-363.830458	27.827	
C	-0.0264351526	 1.4874874443	-0.0116027169	-0.49414
C	 0.0226091569	-0.0277971667	 0.0325951775	 0.242573
O	 0.0678032077	-0.6494433501	 1.0709393228	-0.291972
C	 0.012982806	-0.7480423147	-1.2920269267	 0.229052
C	 1.0189812482	-0.6743316559	-2.4741233174	-0.208842
N	 0.0028767865	-1.7110858592	-2.9825487521	-0.146063
C	 0.0556856025	-2.267212782	-1.5419719939	-0.20451
C	-1.0516551749	-0.7407797468	-2.4239511415	-0.208874
H	 0.8277590146	 1.8797102724	-0.5754085602	 0.141983
H	-0.9300987175	 1.8240421546	-0.5326588832	 0.141965
H	-0.0144998641	 1.8894072291	 1.0021450784	 0.145292
H	 1.0490274889	 0.2384862382	-3.0751461518	 0.104165
H	 2.0197044078	-1.0830242304	-2.3118873946	 0.111985
H	 0.9820550173	-2.7983393503	-1.3129993631	 0.110625
H	-0.8225680873	-2.8562509325	-1.269228553	 0.110614
H	-2.0151384005	-1.2124379307	-2.2140792148	 0.11198
H	-1.1691917096	 0.1673025208	-3.0214087996	 0.104168
29.7715	115.0938	161.2092	184.4543	345.4823	453.8267	548.7891	589.5845	608.4426	620.6036	783.3355	792.1636	862.0264	923.8113	942.7066	949.7686	981.7927	1021.4566	1027.0895	1050.1457	1130.5492	1148.4647	1162.6049	1165.1271	1167.1267	1198.4995	1200.5804	1289.1692	1334.454	1384.517	1461.1514	1472.837	1510.2356	1513.0217	1563.7404	1800.4335	3035.0034	3049.9266	3053.9505	3067.9483	3094.7483	3119.5442	3123.5559	3135.6875	3152.0942
CC(=O)C12CN(C1)C2	CC(=O)[C@@]12CN(C1)C2	
InChI=1S/C6H9NO/c1-5(8)6-2-7(3-6)4-6/h2-4H2,1H3	InChI=1S/C6H9NO/c1-5(8)6-2-7(3-6)4-6/h2-4H2,1H3
