17
gdb 46258	2.9747	1.49196	1.26096	4.1726	72.79	-0.2336	-0.0239	0.2097	1031.6342	0.134968	-421.787218	-421.779544	-421.7786	-421.819774	29.308	
O	 0.0062472991	 0.0186109882	-0.1500324278	-0.290572
C	-0.0360725164	 1.2077101882	-0.028917628	 0.348764
C	-1.1642156621	 2.216601533	 0.2588930837	-0.338453
C	-0.0565403474	 3.249864008	 0.6311597115	-0.321334
C	 1.0329845037	 2.3052532162	 0.0436630647	 0.22661
C	 2.4567662989	 2.1404360495	 0.6672418289	-0.348467
C	 3.054398308	 2.6078737036	-0.6687957566	 0.039531
O	 2.5940162313	 1.7040492082	-1.6800252964	-0.227672
C	 1.721404895	 2.7515713027	-1.2718921916	-0.039854
H	-1.7244915287	 2.4770678038	-0.6447206924	 0.133331
H	-1.8751279191	 1.9262075821	 1.036033928	 0.13137
H	-0.1348478608	 4.2320815596	 0.1600714074	 0.108957
H	 0.0464363176	 3.3851917861	 1.710261334	 0.116004
H	 2.6196498929	 2.8424367949	 1.4893245286	 0.112705
H	 2.7358687589	 1.1300192416	 0.97411201	 0.131362
H	 3.9812731463	 3.1344970867	-0.8618805443	 0.11066
H	 1.3327674227	 3.4196992379	-2.0329433397	 0.107058
75.3652	114.292	155.4243	271.3652	327.7819	434.0164	453.8033	514.4331	601.9711	717.0526	737.3779	789.0836	836.9876	843.4783	862.4727	873.4811	926.3672	958.7287	986.3776	1024.8433	1041.2476	1062.9667	1095.8549	1138.7385	1166.72	1172.9175	1214.1881	1224.1923	1232.5698	1243.9703	1267.6735	1285.7548	1382.6663	1442.1118	1462.04	1488.3952	1887.7071	3059.9861	3065.0373	3069.2876	3111.43	3125.9552	3127.0774	3174.6489	3196.2524
O=C1CCC11CC2OC12	O=C1CC[C@]21C[C@H]1O[C@@H]21	
InChI=1S/C7H8O2/c8-5-1-2-7(5)3-4-6(7)9-4/h4,6H,1-3H2	InChI=1S/C7H8O2/c8-5-1-2-7(5)3-4-6(7)9-4/h4,6H,1-3H2/t4-,6-,7-/m1/s1
