15
gdb 46140	4.89793	1.02994	0.88088	1.4165	68.4	-0.2694	0.0059	0.2753	1228.5244	0.11411	-453.964651	-453.956778	-453.955834	-453.997724	28.369	
N	-0.0770405812	 1.2668118557	 0.3986865718	-0.528065
C	-0.0088823701	 0.0811952455	-0.016504019	 0.459646
O	 1.1741430662	-0.5754144919	-0.206317286	-0.26344
C	 1.2579157402	-1.7044216634	-1.0708833367	-0.08228
C	 0.0360750955	-2.6137091387	-0.8835274414	-0.197594
C	-1.2001991337	-1.7226892105	-1.0707439855	-0.079187
O	-1.1527369684	-0.6262461732	-0.1695484287	-0.231142
C	 0.0491117374	-3.7228328904	-1.829877876	 0.267273
N	 0.0596723374	-4.5905017552	-2.5927423317	-0.301669
H	 0.8601982455	 1.6422117251	 0.5275682303	 0.23419
H	 1.3185428378	-1.3740996485	-2.1160198753	 0.135125
H	 2.1874400406	-2.2142720974	-0.8127618666	 0.148536
H	 0.0355999544	-3.0125192101	 0.1373165088	 0.152387
H	-1.2502037068	-1.3648734817	-2.1076908745	 0.135031
H	-2.1233975748	-2.2572024353	-0.8431467394	 0.151188
66.9324	133.4174	143.7455	167.6906	318.9388	406.2882	417.918	497.6849	527.9608	581.965	669.4068	730.9658	815.0596	842.0512	921.2376	938.0885	988.442	1020.0347	1097.1815	1122.991	1131.6391	1178.9435	1237.2084	1274.9682	1291.9841	1316.0213	1338.56	1425.5092	1429.0061	1509.1307	1517.9388	1772.7404	2363.8584	3024.0045	3028.2394	3060.5062	3122.2885	3127.2367	3530.5661
N=C1OCC(CO1)C#N	[NH][C]1OC[C@@H](CO1)C#N	
InChI=1S/C5H6N2O2/c6-1-4-2-8-5(7)9-3-4/h4,7H,2-3H2	InChI=1S/C5H6N2O2/c6-1-4-2-8-5(7)9-3-4/h4,7H,2-3H2/t4-
