12
gdb 25182	3.17008	1.52914	1.03155	2.1913	74.09	-0.251	-0.0855	0.1655	1043.1626	0.07751	-435.508771	-435.501533	-435.500589	-435.540695	26.723	
O	-0.0928361084	-0.0454239125	 0.0048313305	-0.305804
C	 0.0081710709	 1.1427870971	 0.0094807616	 0.394532
O	-1.1862154835	 1.9080037991	 0.0286208609	-0.19268
C	-1.1589681443	 3.2428717646	 0.0347444069	 0.151842
N	-0.114488537	 3.9879109744	 0.0248315061	-0.274088
C	 1.0891822663	 3.3269821348	 0.0059969284	-0.048078
C	 1.2185161091	 1.9663420932	-0.0023037511	-0.117621
C	 2.4765974456	 1.315952814	-0.0218741021	 0.258753
C	 3.5508096597	 0.7734638022	-0.0384554663	-0.374555
H	-2.158798862	 3.6662366994	 0.049764471	 0.15972
H	 1.973466341	 3.9557716222	-0.0024571386	 0.141553
H	 4.4936131327	 0.2844417716	-0.0529286473	 0.206427
103.1209	140.6725	188.2639	317.5496	402.9433	465.3043	481.0694	555.6189	583.2497	588.0205	611.0999	665.8395	729.142	794.7856	869.4723	950.4291	979.3122	992.2266	1109.2789	1226.4109	1265.9237	1376.5299	1411.3319	1574.3532	1644.001	1874.9544	2231.3058	3192.2453	3197.3936	3501.2891
O=C1OC=NC=C1C#C	O=c1ocncc1C#C	
InChI=1S/C6H3NO2/c1-2-5-3-7-4-9-6(5)8/h1,3-4H	InChI=1S/C6H3NO2/c1-2-5-3-7-4-9-6(5)8/h1,3-4H
