19
gdb 74606	3.07935	1.80183	1.44467	0.1941	84.73	-0.2112	0.0187	0.23	965.2869	0.161576	-348.758438	-348.75143	-348.750486	-348.789398	29.333	
C	 0.0447961519	 1.4812974372	 0.0821842477	-0.494977
C	-0.0521178121	-0.0101249361	 0.0169013381	 0.31869
C	-0.0029510307	-0.7924428767	-1.0746170526	-0.165908
C	-0.110995467	-2.2217789173	-0.7297158209	-0.085168
C	 0.8901757524	-2.898532078	 0.3193000426	-0.089579
C	 1.9522405378	-2.0990859641	 0.9563979547	-0.060812
C	 1.4428935565	-1.0180786825	 1.5646332975	-0.090751
C	-0.0535566665	-0.8926431033	 1.2751422027	-0.200011
C	-0.4237266253	-2.3008594863	 0.7346607864	-0.083241
H	 0.9304454823	 1.812734128	 0.6375027265	 0.126615
H	 0.0951888914	 1.9201657375	-0.9182868086	 0.123796
H	-0.8249866878	 1.9098646137	 0.5975226478	 0.121922
H	 0.1389198422	-0.4328132509	-2.0878783186	 0.082849
H	-0.5373002112	-2.9256537755	-1.4357785905	 0.085009
H	 1.0060928449	-3.9681460217	 0.1857541881	 0.084634
H	 3.0061526217	-2.341437381	 0.8840858254	 0.089651
H	 2.0157914107	-0.2288814671	 2.037829752	 0.092633
H	-0.6627346478	-0.5179828068	 2.1021003999	 0.063357
H	-1.2426167934	-2.878761379	 1.1472897117	 0.08129
155.5888	175.7331	273.4654	341.2047	378.4196	524.2868	560.2384	571.5723	682.1801	720.7631	741.5972	782.6919	801.1835	828.1011	854.6269	873.5933	902.1618	928.152	942.9686	963.812	990.7117	1016.563	1037.1978	1043.1994	1063.7182	1089.8543	1128.1308	1130.2519	1179.0655	1246.8133	1268.5613	1275.2555	1297.1871	1352.1594	1373.4703	1377.9764	1413.34	1479.1705	1488.9666	1633.6418	1679.3813	3015.7491	3062.5264	3066.3054	3107.1089	3166.4045	3167.9997	3179.5306	3187.4956	3191.8341	3211.7172
CC1=CC2C3C=CC1C23	CC1=C[C@H]2[C@H]3C=C[C@@H]1[C@@H]23	
InChI=1S/C9H10/c1-5-4-8-7-3-2-6(5)9(7)8/h2-4,6-9H,1H3	InChI=1S/C9H10/c1-5-4-8-7-3-2-6(5)9(7)8/h2-4,6-9H,1H3/t6-,7+,8-,9+/m0/s1
