17
gdb 87608	2.74398	1.55069	1.17134	2.0661	75.47	-0.2377	-0.0157	0.222	1072.9064	0.137077	-418.055134	-418.047102	-418.046157	-418.087642	30.434	
C	-0.0595898174	 1.5246412246	 0.0021209445	-0.407453
C	 0.040894559	 0.0178614965	 0.0141245101	-0.035667
C	 1.3386694095	-0.678870817	-0.2061105174	-0.321377
C	 0.7210349649	-0.6916954317	 1.1861859763	 0.202488
N	 1.3179357949	 0.0421631992	 2.2664083103	-0.303849
C	 1.1149839545	-0.6751664304	 3.3090101154	 0.042727
N	 0.4281895022	-1.862158765	 3.0872104893	-0.357101
C	 0.1301951186	-1.957623632	 1.7258949426	 0.388881
O	-0.4605588163	-2.8535324316	 1.1676537041	-0.384015
H	 0.8335574481	 1.9799089553	 0.4355044981	 0.141047
H	-0.1737386705	 1.8891921763	-1.0243768028	 0.119963
H	-0.9243221231	 1.8672311034	 0.5792469633	 0.122572
H	-0.8361264963	-0.5218942735	-0.3347008303	 0.114556
H	 1.3429115025	-1.6299293306	-0.7273797007	 0.138068
H	 2.2341581968	-0.075319067	-0.3038995091	 0.131399
H	 1.4393136932	-0.4107099908	 4.3090587264	 0.139318
H	 0.1730502597	-2.5526335957	 3.7740219398	 0.268442
114.9743	141.872	184.3536	200.479	266.3862	326.8041	407.5431	494.9561	526.0164	571.6744	642.3617	719.3759	731.4886	829.2493	867.7345	894.5982	914.9266	929.1076	941.6773	1023.1961	1054.4877	1073.0109	1084.8567	1125.652	1154.4283	1197.7087	1270.7359	1304.1659	1350.0468	1394.9288	1401.9944	1426.1062	1472.0308	1492.4157	1501.1441	1651.818	1837.7656	3038.7247	3099.077	3126.5317	3136.1048	3149.0748	3205.2567	3233.7302	3659.41
CC1CC11N=CNC1=O	C[C@H]1C[C@]21N=CNC2=O	
InChI=1S/C6H8N2O/c1-4-2-6(4)5(9)7-3-8-6/h3-4H,2H2,1H3,(H,7,8,9)	InChI=1S/C6H8N2O/c1-4-2-6(4)5(9)7-3-8-6/h3-4H,2H2,1H3,(H,7,8,9)/t4-,6+/m0/s1
