14
gdb 20487	5.07225	1.98819	1.45443	1.411	62.88	-0.2298	0.0171	0.2469	800.2056	0.111128	-378.724443	-378.71831	-378.717365	-378.755019	22.74	
C	-0.0555619583	 1.5002743765	 0.1006375251	-0.174184
O	 1.2487551992	 1.9377545033	-0.2986312939	-0.2813
C	 2.1312593434	 0.8372437671	-0.6162875291	-0.186667
C	 1.2944121908	-0.3808944102	-0.3928608429	 0.180275
C	 0.0501159392	 0.0140788926	 0.0156761103	 0.316738
N	-0.68448957	-1.1000493963	 0.2101433707	-0.322568
N	 0.028425547	-2.2243893782	-0.0550739422	-0.222803
C	 1.2351619437	-1.7887505898	-0.4228363529	-0.159895
H	-0.2740444768	 1.866526201	 1.1149349992	 0.115972
H	-0.8114263118	 1.925090629	-0.5767457743	 0.115996
H	 2.4769418984	 0.9515278589	-1.6530155006	 0.114489
H	 3.0128492476	 0.8932932107	 0.0371989405	 0.114462
H	-1.6394924175	-1.1942613051	 0.5100083337	 0.274684
H	 1.9948448452	-2.5086113795	-0.6888394136	 0.114802
84.5543	205.782	247.0935	423.1793	490.7448	600.9828	659.1303	681.0095	724.3914	855.3491	880.1088	888.9213	986.3695	1019.8495	1058.4301	1067.9055	1101.2449	1142.2818	1163.3889	1216.9187	1238.4112	1298.1565	1341.8748	1373.2636	1420.5474	1460.2085	1520.6323	1530.6129	1554.9179	1607.7026	2983.0034	2999.615	3003.2667	3022.0725	3248.7782	3679.0641
C1OCC2=C1NN=C2	C1OCc2c1[nH]nc2	
InChI=1S/C5H6N2O/c1-4-2-8-3-5(4)7-6-1/h1H,2-3H2,(H,6,7)	InChI=1S/C5H6N2O/c1-4-2-8-3-5(4)7-6-1/h1H,2-3H2,(H,6,7)
