17
gdb 6456	4.76775	1.28762	1.20642	2.5352	66.71	-0.2221	-0.0441	0.1781	1038.8192	0.140084	-400.976933	-400.968672	-400.967728	-401.009696	30.193	
C	-0.0470240935	 1.5576869416	 0.1407232657	-0.323692
N	-0.009746317	 0.1153792825	 0.1042455859	-0.058679
C	-1.2293104639	-0.6349306599	 0.4388682422	-0.218991
C	-0.3625819837	-1.6799670443	 1.2164880673	 0.327339
O	-0.1019586003	-2.8549435117	 0.5170260539	-0.482728
C	 0.7671390473	-0.6007936969	 1.1268953786	-0.219097
C	-0.8370793781	-1.9947800051	 2.6118271352	 0.105029
O	-0.951333065	-3.1303398298	 3.0069329642	-0.271421
H	 0.9510817406	 1.9602352008	-0.0608617073	 0.12624
H	-0.7207520137	 1.9315834188	-0.6372197092	 0.126244
H	-0.3894545748	 1.9629103056	 1.1138173699	 0.085902
H	-1.9285252299	-0.0842085975	 1.0915135013	 0.082851
H	-1.7746475736	-1.0490172073	-0.4145818546	 0.124238
H	-0.2991656611	-3.5768488422	 1.1355111405	 0.292401
H	 1.7346507151	-0.9892277844	 0.7947998642	 0.124223
H	 0.8989189622	-0.0358436854	 2.0658250275	 0.082852
H	-1.0754644706	-1.1249543146	 3.2570644948	 0.097287
72.1091	98.6801	222.0402	277.8545	295.8523	311.7353	320.9752	398.5608	421.8959	450.8675	517.0722	721.1597	838.5951	862.916	916.3602	932.084	979.2886	1011.8741	1073.5315	1085.2629	1120.6859	1140.2768	1186.9798	1235.366	1247.3394	1296.4713	1302.4869	1335.8587	1391.4022	1444.6559	1452.0951	1482.6988	1484.0395	1496.5829	1512.0853	1807.7751	2908.9369	2929.0866	2947.6417	2960.6817	3058.6183	3076.6552	3078.0869	3101.7685	3682.6866
CN1CC(O)(C1)C=O	CN1CC(O)(C1)C=O	
InChI=1S/C5H9NO2/c1-6-2-5(8,3-6)4-7/h4,8H,2-3H2,1H3	InChI=1S/C5H9NO2/c1-6-2-5(8,3-6)4-7/h4,8H,2-3H2,1H3
