21
gdb 77603	1.84037	1.66028	1.63507	1.335	83.31	-0.223	0.0203	0.2433	1072.0109	0.181317	-387.092595	-387.083349	-387.082405	-387.125598	36.073	
C	-0.0825610679	 1.5351204577	 0.0495763026	-0.423971
C	 0.097270483	 0.0363660581	-0.0319499712	-0.118952
C	 0.7511501997	-0.7035972771	-1.1923288669	 0.270603
C	 0.0750049754	-1.9345256587	-1.746639718	-0.479906
C	 1.6744435935	 0.1060136431	-2.1118597029	-0.340543
C	 2.819623076	 0.5314558778	-1.2172841366	-0.073206
C	 2.6744657494	 0.0740302872	 0.0279510909	-0.138122
C	 1.4091981166	-0.7032455362	 0.1837625222	 0.317149
O	 1.4250749736	-1.8633693005	 0.9656333197	-0.473526
H	 0.8135328886	 2.0713433787	-0.2717636741	 0.124813
H	-0.9169814846	 1.8625330472	-0.5811768708	 0.114812
H	-0.304445575	 1.8479866496	 1.0762295568	 0.110573
H	-0.745034232	-0.5265079508	 0.3697583479	 0.078872
H	-0.7206192401	-1.6719798913	-2.453876474	 0.110274
H	 0.7919564577	-2.5739297183	-2.2742148149	 0.115657
H	-0.3655304933	-2.5295556593	-0.9421800163	 0.124681
H	 2.0264392317	-0.5015390332	-2.9565191455	 0.105876
H	 1.1631684823	 0.9721248604	-2.5536006399	 0.10871
H	 3.629330069	 1.1619921936	-1.5673594726	 0.093694
H	 3.3577778977	 0.2386038082	 0.8536703999	 0.090318
H	 1.1144035187	-1.6359151062	 1.8476792737	 0.282195
171.2596	178.205	196.3451	204.0976	218.5784	222.5618	266.67	320.0436	369.8399	433.2767	519.7823	544.6214	577.7179	675.3209	723.4585	734.0381	781.9504	848.5143	914.9551	949.8036	960.6603	969.8696	987.1789	1035.4627	1084.4328	1102.3059	1114.5471	1127.8586	1160.2928	1194.3326	1205.0713	1244.4331	1306.8302	1317.3172	1332.5706	1381.805	1410.5764	1416.4944	1449.3206	1475.3467	1490.0098	1497.7689	1500.7183	1503.192	1666.3315	3011.7557	3024.4241	3028.3484	3037.3645	3080.6787	3081.9453	3104.5395	3113.1742	3122.2556	3181.9635	3206.9109	3810.0539
CC1C2(C)CC=CC12O	C[C@H]1[C@@]2(C)CC=C[C@@]12O	
InChI=1S/C8H12O/c1-6-7(2)4-3-5-8(6,7)9/h3,5-6,9H,4H2,1-2H3	InChI=1S/C8H12O/c1-6-7(2)4-3-5-8(6,7)9/h3,5-6,9H,4H2,1-2H3/t6-,7+,8+/m0/s1
