17
gdb 41557	3.34164	1.91494	1.71497	2.7603	69.28	-0.2287	0.0706	0.2992	841.2693	0.138704	-421.760382	-421.754413	-421.753469	-421.790518	25.245	
C	 0.0613322398	 1.57851054	 0.0981860712	-0.078908
O	 1.4425741081	 1.5660959508	-0.3233222612	-0.299134
C	 1.4184699807	 0.1336732337	-0.5240484186	 0.136325
C	 2.2946897678	-0.7383055619	 0.3590714646	-0.127704
C	 2.1706704662	-0.6176211091	 1.8669026029	 0.112018
O	 1.0240153912	 0.1350081167	 2.2522351556	-0.295886
C	 0.2014977973	-0.7074514807	 1.3805601663	 0.063684
C	 1.3974291155	-1.6793354832	 1.1588399605	-0.165365
C	-0.0128436994	 0.03488673	 0.0597398164	-0.096483
H	-0.0647602886	 2.0442854658	 1.078970172	 0.11857
H	-0.5782671258	 2.0755942606	-0.6413965065	 0.092592
H	 1.5552439891	-0.1146951964	-1.5837044965	 0.07447
H	 3.2407417218	-1.1186579161	-0.0103865532	 0.091502
H	 3.0112322848	-0.64670961	 2.5496266233	 0.110488
H	-0.6889930524	-1.0641281466	 1.9003971533	 0.08347
H	 1.4203996737	-2.7592834277	 1.1846905406	 0.10126
H	-0.7909936998	-0.4181454561	-0.5577689807	 0.079101
169.0109	252.6484	345.9076	488.5894	546.6258	635.3262	715.647	754.8238	785.7788	805.5157	832.9963	863.216	879.5728	908.4266	925.1831	958.3812	978.2253	1012.8419	1027.2928	1034.3374	1050.5061	1063.3359	1074.5835	1082.5307	1117.5264	1169.0911	1202.3981	1218.6111	1244.8597	1252.8703	1285.5905	1320.5474	1337.8004	1342.1022	1366.8257	1401.9479	1508.1363	3021.3306	3027.9272	3088.5641	3096.7945	3106.6379	3176.5606	3189.6805	3216.9779
C1OC2C3C4OC(C34)C12	C1O[C@H]2[C@H]3[C@H]4O[C@H]([C@@H]34)[C@@H]12	
InChI=1S/C7H8O2/c1-2-5(8-1)3-4-6(2)9-7(3)4/h2-7H,1H2	InChI=1S/C7H8O2/c1-2-5(8-1)3-4-6(2)9-7(3)4/h2-7H,1H2/t2-,3-,4+,5+,6-,7+/m0/s1
