18
gdb 102157	2.62151	1.1194	0.84142	4.2964	74.52	-0.2526	0.0131	0.2657	1344.1047	0.145957	-439.086224	-439.076355	-439.075411	-439.121546	36.176	
N	 0.1518217126	 1.2683998307	-0.0040335557	-0.51718
C	 0.1352526759	-0.0823681073	-0.1011153552	 0.415922
O	 1.1573611788	-0.7260434882	-0.3067057829	-0.387819
C	-1.2391532224	-0.7605838572	 0.0360872428	-0.14177
C	-1.0691963956	-2.2925165261	 0.0274371506	-0.061235
O	-0.4616264105	-2.7672371591	-1.146644402	-0.428981
C	-2.01279504	-0.324225112	 1.3111495954	-0.372859
C	-2.588229271	 1.0148232072	 1.25527915	 0.283139
C	-3.0592541118	 2.1199606701	 1.1833858605	-0.426432
H	 1.0417864327	 1.7339362776	-0.0802042772	 0.260958
H	-0.6736237682	 1.8016064678	 0.2208226977	 0.269655
H	-1.8306879802	-0.480665686	-0.8441112357	 0.121273
H	-0.5114691345	-2.5937534519	 0.9296322841	 0.090644
H	-2.0607577904	-2.7559058517	 0.0852877397	 0.100508
H	 0.4180010391	-2.3603332468	-1.1443669291	 0.296215
H	-2.8271035607	-1.0419180992	 1.4729663756	 0.145525
H	-1.3573751287	-0.4077673653	 2.1870249721	 0.145998
H	-3.500880535	 3.0851683574	 1.1393662595	 0.206437
35.9809	84.5434	134.2227	172.6413	239.8243	268.0391	303.3209	346.951	358.0232	400.1505	439.2712	519.7037	604.8747	626.9097	627.6375	640.5285	651.7068	733.4164	771.9371	896.5573	951.6888	1034.0751	1050.4415	1081.5959	1106.9106	1126.2292	1207.7177	1220.8042	1268.7222	1321.7186	1346.371	1400.0809	1404.3841	1461.4584	1469.3924	1500.2143	1626.282	1757.4034	2228.9851	2969.3775	3024.1953	3043.4664	3056.3702	3065.1499	3500.9058	3567.0658	3707.7856	3712.5828
NC(=O)C(CO)CC#C	NC(=O)[C@@H](CO)CC#C	
InChI=1S/C6H9NO2/c1-2-3-5(4-8)6(7)9/h1,5,8H,3-4H2,(H2,7,9)	InChI=1S/C6H9NO2/c1-2-3-5(4-8)6(7)9/h1,5,8H,3-4H2,(H2,7,9)/t5-/m1/s1
