21
gdb 99948	2.83528	1.09344	0.96182	2.6578	85.41	-0.2575	-0.055	0.2025	1336.8677	0.178264	-387.079886	-387.068977	-387.068033	-387.115782	39.832	
C	-0.0855623482	 1.568736589	 0.1309857691	-0.41578
C	 0.0073456257	 0.0453458867	-0.0078591966	-0.176206
C	 0.7272768093	-0.4718457692	-1.273307207	 0.136753
C	 0.0014028379	-0.0277373388	-2.5631958181	-0.427984
C	 2.1995553885	-0.0051583012	-1.3218749872	-0.428011
C	 0.7185444555	-2.0100442107	-1.2305958172	 0.226141
O	 0.2183582714	-2.6547831871	-0.3348866397	-0.307688
C	 1.357226516	-2.6990299875	-2.3491319916	 0.270995
C	 1.8764273037	-3.2948114537	-3.2576997288	-0.402425
H	 0.9004355841	 2.04164757	 0.1761687212	 0.116596
H	-0.6389544022	 2.0272205995	-0.6945058297	 0.116578
H	-0.6110471166	 1.8262130161	 1.0557369147	 0.118262
H	 0.5159020879	-0.3692681947	 0.8691448997	 0.106666
H	-1.0001735673	-0.3837631028	 0.0126111084	 0.106666
H	 0.0541244281	 1.0589248078	-2.6727356586	 0.123235
H	 0.4603935755	-0.4743870766	-3.4492263254	 0.128213
H	-1.0545734528	-0.3165616571	-2.5435564848	 0.122634
H	 2.7322667664	-0.2770098387	-0.4046951364	 0.122608
H	 2.7284363033	-0.4516473273	-2.16812542	 0.128195
H	 2.2492156375	 1.0814011415	-1.4338672037	 0.123239
H	 2.3327566662	-3.8306930652	-4.0541647084	 0.211316
41.486	82.1548	135.6874	176.6297	213.7485	223.7303	257.2744	271.5217	305.3394	325.2324	342.6925	378.9877	397.0158	484.3791	610.4325	641.3872	693.7467	698.9757	762.6528	783.499	803.742	935.7741	948.6642	1005.3807	1021.8236	1049.8747	1051.7268	1100.3049	1206.2635	1235.9957	1262.5267	1321.0495	1374.5761	1396.4205	1411.8528	1423.0347	1476.6483	1484.9346	1487.6114	1506.7499	1511.0857	1511.7314	1514.2494	1760.3662	2205.3098	3038.2651	3038.3696	3042.5188	3045.9983	3075.6406	3104.4227	3108.529	3111.7648	3112.5803	3119.2225	3121.8292	3495.6317
CCC(C)(C)C(=O)C#C	CCC(C)(C)C(=O)C#C	
InChI=1S/C8H12O/c1-5-7(9)8(3,4)6-2/h1H,6H2,2-4H3	InChI=1S/C8H12O/c1-5-7(9)8(3,4)6-2/h1H,6H2,2-4H3
