16
gdb 96973	3.76465	1.37767	1.31052	2.0899	71.1	-0.2486	-0.0238	0.2248	1017.5326	0.125309	-437.875545	-437.868303	-437.867359	-437.907623	27.7	
C	-0.0013793837	 1.4091876604	 0.0217311805	-0.336042
N	 0.1223387958	-0.0409866348	-0.0028241409	-0.348288
C	 0.6382858531	-0.6322963601	 0.9761540304	 0.493934
O	 1.1368855769	-0.0846714326	 2.1372797097	-0.280458
C	 1.5808181033	-1.2653808083	 2.8956380448	 0.13544
O	 2.0812027896	-2.1052577406	 1.8906182344	-0.223832
C	 0.8425927834	-2.1424105834	 1.1457648421	-0.126751
C	-0.1629117893	-2.5404923605	 2.2315225923	-0.087198
C	 0.3113142951	-1.9894731941	 3.3486738271	-0.086305
H	 0.5651923903	 1.8282491411	-0.8173218578	 0.128928
H	-1.0513632241	 1.6774445812	-0.1397187905	 0.126363
H	 0.3454902731	 1.8759766551	 0.9503997123	 0.125369
H	 2.3373061734	-0.9589015457	 3.612777983	 0.108848
H	 0.9175407525	-2.7260345338	 0.2343286964	 0.114951
H	-1.0974767614	-3.0522168619	 2.0556571207	 0.131064
H	-0.123519908	-1.9387397621	 4.3358960955	 0.123974
77.5335	111.88	220.1964	278.3126	392.2629	474.7819	487.9572	645.2872	682.8887	708.0896	743.8739	784.1092	837.0848	862.1062	873.5676	894.4671	931.03	937.9226	998.6336	1033.4023	1077.7095	1091.0055	1131.5998	1153.2814	1191.5012	1223.5062	1253.2943	1303.0987	1323.6631	1336.6467	1438.3272	1493.8797	1495.7573	1632.5473	1826.6199	3019.1048	3082.4274	3091.4865	3173.2896	3191.5312	3236.9997	3261.6989
CN=C1OC2OC1C=C2	CN=C1O[C@@H]2O[C@H]1C=C2	
InChI=1S/C6H7NO2/c1-7-6-4-2-3-5(8-4)9-6/h2-5H,1H3	InChI=1S/C6H7NO2/c1-7-6-4-2-3-5(8-4)9-6/h2-5H,1H3/t4-,5-/m0/s1
