18
gdb 6212	3.78797	1.46266	1.38556	2.6287	69.18	-0.2497	0.0028	0.2525	977.0166	0.152655	-384.948111	-384.939774	-384.938829	-384.980613	31.993	
C	 0.0298832256	 1.5522262995	-0.0201412543	-0.435352
C	 0.037472599	 0.023079324	 0.0119699682	 0.34953
O	-1.3163658544	-0.4656863311	-0.0192428154	-0.469843
C	 0.7599466955	-0.6342300328	-1.1845198049	-0.265012
C	 1.4900480606	-1.8813440428	-0.6251977111	 0.102474
O	 2.7590104447	-2.1323107197	-1.2153686693	-0.434345
C	 1.5415213046	-1.60119063	 0.8605711804	-0.128242
C	 0.7825502733	-0.5631578746	 1.2013036509	-0.113312
H	 1.0474847913	 1.9558257286	-0.0172137413	 0.114027
H	-0.4884530444	 1.9103334468	-0.9146366043	 0.12607
H	-0.4914040917	 1.9550300666	 0.8568743197	 0.102353
H	-1.7506903434	-0.1834870646	 0.7931439496	 0.272419
H	 0.0537553275	-0.8645832541	-1.9842794626	 0.117052
H	 1.5148600038	 0.0493198293	-1.587206201	 0.090976
H	 0.919641488	-2.7968299355	-0.8216440927	 0.105237
H	 3.3264117269	-1.3809239349	-1.0090166764	 0.272809
H	 2.1259280602	-2.2192742339	 1.5340160831	 0.102219
H	 0.6385716729	-0.1844658508	 2.2094681415	 0.090941
57.1738	191.3523	240.7644	260.2688	294.5558	323.8344	347.9612	379.7041	425.1816	462.0785	557.0821	612.8324	700.8607	801.0476	827.1775	867.962	902.4048	943.5083	956.3561	985.5188	1032.4952	1066.6715	1099.4643	1121.2646	1152.0233	1182.7699	1221.314	1269.1659	1289.9307	1319.864	1358.323	1382.0098	1405.0013	1426.7247	1473.1406	1489.7629	1491.2993	1683.1469	3024.5163	3042.298	3053.6863	3090.9407	3112.9795	3121.8502	3165.0738	3198.5179	3794.1538	3801.6881
CC1(O)CC(O)C=C1	C[C@@]1(O)C[C@@H](O)C=C1	
InChI=1S/C6H10O2/c1-6(8)3-2-5(7)4-6/h2-3,5,7-8H,4H2,1H3	InChI=1S/C6H10O2/c1-6(8)3-2-5(7)4-6/h2-3,5,7-8H,4H2,1H3/t5-,6-/m0/s1
