20
gdb 107082	3.51933	1.00459	0.91064	1.9051	86.	-0.2354	0.0349	0.2704	1368.2267	0.169508	-365.937848	-365.928712	-365.927768	-365.971835	34.821	
C	 0.1392721857	 1.5089736624	 0.2375841043	-0.379991
C	-0.0303453609	 0.0331124347	-0.1483519266	-0.287915
C	-1.4575548037	-0.4263246168	-0.050413005	 0.375653
C	-2.0535142963	-1.0061140327	 1.1705138008	-0.282349
N	-1.851373857	-1.8965796923	 0.0049587586	-0.175651
C	-3.0149383376	-1.5790919984	-0.9208828966	-0.141463
C	-2.5536492182	-0.0940021445	-1.0643139219	-0.328934
C	-2.9935486	-2.3630149922	-2.1392830569	 0.317345
C	-2.9851533489	-2.9925792901	-3.1631543304	-0.421074
H	 1.1843357961	 1.8194140878	 0.1479524129	 0.117325
H	-0.4572299989	 2.1606649603	-0.4099750278	 0.119443
H	-0.1788107083	 1.6862282123	 1.2701790605	 0.118839
H	 0.3294299618	-0.1275278276	-1.1726094652	 0.104885
H	 0.5866083751	-0.6000915523	 0.4996337506	 0.109327
H	-1.3865365792	-1.24196476	 1.9942985024	 0.119913
H	-3.0690281586	-0.7516677337	 1.4702567236	 0.107292
H	-3.9789332839	-1.7107455495	-0.4150335441	 0.103289
H	-3.2728364108	 0.6834141441	-0.7923448076	 0.104828
H	-2.1632069566	 0.1101150432	-2.0624862903	 0.12374
H	-2.9758329099	-3.5594313546	-4.0609163513	 0.195498
65.8664	92.3546	170.2448	188.5577	212.29	290.1759	354.0686	399.9782	454.5351	493.4326	514.9177	614.9282	648.7365	652.0513	742.2847	788.185	805.9166	837.0404	881.9592	935.1624	950.1912	995.3211	1034.8145	1049.5866	1078.3976	1099.7269	1118.1671	1129.9788	1154.4148	1227.232	1239.9307	1258.6747	1326.2847	1353.081	1362.9062	1398.9275	1413.5604	1482.5221	1484.9737	1498.8432	1508.6133	1510.5273	2239.1547	3026.1928	3031.2316	3034.8881	3060.7847	3064.8504	3093.9456	3102.7374	3109.9367	3126.7978	3190.5081	3504.9549
CCC12CN1C(C2)C#C	CC[C@]12CN1[C@@H](C2)C#C	
InChI=1S/C8H11N/c1-3-7-5-8(4-2)6-9(7)8/h1,7H,4-6H2,2H3	InChI=1S/C8H11N/c1-3-7-5-8(4-2)6-9(7)8/h1,7H,4-6H2,2H3/t7-,8+,9?/m1/s1
