21
gdb 58363	1.88503	1.48475	0.97905	3.696	79.22	-0.2218	-0.0287	0.1931	1283.7589	0.180406	-420.360319	-420.350124	-420.34918	-420.396001	36.354	
C	 0.9481563928	-0.3849527724	-0.5081748917	-0.321048
N	-0.3737432893	-0.1010609436	-1.0431267256	-0.057879
C	-0.4967149398	-0.4922528277	-2.4416999396	-0.33492
C	-1.4834418386	-0.5262796409	-0.1948473173	-0.122543
C	-2.717644562	 0.2896947346	-0.5970665301	 0.148595
O	-3.8442233296	-0.1272508273	-0.6307069226	-0.235461
C	-1.7738200915	-2.0172320343	-0.1127013239	 0.038746
C	-1.0996197727	-2.8487572954	 0.9195947827	-0.256121
N	-2.5380629036	-2.5635353333	 1.0155598012	-0.305028
H	 1.6995826544	 0.132905495	-1.1138427444	 0.121488
H	 1.0238755732	-0.0069458751	 0.516338865	 0.116057
H	 1.2061779623	-1.4580561378	-0.4990724738	 0.106295
H	-0.3172740695	-1.5664988459	-2.6220580171	 0.107396
H	-1.4965487698	-0.2509082505	-2.816553475	 0.130687
H	 0.2289079546	 0.0699475073	-3.0385883027	 0.12401
H	-1.246056181	-0.1731985714	 0.8237863202	 0.091084
H	-2.4651982484	 1.3433676589	-0.8536061206	 0.087947
H	-2.0347224495	-2.4806769087	-1.0607445301	 0.10124
H	-0.852053228	-3.885617055	 0.7102536244	 0.121389
H	-0.4175464038	-2.3546657267	 1.6079660547	 0.107164
H	-2.7162751002	-1.8371142299	 1.7053854267	 0.230904
57.1695	71.2237	106.5364	159.8468	196.7378	243.87	248.6542	254.1609	336.6084	339.8973	381.5744	444.4272	523.4953	661.8933	763.2494	849.7003	874.2538	905.4655	954.8314	958.3159	1052.9888	1061.0398	1072.1338	1085.0331	1122.248	1132.5195	1153.8166	1180.1711	1191.7756	1229.2346	1240.7009	1280.9342	1310.1752	1313.5553	1351.0172	1387.9227	1426.1222	1446.3411	1471.6608	1476.542	1493.4874	1507.3171	1512.872	1522.1835	1838.3701	2883.9902	2953.0481	2957.6564	2964.3273	3055.3752	3057.8388	3097.5338	3101.6001	3102.9651	3141.2648	3187.0616	3494.26
CN(C)C(C=O)C1CN1	CN(C)[C@@H](C=O)[C@H]1CN1	
InChI=1S/C6H12N2O/c1-8(2)6(4-9)5-3-7-5/h4-7H,3H2,1-2H3	InChI=1S/C6H12N2O/c1-8(2)6(4-9)5-3-7-5/h4-7H,3H2,1-2H3/t5-,6+/m1/s1
