23
gdb 60124	2.74996	0.95411	0.84074	1.905	81.96	-0.2286	0.0525	0.2812	1498.9504	0.203411	-425.406414	-425.395707	-425.394763	-425.442563	39.694	
C	 0.0232781222	 1.5274025224	-0.0186684351	-0.389892
C	 0.0123606141	-0.0046065648	 0.0665354979	 0.037986
C	 0.5946620575	-0.4817448671	 1.4039368447	-0.371303
C	-1.4106667379	-0.5421913326	-0.1802282653	-0.186787
C	-1.5011154514	-2.0551086336	-0.2424978056	-0.100804
C	-1.9302869167	-2.8932067576	 0.9423412671	 0.023946
O	-2.3359306118	-2.1782512148	 2.0866904743	-0.423737
C	-2.8445788328	-2.7646746568	-0.2529415731	 0.073117
O	-4.0230744414	-2.0350125168	-0.0882555224	-0.431952
H	 1.0367621107	 1.9242590831	 0.1020201631	 0.106616
H	-0.3627828047	 1.8781149584	-0.9817754156	 0.108018
H	-0.6003410674	 1.967022933	 0.7691513171	 0.111198
H	 0.6568050813	-0.3888795381	-0.7383700878	 0.065454
H	 0.6750329287	-1.57162997	 1.4451224791	 0.112351
H	 1.5949654478	-0.0653491703	 1.5640880507	 0.101924
H	-0.0402267674	-0.1687089679	 2.2402927363	 0.117604
H	-2.0751116626	-0.1591951895	 0.6010919792	 0.100109
H	-1.785824631	-0.1333431918	-1.1271289529	 0.097871
H	-0.7359246751	-2.5231375321	-0.8592416014	 0.084091
H	-1.4069669677	-3.8242871487	 1.1508753809	 0.088181
H	-2.8583204502	-2.7752558556	 2.6339358552	 0.296215
H	-2.9884033582	-3.609890224	-0.9192767714	 0.097167
H	-3.983924246	-1.6642907448	 0.804158285	 0.282628
41.5586	67.9269	116.1212	192.5502	213.1002	220.8834	248.6584	263.5821	287.234	353.0656	391.1991	424.5623	497.9431	528.4995	615.6944	649.9306	770.7018	785.6334	825.3514	885.4375	918.905	929.8952	966.5464	972.5573	1027.222	1049.9741	1094.0061	1113.7975	1141.2977	1153.2884	1174.462	1194.6127	1233.4718	1255.6185	1279.778	1308.4778	1325.2941	1359.0583	1368.3039	1394.2458	1399.9928	1410.8635	1421.562	1470.9231	1476.4647	1487.0523	1493.0465	1503.2805	1509.7728	2988.9176	3022.5739	3026.7713	3032.4822	3077.4031	3088.7953	3096.0749	3098.7352	3108.1501	3112.2401	3123.7548	3154.1579	3743.0816	3800.6705
CC(C)CC1C(O)C1O	CC(C)C[C@H]1[C@@H](O)[C@H]1O	
InChI=1S/C7H14O2/c1-4(2)3-5-6(8)7(5)9/h4-9H,3H2,1-2H3	InChI=1S/C7H14O2/c1-4(2)3-5-6(8)7(5)9/h4-9H,3H2,1-2H3/t5-,6+,7-
