15
gdb 31583	3.35201	1.21756	0.90164	2.2324	65.29	-0.1833	0.0384	0.2218	1229.8768	0.112146	-491.09477	-491.085886	-491.084941	-491.128511	31.722	
C	 0.0698299674	 1.38467463	-0.0775044555	-0.24383
O	 0.0022516414	-0.0424219288	-0.079004723	-0.253071
C	 0.5784964112	-0.6759692109	-1.0934174297	 0.496702
N	 0.6421865153	-1.9604535134	-1.2267088564	-0.409081
C	 1.3210958727	-2.1332034844	-2.4314279857	 0.191619
N	 1.5343757501	-3.4107596807	-2.942702021	-0.604513
C	 1.6259615592	-0.926244482	-2.9610035259	 0.229921
O	 2.3440569965	-0.5128498234	-4.0226751899	-0.420489
O	 1.141072886	 0.0514388918	-2.0738941335	-0.219955
H	 1.1082290742	 1.7294032014	-0.0668502947	 0.140356
H	-0.4380733392	 1.8035968354	-0.9515396369	 0.137441
H	-0.4375323137	 1.6994968222	 0.8341499047	 0.144198
H	 1.5773849254	-4.0962969733	-2.1996161984	 0.255118
H	 2.3569027326	-3.4668177102	-3.5289109636	 0.24927
H	 1.7541298809	-0.2714669238	-4.7491663505	 0.306313
65.3298	152.6816	202.556	208.6837	215.4147	251.1869	280.8176	312.4814	395.6968	411.5864	592.2674	639.4602	652.9737	674.1891	733.9881	774.5012	833.5331	994.6649	1032.4301	1128.6101	1144.7004	1178.1029	1209.1222	1248.7018	1340.4833	1382.0537	1424.4234	1485.9279	1486.3105	1500.7079	1633.3687	1663.7979	1766.409	3039.2139	3109.2035	3157.5464	3541.8858	3639.8527	3721.6338
COC1=NC(N)=C(O)O1	COc1nc(N)c(O)o1	
InChI=1S/C4H6N2O3/c1-8-4-6-2(5)3(7)9-4/h7H,5H2,1H3	InChI=1S/C4H6N2O3/c1-8-4-6-2(5)3(7)9-4/h7H,5H2,1H3
