16
gdb 49715	3.03163	1.45812	1.10493	5.4813	72.4	-0.2407	-0.0278	0.2129	1076.1631	0.125668	-434.04569	-434.03799	-434.037046	-434.078296	28.507	
N	-0.0768176191	 1.1558499562	-0.5170215787	-0.54306
C	-0.0130247821	-0.0411062523	-0.1465708162	 0.440655
C	-1.0333879872	-1.0955114878	 0.2857034042	-0.126189
N	-1.4357239249	-1.952145382	-0.8606003986	-0.307607
C	-0.4367496376	-2.9923964052	-0.4993543646	-0.183939
C	 0.1793977152	-2.0467176852	 0.5601099028	-0.025116
N	 1.0473846778	-0.9780467912	 0.0433438831	-0.096112
C	 2.3887842077	-0.8941864618	-0.2042602572	 0.136314
O	 2.9353248801	 0.0940962125	-0.6419192402	-0.303808
H	 0.8509581793	 1.5113505232	-0.7555045206	 0.252104
H	-1.7931468272	-0.8193191279	 1.015813405	 0.102159
H	-2.3980667002	-2.2623256537	-0.8261501678	 0.232892
H	-0.8642694693	-3.8870361502	-0.0298896845	 0.109066
H	 0.2135115165	-3.3002115329	-1.3246497406	 0.11799
H	 0.4681487433	-2.4436499409	 1.5323314045	 0.106802
H	 2.9245216678	-1.8301811305	 0.0493429894	 0.08785
80.2636	137.2541	170.9688	234.99	262.3787	360.949	430.8986	516.6288	624.7498	659.4356	747.568	795.5406	830.5525	895.4692	913.1258	927.0311	981.8977	995.8831	1028.0884	1032.0637	1075.8996	1119.9419	1143.9504	1180.2572	1210.8021	1251.3255	1266.9654	1308.4842	1342.8769	1385.7224	1390.998	1431.1591	1506.0147	1760.2573	1823.8913	2940.1299	3022.1668	3076.5362	3120.8489	3130.2514	3479.8253	3568.0262
N=C1C2NCC2N1C=O	[NH][C]1[C@H]2NC[C@H]2N1C=O	
InChI=1S/C5H7N3O/c6-5-4-3(1-7-4)8(5)2-9/h2-4,6-7H,1H2	InChI=1S/C5H7N3O/c6-5-4-3(1-7-4)8(5)2-9/h2-4,6-7H,1H2/t3-,4+/m1/s1
