16
gdb 19072	3.6335	2.48399	2.09481	0.5346	62.	-0.2446	0.0623	0.3069	705.952	0.133263	-383.706101	-383.700448	-383.699504	-383.735511	23.606	
C	-0.0840627533	 1.5604705686	 0.06656079	-0.249081
C	 1.4568169588	 1.4696673981	 0.0029502472	 0.089692
C	 2.09458778	 1.266921641	 1.3870308605	-0.249541
C	 1.4103933037	 0.1154897895	 2.1127646105	 0.061182
O	 0.0487759099	 0.3015479392	 2.5233369226	-0.251701
C	 0.3106751638	-0.5529245564	 1.4013882511	 0.036201
C	 0.0454695725	 0.0274257354	 0.0116944872	 0.059689
O	 1.3419944004	 0.1685280647	-0.6485380396	-0.300465
H	-0.5508383226	 2.0068340314	 0.9424996463	 0.123714
H	-0.502315706	 1.9583973925	-0.8587243432	 0.107645
H	 2.0092287287	 2.1875830439	-0.608629055	 0.078351
H	 3.1517703748	 1.0110161737	 1.2543556125	 0.113245
H	 2.049582023	 2.1879181674	 1.9806699218	 0.112486
H	 2.0116224315	-0.4442518934	 2.8269843194	 0.098318
H	 0.0962161858	-1.6063354164	 1.5682328948	 0.094377
H	-0.6565856511	-0.561525239	-0.5820847761	 0.075889
251.544	304.7563	400.8732	439.2709	487.7122	576.8795	676.8369	770.5995	807.6437	849.4068	864.4229	890.8011	918.5846	932.7331	952.5302	962.0088	1036.4727	1059.2834	1066.1038	1099.3454	1114.7851	1139.757	1196.8013	1240.4156	1258.0865	1279.3214	1302.4475	1331.3815	1340.9599	1357.6356	1384.8515	1448.3784	1463.7702	1483.7352	3035.6623	3076.3062	3080.7542	3086.9686	3097.8559	3123.8893	3139.2375	3165.1026
C1C2CC3OC3C1O2	C1[C@H]2C[C@H]3O[C@H]3[C@@H]1O2	
InChI=1S/C6H8O2/c1-3-2-5-6(8-5)4(1)7-3/h3-6H,1-2H2	InChI=1S/C6H8O2/c1-3-2-5-6(8-5)4(1)7-3/h3-6H,1-2H2/t3-,4+,5+,6-/m0/s1
