14
gdb 70780	3.79323	1.38185	1.14819	4.3906	67.67	-0.2724	-0.0194	0.2529	1030.3062	0.098517	-436.581243	-436.573769	-436.572825	-436.613122	28.29	
C	 0.0708285604	 1.4172343463	-0.1810230488	-0.538996
C	 0.0090967924	-0.0612802311	-0.0210741035	 0.39562
O	 0.5132890315	-0.9378939404	-1.0823718027	-0.349899
C	 0.0588777938	-1.8912197474	-0.0931042485	 0.36706
C	 0.1803370673	-3.3028408392	-0.3263735143	 0.148128
N	 0.2649997428	-4.4450996762	-0.4815651053	-0.335972
C	 0.479589172	-1.0109471573	 1.1387694042	-0.038177
O	-0.8211730981	-1.0615292745	 1.773387363	-0.313967
C	-1.168803127	-1.0254531824	 0.3679928578	-0.038239
H	 1.1063650953	 1.7467997832	-0.3045901394	 0.149231
H	-0.502726327	 1.7325775561	-1.0572745289	 0.149232
H	-0.3490808575	 1.897529632	 0.7075901719	 0.151283
H	 1.3819022396	-1.034448342	 1.7479249264	 0.12736
H	-2.2143364852	-1.0660993469	 0.0663368279	 0.127336
135.4597	137.7173	208.3485	242.0852	302.0174	429.0198	493.0008	527.8383	550.0666	599.6543	688.2688	752.2986	766.1882	811.1497	835.1269	893.5275	926.5503	1002.1881	1048.9646	1070.7416	1105.043	1134.8572	1157.8536	1179.5588	1234.6851	1277.7607	1391.7971	1441.3992	1473.9572	1487.1754	2357.5909	3045.953	3122.1782	3125.4679	3142.0338	3146.3299
CC12OC3(C#N)C1OC23	C[C@@]12O[C@@]3(C#N)[C@@H]1O[C@@H]23	
InChI=1S/C6H5NO2/c1-5-3-6(2-7,9-5)4(5)8-3/h3-4H,1H3	InChI=1S/C6H5NO2/c1-5-3-6(2-7,9-5)4(5)8-3/h3-4H,1H3/t3-,4+,5-,6+
