16
gdb 56471	2.79768	1.10425	0.81294	4.545	75.08	-0.2406	-0.0228	0.2177	1353.5286	0.123083	-434.045032	-434.0353	-434.034356	-434.080361	34.328	
N	 0.0994639244	 1.6002708224	-0.3029739286	-0.501501
C	-0.0105471273	 0.1746490944	-0.0021921079	-0.2523
C	 0.4429401807	-0.6494203651	-1.1185759045	 0.310374
C	 0.8367433801	-1.3489645908	-2.0142475834	-0.444235
C	 0.6751884645	-0.1954404405	 1.3602653849	 0.419007
O	 0.8164228261	 0.651113454	 2.2069336116	-0.319082
N	 1.0069868236	-1.5293097623	 1.4865427131	-0.33437
C	 1.5226752856	-2.2045534678	 2.593421838	 0.084112
N	 1.7140330253	-1.6750197751	 3.7269075281	-0.393738
H	 0.0279757236	 2.0867562646	 0.590172271	 0.250427
H	 1.0406354521	 1.7889876083	-0.6392113902	 0.235331
H	-1.0765917363	-0.0467438762	 0.1684615824	 0.144894
H	 1.1733183861	-1.9486475538	-2.8242314146	 0.210287
H	 0.9089550255	-2.0755825188	 0.6426706704	 0.260062
H	 1.7281678743	-3.2510917167	 2.3340748782	 0.098682
H	 2.0932339317	-2.3692224066	 4.3692762415	 0.232049
52.0946	68.8377	126.6773	170.0169	193.9944	228.3391	254.9646	311.4757	355.2343	480.0394	508.1473	555.18	610.8063	624.0768	641.4975	674.896	818.1997	832.0822	904.5825	956.4747	965.7978	1036.7477	1066.7397	1156.0904	1187.7275	1224.7127	1267.9321	1283.8085	1401.6563	1431.0997	1548.6124	1666.0921	1737.0587	1828.9413	2231.2906	2980.7465	3032.7055	3467.9119	3497.6501	3498.9228	3546.7529	3600.735
NC(C#C)C(=O)NC=N	N[C@@H](C#C)C(=O)NC=N	
InChI=1S/C5H7N3O/c1-2-4(7)5(9)8-3-6/h1,3-4H,7H2,(H2,6,8,9)	InChI=1S/C5H7N3O/c1-2-4(7)5(9)8-3-6/h1,3-4H,7H2,(H2,6,8,9)/t4-/m0/s1
