18
gdb 55159	2.97242	1.41493	1.2517	2.8025	70.29	-0.2315	0.0307	0.2622	1054.5702	0.149018	-439.110148	-439.10211	-439.101165	-439.143055	31.13	
N	 0.6320621046	-0.4081478594	 0.3554976227	-0.512797
C	-0.2352346794	 0.1043904399	-0.551969575	 0.359553
O	 0.0768295631	 0.846995286	-1.4637471498	-0.368779
C	-1.7046487994	-0.2901974966	-0.3143254878	-0.003434
C	-2.4138364131	-0.7489850922	-1.6120390236	-0.252936
C	-2.5471418229	-2.2534781649	-1.4408296772	-0.063072
C	-1.2896132965	-3.0403984745	-1.1098095192	-0.331364
C	-2.1918668735	-2.537078017	-0.0137745817	 0.106893
O	-1.8418325361	-1.3425834225	 0.65100434	-0.276344
H	 1.6049402863	-0.1577664071	 0.3042444786	 0.261392
H	 0.2882369782	-1.0160410949	 1.0797781346	 0.272065
H	-2.1813379721	 0.6013400353	 0.1087436837	 0.119588
H	-3.4081392007	-0.2995162314	-1.6849369809	 0.107999
H	-1.8373682208	-0.4365874017	-2.4854414946	 0.139182
H	-3.3684909087	-2.7595360383	-1.9337316797	 0.094256
H	-1.3075918918	-4.1057995636	-1.3144346236	 0.115474
H	-0.3194284239	-2.5749639704	-1.2452354624	 0.129334
H	-2.7328762835	-3.2151524566	 0.6352977658	 0.102989
57.4337	104.7377	217.2015	291.9663	313.5412	333.5384	434.5509	480.8235	505.2465	624.3808	682.1886	698.3052	759.1174	761.4197	812.2576	829.2403	904.795	941.9255	983.9366	1001.1936	1017.4281	1049.1619	1071.0361	1091.7339	1096.8706	1109.0334	1155.351	1196.0583	1208.4373	1268.3809	1311.7726	1324.9919	1348.6313	1369.8997	1393.3885	1480.9934	1507.2759	1586.5447	1798.8712	3045.5434	3066.4335	3116.144	3132.3367	3178.3911	3187.9048	3220.611	3598.8393	3741.3982
NC(=O)C1CC2CC2O1	NC(=O)[C@H]1C[C@H]2C[C@H]2O1	
InChI=1S/C6H9NO2/c7-6(8)5-2-3-1-4(3)9-5/h3-5H,1-2H2,(H2,7,8)	InChI=1S/C6H9NO2/c7-6(8)5-2-3-1-4(3)9-5/h3-5H,1-2H2,(H2,7,8)/t3-,4-,5-/m1/s1
