18
gdb 65941	2.24069	1.49576	1.39367	0.7808	78.01	-0.2368	0.0344	0.2712	1066.2532	0.145396	-401.865574	-401.856628	-401.855684	-401.898934	33.995	
C	-0.312858638	 1.5810042875	 0.1384023105	-0.436809
C	 0.00588397	 0.0881165309	 0.0816475197	 0.016139
N	 1.249663569	-0.2269990924	-0.7049611712	-0.352088
C	 1.76407834	-1.1380502726	 0.354635706	-0.254874
C	 0.7310672437	-0.5419779785	 1.304516017	 0.418891
C	 0.8668922797	-0.0283908582	 2.6648251902	-0.261797
O	 0.1097016222	-1.2159905	 2.3640971369	-0.261594
C	-1.154655101	-0.6974640935	-0.3294183538	 0.339152
C	-2.0959446474	-1.3468225032	-0.7021062891	-0.47953
H	 0.5784169356	 2.136220316	 0.4404952156	 0.121407
H	-0.6275830482	 1.9374693002	-0.8466587889	 0.128451
H	-1.1244683339	 1.778718031	 0.8454693462	 0.125903
H	 1.0531429432	-0.6875973508	-1.5871032389	 0.226207
H	 1.5782108827	-2.2053263011	 0.1794260092	 0.117053
H	 2.8214256671	-0.9900199973	 0.5953748416	 0.111687
H	 1.7935064803	-0.1922774138	 3.2132627512	 0.120622
H	 0.2764794183	 0.8271781594	 2.9876378705	 0.122142
H	-2.9300974432	-1.9237232436	-1.0174132525	 0.199035
77.4082	122.3573	187.2451	217.1319	233.355	291.293	321.3407	382.2782	449.5471	494.137	541.2611	618.9545	630.9761	645.482	649.4966	739.6871	871.6681	879.8081	916.6235	939.6529	961.5207	1008.5243	1055.9905	1119.5418	1126.4456	1143.5811	1167.0203	1171.5017	1204.2045	1212.8859	1299.6987	1373.0493	1401.5087	1442.792	1483.2393	1488.8392	1506.5134	1540.3614	2226.2793	3021.1786	3041.4342	3075.8583	3085.933	3115.4241	3128.7548	3174.8197	3500.5595	3534.4509
CC1(NCC11CO1)C#C	C[C@]1(NC[C@]21CO2)C#C	
InChI=1S/C7H9NO/c1-3-6(2)7(4-8-6)5-9-7/h1,8H,4-5H2,2H3	InChI=1S/C7H9NO/c1-3-6(2)7(4-8-6)5-9-7/h1,8H,4-5H2,2H3/t6-,7+/m0/s1
