15
gdb 30467	6.61888	0.89779	0.7947	2.5037	82.09	-0.1934	-0.022	0.1714	1384.1769	0.110949	-416.792073	-416.783037	-416.782093	-416.82659	31.962	
C	-0.0317394416	 1.4041529074	 0.034188219	-0.325256
N	-0.0662096709	-0.0455197383	-0.0387579792	-0.39071
C	 0.5112172857	-0.6241068042	-0.9953697907	 0.523175
N	 0.5844139559	-1.9823305394	-1.2310875882	-0.450559
C	 1.37670272	-2.2304596444	-2.3612993224	 0.188061
C	 1.7339116883	-1.02029016	-2.8341125572	-0.141346
O	 1.2149118402	-0.0271909794	-2.0429682668	-0.213266
C	 1.6702533876	-3.5204639212	-2.8374339784	 0.254812
C	 1.9102761624	-4.6368387595	-3.2197569759	-0.43807
H	 0.8896340974	 1.8428993823	-0.3712925239	 0.114527
H	-0.8765591432	 1.8470743274	-0.511252473	 0.117674
H	-0.1271619319	 1.7099537536	 1.0802044041	 0.118862
H	 0.2651859622	-2.6663253485	-0.5692178541	 0.278383
H	 2.311683446	-0.7225838642	-3.6906749304	 0.160442
H	 2.1268188418	-5.6160776615	-3.5693410829	 0.203268
44.4297	69.2611	130.9639	196.3494	224.899	230.9816	320.9665	440.8817	453.766	544.1462	554.9502	613.9825	631.5659	689.2293	718.5891	725.609	739.3056	882.3572	993.8445	1074.4301	1108.5273	1130.4328	1147.9682	1217.217	1250.3448	1336.7019	1414.1392	1448.0104	1493.5617	1503.6446	1663.5618	1826.6235	2236.1082	2997.398	3046.9599	3089.5474	3304.253	3500.451	3705.2248
CN=C1NC(=CO1)C#C	CN=c1[nH]c(co1)C#C	
InChI=1S/C6H6N2O/c1-3-5-4-9-6(7-2)8-5/h1,4H,2H3,(H,7,8)	InChI=1S/C6H6N2O/c1-3-5-4-9-6(7-2)8-5/h1,4H,2H3,(H,7,8)
