20
gdb 126562	3.08508	1.02652	0.81982	2.4958	82.3	-0.1922	0.034	0.2262	1443.208	0.172378	-399.353847	-399.344284	-399.34334	-399.388678	35.121	
C	-0.05087523	 1.5573836636	-0.0006721659	-0.377825
C	-0.0996245589	 0.0294795514	-0.0711571549	-0.162086
C	 0.8072283338	-0.5459697636	-1.1762742795	-0.306373
C	 0.7510630083	-2.0393905464	-1.2761222411	 0.313829
N	 1.7586280713	-2.8015468762	-0.8463072292	-0.292384
N	 1.3554136706	-4.0617480874	-1.0590656151	-0.192091
C	 0.1174483244	-4.1404279569	-1.6244632787	-0.106598
C	-0.31208137	-2.8380312648	-1.7802782439	 0.118381
N	-1.5549930274	-2.3721247233	-2.2508263836	-0.611952
H	 0.9671136483	 1.9130981113	 0.1946189213	 0.114192
H	-0.3816113314	 2.0102331981	-0.9426576542	 0.107541
H	-0.6961711387	 1.9408811027	 0.7959052127	 0.110324
H	 0.2067981697	-0.3998861941	 0.8899225783	 0.105516
H	-1.1300916148	-0.3049301531	-0.2407669156	 0.109755
H	 0.5247923354	-0.0938940157	-2.1392419469	 0.084897
H	 1.8464263759	-0.2539442653	-0.9917926398	 0.11532
H	 1.9668140339	-4.8198588491	-0.8130655073	 0.269509
H	-0.3465001664	-5.0848626848	-1.8605050522	 0.117517
H	-2.0179734713	-3.0411799379	-2.8529934515	 0.239777
H	-1.4655218225	-1.4970212385	-2.7530897429	 0.242751
57.9958	89.8322	114.695	173.6612	240.721	259.5437	282.5477	314.6809	380.285	435.9338	441.2484	651.2212	664.2144	708.972	725.1727	745.9367	782.1367	800.1486	874.7066	900.8233	947.1717	1042.3089	1065.7592	1082.2453	1109.0762	1112.1413	1208.2648	1246.1653	1260.1499	1309.9207	1325.712	1341.1316	1383.734	1411.3449	1424.7567	1473.1987	1481.8133	1493.9782	1499.4899	1510.8429	1535.3194	1627.6452	1658.2566	2991.0688	3026.3149	3033.5013	3058.9261	3077.6282	3095.908	3100.5466	3259.1288	3525.4928	3613.2668	3688.4976
CCCC1=NNC=C1N	CCCc1n[nH]cc1N	
InChI=1S/C6H11N3/c1-2-3-6-5(7)4-8-9-6/h4H,2-3,7H2,1H3,(H,8,9)	InChI=1S/C6H11N3/c1-2-3-6-5(7)4-8-9-6/h4H,2-3,7H2,1H3,(H,8,9)
