21
gdb 117702	3.86123	0.70538	0.69222	3.1892	75.7	-0.2428	-0.0213	0.2215	1678.1696	0.178044	-461.365563	-461.354418	-461.353474	-461.402373	39.53	
C	 0.0987537885	 1.5824519534	-0.0434862694	-0.401137
C	-0.0031708177	 0.0567851357	 0.0623215735	 0.302528
O	 0.6256732733	-0.2783202326	 1.3077498569	-0.456964
C	-1.4628891975	-0.4346368184	 0.0508551861	-0.196971
C	-2.3385212979	 0.1156506989	 1.1725840475	-0.091937
O	-3.5559990961	-0.6173779478	 1.1450778381	-0.422631
C	 0.7655530028	-0.6174544495	-1.1017810207	-0.302559
C	 2.2351513791	-0.2541356186	-1.1483638454	 0.151413
O	 2.8265403203	 0.0556520906	-2.151929155	-0.247358
H	 1.1455036472	 1.898732734	-0.0617562822	 0.13201
H	-0.3821017272	 1.9390825748	-0.9587926658	 0.122837
H	-0.3770489849	 2.062929892	 0.814160055	 0.129096
H	 0.5080126971	-1.2236800679	 1.455464854	 0.279143
H	-1.9240364487	-0.2043514977	-0.9161634741	 0.109343
H	-1.4664655389	-1.5299628759	 0.1382033647	 0.096536
H	-1.8173577825	-0.0000273378	 2.1338074459	 0.097562
H	-2.5233855263	 1.1899666275	 1.0241833371	 0.090078
H	-4.1278240685	-0.2732125196	 1.8373316689	 0.286832
H	 0.7049932332	-1.7084596637	-0.9671642693	 0.109058
H	 0.3159798203	-0.3820310238	-2.0708104863	 0.121451
H	 2.7512589644	-0.3050638734	-0.1661428593	 0.091672
56.601	71.8093	95.8696	116.6404	141.9797	229.9212	249.7702	271.977	312.3525	330.4025	342.9174	365.6281	408.4443	431.88	505.4722	616.6637	760.6295	797.0907	832.1313	916.1226	951.6531	966.5632	1008.2075	1061.1683	1066.4005	1071.1452	1129.6183	1163.6784	1183.5433	1217.0901	1243.1065	1254.7531	1304.8744	1317.0626	1351.3593	1387.1888	1419.5075	1421.9974	1452.1508	1458.2972	1481.1269	1491.0705	1504.5277	1533.7039	1827.4142	2911.1016	2983.2294	3001.4031	3015.0949	3021.3364	3049.9846	3073.1457	3096.8629	3119.8038	3132.7188	3795.6546	3830.3826
CC(O)(CCO)CC=O	C[C@@](O)(CCO)CC=O	
InChI=1S/C6H12O3/c1-6(9,2-4-7)3-5-8/h4,8-9H,2-3,5H2,1H3	InChI=1S/C6H12O3/c1-6(9,2-4-7)3-5-8/h4,8-9H,2-3,5H2,1H3/t6-/m0/s1
