23
gdb 104174	2.96499	1.0904	1.06435	0.8899	81.9	-0.2447	0.0857	0.3304	1331.0635	0.203779	-425.452009	-425.441865	-425.440921	-425.487129	37.898	
C	 0.1015297393	 1.460726623	 0.2474931171	-0.390591
C	 0.0747940043	-0.0457002969	-0.0214194805	-0.201145
C	 0.6927590579	-0.4613172711	-1.3635302153	 0.454989
C	 0.010140639	 0.1541230101	-2.5823428414	-0.418546
O	 2.0799096709	-0.1061382399	-1.4109633666	-0.295622
C	 2.8378380063	-1.2861828615	-1.2102930259	-0.108096
C	 1.9307964314	-2.378489615	-1.7772935215	 0.124137
C	 2.1210881114	-3.7694779159	-1.2007264607	-0.410567
O	 0.6381823107	-1.8871342651	-1.4315007389	-0.312574
H	 1.1195516763	 1.8493694794	 0.1529722199	 0.131022
H	-0.5379740967	 2.0125264471	-0.4484526965	 0.115833
H	-0.2529359397	 1.677232844	 1.259666618	 0.110794
H	 0.6288965071	-0.5762231393	 0.7607775315	 0.095016
H	-0.9517580346	-0.4283871133	 0.0108441604	 0.102188
H	 0.1492416632	 1.2376947311	-2.598345766	 0.126549
H	 0.4445871871	-0.2617729281	-3.4945917202	 0.117236
H	-1.0610620354	-0.0654733886	-2.5697898529	 0.118917
H	 3.7900903194	-1.182083948	-1.7375973597	 0.10873
H	 3.0390976928	-1.4635433836	-0.1419312157	 0.089586
H	 2.0384948227	-2.4092117094	-2.8737739224	 0.070901
H	 2.0206858144	-3.7503826272	-0.1114521011	 0.123477
H	 1.3724329864	-4.4572222436	-1.6028462012	 0.130614
H	 3.1123654756	-4.1572623081	-1.4570421803	 0.117152
46.451	96.6938	140.7558	207.043	212.2967	227.1555	262.9771	278.0426	335.1739	365.9623	431.5293	462.689	516.2566	607.2935	645.7581	781.8328	788.3323	864.9695	889.1247	904.282	949.811	959.3047	1005.3189	1026.6499	1059.0307	1091.3837	1125.3317	1142.1727	1159.1453	1173.2929	1221.2592	1236.2431	1244.4204	1309.9935	1346.9623	1360.9348	1370.958	1402.6505	1406.3672	1408.2888	1416.1373	1472.3546	1484.3922	1485.3698	1488.8419	1498.619	1503.1445	1512.0733	1515.9965	2964.902	2983.0037	3038.7125	3041.1701	3041.6174	3050.8378	3075.1398	3090.1971	3107.2222	3113.8512	3119.0067	3121.8061	3127.8528	3132.3227
CCC1(C)OCC(C)O1	CC[C@@]1(C)OC[C@@H](C)O1	
InChI=1S/C7H14O2/c1-4-7(3)8-5-6(2)9-7/h6H,4-5H2,1-3H3	InChI=1S/C7H14O2/c1-4-7(3)8-5-6(2)9-7/h6H,4-5H2,1-3H3/t6-,7+/m1/s1
