23
gdb 57452	2.80686	1.2521	1.15851	1.7442	84.44	-0.2476	0.071	0.3186	1216.6334	0.203891	-388.258655	-388.249136	-388.248192	-388.29248	37.269	
C	 0.1881154832	 1.5482069793	 0.3868439452	-0.405847
C	-0.0029581288	 0.0527397016	 0.0718654855	 0.238022
C	 0.6451781821	-0.7837406449	 1.1923009122	-0.40582
C	-1.5101081429	-0.2619230438	 0.0102576995	-0.404204
C	 0.6336454294	-0.3632503531	-1.2691411808	 0.018206
C	 0.3005796082	 0.3728647625	-2.6261970588	-0.301726
C	 1.8103464449	 0.5166070206	-2.856895728	 0.031154
O	 2.3318050285	 1.2928426788	-1.7740087149	-0.238223
C	 2.1259694616	-0.1111238338	-1.5635193894	-0.011194
H	 1.2441356513	 1.819961166	 0.4402197333	 0.130458
H	-0.2753434458	 2.1854981476	-0.3720538105	 0.108762
H	-0.2795235806	 1.7869919946	 1.3488122501	 0.098452
H	 0.1936369289	-0.5511932284	 2.1627179002	 0.109616
H	 0.5173188435	-1.8577685753	 1.0147824381	 0.103686
H	 1.7185514424	-0.5802261948	 1.2701279526	 0.113224
H	-2.0039055142	 0.3074001465	-0.7845875648	 0.112038
H	-1.6891077218	-1.3265759454	-0.1783038317	 0.104062
H	-1.9994806812	-0.0037653877	 0.9557431727	 0.108445
H	 0.4435043323	-1.4340372128	-1.4144964236	 0.072431
H	-0.2020678209	-0.2781120571	-3.344879358	 0.104748
H	-0.2339170219	 1.3229974418	-2.5614343581	 0.112383
H	 2.3654044793	 0.5308854193	-3.7875520874	 0.102494
H	 2.9895702826	-0.6883036216	-1.2523476932	 0.098833
57.2815	160.9451	191.823	225.5917	267.9115	275.5117	292.144	335.7507	339.8788	389.153	416.837	470.2761	577.7458	704.7956	759.6299	825.784	840.3832	869.1658	915.2962	935.4568	938.4732	947.084	960.5161	985.4904	1000.9	1040.9301	1042.3674	1058.3064	1081.9386	1142.7002	1207.7822	1225.9658	1235.3901	1243.536	1250.2395	1280.3883	1288.1142	1363.0003	1389.2224	1397.1603	1404.4871	1435.2383	1471.3525	1480.3686	1484.3915	1486.2669	1505.8637	1507.4131	1517.2991	3020.9567	3023.4689	3027.7753	3036.7626	3071.0365	3088.0845	3092.7349	3093.5786	3094.5432	3099.9974	3126.0549	3131.6346	3175.185	3192.4519
CC(C)(C)C1CC2OC12	CC(C)(C)[C@H]1C[C@H]2O[C@@H]12	
InChI=1S/C8H14O/c1-8(2,3)5-4-6-7(5)9-6/h5-7H,4H2,1-3H3	InChI=1S/C8H14O/c1-8(2,3)5-4-6-7(5)9-6/h5-7H,4H2,1-3H3/t5-,6+,7-/m0/s1
