14
gdb 24369	3.78787	1.70749	1.18563	3.4065	70.06	-0.1961	-0.0174	0.1787	949.456	0.105684	-432.911147	-432.904773	-432.903829	-432.942096	24.421	
C	-0.0177112979	 1.4985747486	 0.1821377175	-0.282122
N	 1.3167950013	 1.949557841	-0.2594279715	-0.296071
C	 2.3353042175	 1.1503079492	-0.6817975655	 0.094725
N	 2.3249660832	-0.1414765972	-0.7744608054	-0.361493
C	 1.1121288156	-0.6393491792	-0.3796168933	 0.332414
C	 0.0050723832	 0.0091972836	 0.0630193669	 0.201901
N	-0.9911466198	-0.9059226461	 0.3497529563	-0.330288
C	-0.4417717985	-2.0468673381	 0.0687210536	 0.041135
O	 0.8391771858	-1.9755687558	-0.3819231836	-0.178296
H	-0.2078639272	 1.8308841789	 1.2143451661	 0.124096
H	-0.7988832261	 1.9546045244	-0.445441223	 0.124089
H	 1.4924637488	 2.9406322717	-0.247975119	 0.256852
H	 3.2364887817	 1.6913935022	-0.9623894377	 0.125383
H	-0.8702628976	-3.0328333633	 0.1477944787	 0.147674
101.7067	238.6171	251.1569	433.062	447.7803	505.6635	580.3865	634.9311	665.7795	754.0738	764.3828	802.5879	911.9305	925.2937	949.348	954.0532	1066.264	1114.651	1152.1153	1210.5919	1212.375	1263.2359	1300.4504	1351.9172	1395.5732	1436.0173	1526.0512	1537.9756	1548.7762	1643.4482	1669.0886	2969.0978	2981.0657	3160.6382	3283.3452	3646.3813
C1NC=NC2=C1N=CO2	C1NC=Nc2c1nco2	
InChI=1S/C5H5N3O/c1-4-5(7-2-6-1)9-3-8-4/h2-3H,1H2,(H,6,7)	InChI=1S/C5H5N3O/c1-4-5(7-2-6-1)9-3-8-4/h2-3H,1H2,(H,6,7)
