21
gdb 100846	1.99231	1.18533	0.79329	2.4306	86.1	-0.2501	-0.0312	0.219	1478.4969	0.178234	-387.072379	-387.061354	-387.06041	-387.109337	39.075	
C	-0.1139283506	 1.5340282276	 0.1192591407	-0.398362
C	 0.0506658195	 0.0129200154	 0.0388809646	-0.181662
C	 0.7671686457	-0.4798802731	-1.2335351241	 0.021639
C	 2.2272228871	-0.0146182972	-1.2957018825	-0.407163
C	 0.6802457215	-2.0380082018	-1.3323718435	-0.242611
C	-0.7834765928	-2.4861022216	-1.4183928319	 0.16115
O	-1.3575672389	-3.1113140263	-0.569041134	-0.246529
C	 1.3585825269	-2.5714066212	-2.5090253488	 0.287936
C	 1.8515335799	-3.0256319803	-3.507687765	-0.43104
H	 0.8478075167	 2.0523038677	 0.1740279002	 0.121315
H	-0.6516505122	 1.9206119203	-0.7538797554	 0.116025
H	-0.6862573994	 1.8119334661	 1.0094137359	 0.119187
H	 0.6049464131	-0.3460137987	 0.9167882333	 0.101776
H	-0.9405447998	-0.4497482629	 0.1040447144	 0.114304
H	 0.2393398247	-0.0752205928	-2.1090898238	 0.083569
H	 2.7225941275	-0.3869737329	-2.1953676935	 0.133203
H	 2.291203057	 1.0764684721	-1.3037287089	 0.120059
H	 2.7874368285	-0.3773149588	-0.4257822511	 0.116108
H	 1.0988972144	-2.4798466027	-0.4199613584	 0.120122
H	-1.2864502971	-2.1745987044	-2.3613492383	 0.089212
H	 2.3104107483	-3.4303854445	-4.3758863398	 0.201761
40.5471	70.4443	78.2361	131.9228	175.1807	209.4998	213.1447	255.019	288.8864	354.2634	383.3546	415.8902	470.6039	511.4955	566.0712	635.7458	648.6582	774.1956	840.881	895.9014	945.0315	978.0236	989.6341	1015.647	1048.0637	1071.6501	1134.1971	1155.5618	1175.2124	1235.4902	1273.3974	1309.1566	1343.4266	1369.0877	1384.5911	1411.8759	1417.1467	1419.9181	1483.4424	1495.145	1499.0746	1507.7872	1511.0333	1836.146	2228.1138	2882.5973	3003.0985	3021.505	3035.2819	3037.1802	3045.5761	3063.0532	3101.3699	3106.3832	3112.6155	3127.8404	3501.5926
CCC(C)C(C=O)C#C	CC[C@@H](C)[C@@H](C=O)C#C	
InChI=1S/C8H12O/c1-4-7(3)8(5-2)6-9/h2,6-8H,4H2,1,3H3	InChI=1S/C8H12O/c1-4-7(3)8(5-2)6-9/h2,6-8H,4H2,1,3H3/t7-,8-/m1/s1
