17
gdb 63223	2.338	1.6194	1.23286	2.9253	72.73	-0.275	-0.0045	0.2704	1056.706	0.135425	-418.038166	-418.029511	-418.028567	-418.072143	31.873	
C	 0.1063014497	 1.4895722503	-0.2047857322	-0.413433
C	-0.0008641503	-0.0280140793	-0.0287133313	 0.235422
C	-1.4633470971	-0.4644278431	 0.1069837053	-0.417465
N	 0.6064774705	-0.6937473971	-1.2003339688	-0.266938
C	 1.562203123	-1.4031066851	-0.7823691491	 0.11308
O	 1.844652822	-1.4487390224	 0.5496226186	-0.220959
C	 0.8612084502	-0.5986535473	 1.1770062692	-0.07824
C	 1.543050478	 0.3974406566	 2.0051614205	 0.292879
N	 2.0526508388	 1.1894005819	 2.6741977314	-0.325526
H	 1.147972382	 1.8052725223	-0.3016984572	 0.137119
H	-0.4252950292	 1.782356913	-1.1133700142	 0.133015
H	-0.3348959848	 2.0174950694	 0.6455857186	 0.130019
H	-2.0265163467	-0.1598007852	-0.7784960845	 0.138742
H	-1.5403968294	-1.5517944991	 0.2007008952	 0.123913
H	-1.9244782233	-0.0039074021	 0.9870472256	 0.124102
H	 2.2198058375	-2.0147246978	-1.389373682	 0.155512
H	 0.2477175988	-1.225085565	 1.8325738052	 0.138758
24.5406	157.677	207.2426	227.4017	266.3655	287.9772	333.8786	371.1623	381.9948	513.7735	548.1069	597.9025	633.3723	802.8455	806.3119	907.6436	947.74	952.7175	960.9376	997.3426	1022.3058	1047.1323	1098.1661	1191.2729	1194.7061	1242.9912	1296.5376	1332.9401	1364.3714	1399.4692	1423.0308	1475.7211	1484.8297	1494.6695	1505.7098	1717.4434	2362.1816	3037.5811	3049.5026	3059.6334	3109.5547	3124.7336	3127.3457	3132.4869	3223.654
CC1(C)N=COC1C#N	CC1(C)N=CO[C@H]1C#N	
InChI=1S/C6H8N2O/c1-6(2)5(3-7)9-4-8-6/h4-5H,1-2H3	InChI=1S/C6H8N2O/c1-6(2)5(3-7)9-4-8-6/h4-5H,1-2H3/t5-/m0/s1
