16
gdb 5543	3.17332	1.97187	1.31177	3.4962	67.37	-0.2066	0.0391	0.2457	934.7172	0.130749	-379.950248	-379.942033	-379.941089	-379.983569	28.778	
C	 0.0210842941	 0.9931265899	 0.414123017	-0.249279
O	-0.5299439011	 0.2286594516	-0.6611687078	-0.269968
C	 0.3665989433	-0.5180515385	-1.3482992557	 0.278139
C	 0.8187444608	-1.8028456958	-1.1894201852	 0.191443
C	 0.4550876656	-2.7834131386	-0.1238504006	-0.494943
N	 1.700720048	-2.1058048704	-2.2103017265	-0.309175
C	 1.7738389436	-1.033820076	-2.9619738926	 0.002729
N	 0.9884364107	-0.0264919165	-2.4838450596	-0.300828
H	 0.5171051826	 0.3436318925	 1.1441694	 0.129162
H	 0.7437641776	 1.7332921488	 0.0474644546	 0.114737
H	-0.8153730937	 1.5090426933	 0.8897141962	 0.134208
H	-0.3412359029	-2.3839426394	 0.5102551288	 0.120266
H	 0.1044444838	-3.7230758016	-0.5631670691	 0.134328
H	 1.3138823911	-3.0262751216	 0.5122753314	 0.127221
H	 2.3680901608	-0.9260940331	-3.8573009922	 0.126052
H	 0.8185589257	 0.8741473354	-2.8992401787	 0.265908
42.4175	125.9356	146.9372	168.9218	250.5951	256.3363	417.6848	459.5049	501.9503	633.8622	686.7087	708.1313	739.312	795.5986	950.4082	979.0065	1029.9209	1066.1114	1103.6283	1158.2877	1174.0197	1210.2439	1267.126	1290.8062	1377.8554	1411.0326	1447.9928	1478.6863	1480.8327	1486.7931	1497.1234	1503.4346	1522.996	1656.4656	3011.1877	3031.2208	3078.6722	3085.3892	3116.0165	3132.9227	3245.5546	3664.6953
COC1=C(C)N=CN1	COc1c(C)nc[nH]1	
InChI=1S/C5H8N2O/c1-4-5(8-2)7-3-6-4/h3H,1-2H3,(H,6,7)	InChI=1S/C5H8N2O/c1-4-5(8-2)7-3-6-4/h3H,1-2H3,(H,6,7)
