15
gdb 50280	2.69726	1.37106	1.05361	4.1391	73.03	-0.2585	-0.0154	0.2431	1115.1342	0.112892	-416.801425	-416.793584	-416.79264	-416.83428	28.621	
O	 0.0654995006	 0.0294550766	-0.3754218763	-0.306512
C	 0.0681323549	 1.2077043212	-0.1026519651	 0.123618
N	 1.1820328692	 1.8954899779	 0.2909052375	-0.10366
C	 2.5921152913	 1.5085323171	 0.0849556138	-0.183115
C	 2.9440419489	 2.9960145233	-0.0805572821	-0.13441
C	 2.1164409686	 3.6324362342	-1.1575194292	-0.310776
C	 1.4596903793	 3.3223214816	 0.172106679	 0.217611
C	 0.8530470404	 4.2969307897	 1.0211417783	 0.228794
N	 0.3568346001	 5.0922691839	 1.6993971221	-0.338879
H	-0.8358272944	 1.8485815579	-0.1001978272	 0.093403
H	 3.0244587155	 1.0477436044	 0.9764612346	 0.142177
H	 2.7536746838	 0.8626132699	-0.7823453123	 0.142427
H	 3.7950935743	 3.48858301	 0.3667325391	 0.136433
H	 2.3179532584	 4.6832127765	-1.3361170813	 0.152638
H	 1.8044892493	 3.0641900655	-2.0291458309	 0.140251
75.1179	131.9667	156.4761	225.233	291.8427	371.7839	435.1089	470.0102	514.4229	587.087	650.9998	784.3265	829.0601	849.7279	896.9871	944.1648	1013.6141	1028.119	1038.6354	1073.6388	1094.5939	1128.6521	1162.0757	1209.0005	1273.1612	1316.3372	1357.2553	1369.7121	1428.215	1475.7766	1510.7377	1801.0211	2350.7358	2945.4911	3063.5852	3116.8357	3126.2764	3222.4447	3233.5031
O=CN1CC2CC12C#N	O=CN1C[C@H]2C[C@@]12C#N	
InChI=1S/C6H6N2O/c7-3-6-1-5(6)2-8(6)4-9/h4-5H,1-2H2	InChI=1S/C6H6N2O/c7-3-6-1-5(6)2-8(6)4-9/h4-5H,1-2H2/t5-,6+/m1/s1
