19
gdb 59073	2.13275	1.36949	1.05396	3.5598	76.59	-0.2489	0.0088	0.2577	1216.3578	0.157116	-419.185089	-419.175032	-419.174087	-419.220168	36.056	
C	 0.1139805359	 1.2664322687	-0.9920121567	-0.413992
C	-0.1461538179	 0.5770771572	 0.3466987524	 0.106588
O	-0.1928960841	 1.506026141	 1.4278178286	-0.43058
C	-1.4322894339	-0.2338483315	 0.3095391296	-0.023302
C	-1.4589322401	-1.6983714092	-0.0524656254	-0.182325
C	-0.2159247594	-2.3746612018	-0.3356747243	 0.299934
N	 0.7706119037	-2.9368019659	-0.5597794804	-0.346625
N	-1.7756578407	-1.2314892176	 1.3029521106	-0.099964
C	-0.8643317756	-1.5194881091	 2.4099521258	-0.328744
H	 1.0039749059	 1.8962467702	-0.9182631867	 0.134065
H	 0.2700604132	 0.5327185699	-1.7886177952	 0.136604
H	-0.7343385077	 1.9011242851	-1.2776079498	 0.109344
H	 0.6999391121	-0.0743338955	 0.5803201489	 0.113366
H	-0.8803795279	 2.1539664559	 1.2351422784	 0.280733
H	-2.2938554721	 0.3468612202	-0.0284660834	 0.096957
H	-2.3020540318	-2.0973795973	-0.6108698517	 0.136373
H	 0.1784077005	-1.6901773065	 2.1145385198	 0.132464
H	-0.894879772	-0.6739626612	 3.0999756855	 0.147743
H	-1.2233200083	-2.4151435626	 2.9239378139	 0.131362
63.4205	101.9429	127.4549	158.2955	188.8683	229.2105	262.4349	289.0536	354.3849	365.9494	369.82	468.6288	554.4157	613.3615	622.5967	738.2534	839.2379	853.8321	907.703	983.9062	1032.8906	1066.1917	1082.7711	1102.5975	1136.978	1159.309	1171.2632	1191.9854	1270.8797	1321.2477	1338.1312	1360.9936	1404.3469	1414.7054	1433.5335	1455.4105	1485.6923	1490.5143	1494.3709	1507.4694	2344.7305	3021.6773	3027.154	3072.2905	3085.602	3095.5902	3106.0981	3127.1341	3137.2316	3139.5031	3794.7145
CC(O)C1C(C#N)N1C	C[C@@H](O)[C@H]1[C@@H](C#N)N1C	
InChI=1S/C6H10N2O/c1-4(9)6-5(3-7)8(6)2/h4-6,9H,1-2H3	InChI=1S/C6H10N2O/c1-4(9)6-5(3-7)8(6)2/h4-6,9H,1-2H3/t4-,5-,6+,8?/m1/s1
