18
gdb 60704	3.50004	0.67596	0.5994	2.3435	85.38	-0.2379	-0.0325	0.2054	1842.8112	0.145615	-401.900622	-401.890661	-401.889717	-401.937921	34.128	
C	 0.0512520535	 1.5721537255	-0.0981502132	-0.397972
C	-0.0474763081	 0.036131089	 0.0624806089	-0.215567
C	 0.6067006774	-0.6304540824	-1.1530056857	 0.172458
O	 0.0007130087	-1.2006935293	-2.0184497948	-0.240786
C	 0.6115451531	-0.4280936267	 1.2782420842	 0.068562
C	 1.1936096966	-0.8258380824	 2.2576402074	 0.067731
C	 1.8930596343	-1.2990584705	 3.4182781266	-0.159877
C	 1.2197415851	-2.246553883	 4.3586418497	-0.225303
N	 2.3125129766	-2.7208810703	 3.5068511036	-0.304745
H	 1.0957104831	 1.8876589308	-0.1783243402	 0.133823
H	-0.4837540081	 1.8927580396	-0.9962462658	 0.134562
H	-0.3867887899	 2.068466493	 0.7707727995	 0.139697
H	-1.1014532461	-0.2633848023	 0.0562961478	 0.124158
H	 1.7146177225	-0.5261886437	-1.177061705	 0.088625
H	 2.6303231936	-0.6140370295	 3.829062619	 0.118831
H	 1.4533551318	-2.1906581958	 5.417988607	 0.127861
H	 0.2009368266	-2.5401198428	 4.1244735836	 0.126017
H	 1.9306902593	-3.224310319	 2.7093838273	 0.241924
21.0766	46.2147	95.396	102.9842	184.5611	205.687	225.9896	311.35	414.8233	438.9211	502.959	527.7301	556.8209	730.2591	812.5677	859.044	891.3594	932.3781	959.8685	989.0162	1040.2708	1082.8154	1100.355	1120.0415	1136.6498	1161.8795	1218.2838	1255.5572	1270.7051	1298.3818	1324.9704	1395.5726	1399.4566	1416.6296	1491.7929	1497.7236	1504.9068	1839.1411	2350.3262	2885.3765	3045.3823	3052.1405	3115.8749	3122.5144	3131.4184	3139.4455	3206.918	3503.9726
CC(C=O)C#CC1CN1	C[C@@H](C=O)C#C[C@H]1CN1	
InChI=1S/C7H9NO/c1-6(5-9)2-3-7-4-8-7/h5-8H,4H2,1H3	InChI=1S/C7H9NO/c1-6(5-9)2-3-7-4-8-7/h5-8H,4H2,1H3/t6-,7+/m1/s1
