23
gdb 121361	2.40955	1.12874	0.89923	1.9054	82.49	-0.2389	0.079	0.3179	1425.8801	0.205035	-425.42964	-425.419532	-425.418587	-425.465442	36.411	
C	 0.4751434104	 1.5420646855	 0.074966648	-0.385569
C	 0.2447026254	 0.041236434	 0.0167220238	-0.036028
O	 0.7669480664	-0.5363476314	 1.1972747215	-0.258497
C	 0.5922578279	-1.9392974494	 1.3007047572	 0.090077
C	 1.6630195371	-2.7218494877	 0.5187511708	-0.083585
O	 2.7464362932	-2.9670937926	 1.4141757116	-0.265246
C	 2.4288343233	-2.4440853967	 2.7002161773	-0.067518
C	 0.8992257789	-2.358947888	 2.7506835213	-0.014066
C	 0.3270269226	-1.4558061647	 3.8385237662	-0.412938
H	 1.5442285949	 1.762789418	 0.1413212538	 0.128813
H	 0.0756687308	 2.0243025347	-0.8221741636	 0.115118
H	-0.0183032286	 1.9724243803	 0.9510024281	 0.126174
H	-0.8320539882	-0.1845771028	-0.0657960575	 0.086186
H	 0.7303827149	-0.3834539837	-0.8764744104	 0.088802
H	-0.4264262525	-2.2128261289	 0.988337566	 0.060862
H	 1.2682803374	-3.6819675547	 0.1572418211	 0.092495
H	 2.0207046798	-2.1539033225	-0.3487685599	 0.10032
H	 2.8500681382	-3.114463384	 3.4564375502	 0.09949
H	 2.8728756568	-1.4456538317	 2.8342133338	 0.095937
H	 0.5098677145	-3.3778064403	 2.8735330088	 0.079615
H	 0.6618334718	-0.4254322893	 3.7027886801	 0.135848
H	-0.7675986424	-1.4592413434	 3.8191361161	 0.112182
H	 0.6416725073	-1.7970294708	 4.8302798957	 0.111529
52.8529	79.7047	113.2129	134.1366	170.8587	203.448	252.6157	270.3126	328.7326	359.2982	467.0359	526.766	614.5997	743.5897	822.4365	847.2974	875.1584	908.0665	938.553	957.8194	967.7104	1005.3113	1042.762	1081.7067	1106.2429	1136.4987	1147.7764	1167.255	1174.3907	1189.6041	1226.9186	1240.9202	1280.375	1299.9355	1327.6783	1350.7148	1364.6178	1378.8211	1402.8045	1407.5533	1415.5834	1440.7424	1483.9842	1494.857	1499.7924	1501.9173	1507.8799	1523.1748	1530.0483	2958.6908	2985.6858	2987.9867	2990.1972	3007.714	3028.1971	3040.1964	3045.2205	3047.4533	3070.583	3099.1085	3119.9233	3122.2893	3132.7873
CCOC1COCC1C	CCO[C@H]1COC[C@H]1C	
InChI=1S/C7H14O2/c1-3-9-7-5-8-4-6(7)2/h6-7H,3-5H2,1-2H3	InChI=1S/C7H14O2/c1-3-9-7-5-8-4-6(7)2/h6-7H,3-5H2,1-2H3/t6-,7+/m1/s1
