23
gdb 80861	2.20339	1.63229	1.34148	1.2074	84.75	-0.2477	0.0725	0.3202	1122.2589	0.20622	-388.290511	-388.281416	-388.280472	-388.323388	36.332	
C	-0.1172138426	 1.570705236	 0.0054426814	-0.433622
C	 0.0154402409	 0.0526814684	-0.0201669515	 0.011254
C	 1.1512816472	-0.578187284	-0.8891605867	-0.026788
C	 2.1221112458	-0.2870790714	 0.2899498934	-0.31257
C	 0.8404481081	-0.6064196341	 1.1247787908	 0.424633
O	 0.6332306792	-0.1469783382	 2.4260593245	-0.498694
C	 0.6694692443	-2.1245064731	 0.8494792383	-0.019779
C	-0.6418006704	-2.7326232341	 1.3405390229	-0.414065
C	 0.8756955121	-2.0864194211	-0.7043681181	-0.238412
H	 0.840093685	 2.0863971097	 0.1137275736	 0.116675
H	-0.583418536	 1.9281943882	-0.9191326549	 0.108878
H	-0.7516301559	 1.8805932505	 0.8418893839	 0.127125
H	-0.9763141693	-0.3837934672	-0.1823347174	 0.058276
H	 1.3560905901	-0.2219447069	-1.8986294132	 0.058266
H	 2.9893105642	-0.9450058044	 0.4098165937	 0.078707
H	 2.4318088959	 0.754692296	 0.3630888169	 0.101295
H	 1.2114156449	-0.6387832586	 3.0196281891	 0.27667
H	 1.4982934363	-2.6642537384	 1.32757949	 0.055429
H	-1.5125410534	-2.2594808437	 0.8756262564	 0.118821
H	-0.6858536488	-3.8025351561	 1.1113760659	 0.109571
H	-0.7429299932	-2.6137820639	 2.4243306872	 0.112253
H	-0.0204223487	-2.4104906751	-1.2439665127	 0.09414
H	 1.711128524	-2.7106882585	-1.0349229136	 0.091934
162.9875	178.299	192.1975	204.494	225.6857	242.0134	287.5228	380.5117	417.7521	447.1201	495.8179	550.6673	594.7643	664.0931	769.2902	826.5106	833.025	872.044	899.5938	939.7645	942.3096	979.7733	1010.2019	1021.172	1068.0066	1090.7936	1098.8459	1115.8283	1134.413	1142.9139	1169.3977	1199.0326	1235.0101	1250.2599	1258.6829	1272.1518	1300.6594	1312.3961	1359.5659	1384.1592	1408.3459	1412.3348	1414.0985	1489.2506	1493.7255	1497.2373	1499.3549	1501.741	1517.2271	3000.9709	3030.55	3035.4694	3039.1089	3043.5296	3051.4254	3086.761	3098.1065	3098.6015	3102.6067	3113.8184	3116.0914	3141.488	3798.3815
CC1C2CC1(O)C(C)C2	C[C@H]1[C@H]2C[C@]1(O)[C@@H](C)C2	
InChI=1S/C8H14O/c1-5-3-7-4-8(5,9)6(7)2/h5-7,9H,3-4H2,1-2H3	InChI=1S/C8H14O/c1-5-3-7-4-8(5,9)6(7)2/h5-7,9H,3-4H2,1-2H3/t5-,6-,7+,8-/m0/s1
