16
gdb 98146	2.19372	1.34391	0.83926	6.8709	86.64	-0.1925	-0.0036	0.1889	1320.2462	0.12264	-396.92568	-396.915402	-396.914458	-396.961058	36.292	
C	 0.0447692229	 1.4493612745	 0.092641301	-0.346591
N	-0.0750475943	 0.0200671352	-0.1064412419	-0.346401
C	 0.5845975832	-0.6824980567	-1.0560827231	 0.42926
N	 1.2675820704	 0.0249117581	-2.003160619	-0.584613
H	 1.6203260033	-0.5341883128	-2.767606956	 0.273609
H	 0.9178896689	 0.9334143977	-2.2619231285	 0.262312
C	 0.6046868492	-2.0797131283	-1.05697007	-0.138137
C	 1.233102021	-2.7872840841	-2.1061855681	 0.188607
C	 1.7797673478	-3.3508738192	-3.0242392937	-0.426928
C	-0.0174376784	-2.7495458015	 0.0218367372	 0.181453
N	-0.5557799932	-3.2214417358	 0.938460542	-0.394192
H	 1.0932824416	 1.7678647455	 0.1224962261	 0.149116
H	-0.4729883265	 2.0222295473	-0.6888063965	 0.132654
H	-0.4196140577	 1.7064203706	 1.0455422117	 0.152693
H	-0.5257080857	-0.5296860181	 0.6087102604	 0.278934
H	 2.2597036274	-3.8726855426	-3.8139927017	 0.188223
69.9521	103.28	126.9086	128.3183	138.0805	189.6375	285.777	364.2722	388.3435	402.862	463.3395	479.8052	492.4157	531.5789	563.5612	584.9066	604.0534	692.5671	720.0114	757.6422	977.8328	1149.0471	1157.9516	1164.6307	1208.3537	1276.4307	1439.2252	1451.9304	1486.6065	1519.4615	1533.5517	1621.9281	1667.7573	2203.5708	2299.7006	3006.3906	3063.5486	3140.4931	3502.4626	3565.7669	3623.0462	3685.9058
CNC(=[NH2+])[C-](C#C)C#N	CNC(=[NH2])[C](C#C)C#N	
InChI=1S/C6H6N3/c1-3-5(4-7)6(8)9-2/h1H,2H3,(H2,8,9)/q-1/p+1	InChI=1S/C6H7N3/c1-3-5(4-7)6(8)9-2/h1,9H,8H2,2H3
