21
gdb 91816	3.24423	1.22845	1.04357	1.385	84.17	-0.2328	0.0186	0.2514	1224.1531	0.183089	-387.091469	-387.082769	-387.081825	-387.124336	34.503	
C	-0.1110940396	 1.527617768	 0.0431455614	-0.464514
C	-0.0121332098	 0.0133759064	 0.0044448392	 0.330944
C	-0.8228564255	-0.7783563005	 1.0133162215	-0.325023
C	 0.6853830529	-0.7130813015	 1.1331499478	-0.086352
C	 1.5358545447	-1.9384263448	 0.8038124643	-0.229236
C	 2.1956277498	-1.8389195886	-0.5766161375	 0.078827
O	 2.7408718147	-3.1247123374	-0.8609522891	-0.436272
C	 1.1897003153	-1.4056069918	-1.6218888941	-0.095073
C	 0.184591915	-0.5745233092	-1.3501237428	-0.143615
H	 0.7951917528	 1.9956675816	-0.3571538211	 0.117407
H	-0.9598890136	 1.8829620885	-0.5534308732	 0.114902
H	-0.2520841146	 1.886283281	 1.0678602078	 0.112833
H	-1.4247390042	-0.2250591744	 1.72786983	 0.104458
H	-1.2556327942	-1.7198970319	 0.6912540808	 0.112307
H	 1.0681594978	-0.082179997	 1.9300079438	 0.079557
H	 2.3080129757	-2.0869430709	 1.5646015705	 0.101746
H	 0.9254267808	-2.8476088989	 0.7950111041	 0.112036
H	 3.0095436258	-1.0937782346	-0.5321222922	 0.071599
H	 3.2263218118	-3.06681803	-1.6898744466	 0.279513
H	 1.3210175015	-1.8121608744	-2.6227096012	 0.080163
H	-0.5189508472	-0.2824216196	-2.1280939133	 0.083791
85.8808	178.2062	219.1249	243.1642	254.1253	301.6931	365.9382	395.4755	412.4127	458.0305	522.4479	595.9908	649.3134	731.9017	766.0797	823.8818	876.9266	908.3617	935.2653	957.5959	978.3241	987.725	1036.3002	1051.1099	1066.7418	1091.6384	1108.3432	1118.3594	1132.6487	1194.274	1211.4736	1246.66	1277.7619	1313.2321	1330.8827	1358.8467	1403.7101	1405.9893	1415.858	1427.8636	1483.7836	1488.8444	1495.1804	1503.6246	1708.5688	2935.1695	3021.0036	3046.494	3082.4963	3088.1834	3097.4209	3120.3394	3129.2877	3144.8107	3154.8231	3209.635	3817.4678
CC12CC1CC(O)C=C2	C[C@]12C[C@H]1C[C@@H](O)C=C2	
InChI=1S/C8H12O/c1-8-3-2-7(9)4-6(8)5-8/h2-3,6-7,9H,4-5H2,1H3	InChI=1S/C8H12O/c1-8-3-2-7(9)4-6(8)5-8/h2-3,6-7,9H,4-5H2,1H3/t6-,7+,8+/m1/s1
