21
gdb 122180	2.60657	1.11932	0.92334	4.3429	75.44	-0.2201	0.0671	0.2872	1348.4567	0.180027	-461.324929	-461.314752	-461.313808	-461.360203	37.686	
C	 0.7219573585	 0.0627666778	 0.8116827476	-0.238655
O	 0.4341318998	-0.9481465631	-0.1318064717	-0.233603
C	 0.3687013924	-0.4747029037	-1.4697244062	-0.07361
C	 0.0502449863	-1.6215198873	-2.4201299353	-0.298265
C	 1.109690313	-2.7058842614	-2.6291935055	 0.330142
O	 1.0386499322	-3.2973737391	-3.9058100893	-0.460776
C	 2.4918279981	-2.6469558151	-1.9866420902	-0.407172
C	 1.4715921958	-3.6855448157	-1.5521322498	 0.128467
O	 0.8871131007	-3.6919242536	-0.294509598	-0.438534
H	 1.6945516656	 0.5360741243	 0.6120290497	 0.114538
H	-0.0533351394	 0.8425640722	 0.805608317	 0.116673
H	 0.7483742713	-0.4071528704	 1.7968496331	 0.139973
H	-0.4181635867	 0.2919316891	-1.543012325	 0.097042
H	 1.3223844015	 0.0045734145	-1.742593372	 0.095332
H	-0.8918868346	-2.0896417237	-2.1095345416	 0.127919
H	-0.1406440094	-1.1698426607	-3.400986662	 0.101223
H	 1.4302440577	-2.6836622037	-4.5384974792	 0.27473
H	 3.3328283422	-2.9764005461	-2.5880248269	 0.106827
H	 2.7106486167	-1.8425850395	-1.2928396121	 0.109563
H	 1.6398642651	-4.6983808725	-1.9030608392	 0.110026
H	 0.7164636233	-2.7736841422	-0.0322356135	 0.29816
48.1663	89.7529	140.5318	205.7805	214.0219	246.6768	258.8217	300.0438	326.4268	366.142	412.0463	469.1838	523.3736	543.5903	568.7803	672.3975	811.5336	843.2986	904.6754	914.3319	956.4174	1016.8329	1022.0495	1038.2759	1091.7204	1107.0047	1153.8942	1173.3029	1187.9504	1199.9286	1211.8597	1253.1323	1287.0671	1300.4668	1344.1914	1373.8236	1394.0208	1421.9845	1452.0227	1465.7048	1483.0319	1485.1667	1503.0012	1503.437	1528.5642	2973.4448	2989.1128	3004.7863	3034.0024	3039.5911	3070.6903	3128.1583	3129.0869	3171.6546	3222.1774	3672.0564	3773.4758
COCCC1(O)CC1O	COCC[C@@]1(O)C[C@H]1O	
InChI=1S/C6H12O3/c1-9-3-2-6(8)4-5(6)7/h5,7-8H,2-4H2,1H3	InChI=1S/C6H12O3/c1-9-3-2-6(8)4-5(6)7/h5,7-8H,2-4H2,1H3/t5-,6-/m1/s1
