19
gdb 124825	4.27723	0.92015	0.79026	1.1141	77.84	-0.2362	0.0297	0.2659	1445.342	0.160209	-419.233	-419.224039	-419.223095	-419.267422	33.329	
C	 0.1818316694	 1.4799134928	 0.0138775598	-0.401555
C	 0.0337589232	-0.0126561324	 0.3091728051	 0.135623
O	 0.0940709699	-0.2626785609	 1.7144884561	-0.424506
C	-1.2464029242	-0.5977303429	-0.3136914918	-0.31989
C	-1.3378342194	-2.0934427541	-0.2541643591	 0.344477
N	-1.6192478218	-2.7835126115	-1.3609345583	-0.293938
N	-1.6318085377	-4.0712796771	-0.9648046025	-0.183394
C	-1.3653265363	-4.2233651139	 0.3548049496	-0.02223
C	-1.1683874136	-2.956589261	 0.8572421523	-0.273322
H	 1.0731220907	 1.8757367207	 0.5081383437	 0.123016
H	 0.2667389207	 1.6658057122	-1.0614070697	 0.119429
H	-0.6897532494	 2.0377898663	 0.3800537109	 0.10498
H	 0.8988136431	-0.5491405822	-0.0971332241	 0.096746
H	-0.6177501287	 0.2405894253	 2.1264090318	 0.274362
H	-2.1075466424	-0.140556415	 0.1977664725	 0.093054
H	-1.3156206512	-0.2983920689	-1.3643774797	 0.115667
H	-1.8234859503	-4.7872939976	-1.6439041315	 0.271634
H	-1.3348996216	-5.1966733584	 0.8189721789	 0.128227
H	-0.9141942305	-2.6767927015	 1.864666586	 0.111619
40.4496	85.0543	132.4035	242.6182	286.0981	310.3584	320.6425	330.3967	456.7779	479.7003	496.0683	658.7814	693.7201	754.7218	780.2237	845.4864	859.7491	902.6702	941.5078	951.0223	993.5833	1051.0633	1068.2623	1076.941	1109.4373	1148.7459	1181.2769	1211.4162	1292.7497	1307.4733	1327.3327	1378.848	1400.7754	1406.1777	1420.4699	1466.5642	1475.4843	1490.21	1493.8714	1495.6871	1572.7171	2990.3052	3022.7783	3050.8897	3081.0065	3095.988	3119.6488	3258.4568	3296.4872	3680.4237	3789.89
CC(O)CC1=NNC=C1	C[C@@H](O)Cc1n[nH]cc1	
InChI=1S/C6H10N2O/c1-5(9)4-6-2-3-7-8-6/h2-3,5,9H,4H2,1H3,(H,7,8)	InChI=1S/C6H10N2O/c1-5(9)4-6-2-3-7-8-6/h2-3,5,9H,4H2,1H3,(H,7,8)/t5-/m1/s1
