14
gdb 8981	4.56601	0.98274	0.81665	0.319	64.62	-0.2553	-0.1011	0.1542	1295.8621	0.103122	-382.525251	-382.516476	-382.515532	-382.559815	29.708	
O	-0.9009200465	 1.4546835902	 0.1837136207	-0.21498
C	 0.1546475626	 0.9918103433	-0.1576456735	 0.095449
C	 1.4401594607	 1.8217656628	-0.2959301595	 0.283131
O	 2.4482997698	 1.2529761013	-0.6471128651	-0.274742
C	 1.3447629195	 3.293790033	 0.0195968842	-0.298803
C	 2.6857808614	 4.0235997871	-0.1521520612	-0.36442
C	 2.5830598009	 5.4438458777	 0.1558107983	 0.282951
C	 2.4721396613	 6.6118763164	 0.4154248745	-0.42175
H	 0.3074395245	-0.0794364068	-0.4069016516	 0.111129
H	 0.5660066973	 3.7327504079	-0.6162767067	 0.154831
H	 0.9577188867	 3.4030612051	 1.0402526411	 0.154848
H	 3.4395713018	 3.551708739	 0.4884248828	 0.147412
H	 3.0449907032	 3.8846838052	-1.1782640084	 0.147378
H	 2.3902432869	 7.6460973479	 0.6414053344	 0.197566
51.8631	74.3461	99.0166	133.3757	216.8783	254.1814	342.3777	461.0621	487.6994	514.1551	626.3126	634.6402	649.9619	741.5679	825.6484	935.6458	974.3622	1048.9424	1058.898	1155.0106	1173.6019	1295.2956	1309.0167	1363.6394	1391.3123	1436.5758	1470.3333	1802.4064	1825.9093	2242.8459	2927.3862	3039.4729	3048.6592	3063.4751	3082.7377	3506.6994
O=CC(=O)CCC#C	O=CC(=O)CCC#C	
InChI=1S/C6H6O2/c1-2-3-4-6(8)5-7/h1,5H,3-4H2	InChI=1S/C6H6O2/c1-2-3-4-6(8)5-7/h1,5H,3-4H2
