25
gdb 122131	3.08214	0.69262	0.59191	1.596	87.21	-0.2449	0.081	0.3259	1980.7317	0.225426	-426.610412	-426.598296	-426.597351	-426.649229	41.436	
C	-0.0616117235	 1.1296203137	-0.666109039	-0.392164
C	 0.0962809354	-0.3220341603	-0.2104970723	-0.167887
C	 0.8047471857	-0.4648787579	 1.1412401168	 0.113369
C	 0.8799760955	-1.9289312306	 1.5859511708	-0.196165
C	 1.5321657406	-2.125151774	 2.9473840496	-0.062745
O	 1.4983838806	-3.5014800909	 3.2620089915	-0.230502
C	 2.1110225124	-3.7956916212	 4.492441466	-0.22667
O	 2.1270421951	 0.0713799443	 1.0240772475	-0.252013
C	 2.447164594	 1.0970951445	 1.9356500991	-0.23633
H	 0.9146099981	 1.6157874767	-0.7457426434	 0.128796
H	-0.5469807342	 1.1850390772	-1.6451883233	 0.11131
H	-0.6718298003	 1.7057176924	 0.0391172902	 0.107234
H	-0.8858672971	-0.8055700047	-0.1418192515	 0.092698
H	 0.6724241937	-0.8841373006	-0.9558414178	 0.104667
H	 0.2478392857	 0.1139802683	 1.8956771723	 0.062973
H	-0.131959162	-2.3491462976	 1.6184010234	 0.101521
H	 1.4430648986	-2.5003052343	 0.8392345034	 0.111708
H	 2.5719178774	-1.7616721173	 2.9274797437	 0.096531
H	 0.9967790486	-1.5451555542	 3.7212834983	 0.074845
H	 3.1741896359	-3.5056353001	 4.5016721387	 0.101643
H	 1.6124706769	-3.2845805226	 5.3323312197	 0.099423
H	 2.0393970362	-4.8754223954	 4.6461212517	 0.124802
H	 1.7781560711	 1.9648524717	 1.8359948737	 0.105936
H	 2.4123786479	 0.7550212574	 2.9812887168	 0.102329
H	 3.4683273578	 1.4184627756	 1.7116902641	 0.124691
44.3562	57.9727	83.8755	99.7117	112.2935	135.7267	173.5772	227.8674	230.5157	241.3769	293.0139	318.7106	338.7311	447.1179	499.014	562.8904	761.6969	786.3328	878.4549	926.3507	983.9498	1004.4805	1025.4181	1065.534	1116.9126	1124.5032	1136.0751	1161.3198	1172.7434	1182.0003	1185.2265	1221.7415	1228.329	1248.124	1282.5926	1297.5118	1320.5147	1351.6389	1390.1934	1397.6285	1406.534	1424.854	1471.6302	1480.6332	1482.3202	1484.3619	1485.1343	1489.518	1497.147	1504.9846	1507.314	1514.0894	1536.2989	2935.8965	2964.5804	2968.2723	2981.928	2990.628	3005.5993	3023.4434	3026.2456	3033.168	3039.8997	3063.8144	3086.1511	3098.8733	3103.5911	3110.1948	3117.5922
CCC(CCOC)OC	CC[C@@H](CCOC)OC	
InChI=1S/C7H16O2/c1-4-7(9-3)5-6-8-2/h7H,4-6H2,1-3H3	InChI=1S/C7H16O2/c1-4-7(9-3)5-6-8-2/h7H,4-6H2,1-3H3/t7-/m0/s1
