21
gdb 66464	3.32329	1.54285	1.42039	0.1387	85.97	-0.2307	0.0922	0.3229	1038.8923	0.182774	-349.896362	-349.888578	-349.887634	-349.927886	32.229	
C	-0.0008994205	 1.4370659961	 0.0126716781	-0.517495
C	-0.0497890425	-0.0599755438	-0.0057200672	 0.370887
C	 1.0109429876	-1.0643581683	-0.4117217429	-0.164288
C	 0.6051589264	-0.9577055506	 1.0457499583	-0.163021
C	-0.3266147379	-2.1982107997	 1.0057621334	 0.349696
C	 0.0206033782	-3.4076099814	 1.8346263681	-0.508985
C	-1.7706082305	-1.6448330378	 0.8596745099	-0.292718
C	-1.2304028286	-0.9767484999	-0.4261985933	-0.113276
C	-0.138789489	-2.1014111444	-0.5647248453	-0.09752
H	 0.9795432027	 1.7936951085	 0.3475480959	 0.117305
H	-0.1832790539	 1.8586686797	-0.982729247	 0.116396
H	-0.7536765363	 1.8538093885	 0.6931676034	 0.117256
H	 1.970706795	-0.931897638	-0.8944786069	 0.079421
H	 1.1653031179	-0.5607022849	 1.8841939778	 0.072578
H	-0.1056256071	-3.2033273016	 2.9051004474	 0.11377
H	-0.6174218207	-4.2616170967	 1.5819239809	 0.11115
H	 1.0631447594	-3.7071896648	 1.6768637691	 0.116626
H	-2.4849523171	-2.4445165409	 0.6332045831	 0.089539
H	-2.1699036937	-1.0072048153	 1.6560890734	 0.085095
H	-1.8747620518	-0.6522422291	-1.2434339031	 0.056768
H	-0.1995622677	-2.9490458456	-1.2438913231	 0.060815
186.3893	204.0639	216.5915	232.677	284.0287	327.6416	420.1979	526.0424	564.3592	636.2776	737.2537	762.689	811.6902	831.5333	840.2461	851.7819	875.7299	887.564	904.1935	915.3356	951.5184	994.3499	1005.7714	1015.0461	1073.9165	1078.8614	1109.1605	1148.1928	1154.0987	1169.5803	1182.9096	1193.506	1212.7386	1240.5859	1249.7194	1291.2741	1335.5138	1408.8749	1412.2589	1432.0335	1484.087	1486.0126	1491.5248	1492.4582	1499.6611	3016.2757	3017.6082	3029.7349	3074.1349	3078.9443	3084.4883	3087.6008	3089.7168	3111.0382	3137.2833	3177.7819	3193.9372
CC12C3C1C1(C)CC2C31	C[C@@]12[C@H]3[C@@H]1[C@@]1(C)C[C@@H]2[C@@H]31	
InChI=1S/C9H12/c1-8-3-4-5(8)6-7(8)9(4,6)2/h4-7H,3H2,1-2H3	InChI=1S/C9H12/c1-8-3-4-5(8)6-7(8)9(4,6)2/h4-7H,3H2,1-2H3/t4-,5+,6-,7-,8+,9-/m1/s1
