18
gdb 54684	3.38656	1.21696	0.92925	3.5632	75.01	-0.241	-0.0497	0.1913	1256.623	0.147647	-439.122245	-439.113516	-439.112572	-439.156419	31.503	
C	 0.0694653245	 1.4013363174	 0.2088475691	-0.470212
C	 0.0679476922	-0.1082859947	 0.2899177526	 0.331182
O	 1.0732372391	-0.7700949292	 0.3827033272	-0.283094
C	-1.2965547173	-0.7819016529	 0.2426547527	 0.293617
N	-2.3457385049	-0.0693685519	 0.1520719762	-0.305781
C	-3.640181026	-0.733773739	 0.0425830653	-0.157623
C	-3.5270629721	-2.1980125187	-0.391292949	-0.236632
C	-2.4189145231	-2.8548181001	 0.4207145204	-0.071474
O	-1.188983779	-2.1257297013	 0.3004132838	-0.239286
H	 1.097640636	 1.7576841439	 0.279671225	 0.133446
H	-0.3831853045	 1.7310157116	-0.7308017598	 0.148847
H	-0.5419873101	 1.8281617937	 1.0084218514	 0.149984
H	-4.1478477462	-0.6559936129	 1.0140151356	 0.11871
H	-4.2519220335	-0.1610559749	-0.6629187991	 0.117893
H	-4.470200531	-2.7334469833	-0.2441088808	 0.109326
H	-3.2767389904	-2.2548898352	-1.4564719425	 0.120186
H	-2.6898961311	-2.899943928	 1.4839091575	 0.115562
H	-2.1930814927	-3.8680138445	 0.0816460243	 0.125349
48.771	107.428	119.9034	189.007	200.544	292.7291	352.3878	458.8509	494.0081	503.7023	548.2749	628.719	710.1249	816.9215	863.2838	883.2063	928.9051	951.7269	981.9141	1040.4548	1077.1485	1092.2191	1134.4567	1167.788	1221.9881	1247.1712	1295.2903	1301.2646	1367.328	1375.6679	1390.6619	1413.623	1455.1512	1463.5932	1478.3479	1484.5524	1512.4948	1715.2263	1812.9058	3014.3859	3023.0425	3043.9797	3055.627	3062.3524	3094.0252	3108.0949	3121.1469	3159.1231
CC(=O)C1=NCCCO1	CC(=O)C1=NCCCO1	
InChI=1S/C6H9NO2/c1-5(8)6-7-3-2-4-9-6/h2-4H2,1H3	InChI=1S/C6H9NO2/c1-5(8)6-7-3-2-4-9-6/h2-4H2,1H3
