13
gdb 10667	2.9685	1.99844	1.35037	5.0205	59.27	-0.2773	-0.0528	0.2244	882.32	0.092682	-398.598165	-398.590115	-398.589171	-398.631128	27.742	
C	-0.7520376922	 1.1507007573	 0.1399522414	-0.488648
C	 0.3686698191	 0.1689938359	-0.1072112317	 0.320571
O	 1.3330925198	 0.0485232897	 0.604314781	-0.267851
C	 0.2511561135	-0.6989060161	-1.3568116805	 0.146215
C	-0.9652881433	-1.5291790452	-1.5658606721	-0.197874
O	-0.7536820086	-0.343920271	-2.3112078615	-0.236104
C	 1.5061517686	-1.1738737104	-1.9085098376	 0.273717
N	 2.4970968784	-1.5511419275	-2.3656323743	-0.317833
H	-0.7554847139	 1.904832264	-0.6542721644	 0.168658
H	-1.7340153633	 0.6693239598	 0.1140048822	 0.146681
H	-0.595303426	 1.6285109165	 1.1069812733	 0.15461
H	-0.8603369003	-2.4621450807	-2.1147959503	 0.157981
H	-1.7606645916	-1.4936164424	-0.8241712357	 0.139876
58.3142	109.8574	148.0855	221.9069	251.1901	272.6719	409.4312	449.4472	535.1538	591.5588	625.3182	634.7921	856.651	880.6476	932.1079	964.8963	1045.9434	1118.8063	1138.0449	1168.9255	1286.4486	1338.5113	1389.7422	1452.3492	1467.2274	1519.3946	1823.8206	2369.5475	3049.6962	3099.1024	3111.8267	3163.0892	3198.1308
CC(=O)C1(CO1)C#N	CC(=O)[C@]1(CO1)C#N	
InChI=1S/C5H5NO2/c1-4(7)5(2-6)3-8-5/h3H2,1H3	InChI=1S/C5H5NO2/c1-4(7)5(2-6)3-8-5/h3H2,1H3/t5-/m1/s1
