23
gdb 109651	2.09009	1.11825	1.01646	2.8585	87.92	-0.2438	-0.017	0.2268	1389.6258	0.202536	-388.305565	-388.294455	-388.293511	-388.342076	39.53	
C	-1.7697628065	 2.2288063958	-1.4706503728	-0.374673
C	-0.9983917896	 1.2229679475	-0.6051190631	-0.21153
C	-1.8025925031	-0.0357456974	-0.3497091146	-0.030281
C	-1.8063502153	-1.2303672668	-1.2506791317	-0.037299
C	-0.9968702736	-1.3365659289	-2.52424818	-0.422312
C	-1.1563957667	-1.3418245141	 0.1412010316	 0.174376
C	 0.343086638	-1.482466328	 0.32036796	-0.486244
C	-1.9716409911	-2.0907917195	 1.1351538198	 0.099329
O	-3.1809231539	-2.1015130497	 1.1751229871	-0.278675
H	-1.1896976914	 3.144345185	-1.6222531228	 0.112139
H	-2.0005958828	 1.8077507767	-2.4544229048	 0.120586
H	-2.7184510883	 2.5071547986	-0.9996545452	 0.120734
H	-0.0428754795	 0.9912795726	-1.0856504913	 0.095165
H	-0.7478182222	 1.6885669671	 0.3565785366	 0.102378
H	-2.7592783999	 0.1497100234	 0.1343876214	 0.10428
H	-2.7623414236	-1.7462316777	-1.2923906062	 0.107179
H	-0.0610210032	-0.7745395752	-2.4872186764	 0.118275
H	-0.7488347291	-2.380008086	-2.7463212692	 0.122982
H	-1.5755359434	-0.9499884187	-3.3704526846	 0.125829
H	 0.9088583096	-0.9633804124	-0.4538558509	 0.123978
H	 0.6650078397	-1.077042653	 1.286351801	 0.123979
H	 0.6429192957	-2.5363043982	 0.2896798889	 0.122591
H	-1.3773373298	-2.671866401	 1.8777167573	 0.067215
57.5833	85.0223	100.2871	145.2098	160.7182	189.1706	212.1634	223.9866	252.5793	299.5409	308.6164	412.2083	473.6445	538.7828	628.8918	710.1279	746.1653	771.1492	832.0368	930.3739	966.0472	986.0876	999.5111	1039.644	1050.8852	1077.1259	1110.8145	1126.3563	1141.3773	1158.5641	1195.4879	1253.0409	1292.2411	1307.7046	1337.8438	1389.0792	1408.0941	1414.8453	1424.2947	1433.008	1448.0016	1478.981	1490.7424	1493.7363	1497.3624	1501.1021	1504.1223	1514.6952	1799.7965	2862.3195	3027.3094	3031.6557	3034.4768	3036.8418	3070.5971	3083.758	3091.2444	3105.0617	3107.4508	3116.3476	3131.8555	3138.5903	3146.7198
CCC1C(C)C1(C)C=O	CC[C@H]1[C@@H](C)[C@]1(C)C=O	
InChI=1S/C8H14O/c1-4-7-6(2)8(7,3)5-9/h5-7H,4H2,1-3H3	InChI=1S/C8H14O/c1-4-7-6(2)8(7,3)5-9/h5-7H,4H2,1-3H3/t6-,7+,8+/m1/s1
