15
gdb 15293	3.06535	1.54087	1.23655	2.8932	68.72	-0.2428	-0.0309	0.2119	988.6963	0.116393	-362.593802	-362.585665	-362.58472	-362.626616	29.222	
O	-0.9329772882	 1.087306292	-0.5530003645	-0.264671
C	-0.277471267	 1.818602276	 0.1502291479	 0.136939
C	 1.2101128942	 1.7756372512	 0.1846099874	-0.084297
C	 1.9648763434	 3.0683827702	 0.366229748	-0.251224
N	 1.9985703815	 2.0609961165	 1.3934053252	-0.087457
C	 1.3834341682	 2.283762469	 2.7138646352	-0.287094
C	 0.5042428441	 3.4423975	 2.8844908413	 0.294238
C	-0.1844154781	 4.4171617476	 3.0343282896	-0.450222
H	-0.7538914871	 2.5730440073	 0.8082694466	 0.09837
H	 1.6316164773	 0.9965772553	-0.445876811	 0.114852
H	 2.884898867	 3.2196402686	-0.1919568665	 0.132279
H	 1.3717548599	 3.9644083491	 0.5420844087	 0.135303
H	 0.8534490424	 1.3661437938	 2.992711082	 0.151541
H	 2.2166584168	 2.3842855213	 3.4204259162	 0.151899
H	-0.8062553447	 5.2675294422	 3.1723518739	 0.209545
80.4306	107.7047	151.0676	216.5857	277.7618	332.1543	382.5275	399.2259	511.9405	579.4969	625.8314	673.8287	736.2303	864.3762	896.91	933.7703	995.0031	1012.5164	1050.8331	1090.277	1123.6377	1151.8744	1184.8838	1283.1765	1303.3848	1335.5553	1371.505	1442.4523	1469.6537	1502.1286	1806.6261	2226.2499	2937.9049	3030.0559	3068.4127	3098.4744	3147.3329	3188.5799	3500.2191
O=CC1CN1CC#C	O=C[C@H]1CN1CC#C	
InChI=1S/C6H7NO/c1-2-3-7-4-6(7)5-8/h1,5-6H,3-4H2	InChI=1S/C6H7NO/c1-2-3-7-4-6(7)5-8/h1,5-6H,3-4H2/t6-,7?/m1/s1
