18
gdb 104537	2.44088	1.35236	1.1131	5.9416	71.72	-0.2611	0.0285	0.2896	1153.2863	0.146773	-439.075834	-439.066604	-439.06566	-439.110851	32.938	
O	 0.42590103	 1.3075577389	-0.1212632998	-0.408991
C	 0.265733155	-0.0887683533	-0.1916963177	-0.086869
C	-1.1956861057	-0.5186825726	-0.0856109955	 0.382377
C	-2.0935914576	 0.0869885297	-1.1814998121	-0.39479
C	-2.342149819	 1.5200623009	-1.0273523105	 0.289529
N	-2.5999793276	 2.640874894	-0.9190447461	-0.317808
C	-1.3978079695	-2.0311711575	 0.1742051251	-0.35215
C	-1.8851778394	-1.5834942665	 1.567063161	-0.064277
O	-1.7130381276	-0.187107616	 1.2295737164	-0.320286
H	-0.0180157138	 1.609333043	 0.6809385003	 0.302206
H	 0.6790997201	-0.4090398603	-1.155815567	 0.110191
H	 0.8303636226	-0.6065277863	 0.6003939557	 0.089777
H	-1.6536296995	-0.0993517759	-2.1680097133	 0.152376
H	-3.0661113627	-0.4162361058	-1.159519962	 0.149134
H	-2.1492851551	-2.513311199	-0.4529172728	 0.117568
H	-0.4833129848	-2.6269706693	 0.1599098125	 0.12037
H	-2.9278403976	-1.8135263514	 1.8108699595	 0.116681
H	-1.2490580178	-1.8809264024	 2.4080152862	 0.114961
40.6315	85.5432	92.4354	143.3807	221.982	307.3838	343.8561	385.6161	390.4512	457.3211	475.8001	533.0962	742.9362	783.2314	854.037	885.4918	922.5243	947.6245	974.4234	990.3001	1016.4438	1071.4855	1096.3437	1152.5317	1161.3503	1186.1797	1213.7134	1251.2753	1274.006	1305.534	1328.7776	1353.7773	1392.0336	1427.0877	1455.6653	1491.4628	1495.4101	1530.7744	2365.2755	2975.0976	3032.6337	3044.2957	3059.1009	3075.4188	3079.7521	3087.3364	3134.6663	3790.561
OCC1(CC#N)CCO1	OC[C@@]1(CC#N)CCO1	
InChI=1S/C6H9NO2/c7-3-1-6(5-8)2-4-9-6/h8H,1-2,4-5H2	InChI=1S/C6H9NO2/c7-3-1-6(5-8)2-4-9-6/h8H,1-2,4-5H2/t6-/m1/s1
