15
gdb 28078	4.69698	0.94615	0.78877	5.6602	72.99	-0.193	0.0265	0.2195	1366.6523	0.114097	-450.157793	-450.149291	-450.148347	-450.19222	30.547	
N	 0.0101960933	 1.3578805863	 0.1452592598	-0.593866
C	-0.0235492205	-0.0261273826	 0.0250964618	 0.413715
N	-1.1160226575	-0.7628809331	-0.0067620063	-0.400865
C	-0.66100102	-2.0569954611	-0.030315137	 0.393559
O	-1.4830100403	-3.1418612175	-0.0787087351	-0.228396
C	-2.8261637641	-2.9588040377	 0.0133577474	 0.100967
N	-3.5744553175	-3.9733930508	-0.0449824643	-0.442324
C	 0.6997739319	-2.1247143619	-0.0272849104	-0.234238
N	 1.1004366279	-0.7855162586	 0.0049732706	-0.291795
H	 0.6297117082	 1.8138245836	-0.5135582986	 0.252223
H	-0.9248788507	 1.735645273	 0.0628663944	 0.264574
H	-3.1101019196	-1.9122144322	 0.1310593973	 0.133509
H	-4.5459575925	-3.6801577606	 0.0404432706	 0.228229
H	 1.3936422215	-2.94414866	-0.0655654866	 0.137499
H	 2.0421562297	-0.4540302167	 0.1223477764	 0.267208
23.7716	99.9378	158.6323	225.1094	242.9299	332.9995	368.0962	450.2773	457.4894	526.583	624.8822	676.1246	701.3579	719.9081	783.1725	822.5273	829.964	1001.5139	1020.7771	1060.863	1086.1477	1102.2582	1146.3393	1259.8954	1300.4917	1323.9182	1386.1021	1407.226	1523.2849	1602.274	1631.894	1656.0816	1740.5176	3128.4934	3302.9481	3511.8413	3535.5696	3633.7495	3676.7909
NC1=NC(OC=N)=CN1	Nc1nc(O[CH][NH])c[nH]1	
InChI=1S/C4H6N4O/c5-2-9-3-1-7-4(6)8-3/h1-2,5H,(H3,6,7,8)	InChI=1S/C4H6N4O/c5-2-9-3-1-7-4(6)8-3/h1-2,5H,(H3,6,7,8)
