20
gdb 40619	4.08118	1.22664	1.1993	1.0393	84.17	-0.2189	0.0186	0.2375	1119.7213	0.172886	-365.935751	-365.928455	-365.927511	-365.967413	30.047	
C	-0.0084224739	 1.2939436973	-0.3762931124	-0.222446
C	 1.329334691	 0.8797182291	 0.1275611488	-0.226104
N	 0.2220842768	-0.0665057179	 0.0952867279	-0.094
C	-0.2964850845	-0.551445991	 1.3548592551	 0.096024
C	-1.2333933555	 0.3400401346	 2.2974271088	-0.110316
C	-2.3980273859	-0.0487148922	 1.3268463621	-0.215228
C	-1.6276602896	-1.4075951596	 1.2952893632	-0.085852
C	-1.7140983611	-1.8145613403	 2.7650138793	-0.090822
C	-1.4517077684	-0.6747823817	 3.4179756765	-0.094303
H	-0.5783064115	 1.9767634189	 0.2489982841	 0.119201
H	-0.1919426269	 1.3960291253	-1.442697716	 0.116652
H	 2.147214234	 0.6777294781	-0.5591827599	 0.115167
H	 1.6339567428	 1.2788099758	 1.0944416553	 0.109364
H	 0.5241030044	-1.0485941619	 1.8788298247	 0.075982
H	-1.0054268801	 1.3718084122	 2.5666295151	 0.056893
H	-3.4062889393	-0.0590260265	 1.7480099767	 0.090845
H	-2.3833520983	 0.4833444764	 0.3729329388	 0.102474
H	-1.785534363	-2.1552450765	 0.5192451046	 0.062738
H	-1.8985268222	-2.8081323889	 3.1481834071	 0.097478
H	-1.3610680888	-0.4850552912	 4.4782399503	 0.096255
94.4796	175.145	202.9883	353.4028	378.0758	450.9805	519.4629	555.1884	697.1873	709.6627	789.022	821.2738	842.0726	855.8281	883.6803	906.4663	911.3943	924.1891	937.5488	948.9682	990.9369	1024.9111	1061.4744	1068.7715	1078.9097	1113.0511	1118.1342	1128.0138	1143.3443	1174.6245	1179.8268	1201.607	1222.0168	1226.1475	1249.402	1261.2727	1328.4549	1336.4643	1381.1213	1493.22	1495.941	1521.4902	1614.9502	3063.0584	3073.4956	3089.2753	3103.9886	3109.0154	3126.2724	3129.4935	3171.7129	3190.5833	3216.8727	3243.5001
C1CN1C1C2CC1C=C2	C1CN1[C@H]1[C@H]2C[C@@H]1C=C2	
InChI=1S/C8H11N/c1-2-7-5-6(1)8(7)9-3-4-9/h1-2,6-8H,3-5H2	InChI=1S/C8H11N/c1-2-7-5-6(1)8(7)9-3-4-9/h1-2,6-8H,3-5H2/t6-,7+,8+
