20
gdb 52239	4.81579	0.7396	0.6976	3.4725	80.11	-0.2389	-0.0187	0.2201	1615.6883	0.170331	-403.108845	-403.099962	-403.099018	-403.143755	32.433	
O	-0.0612686403	-0.1770484078	-0.1293635492	-0.237683
C	 0.0182318488	 1.0213755863	-0.0471312362	 0.156348
C	 1.2985712091	 1.8175103631	-0.117204216	-0.266236
C	 1.2569730438	 2.8777760639	-1.2338309866	-0.227306
C	 2.4696037501	 3.7956100134	-1.1847615476	 0.076105
C	 2.5532403859	 5.0551976521	-2.0939403956	-0.296159
C	 2.734831237	 5.8518408111	-0.8039837684	-0.004161
C	 1.5965380611	 5.6400928867	 0.1049618147	-0.243129
N	 2.6599484273	 4.6136213508	 0.0772714629	-0.144113
H	-0.8981708136	 1.6457258934	 0.0867110368	 0.066356
H	 1.4301278763	 2.3334540909	 0.8443436984	 0.14098
H	 2.1365538529	 1.1269343889	-0.2491554184	 0.121562
H	 1.2288640134	 2.3865679721	-2.2146932057	 0.115395
H	 0.3296071431	 3.4589646144	-1.157603229	 0.101163
H	 3.3743031461	 3.1893368602	-1.2916850548	 0.090335
H	 3.4266596738	 5.0513345115	-2.747729899	 0.114075
H	 1.6702611439	 5.3098004544	-2.6889781741	 0.103198
H	 3.4847592498	 6.6177314141	-0.6360769014	 0.098576
H	 1.5841815192	 6.1882138172	 1.0418251733	 0.124138
H	 0.6109856425	 5.4255094335	-0.3012470641	 0.110558
52.8187	64.5752	96.4386	140.2546	233.6643	302.6286	338.1931	413.6784	523.0938	537.7914	696.3116	752.9971	762.9348	777.4384	826.4047	869.9619	935.3752	955.4845	974.6301	1008.8127	1026.7661	1062.691	1093.9389	1099.4771	1107.5992	1129.1826	1131.2602	1176.9086	1214.1129	1233.6821	1258.8376	1268.5192	1287.689	1316.7092	1353.2838	1367.6733	1401.0082	1432.4186	1464.1911	1485.0307	1491.2607	1509.2087	1836.6731	2840.7209	3021.1957	3029.4261	3049.0955	3051.0177	3066.506	3101.0101	3110.8408	3119.7347	3165.972	3199.4264
O=CCCC1CC2CN12	O=CCC[C@H]1C[C@H]2CN12	
InChI=1S/C7H11NO/c9-3-1-2-6-4-7-5-8(6)7/h3,6-7H,1-2,4-5H2	InChI=1S/C7H11NO/c9-3-1-2-6-4-7-5-8(6)7/h3,6-7H,1-2,4-5H2/t6-,7-,8?/m0/s1
