19
gdb 60310	3.68662	0.76392	0.66731	3.1342	79.77	-0.2943	-0.0524	0.2419	1687.1261	0.157418	-419.229404	-419.219209	-419.218265	-419.265507	35.782	
C	-0.0328162019	 1.5535429087	 0.1038854676	-0.385965
C	 0.0091949166	 0.0209559286	 0.0573669222	 0.010046
C	 0.6187019624	-0.4893163585	-1.2553559615	-0.395615
C	 0.7900585988	-0.5567676086	 1.2321288849	-0.053575
O	 0.1128516823	-0.1749151689	 2.450509168	-0.235797
C	 0.6729227968	-0.5748850515	 3.5920822204	 0.327592
N	 1.739376082	-1.2583435047	 3.66485675	-0.517846
C	-0.0997783235	-0.1247696429	 4.7393982962	 0.251948
N	-0.6655307875	 0.2014060045	 5.6928831991	-0.316569
H	 0.9759998121	 1.9740862868	 0.0130322027	 0.113362
H	-0.633566396	 1.9498654748	-0.7203759516	 0.116486
H	-0.4645114022	 1.909996411	 1.0422650872	 0.131658
H	-1.0185344078	-0.3578176632	 0.1339277616	 0.09062
H	 1.6563116944	-0.1532071068	-1.3656015304	 0.119649
H	 0.6127094972	-1.5830095737	-1.3069125899	 0.117606
H	 0.0560058346	-0.1098087176	-2.1131387168	 0.121675
H	 0.8434291931	-1.6496736892	 1.1933908856	 0.125646
H	 1.8170146541	-0.1753787999	 1.2675239947	 0.126585
H	 1.9913513545	-1.4546066589	 4.6306882701	 0.252492
50.377	59.0961	101.2068	163.1335	203.3141	213.7916	246.7424	272.2033	345.282	346.358	424.8946	430.5891	542.9738	615.5287	733.669	822.9731	853.0551	908.3143	915.9844	931.798	957.5996	978.4152	1004.2419	1115.7052	1154.261	1187.8606	1199.9304	1274.6484	1326.7677	1357.3291	1376.7371	1400.9164	1412.8269	1432.6279	1487.9817	1490.2168	1502.6631	1505.388	1513.8684	1701.8386	2356.2881	3021.9503	3029.2656	3033.1347	3043.5658	3088.3052	3095.379	3101.5412	3109.5367	3123.3925	3532.9011
CC(C)COC(=N)C#N	CC(C)CO[C]([NH])C#N	
InChI=1S/C6H10N2O/c1-5(2)4-9-6(8)3-7/h5,8H,4H2,1-2H3	InChI=1S/C6H10N2O/c1-5(2)4-9-6(8)3-7/h5,8H,4H2,1-2H3
