15
gdb 133028	3.08531	1.50701	1.0189	2.9883	76.47	-0.2023	-0.0478	0.1545	1099.5117	0.113183	-458.119719	-458.111802	-458.110857	-458.152586	29.082	
C	 0.1546484773	 1.430475772	 0.315646307	-0.319057
N	 0.0244471605	 0.0070723305	 0.0599445524	-0.34537
C	-1.1031696676	-0.5579089785	-0.1229907357	 0.278212
N	-1.1158687311	-1.9388223163	-0.3624673859	-0.332889
C	-2.2428070937	-2.6772985883	-0.5752942676	 0.009274
C	-3.4516606731	-2.0689831618	-0.5617247513	-0.081563
N	-3.5521429299	-0.7111333288	-0.3348408974	-0.283587
C	-2.4866613379	-0.0421167592	-0.1386449759	 0.254683
F	-2.6029794397	 1.2658994992	 0.0783419494	-0.06401
H	 1.2172791754	 1.6586507896	 0.4357807015	 0.115812
H	-0.2297131518	 2.0478893415	-0.5059255384	 0.12018
H	-0.3616422973	 1.7481148544	 1.2302252311	 0.12018
H	-0.2003251357	-2.3652762505	-0.3668624931	 0.266611
H	-2.1033806252	-3.736483747	-0.7476689641	 0.138403
H	-4.3722935202	-2.6108486469	-0.724974982	 0.12312
70.9775	106.0886	222.4866	231.898	273.9867	372.4234	433.1574	474.4349	562.1046	571.0328	594.2762	674.8693	717.3374	772.6555	787.7113	903.1836	905.3639	1045.4445	1101.8935	1111.2769	1121.723	1179.5528	1248.241	1269.9526	1339.0135	1410.8398	1444.9832	1487.7123	1505.2013	1507.4101	1610.7614	1666.925	1724.1091	3006.849	3060.5288	3093.9285	3218.5403	3238.4116	3614.4485
CN=C1NC=CN=C1F	CN=c1[nH]ccnc1F	
InChI=1S/C5H6FN3/c1-7-5-4(6)8-2-3-9-5/h2-3H,1H3,(H,7,9)	InChI=1S/C5H6FN3/c1-7-5-4(6)8-2-3-9-5/h2-3H,1H3,(H,7,9)
