21
gdb 63956	2.67901	1.64432	1.47947	1.9385	76.75	-0.2396	0.0747	0.3143	1008.2328	0.184043	-424.243281	-424.235267	-424.234323	-424.275122	32.908	
C	-0.1821542214	 1.5636468354	 0.0056275207	-0.463368
C	 0.0014198228	 0.0505487014	-0.0170906941	 0.406248
O	-1.2654776086	-0.6100392212	 0.0322343165	-0.483174
C	 0.8786381357	-0.4760658053	-1.2109795051	-0.271597
C	 1.9889034862	-1.2936786743	-0.5066073878	-0.04726
C	 2.8898813379	-0.2951326455	 0.2322729589	-0.071665
O	 2.0404426005	 0.2241820436	 1.2751248604	-0.284612
C	 0.8031628868	-0.4988380042	 1.1895499283	 0.092057
C	 1.2279487406	-1.8868374069	 0.7003935119	-0.239837
H	 0.779999791	 2.0718086554	 0.0969880196	 0.135084
H	-0.6677506958	 1.9083586481	-0.9159178538	 0.099084
H	-0.8108749599	 1.8552432935	 0.8526522573	 0.119849
H	-1.8057521266	-0.2681618655	-0.6877846257	 0.274666
H	 0.2643960492	-1.1136910429	-1.8531543302	 0.094355
H	 1.287856443	 0.3335835593	-1.8234425151	 0.09354
H	 2.5279853667	-1.990880931	-1.1492124907	 0.065925
H	 3.7700170283	-0.7744302283	 0.6817235074	 0.094556
H	 3.232328162	 0.5285322245	-0.4061450213	 0.094091
H	 0.2823832752	-0.4187045691	 2.1437443743	 0.076446
H	 0.3808709509	-2.515007388	 0.4227445435	 0.118509
H	 1.8710438856	-2.4088595391	 1.4133329148	 0.097101
130.2714	234.562	241.7936	255.4254	309.2145	352.4894	387.8592	435.9256	472.9924	495.6884	560.1387	693.2771	787.1878	816.2559	857.0588	899.5759	916.891	930.0812	937.2514	949.8559	965.2417	973.2546	1001.989	1028.2101	1075.8336	1097.9173	1116.2383	1143.3075	1179.9775	1191.6391	1234.2375	1243.4507	1264.3028	1282.5442	1306.4299	1319.8307	1334.6024	1377.7601	1390.5133	1403.4282	1476.5017	1486.3831	1493.0387	1498.9855	1531.3323	3006.6821	3025.6282	3044.3666	3048.1123	3074.9878	3093.4931	3095.7098	3109.0148	3124.3728	3133.1919	3141.3492	3807.9732
CC1(O)CC2COC1C2	C[C@@]1(O)C[C@H]2CO[C@@H]1C2	
InChI=1S/C7H12O2/c1-7(8)3-5-2-6(7)9-4-5/h5-6,8H,2-4H2,1H3	InChI=1S/C7H12O2/c1-7(8)3-5-2-6(7)9-4-5/h5-6,8H,2-4H2,1H3/t5-,6+,7+/m0/s1
