15
gdb 132499	3.12872	1.33387	0.94059	0.9694	71.68	-0.2283	-0.0255	0.2028	1156.0846	0.112803	-461.987614	-461.979847	-461.978903	-462.0201	29.235	
C	-0.0731674151	 1.5357758973	 0.0531490418	-0.497089
C	-0.0055628612	 0.036166308	-0.0196283514	 0.191097
C	 0.0064923383	-0.6655156726	-1.2164599524	-0.291455
C	 0.0712445256	-2.0634953751	-1.1823077258	 0.44245
O	 0.0824793847	-2.7377326314	-2.3535672512	-0.421612
N	 0.1227412991	-2.7751338478	-0.0645799169	-0.368714
C	 0.1115784855	-2.1063542228	 1.0955197501	-0.104887
C	 0.0492687814	-0.7291145107	 1.1500397756	 0.170819
F	 0.040713046	-0.1067221943	 2.3387570984	-0.079542
H	 0.7964909748	 1.9406784564	 0.5809514146	 0.146927
H	-0.110461325	 1.9770606248	-0.944783189	 0.130904
H	-0.9577602633	 1.8601439802	 0.6109142237	 0.146925
H	-0.0331596024	-0.1515921395	-2.169688143	 0.112123
H	 0.1294359436	-3.6745992381	-2.1190880932	 0.298133
H	 0.1536144381	-2.6852806645	 2.0136306587	 0.123922
84.8523	150.0326	204.7693	265.2353	346.5565	389.6003	449.6637	463.5965	517.2433	526.9891	578.522	637.6417	765.5114	770.5679	784.1568	890.3325	941.6246	971.5206	1019.9784	1062.554	1156.6386	1201.996	1251.5203	1296.851	1324.7431	1366.8675	1413.0615	1468.0869	1478.8234	1494.7402	1529.8314	1622.8682	1667.1194	3042.6765	3098.1326	3132.6949	3173.7536	3199.9094	3773.5957
CC1=CC(O)=NC=C1F	Cc1cc(O)ncc1F	
InChI=1S/C6H6FNO/c1-4-2-6(9)8-3-5(4)7/h2-3H,1H3,(H,8,9)	InChI=1S/C6H6FNO/c1-4-2-6(9)8-3-5(4)7/h2-3H,1H3,(H,8,9)
