15
gdb 28956	3.31779	1.12317	0.89491	0.9214	67.58	-0.2146	-0.0426	0.172	1232.2674	0.112504	-453.985965	-453.977687	-453.976743	-454.020266	29.429	
O	 0.2626016654	 1.3206765969	 0.1657095714	-0.428808
C	 0.1564092979	-0.0104120375	 0.001319256	 0.443501
N	 0.1724325049	-0.6645486905	-1.127047133	-0.372884
C	 0.0306749542	-1.9924960143	-0.7548703567	-0.091783
C	-0.0696428724	-2.1106633285	 0.5984020491	-0.142224
N	 0.0192676705	-0.8080412998	 1.0957123072	-0.058269
C	-0.0633734148	-0.3904869661	 2.475518709	-0.268438
C	-1.4876778964	-0.4481367038	 3.0269378637	 0.149396
O	-1.7366632809	-0.5497145757	 4.1967545399	-0.222451
H	 0.3744931084	 1.6942062627	-0.7174529107	 0.318412
H	 0.0117987458	-2.7779559368	-1.4940590036	 0.11511
H	-0.1779196821	-2.9552725801	 1.2580422862	 0.132803
H	 0.5897443838	-0.995406158	 3.1113112369	 0.151669
H	 0.2781473608	 0.6482249034	 2.5399986592	 0.172646
H	-2.2811066951	-0.3728072721	 2.2500167754	 0.101321
37.6415	73.7785	103.3776	266.2951	278.82	350.0722	405.457	419.5515	500.0535	630.7754	674.3048	681.4145	734.8155	745.9072	815.1353	842.9078	932.6351	1033.7837	1049.2497	1105.1901	1121.1877	1190.518	1215.876	1298.0145	1313.0189	1342.3644	1386.4369	1408.607	1449.0448	1552.4569	1569.2904	1607.3223	1844.6155	2891.6419	3058.0426	3108.8687	3254.7027	3282.0822	3808.2537
OC1=NC=CN1CC=O	Oc1nccn1CC=O	
InChI=1S/C5H6N2O2/c8-4-3-7-2-1-6-5(7)9/h1-2,4H,3H2,(H,6,9)	InChI=1S/C5H6N2O2/c8-4-3-7-2-1-6-5(7)9/h1-2,4H,3H2,(H,6,9)
