19
gdb 126216	2.20432	1.34322	0.89481	3.7165	78.39	-0.2228	0.0261	0.2489	1319.4213	0.160269	-419.228809	-419.219439	-419.218495	-419.264229	33.462	
C	-0.2302567924	 1.5461170014	 0.0836944444	-0.362476
C	-0.0480201529	 0.0190070934	 0.0203681876	-0.309853
C	 0.7132900423	-0.448325657	-1.1856655611	 0.092718
C	 2.0837438025	-0.5983423774	-1.3312170026	 0.306009
C	 3.2328284661	-0.3611842773	-0.406422272	-0.199218
O	 4.3206574602	-1.1666312697	-0.8480455818	-0.424124
N	 2.2915466027	-1.0114446514	-2.6055345403	-0.233776
N	 1.1564054216	-1.1661158246	-3.3097343315	-0.236705
C	 0.2011742604	-0.8135421553	-2.4539730421	-0.077917
H	 0.7372706235	 2.0579651456	 0.1162290918	 0.111278
H	-0.7652369549	 1.911732896	-0.7982370342	 0.122783
H	-0.7981368866	 1.8388795456	 0.9729729505	 0.109195
H	 0.4571276553	-0.3200481753	 0.9339620852	 0.096979
H	-1.0345991965	-0.4589767649	 0.0279032087	 0.107373
H	 3.5154939885	 0.7042259451	-0.4105546269	 0.110691
H	 2.9335536986	-0.6092967706	 0.6235808572	 0.111182
H	 5.1123950949	-0.8854787802	-0.3807673943	 0.295636
H	 3.178190181	-1.2833244691	-2.9959200382	 0.276375
H	-0.8339112344	-0.8411177143	-2.7654554005	 0.10385
31.2669	64.238	153.1935	170.8522	208.2267	238.4664	275.7373	308.6002	395.3645	503.132	560.2039	623.7902	683.2535	714.2636	747.8695	785.2443	883.6624	954.7061	977.3696	1030.1598	1050.7987	1063.5656	1082.1229	1140.0768	1181.4048	1215.0318	1232.5128	1246.2409	1293.465	1318.5982	1350.5994	1390.1562	1408.9439	1420.5469	1471.7644	1484.6749	1495.7007	1506.2207	1512.9309	1528.6023	1622.2824	2963.496	2993.784	3020.3996	3032.1439	3056.1901	3101.553	3108.8769	3233.0475	3676.8226	3837.637
CCC1=C(CO)NN=C1	CCc1c(CO)[nH]nc1	
InChI=1S/C6H10N2O/c1-2-5-3-7-8-6(5)4-9/h3,9H,2,4H2,1H3,(H,7,8)	InChI=1S/C6H10N2O/c1-2-5-3-7-8-6(5)4-9/h3,9H,2,4H2,1H3,(H,7,8)
