16
gdb 16844	3.71523	1.78933	1.43641	0.8479	58.89	-0.2597	0.0687	0.3284	870.2538	0.13109	-420.85904	-420.851824	-420.85088	-420.890508	27.774	
O	 0.1020836736	 1.390033	-0.0625852414	-0.436164
C	 0.0373925483	-0.0224205375	-0.0808825417	 0.129237
C	 0.8104279948	-0.7202165572	 1.0670743253	-0.295176
C	 0.0629782446	-2.0451155937	 1.3641719037	 0.129236
O	 0.1510967612	-2.4843914591	 2.7053713591	-0.436163
C	-1.3582626495	-1.7652693547	 0.9009049118	-0.000485
O	-1.8529568272	-0.5101345942	 1.4082855319	-0.278842
C	-1.3733173021	-0.5751047457	 0.0506231499	-0.000488
H	-0.3355186072	 1.6800412134	 0.7466763142	 0.286742
H	 0.4414559404	-0.3170960521	-1.0564416927	 0.095843
H	 1.8643405184	-0.8753052196	 0.8313307034	 0.113495
H	 0.7652251149	-0.084782016	 1.9573123731	 0.102627
H	 0.4736897629	-2.8656509674	 0.7642932687	 0.095844
H	-0.2911908552	-1.8201839079	 3.2473256716	 0.286741
H	-2.0935461577	-2.5626446474	 0.8354794823	 0.103776
H	-2.1210155701	-0.390946361	-0.7160336492	 0.103777
91.5855	146.7276	255.6708	365.5563	373.491	410.0001	442.4534	491.7839	583.8139	629.5261	666.6604	821.4284	842.3644	880.3511	904.8466	960.9733	1008.1	1037.6469	1088.9354	1106.4849	1106.4929	1112.3164	1154.7403	1237.5469	1255.8108	1296.6082	1301.9043	1328.1798	1328.3901	1346.0584	1430.2932	1431.8508	1438.9726	1480.6298	3048.4373	3048.961	3062.5612	3124.7238	3151.8143	3164.3282	3790.8897	3791.748
OC1CC(O)C2OC12	O[C@H]1C[C@@H](O)[C@H]2O[C@@H]12	
InChI=1S/C5H8O3/c6-2-1-3(7)5-4(2)8-5/h2-7H,1H2	InChI=1S/C5H8O3/c6-2-1-3(7)5-4(2)8-5/h2-7H,1H2/t2-,3+,4-,5+
