17
gdb 117606	2.24343	1.1652	0.94054	4.3051	75.81	-0.2601	-0.0022	0.258	1314.5871	0.133535	-417.960301	-417.95035	-417.949406	-417.995282	35.685	
C	 0.2445263177	 1.4440670669	-0.1200828325	-0.323757
N	 0.0501514972	 0.0062711971	 0.0535559007	-0.308146
C	 0.5121151167	-0.5156646329	 1.3303613603	-0.178327
C	 0.6864688036	-2.0598162159	 1.1863445489	 0.010085
O	 1.44183585	-2.3307520822	 0.0295838894	-0.428813
C	 1.351326349	-2.6111757896	 2.3676283714	 0.332259
C	 1.8880100017	-3.0223725232	 3.3587388315	-0.406626
C	-0.6751870511	-2.6635643093	 1.0575153921	 0.267799
N	-1.7469497573	-3.072357512	 0.9168709542	-0.345066
H	 1.3151225952	 1.6713521532	-0.1008211367	 0.135259
H	-0.1461014605	 1.744659637	-1.0957593386	 0.134032
H	-0.2467857436	 2.0556828131	 0.6530695186	 0.112732
H	-0.9292293918	-0.2287718957	-0.0776094258	 0.244464
H	 1.5061306048	-0.1079683132	 1.5361073089	 0.132879
H	-0.1376300347	-0.2893230211	 2.1880466916	 0.11993
H	 1.1695473529	-1.6264655823	-0.588623176	 0.291016
H	 2.3660331401	-3.4050387098	 4.227168062	 0.210279
75.2559	110.9375	122.7898	138.2101	186.4678	222.0976	265.9189	288.2508	362.7334	434.9973	478.2235	504.4062	573.0066	600.7502	640.3701	656.8374	686.4483	748.2352	823.8316	929.0721	970.5426	1036.3917	1064.6603	1118.4925	1149.468	1178.2379	1211.7098	1293.605	1360.661	1434.3878	1461.217	1483.3123	1492.9231	1503.2071	1518.8364	2252.0078	2348.9652	2981.7221	3003.4042	3074.3616	3094.2426	3118.1135	3499.0685	3514.933	3601.8316
CNCC(O)(C#C)C#N	CNC[C@@](O)(C#C)C#N	
InChI=1S/C6H8N2O/c1-3-6(9,4-7)5-8-2/h1,8-9H,5H2,2H3	InChI=1S/C6H8N2O/c1-3-6(9,4-7)5-8-2/h1,8-9H,5H2,2H3/t6-/m1/s1
