14
gdb 44921	3.29102	1.5168	1.51489	3.8318	62.56	-0.2724	-0.0176	0.2547	906.0488	0.103467	-473.864342	-473.858021	-473.857077	-473.895138	24.992	
N	-0.0780405753	 1.2751804392	-0.062962103	-0.55134
C	-0.027765268	 0.0216596296	-0.0112545344	 0.465222
O	 1.1067247911	-0.7643290959	 0.0215559248	-0.263437
C	 0.6405152782	-2.1455556637	 0.0396674038	-0.056739
C	-0.6115530268	-2.0880813659	-0.8448396967	-0.267594
C	-1.1834228561	-0.9592200596	 0.0317303502	 0.001718
O	-1.1476700935	-1.5530027415	 1.3649706141	-0.241937
C	-0.0164335218	-2.3290959125	 1.4178315002	 0.470252
O	 0.3160422957	-2.9643817424	 2.3686856477	-0.331422
H	 0.8583429008	 1.6841699702	-0.0744065476	 0.236892
H	 1.4663206621	-2.8109629032	-0.1891060227	 0.126691
H	-0.3970803461	-1.7876030804	-1.8718990075	 0.139809
H	-1.217824684	-2.9952896683	-0.819227972	 0.140517
H	-2.1709794763	-0.5524473955	-0.1552964567	 0.131368
125.4427	210.5857	357.3969	398.9744	454.1162	486.9747	572.5264	682.9158	730.5322	769.1011	790.2516	864.3283	887.3557	906.4919	934.9	956.2272	960.8589	975.9105	1009.9711	1068.4954	1106.2023	1157.1271	1201.2927	1248.8169	1282.7744	1291.6894	1329.9904	1347.9564	1482.3287	1812.1848	1914.1274	3084.7634	3149.646	3191.1319	3199.4279	3473.9408
N=C1OC2CC1OC2=O	[NH][C]1O[C@@H]2C[C@H]1OC2=O	
InChI=1S/C5H5NO3/c6-4-2-1-3(8-4)5(7)9-2/h2-3,6H,1H2	InChI=1S/C5H5NO3/c6-4-2-1-3(8-4)5(7)9-2/h2-3,6H,1H2/t2-,3-/m1/s1
