18
gdb 96936	3.26036	1.27932	1.20292	2.1417	74.33	-0.2131	0.0495	0.2626	1116.627	0.148649	-435.247629	-435.238818	-435.237874	-435.281565	32.321	
C	-0.3459636163	 1.4061730293	 0.1430975842	-0.328183
N	-0.2660163022	-0.0416515853	 0.2001062472	-0.361618
C	 0.572008462	-0.588821307	 0.9622755394	 0.474059
N	 0.7400105796	-1.9599490567	 1.1225899984	-0.355405
C	 1.9400241013	-2.2439326915	 1.8446694767	-0.070611
C	 3.2601540727	-1.6290205025	 1.3379284265	-0.038247
N	 3.4590239591	-1.1284797622	 0.012239833	-0.528573
C	 2.3792262883	-0.8904269049	 2.3205861972	 0.041667
O	 1.482642041	 0.0575904785	 1.7809866538	-0.255714
H	 0.5303542201	 1.9196672553	 0.558311955	 0.114998
H	-0.4730373751	 1.7193206751	-0.8990120276	 0.116102
H	-1.2307440767	 1.7578713879	 0.6893841947	 0.121467
H	 0.4413814841	-2.532705914	 0.3489278905	 0.256417
H	 1.944051885	-3.126766222	 2.4734158215	 0.110313
H	 4.1394155777	-2.07466318	 1.8025860892	 0.100422
H	 3.0750665181	-1.7442921594	-0.6954344642	 0.234128
H	 3.0330047457	-0.2164969417	-0.1070044565	 0.250443
H	 2.6959574355	-0.6425110488	 3.325252341	 0.118336
59.0229	92.2723	141.8502	198.79	229.9149	242.6161	281.4653	472.4749	502.6135	541.5637	651.0603	700.0988	723.1457	764.6271	766.2333	787.5394	825.4475	879.5362	965.9316	1035.0424	1052.986	1076.8011	1097.2055	1127.1338	1136.3971	1145.3522	1167.6283	1229.1535	1247.6613	1271.5418	1362.8795	1367.5629	1391.2274	1424.6463	1447.3117	1495.5966	1502.8275	1658.384	1818.152	3005.3332	3058.8547	3076.8966	3105.677	3174.331	3199.9761	3516.1393	3593.3522	3637.1926
CN=C1NC2C(N)C2O1	CN=C1N[C@H]2[C@@H](N)[C@H]2O1	
InChI=1S/C5H9N3O/c1-7-5-8-3-2(6)4(3)9-5/h2-4H,6H2,1H3,(H,7,8)	InChI=1S/C5H9N3O/c1-7-5-8-3-2(6)4(3)9-5/h2-4H,6H2,1H3,(H,7,8)/t2-,3+,4-/m1/s1
