19
gdb 55085	3.89389	1.06607	1.05155	3.6454	76.49	-0.2357	-0.0155	0.2202	1250.9636	0.156293	-423.007194	-422.997948	-422.997004	-423.04154	33.928	
C	-0.106658236	 1.5019201704	-0.2639411307	-0.486446
C	 0.0514927243	 0.0356711456	 0.1002249345	 0.373133
O	 1.122914273	-0.4664213515	 0.3428844732	-0.297241
C	-1.2501115495	-0.7508435065	 0.1815414672	 0.021162
O	-1.1009112423	-2.182657052	 0.1902481155	-0.31742
C	-1.8171276542	-2.2766891192	 1.4365498875	 0.479224
C	-2.7743294766	-3.4115071487	 1.5876225221	-0.492851
C	-1.0533604989	-1.5732430784	 2.5128706046	-0.335634
C	-1.9278572202	-0.7702991352	 1.5618382846	-0.212308
H	 0.8228695787	 2.0353525444	-0.0625356523	 0.14623
H	-0.3474467618	 1.5902474188	-1.3301985635	 0.145772
H	-0.9323035542	 1.9621922021	 0.2897704137	 0.136696
H	-1.9382579135	-0.4396098071	-0.6157480121	 0.089437
H	-2.2341761727	-4.3649929912	 1.5877156875	 0.138409
H	-3.3179864035	-3.3316483377	 2.5332030724	 0.124507
H	-3.4965665381	-3.4304102125	 0.7656363306	 0.128064
H	-1.4646294116	-1.6647806497	 3.5134560069	 0.113493
H	 0.0282458521	-1.50821667	 2.451232148	 0.144242
H	-2.746415615	-0.1380822818	 1.8781447204	 0.101529
57.9922	114.929	116.5813	151.1113	201.0763	266.0006	301.2229	369.216	422.5974	466.8517	584.4705	592.8269	660.1281	735.2625	806.3355	865.4612	895.66	928.2127	945.8537	957.6877	980.6513	1012.0638	1028.3154	1061.0698	1083.2744	1098.8514	1115.7168	1191.9753	1202.7277	1255.794	1265.801	1358.6138	1379.2592	1388.2532	1428.989	1462.6093	1473.7247	1475.0385	1487.1585	1501.8654	1817.3508	3016.5163	3034.5423	3034.7509	3094.7923	3098.8534	3117.9726	3125.5224	3153.0155	3200.9942	3219.1883
CC(=O)C1OC2(C)CC12	CC(=O)[C@H]1O[C@@]2(C)C[C@@H]12	
InChI=1S/C7H10O2/c1-4(8)6-5-3-7(5,2)9-6/h5-6H,3H2,1-2H3	InChI=1S/C7H10O2/c1-4(8)6-5-3-7(5,2)9-6/h5-6H,3H2,1-2H3/t5-,6+,7-/m0/s1
