21
gdb 41648	2.97044	1.93127	1.57156	0.1153	83.77	-0.2394	0.0919	0.3313	937.7094	0.187197	-349.927434	-349.921034	-349.92009	-349.957694	28.327	
C	-0.0347191523	 1.5356832147	-0.2238818727	-0.194963
C	 1.3692841702	 2.1256935734	-0.0183336321	-0.225664
C	 2.0088005578	 1.6341527842	 1.2806309374	 0.015823
C	 1.2103266465	 1.6291214607	 2.5909148209	-0.080585
C	 0.35181428	 0.3518191643	 2.5924496304	-0.080571
C	 1.7999848732	 0.306141961	 3.0142117581	-0.09787
C	 2.1159256362	 0.0919160123	 1.4841881669	-0.082967
C	 0.6471566443	-0.3914387442	 1.2829645834	 0.015813
C	-0.0508621629	 0.0131656166	-0.0158801204	-0.225664
H	-0.7238636021	 1.9997882137	 0.4918493536	 0.101145
H	-0.4092206654	 1.7862841575	-1.2225863964	 0.084883
H	 2.0203692124	 1.8412974495	-0.8575395741	 0.088775
H	 1.3198985611	 3.2217610755	-0.0266526565	 0.088409
H	 2.9851623065	 2.1021577501	 1.4451011181	 0.061024
H	 0.9499721017	 2.4708196218	 3.2209981012	 0.075721
H	-0.5251613572	 0.2760452508	 3.2236525472	 0.075723
H	 2.2779344475	-0.0140031651	 3.9280521374	 0.085275
H	 2.9485153145	-0.4682540052	 1.0613370311	 0.05748
H	 0.5825675831	-1.4719744969	 1.4491783399	 0.061021
H	-1.0844874132	-0.3548679615	-0.0224878107	 0.088412
H	 0.4573458782	-0.4837182331	-0.8548623123	 0.088779
223.3743	237.636	359.9361	365.6509	455.2254	585.9736	637.3582	715.7494	725.4137	788.2643	789.9316	802.9279	843.3631	861.5638	876.2766	878.1616	945.8613	957.493	985.6589	994.9536	1007.4612	1027.4026	1035.1125	1044.3405	1086.9085	1098.3293	1108.9646	1128.9362	1162.7603	1175.5054	1193.0047	1229.7968	1243.9293	1257.5758	1311.5929	1312.2393	1347.9143	1352.8232	1368.373	1368.5003	1397.6228	1400.016	1477.7455	1482.6297	1497.4698	3003.3153	3005.0203	3026.7035	3044.1841	3046.7063	3050.5168	3053.6142	3071.1743	3123.6239	3181.6719	3189.7304	3225.9984
C1CC2C3C4C3C2C4C1	C1C[C@H]2[C@H]3[C@@H]4[C@H]3[C@H]2[C@@H]4C1	
InChI=1S/C9H12/c1-2-4-6-5(3-1)8-7(4)9(6)8/h4-9H,1-3H2	InChI=1S/C9H12/c1-2-4-6-5(3-1)8-7(4)9(6)8/h4-9H,1-3H2/t4-,5+,6-,7+,8-,9+
