18
gdb 97902	5.80934	0.54722	0.51527	3.7953	83.1	-0.2591	0.0081	0.2671	2103.9168	0.145079	-401.93376	-401.92309	-401.922145	-401.973192	36.193	
C	-0.0464137523	 1.5811486353	-0.0372764755	-0.365486
C	 0.0229358287	 0.0431803658	-0.00724764	-0.315514
C	 0.7070305902	-0.4743414186	 1.1731475621	 0.144248
C	 1.2775037431	-0.875707714	 2.1546145594	 0.007431
C	 1.9542962309	-1.3870599355	 3.3373863094	-0.383914
C	 2.0582695021	-2.9347476631	 3.3310043437	-0.007
O	 2.7535036243	-3.4476720304	 2.2186127914	-0.396275
C	 2.6617736441	-3.3966034478	 4.600884399	 0.255732
N	 3.1620450933	-3.7371778382	 5.5852731251	-0.313782
H	 0.9567499297	 2.0158454009	-0.0331588969	 0.128971
H	-0.5657423324	 1.9204681784	-0.9382171128	 0.117661
H	-0.5833265828	 1.963425396	 0.8350087812	 0.129346
H	-0.9926880694	-0.3705488211	-0.0484133012	 0.131722
H	 0.532179654	-0.3195165179	-0.9091499029	 0.133039
H	 2.9687007287	-0.9731921668	 3.4179154242	 0.135775
H	 1.4289868582	-1.0816018258	 4.2509886906	 0.150435
H	 1.0489714858	-3.3524410748	 3.2617969889	 0.151698
H	 3.6533982939	-3.1010179225	 2.2325372941	 0.295913
3.2935	51.604	63.6404	154.9904	167.929	182.1104	233.8102	265.2081	322.396	353.5638	390.8348	469.4604	501.9328	559.3731	590.0689	751.8287	786.0051	858.6214	931.938	967.1388	1021.5634	1079.1297	1100.6543	1105.1101	1168.6885	1192.2828	1280.064	1285.3516	1323.8796	1349.4544	1359.9829	1409.0849	1421.8571	1466.8365	1476.0053	1495.0495	1505.8894	2354.2906	2371.8139	3016.2671	3022.5822	3045.7325	3050.1556	3052.4636	3079.597	3119.8736	3124.602	3798.1576
CCC#CCC(O)C#N	CCC#CC[C@@H](O)C#N	
InChI=1S/C7H9NO/c1-2-3-4-5-7(9)6-8/h7,9H,2,5H2,1H3	InChI=1S/C7H9NO/c1-2-3-4-5-7(9)6-8/h7,9H,2,5H2,1H3/t7-/m1/s1
