20
gdb 61545	3.43296	0.95405	0.87723	3.9948	77.14	-0.2432	0.0278	0.2709	1381.0463	0.168718	-440.291655	-440.281608	-440.280664	-440.327374	35.617	
C	-0.1749946356	 1.3555911054	 0.2295072282	-0.34482
N	 0.0013548144	-0.0641754632	-0.0429367594	-0.034662
C	-0.0570756806	-0.9971228548	 1.0656466396	-0.247743
C	-1.4424059337	-1.130095967	 1.6854998545	 0.413759
C	-2.5646726978	-1.5407008527	 0.7604693516	-0.465199
C	-1.5294896972	-1.4047035323	 3.127254289	-0.227738
O	-1.7698616207	-0.0895403298	 2.622867667	-0.270147
C	 0.2948246502	-0.4827821023	-1.3090904729	 0.154096
O	 0.3909549616	 0.2281393223	-2.2863711719	-0.341382
H	 0.5694413542	 1.6994988038	 0.9574118684	 0.12516
H	-0.042823596	 1.8891854916	-0.7114399615	 0.164827
H	-1.1684728813	 1.5594488266	 0.6383294693	 0.146332
H	 0.2679665566	-1.9778045004	 0.6991735838	 0.1192
H	 0.6447427445	-0.6837643084	 1.8495191124	 0.110715
H	-2.3791884854	-2.5357253283	 0.3412987848	 0.123499
H	-3.5137101704	-1.5610167705	 1.3004768212	 0.132683
H	-2.6567797085	-0.838769929	-0.0736160624	 0.14274
H	-2.4030795472	-1.9231112354	 3.5195968291	 0.117037
H	-0.6209709407	-1.5203555995	 3.7178796394	 0.11347
H	 0.4397744438	-1.5811165462	-1.3507499705	 0.068172
50.8117	69.5857	93.9643	141.1498	201.5443	261.0005	290.1337	327.2792	346.1608	357.1573	386.7671	416.6732	487.7851	716.2935	736.0092	835.6037	868.747	909.8062	931.5911	951.4352	1028.2799	1049.312	1091.4576	1105.423	1134.1723	1159.1191	1168.3579	1234.6978	1276.6773	1294.8683	1356.8835	1403.8112	1427.3455	1433.4545	1440.5928	1449.0771	1467.4956	1482.5489	1495.9971	1498.4703	1520.2065	1533.3318	1798.4944	2926.1399	3015.7787	3032.1642	3041.5087	3069.7632	3080.2589	3095.3913	3107.2272	3132.2421	3162.3659	3166.0451
CN(CC1(C)CO1)C=O	CN(C[C@@]1(C)CO1)C=O	
InChI=1S/C6H11NO2/c1-6(4-9-6)3-7(2)5-8/h5H,3-4H2,1-2H3	InChI=1S/C6H11NO2/c1-6(4-9-6)3-7(2)5-8/h5H,3-4H2,1-2H3/t6-/m0/s1
