19
gdb 52852	2.54361	1.14536	0.98645	1.63	79.62	-0.2449	0.0477	0.2926	1325.1604	0.157082	-423.007122	-422.997148	-422.996204	-423.044388	34.498	
C	-0.2148429281	 1.3258791313	 0.142688783	-0.502268
C	-0.078952101	-0.1212155495	 0.0645318668	 0.036934
C	 0.0359938714	-1.318092198	-0.0038082703	 0.130702
C	 0.1744715451	-2.7896339918	-0.0838833082	 0.196029
C	 1.0326341312	-3.2270206521	-1.258986148	-0.431007
O	 0.7311591867	-3.3030876887	 1.1166848812	-0.254135
C	-0.3442544424	-3.4252728615	 2.039263316	-0.109646
C	-1.6088677416	-3.4953767528	 1.1418556942	-0.109655
O	-1.1009241018	-3.4047376771	-0.1834247508	-0.25413
H	 0.337161058	 1.8189256413	-0.6648862352	 0.152227
H	-1.2639182369	 1.6309124581	 0.0623997508	 0.151323
H	 0.172457081	 1.7101859841	 1.0926133511	 0.151302
H	 2.0335866714	-2.8012490865	-1.1651923954	 0.134596
H	 1.0960465056	-4.3170450752	-1.2631259074	 0.127935
H	 0.5851763132	-2.8816060176	-2.1930390974	 0.134597
H	-0.1800090116	-4.3307827227	 2.6290581964	 0.115518
H	-0.3823986027	-2.5617818946	 2.7149705757	 0.107077
H	-2.1516407003	-4.4400506847	 1.2300010976	 0.115519
H	-2.2964004572	-2.6678456121	 1.3566664401	 0.107079
13.5508	52.9278	80.6017	119.6582	180.8529	207.3476	299.5338	299.6618	344.7218	403.7194	494.3826	571.2389	634.7448	744.7763	756.4721	839.4741	865.3645	888.8755	949.1545	1050.1729	1052.1346	1053.425	1068.4006	1069.5899	1129.5906	1164.8356	1205.1486	1236.3584	1239.4477	1255.5546	1369.1154	1377.1943	1402.7098	1413.2757	1477.1416	1477.1478	1479.0393	1480.2243	1514.8048	1528.0499	2363.0478	3018.838	3028.3936	3031.052	3060.7846	3081.7882	3090.3552	3090.7801	3101.35	3146.6322	3147.475	13.5109	52.9252	80.6005	119.6568	180.8525	207.3482	299.5358	299.6622	344.7234	403.7198	494.3838	571.2396	634.7451	744.7765	756.4721	839.474	865.3643	888.8755	949.1544	1050.173	1052.1352	1053.4256	1068.4003	1069.5897	1129.5904	1164.8358	1205.1486	1236.3585	1239.448	1255.5548	1369.1156	1377.1945	1402.7097	1413.2759	1477.1422	1477.1483	1479.0391	1480.2241	1514.805	1528.0502	2363.0487	3018.8379	3028.3935	3031.0519	3060.7846	3081.7881	3090.3551	3090.78	3101.35	3146.6322	3147.475
CC#CC1(C)OCCO1	CC#CC1(C)OCCO1	
InChI=1S/C7H10O2/c1-3-4-7(2)8-5-6-9-7/h5-6H2,1-2H3	InChI=1S/C7H10O2/c1-3-4-7(2)8-5-6-9-7/h5-6H2,1-2H3
