20
gdb 93517	2.78672	1.29002	1.00153	3.4413	75.48	-0.2367	0.032	0.2687	1212.952	0.17215	-440.336334	-440.327323	-440.326379	-440.369975	34.354	
C	-0.0828765389	 1.5587526351	-0.0381814473	-0.38512
C	 0.0226100314	 0.0298210269	 0.0483480351	 0.025146
N	 0.6576670398	-0.5413880363	-1.1379296325	-0.312687
C	 1.9628778989	-0.9215247576	-1.3079506923	 0.392941
O	 2.4073696307	-1.2038867597	-2.4055063556	-0.379425
C	 2.8050652763	-1.0444276635	-0.0410788204	-0.31471
C	 2.2759140642	-0.2491803823	 1.1570996437	-0.25392
C	 0.7694584864	-0.4676423612	 1.2985565912	 0.127786
O	 0.2070162296	 0.2102557744	 2.4098193784	-0.438416
H	 0.9038020586	 2.0267639004	-0.1021804747	 0.120697
H	-0.6436157321	 1.8430861613	-0.9343244838	 0.110422
H	-0.6009505731	 1.953296754	 0.8378216558	 0.141167
H	-0.996123936	-0.3734230775	 0.1034319799	 0.093979
H	 0.1554851888	-0.4612190069	-2.011622137	 0.243046
H	 2.8366096291	-2.1146312652	 0.2007492237	 0.131026
H	 3.826098532	-0.7612868737	-0.3059006682	 0.132373
H	 2.7865334992	-0.5648963883	 2.0753500035	 0.09062
H	 2.4790278201	 0.8204197607	 1.0370216142	 0.11602
H	 0.585009983	-1.5519685861	 1.379378794	 0.073264
H	 0.6688175817	-0.0825150443	 3.2014624423	 0.285794
80.9422	93.8276	200.1755	236.7808	255.2968	282.6566	344.1981	385.6313	417.5842	431.4467	507.9696	555.6178	595.3948	664.5139	709.7396	742.936	822.04	879.6056	949.1154	1009.533	1027.0579	1031.5596	1083.7118	1106.4271	1125.6767	1161.5693	1200.9309	1217.5461	1265.6606	1307.8713	1333.3247	1345.1965	1365.5257	1399.9674	1401.3423	1409.6602	1438.8	1462.01	1475.553	1486.8159	1502.8925	1509.5107	1786.3929	2958.7156	3025.0992	3029.078	3037.66	3044.472	3078.7701	3109.59	3111.2537	3141.5785	3593.9255	3825.1744
CC1NC(=O)CCC1O	C[C@H]1NC(=O)CC[C@H]1O	
InChI=1S/C6H11NO2/c1-4-5(8)2-3-6(9)7-4/h4-5,8H,2-3H2,1H3,(H,7,9)	InChI=1S/C6H11NO2/c1-4-5(8)2-3-6(9)7-4/h4-5,8H,2-3H2,1H3,(H,7,9)/t4-,5-/m1/s1
