15
gdb 75227	4.17006	1.1722	1.05392	2.0285	74.37	-0.2379	0.0016	0.2395	1128.2789	0.112471	-416.764177	-416.756345	-416.7554	-416.796214	30.533	
N	 0.0062916215	 1.3480462833	 0.0566094204	-0.580899
C	-0.0201841707	-0.0215899638	-0.0139116334	 0.403844
N	-1.0885189493	-0.7201773936	-0.1259535994	-0.30483
C	-0.7485608697	-2.1377734345	 0.0090244014	-0.237147
C	 0.7795069301	-2.2241503876	 0.1185645538	 0.247156
O	 1.4359336735	-1.665520832	-1.0380027267	-0.283091
C	 1.2491163797	-0.8205898281	 0.1049605008	-0.165387
C	 1.4303046037	-3.3092884236	 0.7875392888	 0.187794
C	 1.9233696475	-4.2487997459	 1.3525042951	-0.347338
H	 0.817295208	 1.8072308515	-0.3287717584	 0.258884
H	-0.8701254691	 1.794281646	-0.1759047219	 0.261598
H	-1.2180533071	-2.5597379722	 0.9057185409	 0.121765
H	-1.114342854	-2.7059800034	-0.8533833687	 0.126533
H	 2.1484335149	-0.4617545231	 0.5973165482	 0.116112
H	 2.3717829109	-5.0740604131	 1.8483208491	 0.195006
113.1289	145.0954	235.0305	302.3352	347.7456	387.2802	430.1963	484.7828	524.6941	561.1401	594.4051	621.6925	660.4371	672.0333	720.1389	789.8199	838.3207	917.8417	951.204	988.847	1015.4327	1048.3425	1172.0597	1179.8425	1208.5287	1243.2816	1302.509	1396.1183	1437.6088	1474.2656	1628.4664	1716.447	2242.3941	3036.2807	3074.6234	3161.725	3502.0707	3565.0583	3677.9028
NC1=NCC2(OC12)C#C	NC1=NC[C@]2(O[C@@H]12)C#C	
InChI=1S/C6H6N2O/c1-2-6-3-8-5(7)4(6)9-6/h1,4H,3H2,(H2,7,8)	InChI=1S/C6H6N2O/c1-2-6-3-8-5(7)4(6)9-6/h1,4H,3H2,(H2,7,8)/t4-,6+/m0/s1
