19
gdb 40052	3.25886	1.53516	1.44497	1.7577	73.47	-0.2491	0.0879	0.337	984.6176	0.161898	-423.018451	-423.011513	-423.010568	-423.049645	28.57	
C	 0.0048699721	 1.5193897375	 0.0168162505	-0.328241
C	 1.302829064	 0.742274286	-0.0152754902	-0.338865
C	-0.0115744849	 0.0181029392	 0.0248073517	 0.415677
C	-0.4526735404	-0.8445084961	 1.2243496447	-0.332855
C	-1.1245708256	-2.0047172761	 0.4604401126	 0.188045
O	-2.3859796422	-1.5590549074	-0.0359028954	-0.277476
C	-2.0538489388	-0.7613685168	-1.1862544577	-0.084404
C	-0.5132651876	-0.8084872444	-1.1607619683	-0.05618
O	-0.3149469803	-2.1553266965	-0.6914705707	-0.248167
H	-0.2609328455	 2.040460984	 0.9306821556	 0.116294
H	-0.3007506573	 2.0351073233	-0.8887859746	 0.111031
H	 1.8716185436	 0.7343952899	-0.9399147904	 0.11324
H	 1.913642873	 0.7315765887	 0.8818664834	 0.114231
H	 0.3995592036	-1.2005180266	 1.8111824688	 0.10679
H	-1.1612577556	-0.3459655496	 1.8895997511	 0.112086
H	-1.2490188495	-2.9525063128	 0.9829086603	 0.092457
H	-2.4679937937	-1.225509268	-2.0887562579	 0.103651
H	-2.4554729373	 0.2510027417	-1.0768572791	 0.106248
H	-0.0097194576	-0.6522199062	-2.1140159744	 0.086437
113.263	225.0722	276.6698	302.6199	391.8908	445.2081	529.3403	622.0824	696.3484	775.4467	813.0602	821.9021	859.9156	888.8622	892.0053	925.4026	960.3426	965.1253	979.8285	999.0088	1015.7308	1041.6216	1056.1049	1060.5891	1082.0952	1100.8122	1179.9139	1186.3265	1192.5665	1239.7395	1265.2272	1268.7937	1287.2621	1322.9411	1331.5709	1377.7302	1393.1116	1468.0452	1482.5895	1506.074	1519.9479	3030.7907	3054.7132	3081.3095	3111.156	3120.456	3124.1289	3131.3881	3137.8251	3198.0138	3212.8189
C1CC11CC2OCC1O2	C1CC21C[C@H]1OC[C@@H]2O1	
InChI=1S/C7H10O2/c1-2-7(1)3-6-8-4-5(7)9-6/h5-6H,1-4H2	InChI=1S/C7H10O2/c1-2-7(1)3-6-8-4-5(7)9-6/h5-6H,1-4H2/t5-,6-/m0/s1
