25
gdb 97894	3.43125	0.65385	0.64099	0.1599	98.68	-0.2402	0.0574	0.2976	1971.5558	0.225501	-352.35315	-352.341274	-352.340329	-352.392422	43.011	
C	 0.4852560631	 1.0889431145	 0.4986402778	-0.362549
C	-0.4716001886	 0.4133023763	-0.5004869819	-0.315541
C	 0.2203343694	-0.2346720373	-1.6110288842	 0.11957
C	 0.8117921116	-0.7529865695	-2.5247909725	 0.015995
C	 1.5202819366	-1.3891537047	-3.6310929752	-0.36479
C	 1.9442769006	-2.8668862398	-3.3798562178	 0.2679
C	 0.6993247994	-3.7310646019	-3.1202861551	-0.398265
C	 2.6696201813	-3.3706575713	-4.6391828163	-0.404501
C	 2.8937086241	-2.9401573865	-2.1726713748	-0.398179
H	 1.1713459478	 0.3574688826	 0.9344793169	 0.125936
H	 1.0844019174	 1.8577163766	 0.0030510956	 0.126671
H	-0.0779672591	 1.5599674988	 1.3100353238	 0.111797
H	-1.0881194383	-0.3256875194	 0.02765988	 0.125511
H	-1.1735931679	 1.1596660372	-0.8948051586	 0.126237
H	 0.8908969844	-1.3544616657	-4.530938209	 0.117242
H	 2.4189454583	-0.8037520998	-3.8692670123	 0.116936
H	 0.017128867	-3.709048906	-3.9777663132	 0.104901
H	 0.9811690188	-4.7748200593	-2.9447498826	 0.105662
H	 0.1492559004	-3.374190013	-2.244809261	 0.123403
H	 3.5610480879	-2.7700099132	-4.8525025903	 0.10728
H	 2.990858913	-4.4100698031	-4.5138602217	 0.108657
H	 2.0171627132	-3.3274675648	-5.5185901923	 0.10736
H	 2.4103420864	-2.5563701338	-1.2696490817	 0.122324
H	 3.2012566916	-3.9740863565	-1.9828072322	 0.105742
H	 3.7999434918	-2.3486966003	-2.3461777714	 0.1047
5.5378	56.789	85.3957	138.8359	204.4451	213.4871	263.2233	266.4154	282.9101	301.3454	320.6393	334.9266	389.3978	404.2516	406.4626	493.9228	541.6228	744.4175	755.7034	784.7215	893.7886	903.2758	939.4751	941.5705	961.983	967.2701	1048.4457	1060.7738	1079.4676	1104.1005	1164.9645	1184.6141	1229.2063	1261.4062	1286.4866	1307.8581	1342.7511	1352.0733	1398.6791	1398.884	1407.8693	1430.2749	1465.7751	1475.8712	1478.5283	1486.025	1488.2732	1494.4284	1505.1896	1505.3884	1505.8986	1518.1215	2360.2641	3003.5581	3016.0923	3021.1027	3024.8926	3031.9265	3034.8541	3042.0819	3042.1954	3087.2065	3090.6365	3091.568	3097.1912	3108.132	3112.0674	3114.9055	3121.4556
CCC#CCC(C)(C)C	CCC#CCC(C)(C)C	
InChI=1S/C9H16/c1-5-6-7-8-9(2,3)4/h5,8H2,1-4H3	InChI=1S/C9H16/c1-5-6-7-8-9(2,3)4/h5,8H2,1-4H3
