18
gdb 68138	3.94264	1.22028	1.10196	5.2789	77.05	-0.2624	0.0136	0.276	1132.5756	0.148223	-401.946004	-401.938154	-401.93721	-401.977991	30.973	
C	-0.0606124768	 1.5306487212	 0.0206693806	-0.501643
C	 0.03185827	 0.0247328749	 0.0273628164	 0.248841
C	 0.9792246085	-0.7837202129	-0.9242413707	-0.298342
C	 0.6559693775	-1.898413293	 0.1065631752	 0.33399
C	 0.6833533086	-0.7924464377	 1.1954397441	-0.298326
O	-0.7458580436	-2.141786318	-0.0900793335	-0.313561
C	-1.259073452	-0.7894700831	-0.1561350044	-0.105315
C	 1.4023879259	-3.1366188554	 0.2055925197	 0.203868
N	 2.0417685531	-4.0948645065	 0.291345579	-0.339515
H	 0.9232404586	 1.9888264001	 0.1597518293	 0.126223
H	-0.4696696601	 1.8952467594	-0.9281298234	 0.126932
H	-0.7140352656	 1.88801965	 0.8242873132	 0.126933
H	 0.6612554735	-0.9682846136	-1.9524600911	 0.116552
H	 2.0146959593	-0.4440334996	-0.8809769359	 0.119324
H	 1.6907063509	-0.453577508	 1.4401124884	 0.119322
H	 0.0961902915	-0.984937366	 2.0957688114	 0.116556
H	-1.9901742118	-0.6289820819	 0.6444637265	 0.109083
H	-1.7432306074	-0.6216948297	-1.1249814249	 0.10908
144.161	146.0791	214.3172	276.5666	295.258	373.3025	459.8307	492.0314	515.7892	559.9854	566.4243	595.9509	681.146	808.6565	873.0597	913.4315	931.1359	960.9977	972.6305	993.7894	1031.5487	1041.9417	1090.2244	1120.5525	1153.7996	1166.5101	1179.6046	1227.692	1258.8836	1277.9866	1295.7843	1380.6742	1418.2418	1473.0364	1492.5757	1494.3667	1504.3355	1533.0449	2367.0711	3027.1785	3031.5175	3071.0331	3074.3198	3079.7975	3094.7877	3105.3185	3144.9554	3150.9516
CC12CC(C1)(OC2)C#N	C[C@@]12C[C@@](C1)(OC2)C#N	
InChI=1S/C7H9NO/c1-6-2-7(3-6,4-8)9-5-6/h2-3,5H2,1H3	InChI=1S/C7H9NO/c1-6-2-7(3-6,4-8)9-5-6/h2-3,5H2,1H3/t6-,7+
