16
gdb 29792	2.49446	1.53918	0.96083	1.9247	68.51	-0.1718	0.0455	0.2172	1162.3343	0.122819	-475.03374	-475.024219	-475.023275	-475.067775	34.45	
C	-0.0326380648	 1.4706067837	 0.0223285366	-0.339634
N	-0.0229448415	 0.0249810301	-0.0044500255	-0.053386
C	-0.007095898	-0.7651216022	-1.157432378	-0.221914
C	 0.0905494271	-2.0734020877	-0.7596462823	 0.249978
O	 0.1184514731	-3.1738937926	-1.5639751861	-0.45556
C	 0.162442664	-2.0916723561	 0.6640107555	-0.028765
O	 0.1870136641	-3.2162931801	 1.4732284933	-0.462073
C	 0.0809088857	-0.7838078981	 1.0853256089	 0.322714
O	 0.0866477085	-0.2522385033	 2.3346345645	-0.449749
H	 0.9606789748	 1.8915079803	-0.1766519447	 0.132385
H	-0.729561393	 1.847665152	-0.7312574917	 0.136224
H	-0.3625358787	 1.8069326266	 1.0062205608	 0.154646
H	-0.071899476	-0.32150113	-2.1353290321	 0.115402
H	 0.0025226744	-3.9395378555	-0.9893316812	 0.293944
H	 1.104492927	-3.4836442374	 1.6029779829	 0.297518
H	-0.0476863867	-0.9844176696	 2.9476267593	 0.30827
81.5632	118.9778	187.747	202.9244	241.3658	272.2893	284.9036	292.4897	326.8962	349.4505	429.0427	567.5347	578.6632	599.436	628.3513	647.1526	678.6983	765.1451	942.4262	1072.7988	1127.2993	1149.7366	1172.0866	1217.538	1242.0733	1296.0222	1309.0223	1404.964	1447.737	1469.866	1493.1299	1511.5984	1584.9447	1625.1539	1675.2564	3023.8156	3091.7077	3145.9911	3284.0076	3762.073	3798.8962	3810.399
CN1C=C(O)C(O)=C1O	Cn1cc(O)c(O)c1O	
InChI=1S/C5H7NO3/c1-6-2-3(7)4(8)5(6)9/h2,7-9H,1H3	InChI=1S/C5H7NO3/c1-6-2-3(7)4(8)5(6)9/h2,7-9H,1H3
