19
gdb 42313	3.25607	1.09667	0.89702	2.8095	82.4	-0.2599	-0.0539	0.206	1316.3277	0.159076	-385.887765	-385.878766	-385.877822	-385.923391	32.87	
O	-0.0360757437	-0.1304894405	 0.3294297018	-0.290953
C	-0.0819744836	 1.0638945111	 0.1267382459	 0.216095
C	 1.114022082	 1.8010999719	-0.2598611319	 0.265469
C	 2.0958593921	 2.4253760196	-0.5692760195	-0.410928
C	-1.347551722	 1.9012165328	 0.2217069396	-0.080156
C	-1.7804305888	 2.4147546727	-1.1923908712	-0.21775
C	-3.3161796468	 2.3998071024	-1.1405116434	-0.197632
C	-3.6266055707	 1.1302203038	-0.3346002959	-0.194769
C	-2.5702553223	 1.1329180149	 0.7906253965	-0.238858
H	 2.9733123687	 2.9596035158	-0.8425227153	 0.213015
H	-1.1039862998	 2.7684565063	 0.8456997522	 0.095648
H	-1.3549838152	 3.3926290418	-1.4278476447	 0.107536
H	-1.4350586672	 1.7169757633	-1.9647114311	 0.11176
H	-3.6815111106	 3.2849620184	-0.6044979068	 0.098143
H	-3.7704833932	 2.4081108699	-2.1356610836	 0.097629
H	-4.6508451518	 1.0988663619	 0.0468104725	 0.095432
H	-3.4905565827	 0.2495515758	-0.9733723018	 0.105591
H	-2.285407385	 0.1259453126	 1.1002373882	 0.127989
H	-2.9525144695	 1.6558858356	 1.6723692685	 0.096739
22.7809	36.4644	127.0086	192.7665	251.3112	284.735	308.1754	439.015	522.2722	586.7458	639.825	643.9515	698.8184	710.9949	768.1752	836.963	871.629	909.2853	914.2798	929.0248	963.8174	1027.2864	1047.5898	1062.8967	1128.8402	1155.4912	1186.2196	1234.7556	1260.5475	1291.6379	1321.0608	1329.4935	1343.5378	1349.1814	1367.5672	1485.5028	1490.4326	1492.1727	1510.6144	1764.8712	2209.0727	3027.8028	3034.5821	3039.9704	3041.0238	3060.1269	3087.7235	3094.4608	3106.9748	3122.2499	3494.4298
O=C(C#C)C1CCCC1	O=C(C#C)C1CCCC1	
InChI=1S/C8H10O/c1-2-8(9)7-5-3-4-6-7/h1,7H,3-6H2	InChI=1S/C8H10O/c1-2-8(9)7-5-3-4-6-7/h1,7H,3-6H2
