20
gdb 81068	2.60951	1.46004	1.18551	3.1484	78.98	-0.2371	0.0635	0.3006	1126.0679	0.170976	-403.050795	-403.042456	-403.041512	-403.084168	32.275	
C	 0.0049484231	 1.7565261129	-0.1085880754	-0.442773
C	 0.0279242565	 0.2448356531	 0.0594721423	-0.015201
C	 1.069008191	-0.6686330529	-0.6449844729	 0.031697
C	 2.1785038775	-0.20947198	 0.3252836592	-0.279465
C	 0.886383364	-0.5087574129	 1.1362704307	 0.423795
O	 0.7219251845	-1.7421657372	 0.3074499535	-0.345237
C	 0.7139226738	-0.6368034038	 2.6037609109	-0.141163
C	 0.1169844602	 0.4829444596	 3.3801242047	-0.248415
N	-0.6308945589	-0.7653042316	 3.1878655214	-0.311676
H	 0.9825487342	 2.2217206342	 0.0391248889	 0.122739
H	-0.3387368273	 2.0177474217	-1.1156263641	 0.124958
H	-0.6933353501	 2.2182193508	 0.5972889265	 0.123639
H	-0.9741479749	-0.1878596745	-0.0198741452	 0.08204
H	 1.1405560548	-0.9385826268	-1.6987717066	 0.092768
H	 2.9803548006	-0.9338127687	 0.4727779495	 0.109563
H	 2.5451034376	 0.8174336356	 0.2750053003	 0.096703
H	 1.4600927003	-1.2663381934	 3.0839144298	 0.10009
H	 0.4526793647	 0.6656613803	 4.3967333386	 0.123155
H	-0.1913257263	 1.3724890718	 2.8383726625	 0.116054
H	-1.3304618151	-0.6486751583	 2.4581372754	 0.236728
42.7601	148.4343	171.6454	203.7976	290.3178	316.3966	390.4285	446.7851	555.9982	596.5771	628.0877	727.0313	802.8279	823.7506	841.8154	873.0348	903.3254	933.1997	959.4899	966.2585	1007.8084	1019.9517	1064.3582	1086.7499	1101.9215	1117.5004	1136.2714	1143.6742	1164.5242	1185.7127	1218.0541	1231.0493	1246.7142	1259.1209	1296.7713	1311.0893	1381.5564	1410.368	1434.9725	1491.7636	1493.2609	1505.7503	1512.8625	3037.2702	3065.1275	3073.8918	3093.6268	3115.9408	3117.9728	3121.5971	3131.6183	3149.5933	3200.8394	3498.5253
CC1C2CC1(O2)C1CN1	C[C@H]1[C@H]2C[C@@]1(O2)[C@H]1CN1	
InChI=1S/C7H11NO/c1-4-5-2-7(4,9-5)6-3-8-6/h4-6,8H,2-3H2,1H3	InChI=1S/C7H11NO/c1-4-5-2-7(4,9-5)6-3-8-6/h4-6,8H,2-3H2,1H3/t4-,5+,6+,7-/m0/s1
