17
gdb 9185	7.75396	0.81301	0.75125	3.4835	72.37	-0.2471	0.0281	0.2752	1474.9232	0.139873	-363.866226	-363.856551	-363.855606	-363.902099	32.913	
C	 0.0485842667	 1.4587759932	 0.0905315865	-0.334778
N	-0.1041484545	 0.0210558287	 0.2016693467	-0.318547
C	-1.2263819182	-0.6357546487	-0.2100762411	 0.426042
O	-2.2011976319	-0.0665589972	-0.6707931201	-0.374007
C	-1.1591387333	-2.1563144042	-0.0712251561	-0.316352
C	-2.5664145108	-2.7727993815	 0.0125185679	-0.346681
C	-2.537318894	-4.2293627445	 0.0203183412	 0.287424
C	-2.4865718488	-5.4304275183	 0.0265459548	-0.435732
H	 0.8774884491	 1.7241715759	-0.5754619826	 0.126125
H	-0.8805327797	 1.8511197176	-0.324053994	 0.172937
H	 0.2256458385	 1.9170010056	 1.0697592535	 0.126103
H	 0.6591893676	-0.5192191487	 0.5735061736	 0.2454
H	-0.6399813579	-2.5554878526	-0.9510537363	 0.141029
H	-0.5610763398	-2.4441034264	 0.8001477959	 0.113329
H	-3.0729353925	-2.4055623852	 0.9130650859	 0.137159
H	-3.1556936894	-2.4003953729	-0.8313097135	 0.158422
H	-2.461485861	-6.4917088008	 0.0294387175	 0.192128
34.3054	57.0336	82.5685	107.8097	158.9514	228.0463	307.1367	346.629	400.0109	451.3315	507.2206	616.5824	621.1546	641.0552	709.4579	787.1483	895.4024	968.0821	1022.3883	1035.7856	1091.6399	1152.9474	1168.7487	1178.037	1225.8125	1286.2051	1322.5574	1383.2104	1438.8705	1463.0215	1476.5027	1493.766	1500.3334	1561.7092	1776.554	2239.3425	3027.1719	3034.8564	3044.0946	3072.1237	3079.0588	3091.939	3154.9338	3507.973	3647.5423
CNC(=O)CCC#C	CNC(=O)CCC#C	
InChI=1S/C6H9NO/c1-3-4-5-6(8)7-2/h1H,4-5H2,2H3,(H,7,8)	InChI=1S/C6H9NO/c1-3-4-5-6(8)7-2/h1H,4-5H2,2H3,(H,7,8)
