19
gdb 73192	2.37418	1.53062	1.36364	3.7166	75.51	-0.2436	-0.0289	0.2147	1061.6269	0.157477	-423.00209	-422.99341	-422.992465	-423.036016	32.121	
C	-0.1692703913	 1.4292901057	-0.1205547421	-0.500674
C	 0.0025729526	-0.0615520909	 0.0511353967	 0.256358
C	-1.2543537007	-0.9357686464	 0.3546365096	-0.291847
C	-0.4984293481	-1.6330817901	 1.5283064235	-0.230305
C	 0.7469957252	-0.7711083867	 1.2263123616	 0.087035
O	 1.6676764025	-1.4182706928	 0.3236540795	-0.289576
C	 1.0893176597	-0.7812523952	-0.8182415618	 0.009806
C	 0.5888509561	-1.7113609318	-1.8939161991	 0.145801
O	 0.502736577	-2.9072713175	-1.7971078559	-0.247738
H	 0.7961695069	 1.9463613965	-0.138724899	 0.123967
H	-0.6916898712	 1.6616705013	-1.0565048553	 0.124661
H	-0.7628083336	 1.851516545	 0.6974999706	 0.123213
H	-2.099254867	-0.3270959963	 0.6863637599	 0.10433
H	-1.6007457896	-1.5896449578	-0.4482277263	 0.118593
H	-0.9411605968	-1.4551663484	 2.5114154977	 0.101859
H	-0.3111329622	-2.7007806699	 1.4033127464	 0.130606
H	 1.2618974356	-0.2591994003	 2.0439048699	 0.077731
H	 1.787465105	-0.0652803144	-1.2828527435	 0.086528
H	 0.2671045499	-1.1732069401	-2.8184837025	 0.069653
43.1951	91.7741	181.2758	209.3076	240.3537	272.8195	320.6833	391.2405	427.9307	600.4802	649.2474	727.9123	754.9533	805.154	865.2756	873.5587	897.1905	940.6985	952.7038	980.8364	1023.9466	1034.9207	1114.2778	1119.6501	1163.3496	1176.8993	1194.5379	1220.7778	1241.9642	1249.8197	1275.9727	1310.6712	1339.7986	1365.1314	1412.5272	1419.4632	1460.7288	1485.7601	1491.2118	1493.2275	1833.9763	2838.2516	2970.3372	3022.4472	3063.0452	3065.7718	3076.7001	3085.9403	3096.9351	3114.0041	3135.636
CC12CCC1OC2C=O	C[C@]12CC[C@H]1O[C@H]2C=O	
InChI=1S/C7H10O2/c1-7-3-2-5(7)9-6(7)4-8/h4-6H,2-3H2,1H3	InChI=1S/C7H10O2/c1-7-3-2-5(7)9-6(7)4-8/h4-6H,2-3H2,1H3/t5-,6+,7+/m1/s1
