20
gdb 57348	2.36506	1.26791	1.01359	6.2985	77.32	-0.2387	-0.0295	0.2092	1260.4808	0.167664	-440.324028	-440.313738	-440.312794	-440.359417	37.345	
C	 0.0029848943	 1.5348263926	 0.0063542662	-0.391396
C	-0.0000409254	-0.0079536578	-0.0067594171	 0.222906
C	 0.7309181116	-0.5758119762	 1.2276278009	-0.391432
C	-1.465903687	-0.4712280851	 0.0665578446	-0.431821
N	 0.6870927927	-0.4943794871	-1.2571276695	-0.137417
C	 2.0343704452	-0.1300048637	-1.4305362805	 0.168119
O	 2.7453460313	-0.4175893088	-2.3533521948	-0.268611
C	 0.034258975	-1.2782821443	-2.2235482609	 0.158974
O	 0.5199459786	-1.6977781992	-3.2392488567	-0.271333
H	 1.0117750826	 1.9534479096	 0.0281382742	 0.127087
H	-0.5072919464	 1.9259594801	-0.8786539692	 0.131035
H	-0.5228702661	 1.8986711162	 0.8940983912	 0.124112
H	 0.2198083144	-0.2555442005	 2.1404186163	 0.124118
H	 0.732886042	-1.6693884429	 1.2015428793	 0.13103
H	 1.7671888394	-0.2369254308	 1.2959277859	 0.127097
H	-2.0729216967	-0.0834624682	-0.7559426847	 0.134172
H	-1.5635924399	-1.5597175695	 0.0978849776	 0.134178
H	-1.8884196027	-0.0795433488	 0.9957460215	 0.126472
H	 2.3937652985	 0.4816624919	-0.5854121911	 0.087534
H	-1.0104215615	-1.4812961774	-1.9509410235	 0.095178
39.2638	108.2319	118.1778	190.5336	241.8986	250.475	284.6738	321.7724	323.7445	366.9183	387.9907	394.007	452.8239	471.0798	522.429	582.2609	816.5364	920.9534	932.7005	953.6746	960.4643	1013.4562	1036.777	1044.1901	1054.068	1091.5351	1198.5152	1238.9714	1244.9683	1327.3334	1403.3582	1404.5102	1436.6476	1457.2346	1477.6629	1478.0093	1485.8459	1495.1826	1510.4512	1511.9262	1523.5983	1782.6701	1865.1353	2972.5369	3036.6575	3043.7733	3044.9762	3052.3914	3113.4575	3114.5038	3120.3344	3122.9483	3124.5684	3127.3166
CC(C)(C)N(C=O)C=O	CC(C)(C)N(C=O)C=O	
InChI=1S/C6H11NO2/c1-6(2,3)7(4-8)5-9/h4-5H,1-3H3	InChI=1S/C6H11NO2/c1-6(2,3)7(4-8)5-9/h4-5H,1-3H3
