23
gdb 73689	2.46674	1.60878	1.24915	1.1826	84.13	-0.2554	0.0776	0.3329	1123.0337	0.20868	-388.327857	-388.319636	-388.318691	-388.360619	33.732	
O	-0.1010958514	 1.328471131	 0.014108489	-0.497294
C	 0.0651491774	-0.095634937	 0.0001839191	 0.424929
C	 0.6951272703	-0.5654044252	-1.3299262968	-0.26664
C	-0.5130042487	-0.7881684387	-2.2553650139	-0.200167
C	-1.5361899232	-1.4605741101	-1.3214573331	-0.23945
C	-1.3812259614	-0.6986410041	 0.0105192456	 0.033184
C	-1.5059302646	-1.4870716824	 1.3301193124	-0.239337
C	-0.4638810213	-0.8308918633	 2.2545998384	-0.200236
C	 0.7239016388	-0.5882421391	 1.3079807855	-0.266771
H	 0.7774160028	 1.723857668	 0.0072449806	 0.269861
H	 1.4202896059	 0.1566828062	-1.7198939561	 0.081106
H	 1.2249804129	-1.5141387025	-1.1815635331	 0.089915
H	-0.8975519521	 0.1806222375	-2.5944024451	 0.10694
H	-0.2776889723	-1.38192334	-3.14363794	 0.087428
H	-2.5574037536	-1.4352543722	-1.7125789608	 0.093436
H	-1.270657416	-2.5172988354	-1.184429899	 0.089036
H	-2.0649894545	 0.1552477714	 0.0269938805	 0.086163
H	-2.5184664842	-1.4717745732	 1.7436918461	 0.093435
H	-1.2414832569	-2.5402854978	 1.1664694114	 0.089022
H	-0.8424727543	 0.1304839198	 2.6204271959	 0.106914
H	-0.2087094056	-1.4411276211	 3.12606514	 0.087451
H	 1.2525876246	-1.5327342776	 1.1311886475	 0.089912
H	 1.4554922875	 0.1284852858	 1.695773496	 0.081162
46.5273	193.5938	231.2839	292.3352	323.8514	379.7235	379.9919	453.5692	511.0013	540.6836	561.2481	612.4407	712.6442	834.9218	841.2166	886.7606	888.8923	917.1034	924.1855	931.22	969.7289	986.49	1003.318	1017.7724	1051.1391	1076.5381	1109.3812	1131.0679	1137.1169	1192.3148	1208.7608	1229.7159	1248.1709	1248.3396	1305.9988	1310.4813	1329.7487	1330.0478	1337.3426	1339.2725	1354.3377	1364.4081	1381.0559	1472.3861	1479.5099	1486.2053	1488.9395	1499.117	1506.6863	3017.3369	3021.9862	3024.4196	3033.4834	3039.9907	3040.3688	3058.0452	3072.018	3078.0222	3081.086	3087.4614	3092.3101	3096.1761	3798.6334
OC12CCCC1CCC2	O[C@]12CCC[C@H]1CCC2	
InChI=1S/C8H14O/c9-8-5-1-3-7(8)4-2-6-8/h7,9H,1-6H2	InChI=1S/C8H14O/c9-8-5-1-3-7(8)4-2-6-8/h7,9H,1-6H2/t7-,8-
