17
gdb 25630	3.43298	0.98107	0.77035	3.6752	89.16	-0.1988	0.0165	0.2154	1469.2828	0.136072	-380.901387	-380.892078	-380.891134	-380.937037	32.5	
C	-0.0714896034	 1.4769673087	-0.0488931488	-0.510328
C	-0.0192338088	 0.0233990258	-0.05667522	 0.215514
C	 0.0090765801	-1.1830360047	-0.0643950956	-0.112288
C	 0.0535032641	-2.598367516	-0.0724181966	 0.091578
C	 1.1847797179	-3.3877440559	 0.0222150538	 0.208096
C	 2.6254793572	-3.0377779098	 0.154258859	-0.520283
N	 0.713138737	-4.6798596222	-0.0309839294	-0.286737
C	-0.6479235806	-4.6223603949	-0.152409578	-0.017726
N	-1.0829613667	-3.390480527	-0.1809276182	-0.316678
H	 0.4979117538	 1.9056523122	-0.8818112547	 0.144671
H	-1.1045624091	 1.8304594763	-0.1394749105	 0.152523
H	 0.3382864439	 1.8906188764	 0.879941552	 0.144673
H	 3.0645932309	-3.433535877	 1.0783451011	 0.130301
H	 3.2223600634	-3.4180351784	-0.6839047573	 0.130312
H	 2.7268272561	-1.9506649187	 0.1728948772	 0.155155
H	 1.2752238327	-5.513724185	 0.0123051941	 0.264227
H	-1.2573979785	-5.5118107197	-0.2145416781	 0.126993
23.4132	84.9764	106.5677	127.1342	232.0592	256.4543	288.1413	354.2041	478.0234	484.6466	517.9484	551.4382	659.0794	688.4533	744.3828	804.2808	944.8338	987.8668	1004.1188	1051.8813	1052.9286	1063.3753	1106.9661	1141.3251	1261.6596	1316.4814	1376.2087	1412.0731	1418.6124	1454.92	1475.7011	1478.6487	1483.8289	1488.2714	1535.6981	1609.6046	2358.2869	3018.7829	3021.0596	3065.0708	3076.6101	3085.8279	3129.9297	3247.9466	3658.778
CC#CC1=C(C)NC=N1	CC#Cc1c(C)[nH]cn1	
InChI=1S/C7H8N2/c1-3-4-7-6(2)8-5-9-7/h5H,1-2H3,(H,8,9)	InChI=1S/C7H8N2/c1-3-4-7-6(2)8-5-9-7/h5H,1-2H3,(H,8,9)
