17
gdb 34675	5.30901	1.08961	1.0871	1.9627	79.2	-0.2447	0.0451	0.2898	1141.236	0.136754	-384.605619	-384.598632	-384.597687	-384.636841	28.767	
C	-0.0198012569	-1.1379464148	-0.02852318	-0.404297
C	-0.0133656233	 0.0648944438	-0.0068019839	 0.270752
C	-0.0031574893	 1.4987613679	 0.0209320751	-0.229061
C	 0.4877280327	 2.1906896148	 1.285070145	-0.064577
C	 1.3434745774	 2.2086429316	 0.0416067347	-0.064568
C	 1.3019095128	 3.7300252937	-0.233169163	 0.034583
C	 1.6052300704	 4.3280731095	 1.1686717277	-0.217736
C	 0.1957497122	 3.7068180244	 1.3741654978	 0.034591
O	-0.1003777134	 4.068051543	-0.0088741603	-0.281041
H	-0.0331230307	-2.1990967387	-0.0533312893	 0.188192
H	-0.8025133744	 1.9907853366	-0.5220654443	 0.132882
H	 0.7205327845	 1.6126267132	 2.1694141932	 0.105851
H	 2.2603320977	 1.644930863	-0.0680303965	 0.10585
H	 1.7104440638	 4.119272931	-1.1648241017	 0.088525
H	 2.4469710465	 3.9317754188	 1.7422328035	 0.09906
H	 1.5835044332	 5.4189474116	 1.1694735065	 0.112468
H	-0.5335960432	 4.0721941605	 2.0959346756	 0.088526
132.3173	145.3059	322.1578	360.9738	441.8631	495.1769	503.1221	593.0156	635.859	640.8396	706.1337	802.803	838.7578	854.5778	860.6639	873.5999	927.7377	939.0266	950.385	953.2949	1019.5659	1069.3409	1073.1261	1080.8328	1093.9149	1099.1131	1172.6528	1177.2137	1222.1298	1236.054	1253.3935	1275.3602	1284.1249	1310.6316	1394.0974	1484.6074	2237.8266	3066.8249	3131.4111	3133.2608	3144.1715	3170.6646	3202.6953	3211.603	3505.6856
C#CC1C2C1C1CC2O1	C#C[C@H]1[C@H]2[C@@H]1[C@@H]1C[C@H]2O1	
InChI=1S/C8H8O/c1-2-4-7-5-3-6(9-5)8(4)7/h1,4-8H,3H2	InChI=1S/C8H8O/c1-2-4-7-5-3-6(9-5)8(4)7/h1,4-8H,3H2/t4-,5+,6-,7+,8-
