19
gdb 83168	2.49552	1.49039	1.39543	4.3469	74.88	-0.2587	0.0159	0.2746	1048.1234	0.160429	-423.057583	-423.049268	-423.048323	-423.090731	31.255	
C	 0.0042539714	 1.713406545	 0.0973883086	-0.43606
C	 0.0168305477	 0.1974941971	 0.0666050624	-0.014364
C	 1.2075140289	-0.6731656036	-0.2731980029	-0.075729
C	 2.6175547717	-0.1469357114	-0.4108381273	-0.093817
O	 3.0112308908	 0.8383733824	 0.5576043951	-0.229069
C	 2.5830382013	 0.8125091683	 1.84425876	 0.406016
O	 3.0527151292	 1.5937274902	 2.6259452735	-0.329135
C	 1.5211001566	-0.2042766148	 2.2310149778	-0.354008
C	 0.6285457264	-0.7115894781	 1.1162726501	-0.068907
H	 0.9343698848	 2.1541149915	 0.4554038152	 0.153258
H	-0.1725695172	 2.1076101667	-0.9094938353	 0.12136
H	-0.8087487196	 2.0750175023	 0.7362518188	 0.122367
H	-0.911892264	-0.2069537953	-0.330533315	 0.090801
H	 1.0274990252	-1.5190939666	-0.9313369155	 0.093081
H	 3.3243755875	-0.9858711466	-0.3503193228	 0.117002
H	 2.7728878353	 0.3422178931	-1.3775564501	 0.127113
H	 2.0625918564	-1.0572149421	 2.6631785163	 0.138438
H	 0.9568467127	 0.2424896866	 3.0544860595	 0.140882
H	 0.037872515	-1.5786411345	 1.3971322617	 0.09077
75.7759	132.1972	144.9926	175.7361	226.8253	400.1678	413.3432	432.9894	534.9551	570.8689	612.1393	739.1353	749.5036	756.6108	799.2759	870.717	937.7937	985.9214	1015.4671	1019.8698	1049.7762	1095.9073	1113.7498	1130.6812	1148.3186	1157.7755	1207.1573	1243.3424	1257.1949	1290.0501	1338.4305	1371.3383	1388.175	1421.8933	1428.7605	1457.8973	1472.8897	1495.6269	1508.2404	1516.9285	1842.5284	3012.3599	3024.4321	3038.4032	3073.8016	3089.0486	3090.4011	3120.1424	3136.917	3148.2905	3155.4415
CC1C2COC(=O)CC12	C[C@H]1[C@H]2COC(=O)C[C@@H]12	
InChI=1S/C7H10O2/c1-4-5-2-7(8)9-3-6(4)5/h4-6H,2-3H2,1H3	InChI=1S/C7H10O2/c1-4-5-2-7(8)9-3-6(4)5/h4-6H,2-3H2,1H3/t4-,5+,6-/m1/s1
