18
gdb 82427	2.44999	1.80925	1.24838	3.3875	72.36	-0.2588	0.0196	0.2783	1020.4119	0.14961	-439.087499	-439.079852	-439.078908	-439.119498	30.323	
O	 0.2558811545	 1.1627148364	 0.4655780491	-0.440102
C	-0.0098078375	-0.1263488858	-0.0170798136	 0.070398
C	-1.4989425292	-0.4167039474	-0.0620391066	-0.049948
C	-2.2858077594	-0.1715425929	-1.326174147	-0.297721
C	-1.8910641589	-1.5744349677	-0.9356871541	-0.05093
C	-0.7605087236	-2.2834226687	-1.648174905	-0.102727
O	 0.2584833647	-1.3911428455	-2.129938428	-0.24437
C	 0.6283419563	-0.3247499368	-1.3849916545	 0.359338
N	 1.4792539729	 0.5241729023	-1.7853344902	-0.551247
H	 0.9280368065	 1.5253250245	-0.1358210769	 0.295624
H	 0.4493191322	-0.8771906004	 0.6544085194	 0.089296
H	-2.0031954803	-0.2764564989	 0.8878644061	 0.100646
H	-3.330079241	 0.1000761095	-1.2239988268	 0.118046
H	-1.7852369379	 0.2998741213	-2.1650195084	 0.13453
H	-2.6714130625	-2.2472623291	-0.5925267243	 0.097033
H	-0.2979529792	-3.0254728147	-0.9829777743	 0.117565
H	-1.1101955972	-2.8070215777	-2.5424899298	 0.126955
H	 1.8408911397	 0.2964834317	-2.7107592451	 0.227614
100.5859	148.7529	254.3272	307.5201	332.7632	416.62	439.7842	479.8747	508.4627	552.1321	651.5891	720.7651	769.2387	823.0474	867.0478	881.4755	919.5984	940.7983	969.3532	1051.4381	1061.7514	1080.4602	1091.4809	1117.2433	1130.7853	1146.0845	1169.2286	1214.3812	1264.8435	1282.2835	1307.8435	1355.8287	1375.6249	1415.2525	1433.2521	1465.9514	1502.928	1515.7925	1743.3127	2917.1507	3013.8446	3085.2125	3140.7934	3152.5969	3171.0865	3225.2165	3499.6913	3656.2141
OC1C2CC2COC1=N	O[C@H]1[C@H]2C[C@H]2CO[C]1[NH]	
InChI=1S/C6H9NO2/c7-6-5(8)4-1-3(4)2-9-6/h3-5,7-8H,1-2H2	InChI=1S/C6H9NO2/c7-6-5(8)4-1-3(4)2-9-6/h3-5,7-8H,1-2H2/t3-,4-,5-/m0/s1
