13
gdb 11183	3.85195	1.57388	1.42122	3.0454	57.72	-0.2671	-0.0466	0.2205	873.4173	0.09546	-398.624994	-398.61801	-398.617066	-398.656812	24.965	
O	-0.0057167639	 0.0228104817	-0.2252967375	-0.280668
C	-0.0201274367	 1.206403974	-0.0371282983	 0.381586
C	-1.2546834553	 2.0801164663	 0.2003430427	-0.190173
O	-0.7626537777	 3.3584100537	 0.5784193709	-0.240686
C	 0.5275456451	 3.5393444378	-0.0034476773	-0.049745
C	 1.1889225876	 2.1502576086	 0.0131200381	-0.352825
C	 0.4167411909	 4.0817401217	-1.3753626722	 0.273557
N	 0.3244564651	 4.4971021757	-2.4494967342	-0.308179
H	-1.8511409144	 2.1262563767	-0.7233525346	 0.147572
H	-1.882305674	 1.6883483729	 1.0043168619	 0.153396
H	 1.0537033039	 4.2726649063	 0.6120710859	 0.146336
H	 1.7162547535	 1.9943933792	 0.9595702788	 0.155398
H	 1.8807522959	 1.9572537354	-0.8070585842	 0.164432
67.1989	123.7114	201.34	279.6747	445.6432	451.4079	482.6363	569.432	631.4005	749.0796	753.323	815.9675	885.5078	938.9005	1005.7887	1048.0066	1078.0954	1160.6558	1172.0069	1222.0821	1251.409	1299.5542	1336.1618	1364.4662	1444.8505	1475.92	1871.7414	2356.2488	3004.1311	3069.8256	3093.8944	3108.4204	3143.7242
O=C1COC(C1)C#N	O=C1CO[C@@H](C1)C#N	
InChI=1S/C5H5NO2/c6-2-5-1-4(7)3-8-5/h5H,1,3H2	InChI=1S/C5H5NO2/c6-2-5-1-4(7)3-8-5/h5H,1,3H2/t5-/m0/s1
