20
gdb 81289	2.65587	1.53985	1.23937	3.902	78.85	-0.2351	0.0372	0.2723	1087.9603	0.173961	-403.18803	-403.180166	-403.179222	-403.220099	31.306	
C	-0.1098496557	 1.5007259048	 0.0394183562	-0.428874
C	 0.0241655189	-0.0170949389	-0.0019111981	 0.034263
C	 0.8404624459	-0.5899200043	-1.2013707534	-0.02172
C	 2.1167970083	-0.4571794455	-0.3263324804	-0.242506
C	 1.1614945543	-0.6137556722	 0.8929178388	-0.123185
C	 0.8823079816	-2.0967538677	 1.0945843323	 0.392476
O	 0.9215412017	-2.6670581265	 2.1666736233	-0.387924
N	 0.5761203287	-2.7363234218	-0.0810529176	-0.300377
C	 0.5008505217	-2.0717184418	-1.3778441827	-0.175687
H	 0.8493402282	 2.0087672654	-0.1018975735	 0.11821
H	-0.7883022807	 1.8499337616	-0.7468644595	 0.116418
H	-0.518735534	 1.8272572549	 1.0012850316	 0.123481
H	-0.9617603506	-0.4724987882	 0.1436539913	 0.075547
H	 0.7966802856	-0.0681073244	-2.1605916712	 0.066335
H	 2.9044812101	-1.2044843261	-0.4532806966	 0.10505
H	 2.557490872	 0.539393636	-0.3795183955	 0.107639
H	 1.4037909212	-0.1482302013	 1.847609912	 0.081663
H	 0.3781176414	-3.722648437	-0.0080950453	 0.245366
H	-0.5087897732	-2.1754530849	-1.8003426952	 0.106814
H	 1.2019212147	-2.5386385321	-2.0838286465	 0.107011
115.5318	197.9202	215.0956	243.7375	280.9491	383.1505	421.8827	457.1515	499.3594	542.1865	665.0684	737.7338	787.2428	811.9918	849.6482	878.3838	909.2882	935.1571	974.6176	1003.9182	1049.3715	1064.7392	1088.1693	1106.2773	1113.1965	1143.525	1157.4013	1222.6905	1237.9857	1266.5716	1285.6364	1296.66	1302.2786	1326.1262	1375.7075	1397.5646	1413.2528	1472.4691	1494.5663	1497.4922	1506.9235	1526.7703	1804.6314	2993.6132	3021.8472	3031.0065	3038.0546	3065.5389	3079.6187	3095.4229	3103.8848	3121.2968	3126.1871	3623.57
CC1C2CC1C(=O)NC2	C[C@H]1[C@H]2C[C@@H]1C(=O)NC2	
InChI=1S/C7H11NO/c1-4-5-2-6(4)7(9)8-3-5/h4-6H,2-3H2,1H3,(H,8,9)	InChI=1S/C7H11NO/c1-4-5-2-6(4)7(9)8-3-5/h4-6H,2-3H2,1H3,(H,8,9)/t4-,5-,6-/m0/s1
