14
gdb 26793	3.62745	1.13673	0.87019	6.2183	75.6	-0.2217	-0.0309	0.1907	1240.9312	0.101203	-432.922428	-432.913838	-432.912894	-432.956874	30.239	
C	-0.0816062961	 1.5120069676	 0.0205289582	-0.502879
C	-0.0125950362	 0.0197188522	-0.0170876914	 0.138234
C	 0.2167623819	-0.8056356236	-1.1029335434	 0.337446
O	 0.4435939964	-0.5987547833	-2.4149258706	-0.426441
N	 0.1874367612	-2.0864840779	-0.6416516473	-0.347698
C	-0.0590574982	-2.0074961511	 0.7133120834	 0.233394
N	-0.1809816938	-0.753793116	 1.1010124022	-0.328254
C	-0.1561064304	-3.163640655	 1.5227956268	 0.233351
N	-0.2280606704	-4.1356413965	 2.1496833246	-0.342709
H	 0.0768502613	 1.9500771849	-0.9714872742	 0.098624
H	-1.0572939535	 1.8547205059	 0.3796211174	 0.150301
H	 0.6792254281	 1.9273741069	 0.689108728	 0.150255
H	 0.4351304589	 0.3487546611	-2.5868968752	 0.316556
H	 0.3212497208	-2.9184336852	-1.1937979685	 0.289819
22.3267	125.8474	147.9584	227.915	257.2447	261.0181	337.5411	427.2825	512.2303	525.1465	540.0877	609.2848	645.5681	695.6951	711.6242	799.836	1000.4366	1029.3605	1058.8432	1144.459	1221.6144	1247.8057	1314.1824	1419.4691	1425.654	1468.1237	1497.1042	1509.196	1549.9767	1639.5825	2339.7767	3029.7445	3093.0378	3097.8191	3657.3964	3832.5869
CC1=C(O)NC(=N1)C#N	Cc1c(O)[nH]c(n1)C#N	
InChI=1S/C5H5N3O/c1-3-5(9)8-4(2-6)7-3/h9H,1H3,(H,7,8)	InChI=1S/C5H5N3O/c1-3-5(9)8-4(2-6)7-3/h9H,1H3,(H,7,8)
