20
gdb 111763	2.58656	1.30218	1.02822	2.1427	75.75	-0.2171	0.0609	0.278	1245.7184	0.169163	-440.203035	-440.193385	-440.192441	-440.238386	34.554	
C	-0.2024507426	 1.4321816276	-0.1476286841	-0.325018
N	 0.426569613	 0.1133298465	-0.1790089493	-0.379977
C	 0.7649666371	-0.4156359254	 1.0981420676	 0.21087
C	 2.1895914368	-0.4320290115	 1.6687841944	-0.106997
O	 1.9908511243	-1.7536351311	 2.2454406942	-0.287725
C	 0.6828709248	-1.8169094984	 1.6895443127	-0.029723
C	-0.1905998664	-0.7132189055	 2.2343927363	 0.050545
O	 0.008055558	-0.1574450963	 3.4884317825	-0.237101
C	-0.2673642663	-1.0566816994	 4.549755352	-0.235275
H	 0.4999331681	 2.1613217426	 0.2689744906	 0.130286
H	-0.4384133798	 1.7432962404	-1.1691849639	 0.117419
H	-1.1240673443	 1.4759664901	 0.4553705129	 0.104983
H	-0.1370642661	-0.5413188157	-0.7065379482	 0.224626
H	 2.945544159	-0.4666355957	 0.8783630536	 0.110647
H	 2.4431640399	 0.3132153439	 2.4275083681	 0.114958
H	 0.3374035011	-2.7693286398	 1.2990161979	 0.101944
H	-1.2344660218	-0.7902113372	 1.9153958614	 0.079986
H	-1.3164239763	-1.3881508602	 4.5380505229	 0.101028
H	 0.3869173222	-1.9356916193	 4.5009768228	 0.128913
H	-0.0796094805	-0.5165966157	 5.4807573457	 0.125613
35.9477	84.57	132.7391	172.08	187.664	209.309	258.9014	310.0842	379.0788	383.8009	494.2513	611.3037	665.3122	724.5612	801.9734	855.1485	925.6387	942.4241	986.2489	1009.7875	1034.8273	1062.2875	1074.0115	1099.4775	1124.8033	1154.2273	1160.4738	1177.5676	1184.7839	1218.7186	1243.6892	1284.1984	1304.9802	1346.1054	1439.0635	1462.8257	1468.6294	1484.2793	1488.0076	1493.7578	1501.2585	1506.2927	1517.0642	2971.813	2990.3046	3047.3646	3059.4583	3063.4008	3068.511	3109.5563	3111.0375	3120.0416	3158.6804	3551.8594
CNC12COC1C2OC	CN[C@]12CO[C@H]1[C@H]2OC	
InChI=1S/C6H11NO2/c1-7-6-3-9-5(6)4(6)8-2/h4-5,7H,3H2,1-2H3	InChI=1S/C6H11NO2/c1-7-6-3-9-5(6)4(6)8-2/h4-5,7H,3H2,1-2H3/t4-,5+,6+/m1/s1
