17
gdb 123445	5.45335	0.94901	0.83807	4.0738	74.33	-0.258	-0.0018	0.2561	1332.4692	0.138612	-414.152377	-414.144687	-414.143743	-414.185919	28.086	
C	 0.1634326678	 1.2468047729	 0.5934924029	-0.173063
C	-0.012878382	-0.0867473083	-0.0875549839	 0.01023
C	-1.3741231553	-0.6373009827	-0.2861237456	-0.246232
N	-0.5911766529	-0.1669443082	-1.4422245196	-0.312611
N	 1.4019004772	 1.909370021	 0.2036092279	 0.058246
C	 1.9868966448	 2.0071211865	-1.0155194458	-0.099439
C	 3.0980018701	 2.7838185685	-0.7922778841	-0.066701
N	 3.1387603988	 3.119117585	 0.5261866292	-0.190464
N	 2.1120998323	 2.590731519	 1.1281036756	-0.144293
H	-0.6903420361	 1.8993253616	 0.3673012329	 0.121664
H	 0.2184370136	 1.1365862542	 1.6796609154	 0.153933
H	 0.8082038564	-0.7823173351	 0.0702293029	 0.116292
H	-1.5326131847	-1.710265539	-0.2424476243	 0.132559
H	-2.2204366222	-0.0409835742	 0.0457089763	 0.12038
H	-0.9343078584	 0.748156679	-1.7284321953	 0.232108
H	 1.5906910834	 1.5182857059	-1.8891013793	 0.160846
H	 3.8576061673	 3.1075870541	-1.4850523351	 0.126543
36.9652	97.2233	122.1467	265.3007	306.2496	353.1131	459.0421	647.0893	716.6471	753.5353	800.2363	802.6879	833.7101	865.4902	933.8089	945.1599	965.3948	994.5058	1041.9578	1055.6677	1088.4301	1127.8903	1140.3254	1153.1827	1173.3798	1234.0972	1258.4327	1285.6298	1292.9994	1318.3145	1331.9372	1362.6672	1435.2134	1473.7805	1507.2382	1513.1192	1522.3175	3021.4782	3104.7058	3113.29	3141.4484	3200.9403	3270.2538	3294.9682	3481.6434
C(C1CN1)N1C=CN=N1	C([C@H]1CN1)n1ccnn1	
InChI=1S/C5H8N4/c1-2-9(8-7-1)4-5-3-6-5/h1-2,5-6H,3-4H2	InChI=1S/C5H8N4/c1-2-9(8-7-1)4-5-3-6-5/h1-2,5-6H,3-4H2/t5-/m1/s1
