15
gdb 37515	3.43581	2.22064	1.94925	0.8994	60.44	-0.2399	0.0651	0.305	738.9444	0.11684	-457.728693	-457.72378	-457.722836	-457.757811	21.9	
O	-0.0590380215	 1.4715690074	-0.0338371261	-0.307623
C	 1.3828439449	 1.3928105542	 0.0108149862	 0.08439
C	 1.3454980248	 0.0424818326	 0.7932954751	-0.125821
C	-0.0093098978	 0.0286259416	 0.0178225674	 0.08439
C	 0.6654310693	-0.4281307236	-1.2950908744	 0.012989
O	 1.3841980823	-1.5925745103	-0.8939834673	-0.242956
C	 2.280870635	-0.9162545771	-0.0208831466	 0.151541
O	 2.9707494518	-0.0379028311	-0.9019650133	-0.242957
C	 1.8190791812	 0.7023351012	-1.3008952759	 0.012989
H	 1.8889854646	 2.2997246045	 0.3344284443	 0.095296
H	 1.3570700646	 0.0362457018	 1.8784764585	 0.09187
H	-0.9246286911	-0.457360839	 0.3485885641	 0.095296
H	 0.0742499529	-0.6006718537	-2.1893099535	 0.094048
H	 2.9571014865	-1.6037814749	 0.479481542	 0.102501
H	 1.9989832626	 1.2853827266	-2.1989954004	 0.094047
444.206	463.2273	490.54	623.9286	671.501	680.7399	746.3486	839.3219	856.9112	865.2645	882.2623	894.0839	900.9474	913.7849	942.082	966.7204	967.2291	1017.8443	1027.1218	1034.9886	1069.1076	1131.2508	1148.4818	1191.0226	1223.4563	1232.835	1235.0015	1272.3665	1275.451	1278.0785	1315.0469	1341.2199	1342.0228	3148.0422	3149.0336	3171.722	3172.8749	3177.3011	3183.5851
O1C2C3C1C1OC3OC21	O1[C@H]2[C@H]3[C@@H]1[C@@H]1O[C@H]3O[C@H]21	
InChI=1S/C6H6O3/c7-2-1-3(7)5-4(2)8-6(1)9-5/h1-6H	InChI=1S/C6H6O3/c7-2-1-3(7)5-4(2)8-6(1)9-5/h1-6H/t1-,2-,3+,4+,5-,6+
