19
gdb 128484	3.21799	1.24421	0.91276	1.4138	80.67	-0.1975	0.0288	0.2263	1292.7808	0.158766	-419.221129	-419.211374	-419.210429	-419.256371	33.942	
C	-0.0001826856	 1.4208265772	 0.0303628246	-0.248132
O	-0.0132696764	 0.0069409525	 0.0209742083	-0.27153
C	 0.6003963885	-0.5730094552	-1.0451088155	 0.19662
C	 0.6851717342	-1.9449765726	-1.2215251483	 0.250993
C	 0.1746579524	-3.0566945615	-0.3702989503	-0.514035
N	 1.3656051211	-2.1146968432	-2.3924675981	-0.007214
C	 1.7177731201	-3.3651758192	-3.0259369886	-0.325822
N	 1.7183485812	-0.9537527995	-2.9719740071	-0.279318
C	 1.2552266818	-0.0035154542	-2.1562453932	-0.123456
H	 1.0257295946	 1.8130903044	 0.0520754963	 0.120587
H	-0.5171291448	 1.833350117	-0.8468133002	 0.120582
H	-0.5235985036	 1.7330597597	 0.9357859138	 0.130584
H	-0.5442867032	-3.6921677667	-0.9016991064	 0.130236
H	 0.9797845905	-3.7068439616	-0.0066216127	 0.130332
H	-0.3319483278	-2.6330076508	 0.49946958	 0.151763
H	 0.8245274719	-3.9475004025	-3.27643742	 0.135012
H	 2.257054509	-3.120532381	-3.9402914495	 0.161188
H	 2.3597441542	-3.97054593	-2.3770380308	 0.135014
H	 1.4109228021	 1.0356761675	-2.4000784025	 0.106595
59.6445	80.2745	111.2386	149.3528	190.1311	214.4179	246.8011	253.4475	352.2765	365.9247	544.5237	585.2493	648.8221	688.5118	733.5603	772.1302	830.513	951.5939	1043.595	1061.4183	1066.5656	1149.8461	1168.0116	1181.6444	1195.3744	1218.5866	1239.3357	1353.8039	1389.9562	1410.7765	1426.039	1455.8356	1476.1934	1479.712	1485.7553	1490.1235	1496.6343	1503.4905	1508.6786	1540.6714	1637.8488	2996.4245	3019.6795	3032.6168	3051.4201	3065.1777	3087.3358	3129.291	3130.4791	3164.2697	3255.3268
COC1=C(C)N(C)N=C1	COc1c(C)n(C)nc1	
InChI=1S/C6H10N2O/c1-5-6(9-3)4-7-8(5)2/h4H,1-3H3	InChI=1S/C6H10N2O/c1-5-6(9-3)4-7-8(5)2/h4H,1-3H3
