16
gdb 60793	2.75593	1.20017	1.03871	3.0945	65.8	-0.2876	-0.0596	0.2281	1163.5157	0.120323	-475.034123	-475.02434	-475.023395	-475.068621	34.991	
C	-0.0511081364	 1.5645213445	 0.1372564622	-0.408128
C	-0.0314183341	 0.0392151001	 0.0198641486	 0.16325
O	 0.6941875766	-0.4681918109	 1.1336223638	-0.447024
C	-1.4119002639	-0.4915707685	 0.0367611248	 0.267141
N	-2.4707495279	-0.9509527645	 0.0881033511	-0.327468
C	 0.6585572523	-0.4280281738	-1.3038204296	 0.028125
O	-0.0382171804	 0.019012007	-2.4233135595	-0.424392
C	 2.1052146315	 0.0448000847	-1.3496101783	 0.127165
O	 2.5155121763	 0.6677296919	-2.2987429933	-0.257128
H	 0.9730700798	 1.933193713	 0.2412036549	 0.138777
H	-0.5027025287	 1.9974136976	-0.756517854	 0.157338
H	-0.6203273555	 1.8674411559	 1.0174881719	 0.149191
H	 0.5023491878	-1.4082407004	 1.2310148163	 0.300267
H	 0.6903914246	-1.5330707683	-1.2709054731	 0.103105
H	 0.6141798436	 0.4910947664	-2.9677659637	 0.302714
H	 2.7451299346	-0.2207580948	-0.4905304222	 0.127068
74.7302	108.8169	152.495	187.9958	222.7532	248.206	273.5849	308.3703	324.9051	381.1027	427.2532	435.7372	500.6283	572.3732	628.7033	702.5729	783.7133	859.2025	935.8856	959.3091	1005.0627	1106.3577	1152.6687	1182.6735	1194.7444	1256.37	1319.1785	1377.8872	1383.3178	1411.5867	1433.1297	1485.0537	1492.5182	1809.5615	2355.9084	2938.7196	2995.6535	3059.8138	3138.3664	3159.3426	3667.0293	3802.5459
CC(O)(C#N)C(O)C=O	C[C@@](O)(C#N)[C@@H](O)C=O	
InChI=1S/C5H7NO3/c1-5(9,3-6)4(8)2-7/h2,4,8-9H,1H3	InChI=1S/C5H7NO3/c1-5(9,3-6)4(8)2-7/h2,4,8-9H,1H3/t4-,5+/m0/s1
