15
gdb 42786	2.56258	1.7348	1.4694	3.7232	67.21	-0.2613	-0.0415	0.2198	928.6015	0.114628	-453.937043	-453.93002	-453.929075	-453.968758	26.843	
N	-0.0958745645	 1.2794605393	-0.2180162858	-0.519015
C	-0.0550215819	 0.0455353489	 0.0408990976	 0.416563
O	 1.1079337476	-0.6112511282	 0.3559305556	-0.267151
C	 1.0719963882	-1.9853377743	 0.7876124418	-0.098887
C	-0.3266560409	-2.5947581119	 0.6232365632	-0.149464
N	-0.9466847878	-2.1497822756	-0.6585650774	-0.314404
C	-1.2833334908	-0.8381869317	-0.0186225162	-0.20655
C	-1.3144359099	-1.6343989963	 1.3062906576	 0.466341
O	-1.8715510598	-1.5608471791	 2.3537385228	-0.295589
H	 0.8311789603	 1.7003077522	-0.1261004513	 0.228402
H	 1.8021275151	-2.5257201825	 0.1747729698	 0.128304
H	 1.3958188312	-2.027626404	 1.8339173174	 0.138313
H	-0.3422624263	-3.6644883639	 0.8437671442	 0.112121
H	-0.2790060159	-2.0600580399	-1.4228719032	 0.23373
H	-2.1540412946	-0.2977392128	-0.3844127562	 0.127287
101.7581	136.5544	192.2274	372.66	409.2928	466.7576	509.9144	544.5638	651.4765	696.8433	772.4412	787.5882	870.1979	887.276	903.8984	934.8004	1002.0977	1027.7431	1032.8289	1058.9954	1101.9905	1118.3713	1160.7302	1211.7578	1238.3661	1267.4394	1291.1064	1296.5303	1347.158	1413.7809	1512.4253	1757.6959	1936.4572	3032.8323	3077.8745	3096.809	3149.9635	3466.991	3477.7219
N=C1OCC2NC1C2=O	[NH][C]1OC[C@@H]2N[C@H]1C2=O	
InChI=1S/C5H6N2O2/c6-5-3-4(8)2(7-3)1-9-5/h2-3,6-7H,1H2	InChI=1S/C5H6N2O2/c6-5-3-4(8)2(7-3)1-9-5/h2-3,6-7H,1H2/t2-,3-/m0/s1
