23
gdb 58274	2.53878	0.93568	0.88077	3.3733	82.8	-0.2429	0.0582	0.3011	1505.1756	0.204277	-421.663073	-421.651785	-421.650841	-421.699744	41.309	
C	 0.1041060755	 1.4111318083	 0.2088222083	-0.392091
C	 0.0932889044	-0.0695909159	-0.1903098398	 0.050619
C	-1.2904714663	-0.6979176886	 0.0190049605	-0.403533
C	 0.6240603957	-0.3195220575	-1.6264430284	 0.075271
C	-0.1442131676	 0.4094538806	-2.7313604996	-0.433484
N	 2.0427269919	 0.036726877	-1.7242316577	-0.349139
C	 3.0167013784	-0.862331326	-1.3610785808	 0.448814
N	 4.3114140914	-0.4620839259	-1.689304823	-0.568506
O	 2.7777032672	-1.9300602218	-0.8252022347	-0.395296
H	 1.0826425021	 1.8635534011	 0.0201456398	 0.105085
H	-0.6497730528	 1.9866652537	-0.3405474545	 0.107457
H	-0.1160693253	 1.5247229641	 1.2751340459	 0.111608
H	 0.7974476113	-0.6021762881	 0.4593191285	 0.099476
H	-2.0653604616	-0.1848340283	-0.5618665203	 0.108872
H	-1.2971483488	-1.7547574084	-0.2684970429	 0.117494
H	-1.5841719774	-0.6387977628	 1.0719504831	 0.112356
H	 0.5560987658	-1.3994077723	-1.8011226898	 0.101041
H	-1.2071195916	 0.1593668147	-2.7003593395	 0.12997
H	-0.055735118	 1.4974400547	-2.6358499036	 0.117654
H	 0.2366907424	 0.1222719976	-3.7166208689	 0.119566
H	 2.2920542389	 0.7539431829	-2.3861559344	 0.23479
H	 4.5071675451	 0.5281322822	-1.6687569059	 0.243658
H	 5.0073234793	-1.0178537413	-1.2146763322	 0.258319
46.3944	65.6085	86.6156	172.6537	212.4298	238.8905	256.5197	263.463	277.1153	324.1196	341.176	379.0116	414.8802	437.6344	534.6901	562.7592	582.4668	669.0793	769.2812	783.6203	892.9023	922.1988	929.7281	967.3728	995.2278	1028.9855	1075.7082	1095.5857	1145.474	1172.3055	1189.2072	1214.6215	1299.4834	1336.0132	1353.1793	1381.9293	1390.7956	1405.1643	1411.4378	1423.1356	1487.3661	1490.636	1495.5988	1506.5139	1508.4848	1512.3174	1525.3067	1626.4149	1794.8911	3026.1028	3028.6219	3036.8761	3040.679	3044.7323	3089.4754	3096.1796	3099.8017	3101.197	3104.4929	3125.0319	3568.1246	3628.915	3680.7108
CC(C)C(C)NC(N)=O	CC(C)[C@@H](C)NC(=O)N	
InChI=1S/C6H14N2O/c1-4(2)5(3)8-6(7)9/h4-5H,1-3H3,(H3,7,8,9)	InChI=1S/C6H14N2O/c1-4(2)5(3)8-6(7)9/h4-5H,1-3H3,(H3,7,8,9)/t5-/m1/s1
