14
gdb 7039	7.69719	0.83651	0.76157	3.877	75.38	-0.2579	-0.0516	0.2063	1436.8596	0.10278	-345.359916	-345.350502	-345.349558	-345.397094	31.052	
C	 0.0998734311	 1.4629270736	 0.0086444903	-0.504846
C	 0.0271264921	 0.0123777254	-0.000149136	 0.145492
C	-0.0549816394	-1.1918525205	-0.0071521273	-0.025604
C	-0.1427631596	-2.6371249005	-0.0156308236	 0.222648
O	-1.1963114037	-3.2282050534	-0.0157167715	-0.264898
C	 1.2247780628	-3.3413387614	-0.024440538	-0.461942
C	 1.1539457685	-4.7915490028	-0.0330457287	 0.318453
C	 1.1069778768	-5.991060506	-0.0401993236	-0.438861
H	 1.1363907293	 1.8142704039	-0.0154668601	 0.158951
H	-0.4222720078	 1.8815715365	-0.8584645422	 0.166356
H	-0.3760426951	 1.8679414534	 0.908271841	 0.166372
H	 1.7796431209	-2.9677268589	-0.8959671839	 0.159288
H	 1.7853974685	-2.9783542608	 0.8478936517	 0.15929
H	 1.0567154556	-7.0516089586	-0.0464957882	 0.199301
7.1523	40.2757	75.7504	145.1329	154.8184	297.8171	322.2775	368.2345	379.5208	448.6546	566.5653	571.4707	626.6638	649.5751	797.7644	926.0143	941.671	1012.676	1044.1754	1054.5619	1183.0821	1210.4079	1331.8585	1409.6607	1434.4727	1469.6568	1472.6381	1780.5673	2250.0738	2339.4694	3018.3337	3032.8279	3045.9152	3096.9658	3100.7858	3507.5307
CC#CC(=O)CC#C	CC#CC(=O)CC#C	
InChI=1S/C7H6O/c1-3-5-7(8)6-4-2/h1H,5H2,2H3	InChI=1S/C7H6O/c1-3-5-7(8)6-4-2/h1H,5H2,2H3
