16
gdb 27729	2.24991	1.4617	0.89094	4.4907	79.33	-0.2056	-0.0306	0.175	1239.7723	0.12418	-437.949913	-437.941217	-437.940272	-437.983521	31.75	
C	 0.0013291323	 1.5325087716	 0.0785670432	-0.508978
C	 0.0349608706	 0.035218633	 0.0289054937	 0.239181
C	-0.0203887036	-0.7675042588	-1.109937223	 0.121785
N	 0.0413157296	-2.0920755848	-0.6892532868	-0.343052
C	 0.1307814092	-2.1284357142	 0.653489074	 0.417842
O	 0.2007077648	-3.3276851369	 1.262435578	-0.41982
C	 0.1305777513	-0.8295297871	 1.146332368	-0.39508
C	-0.1216098507	-0.4864637783	-2.513536083	 0.065668
O	-0.1578326322	-1.351883322	-3.376601191	-0.340194
H	 0.9062489127	 1.9328351897	 0.5495658296	 0.134561
H	-0.0764609864	 1.9728212443	-0.9176724166	 0.133613
H	-0.8510359855	 1.8894875909	 0.6676659012	 0.134538
H	 0.0158285207	-2.8727924493	-1.3254919191	 0.282683
H	 0.2626342087	-3.1898071198	 2.2128941655	 0.314711
H	 0.1928995597	-0.545839948	 2.1864359548	 0.097585
H	-0.1664310511	 0.5900313498	-2.7777640089	 0.064955
68.3961	142.6608	170.5878	204.2108	248.0444	270.6457	305.5664	416.1727	422.1667	558.1133	558.7304	594.6292	665.8935	684.4675	687.9077	750.1485	860.4368	1000.9444	1013.2466	1038.6027	1057.8454	1150.2833	1170.5004	1203.2808	1264.9573	1367.2871	1400.9772	1419.0515	1456.5879	1481.9474	1489.2992	1538.2509	1591.5269	1622.7817	1737.2535	2914.8025	3032.6435	3080.8658	3125.4676	3237.9312	3660.7279	3843.0014
CC1=C(NC(O)=C1)C=O	Cc1c([nH]c(O)c1)C=O	
InChI=1S/C6H7NO2/c1-4-2-6(9)7-5(4)3-8/h2-3,7,9H,1H3	InChI=1S/C6H7NO2/c1-4-2-6(9)7-5(4)3-8/h2-3,7,9H,1H3
