17
gdb 102160	2.54389	1.11542	0.86087	8.675	69.07	-0.2668	0.0095	0.2763	1322.545	0.136387	-455.192915	-455.183707	-455.182763	-455.227682	32.844	
N	 0.0413475378	 0.9960392398	 0.1394696832	-0.525206
H	 0.2744644646	 0.0150263315	 0.2608600794	 0.252592
H	 0.9128064837	 1.5015907491	 0.0239696783	 0.256043
H	-1.3080982129	 1.2775679124	-0.9813787906	 0.313784
C	-0.7185827962	 1.4997459782	 1.2970259324	-0.194871
C	-2.1899233041	 1.0426740972	 1.199014683	-0.147832
C	-2.9704414078	 1.3719793277	 2.4879159896	-0.346389
C	-4.1679563337	 0.5520715274	 2.6543926691	 0.278738
N	-5.0860395921	-0.1302425294	 2.8148554555	-0.308136
C	-2.9101554936	 1.647667747	-0.0253039168	 0.435001
O	-2.2315559067	 1.5875496911	-1.1732466864	-0.376221
O	-4.0081791948	 2.1335515406	 0.0521682448	-0.323326
H	-0.2983322557	 1.1688424306	 2.2566409333	 0.11358
H	-0.6670727087	 2.5939434135	 1.2824981988	 0.136503
H	-2.1845286609	-0.0470491238	 1.061116757	 0.124863
H	-2.3307766997	 1.208815939	 3.3630692188	 0.140009
H	-3.2666340391	 2.4248791382	 2.4799509205	 0.170868
58.0758	74.7135	120.2658	173.5747	274.564	284.6167	314.2565	350.484	378.1716	422.0915	452.8865	581.5985	616.6814	726.8743	795.8185	864.2381	925.9516	946.2233	960.391	994.7762	1057.7303	1071.2925	1095.3959	1165.9648	1213.1019	1256.5936	1294.6749	1322.163	1367.1626	1373.0557	1417.3984	1451.0486	1488.4483	1510.8555	1652.0923	1851.9417	2368.6268	3005.3725	3024.8197	3045.5251	3075.5771	3101.9912	3243.817	3506.476	3589.4698
[NH3+]CC(CC#N)C([O-])=O	NC[C@@H](CC#N)C(=O)O	
InChI=1S/C5H8N2O2/c6-2-1-4(3-7)5(8)9/h4H,1,3,7H2,(H,8,9)	InChI=1S/C5H8N2O2/c6-2-1-4(3-7)5(8)9/h4H,1,3,7H2,(H,8,9)/t4-/m1/s1
