18
gdb 37064	3.28083	1.70756	1.43968	3.0644	75.3	-0.2277	-0.0008	0.2268	943.2796	0.150766	-401.927416	-401.92065	-401.919706	-401.958205	27.883	
C	 0.0278634997	 1.5131759614	 0.1855854721	-0.124746
O	 1.3945418788	 1.9198307984	 0.0798456974	-0.260095
C	 2.1217908072	 1.0169348727	-0.7580573828	-0.131907
C	 1.3455940798	-0.2782374719	-0.7131463712	 0.234642
N	 1.0244687125	-0.7020000518	 0.6750494242	-0.392255
C	 0.0180626806	 0.0304516643	-0.1111002914	 0.238434
C	-1.0445986486	-0.7465818073	-0.8807692073	-0.375936
C	-0.2183896163	-1.5532508121	-1.8737485872	-0.070386
C	 1.0869630585	-1.2626084846	-1.8023421535	-0.189415
H	-0.3053586525	 1.7761424806	 1.1944113557	 0.112124
H	-0.6072994525	 2.0397676147	-0.5457502948	 0.086562
H	 2.1749353222	 1.3835785684	-1.7958127909	 0.090777
H	 3.1366847976	 0.9530394678	-0.3536564137	 0.111899
H	 0.8078790063	-1.6970131194	 0.6689245711	 0.225678
H	-1.6617574836	-1.3855017395	-0.2364057994	 0.118241
H	-1.738197261	-0.0688997686	-1.3955687078	 0.119085
H	-0.6595514371	-2.299054611	-2.5267711691	 0.1023
H	 1.8644668183	-1.7029616222	-2.4156412113	 0.104997
183.8344	213.3843	258.4113	336.4072	419.0042	475.7334	538.811	592.8921	624.9096	726.8163	757.8663	807.2441	817.9869	875.0876	923.7106	931.5905	946.2699	962.96	1009.8401	1051.3919	1054.5053	1078.5405	1094.777	1119.4422	1142.2075	1173.0593	1221.3124	1235.6295	1264.5699	1278.8253	1313.2345	1345.2782	1391.6963	1410.3627	1414.1915	1472.2754	1504.1546	1513.0745	1647.0653	2969.3203	2978.9768	3022.8452	3051.3325	3072.8463	3075.873	3182.3445	3209.6026	3486.9721
C1OCC23NC12CC=C3	C1OC[C@@]23N[C@@]12CC=C3	
InChI=1S/C7H9NO/c1-2-6-4-9-5-7(6,3-1)8-6/h1-2,8H,3-5H2	InChI=1S/C7H9NO/c1-2-6-4-9-5-7(6,3-1)8-6/h1-2,8H,3-5H2/t6-,7+/m1/s1
