17
gdb 97047	4.25467	1.0495	0.89155	3.8224	72.33	-0.2357	0.0013	0.237	1282.4769	0.13626	-455.179891	-455.171115	-455.170171	-455.213828	31.398	
C	-0.0381310357	 1.3878014047	 0.2065118388	-0.341362
N	-0.1016574306	-0.0505602619	 0.0138535358	-0.299811
C	 0.6056407386	-0.5497089166	-0.9222822671	 0.386666
C	 0.5156120615	-2.0321614012	-1.1984737365	-0.171276
O	 1.7833225134	-2.6238405141	-1.5385152434	-0.214504
C	 2.5523388889	-2.0069884859	-2.4601429484	 0.438503
O	 3.5247441661	-2.5420371507	-2.9117337333	-0.320436
C	 2.0977294576	-0.6077644701	-2.8709057736	-0.319311
N	 1.4751132735	 0.0941977548	-1.7652354407	-0.347261
H	 0.9683772487	 1.7234675951	 0.5034770701	 0.113742
H	-0.3204547668	 1.9529278471	-0.6979149306	 0.102379
H	-0.7284710004	 1.6790739021	 1.0015206603	 0.129852
H	 0.1639376984	-2.5422386654	-0.30442951	 0.162179
H	-0.1943853992	-2.2243614187	-2.0144073597	 0.13112
H	 2.9849077815	-0.069667802	-3.2063609278	 0.155225
H	 1.429332468	-0.7113247554	-3.7421802093	 0.138141
H	 1.5236318567	 1.0988288581	-1.7466968145	 0.256155
57.098	128.4499	145.3689	174.0121	212.1194	261.9589	346.5841	400.8346	434.595	483.5315	578.8692	597.9159	647.6352	782.1784	796.2672	884.305	994.4558	1014.857	1049.8063	1081.524	1107.4719	1110.1488	1175.7987	1213.0256	1256.4326	1262.509	1330.917	1381.188	1396.1741	1437.0327	1460.1402	1488.4183	1496.4146	1505.49	1506.1387	1752.28	1863.248	2955.1735	2967.5161	3003.0079	3019.9841	3103.9499	3125.5176	3165.5901	3655.1469
CN=C1COC(=O)CN1	CN=C1COC(=O)CN1	
InChI=1S/C5H8N2O2/c1-6-4-3-9-5(8)2-7-4/h2-3H2,1H3,(H,6,7)	InChI=1S/C5H8N2O2/c1-6-4-3-9-5(8)2-7-4/h2-3H2,1H3,(H,6,7)
