23
gdb 108375	2.01204	1.65893	1.21829	0.9275	86.04	-0.2296	0.0808	0.3104	1182.7733	0.204044	-388.25673	-388.246848	-388.245903	-388.290737	37.714	
C	-0.995585391	 0.7272228471	-0.1930872358	-0.257687
O	 0.0493033333	-0.1876510347	 0.0928304319	-0.275133
C	 0.605519824	-0.7466835401	-1.0438251056	 0.400837
C	-0.0793293182	-1.8767384086	-1.8296825442	-0.307438
C	 1.3099252653	-2.5853292978	-1.9570591605	-0.241728
C	 1.9542992749	-1.4456213287	-1.1594523887	-0.184109
C	 1.7307298994	-0.0854934326	-1.8147948623	 0.259715
C	 1.7214042266	 0.1120482062	-3.3200115858	-0.464107
C	 2.4143960041	 1.0512377681	-1.0688361175	-0.453387
H	-0.6410540701	 1.5701534072	-0.801999256	 0.110527
H	-1.8270035098	 0.2399337951	-0.7222923193	 0.111467
H	-1.3611429292	 1.1056680295	 0.7642516773	 0.125554
H	-0.7630921702	-2.439066407	-1.1895036141	 0.108187
H	-0.6000833301	-1.6098542377	-2.7544061158	 0.092227
H	 1.335036359	-3.539442609	-1.4264337852	 0.10442
H	 1.689261499	-2.7446616062	-2.9709624777	 0.097148
H	 2.7244567089	-1.5677772003	-0.4062514764	 0.085583
H	 1.2240275915	-0.6994579149	-3.8556034742	 0.116838
H	 1.2078362065	 1.0439730989	-3.584616061	 0.110164
H	 2.7451034378	 0.1825893985	-3.7072165205	 0.112939
H	 3.4672961184	 1.1251964787	-1.3645595241	 0.11021
H	 1.9418917936	 2.013378303	-1.2984642616	 0.109013
H	 2.3685221966	 0.9090145154	 0.012856317	 0.128761
96.9867	148.9105	170.6114	186.8457	213.2129	237.705	261.4936	282.7598	331.6826	373.6305	430.0546	448.3664	518.3982	630.1528	694.6368	717.573	809.071	917.6256	928.5237	949.6607	956.2064	969.9662	999.5778	1027.4591	1060.2558	1093.5576	1102.1649	1140.6323	1157.9277	1180.5832	1199.0227	1211.901	1220.3458	1240.0383	1260.4458	1284.311	1304.9103	1403.2197	1415.239	1427.9194	1472.3937	1482.784	1487.4912	1488.9421	1490.84	1505.7029	1507.117	1509.6922	1515.6539	2991.7844	3023.2012	3027.979	3044.4695	3048.8698	3055.698	3076.1011	3080.5008	3097.46	3114.7213	3119.1197	3120.2786	3125.9433	3174.763
COC12CCC1C2(C)C	CO[C@]12CC[C@H]1C2(C)C	
InChI=1S/C8H14O/c1-7(2)6-4-5-8(6,7)9-3/h6H,4-5H2,1-3H3	InChI=1S/C8H14O/c1-7(2)6-4-5-8(6,7)9-3/h6H,4-5H2,1-3H3/t6-,8+/m0/s1
