22
gdb 20065	4.71873	1.23429	1.05807	0.07	81.66	-0.2649	0.0852	0.3501	1189.1434	0.202528	-313.076785	-313.068592	-313.067648	-313.110759	30.944	
C	-0.1942255275	 1.4615267014	-0.0562787926	-0.275439
C	 1.2506418384	 1.0843129674	 0.1624506226	-0.275438
C	 0.202230359	 0.0082660209	 0.0254227618	 0.026558
C	-0.1982767602	-0.8392487318	 1.2094775598	 0.039441
C	-1.6001007103	-1.4712573684	 1.1059542869	-0.20417
C	-1.6142616811	-2.5764738971	 2.1852841179	-0.206432
C	-0.1208872628	-2.9667191595	 2.4109894722	-0.206429
C	 0.6958308431	-2.0706403854	 1.4535011688	-0.204178
H	-0.7383889179	 1.884699829	 0.7821539507	 0.10705
H	-0.4811492505	 1.8686139425	-1.0196309805	 0.107528
H	 1.9518054717	 1.2334397549	-0.651320464	 0.107528
H	 1.6738106381	 1.2549421591	 1.1473224572	 0.107051
H	 0.20408796	-0.5325216143	-0.9194654756	 0.073845
H	-0.1700426914	-0.2082150699	 2.1111321078	 0.057947
H	-2.406726198	-0.7424526579	 1.226974819	 0.091421
H	-1.7156290848	-1.9128929951	 0.1074106814	 0.090298
H	-2.0509103057	-2.1961796229	 3.1143038062	 0.096241
H	-2.2250638141	-3.4317570032	 1.8832178398	 0.094598
H	 0.1674549087	-2.7765735198	 3.4497659073	 0.096243
H	 0.0619733114	-4.0292599713	 2.2282249356	 0.09461
H	 0.8581146647	-2.5844959563	 0.4969001351	 0.090304
H	 1.682865119	-1.8101105522	 1.8463522026	 0.091425
23.5538	89.08	129.4587	167.4972	291.7703	390.5093	432.298	533.7397	627.0262	754.4365	786.0269	816.0118	829.1939	860.908	889.5808	903.8947	916.1595	959.1789	972.2569	978.0524	1006.2019	1052.0182	1059.4161	1075.79	1105.1549	1130.8043	1137.7357	1197.7549	1202.7924	1223.0216	1226.8619	1242.0157	1257.7047	1297.4801	1299.8671	1326.7426	1336.6096	1342.269	1363.0408	1431.9997	1469.481	1484.9736	1494.6658	1495.9871	1505.9426	1518.8839	2984.0845	3019.1302	3026.2524	3040.9813	3053.6976	3072.4072	3083.9241	3086.3582	3101.2943	3118.0817	3125.5619	3130.9991	3202.8955	3218.2117
C1CC1C1CCCC1	C1CC1C1CCCC1	
InChI=1S/C8H14/c1-2-4-7(3-1)8-5-6-8/h7-8H,1-6H2	InChI=1S/C8H14/c1-2-4-7(3-1)8-5-6-8/h7-8H,1-6H2
