15
gdb 16995	3.86099	2.43064	2.23164	1.3083	63.12	-0.2251	0.0079	0.233	686.9934	0.120823	-362.616293	-362.610489	-362.609545	-362.64578	23.762	
C	 0.0199318897	 1.4422632373	-0.001038263	-0.367029
C	 1.3440903813	 0.7422111841	-0.0284211397	 0.298372
C	 1.7766628401	 0.0808146491	 1.2864294439	-0.283931
C	 0.4076857934	-0.7037263946	 1.3193882782	-0.278954
C	 0.049408325	-0.0617323785	-0.0329390194	 0.242284
N	 0.0006726118	-0.7319044968	-1.3152264849	-0.304566
C	 1.0517093802	-0.3408450439	-1.9242583138	 0.080317
O	 1.941403427	 0.5000389871	-1.292357384	-0.249533
H	-0.2840778308	 1.9497774233	 0.9097050092	 0.122109
H	-0.2806629787	 1.9293520121	-0.9208666502	 0.13472
H	 2.6274620712	-0.586210563	 1.138241238	 0.124024
H	 1.9957122018	 0.7552857701	 2.119455224	 0.107729
H	 0.5394825884	-1.7840167589	 1.2464033525	 0.123158
H	-0.2681739534	-0.4820865287	 2.1503450494	 0.106073
H	 1.3309138628	-0.5998953386	-2.9390525601	 0.145227
213.4494	276.8623	376.7871	411.9931	538.1197	584.2382	658.8954	721.5187	755.1921	781.5799	803.8298	898.5079	918.1419	930.7222	937.0061	959.7431	967.138	1035.2659	1074.3141	1078.2304	1172.483	1206.909	1234.4477	1241.2003	1285.3366	1293.4052	1328.5822	1350.4432	1462.4266	1471.4662	1490.2145	1624.9965	3054.8762	3061.7393	3118.942	3126.8046	3136.2915	3224.7749	3228.2826
C1C23CCC12N=CO3	C1[C@@]23CC[C@@]12N=CO3	
InChI=1S/C6H7NO/c1-2-6-3-5(1,6)7-4-8-6/h4H,1-3H2	InChI=1S/C6H7NO/c1-2-6-3-5(1,6)7-4-8-6/h4H,1-3H2/t5-,6+/m1/s1
