18
gdb 40866	4.01916	1.4858	1.36914	2.8616	74.45	-0.2343	0.0828	0.317	980.129	0.149292	-401.859866	-401.853007	-401.852063	-401.891287	27.484	
C	-0.0578003216	 1.3008690299	-0.2485744956	-0.078087
C	 1.4311453822	 1.4857217615	 0.1084511455	-0.373335
C	 1.289092466	 0.1005942166	 0.770645102	 0.530337
O	-0.0734134479	-0.0215258014	 0.329859141	-0.328674
C	 2.3171394329	-0.9792752591	 0.4893215476	-0.146596
C	 2.9901939776	-0.6987782958	 1.7880592029	-0.048031
C	 1.6219135411	-0.0864736818	 2.270758411	-0.185067
C	 1.1943747757	-1.5409934894	 2.5082276962	-0.154612
N	 2.299585336	-1.9983821116	 1.5901423514	-0.152272
H	-0.7528757866	 1.9783425619	 0.2615240658	 0.104303
H	-0.298320642	 1.2810151841	-1.3171937355	 0.107354
H	 2.1067339866	 1.5125249957	-0.7486909398	 0.115513
H	 1.6693438978	 2.3117667494	 0.780748601	 0.113218
H	 2.7370853044	-1.2896042962	-0.4588452055	 0.096655
H	 4.0289323076	-0.5769150496	 2.0605333806	 0.10119
H	 1.448961514	 0.7191653508	 2.9822567893	 0.071553
H	 1.4139431565	-1.9065084963	 3.5139966066	 0.106336
H	 0.1830279199	-1.8286366587	 2.2039638358	 0.120215
82.5811	169.2503	227.1311	353.7578	426.3536	495.496	566.7884	761.4373	770.4596	786.332	806.3319	829.9262	868.6223	891.4965	926.4053	944.2504	964.0172	976.1961	991.4325	1019.6884	1025.4306	1038.1759	1092.7264	1132.5142	1144.5346	1163.0179	1174.2928	1187.3146	1190.4422	1215.2986	1229.8705	1252.7035	1279.4185	1305.3604	1348.5533	1354.9853	1486.8298	1504.8428	1531.5344	3023.8977	3053.2702	3066.47	3075.5871	3116.4183	3129.3639	3131.8241	3199.176	3219.9124
C1CC2(O1)C1C3C2CN13	C1C[C@@]2(O1)[C@H]1[C@H]3[C@@H]2CN13	
InChI=1S/C7H9NO/c1-2-9-7(1)4-3-8-5(4)6(7)8/h4-6H,1-3H2	InChI=1S/C7H9NO/c1-2-9-7(1)4-3-8-5(4)6(7)8/h4-6H,1-3H2/t4-,5+,6+,7-,8?/m0/s1
