17
gdb 13266	8.76821	0.82459	0.79401	2.7444	69.93	-0.2538	0.0202	0.274	1435.4256	0.140623	-400.962947	-400.954383	-400.953438	-400.997817	29.065	
C	 0.0717249973	 1.4535027965	 0.0003464737	-0.315549
N	-0.0216027981	 0.0089066879	 0.0174426555	-0.203667
C	 0.5486552999	-0.6195225854	-0.9074509374	 0.122253
O	 0.4772428969	-1.9689456734	-0.9693817108	-0.20513
C	 1.243524089	-2.623584364	-1.9559140891	 0.078189
C	 2.4257200476	-3.4861676216	-1.4640326165	-0.095216
O	 1.8975626176	-4.6416147266	-2.1472609233	-0.269322
C	 0.6561509174	-3.9629799929	-2.4310408065	-0.097692
H	 0.6577995262	 1.8564864975	-0.8421108524	 0.096186
H	-0.9342666969	 1.8858912667	-0.0438059481	 0.13066
H	 0.5267714119	 1.8025255391	 0.9340916847	 0.130301
H	 1.1237382421	-0.1591955349	-1.7270196243	 0.075837
H	 1.5023098042	-1.9345539189	-2.76635167	 0.096171
H	 3.4287875369	-3.2197469749	-1.8146752615	 0.108212
H	 2.4317558598	-3.6083628735	-0.3733231257	 0.117237
H	-0.1671867747	-4.3073120811	-1.792737614	 0.120519
H	 0.3686338629	-4.0445910907	-3.4844464042	 0.111013
21.2086	86.419	93.5182	179.0351	204.9572	294.1926	336.3464	377.7673	424.452	575.6021	771.0517	876.3847	896.9426	979.2562	992.7411	1026.4785	1034.5998	1059.553	1106.871	1141.2495	1145.8914	1152.3861	1161.908	1199.8365	1249.8246	1261.931	1302.1699	1349.121	1394.2532	1433.3058	1450.4099	1480.1442	1501.4761	1504.7715	1528.9873	1782.5929	2966.3577	2986.6685	3016.4418	3028.2582	3051.0238	3060.1092	3076.325	3080.1907	3083.2654
CN=COC1COC1	CN=COC1COC1	
InChI=1S/C5H9NO2/c1-6-4-8-5-2-7-3-5/h4-5H,2-3H2,1H3	InChI=1S/C5H9NO2/c1-6-4-8-5-2-7-3-5/h4-5H,2-3H2,1H3
