20
gdb 101273	2.59665	0.96542	0.88173	3.6752	79.91	-0.2945	-0.0026	0.2919	1438.1214	0.168912	-403.147413	-403.13739	-403.136446	-403.183039	35.802	
C	-0.226004337	 1.5202439529	-0.1381695804	-0.39536
C	-0.0660032171	-0.0008530505	-0.2125821517	-0.174352
C	 1.0515031601	-0.473308233	-1.1649739327	-0.01332
C	 2.4581709768	-0.0609115689	-0.7056832606	-0.406647
C	 0.984612892	-1.9777509292	-1.3040018544	 0.074725
O	-0.0908733104	-2.5311860276	-2.062668433	-0.239494
C	 1.2328980914	-2.6998297058	-2.5729603847	-0.113147
C	 1.5584225838	-1.9872333318	-3.7902420853	 0.307059
N	 1.8451518263	-1.4358982468	-4.7649819848	-0.331667
H	 0.6607826235	 2.0085473012	 0.2770234384	 0.119857
H	-0.4080617274	 1.9463672143	-1.1308596828	 0.122735
H	-1.0747429395	 1.788101535	 0.4982422105	 0.118167
H	 0.1249058598	-0.4026670326	 0.7922846988	 0.093592
H	-1.0092772048	-0.4458751519	-0.5497831584	 0.117245
H	 0.8612225753	-0.0410152493	-2.1552341631	 0.102089
H	 3.2208580768	-0.4007796316	-1.4131115341	 0.127712
H	 2.5431452917	 1.025252278	-0.6257727517	 0.130088
H	 2.6932051798	-0.4870731855	 0.276883754	 0.115991
H	 1.2105466601	-2.5412131889	-0.3951789334	 0.105861
H	 1.6151620988	-3.718689948	-2.5418460207	 0.138866
49.7323	80.8621	103.9873	165.8984	211.7827	221.8181	245.7877	279.3492	318.5134	404.6639	425.2554	493.9347	583.5462	618.6912	774.3754	803.6925	852.297	855.1908	946.3864	971.8662	982.5714	997.8308	1049.2096	1070.386	1128.0352	1159.5122	1185.9982	1187.6574	1276.7088	1286.92	1306.1105	1351.5477	1374.4237	1387.6281	1412.8721	1420.119	1458.1618	1485.9314	1496.6789	1501.358	1507.1358	1512.0778	2359.1519	3012.8746	3032.3191	3037.4266	3038.9751	3061.7947	3084.1758	3100.7823	3104.232	3108.9403	3125.409	3131.0976
CCC(C)C1OC1C#N	CC[C@@H](C)[C@H]1O[C@H]1C#N	
InChI=1S/C7H11NO/c1-3-5(2)7-6(4-8)9-7/h5-7H,3H2,1-2H3	InChI=1S/C7H11NO/c1-3-5(2)7-6(4-8)9-7/h5-7H,3H2,1-2H3/t5-,6+,7-/m1/s1
