18
gdb 38593	3.19724	2.1845	1.86933	0.9016	72.53	-0.2244	0.0834	0.3078	806.5864	0.152763	-401.907257	-401.901815	-401.900871	-401.936696	24.447	
C	-0.0313054148	 1.497293399	 0.0811337147	-0.18116
C	 1.5182736994	 1.3958545992	 0.0364225696	-0.096224
C	 1.7465482812	 0.6698004588	 1.3733801265	 0.120901
O	 2.8228017054	-0.2876163557	 1.371498463	-0.316529
C	 1.9448324637	-1.2677341151	 0.7578755857	 0.089431
C	 2.0335931506	-1.0924973501	-0.7584853742	-0.244826
C	 1.2248145477	 0.1867440347	-0.9199260356	 0.009923
N	-0.0400193499	-0.0100262777	-0.0943900656	-0.141855
C	 0.678264501	-0.4395260249	 1.1398241032	-0.064063
H	-0.5111203918	 1.8625169606	 0.9945270517	 0.103061
H	-0.474779087	 1.980744417	-0.7920414136	 0.1113
H	 2.1762501412	 2.2261443315	-0.2230422603	 0.068121
H	 1.7567143185	 1.3122069376	 2.2565085152	 0.080836
H	 2.1086664391	-2.2726503884	 1.1503963148	 0.079341
H	 3.0733881263	-1.0168147494	-1.0841999661	 0.114173
H	 1.5406353515	-1.9075770141	-1.2997265368	 0.109142
H	 0.9864437267	 0.4846789757	-1.9422680669	 0.078873
H	 0.0307401912	-0.7697919385	 1.9482505548	 0.079556
318.9726	409.9335	423.4705	466.357	617.6484	662.6277	704.0863	793.1621	830.7725	845.3366	852.4188	873.1555	884.8304	909.8635	932.8862	940.5068	987.8226	1001.9636	1003.267	1023.1086	1046.3624	1064.9859	1075.8942	1131.643	1144.2853	1172.9834	1194.2553	1210.8906	1231.6114	1252.1186	1261.5481	1275.2904	1295.9428	1302.1823	1333.9781	1352.4512	1371.7066	1460.7814	1513.0206	3049.7507	3052.5825	3087.1996	3097.9744	3100.7888	3110.9221	3115.958	3118.471	3147.439
C1C2C3OC4CC2N1C34	C1[C@H]2[C@@H]3O[C@@H]4C[C@H]2N1[C@H]34	
InChI=1S/C7H9NO/c1-4-3-2-8(4)6-5(1)9-7(3)6/h3-7H,1-2H2	InChI=1S/C7H9NO/c1-4-3-2-8(4)6-5(1)9-7(3)6/h3-7H,1-2H2/t3-,4-,5-,6+,7+/m1/s1
