20
gdb 87132	2.10511	1.56432	1.33549	3.3145	74.54	-0.2242	0.0723	0.2965	1091.5587	0.169374	-440.236329	-440.22702	-440.226076	-440.269804	36.397	
C	 0.0775613876	 1.0206605249	-1.1692364678	-0.464835
C	-0.0784487648	-0.011417878	-0.0714911232	 0.251419
C	 1.0752485028	-0.8733609404	 0.3037575985	-0.28732
N	 0.6384083902	 0.2150895643	 1.2034288127	-0.369962
C	-1.4887886544	-0.5331572206	 0.0872789147	 0.288271
O	-2.0805018689	-0.9457556519	-1.1190840925	-0.458683
C	-1.9194153744	-1.2522136434	 1.354755645	-0.412598
C	-2.4167292871	 0.146294485	 1.0569396423	 0.105906
O	-2.0061046062	 1.237412653	 1.8178925655	-0.432186
H	 1.126539791	 1.3075324824	-1.2966024642	 0.103769
H	-0.2965960802	 0.631350075	-2.118751301	 0.137901
H	-0.5030748593	 1.9166628105	-0.9246271399	 0.139845
H	 0.9026297688	-1.8748561048	 0.6877140992	 0.11987
H	 2.0129441039	-0.7431379129	-0.2290819141	 0.116197
H	 1.2619709444	 1.0120120354	 1.0994620525	 0.236311
H	-1.718990197	-1.8116048797	-1.3430130521	 0.280064
H	-2.6140287795	-2.0771052702	 1.2363068489	 0.110192
H	-1.1916023661	-1.3580234905	 2.1523406229	 0.127271
H	-3.4484495209	 0.2547965638	 0.7392963206	 0.113509
H	-1.1007164301	 1.048134868	 2.103428822	 0.295058
67.8624	168.1209	211.0315	227.759	258.2576	285.32	332.9041	354.2681	380.6203	419.7844	480.5286	483.8805	519.9689	592.4634	612.2061	807.4787	842.5749	853.7707	908.7259	924.6218	942.9179	980.2354	994.8528	1003.2585	1036.4554	1051.9273	1101.062	1118.7276	1144.3846	1153.9106	1209.4674	1239.6062	1277.1853	1328.8161	1345.5743	1362.06	1398.5344	1409.1509	1442.6568	1478.7411	1486.4381	1502.926	1510.0035	3035.1852	3101.9887	3110.9003	3127.0703	3128.8892	3173.0332	3198.1819	3225.6074	3496.857	3723.0583	3774.9701
CC1(CN1)C1(O)CC1O	C[C@]1(CN1)[C@@]1(O)C[C@H]1O	
InChI=1S/C6H11NO2/c1-5(3-7-5)6(9)2-4(6)8/h4,7-9H,2-3H2,1H3	InChI=1S/C6H11NO2/c1-5(3-7-5)6(9)2-4(6)8/h4,7-9H,2-3H2,1H3/t4-,5+,6-/m1/s1
