16
gdb 131772	3.27936	1.42431	1.06529	4.7531	70.99	-0.2583	0.0016	0.2599	1087.0818	0.126314	-434.021198	-434.013687	-434.012743	-434.053881	27.74	
O	 0.1345481472	 1.3868839891	 0.0760013284	-0.413621
C	 0.0551905577	 0.0403890623	-0.3335302007	-0.067974
C	-1.3389411729	-0.5226937195	-0.0963096295	 0.013485
C	-1.5257353315	-2.0932483341	-0.1035675352	-0.414056
C	-1.7960347531	-1.9533499509	 1.3951854996	 0.303869
C	-1.9883451372	-2.2252402806	 2.7333270221	-0.203912
N	-1.9495817277	-1.0222840159	 3.3897898867	-0.177176
N	-1.7379494808	-0.0283642678	 2.5529292985	-0.201238
N	-1.6661815995	-0.6216470308	 1.3522601498	 0.095107
H	-0.0247018369	 1.4195364725	 1.0280177274	 0.305952
H	 0.2787460541	 0.0200102734	-1.4054549874	 0.123656
H	 0.7955534917	-0.5943015253	 0.1785646447	 0.101982
H	-2.0902703642	 0.0443063636	-0.6505641514	 0.125051
H	-2.3611994381	-2.450564798	-0.7076213556	 0.141679
H	-0.622659019	-2.6502544353	-0.3627945055	 0.139231
H	-2.1498307299	-3.1450461529	 3.2689347381	 0.127964
64.2082	125.3221	145.4008	262.2409	365.197	403.0545	436.8246	527.6759	677.9276	694.7999	698.877	776.8239	832.9259	864.8816	956.5638	992.9277	1014.4769	1076.5848	1083.3842	1091.8232	1111.1677	1150.7686	1200.4255	1215.0852	1221.5201	1247.3293	1272.3729	1324.1012	1337.4862	1400.3587	1425.9146	1470.8252	1497.2085	1507.3327	1534.1544	2984.9082	3076.7197	3079.8142	3099.8195	3134.14	3285.3904	3776.6779
OCC1CC2=CN=NN12	OC[C@H]1Cc2cnnn12	
InChI=1S/C5H7N3O/c9-3-5-1-4-2-6-7-8(4)5/h2,5,9H,1,3H2	InChI=1S/C5H7N3O/c9-3-5-1-4-2-6-7-8(4)5/h2,5,9H,1,3H2/t5-/m1/s1
