27
gdb 123149	5.55055	0.43399	0.41521	1.0252	94.87	-0.2495	0.084	0.3335	2742.6426	0.249433	-390.6961	-390.683865	-390.682921	-390.735017	42.86	
C	-0.0142824018	 1.4071279922	-0.1086246769	-0.226125
O	 0.0241235291	 0.0024847269	-0.0787969292	-0.230087
C	 0.6453857681	-0.5062729149	 1.0820963357	-0.05046
C	 0.6393022795	-2.0272873653	 1.0159664373	-0.195614
C	 1.2929235566	-2.6783783238	 2.239536458	-0.193949
C	 1.2808073453	-4.2105268867	 2.1739820019	-0.164024
C	 2.0087095696	-4.9235839164	 3.3283842732	 0.041667
C	 1.3486220582	-4.6645898454	 4.6903211746	-0.380079
C	 2.1007986296	-6.4309578118	 3.0540012391	-0.387586
H	 0.9964773474	 1.8464997007	-0.0908204132	 0.100341
H	-0.5099950466	 1.7036403067	-1.0365186276	 0.124442
H	-0.578932751	 1.8211560277	 0.742672255	 0.100339
H	 1.6807494126	-0.1285257208	 1.158793853	 0.080373
H	 0.1124704884	-0.1581885804	 1.9850923913	 0.08045
H	-0.3989528786	-2.3672504943	 0.9174693655	 0.103985
H	 1.1567345889	-2.3386885559	 0.100357568	 0.103573
H	 2.331190051	-2.3286799745	 2.3293694854	 0.0918
H	 0.7772979531	-2.3371647412	 3.1459430468	 0.097332
H	 0.2401233959	-4.5643292438	 2.1352775108	 0.089384
H	 1.7396055761	-4.5229908871	 1.2259986833	 0.088848
H	 3.0341438369	-4.5269674322	 3.3699601105	 0.068418
H	 0.311363918	-5.0218150782	 4.6946385243	 0.109609
H	 1.881772663	-5.1902104145	 5.4896073861	 0.108635
H	 1.3360513089	-3.6015343343	 4.9474282975	 0.112514
H	 2.6125969022	-6.6345679572	 2.1074403859	 0.108313
H	 2.6474543983	-6.9476913946	 3.8498951998	 0.107277
H	 1.1016303912	-6.8793546812	 2.993947734	 0.110625
44.3785	50.1106	77.0562	101.0668	126.6598	148.4665	201.4425	221.2639	237.4166	241.1373	256.8892	341.8662	391.2542	417.9581	482.1976	505.7389	741.5706	794.2059	826.8034	908.784	926.4378	947.6275	966.4272	979.4191	1032.5601	1045.7845	1053.4606	1077.0164	1147.9252	1166.4804	1175.7893	1191.9109	1201.9731	1223.6427	1230.0278	1268.8267	1288.6399	1315.1946	1328.8546	1332.2917	1368.3244	1375.6471	1398.884	1402.5255	1423.0072	1428.7672	1477.5937	1481.0886	1485.111	1488.158	1489.0902	1494.8546	1502.393	1505.2358	1508.9873	1512.294	1532.5762	2936.3966	2961.5062	2964.8615	2990.3191	2999.889	3004.7886	3010.2097	3021.5677	3027.1317	3030.293	3031.6821	3051.6387	3077.591	3085.6972	3091.9952	3096.4972	3105.4783	3109.9057
COCCCCC(C)C	COCCCCC(C)C	
InChI=1S/C8H18O/c1-8(2)6-4-5-7-9-3/h8H,4-7H2,1-3H3	InChI=1S/C8H18O/c1-8(2)6-4-5-7-9-3/h8H,4-7H2,1-3H3
