19
gdb 11863	5.93185	1.06934	1.0116	1.3044	72.48	-0.2374	0.0744	0.3117	1190.4533	0.16567	-365.016416	-365.008222	-365.007278	-365.049344	30.733	
O	-0.0155332149	 1.3529511986	-0.2636920022	-0.422837
C	 0.0187511124	-0.0399050741	 0.0137879047	-0.095164
C	-1.4087146011	-0.5379770634	 0.0797791962	 0.056008
C	-2.231440475	-0.5506611971	-1.2449359527	-0.314372
C	-2.7055263314	-1.9595551122	-0.870015628	 0.374497
C	-4.1060424441	-2.4305769003	-0.8151476841	-0.304214
N	-3.1314684775	-3.0420483683	-1.7468402948	-0.367248
C	-1.6266468212	-2.0758446494	 0.2115436925	-0.32235
H	 0.8897911878	 1.6699480527	-0.3312963861	 0.286587
H	 0.5621341614	-0.5901782907	-0.7729876281	 0.080232
H	 0.5293704585	-0.2466200909	 0.9691336317	 0.085409
H	-1.9428885438	 0.0090061135	 0.8618503786	 0.081794
H	-2.9910204726	 0.2237241034	-1.3748528646	 0.1047
H	-1.5773475166	-0.5514777394	-2.12468111	 0.099936
H	-4.4348524421	-3.0836627902	-0.0103884967	 0.115541
H	-4.8814535872	-1.7830194961	-1.2183284315	 0.108927
H	-3.2839669103	-2.6880668241	-2.6889371575	 0.22688
H	-0.7633098204	-2.6516414104	-0.1398046716	 0.103703
H	-1.9308902519	-2.4588575915	 1.1884795542	 0.10197
56.2347	103.9842	189.1934	265.7351	304.2742	316.3748	339.2003	411.8516	445.8582	559.2972	729.374	819.1615	835.1457	887.9748	896.3267	924.9031	959.4573	973.1408	1002.0043	1020.4268	1068.366	1078.8058	1093.8364	1122.6249	1148.8351	1196.7718	1225.9217	1236.4685	1254.2081	1264.4012	1268.4069	1291.0091	1301.352	1364.3662	1415.2926	1461.0977	1470.9655	1492.395	1515.2925	1520.068	2952.8614	2980.5768	3038.1292	3046.6514	3068.5999	3097.4829	3102.4912	3106.8041	3181.69	3485.994	3829.0291
OCC1CC2(CN2)C1	OC[C@H]1C[C@]2(CN2)C1	
InChI=1S/C6H11NO/c8-3-5-1-6(2-5)4-7-6/h5,7-8H,1-4H2	InChI=1S/C6H11NO/c8-3-5-1-6(2-5)4-7-6/h5,7-8H,1-4H2/t5-,6+
