15
gdb 116729	2.65663	0.72063	0.5709	2.7432	82.34	-0.2689	-0.0496	0.2193	1813.8665	0.110554	-416.780812	-416.770974	-416.77003	-416.817472	32.32	
C	 0.7252898428	 0.911634761	 0.3498650587	-0.254968
O	 0.0392844828	 0.1403726325	-0.6343014792	-0.191545
C	 0.6749856293	-0.962908402	-1.0541531318	 0.153415
N	 0.1356371677	-1.7004654022	-1.9236749915	-0.239117
C	 0.8145109974	-2.8986253544	-2.3867099575	-0.276982
C	 2.126193099	-3.2108717256	-1.8143851837	 0.100884
C	 3.2072626641	-3.4450257437	-1.3257720166	-0.012723
C	 4.4286700494	-3.7165326932	-0.7790528656	 0.213127
N	 5.4674300058	-3.9423011599	-0.3104139507	-0.334103
H	 0.8931667147	 0.3323708267	 1.265063484	 0.135052
H	 1.6850074553	 1.2804929107	-0.0298763338	 0.135049
H	 0.078963707	 1.7599118365	 0.5757279452	 0.152511
H	 1.6522929708	-1.139551244	-0.5867359522	 0.096899
H	 0.1503438791	-3.7567602373	-2.2145141761	 0.16125
H	 0.9219814047	-2.8312460149	-3.4780745293	 0.161253
43.0172	52.7314	97.5423	147.1157	162.646	166.0837	247.0007	277.9357	352.9115	408.3156	478.968	571.2826	573.3267	610.5679	755.6241	950.5969	1005.9374	1018.7699	1065.4558	1145.3607	1176.9035	1182.3187	1261.6008	1290.6185	1343.2576	1418.342	1456.9322	1488.9741	1495.7553	1499.306	1774.1498	2258.6512	2396.634	3014.3715	3020.4538	3034.5283	3042.3663	3089.1597	3152.1685
COC=NCC#CC#N	COC=NCC#CC#N	
InChI=1S/C6H6N2O/c1-9-6-8-5-3-2-4-7/h6H,5H2,1H3	InChI=1S/C6H6N2O/c1-9-6-8-5-3-2-4-7/h6H,5H2,1H3
