18
gdb 110186	1.86484	1.4669	0.86457	2.6705	75.23	-0.2582	-0.0435	0.2147	1316.3739	0.145711	-439.114008	-439.104723	-439.103778	-439.148918	32.763	
C	 0.0480404287	 1.5852392968	 0.2878590734	-0.395057
C	 0.0090153125	 0.0624309197	 0.1398676938	-0.174997
C	-1.3942778208	-0.4937146221	-0.0986218895	-0.102179
N	-1.9951566655	-0.2638693999	-1.436241928	-0.068639
C	-2.1136723399	-1.684609902	-1.8035804631	-0.290676
C	-1.4632032222	-2.0017087242	-0.4444703477	 0.379078
O	-1.1125697969	-2.9936444692	 0.1150898421	-0.276591
C	-2.8310583783	 0.7214187648	-1.8617985016	 0.12997
O	-3.5679743656	 0.6206129526	-2.8185413104	-0.31696
H	 1.0689739343	 1.9302811598	 0.4748460568	 0.126984
H	-0.3075100458	 2.0812708469	-0.6208649107	 0.129611
H	-0.5772309593	 1.9204343361	 1.1225452627	 0.120697
H	 0.6589925738	-0.2515066341	-0.6852682615	 0.109411
H	 0.3943451306	-0.4193388592	 1.0463656625	 0.124701
H	-2.0660460052	-0.215678245	 0.7258711548	 0.115202
H	-3.1487290834	-2.0256402876	-1.9203507325	 0.157346
H	-1.5377117877	-1.9871980373	-2.6842504093	 0.152088
H	-2.7492821092	 1.6383404441	-1.2452979718	 0.08001
65.2673	80.5595	128.5356	139.7277	195.4227	245.7776	299.5896	324.3938	381.2652	459.3464	531.6168	589.8537	696.0241	779.2609	803.1445	858.6429	953.2213	968.9766	1033.6658	1043.941	1053.0203	1083.4342	1130.35	1140.6999	1153.848	1223.484	1266.9437	1277.8501	1332.2375	1374.0478	1382.06	1411.3805	1428.4206	1472.6741	1476.9308	1498.5366	1505.7197	1792.3233	1926.7037	2940.8785	3012.4317	3034.0733	3036.9709	3043.2509	3073.5549	3090.4301	3106.8129	3112.2349
CCC1N(CC1=O)C=O	CC[C@H]1N(CC1=O)C=O	
InChI=1S/C6H9NO2/c1-2-5-6(9)3-7(5)4-8/h4-5H,2-3H2,1H3	InChI=1S/C6H9NO2/c1-2-5-6(9)3-7(5)4-8/h4-5H,2-3H2,1H3/t5-/m1/s1
