22
gdb 60216	3.52133	0.9152	0.86321	1.2307	82.15	-0.2251	0.0716	0.2966	1458.6411	0.193682	-404.301273	-404.291856	-404.290911	-404.335865	35.74	
C	 0.022741418	 1.6158167699	-0.1902342528	-0.400149
C	 0.0357763885	 0.0897475839	-0.0977602701	 0.130953
O	 0.8059380342	-0.4794641198	-1.158116167	-0.434052
C	 0.6648784244	-0.4115871867	 1.2046476901	-0.202652
C	 0.5409456607	-1.9183577167	 1.3671848094	 0.070832
C	 1.0601070973	-2.6260495703	 2.6510548237	-0.296943
C	-0.3580485005	-3.1689594078	 2.8084012238	-0.005946
C	-1.3330980355	-2.0681723459	 2.8855157867	-0.24197
N	-0.8589759453	-2.4813395651	 1.5489317207	-0.147551
H	 1.0418780365	 2.0105187907	-0.1252766782	 0.121244
H	-0.40802259	 1.9439134788	-1.1430177989	 0.103057
H	-0.5756600581	 2.056272969	 0.6143509416	 0.112094
H	-0.9980470223	-0.2863487417	-0.1451041477	 0.086443
H	 0.3393162467	-0.3209721365	-1.9840762236	 0.282126
H	 1.7298587595	-0.1440459467	 1.1989967262	 0.10513
H	 0.2111091183	 0.1165462234	 2.0506958696	 0.089353
H	 0.9460202143	-2.3916991927	 0.4711012247	 0.104301
H	 1.81383759	-3.3873395526	 2.4429810351	 0.109403
H	 1.4183477148	-1.9930729214	 3.46988828	 0.097145
H	-0.6190177185	-4.1986435506	 3.0312286984	 0.091912
H	-2.3764270748	-2.3216884364	 3.0471361025	 0.117564
H	-1.035551348	-1.1096206348	 3.3042554657	 0.107708
57.414	79.1395	133.0593	215.1904	246.1793	259.2089	312.1815	324.9054	406.6857	453.5322	476.3638	542.4845	707.4437	755.7349	763.6116	827.1558	843.9365	887.6113	941.5151	950.4751	959.1015	995.3481	1035.1667	1063.0608	1084.6338	1101.9392	1104.1368	1120.5465	1130.5648	1135.5983	1179.1434	1216.201	1236.2973	1266.9572	1289.499	1302.5442	1322.66	1368.2471	1373.0979	1405.0068	1406.9506	1426.0892	1465.6868	1488.0712	1492.6249	1498.5576	1504.3465	2984.9827	3025.2326	3029.2877	3045.7731	3067.9477	3093.6547	3096.0137	3108.5853	3109.6911	3116.6789	3160.2391	3195.3471	3827.1975
CC(O)CC1CC2CN12	C[C@@H](O)C[C@H]1C[C@H]2CN12	
InChI=1S/C7H13NO/c1-5(9)2-6-3-7-4-8(6)7/h5-7,9H,2-4H2,1H3	InChI=1S/C7H13NO/c1-5(9)2-6-3-7-4-8(6)7/h5-7,9H,2-4H2,1H3/t5-,6+,7+,8?/m1/s1
