17
gdb 108569	3.41616	1.45108	1.27342	2.7518	66.96	-0.2226	0.0704	0.293	1011.1138	0.136419	-458.902283	-458.894938	-458.893994	-458.934225	28.718	
O	-0.0549455661	 1.3812873697	-0.3594040209	-0.415408
C	-0.0439009833	 0.0421334449	 0.098956695	-0.156011
C	-1.4124028624	-0.572206152	 0.0599650573	 0.419326
O	-2.336227914	 0.1271727807	 0.8748885284	-0.320209
C	-3.3810140066	-0.7866276843	 1.2362243245	-0.083747
C	-3.216152459	-1.9281101781	 0.2454468736	 0.052715
O	-3.3876141703	-1.3509683942	-1.0879403011	-0.302458
C	-1.9706484904	-1.2270267607	-1.1940331966	 0.0293
C	-1.6856800202	-2.0482961481	 0.0435101225	-0.258849
H	-0.7460823585	 1.8349063786	 0.1365182256	 0.295942
H	 0.6331372396	-0.5141665784	-0.5578997995	 0.110449
H	 0.3512067752	-0.0278103897	 1.1249773261	 0.095755
H	-3.2613319711	-1.1222591798	 2.2777427269	 0.096452
H	-4.3454541724	-0.2834099914	 1.1227003449	 0.12386
H	-3.8283230352	-2.8167718853	 0.4006060926	 0.094546
H	-1.5258446767	-1.1967153969	-2.182229298	 0.114498
H	-1.0246066486	-2.8725140049	 0.2755974787	 0.103839
86.581	145.7303	233.1061	309.7665	374.8013	406.0925	412.3198	549.9096	655.0351	707.6729	744.4237	821.832	838.4835	858.4245	881.9392	911.1785	944.1913	998.8377	1021.4909	1039.5927	1050.1477	1060.5355	1075.8685	1097.4229	1148.3798	1180.8834	1204.4105	1230.2769	1250.7865	1292.6718	1306.1871	1374.0059	1378.2188	1403.9553	1451.21	1494.2469	1500.1233	2979.0335	2990.9259	3074.6008	3091.4342	3118.9463	3180.5406	3200.3588	3804.3411
OCC12OCC3OC1C23	OC[C@@]12OC[C@H]3O[C@@H]1[C@@H]23	
InChI=1S/C6H8O3/c7-2-6-4-3(1-8-6)9-5(4)6/h3-5,7H,1-2H2	InChI=1S/C6H8O3/c7-2-6-4-3(1-8-6)9-5(4)6/h3-5,7H,1-2H2/t3-,4+,5-,6+/m1/s1
