21
gdb 5885	4.08801	0.98005	0.96285	2.6755	80.05	-0.2438	0.0268	0.2706	1362.0164	0.184984	-366.26608	-366.255729	-366.254785	-366.301573	36.826	
C	 0.1476282691	 1.2853805585	 0.2646535523	-0.249938
O	-0.1247768785	 0.0993287863	-0.4682152068	-0.195663
C	-1.1891758598	-0.6174966955	-0.037417284	 0.113645
N	-1.5051262728	-1.6809406403	-0.6246930442	-0.241088
C	-2.649047045	-2.4931404333	-0.1970551781	 0.280651
C	-3.5887148987	-2.5894234551	-1.4143224792	-0.378091
C	-2.087740557	-3.8901854247	 0.1302562196	-0.378097
C	-3.4318882611	-1.9565259449	 1.015535296	-0.420191
H	 1.0218904401	 1.7417748623	-0.2013830218	 0.144292
H	-0.6907617764	 1.9919294031	 0.2183042394	 0.123545
H	 0.3762706433	 1.0686478921	 1.3158475952	 0.12355
H	-1.6968174899	-0.1736163636	 0.8286957757	 0.072149
H	-3.0408134322	-2.957755938	-2.2853706327	 0.124067
H	-4.4229697843	-3.268418751	-1.2092442169	 0.103765
H	-3.9988901186	-1.6057907722	-1.6644410401	 0.108009
H	-1.4157307216	-3.844048783	 0.9931606513	 0.108023
H	-2.897211777	-4.5905261522	 0.3612448796	 0.103755
H	-1.5193648512	-4.2767432128	-0.7195125318	 0.124058
H	-3.8606662357	-0.9680706349	 0.8179304388	 0.110288
H	-4.2599289158	-2.6317886407	 1.2508634797	 0.112978
H	-2.8012840568	-1.8870451201	 1.9085254482	 0.110291
40.3706	74.5755	144.9905	154.7883	214.0907	224.1843	268.7595	305.9537	312.9111	348.3591	356.1027	384.9085	495.4153	517.3802	544.484	771.7331	916.7943	920.7483	933.8863	956.4876	986.355	1037.2411	1047.586	1068.1426	1161.7204	1176.8028	1231.8453	1243.8631	1251.8503	1283.8459	1389.2147	1391.7216	1413.9861	1424.3298	1472.5754	1483.0965	1485.3674	1486.5141	1494.3199	1496.1629	1501.5886	1502.6789	1518.708	1773.6387	3005.6235	3024.2807	3031.339	3034.0394	3038.8785	3068.4696	3093.9533	3100.3089	3101.6732	3108.1332	3118.2583	3123.1232	3140.6485
COC=NC(C)(C)C	COC=NC(C)(C)C	
InChI=1S/C6H13NO/c1-6(2,3)7-5-8-4/h5H,1-4H3	InChI=1S/C6H13NO/c1-6(2,3)7-5-8-4/h5H,1-4H3
