18
gdb 61904	3.58317	0.88888	0.75266	3.3441	73.14	-0.2549	-0.0262	0.2287	1469.8004	0.143716	-439.104901	-439.094526	-439.093582	-439.142647	35.505	
C	-1.4179010857	 1.0324060646	-0.8356795171	-0.40202
C	-0.2991604706	 0.1952066083	-0.2155330572	 0.014565
O	-0.7357371034	-1.0827994543	 0.2514528154	-0.238324
C	-1.3103240145	-1.1182766198	 1.5304730277	-0.202383
C	-2.7412017564	-0.7510704688	 1.5625634881	 0.265148
N	-3.8624711322	-0.4754974896	 1.6005028985	-0.303131
C	 0.8501801039	-0.0245879309	-1.2207396268	 0.367193
C	 1.4397749945	-1.4114975172	-1.3362724177	-0.470805
O	 1.2544977407	 0.9159705441	-1.8622912049	-0.298141
H	-0.9783504086	 1.9245986091	-1.2856830331	 0.149851
H	-1.9277204735	 0.4592556275	-1.6153862783	 0.13357
H	-2.1561550724	 1.3328550719	-0.0898461169	 0.138822
H	 0.1501327052	 0.7472514103	 0.627767176	 0.10338
H	-1.2213933188	-2.1478977253	 1.8927489786	 0.163205
H	-0.7720648244	-0.4684846481	 2.2370118837	 0.143756
H	 1.7964519619	-1.7589087798	-0.3612579915	 0.140438
H	 0.6702170475	-2.1234394008	-1.6504663575	 0.154667
H	 2.258976187	-1.3939527113	-2.0554447571	 0.14021
17.6519	27.5248	84.6066	162.7026	181.9387	223.3903	236.5387	279.6089	355.2026	369.5215	408.0794	446.473	522.4096	596.4565	622.823	754.6197	862.4103	902.8303	957.4489	967.4936	1023.6064	1072.3844	1099.8709	1123.6674	1150.4806	1224.3293	1293.7484	1319.8976	1364.7015	1382.5924	1398.481	1402.7911	1454.0431	1464.9988	1467.0741	1492.3345	1495.4263	1816.3343	2358.1618	2963.8445	2999.0808	3047.9342	3056.6954	3078.6674	3110.1404	3133.8824	3149.7587	3159.4926
CC(OCC#N)C(C)=O	C[C@@H](OCC#N)C(=O)C	
InChI=1S/C6H9NO2/c1-5(8)6(2)9-4-3-7/h6H,4H2,1-2H3	InChI=1S/C6H9NO2/c1-5(8)6(2)9-4-3-7/h6H,4H2,1-2H3/t6-/m1/s1
