17
gdb 98598	3.06514	1.09469	1.05067	3.0859	67.04	-0.2382	-0.009	0.2292	1220.4644	0.134053	-496.107803	-496.098576	-496.097632	-496.142176	33.346	
C	 0.232032608	 1.3905429741	 0.0279920213	-0.245645
O	 0.290752678	-0.0447345101	 0.0216412376	-0.236075
C	 0.409352762	-0.618936551	-1.1789999124	 0.527677
O	 0.4656982839	 0.0317788783	-2.2214427494	-0.446581
C	 0.4644815518	-2.0767645037	-1.1291318003	-0.32655
C	-0.1537205332	-2.820350572	-2.3553864825	 0.085982
O	-0.8605772375	-2.1361244472	-3.3227866861	-0.419924
C	 1.3259143925	-2.760381348	-2.2379156742	 0.085983
O	 2.1189996481	-2.0153626422	-3.0862292227	-0.419922
H	 1.1419975823	 1.8135951638	-0.4035679674	 0.147044
H	-0.6293702343	 1.7417565571	-0.544617301	 0.147053
H	 0.1371307705	 1.6736300337	 1.075749739	 0.141064
H	 0.4049147176	-2.529213828	-0.14785157	 0.113419
H	-0.6443183673	-3.7561565226	-2.1061610455	 0.121965
H	-0.5261408459	-1.2261811912	-3.3555070838	 0.301274
H	 1.8447759079	-3.6552726531	-1.9085461808	 0.121965
H	 1.7217907856	-1.1350856279	-3.1770676619	 0.301273
61.7026	107.0035	144.1879	171.1613	214.0195	223.1203	323.1274	362.8396	387.9327	464.8564	510.1303	601.3264	663.352	690.4993	746.582	784.4177	822.8428	907.978	967.1539	992.5538	1046.8686	1079.8509	1104.1259	1145.375	1177.3993	1202.6103	1222.6896	1256.7214	1344.2742	1365.9184	1405.9459	1424.7135	1481.7843	1481.8132	1494.877	1498.0992	1704.7886	3057.2201	3134.9379	3158.5318	3166.7025	3167.4484	3197.672	3676.5602	3698.603
COC(=O)C1C(O)C1O	COC(=O)[C@H]1[C@@H](O)[C@H]1O	
InChI=1S/C5H8O4/c1-9-5(8)2-3(6)4(2)7/h2-4,6-7H,1H3	InChI=1S/C5H8O4/c1-9-5(8)2-3(6)4(2)7/h2-4,6-7H,1H3/t2-,3+,4-
