18
gdb 90207	3.09848	1.77087	1.54965	1.209	75.8	-0.2139	0.0444	0.2582	928.221	0.147748	-401.769079	-401.762037	-401.761092	-401.800037	29.05	
C	-0.4835816047	 1.382694067	-0.0534885202	-0.402285
C	 0.0627455176	-0.0271839312	 0.0247325828	 0.031714
O	 1.2146861082	-0.2532565974	-0.8991847237	-0.341545
C	 2.0843372258	-0.3337251937	 0.2361035335	 0.325952
C	 2.7863739034	 0.7975888974	 1.0027496156	-0.318773
C	 2.191918842	-0.1277725921	 2.0936493302	-0.109349
C	 2.4928835811	-1.4519669369	 1.2660091435	-0.068013
N	 1.1120744959	-1.978712303	 1.4476140694	-0.371796
C	 0.9319174722	-0.4965237157	 1.2246894616	 0.163066
H	 0.2728119856	 2.1326463515	 0.1843393937	 0.130865
H	-0.8548771435	 1.5803243188	-1.0636999483	 0.13397
H	-1.3163857731	 1.4930675176	 0.6488580414	 0.129101
H	-0.724548298	-0.7557074862	-0.1990919887	 0.100549
H	 3.8770778533	 0.8476451694	 0.9442975264	 0.103087
H	 2.3512354533	 1.7962209404	 0.9325826212	 0.107427
H	 2.2666533364	-0.0410931402	 3.1790379806	 0.09368
H	 3.3895259509	-2.0765069878	 1.342279008	 0.079992
H	 0.8426578935	-2.4841326478	 0.597901033	 0.212357
179.2481	206.5918	227.2881	353.7374	397.1853	429.7979	490.61	515.0776	576.7575	729.9696	776.3361	783.6528	825.9011	886.6464	889.5137	892.0138	943.1461	954.0108	985.4983	1015.6217	1045.8551	1059.4754	1082.5444	1094.982	1130.697	1134.5545	1154.7132	1173.695	1219.132	1222.6359	1249.2314	1270.072	1306.6497	1312.0724	1369.7053	1407.6283	1480.4606	1491.4556	1515.6099	3042.23	3047.171	3051.8009	3060.9327	3104.1584	3112.3474	3121.9251	3140.7819	3392.7728
CC1OC23CC4C2NC134	C[C@H]1O[C@]23C[C@@H]4[C@H]2N[C@]134	
InChI=1S/C7H9NO/c1-3-7-4-2-6(7,9-3)5(4)8-7/h3-5,8H,2H2,1H3	InChI=1S/C7H9NO/c1-3-7-4-2-6(7,9-3)5(4)8-7/h3-5,8H,2H2,1H3/t3-,4-,5-,6-,7+/m1/s1
