20
gdb 72414	2.64386	1.7036	1.37566	3.3083	79.53	-0.2493	0.0367	0.286	1026.3182	0.17351	-403.193902	-403.186284	-403.18534	-403.225518	31.175	
C	-0.1130992058	 1.4633756723	 0.0154993745	-0.475346
C	 0.0526068773	-0.0370825595	 0.009915644	 0.401632
C	 0.771753847	-0.6692778334	-1.2040176655	-0.239915
C	 1.028620834	-2.1299228853	-0.7218836467	-0.228824
C	 0.3809931845	-2.1381876735	 0.6945004483	-0.105465
C	 0.7416659509	-0.7271721086	 1.201105128	-0.265452
C	-1.1028525568	-1.9532248519	 0.4723251027	 0.431562
N	-2.0178815962	-2.8105585058	 0.6130588733	-0.568286
O	-1.2761410873	-0.6567246817	 0.0519715419	-0.290453
H	 0.8660651589	 1.9515195293	 0.0274425465	 0.120818
H	-0.6525486936	 1.7988865784	-0.8753187013	 0.130039
H	-0.6741293518	 1.7865588777	 0.8967030171	 0.128992
H	 0.135186171	-0.616474754	-2.0901737155	 0.113386
H	 1.7020208491	-0.1378974834	-1.4248508951	 0.10124
H	 0.5845905821	-2.8826371781	-1.3763453752	 0.120933
H	 2.0981366151	-2.3442090707	-0.6433306312	 0.10375
H	 0.6231454597	-2.9979814124	 1.3142458286	 0.091221
H	 1.8176135993	-0.5375847156	 1.2422941142	 0.101399
H	 0.2820654028	-0.467807554	 2.1582993298	 0.111447
H	-2.9242413901	-2.4082604198	 0.3646084517	 0.217324
140.3001	203.8558	237.7153	282.1634	282.285	416.35	446.7961	475.9702	564.1078	596.9467	702.9495	734.6837	807.9197	829.3039	859.7529	879.0367	899.615	904.3303	910.3923	955.4968	969.9555	1003.7503	1027.5277	1056.8285	1086.2207	1132.254	1154.4275	1201.6324	1220.5762	1250.2276	1255.3022	1261.4742	1302.2093	1315.7854	1354.2715	1356.2335	1415.6656	1477.9472	1483.5015	1489.3583	1496.2318	1510.11	1788.2681	3042.3824	3056.4847	3062.3273	3068.1374	3103.1419	3114.5031	3117.4312	3120.0168	3123.297	3154.0679	3460.4482
CC12CCC(C1)C(=N)O2	C[C@@]12CC[C@@H](C1)[C]([NH])O2	
InChI=1S/C7H11NO/c1-7-3-2-5(4-7)6(8)9-7/h5,8H,2-4H2,1H3	InChI=1S/C7H11NO/c1-7-3-2-5(4-7)6(8)9-7/h5,8H,2-4H2,1H3/t5-,7+/m0/s1
