14
gdb 129331	4.55459	1.16045	0.92482	5.177	76.18	-0.2275	-0.0674	0.1601	1176.9787	0.10296	-429.047965	-429.040438	-429.039493	-429.081197	26.943	
N	-2.0610980154	-3.0485723616	 0.0475288275	-0.393515
C	-1.1517874329	-2.1675865547	 0.034572571	 0.079352
N	-1.3682473355	-0.7951517378	-0.036453448	-0.374408
C	-2.5361687631	-0.0549624111	-0.107231153	 0.443199
C	-2.4347474679	 1.3529828394	-0.1708695973	-0.057403
N	-3.5079092211	 2.1069217383	-0.2392737801	-0.225902
C	-4.6710595387	 1.4318061164	-0.2427294221	 0.090499
N	-4.8143850693	 0.1159727509	-0.1846920989	-0.163709
N	-3.7271862602	-0.6524189928	-0.1151655273	-0.23127
H	-1.6392882163	-3.9741052863	 0.103703225	 0.230767
H	-0.0723816312	-2.3632039105	 0.076933864	 0.094507
H	-0.5259243899	-0.2421968295	-0.0367823332	 0.256624
H	-1.4631247381	 1.8485113986	-0.164718997	 0.115558
H	-5.5861065302	 2.0120884707	-0.2980684706	 0.135702
30.0034	137.2653	170.8995	224.9435	340.4458	398.102	512.8499	537.6252	548.5933	639.7179	780.0769	786.7844	813.8258	861.3532	921.8497	977.6714	1044.6588	1056.1032	1064.0296	1110.9086	1182.6497	1215.6588	1259.8071	1322.7959	1422.5679	1427.0784	1454.7617	1519.0124	1596.9264	1613.4938	1743.1123	3029.4888	3116.6497	3196.4771	3500.5349	3635.3853
N=CNC1=CN=CN=N1	N=CNc1cncnn1	
InChI=1S/C4H5N5/c5-2-7-4-1-6-3-8-9-4/h1-3H,(H2,5,7,9)	InChI=1S/C4H5N5/c5-2-7-4-1-6-3-8-9-4/h1-3H,(H2,5,7,9)
