16
gdb 55660	2.07229	1.1085	0.8438	2.8721	70.95	-0.2728	-0.0532	0.2196	1381.0799	0.120376	-437.928442	-437.918571	-437.917627	-437.965077	33.146	
C	-0.095027097	 1.4665750037	 0.1101772433	-0.479352
C	 0.055551606	-0.0326991642	 0.2392409033	 0.393813
O	 1.0774436691	-0.5549599115	 0.6212792271	-0.288666
C	-1.1757723245	-0.8634773486	-0.1197202962	-0.339787
C	-0.8477805343	-2.3563935343	-0.2668198652	-0.225828
C	-1.9063600486	-3.2751176464	 0.3662329283	 0.157551
O	-2.7356695038	-2.8870268425	 1.1413067506	-0.229243
C	-0.5924298231	-2.7643535838	-1.6460199041	 0.250975
N	-0.4222380027	-3.1000009614	-2.7387578409	-0.308874
H	 0.7721281865	 1.9682142109	 0.5401434506	 0.152537
H	-0.1805252449	 1.7334781923	-0.9498814442	 0.154549
H	-1.012763129	 1.8100308393	 0.5992885081	 0.145238
H	-1.9008165336	-0.7580323169	 0.698168593	 0.168359
H	-1.6612219785	-0.4618526651	-1.0135654535	 0.14265
H	 0.0814400735	-2.5346011304	 0.3021821592	 0.184297
H	-1.822641295	-4.3410629809	 0.0741913106	 0.12178
32.4805	56.5909	95.0021	121.8146	165.6472	171.2709	254.5322	297.4873	366.3849	471.4481	514.5719	553.1933	590.0197	638.7848	791.548	827.0881	853.3808	956.2698	971.5882	1041.0057	1086.7146	1121.5015	1181.4098	1219.4929	1230.2535	1314.9902	1360.4728	1387.4293	1416.0209	1451.6552	1462.6726	1475.1088	1812.3637	1838.577	2358.7063	2939.8125	2976.215	3036.2759	3042.3214	3096.7715	3101.8471	3158.2568
CC(=O)CC(C=O)C#N	CC(=O)C[C@@H](C=O)C#N	
InChI=1S/C6H7NO2/c1-5(9)2-6(3-7)4-8/h4,6H,2H2,1H3	InChI=1S/C6H7NO2/c1-5(9)2-6(3-7)4-8/h4,6H,2H2,1H3/t6-/m1/s1
