19
gdb 126620	4.54519	0.84256	0.757	1.1066	80.21	-0.2088	0.0109	0.2197	1549.6283	0.161089	-415.401439	-415.392274	-415.39133	-415.436429	33.097	
C	-0.1030828715	 1.4809501387	-0.0105105922	-0.38118
C	-0.0504869732	-0.0481346035	-0.0380194524	-0.174657
C	 0.7531758816	-0.5705260013	-1.2339900702	-0.123325
N	 0.7993111888	-2.0199747808	-1.2906861174	 0.141164
N	 1.8302300267	-2.7166003409	-0.8459432955	-0.222473
C	 1.4479339229	-3.9882423588	-0.9869744782	-0.124657
C	 0.1490739374	-4.0034688258	-1.530973024	 0.326384
N	-0.6837877606	-5.0851434154	-1.7988867066	-0.592997
N	-0.246088329	-2.7425245199	-1.7164719535	-0.318833
H	 0.9005643537	 1.9144516291	 0.0622038738	 0.118577
H	-0.5720629263	 1.879780712	-0.9168641877	 0.118617
H	-0.6812734865	 1.8375355445	 0.8465930394	 0.120406
H	 0.4035616802	-0.4300265317	 0.8833769742	 0.114631
H	-1.062442046	-0.4636006738	-0.0908501483	 0.122101
H	 0.3155299099	-0.2173127643	-2.1727770618	 0.126202
H	 1.7914368071	-0.2346570439	-1.1854087747	 0.134065
H	 2.0966910169	-4.8036018849	-0.7102309502	 0.112171
H	-0.1944570638	-5.8919046334	-2.1606493308	 0.249708
H	-1.4516183184	-4.8308757463	-2.406255734	 0.254095
39.5405	83.5574	86.0893	238.4247	243.874	270.4784	294.8002	319.5025	396.858	452.0072	659.1416	669.8131	701.507	754.1534	760.623	800.3762	829.6006	881.9514	904.6206	1015.4524	1043.2361	1045.5813	1104.8846	1124.3507	1141.1855	1214.733	1259.508	1314.8344	1329.7058	1364.7601	1392.162	1403.1952	1415.0966	1427.9294	1473.4583	1494.0956	1494.4319	1501.3776	1510.3457	1585.4764	1650.3104	3031.881	3042.3525	3063.1541	3076.2448	3100.1902	3110.0236	3126.9766	3267.4825	3551.303	3647.1268
CCCN1N=CC(N)=N1	CCCn1ncc(N)n1	
InChI=1S/C5H10N4/c1-2-3-9-7-4-5(6)8-9/h4H,2-3H2,1H3,(H2,6,8)	InChI=1S/C5H10N4/c1-2-3-9-7-4-5(6)8-9/h4H,2-3H2,1H3,(H2,6,8)
