25
gdb 76880	2.14467	1.73911	1.41801	0.1262	90.3	-0.2746	0.0731	0.3477	1113.4818	0.232662	-352.386431	-352.378008	-352.377064	-352.418848	34.983	
C	-0.2144243146	 1.5862665182	-0.057594465	-0.417884
C	 0.05949289	 0.0808375967	-0.0253301814	 0.03261
C	 0.7743715489	-0.5019808696	-1.2756165151	-0.002698
C	 2.1349575562	 0.1942729989	-1.5069471135	-0.211076
C	 3.0117587029	-0.3447156609	-0.3314280499	-0.211079
C	 2.0432449146	-1.2820036251	 0.4255169601	-0.002706
C	 1.2309446457	-1.8773630133	-0.7442100676	-0.23147
C	 0.9484540973	-0.4657750696	 1.1665651841	 0.032632
C	 1.4570231341	 0.5582972961	 2.1839088281	-0.417906
H	 0.6980905975	 2.1883493407	-0.0757267066	 0.116483
H	-0.7984558667	 1.8488838439	-0.9468116277	 0.107481
H	-0.7928862443	 1.9007355403	 0.817144863	 0.110447
H	-0.9183689941	-0.41211187	 0.0376756388	 0.064936
H	 0.1357983161	-0.5149962904	-2.162677369	 0.047255
H	 2.549630285	-0.1035332448	-2.4750984374	 0.091247
H	 2.0619806069	 1.2841953757	-1.5186411988	 0.092868
H	 3.8675098166	-0.9136200383	-0.7082556278	 0.091252
H	 3.4166107155	 0.4514762335	 0.2975133354	 0.092864
H	 2.5509404993	-1.9996637377	 1.0751557552	 0.047256
H	 0.4020989166	-2.5139333523	-0.4178462467	 0.084405
H	 1.8449013723	-2.4360298355	-1.4583339417	 0.083728
H	 0.3423716008	-1.1874370145	 1.7278651731	 0.06494
H	 2.0439499688	 1.3606665174	 1.7286722179	 0.11648
H	 0.6258830736	 1.028459424	 2.7194741509	 0.110454
H	 2.0926670409	 0.0703716464	 2.9313396715	 0.10748
83.7968	205.9554	233.0747	267.6272	298.4759	299.9299	369.803	447.7781	470.0169	490.6813	554.1947	695.4676	756.3611	775.9121	794.8653	819.6612	880.102	906.5677	920.6056	939.4724	966.1129	976.7785	1002.0902	1009.5093	1026.9765	1038.7149	1091.7375	1094.1952	1130.621	1144.587	1167.8647	1169.3343	1192.1423	1217.4623	1255.2631	1282.0426	1289.8319	1310.4992	1327.8654	1332.4821	1353.456	1360.417	1375.2514	1375.9028	1407.1686	1418.0766	1481.4391	1489.8786	1494.7241	1505.9807	1508.1875	1509.3628	1528.838	3002.749	3023.86	3031.1861	3036.6767	3040.6565	3045.7063	3056.771	3074.4894	3081.9911	3087.3066	3089.0217	3089.3442	3094.5206	3105.0448	3106.0695	3116.4387
CC1C2CCC(C2)C1C	C[C@H]1[C@H]2CC[C@H](C2)[C@H]1C	
InChI=1S/C9H16/c1-6-7(2)9-4-3-8(6)5-9/h6-9H,3-5H2,1-2H3	InChI=1S/C9H16/c1-6-7(2)9-4-3-8(6)5-9/h6-9H,3-5H2,1-2H3/t6-,7+,8+,9-
