14
gdb 127190	2.37267	2.03779	1.1038	3.4657	67.28	-0.2755	-0.0772	0.1983	1008.5494	0.101531	-470.014326	-470.006589	-470.005645	-470.046976	28.029	
C	-0.0709550241	 1.438218915	-0.0872182462	-0.338974
N	-0.0152113589	-0.0237288498	-0.0061115802	-0.217741
C	-1.2130227103	-0.729600054	 0.0238517233	 0.355841
N	-2.3244203865	-0.1024395849	-0.0187655331	-0.525573
C	-1.0339194715	-2.1804733033	 0.1049943719	-0.008347
N	 0.0823202263	-2.7975194512	 0.1479898163	-0.049403
O	 1.2339800904	-2.0177816741	 0.1145607532	-0.263164
C	 1.2211131098	-0.6365859031	 0.0381254089	 0.527283
O	 2.2747444937	-0.0673025263	 0.0156824706	-0.351927
H	 0.9504720517	 1.8089600998	-0.1034620272	 0.173685
H	-0.6079797953	 1.7330955607	-0.9912966508	 0.155848
H	-0.6150698938	 1.83126329	 0.7743418158	 0.155702
H	-3.1069010012	-0.7537981305	 0.0111124289	 0.233226
H	-1.9147238804	-2.8150609484	 0.1328067286	 0.153544
87.272	132.4517	137.8284	218.4973	342.213	393.1646	421.1849	504.476	542.4717	577.5543	686.2391	727.7345	751.2846	837.573	852.1222	925.6613	948.439	985.1186	1099.1285	1115.1883	1158.7207	1222.9707	1321.8696	1357.1316	1423.7335	1477.652	1486.6523	1505.5308	1662.8245	1711.3708	1861.0751	3068.1123	3132.3578	3186.898	3198.6436	3505.7091
CN1C(=N)C=NOC1=O	CN1[C]([NH])C=NOC1=O	
InChI=1S/C4H5N3O2/c1-7-3(5)2-6-9-4(7)8/h2,5H,1H3	InChI=1S/C4H5N3O2/c1-7-3(5)2-6-9-4(7)8/h2,5H,1H3
