18
gdb 110454	2.78106	1.64717	1.27957	2.1158	70.46	-0.2584	0.0536	0.312	1020.7787	0.148595	-439.012734	-439.00499	-439.004046	-439.045156	29.842	
C	 0.2261740274	 1.289608358	-0.2076015297	-0.252136
O	-0.1117625948	-0.0720602207	 0.0001625283	-0.267303
C	 0.5873010417	-0.6660352888	 1.074523491	 0.150204
C	 0.2366110894	-2.0934230405	 1.4108074383	-0.106472
C	 1.0681817116	-3.0063767061	 0.5734585011	-0.099523
C	 1.9598778488	-2.165841348	-0.3324983841	 0.164076
O	 1.5423508881	-1.7217439519	-1.587882914	-0.445378
C	 2.0255838733	-1.2028897403	 0.877512618	-0.122678
N	 1.6609338083	-2.3953651971	 1.8167021957	-0.167006
H	 1.2762539403	 1.4065265239	-0.5083502528	 0.124124
H	-0.4160282557	 1.6628714561	-1.0078997232	 0.136662
H	 0.0492552014	 1.8839969358	 0.7000668413	 0.118258
H	 0.5276888506	-0.029992757	 1.9679297796	 0.089614
H	-0.6032456012	-2.4488039895	 1.9954320892	 0.102543
H	 0.8577691418	-4.0683153234	 0.5187798759	 0.099599
H	 2.9224124322	-2.6670405618	-0.4656567509	 0.101423
H	 0.7253504534	-1.2234762713	-1.4427748717	 0.290411
H	 2.9027705533	-0.5959872775	 1.0903493781	 0.083582
75.4634	164.512	171.4361	236.1366	316.462	361.8162	438.0482	546.4599	583.9825	628.4188	757.5626	774.5906	776.9264	829.2558	845.921	934.9251	942.2982	997.215	1016.166	1047.6644	1052.0986	1061.5761	1125.7491	1126.1825	1160.1963	1178.0877	1182.6849	1191.2586	1223.846	1264.9311	1272.1843	1328.1487	1359.6788	1378.4375	1392.6194	1468.3991	1484.6938	1491.2283	1505.0803	2994.4716	3021.9648	3051.4328	3085.1239	3126.5246	3144.746	3183.368	3196.7932	3728.7539
COC1C2C3C(O)C1N23	CO[C@H]1[C@H]2[C@H]3[C@@H](O)[C@@H]1N23	
InChI=1S/C6H9NO2/c1-9-6-3-2-5(8)4(6)7(2)3/h2-6,8H,1H3	InChI=1S/C6H9NO2/c1-9-6-3-2-5(8)4(6)7(2)3/h2-6,8H,1H3/t2-,3+,4-,5+,6-,7?/m0/s1
