18
gdb 12437	3.06576	1.99799	1.351	2.6852	73.	-0.2362	-0.0112	0.225	929.2497	0.155631	-347.836759	-347.829303	-347.828359	-347.868884	28.205	
O	-0.0008292154	-0.0512770014	-0.2514092218	-0.305378
C	-0.0142356573	 1.1397873676	-0.0315837059	 0.377561
C	-1.3266421439	 1.8973123186	 0.1055853122	-0.27635
C	-1.6120504919	 2.8197698627	-1.1084049675	-0.260915
C	-0.7371984653	 4.0463293732	-1.2001303656	-0.049415
C	 0.5965422332	 4.064679098	-1.2182233192	-0.049415
C	 1.5069662695	 2.8626811411	-1.1507177649	-0.260915
C	 1.2800727324	 1.933179146	 0.0702264407	-0.27635
H	-2.1196465132	 1.1499720867	 0.1898417061	 0.117053
H	-1.3139056664	 2.5045855034	 1.0181040901	 0.108788
H	-1.5262595662	 2.2188244257	-2.0246313326	 0.124571
H	-2.6592491468	 3.1306264494	-1.051662474	 0.110209
H	-1.2597236435	 4.9981090628	-1.2606079058	 0.089967
H	 1.0908577426	 5.0304485973	-1.292493743	 0.089967
H	 1.412913845	 2.2592583875	-2.0645017974	 0.124571
H	 2.5463723499	 3.2022443889	-1.1222885018	 0.110209
H	 1.2753873317	 2.5402158077	 0.982979216	 0.108788
H	 2.0953288157	 1.2079682249	 0.1326688943	 0.117053
54.1356	157.5058	169.9716	289.7944	330.8074	435.9203	477.0797	511.6121	658.7914	663.0456	718.7403	767.746	849.6588	875.755	881.6988	951.6958	988.1224	1001.8875	1011.8773	1061.9664	1071.6406	1125.9479	1193.2676	1220.9004	1236.5653	1268.2708	1280.8087	1324.9457	1325.7683	1372.9555	1373.6996	1424.0475	1467.8507	1478.035	1487.5165	1493.1629	1721.3774	1803.0342	3011.6727	3014.4713	3037.6194	3043.7271	3077.873	3079.2619	3106.4875	3109.3131	3141.1862	3165.0047
O=C1CCC=CCC1	O=C1CCC=CCC1	
InChI=1S/C7H10O/c8-7-5-3-1-2-4-6-7/h1-2H,3-6H2	InChI=1S/C7H10O/c8-7-5-3-1-2-4-6-7/h1-2H,3-6H2
