15
gdb 33711	3.87146	1.53876	1.27838	5.2002	73.89	-0.2418	-0.0254	0.2164	958.0367	0.114746	-379.638234	-379.631702	-379.630757	-379.669001	26.278	
N	 0.0865794404	-1.0926776609	 0.0015595608	-0.334582
C	 0.0415878395	 0.0622008844	-0.0157856918	 0.202358
C	-0.0172569429	 1.5021769079	 0.0188214379	 0.179308
C	-1.2066185614	 2.1816888174	 0.6160084985	-0.142671
C	-1.2982335708	 3.3985306631	 0.0825275494	-0.081422
C	-0.0970840993	 3.6204142523	-0.7977084845	-0.072383
C	 1.1719206702	 3.7484636808	 0.1149284549	-0.251318
C	 1.3089923797	 2.2489681546	-0.0594873057	-0.064648
N	 0.3765783808	 2.2180220589	-1.2285583026	-0.150715
H	-1.8377877683	 1.7205811951	 1.3622145737	 0.130861
H	-2.0112520665	 4.1709194141	 0.3393780948	 0.121122
H	-0.2025121495	 4.3180140128	-1.6260718924	 0.099341
H	 1.9856423136	 4.2523155786	-0.4106342414	 0.130329
H	 1.0529426739	 4.1709946975	 1.115513847	 0.114851
H	 2.2359603307	 1.6842677834	-0.0478925986	 0.11957
152.6487	166.2241	347.0857	375.8041	478.9351	512.1631	548.1731	589.7335	714.7416	732.5435	760.4995	794.1787	851.6413	867.3877	902.514	908.8588	939.9669	982.5016	998.9612	1026.9769	1070.1036	1107.583	1136.6416	1203.1473	1218.1662	1240.4849	1256.3609	1317.1229	1339.8512	1362.3954	1481.7014	1659.3454	2360.8416	3066.2777	3125.4496	3136.7861	3167.958	3218.4101	3247.5903
N#CC12C=CC3CC1N23	N#C[C@@]12C=C[C@H]3C[C@@H]1N23	
InChI=1S/C7H6N2/c8-4-7-2-1-5-3-6(7)9(5)7/h1-2,5-6H,3H2	InChI=1S/C7H6N2/c8-4-7-2-1-5-3-6(7)9(5)7/h1-2,5-6H,3H2/t5-,6-,7-,9?/m0/s1
