21
gdb 115876	2.45348	1.36403	1.04099	2.3964	77.38	-0.2252	0.0676	0.2928	1232.9781	0.182028	-424.211711	-424.202656	-424.201711	-424.245273	34.885	
C	-0.0085318166	 1.5785288574	 0.0721165812	-0.387275
C	-0.0082022546	 0.0471381817	 0.0126161033	-0.196101
C	 0.6908347346	-0.5223935637	-1.2247427274	-0.047858
C	 2.2066753733	-0.2308902561	-1.3009959091	-0.108548
O	 2.8113922591	-1.3073678815	-2.0230971208	-0.259193
C	 1.9895098701	-2.4334891873	-1.8781096338	 0.063426
C	 1.5716294179	-2.8616670948	-0.4813698143	-0.398177
C	 0.6452816926	-2.042848668	-1.3672038754	 0.347802
O	-0.5109116892	-2.6207931044	-1.8897303283	-0.472117
H	 1.0093333817	 1.979609849	 0.1244634191	 0.121194
H	-0.4879436423	 2.0074247017	-0.8147473507	 0.118556
H	-0.550094179	 1.940256905	 0.9515010413	 0.114821
H	 0.4665586534	-0.3593185425	 0.9152440815	 0.096138
H	-1.0457671524	-0.31229154	 0.02334548	 0.089074
H	 0.1987566348	-0.1281231253	-2.1239362511	 0.08503
H	 2.4478483738	 0.69670063	-1.8259334502	 0.114381
H	 2.6367684626	-0.1656482283	-0.289319775	 0.092607
H	 2.1411095566	-3.173711858	-2.6540480444	 0.111809
H	 1.3116321732	-3.9093888097	-0.3728134253	 0.115969
H	 2.0428714755	-2.4148599244	 0.3877344427	 0.114902
H	-1.1387784153	-2.7362778008	-1.1681611633	 0.28356
88.8874	123.1389	164.5267	239.6202	241.6412	285.3568	293.825	344.9046	425.7771	459.9781	490.3241	572.1703	687.463	703.7844	780.4676	834.1801	878.205	931.5732	948.4539	970.9245	981.0789	999.911	1011.6931	1019.1135	1063.9124	1090.2163	1129.8301	1150.3943	1170.2713	1212.2627	1244.9183	1266.6338	1287.2018	1314.7638	1326.4432	1348.2232	1376.2003	1394.6177	1412.8015	1416.083	1482.7193	1486.1006	1500.7334	1506.1355	1522.7745	2976.927	3011.592	3019.6648	3031.9032	3047.2851	3091.128	3098.9549	3103.9351	3129.1243	3194.4389	3220.3259	3795.5476
CCC1COC2CC12O	CC[C@H]1CO[C@H]2C[C@@]12O	
InChI=1S/C7H12O2/c1-2-5-4-9-6-3-7(5,6)8/h5-6,8H,2-4H2,1H3	InChI=1S/C7H12O2/c1-2-5-4-9-6-3-7(5,6)8/h5-6,8H,2-4H2,1H3/t5-,6-,7+/m0/s1
