20
gdb 83834	2.11676	1.82844	1.31492	3.2104	80.24	-0.2479	0.0213	0.2692	1063.8694	0.173178	-403.158969	-403.150782	-403.149838	-403.191747	31.889	
C	-0.1360870917	 1.5131226966	 0.1820114568	-0.419811
C	 0.0211583153	 0.0211692944	-0.0075831331	-0.01248
C	 0.6529506738	-0.6011457623	-1.2263464109	-0.076349
C	 1.2883156579	 0.2608143476	-2.3125596115	-0.239953
C	 2.7763560986	 0.44568712	-2.0389655184	-0.079358
O	 3.0224199708	 0.9310622729	-0.7096603713	-0.253934
C	 2.6000455819	 0.1364862547	 0.3279941162	 0.375315
N	 3.2011902969	 0.1348104228	 1.4432116382	-0.520699
C	 1.3727379121	-0.6749273694	 0.1107242626	-0.108882
H	 0.7226056064	 2.0722802266	-0.1964860766	 0.133965
H	-1.0327749672	 1.8796372856	-0.3305901688	 0.114506
H	-0.2377136465	 1.7518701925	 1.2453987287	 0.130555
H	-0.7932938844	-0.558366147	 0.4189184	 0.092201
H	 0.2077049912	-1.5286312451	-1.5710101252	 0.090544
H	 1.1671218701	-0.2169151927	-3.2900652385	 0.107324
H	 0.8028817652	 1.2400742144	-2.3789186015	 0.114926
H	 3.3124121838	-0.5029929942	-2.1776339031	 0.108927
H	 3.224442916	 1.1901629905	-2.70155773	 0.115851
H	 4.0195121839	 0.74588231	 1.3928324592	 0.216035
H	 1.3868483459	-1.611923438	 0.652887797	 0.111319
71.5821	139.1384	188.565	226.809	289.1345	373.6236	411.3008	466.6598	488.3612	526.8271	679.8441	714.541	761.047	774.8053	794.5012	900.8281	913.1383	925.0526	940.6398	978.3163	1011.8811	1054.5799	1085.5641	1091.7433	1099.1671	1140.0445	1150.1865	1160.2016	1241.3595	1248.9169	1281.5964	1307.4012	1362.3181	1365.6977	1382.5502	1420.8975	1424.9814	1432.581	1481.2418	1501.5647	1505.3838	1508.9433	1742.6791	3015.2906	3035.349	3046.5313	3084.9134	3095.5006	3102.4007	3120.9058	3141.3246	3156.775	3192.4542	3458.8268
CC1C2CCOC(=N)C12	C[C@H]1[C@H]2CCO[C]([NH])[C@@H]12	
InChI=1S/C7H11NO/c1-4-5-2-3-9-7(8)6(4)5/h4-6,8H,2-3H2,1H3	InChI=1S/C7H11NO/c1-4-5-2-3-9-7(8)6(4)5/h4-6,8H,2-3H2,1H3/t4-,5+,6-/m0/s1
