15
gdb 71273	2.59096	2.19901	1.50094	4.5533	63.58	-0.2506	-0.0086	0.242	872.5985	0.112584	-457.752825	-457.745973	-457.745029	-457.783865	27.071	
C	-0.0564294749	 1.5112859562	-0.0226842164	-0.496292
C	-0.1194089349	 0.0190759403	 0.0713853988	 0.247115
O	 0.3117538652	-0.6782744126	-1.1635384672	-0.315284
C	-0.7719329475	-1.5812329619	-1.0159565875	 0.060108
C	-0.7976977711	-2.1196368786	 0.4062116535	 0.056856
O	 0.3782607507	-1.9731679659	 1.1776871438	-0.225124
C	 0.7738617449	-0.6618085998	 1.1206593098	 0.469097
O	 1.6969845861	-0.2210752219	 1.7357668584	-0.346642
C	-1.431575295	-0.7953250017	 0.0960402045	-0.247007
H	 0.9848768705	 1.8292755316	-0.1210611239	 0.156652
H	-0.6270552857	 1.8673005873	-0.8833800737	 0.133872
H	-0.4633306785	 1.9615514715	 0.8879961731	 0.13734
H	-1.1375315569	-2.0979614629	-1.8951441989	 0.122448
H	-1.373572591	-2.9966855325	 0.6673234398	 0.129299
H	-2.4393161918	-0.463792349	 0.3050172358	 0.117561
153.7681	193.9463	240.2967	311.7612	373.2597	459.5493	553.0948	615.3293	675.6873	737.004	748.8415	792.3814	814.0194	833.9614	851.531	891.8708	960.0587	1029.0495	1043.3616	1061.7039	1066.621	1093.1703	1118.3572	1127.4942	1199.1859	1219.9843	1308.8656	1342.7699	1396.2993	1418.5831	1477.6823	1481.5734	1892.9195	3049.9221	3123.3188	3137.3843	3191.3854	3208.6432	3223.9781
CC12OC3C(OC1=O)C23	C[C@@]12O[C@H]3[C@@H](OC1=O)[C@@H]23	
InChI=1S/C6H6O3/c1-6-2-3(4(2)9-6)8-5(6)7/h2-4H,1H3	InChI=1S/C6H6O3/c1-6-2-3(4(2)9-6)8-5(6)7/h2-4H,1H3/t2-,3+,4-,6+/m1/s1
