19
gdb 63976	3.31668	1.30574	1.15086	2.1266	78.3	-0.2282	0.0003	0.2285	1128.6939	0.158332	-422.993546	-422.985148	-422.984203	-423.026121	32.77	
C	-0.0206837966	 1.5035377458	 0.2025034105	-0.450679
C	-0.026163764	-0.0043416403	 0.0184821289	 0.290929
O	-1.3160947484	-0.4814335562	-0.3449558975	-0.479607
C	 1.1044837214	-0.6705533243	-0.8742700592	-0.313597
C	 1.1721391106	-1.8445975273	 0.1725242733	 0.088613
O	 2.3773489098	-2.2737556352	 0.7765900968	-0.280924
C	 2.3486358381	-1.8565388728	 2.1547508897	-0.105796
C	 1.2530741325	-0.8026827762	 2.2382299285	-0.260321
C	 0.5389663897	-0.8828971463	 1.1228985596	 0.253939
H	 0.9607815954	 1.8603225357	 0.5252259323	 0.121829
H	-0.2684791911	 2.0045883745	-0.7414953309	 0.109046
H	-0.7671529641	 1.7964810346	 0.9468881824	 0.130434
H	-1.5552950801	-0.0618473637	-1.1789855044	 0.277796
H	 0.8049208125	-0.926723988	-1.8944723853	 0.094902
H	 2.0274567408	-0.0874466169	-0.8738392753	 0.110801
H	 0.571553403	-2.7027564098	-0.1510037706	 0.090962
H	 2.1764710687	-2.7273304266	 2.8078651684	 0.105757
H	 3.3287134587	-1.4376489355	 2.4196911218	 0.110341
H	 1.2130135931	-0.0531259115	 3.018418371	 0.105575
121.5292	132.5042	218.8935	254.3457	288.5481	313.063	348.1111	363.3749	419.7189	489.9771	599.0543	712.2512	728.3846	777.3264	817.8612	855.2	902.7265	924.2607	940.4482	958.5999	973.6603	1020.4671	1035.6849	1085.3616	1112.6507	1127.5299	1174.1762	1181.9229	1197.2722	1229.7048	1239.3896	1297.2557	1340.7758	1370.5932	1389.5911	1404.7615	1454.6312	1484.5511	1492.723	1517.3566	1725.2149	2971.8517	3025.7627	3027.346	3034.6383	3055.7936	3095.6875	3122.4499	3134.3374	3212.7049	3797.5608
CC1(O)CC2OCC=C12	C[C@@]1(O)C[C@H]2OC[CH][C]12	
InChI=1S/C7H10O2/c1-7(8)4-6-5(7)2-3-9-6/h2,6,8H,3-4H2,1H3	InChI=1S/C7H10O2/c1-7(8)4-6-5(7)2-3-9-6/h2,6,8H,3-4H2,1H3/t6-,7-/m1/s1
