19
gdb 90898	2.38264	2.10502	1.49216	2.0709	73.58	-0.2145	0.0741	0.2886	954.7593	0.158717	-422.989433	-422.981678	-422.980734	-423.021095	31.254	
C	-0.0212000789	 1.5373413519	-0.0186573717	-0.410529
C	 0.0239926758	 0.0195059074	 0.0052705454	 0.12726
O	 0.7975991624	-0.4480953636	-1.1179713283	-0.283669
C	 1.5651436071	-1.5395613509	-0.6799982164	 0.0741
C	 2.5097738939	-1.303327158	 0.4858707537	 0.054399
O	 2.1289503329	-0.1102103928	 1.1657270288	-0.330451
C	 0.7388963473	-0.6019742271	 1.2146787565	 0.384309
C	 0.1191740454	-0.4430632565	 2.5766511937	-0.495122
C	 1.1852522511	-1.9952304985	 0.697239871	-0.262411
H	 0.9822783624	 1.9393428132	 0.1361530494	 0.142181
H	-0.3977660247	 1.8849952719	-0.9840615664	 0.125895
H	-0.6876557985	 1.9172115912	 0.7624466835	 0.110256
H	-0.9954190171	-0.3970361412	-0.0647501524	 0.064985
H	 1.8320747912	-2.238487429	-1.4637698918	 0.106467
H	 3.538982937	-1.6351089607	 0.5646393196	 0.103456
H	 0.0628025689	 0.614939681	 2.8504709898	 0.135338
H	-0.8942870756	-0.8578542553	 2.5895214959	 0.122974
H	 0.718295727	-0.9591845378	 3.3307772038	 0.133409
H	 0.8851005825	-2.9746609553	 1.044776116	 0.097152
149.3782	205.8385	228.6435	241.6778	296.7215	323.3368	406.3175	521.692	544.9103	615.2319	667.478	742.3649	782.5811	800.253	842.133	845.2783	863.3454	910.2699	955.1407	1013.2055	1032.4187	1038.2328	1061.0659	1080.9161	1091.4662	1121.3008	1132.6584	1153.339	1191.1295	1218.4938	1285.5356	1304.5551	1355.3824	1376.4305	1394.8192	1403.3166	1412.9095	1480.2538	1484.8496	1494.3812	1499.8346	2956.2373	3040.5422	3046.5601	3110.2506	3115.7929	3124.2589	3140.6808	3175.1939	3188.7028	3201.4343
CC1OC2C3OC1(C)C23	C[C@H]1O[C@H]2[C@H]3O[C@]1(C)[C@@H]23	
InChI=1S/C7H10O2/c1-3-7(2)4-5(8-3)6(4)9-7/h3-6H,1-2H3	InChI=1S/C7H10O2/c1-3-7(2)4-5(8-3)6(4)9-7/h3-6H,1-2H3/t3-,4+,5-,6+,7+/m1/s1
