16
gdb 26975	3.2175	1.2502	0.93585	1.475	75.89	-0.2318	0.0051	0.2369	1205.3447	0.123349	-400.755169	-400.746529	-400.745585	-400.789381	31.177	
C	-0.0391782681	 1.3765668776	-0.5343548733	-0.501394
C	-0.098277144	-0.054688039	-0.1453475469	 0.274
C	-1.064062532	-1.007353179	-0.0473155448	 0.166059
C	-2.5481899909	-0.9661636845	-0.3017092155	-0.46325
C	-2.9908028198	-0.0408438761	-1.3403346089	 0.30579
C	-3.3852527154	 0.7093237652	-2.1925163138	-0.45162
N	-0.4908434773	-2.1958834513	 0.4068192603	-0.307129
C	 0.7588391086	-1.9117783237	 0.5535343313	 0.060929
O	 1.0861661933	-0.640506755	 0.241209625	-0.175942
H	 0.6888251009	 1.5362374593	-1.337326846	 0.140458
H	-1.017740594	 1.7053050113	-0.884662254	 0.157771
H	 0.2608161672	 2.0054603955	 0.3117731324	 0.137917
H	-2.856326461	-1.9842342513	-0.5668822353	 0.159774
H	-3.0777047959	-0.7356006549	 0.6338429188	 0.14852
H	-3.7311925221	 1.3651850674	-2.9526176551	 0.1995
H	 1.5590924305	-2.5551463013	 0.8842165057	 0.148617
30.3943	115.527	137.1892	227.1529	253.5714	288.9114	330.1881	393.9563	450.1555	616.4279	642.9156	647.5844	672.2327	692.0773	749.8324	834.5316	942.8405	956.7517	969.9097	976.1669	1068.8025	1116.5865	1155.0863	1196.8929	1237.5587	1279.3665	1334.818	1378.2091	1421.7584	1462.7123	1480.2107	1486.7363	1564.6175	1673.9149	2240.0617	3007.7346	3033.6653	3059.6252	3084.1329	3154.3213	3274.345	3504.625
CC1=C(CC#C)N=CO1	Cc1c(CC#C)nco1	
InChI=1S/C7H7NO/c1-3-4-7-6(2)9-5-8-7/h1,5H,4H2,2H3	InChI=1S/C7H7NO/c1-3-4-7-6(2)9-5-8-7/h1,5H,4H2,2H3
