16
gdb 34883	2.28012	1.74991	1.20777	3.4853	72.69	-0.2744	0.0198	0.2942	1031.6365	0.124347	-400.706414	-400.698861	-400.697917	-400.73862	28.885	
N	-0.1550641483	-1.2130224758	-0.0365144319	-0.336585
C	-0.0907422259	-0.0587153518	-0.0098069802	 0.283122
C	 0.0292728458	 1.3917483908	 0.0392030968	-0.256573
C	-0.2593359695	 2.105099946	 1.379061916	-0.055795
C	 0.7561369241	 1.7199245804	 2.4118235391	-0.291754
C	 1.1370372547	 2.7390513487	 1.367991739	-0.148292
C	 1.455199752	 2.0207947544	 0.0761911209	 0.453871
C	 2.7134259955	 1.5559442847	-0.5023592131	-0.266569
O	 1.9723561368	 2.6632059068	-1.0603375637	-0.277179
H	-0.5243529527	 1.840545109	-0.7897596478	 0.143674
H	-1.2124156038	 2.5524460646	 1.6263536628	 0.111912
H	 0.5782222999	 2.1218592505	 3.4035675827	 0.12872
H	 1.201202129	 0.7285213104	 2.4050024109	 0.135103
H	 1.4359542056	 3.752071837	 1.6030450737	 0.113721
H	 3.6556790701	 1.8216628437	-0.0268333417	 0.125858
H	 2.7282412365	 0.6554743505	-1.1133741134	 0.136768
98.9889	128.755	183.2486	290.7468	335.9932	380.7643	476.3386	498.0276	564.4879	626.3384	745.2596	792.0202	828.1506	860.4165	913.4849	938.0611	961.4868	985.8021	998.2809	1048.521	1064.3186	1083.0188	1092.7911	1120.0804	1145.824	1165.7658	1180.7685	1195.5829	1284.1093	1318.6364	1343.7311	1440.7562	1491.2985	1535.8149	2351.9423	3087.6958	3092.5734	3121.199	3185.0518	3202.5776	3206.1336	3217.0405
N#CC1C2CC2C11CO1	N#C[C@H]1[C@H]2C[C@H]2[C@]21CO2	
InChI=1S/C7H7NO/c8-2-6-4-1-5(4)7(6)3-9-7/h4-6H,1,3H2	InChI=1S/C7H7NO/c8-2-6-4-1-5(4)7(6)3-9-7/h4-6H,1,3H2/t4-,5+,6-,7-/m0/s1
