19
gdb 41263	3.3991	1.84578	1.47622	1.7958	78.16	-0.2341	0.0725	0.3066	924.2275	0.161723	-385.819715	-385.813332	-385.812388	-385.850031	27.482	
C	-0.0353569802	 1.4589511875	 0.1955400443	-0.252452
C	 1.4808231351	 1.6063560533	-0.1659962687	-0.340525
C	 1.3995742747	 0.2148572326	-0.7870501388	 0.365291
C	 2.3321385778	-0.9613598606	-1.1133098862	-0.356048
C	 1.2448406615	-1.4553935284	-2.1128319879	 0.114771
O	 0.0773674415	-2.0195942178	-1.4646028899	-0.313318
C	-0.5258657494	-0.7085526424	-1.2758321396	 0.09251
C	 0.0720909932	-0.0877772017	-0.0103091301	-0.05848
C	 0.5963541942	-0.0486521118	-2.1235662559	-0.150397
H	-0.3303953608	 1.7841729215	 1.1944684467	 0.104505
H	-0.694297048	 1.9425676717	-0.5312792567	 0.10479
H	 1.7838798785	 2.4400744568	-0.8067777088	 0.094513
H	 2.1013506274	 1.6167338311	 0.7367358467	 0.104548
H	 3.2231252189	-0.6469805745	-1.6712558333	 0.098887
H	 2.6272257952	-1.6309440951	-0.3003636368	 0.102012
H	 1.5471196179	-2.0414549258	-2.9829159766	 0.077377
H	-1.6008308756	-0.7184095744	-1.4749865358	 0.070325
H	 0.0611854349	-0.6853295717	 0.9037292418	 0.070427
H	 0.5068951532	 0.6254503493	-2.9716114244	 0.071263
206.5118	262.7037	332.577	352.6223	429.1836	519.162	643.7541	688.4697	746.7759	793.4962	821.0828	835.6676	866.8736	874.746	892.7365	917.5356	929.5411	959.4224	974.5509	994.0319	1020.8155	1084.8942	1091.5394	1107.4771	1149.4337	1157.8295	1170.5263	1195.6843	1212.1841	1216.9276	1235.3192	1241.7544	1267.2478	1278.1885	1286.1701	1300.9676	1325.8209	1339.2502	1468.1343	1477.2649	1493.4725	3028.8043	3039.1923	3062.372	3068.8794	3086.0092	3087.3422	3089.6717	3095.3016	3122.5635	3145.6427
C1CC23CC4OC(C12)C34	C1C[C@@]23C[C@H]4O[C@@H]([C@H]12)[C@@H]34	
InChI=1S/C8H10O/c1-2-8-3-5-6(8)7(9-5)4(1)8/h4-7H,1-3H2	InChI=1S/C8H10O/c1-2-8-3-5-6(8)7(9-5)4(1)8/h4-7H,1-3H2/t4-,5+,6-,7-,8+/m0/s1
