16
gdb 32274	2.60857	1.52692	0.96964	4.9435	74.28	-0.2331	-0.0129	0.2202	1148.6036	0.126623	-434.120964	-434.112781	-434.111836	-434.153905	30.384	
N	-0.0173345602	 1.3635823853	 0.1372590572	-0.571445
C	 0.0315404284	-0.007285798	 0.0445994936	 0.325253
N	-1.1431648128	-0.6466221418	 0.0540721802	-0.325263
C	-1.0950820964	-1.9776053752	 0.0141645891	 0.06755
N	-0.0133393598	-2.747358441	-0.0456228425	-0.280274
C	 1.1556258755	-2.0859657267	-0.0542590554	-0.042065
C	 1.2556542205	-0.7063477663	-0.0062876443	 0.177233
C	 2.5719218057	 0.0225063368	 0.0123390438	-0.193089
O	 3.6303382769	-0.9118834351	-0.0465914191	-0.412408
H	 0.7448952789	 1.8972956718	-0.2480274563	 0.255116
H	-0.9350223701	 1.752777117	-0.0214622942	 0.260482
H	-2.0562417223	-2.4875535609	 0.0270688548	 0.110758
H	 2.058862918	-2.6851383501	-0.0978070171	 0.132149
H	 2.6197094766	 0.7236233655	-0.8429850724	 0.090997
H	 2.6295877574	 0.6408938627	 0.9251229022	 0.110061
H	 4.4605824535	-0.4333723737	 0.0252343702	 0.294944
70.2312	157.0158	203.1165	217.8929	273.8469	337.8016	386.4609	427.264	500.3653	536.8943	557.7652	607.2769	630.3387	790.5186	812.6959	914.7395	959.7605	1012.3155	1048.4775	1057.4483	1089.6287	1164.2684	1216.157	1216.8396	1258.4964	1294.3917	1348.8693	1359.1079	1441.5071	1463.6504	1490.7514	1518.7544	1609.1915	1622.5413	1648.5066	2911.4551	2953.1032	3154.7792	3195.2646	3579.5854	3697.5635	3844.558
NC1=NC=NC=C1CO	Nc1ncncc1CO	
InChI=1S/C5H7N3O/c6-5-4(2-9)1-7-3-8-5/h1,3,9H,2H2,(H2,6,7,8)	InChI=1S/C5H7N3O/c6-5-4(2-9)1-7-3-8-5/h1,3,9H,2H2,(H2,6,7,8)
