18
gdb 64724	3.97016	1.09159	1.0396	3.3627	75.56	-0.2688	0.0229	0.2917	1188.4462	0.147252	-401.935307	-401.926895	-401.925951	-401.968377	32.263	
O	-0.1135134774	 1.4398926131	-0.0877409842	-0.479474
C	-0.0324658079	 0.0373367125	 0.0042514357	 0.402371
C	 0.8863344526	-0.5262464301	-1.1037394778	-0.390269
C	 2.241194328	 0.0066787097	-0.9830634761	 0.243713
N	 3.2908377932	 0.4706794908	-0.84305183	-0.308182
C	 0.2592199171	-0.5871479647	 1.4190256202	-0.304593
C	-1.1001028787	-1.2917664555	 1.3499488477	-0.036567
C	-2.1887469786	-0.2694100784	 1.2115178191	-0.290911
C	-1.3982708146	-0.646293319	-0.0088672731	-0.074823
H	 0.7665038768	 1.8082624113	 0.0597390733	 0.293014
H	 0.9179696782	-1.6193986596	-1.0586166895	 0.152931
H	 0.4797578449	-0.241882721	-2.0805360689	 0.157308
H	 1.1210403154	-1.2584497616	 1.4197926077	 0.111133
H	 0.3746257731	 0.1408179041	 2.2272984125	 0.106315
H	-1.2952840159	-2.3088150188	 1.664511232	 0.091212
H	-3.2024816107	-0.6558985211	 1.2289159628	 0.115976
H	-2.0738686049	 0.7193531354	 1.6455647473	 0.125564
H	-1.8636701106	-1.069412147	-0.8916870988	 0.085283
74.3587	113.6434	156.0452	255.3184	338.2729	356.1285	392.4582	413.7908	429.0014	455.0025	566.2398	690.9393	767.3863	793.8707	841.4312	880.1328	900.4307	948.6106	950.4632	971.9269	990.2661	1013.3671	1060.2274	1083.3097	1088.951	1114.8872	1142.6482	1192.2897	1213.0878	1247.4849	1271.9471	1285.3893	1297.7199	1359.43	1393.8618	1455.9911	1477.1146	1493.9774	2355.9141	3050.8899	3055.7264	3097.4581	3112.3843	3124.2344	3173.9804	3195.3572	3213.4683	3779.505
OC1(CC#N)CC2CC12	O[C@@]1(CC#N)C[C@H]2C[C@@H]12	
InChI=1S/C7H9NO/c8-2-1-7(9)4-5-3-6(5)7/h5-6,9H,1,3-4H2	InChI=1S/C7H9NO/c8-2-1-7(9)4-5-3-6(5)7/h5-6,9H,1,3-4H2/t5-,6-,7+/m1/s1
