19
gdb 74560	2.4186	1.53274	1.2298	0.8604	86.72	-0.2179	0.0196	0.2375	1110.2102	0.158773	-348.728116	-348.719668	-348.718724	-348.76088	33.108	
C	-0.0290721524	 1.4958660512	 0.0403373847	-0.489772
C	 0.0487312982	 0.004590446	-0.0258937988	 0.334825
C	 0.0493791758	-0.7634792286	-1.121275235	-0.182759
C	 0.0465065919	-2.2141311113	-0.7897577817	-0.088616
C	 0.0587698947	-2.2808700566	 0.7204791372	-0.069829
C	 0.0946925226	-0.8445406631	 1.2345023434	-0.32766
C	-1.1824306172	-2.7467313324	-0.0322903169	-0.222982
C	-2.4234514768	-2.0361160656	 0.0323855543	 0.356374
C	-3.4759244181	-1.4572855972	 0.1088905422	-0.473153
H	 0.8088913036	 1.9134973785	 0.6134669334	 0.120718
H	-0.0181036823	 1.9441400993	-0.9567899035	 0.123035
H	-0.9463538079	 1.8211686307	 0.5473236842	 0.130098
H	 0.0062294634	-0.3942341999	-2.1396334243	 0.087424
H	 0.5789821181	-2.9254435272	-1.4118095107	 0.089315
H	 0.6171314151	-3.0445748206	 1.248512384	 0.089896
H	 1.0081856693	-0.6520327085	 1.8132051539	 0.1034
H	-0.7501883353	-0.6195352731	 1.8988106614	 0.119314
H	-1.2905502021	-3.8278633273	-0.0708436835	 0.109538
H	-4.4058661707	-0.9482284044	 0.1614433458	 0.190835
92.442	133.725	179.9999	204.7564	309.5547	343.236	360.4366	439.7662	558.8505	573.928	600.1555	623.4483	646.3212	738.9251	765.2195	778.8487	854.1451	861.6282	921.8524	945.3588	967.8805	994.0185	1015.1291	1040.6812	1052.9385	1080.928	1107.0502	1186.9919	1196.9387	1198.3784	1281.3378	1321.0642	1351.3864	1355.4919	1393.1076	1413.8066	1469.8853	1479.5775	1488.8224	1707.8701	2231.3118	3012.0747	3017.5073	3042.9924	3061.8984	3110.6394	3134.4608	3164.0368	3181.0033	3195.9342	3505.7647
CC1=CC2C(C1)C2C#C	CC1=C[C@H]2[C@@H](C1)[C@H]2C#C	
InChI=1S/C9H10/c1-3-7-8-4-6(2)5-9(7)8/h1,4,7-9H,5H2,2H3	InChI=1S/C9H10/c1-3-7-8-4-6(2)5-9(7)8/h1,4,7-9H,5H2,2H3/t7-,8+,9-/m0/s1
