16
gdb 7084	6.94426	0.82877	0.78494	2.7535	62.77	-0.2539	-0.0367	0.2172	1373.0494	0.126293	-420.888576	-420.879309	-420.878365	-420.923762	31.078	
O	-0.0573729971	 1.4005785965	 0.1258893422	-0.420228
C	-0.0311939378	-0.0146669661	-0.0183060438	 0.107879
C	 0.6909051034	-0.4278504827	-1.3071565149	-0.30321
C	 0.1094813328	 0.2786754366	-2.5164972058	 0.172258
O	 0.7612026094	 0.8417038626	-3.3550082628	-0.234887
C	 0.5558053023	-0.6885139036	 1.2286982558	-0.303189
C	-0.156345939	-0.2344073666	 2.4882052912	 0.172267
O	 0.3983139854	 0.1407247427	 3.4864869416	-0.234925
H	 0.8502995521	 1.7171965565	 0.2055907504	 0.291506
H	-1.0904806108	-0.2918442319	-0.103179553	 0.102919
H	 1.762973831	-0.2082073573	-1.2547001822	 0.120333
H	 0.5779647261	-1.5107973024	-1.4591895402	 0.126445
H	-1.0017775977	 0.2292604417	-2.5854454915	 0.078053
H	 0.4383676175	-1.778444136	 1.1456730823	 0.126385
H	 1.6251736746	-0.4751573199	 1.3345689062	 0.120325
H	-1.2681045122	-0.2844295601	 2.4293768643	 0.078069
51.3857	81.4595	83.0436	106.6422	159.2858	245.6935	318.4682	326.6464	433.0929	443.3674	542.6472	577.0101	770.6605	773.6006	914.476	968.5486	1007.7942	1017.7557	1083.9623	1084.1218	1143.5738	1188.2415	1192.1293	1254.086	1308.5563	1341.908	1377.74	1417.6365	1429.5096	1432.2813	1449.243	1461.5726	1841.2063	1844.1733	2866.9562	2868.927	3016.6028	3021.5478	3027.2963	3081.0092	3088.2381	3794.0636
OC(CC=O)CC=O	OC(CC=O)CC=O	
InChI=1S/C5H8O3/c6-3-1-5(8)2-4-7/h3-5,8H,1-2H2	InChI=1S/C5H8O3/c6-3-1-5(8)2-4-7/h3-5,8H,1-2H2
