18
gdb 79157	3.69026	1.34625	1.16403	0.7065	71.41	-0.2276	0.0701	0.2976	1068.7814	0.148755	-439.011137	-439.00365	-439.002706	-439.042801	30.011	
O	-0.0184971294	 1.4530659262	-0.0909527853	-0.436764
C	 0.0176742861	 0.0549940245	 0.0006186885	 0.133782
C	-0.0450732506	-0.6245779518	 1.3907560927	-0.077003
C	-1.5177037705	-0.1333147756	 1.5690820154	-0.009928
C	-1.351525183	-0.6273861679	 0.0989513377	-0.07209
N	-0.6306709871	-1.8453963152	 0.6831793106	-0.139743
C	-1.5968359851	-2.4457961254	 1.6325290499	-0.200368
C	-2.2442602918	-1.2214058203	 2.338993784	 0.077055
O	-1.9186118754	-1.1014731458	 3.717988981	-0.441942
H	 0.8812702192	 1.7836249239	-0.0106307039	 0.28887
H	 0.7139034486	-0.406584557	-0.7080998367	 0.081808
H	 0.7269236741	-0.7281311541	 2.154888835	 0.081801
H	-1.7430605187	 0.9074475368	 1.7932235496	 0.087756
H	-2.116646581	-0.736580522	-0.6729780069	 0.077882
H	-2.3135126552	-3.0593038429	 1.0771289769	 0.100032
H	-1.0697674748	-3.0811300406	 2.351056211	 0.102014
H	-3.333629905	-1.1770938735	 2.1955504228	 0.063731
H	-2.3816359502	-1.7959051094	 4.1963281178	 0.283104
140.1731	197.1905	248.1195	266.3941	276.839	395.4602	438.1083	487.9836	548.6831	712.7356	731.0353	774.9314	815.9999	832.2806	862.4837	917.9872	931.4893	963.8382	992.2388	1032.2487	1042.6637	1084.7295	1102.23	1117.3063	1124.4508	1157.3573	1164.8105	1190.4681	1215.556	1228.5021	1245.2732	1265.2012	1293.3755	1307.0301	1328.8641	1334.7249	1427.5521	1435.6548	1485.32	2994.1157	3046.5451	3051.3138	3090.7354	3097.1245	3105.2424	3144.37	3822.8473	3826.1213
OC1C2C3C1N2CC3O	O[C@H]1[C@H]2[C@H]3[C@@H]1N2C[C@H]3O	
InChI=1S/C6H9NO2/c8-2-1-7-4-3(2)5(7)6(4)9/h2-6,8-9H,1H2	InChI=1S/C6H9NO2/c8-2-1-7-4-3(2)5(7)6(4)9/h2-6,8-9H,1H2/t2-,3-,4+,5-,6-/m1/s1
