19
gdb 105462	2.66244	0.94525	0.78709	4.9144	76.63	-0.2477	0.0263	0.274	1465.6701	0.158717	-419.185871	-419.17621	-419.175266	-419.221195	34.983	
O	-0.0446030897	 1.3936804119	-0.6998738666	-0.416856
C	 0.0181325606	 0.0972402012	-0.1198653715	-0.131963
C	-1.3687712144	-0.4897604961	 0.075057702	 0.315029
C	-1.9751293804	-1.2545955771	-1.0804292252	-0.314743
C	-1.5298427351	-1.9840901211	 0.1637254655	-0.297256
N	-2.3056539326	 0.3002389258	 0.8427470031	-0.337973
C	-1.9729448986	 0.4052198902	 2.2636633941	-0.279402
C	-3.0331791094	 1.1076823412	 2.9934203375	 0.258143
N	-3.8563007852	 1.6771542575	 3.5697062526	-0.300369
H	-0.4231887734	 1.2989240456	-1.5809425233	 0.285542
H	 0.6372441636	-0.588923877	-0.7171659461	 0.090916
H	 0.5266635195	 0.2351276343	 0.8409166727	 0.112527
H	-3.0407320443	-1.1398887828	-1.2358542796	 0.130457
H	-1.3858873165	-1.3782878239	-1.9835270013	 0.110164
H	-0.640118404	-2.6021849947	 0.1114601251	 0.118073
H	-2.305449647	-2.3573725025	 0.8223483771	 0.126903
H	-2.3490955624	 1.2330184247	 0.4418729202	 0.234015
H	-1.88250831	-0.606596389	 2.6749279033	 0.155817
H	-1.0224290505	 0.9208662517	 2.4796166104	 0.140975
47.6606	81.9883	125.4447	142.0439	210.0482	245.9069	328.3058	345.9918	366.5252	393.3908	446.7001	531.5186	567.2649	765.2218	773.9783	792.346	901.9559	918.1428	928.3679	955.9992	980.6267	1019.7968	1051.8852	1062.6918	1074.0883	1088.4615	1120.8667	1188.751	1200.8604	1254.3524	1295.7847	1333.2402	1373.9507	1392.443	1415.311	1453.2777	1484.4703	1488.9058	1503.1605	1512.6581	2367.8494	2968.718	2992.6753	3065.5308	3066.4618	3133.7323	3138.8055	3221.6568	3235.1323	3512.3158	3801.5454
OCC1(CC1)NCC#N	OCC1(CC1)NCC#N	
InChI=1S/C6H10N2O/c7-3-4-8-6(5-9)1-2-6/h8-9H,1-2,4-5H2	InChI=1S/C6H10N2O/c7-3-4-8-6(5-9)1-2-6/h8-9H,1-2,4-5H2
