17
gdb 40707	3.4869	1.07124	0.94926	1.7004	69.46	-0.2648	0.0615	0.3263	1257.8518	0.134493	-458.882158	-458.873908	-458.872964	-458.915967	29.84	
C	-0.3552416837	 1.346342987	-0.1193842926	-0.175861
O	 0.98771362	 0.8668617981	-0.0764568497	-0.234334
C	-0.075700759	-0.0940136324	-0.0406701174	 0.036735
C	-0.2130348104	-0.8052442508	 1.2660400145	 0.031436
O	-1.3069569708	-1.7241656852	 1.3995798371	-0.255159
C	 0.0153398458	-2.2498839593	 1.4604249649	 0.020448
C	 0.4279045504	-3.2223048224	 0.3971522415	 0.044757
C	-0.5575387728	-4.1148494416	-0.2319335435	-0.174247
O	-0.0077036864	-3.0005105875	-0.9394216439	-0.224408
H	-0.6908169007	 1.8803451692	 0.7691654281	 0.114857
H	-0.6706369019	 1.7768347463	-1.0684240091	 0.120701
H	-0.185019045	-0.7063580708	-0.9297168227	 0.135473
H	-0.0608594172	-0.1579630663	 2.132153093	 0.099143
H	 0.3294454554	-2.5676048746	 2.4582345327	 0.098214
H	 1.4594983511	-3.5658235172	 0.4874015063	 0.106207
H	-0.2484146217	-5.0940215944	-0.5924558577	 0.120081
H	-1.6043201731	-4.0102791379	 0.0435639886	 0.135956
60.9648	81.1045	149.0034	195.342	241.2762	294.3612	347.4456	476.7632	551.5975	675.9896	737.9329	831.4833	860.4674	864.7845	896.799	912.8273	967.3984	985.514	1010.3837	1091.6971	1101.8257	1115.0113	1134.4589	1152.4945	1166.924	1169.1301	1177.3739	1195.401	1273.9489	1283.0432	1289.5948	1336.4313	1415.1364	1439.0869	1501.9253	1517.1698	1531.4118	3073.4853	3082.6383	3094.4031	3096.181	3107.0353	3168.402	3186.5853	3193.4126
C1OC1C1OC1C1CO1	C1O[C@H]1[C@H]1O[C@H]1[C@H]1CO1	
InChI=1S/C6H8O3/c1-3(7-1)5-6(9-5)4-2-8-4/h3-6H,1-2H2	InChI=1S/C6H8O3/c1-3(7-1)5-6(9-5)4-2-8-4/h3-6H,1-2H2/t3-,4-,5-,6+/m1/s1
