19
gdb 117045	4.51407	0.73271	0.64031	1.0874	73.9	-0.2498	-0.0681	0.1817	1769.291	0.155695	-460.211902	-460.201197	-460.200252	-460.249415	35.936	
C	 0.1443885718	 1.5528428677	 0.0897460962	-0.387651
C	 0.095050672	 0.0236495509	 0.0544329511	-0.169786
C	 0.882520872	-0.5591878486	-1.1178117763	-0.275308
C	 0.8494918769	-2.0691671209	-1.1751705334	 0.249532
O	 0.2686179856	-2.7732745434	-0.3894117399	-0.274267
C	 1.6424212528	-2.6806629232	-2.3570068219	 0.378611
O	 2.2375696953	-2.0113620845	-3.1659027215	-0.353495
O	 1.5780329138	-4.011678257	-2.3568377012	-0.207319
C	 2.2880311783	-4.6598657813	-3.4222757321	-0.242542
H	 1.1736552216	 1.916673578	 0.1838676957	 0.115699
H	-0.2755214844	 1.9867384509	-0.8246005514	 0.115698
H	-0.4260097711	 1.9457112796	 0.936698391	 0.116789
H	 0.488067459	-0.3889450034	 0.9901502405	 0.112616
H	-0.9435318442	-0.3198012293	-0.0059344669	 0.11262
H	 0.5172322811	-0.1808438558	-2.0825931436	 0.137621
H	 1.9365018856	-0.2493580933	-1.0951305549	 0.137617
H	 2.1330332578	-5.7277394285	-3.2734203297	 0.143287
H	 1.8942156642	-4.3438856807	-4.3915845616	 0.145138
H	 3.352023932	-4.4141088572	-3.3773783302	 0.145141
31.9009	56.7953	92.3037	111.2164	123.6218	156.6518	230.3944	244.6519	300.9724	336.296	371.6614	435.4311	515.4949	676.8212	746.9201	764.6476	850.643	886.9492	897.8138	973.4725	1050.7686	1078.3255	1100.6083	1137.7429	1177.6526	1210.2159	1240.3257	1286.8216	1316.7354	1335.2692	1399.5518	1416.7533	1434.932	1473.0536	1482.9014	1487.6547	1493.3924	1500.6903	1508.1942	1804.6755	1822.393	3024.7652	3030.5736	3045.7596	3046.4254	3053.5406	3075.008	3100.6019	3105.8295	3128.4648	3167.9759
CCCC(=O)C(=O)OC	CCCC(=O)C(=O)OC	
InChI=1S/C6H10O3/c1-3-4-5(7)6(8)9-2/h3-4H2,1-2H3	InChI=1S/C6H10O3/c1-3-4-5(7)6(8)9-2/h3-4H2,1-2H3
