16
gdb 14444	4.22132	2.08408	1.7931	0.6499	63.04	-0.2208	0.0792	0.3	763.3759	0.131899	-383.701942	-383.695646	-383.694702	-383.731939	25.61	
O	-0.0794003422	 1.3978867302	-0.0525372937	-0.459855
C	 0.052037861	 0.0220213224	-0.0400896058	 0.344016
C	 0.8736430602	-0.8034638992	-1.0289494005	-0.297851
C	-0.1199820273	-1.9875918166	-0.7731106443	-0.070937
C	 0.3861914325	-2.8597748754	 0.375270663	-0.075833
O	 0.5273170487	-1.9519340021	 1.4776429746	-0.268116
C	-0.2709714873	-0.8260689819	 1.1796407415	 0.033812
C	-1.0855708411	-0.9965859538	-0.0620516883	-0.17354
H	 0.6265171574	 1.7745556069	 0.4849831909	 0.287242
H	 0.7715502451	-0.4059165321	-2.0416669035	 0.108705
H	 1.9317659407	-0.9793495454	-0.8035778066	 0.093409
H	-0.4761998359	-2.5316362464	-1.6464999815	 0.079198
H	-0.3306129068	-3.6560893794	 0.6266169498	 0.092581
H	 1.3630123705	-3.3134174637	 0.1776870925	 0.106776
H	-0.6751116921	-0.3247445027	 2.0513616819	 0.10399
H	-2.1575379134	-0.8964190409	-0.1632882702	 0.096402
210.7726	248.9941	322.7889	327.2433	409.6209	491.4183	567.8251	705.0642	719.6271	764.9165	837.6233	862.8167	892.4975	905.6574	948.1025	968.7105	998.7898	1021.466	1045.6395	1075.2682	1095.4828	1137.7909	1176.6896	1182.6074	1226.3972	1232.856	1256.887	1281.0567	1311.801	1322.0865	1373.6075	1436.5368	1498.098	1517.4078	2990.7774	3036.0743	3072.8916	3105.3075	3128.1564	3189.3924	3208.7176	3791.3485
OC12CC3COC1C23	O[C@@]12C[C@H]3CO[C@@H]1[C@@H]23	
InChI=1S/C6H8O2/c7-6-1-3-2-8-5(6)4(3)6/h3-5,7H,1-2H2	InChI=1S/C6H8O2/c7-6-1-3-2-8-5(6)4(3)6/h3-5,7H,1-2H2/t3-,4-,5+,6+/m0/s1
