18
gdb 37490	3.87639	1.95939	1.68585	0.6477	82.	-0.2042	-0.0362	0.1681	844.172	0.150656	-364.689059	-364.68321	-364.682266	-364.718711	26.024	
C	-0.1087310871	 1.5234115513	 0.061059888	-0.255935
C	 1.4110216138	 1.4151830921	 0.0193526517	 0.013334
C	 1.9300084727	 0.5143590999	 1.1630870333	-0.107654
C	 2.5309344328	-0.4145384552	 0.1162832923	 0.049789
C	 2.506549623	-1.819623884	 0.7741832992	-0.270986
C	 1.0993915898	-1.7491587907	 1.3621776456	-0.138391
C	 0.7108788245	-0.4564807911	 1.2953339753	 0.093367
C	-0.0315374651	-0.0083895046	 0.0782002858	-0.023161
N	 1.3405133868	 0.1076150377	-0.7865277251	-0.19729
H	-0.5877028963	 2.0121834768	 0.912171612	 0.102245
H	-0.5048202749	 1.9104718133	-0.8807399108	 0.112316
H	 2.0614674142	 2.2048873954	-0.3582480161	 0.075151
H	 2.4360505872	 0.8508361085	 2.0702921368	 0.062278
H	 3.4493462738	-0.1277185761	-0.4058055567	 0.073703
H	 2.555892598	-2.6636555687	 0.0769145014	 0.117607
H	 3.3659496569	-1.9156970215	 1.4536357647	 0.111691
H	 0.4044257349	-2.5710396575	 1.2177187251	 0.096691
H	-0.7991453051	-0.6531770555	-0.3440857924	 0.085245
267.0355	360.0355	402.8395	426.9366	537.5838	576.3158	673.0081	698.6311	774.1618	786.0333	819.8383	841.3188	863.2116	867.32	908.8628	928.7275	938.3465	960.4007	986.5539	1002.1256	1019.3605	1042.5216	1081.4553	1095.6933	1142.6236	1154.8874	1183.3607	1206.4339	1217.6753	1241.5158	1253.8542	1261.6185	1274.7936	1298.2865	1313.8211	1357.814	1460.5458	1482.6065	1586.8977	3000.2183	3064.0262	3067.0252	3068.1454	3085.0149	3111.0472	3126.8614	3147.637	3165.4833
C1C2C3C4CC=C3C1N24	C1[C@H]2[C@@H]3[C@H]4C[CH][C]3[C@@H]1N24	
InChI=1S/C8H9N/c1-2-5-8-4(1)6-3-7(8)9(5)6/h1,5-8H,2-3H2	InChI=1S/C8H9N/c1-2-5-8-4(1)6-3-7(8)9(5)6/h1,5-8H,2-3H2/t5-,6-,7+,8+/m1/s1
