20
gdb 22526	2.18072	1.28648	1.06183	1.2433	79.16	-0.2477	-0.0012	0.2465	1253.5439	0.168177	-440.237053	-440.227003	-440.226059	-440.271876	37.14	
C	-0.3878234328	 1.3656135118	 0.2322736246	-0.386614
C	 0.0401186154	-0.0907482591	 0.0447510104	-0.203921
C	 0.7880473983	-0.343026942	-1.2705391326	 0.352181
O	 1.9497315757	 0.4532034037	-1.2622107483	-0.47815
C	 0.947354305	-1.8772518787	-1.5894130818	-0.285601
C	-0.2316693747	-1.7830078066	-2.6078609514	-0.317754
C	-0.0872756948	-0.2791670745	-2.5177986577	 0.327224
N	-0.3074119926	 0.7123681774	-3.2753767033	-0.246237
O	-1.0182193826	 0.3308666835	-4.4275374849	-0.387194
H	 0.4842392648	 2.0232023711	 0.2243702202	 0.133372
H	-1.0571756893	 1.685541167	-0.5724187495	 0.125528
H	-0.9121658445	 1.4968562696	 1.1836272972	 0.105909
H	 0.7111926781	-0.3974745499	 0.856970251	 0.106428
H	-0.8307477064	-0.7554002528	 0.0890731406	 0.094544
H	 2.1634003925	 0.6738756762	-2.1748090206	 0.284275
H	 1.902865856	-2.0710810144	-2.0814222217	 0.108421
H	 0.8270919144	-2.5603685643	-0.7461736804	 0.103218
H	-0.0820246097	-2.2075554611	-3.6025647354	 0.130308
H	-1.1843036199	-2.1505817873	-2.2149929868	 0.126536
H	-1.093954143	 1.1641730003	-4.9051201896	 0.307528
74.6566	99.7713	137.8746	172.2715	226.2243	232.2773	241.9729	320.8669	345.1419	355.9526	410.8997	475.2041	523.2684	579.9276	678.6402	761.6667	777.0365	791.1919	885.8163	919.277	958.5103	984.9253	1009.1381	1044.397	1061.7958	1112.9334	1122.7824	1148.9443	1199.8049	1206.3207	1236.9674	1262.7662	1322.5569	1357.5531	1378.9503	1407.5044	1412.6464	1462.6671	1475.6214	1482.3982	1492.8722	1509.6158	1770.2335	3026.8483	3044.2588	3062.8362	3065.279	3071.1463	3109.6752	3114.2697	3131.179	3133.2262	3814.0036	3816.5081
CCC1(O)CCC1=NO	CC[C@@]1(O)CCC1=NO	
InChI=1S/C6H11NO2/c1-2-6(8)4-3-5(6)7-9/h8-9H,2-4H2,1H3	InChI=1S/C6H11NO2/c1-2-6(8)4-3-5(6)7-9/h8-9H,2-4H2,1H3/t6-/m1/s1
