18
gdb 16662	2.90115	2.28278	1.75879	2.6044	66.32	-0.2562	0.0822	0.3384	826.5047	0.154908	-384.939528	-384.93232	-384.931375	-384.970536	28.599	
C	 0.0080494785	 1.5757111381	 0.0020351008	-0.394742
C	 0.0794678216	 0.0491875533	 0.0128239349	-0.033333
C	 0.818802126	-0.5766571634	-1.1577363981	 0.044325
O	 2.2555594882	-0.5751783564	-0.9976951923	-0.27782
C	 1.5195773085	-1.7826734228	-0.7032498234	 0.043685
C	 1.2605879552	-1.9708759801	 0.7780449775	-0.270269
C	 0.811658773	-0.5625042534	 1.2497603318	 0.109305
O	 1.9140731963	 0.2187514484	 1.6739948248	-0.436136
H	 1.0075759491	 2.0153467362	 0.0150099071	 0.128529
H	-0.516766647	 1.9345769123	-0.8894207867	 0.107244
H	-0.5270485879	 1.9473131405	 0.8811273818	 0.119455
H	-0.9425068262	-0.3574607799	-0.0094046548	 0.076868
H	 0.4765608808	-0.4392175077	-2.1807151807	 0.095481
H	 1.740417389	-2.6218471463	-1.3573424339	 0.098209
H	 0.4657295231	-2.7150357906	 0.912902578	 0.10373
H	 2.137215262	-2.305795975	 1.3394320909	 0.117402
H	 0.1425615708	-0.6179519835	 2.1122663353	 0.081263
H	 2.5187055791	 0.2424691203	 0.919568577	 0.286802
140.9255	205.9555	230.8014	266.4081	356.879	413.2115	464.2952	531.3841	582.9383	658.805	756.6621	817.5645	826.308	859.2451	882.3607	901.8312	962.989	996.1466	1008.607	1031.2746	1083.5179	1099.0644	1132.5132	1148.6024	1203.7721	1229.9993	1257.8693	1273.9771	1312.352	1332.4008	1345.2375	1373.8376	1411.9222	1432.7174	1457.3158	1475.1153	1495.1369	1497.5587	3001.1061	3037.2431	3041.9167	3079.7134	3098.3623	3104.7873	3130.3467	3141.6197	3156.8485	3747.098
CC1C2OC2CC1O	C[C@H]1[C@H]2O[C@H]2C[C@H]1O	
InChI=1S/C6H10O2/c1-3-4(7)2-5-6(3)8-5/h3-7H,2H2,1H3	InChI=1S/C6H10O2/c1-3-4(7)2-5-6(3)8-5/h3-7H,2H2,1H3/t3-,4-,5+,6-/m1/s1
