18
gdb 101522	3.97778	0.71989	0.66495	4.2594	74.17	-0.2804	-0.0859	0.1946	1654.4761	0.144376	-439.103322	-439.09292	-439.091976	-439.139784	35.786	
C	-0.170954275	 1.6370147047	-0.2833419836	-0.402125
C	-0.0242043693	 0.1283333353	-0.0467253705	 0.030251
C	-1.3895287752	-0.5575802703	 0.0485092556	-0.087865
O	-2.0898090234	 0.0114753633	 1.1408190406	-0.419016
C	 0.8147088109	-0.5473846362	-1.1378791469	-0.323287
C	 2.289587903	-0.2233503773	-1.0788764481	 0.287401
O	 2.842113038	 0.4101689908	-0.2165083228	-0.261677
C	 3.0797370766	-0.783373845	-2.2026261212	 0.231178
N	 3.6824071236	-1.2256619476	-3.084815354	-0.294863
H	 0.8001846831	 2.1364482996	-0.2597897202	 0.1327
H	-0.6377811166	 1.8352077946	-1.2563656185	 0.105886
H	-0.8060465482	 2.0743662442	 0.4890252083	 0.142681
H	 0.4821244479	-0.0246373799	 0.9135259095	 0.109118
H	-1.9406011013	-0.4178708543	-0.8972017768	 0.08602
H	-1.2499636699	-1.6422853937	 0.18936511	 0.085399
H	-2.9783130389	-0.3550958926	 1.1578761994	 0.29114
H	 0.7428168818	-1.6447483945	-1.081415419	 0.143872
H	 0.4552044131	-0.292878321	-2.1451727817	 0.143188
39.5757	70.6712	104.6065	126.726	196.6367	234.3332	244.5568	265.6419	271.8725	331.328	389.5589	420.7102	543.6804	577.2349	616.1311	810.5721	858.513	896.1081	930.6619	959.8033	1056.0826	1082.7478	1111.9013	1118.0963	1172.357	1230.7527	1249.4821	1274.9139	1310.9509	1374.523	1388.5107	1404.0596	1436.0733	1461.9506	1497.0842	1507.4695	1521.4437	1800.7427	2336.6663	2951.1735	2979.453	3003.0679	3031.2147	3035.2395	3056.569	3112.0765	3143.1969	3837.0985
CC(CO)CC(=O)C#N	C[C@@H](CO)CC(=O)C#N	
InChI=1S/C6H9NO2/c1-5(4-8)2-6(9)3-7/h5,8H,2,4H2,1H3	InChI=1S/C6H9NO2/c1-5(4-8)2-6(9)3-7/h5,8H,2,4H2,1H3/t5-/m1/s1
