17
gdb 17722	4.47943	2.53391	2.06835	1.606	71.67	-0.2267	0.0943	0.321	707.0213	0.145238	-326.630253	-326.624787	-326.623843	-326.659357	23.507	
C	-0.0967480249	 1.5514020608	 0.0057191628	-0.340577
C	 1.4237302367	 1.250327289	-0.0062486612	-0.023793
C	 1.3312360057	 0.1626969791	 1.0875776897	-0.072312
C	 1.8295729921	-0.9586102106	 0.1770601345	-0.012314
C	 0.8202858566	-2.1272072524	 0.2684164998	-0.219698
C	-0.5515113952	-1.3502327285	 0.2738789859	-0.337983
C	 0.048923558	 0.034512677	 0.1986499932	 0.343222
N	 1.1930019141	-0.0236700994	-0.8511293364	-0.177411
H	-0.4840125822	 2.123030193	 0.8527040219	 0.10002
H	-0.5303228235	 1.8816398606	-0.942024501	 0.109982
H	 2.2436640429	 1.9348831617	-0.227408523	 0.07974
H	 1.3757765734	 0.2771079042	 2.1766687671	 0.057885
H	 2.8835252401	-1.2154414698	 0.0471380054	 0.062858
H	 0.9068470565	-2.7920650867	-0.5952125107	 0.112181
H	 0.9645991132	-2.7251499935	 1.1730140562	 0.101232
H	-1.171191255	-1.5929944576	-0.5925449455	 0.113584
H	-1.1341310985	-1.5201224368	 1.1829200214	 0.103383
239.2709	368.7922	425.5311	434.766	661.3905	705.8507	721.7143	788.6474	819.1491	849.6837	860.0829	875.0861	890.6986	931.6808	945.3814	969.0342	1011.6954	1013.8284	1026.789	1079.3655	1105.1218	1125.2542	1159.0806	1168.8969	1194.43	1203.6471	1229.8949	1235.0607	1264.2259	1270.4232	1289.1122	1330.6764	1338.3818	1475.7701	1490.905	1499.0551	3034.4649	3056.1238	3057.3728	3067.4098	3088.9608	3100.0017	3105.7797	3118.9704	3124.6092
C1C2C3C4CCC13N24	C1[C@H]2[C@@H]3[C@H]4CC[C@@]13N24	
InChI=1S/C7H9N/c1-2-7-3-5-6(7)4(1)8(5)7/h4-6H,1-3H2	InChI=1S/C7H9N/c1-2-7-3-5-6(7)4(1)8(5)7/h4-6H,1-3H2/t4-,5+,6+,7-/m1/s1
