13
gdb 27724	3.01403	1.28108	0.89898	4.8651	70.68	-0.2061	-0.0052	0.2009	1172.2688	0.089916	-452.794294	-452.786132	-452.785188	-452.82693	30.118	
O	 0.0368669211	 1.3285483854	 0.2249328602	-0.42385
C	 0.058046558	-0.0005839206	 0.0113275154	 0.418247
C	 0.0960687329	-0.7544550197	-1.1494497854	-0.384152
C	 0.1018189944	-2.1060632411	-0.7338163605	 0.303134
O	 0.1355830016	-3.1506558849	-1.5848800944	-0.429762
C	 0.0675229641	-2.1463633792	 0.6564849461	 0.078132
N	 0.0407378445	-0.8122792901	 1.0905256952	-0.380853
C	 0.0595833553	-3.257749367	 1.5044269538	 0.166538
N	 0.0543267299	-4.212131771	 2.1697651807	-0.376676
H	 0.0524786331	 1.7816907182	-0.6241302145	 0.31761
H	 0.1171154352	-0.3915711511	-2.163805771	 0.114415
H	 0.1327229542	-3.9724061995	-1.0785058793	 0.31324
H	 0.0131350558	-0.5035227993	 2.0467056136	 0.283977
123.4108	127.5963	219.4931	258.0935	299.0026	314.9478	385.1735	427.98	441.098	523.4804	540.3934	591.1314	657.7422	675.0155	682.1602	749.761	817.3434	1037.6806	1122.44	1182.7285	1201.6753	1257.577	1259.6593	1398.769	1491.2764	1561.9329	1598.7901	1630.6338	2303.8527	3266.1789	3688.1016	3790.7348	3842.907
OC1=CC(O)=C(N1)C#N	Oc1cc(O)c([nH]1)C#N	
InChI=1S/C5H4N2O2/c6-2-3-4(8)1-5(9)7-3/h1,7-9H	InChI=1S/C5H4N2O2/c6-2-3-4(8)1-5(9)7-3/h1,7-9H
