20
gdb 70317	2.9703	1.52822	1.24832	1.2135	77.26	-0.2243	0.0767	0.301	1065.3264	0.17199	-403.108933	-403.101137	-403.100193	-403.140869	31.473	
C	 0.0192574385	 1.501160927	 0.041081393	-0.455156
C	-0.0789654641	-0.0100855819	-0.0076094146	 0.346854
C	-0.8699770279	-0.7396967669	 1.0215333012	-0.296002
N	 0.5924108521	-0.7030490388	 1.1058305014	-0.12379
C	 1.3340106559	-1.9322114302	 0.7577924272	-0.20238
C	 2.2013941308	-1.7148936525	-0.473804926	 0.053929
O	 1.8286223383	-2.437482212	-1.6546921883	-0.252285
C	 1.5546988233	-1.0344551756	-1.606077674	 0.050708
C	 0.0992065442	-0.6300632591	-1.4000798656	-0.331773
H	 0.9607262732	 1.847667109	-0.4011003543	 0.116078
H	-0.8033120543	 1.9636751727	-0.5165261618	 0.113246
H	-0.0159077972	 1.8549240473	 1.0741547995	 0.126187
H	-1.40065532	-0.1996288849	 1.8027200102	 0.109338
H	-1.3379662356	-1.6788274893	 0.7267422605	 0.106011
H	 1.9493051572	-2.2034232682	 1.6210695696	 0.110468
H	 0.6652426456	-2.7786182697	 0.5502420406	 0.110785
H	 3.2756198588	-1.6220589041	-0.3277696276	 0.096333
H	 2.1582498318	-0.4387479926	-2.2885880516	 0.094619
H	-0.5150411504	-1.5272862183	-1.5144858299	 0.12037
H	-0.2204297301	 0.0800924381	-2.1676116696	 0.10646
106.3773	188.5375	219.9033	293.1476	344.0305	393.3773	447.5264	463.424	479.2844	495.0235	630.4402	734.2019	783.2416	826.7283	849.0016	896.6603	901.9811	937.5365	966.4322	992.4256	1012.6268	1029.5679	1081.2991	1097.2536	1109.3079	1125.7793	1151.3729	1165.5771	1203.179	1243.6705	1270.58	1283.3127	1330.7159	1352.9268	1374.2013	1392.6434	1414.2515	1452.8666	1476.1579	1487.5215	1494.1501	1496.1922	1520.8612	3009.3919	3025.6814	3059.5374	3071.0892	3081.3837	3085.7977	3102.9148	3121.1121	3122.8047	3135.1718	3164.8671
CC12CN1CC1OC1C2	C[C@]12CN1C[C@H]1O[C@H]1C2	
InChI=1S/C7H11NO/c1-7-2-5-6(9-5)3-8(7)4-7/h5-6H,2-4H2,1H3	InChI=1S/C7H11NO/c1-7-2-5-6(9-5)3-8(7)4-7/h5-6H,2-4H2,1H3/t5-,6+,7-,8?/m0/s1
