19
gdb 55458	3.23255	1.18715	0.92595	2.829	72.35	-0.2413	-0.0184	0.223	1262.53	0.158542	-460.176717	-460.167898	-460.166954	-460.211287	32.37	
C	-0.9582814383	 0.4222556526	 0.4945978962	-0.472502
C	 0.3440804385	 0.3797490392	-0.26882392	 0.352171
O	 1.3087060391	 1.0481100129	 0.0270238642	-0.30692
C	 0.43071823	-0.5529147937	-1.4789436398	 0.00861
C	 1.7153343406	-1.3900543253	-1.4480994419	-0.086305
O	 1.7629500328	-2.2610750274	-2.5641322031	-0.25079
C	 0.6253135165	-3.1074834745	-2.6017668415	-0.078202
C	-0.6538164388	-2.2794578315	-2.6439379471	-0.082477
O	-0.7103814144	-1.3950360626	-1.5313629221	-0.267736
H	-0.8829646603	 1.1507416092	 1.3023109469	 0.136477
H	-1.7834614298	 0.6768694776	-0.178440289	 0.147561
H	-1.1892357847	-0.5709706136	 0.8924353853	 0.151467
H	 0.4629351146	 0.0854039346	-2.3802461903	 0.101508
H	 2.5893705536	-0.7396096896	-1.4961026734	 0.134859
H	 1.7511962909	-1.9660180479	-0.5087818267	 0.09393
H	 0.7188712536	-3.7280270926	-3.4979391274	 0.112035
H	 0.6084196048	-3.7644283676	-1.7165329589	 0.095283
H	-0.6915041545	-1.7048243733	-3.5832919809	 0.099527
H	-1.5407231542	-2.9172146565	-2.5851728205	 0.111503
25.1477	119.1752	148.6882	185.5621	255.7366	302.05	350.5751	424.7472	457.7933	466.4461	530.696	587.5909	609.7874	816.777	871.816	897.6301	915.6101	954.7384	990.7375	1051.2599	1078.2837	1101.4013	1133.5206	1146.169	1149.3469	1218.8881	1250.9554	1280.2173	1302.9856	1321.4851	1363.519	1378.0481	1381.6931	1405.5988	1419.3335	1453.4703	1463.057	1479.7773	1485.9877	1493.63	1808.0059	2949.4629	2972.3474	2978.9254	2986.1927	3047.1853	3089.5438	3090.3395	3109.2515	3131.3532	3159.3868
CC(=O)C1COCCO1	CC(=O)[C@H]1COCCO1	
InChI=1S/C6H10O3/c1-5(7)6-4-8-2-3-9-6/h6H,2-4H2,1H3	InChI=1S/C6H10O3/c1-5(7)6-4-8-2-3-9-6/h6H,2-4H2,1H3/t6-/m1/s1
