20
gdb 22912	3.1796	1.1417	0.93329	0.9588	78.79	-0.2458	0.0045	0.2503	1296.2147	0.169662	-440.257724	-440.248327	-440.247383	-440.291694	35.253	
C	-0.2740047933	 1.4445114494	-0.0655876155	-0.414873
C	 0.083841069	-0.0241535692	 0.0611745366	 0.133496
O	 0.9085849261	-0.3952757509	-1.048887545	-0.269427
C	 1.4789412871	-1.6594160773	-0.7526013871	-0.15657
C	 1.5354008965	-1.7223070499	 0.7576154015	 0.361253
N	 2.0085143949	-2.6447675055	 1.490419608	-0.224987
O	 2.5494789616	-3.6784574423	 0.6980009601	-0.39771
C	 0.892780204	-0.4673365181	 1.3085307193	-0.100342
C	 1.9569840183	 0.5415250039	 1.7711638071	-0.399603
H	 0.6212853472	 2.0707288362	-0.0740355165	 0.128786
H	-0.8175663499	 1.614404048	-0.9988618453	 0.128649
H	-0.9139020192	 1.7567653569	 0.7655762116	 0.11723
H	-0.8432323933	-0.6236338139	 0.0325510953	 0.067898
H	 0.8663360507	-2.4892982519	-1.141266228	 0.117254
H	 2.4669154258	-1.7317507584	-1.2176756444	 0.13432
H	 2.8570366228	-4.3053398505	 1.3610848698	 0.307157
H	 0.2295796366	-0.7069411998	 2.1444316494	 0.092057
H	 2.6122960477	 0.8298992607	 0.9435052356	 0.128711
H	 1.4958472532	 1.4478185389	 2.1747833801	 0.116248
H	 2.5753917944	 0.0932931738	 2.5530804073	 0.130453
66.6671	168.3702	173.4434	202.9477	224.5135	246.3107	279.8863	327.8728	347.0653	417.0348	451.2209	541.9509	576.5507	664.7014	692.5095	778.9004	826.6313	879.1406	968.2586	981.0123	1002.4647	1023.0914	1067.878	1070.3358	1117.3422	1142.1505	1168.8879	1217.9462	1233.4406	1260.035	1331.8259	1340.5032	1369.2825	1385.5314	1399.8454	1409.4208	1417.5722	1481.2259	1490.1083	1493.8684	1500.6438	1507.7971	1767.4633	2942.1535	2977.0378	3040.1886	3047.9629	3070.9114	3077.1943	3113.0059	3118.4165	3120.8783	3130.7151	3820.9036
CC1OCC(=NO)C1C	C[C@H]1OCC(=NO)[C@H]1C	
InChI=1S/C6H11NO2/c1-4-5(2)9-3-6(4)7-8/h4-5,8H,3H2,1-2H3	InChI=1S/C6H11NO2/c1-4-5(2)9-3-6(4)7-8/h4-5,8H,3H2,1-2H3/t4-,5+/m0/s1
