17
gdb 32338	4.55633	1.02803	0.8901	2.7184	82.06	-0.2256	-0.0664	0.1592	1312.3058	0.13667	-418.03522	-418.027014	-418.026069	-418.068471	30.531	
C	-0.1596026955	 1.6543475161	 0.1400120173	-0.371778
C	-0.0021358128	 0.1481882174	-0.1196095148	-0.271176
C	-1.3163941728	-0.581439658	-0.1132060779	 0.244906
C	-1.8226844759	-1.2022535629	-1.1913672797	-0.019485
O	-3.016789766	-1.8546238255	-1.1800196599	-0.223761
C	-3.7605887559	-1.8904845318	-0.0146877007	 0.357963
N	-4.8817335951	-2.4789784993	 0.0595999817	-0.524108
C	-3.1534295525	-1.1984468843	 1.1244342737	-0.022261
N	-2.0242595151	-0.5877941625	 1.093872619	-0.269485
H	 0.8174875142	 2.1433340632	 0.1939050319	 0.114846
H	-0.7373084807	 2.1320351032	-0.6578273282	 0.115732
H	-0.6820918759	 1.8245451508	 1.0851806237	 0.14054
H	 0.5026071519	-0.0209954169	-1.0771286909	 0.101544
H	 0.6385290256	-0.2853201689	 0.6584197426	 0.118958
H	-1.3484399486	-1.2536364285	-2.1632627094	 0.137326
H	-5.1359386614	-2.9013832044	-0.8343329928	 0.227463
H	-3.7264704134	-1.2248227176	 2.0482484944	 0.142775
69.5501	86.4027	183.04	214.6646	323.7904	362.3301	382.0356	420.0503	498.2091	561.1042	625.1002	745.7901	763.8489	792.4934	814.5482	863.8618	872.8326	944.2089	964.58	975.0809	1060.9216	1081.5073	1097.7715	1176.2749	1256.0519	1280.3883	1305.4479	1346.8085	1365.3249	1393.1491	1405.5779	1477.032	1495.808	1509.3184	1615.5566	1686.1329	1729.1128	3029.1462	3040.3977	3071.3123	3110.5276	3124.1735	3167.2599	3218.288	3484.4417
CCC1=COC(=N)C=N1	CCC1=COC(=C[N]1)[NH]	
InChI=1S/C6H8N2O/c1-2-5-4-9-6(7)3-8-5/h3-4,7H,2H2,1H3	InChI=1S/C6H8N2O/c1-2-5-4-9-6(7)3-8-5/h3-4,7H,2H2,1H3
