21
gdb 82314	2.4841	1.72011	1.26777	2.4833	80.93	-0.2257	0.0659	0.2916	1067.992	0.184777	-383.226394	-383.218419	-383.217474	-383.258483	32.289	
C	-0.7952176224	 1.1334712868	-0.0348989417	-0.414228
C	 0.0247499346	-0.1542355844	-0.1116912138	-0.060827
C	 1.0881421212	-0.1690692119	-1.2018484186	-0.022873
C	 2.3765451623	 0.5208095058	-0.9300589435	-0.251843
N	 2.2745565153	-0.9382120232	-0.7695358142	-0.106765
C	 2.022216336	-1.3502443154	 0.6229085031	-0.217968
C	 0.8320325071	-0.5359539954	 1.1388152638	 0.31234
C	 0.9072009466	 0.3165588959	 2.3536257751	-0.290082
N	 0.1943998148	-0.9759215956	 2.3812903128	-0.377707
H	-0.1527084349	 2.0081571453	 0.1023204983	 0.123241
H	-1.3704505413	 1.2797278399	-0.9544521849	 0.120227
H	-1.5133158024	 1.1037139911	 0.7933555493	 0.109964
H	-0.663561151	-0.9875673793	-0.3198645687	 0.083625
H	 0.7638326191	-0.3196203973	-2.2282426061	 0.087732
H	 3.0017128828	 0.8400282977	-1.7587736678	 0.113927
H	 2.4563101725	 1.1396065125	-0.0393308468	 0.115401
H	 1.7657786367	-2.4156948244	 0.6193336862	 0.114518
H	 2.9222646636	-1.2254900766	 1.2325824128	 0.108018
H	 1.824914114	 0.3414356897	 2.9365352437	 0.114887
H	 0.3251165127	 1.2327335929	 2.3926066634	 0.110959
H	-0.8102084175	-0.8132521641	 2.3362905576	 0.227452
98.7211	203.883	242.9119	269.0015	289.2865	362.9143	380.2233	420.4923	500.6728	563.879	632.1288	734.145	761.8855	836.9431	859.7426	874.8495	906.7824	936.9809	975.2895	999.2335	1002.2513	1032.9165	1055.0131	1061.5168	1079.2614	1110.469	1129.8932	1144.4447	1146.4312	1169.8119	1224.1549	1263.0193	1269.9664	1290.3361	1316.6002	1331.5426	1365.9189	1391.7558	1395.0184	1417.5803	1492.6149	1495.479	1499.9465	1505.2262	1515.7427	2987.9352	3027.3748	3040.3898	3087.0729	3090.2776	3104.2309	3107.4575	3111.7185	3139.4853	3189.0264	3192.2716	3473.5637
CC1C2CN2CC11CN1	C[C@H]1[C@H]2CN2C[C@]21CN2	
InChI=1S/C7H12N2/c1-5-6-2-9(6)4-7(5)3-8-7/h5-6,8H,2-4H2,1H3	InChI=1S/C7H12N2/c1-5-6-2-9(6)4-7(5)3-8-7/h5-6,8H,2-4H2,1H3/t5-,6+,7-,9?/m0/s1
