14
gdb 25971	5.01015	1.01739	0.97331	2.9215	64.08	-0.2434	-0.0124	0.231	1209.8119	0.100149	-473.878636	-473.870559	-473.869615	-473.912834	27.806	
C	-0.2060470546	 1.4445300738	-0.0277962149	-0.486083
C	 0.3009966184	 0.030660335	-0.0548091909	 0.404655
O	 1.2449389767	-0.4212576465	 0.5170362932	-0.298979
O	-0.5203267627	-0.736246155	-0.8804842211	-0.28244
C	-0.2229529636	-2.0481170362	-1.0038360807	 0.425285
C	 0.2816208812	-2.7967979078	-2.0088586453	-0.203742
N	 0.279651366	-4.1284989607	-1.6057967569	-0.253647
C	-0.2124237483	-4.1022435199	-0.4125964508	 0.088342
O	-0.5535592721	-2.8659832606	 0.0332671554	-0.167241
H	 0.4550665322	 2.0544591177	 0.5857889657	 0.158527
H	-0.2561511318	 1.8435575162	-1.0445159809	 0.160923
H	-1.2209152309	 1.4644795438	 0.379694667	 0.163536
H	 0.6399322072	-2.4816746474	-2.9743302383	 0.134555
H	-0.3845313378	-4.9228172223	 0.2652705885	 0.156311
50.2959	72.1049	97.7447	114.1941	325.3431	346.7011	431.9846	588.6798	592.2873	655.8639	669.9259	775.7485	824.0449	845.5518	882.0389	935.5894	995.1515	1021.12	1063.3622	1120.0556	1127.1775	1197.2919	1248.1216	1270.4048	1359.5183	1396.529	1467.3623	1472.7449	1553.7737	1656.056	1880.4686	3060.439	3125.7543	3175.8207	3278.3583	3282.7961
CC(=O)OC1=CN=CO1	CC(=O)Oc1cnco1	
InChI=1S/C5H5NO3/c1-4(7)9-5-2-6-3-8-5/h2-3H,1H3	InChI=1S/C5H5NO3/c1-4(7)9-5-2-6-3-8-5/h2-3H,1H3
