19
gdb 116278	2.46707	1.33086	1.03965	3.1311	72.03	-0.247	-0.0304	0.2166	1216.6186	0.157725	-460.168591	-460.159282	-460.158338	-460.203765	32.533	
C	-0.0260145725	 1.5648754112	-0.0788730806	-0.384648
C	 0.0420667089	 0.0414859651	 0.0650605675	-0.215889
C	-1.334090814	-0.6066097905	 0.0090372776	 0.104108
O	-1.9015918069	-0.4152967627	-1.2812620577	-0.254907
C	-2.9146070939	-1.3795624949	-1.4291169548	 0.025518
O	-2.6373276951	-2.4440017351	-0.5272855305	-0.252661
C	-1.432919703	-2.1485527786	 0.1423216801	-0.009583
C	-0.243711767	-2.8708188511	-0.4808186731	 0.145599
O	-0.2585748322	-3.3810195172	-1.568239838	-0.23665
H	 0.9744675222	 2.0049844686	-0.0430789612	 0.117285
H	-0.4890637471	 1.8410797526	-1.0294669533	 0.142344
H	-0.6180731923	 2.0115562195	 0.727445214	 0.116198
H	 0.6642595374	-0.3792240213	-0.7328885749	 0.122222
H	 0.5137334734	-0.2245742687	 1.0192937061	 0.103107
H	-1.9870075376	-0.1620682384	 0.7795283882	 0.077809
H	-3.9044447288	-0.9679727481	-1.1759091963	 0.097038
H	-2.9022559269	-1.7348333494	-2.4655097213	 0.124858
H	-1.5177098203	-2.4562215483	 1.1925020422	 0.102751
H	 0.6664653455	-2.8910555927	 0.163237526	 0.075502
53.1565	77.8517	112.1476	124.6513	187.0044	236.1857	269.6179	296.9394	394.5372	476.8679	644.945	716.2445	775.2311	787.2988	823.8839	904.8113	957.3887	973.0589	1006.1134	1013.4368	1077.8514	1084.2641	1130.4888	1150.5257	1160.2159	1174.7095	1218.0325	1251.7057	1302.2035	1304.3254	1353.1921	1372.8613	1410.3942	1410.5023	1417.693	1440.2668	1474.5162	1498.6519	1508.3607	1547.6482	1843.1381	2858.405	2955.4691	2977.5524	3029.8497	3036.5974	3040.2052	3062.9712	3073.3104	3108.1875	3127.9827
CCC1OCOC1C=O	CC[C@H]1OCO[C@H]1C=O	
InChI=1S/C6H10O3/c1-2-5-6(3-7)9-4-8-5/h3,5-6H,2,4H2,1H3	InChI=1S/C6H10O3/c1-2-5-6(3-7)9-4-8-5/h3,5-6H,2,4H2,1H3/t5-,6+/m1/s1
