19
gdb 100852	2.01967	1.26928	0.84357	3.6117	79.55	-0.2465	-0.0244	0.222	1383.5214	0.154229	-422.989438	-422.978674	-422.977729	-423.025857	37.466	
C	 0.0407866986	 1.4064495505	 0.0780278348	-0.240378
O	-0.101723392	 0.0157082977	-0.1138422442	-0.245984
C	 0.6995333844	-0.5357283929	-1.1470142915	 0.126973
C	 2.1744977992	-0.6428976427	-0.7656831965	-0.413778
C	 0.0592846283	-1.9140699385	-1.4308725539	-0.245788
C	-1.4462202813	-1.7269663669	-1.6848431259	 0.175454
O	-2.3070786051	-2.3528967894	-1.134772866	-0.240945
C	 0.6438547406	-2.5634824411	-2.5967071403	 0.294487
C	 1.0857194636	-3.0758407607	-3.590770858	-0.450409
H	 1.0304901975	 1.6771732148	 0.4708149387	 0.113731
H	-0.1263129317	 1.9626770409	-0.8571313877	 0.108134
H	-0.716121227	 1.7052770673	 0.8066940399	 0.137087
H	 0.5998699101	 0.0814962344	-2.056252605	 0.077839
H	 2.6153868303	 0.3452715033	-0.609410466	 0.120889
H	 2.28462978	-1.220701936	 0.1572605332	 0.128797
H	 2.7353810299	-1.1399814151	-1.5612929528	 0.138369
H	 0.1581540091	-2.5471148435	-0.5419447084	 0.128957
H	-1.6726410203	-0.963759187	-2.462327356	 0.082382
H	 1.4857624556	-3.5453181751	-4.4554719245	 0.204183
59.213	80.8834	87.0157	124.0787	177.4343	188.4212	208.8203	253.4661	292.1469	360.2695	411.772	439.6895	479.3156	505.5105	580.3433	644.3027	647.154	859.2368	913.5827	931.822	1006.8091	1059.325	1078.3184	1114.7304	1130.2175	1168.9883	1181.3365	1219.8081	1248.927	1282.2472	1371.9906	1376.047	1405.9571	1416.588	1477.4971	1484.6976	1492.1051	1503.7034	1511.1809	1849.3671	2231.518	2883.3002	2960.6234	2984.6455	3038.2359	3047.1701	3058.8858	3118.5261	3120.8413	3128.2367	3502.2782
COC(C)C(C=O)C#C	CO[C@@H](C)[C@@H](C=O)C#C	
InChI=1S/C7H10O2/c1-4-7(5-8)6(2)9-3/h1,5-7H,2-3H3	InChI=1S/C7H10O2/c1-4-7(5-8)6(2)9-3/h1,5-7H,2-3H3/t6-,7+/m0/s1
