12
gdb 33279	3.48323	0.84086	0.70897	3.9375	83.88	-0.2687	-0.0588	0.2098	1488.5126	0.074655	-398.267519	-398.258994	-398.25805	-398.301302	30.268	
C	 0.0541797338	-3.7456198411	-0.0515872655	-0.552444
C	 0.0360967746	-2.539058904	-0.0231266569	 0.290744
C	 0.0153431525	-1.1808112883	 0.0095531742	-0.178374
C	 0.0028706695	 0.0281786842	 0.0416664876	 0.406979
C	-0.031536125	 1.4635311451	 0.0751426019	 0.047857
C	 0.5445215295	 2.2151511017	 1.2253911088	-0.196042
O	 1.2275076775	 2.1540152665	-0.0134819386	-0.231643
C	-1.1166124243	 2.0838291508	-0.6696839462	 0.229203
N	-1.9876191122	 2.5720014839	-1.2503822451	-0.320201
H	 0.0696308227	-4.8075363232	-0.0795269501	 0.206306
H	 0.1114039167	 3.1792672423	 1.4841535155	 0.15085
H	 0.9795842247	 1.638676442	 2.0388094143	 0.146765
65.026	98.4824	173.7891	231.335	236.5769	257.7321	435.6075	463.1988	500.8344	528.9088	543.414	590.1092	602.3723	613.9048	627.414	825.1219	856.2312	930.8789	1042.5291	1137.0051	1170.5928	1275.789	1338.5782	1511.4396	2187.3601	2363.4952	2365.6645	3096.8768	3199.6906	3499.8247
C#CC#CC1(CO1)C#N	C#CC#C[C@]1(CO1)C#N	
InChI=1S/C7H3NO/c1-2-3-4-7(5-8)6-9-7/h1H,6H2	InChI=1S/C7H3NO/c1-2-3-4-7(5-8)6-9-7/h1H,6H2/t7-/m1/s1
