17
gdb 35215	3.52104	1.17437	1.01505	4.8683	78.2	-0.2543	0.0123	0.2666	1176.8465	0.137216	-380.869317	-380.861411	-380.860467	-380.903304	29.67	
N	-0.1929127533	-1.1447014178	 0.163170865	-0.3421
C	-0.1117092414	 0.0086752552	 0.1462148718	 0.339982
C	 0.0019430236	 1.4449671702	 0.0724407433	-0.253881
N	 0.7030605738	 2.1178165574	 1.1872463534	-0.346289
C	 1.3276914337	 2.1168178758	-0.1340501847	 0.331019
C	 2.63462449	 1.3282118834	-0.3018293177	-0.325777
C	 3.429319568	 2.1848915334	-1.2527460276	-0.058604
C	 2.7810825803	 3.2887455619	-1.6197839695	-0.064238
C	 1.4178412567	 3.3970410933	-0.9843031524	-0.349189
H	-0.869601335	 1.9304934693	-0.3595637988	 0.12665
H	 0.2468455022	 3.0084568971	 1.3752423649	 0.239695
H	 3.130056736	 1.1992020162	 0.6676775945	 0.130962
H	 2.4587446234	 0.3196708216	-0.6960366702	 0.134552
H	 4.4232898478	 1.9067292232	-1.5837668754	 0.102689
H	 3.1624283333	 4.047111364	-2.2935959885	 0.10075
H	 0.6146650659	 3.4591469587	-1.7297386496	 0.119015
H	 1.3289204151	 4.296271057	-0.3576191584	 0.114764
16.1899	122.1133	147.3892	309.0548	371.0273	381.2444	395.1297	474.6055	570.8178	612.301	698.1832	772.8282	785.2999	814.9296	902.854	936.4561	956.763	962.6041	984.5157	985.3873	1023.3897	1031.206	1072.6682	1134.2326	1169.4755	1203.0086	1208.4083	1255.4	1282.4999	1302.4513	1354.6756	1380.3339	1439.6658	1477.3579	1483.299	1693.4608	2357.6214	3001.4511	3030.852	3035.6559	3061.268	3140.6335	3189.7204	3213.8566	3488.7241
N#CC1NC11CC=CC1	N#C[C@H]1N[C@]21CC=CC2	
InChI=1S/C7H8N2/c8-5-6-7(9-6)3-1-2-4-7/h1-2,6,9H,3-4H2	InChI=1S/C7H8N2/c8-5-6-7(9-6)3-1-2-4-7/h1-2,6,9H,3-4H2/t6-/m1/s1
