17
gdb 124796	4.15325	0.99688	0.84103	4.3107	70.68	-0.228	0.031	0.2589	1333.555	0.135822	-455.164292	-455.155186	-455.154241	-455.198512	33.419	
C	 0.0687197226	 1.3913853947	-0.4382687328	-0.382489
C	-0.0153422747	 0.0384996779	 0.2768164522	 0.061097
O	 0.3148711383	 0.2127545964	 1.6409411345	-0.446316
C	-1.3740937634	-0.6000866245	 0.1262964627	 0.36045
N	-2.0604665308	-0.9045459166	 1.2190688766	-0.328308
N	-3.2112943203	-1.4647684922	 0.7612932428	-0.263055
C	-3.2494007514	-1.5117219999	-0.5874471671	 0.479228
O	-4.336895878	-2.0425447503	-1.1827329343	-0.427525
C	-2.073262756	-0.9607280539	-1.0534533893	-0.471171
H	 1.0617306561	 1.8227968352	-0.2854873495	 0.123117
H	-0.1015148107	 1.2831224389	-1.5143872743	 0.103315
H	-0.676572803	 2.0803341031	-0.0305518185	 0.121155
H	 0.7256578345	-0.6367639841	-0.1847506866	 0.077806
H	-0.3984483102	-0.190448758	 2.154044938	 0.294239
H	-3.9162843015	-1.7839815806	 1.4032102698	 0.279649
H	-4.2174525532	-2.0057713187	-2.13676472	 0.315803
H	-1.7683446083	-0.8412575174	-2.080188944	 0.103005
38.1997	126.1516	186.6577	237.7984	248.0275	268.2285	304.1589	349.541	383.1808	439.024	495.8444	499.3565	654.7237	686.4597	719.6989	746.8391	767.0352	911.2218	990.2753	1039.6612	1055.6142	1101.1526	1128.2687	1167.6755	1172.5593	1195.6524	1286.5071	1347.4755	1368.8388	1396.4412	1427.4156	1446.6213	1476.6911	1492.7985	1511.7969	1571.4259	1626.5125	2947.925	3038.485	3113.0386	3123.5771	3261.4189	3682.4078	3740.6596	3845.9727
CC(O)C1=NNC(O)=C1	C[C@@H](O)c1n[nH]c(O)c1	
InChI=1S/C5H8N2O2/c1-3(8)4-2-5(9)7-6-4/h2-3,8H,1H3,(H2,6,7,9)	InChI=1S/C5H8N2O2/c1-3(8)4-2-5(9)7-6-4/h2-3,8H,1H3,(H2,6,7,9)/t3-/m1/s1
