21
gdb 68607	2.2791	1.83747	1.48476	1.3087	82.15	-0.2483	0.0755	0.3238	1015.0352	0.183856	-387.066993	-387.059017	-387.058073	-387.098799	32.879	
O	-0.1213291857	 1.3804214594	 0.0122625624	-0.492665
C	-0.0228929126	-0.0079658155	-0.0233817906	 0.341869
C	 0.3640744676	-0.8218274109	-1.3048967682	-0.289055
C	-0.4115182806	-1.9481720642	-0.5584440621	-0.121237
C	 0.4998249494	-2.205492616	 0.665583958	-0.209966
C	 0.7935680835	-0.7249619229	 1.0751055339	-0.272955
C	-1.3205277797	-0.8239673565	-0.0333143407	 0.429855
C	-2.481848732	-0.8068945168	 0.9013772539	-0.376039
C	-2.6408924853	-0.3682059952	-0.5496971453	-0.363676
H	 0.7551351943	 1.747465887	 0.1670339588	 0.279637
H	-0.1620466318	-0.4575572518	-2.1882905404	 0.104211
H	 1.4256863862	-0.9855801385	-1.5170675896	 0.076901
H	-0.8145708458	-2.8121588641	-1.085373246	 0.062523
H	-0.0143837914	-2.7602974823	 1.4548622583	 0.09891
H	 1.4061506394	-2.7564194569	 0.3977878017	 0.093931
H	 1.8590151366	-0.4725558079	 1.0280799637	 0.083531
H	 0.4255714234	-0.4758904685	 2.0742165751	 0.101321
H	-2.9284441968	-1.7511553168	 1.1978413386	 0.106741
H	-2.5159125161	-0.0357652351	 1.6651002674	 0.114887
H	-2.7718566526	 0.6919813671	-0.741080518	 0.12451
H	-3.19610673	-1.0194663336	-1.2179141609	 0.106766
171.2377	195.5545	210.2443	230.8427	269.3444	375.2552	411.2859	432.4174	575.8022	601.6693	611.5663	690.8443	783.3784	806.3054	840.2125	863.8818	890.1785	920.1434	939.1337	957.5829	967.2909	978.5222	999.3761	1048.067	1056.2381	1080.6075	1086.1348	1118.201	1132.6148	1174.202	1183.3999	1200.5476	1224.429	1237.1165	1251.718	1263.4773	1306.5516	1318.4856	1348.8275	1434.3534	1459.7213	1487.8201	1488.7214	1506.3448	1524.8454	3036.2439	3047.5689	3055.8858	3085.8566	3104.7836	3118.6874	3121.5014	3122.9311	3132.3871	3197.3384	3212.1713	3813.5949
OC12CC(CC1)C21CC1	O[C@@]12C[C@@H](CC1)C12CC1	
InChI=1S/C8H12O/c9-8-2-1-6(5-8)7(8)3-4-7/h6,9H,1-5H2	InChI=1S/C8H12O/c9-8-2-1-6(5-8)7(8)3-4-7/h6,9H,1-5H2/t6-,8-/m1/s1
