18
gdb 41774	3.51586	1.54525	1.12235	1.793	80.28	-0.2164	-0.005	0.2114	1069.3059	0.151949	-398.166732	-398.159399	-398.158455	-398.198841	27.866	
C	-0.0137647259	 1.4348309692	-0.0041933259	-0.175274
C	 1.4830134324	 1.8436489277	 0.1576982488	-0.204694
N	 2.0890623617	 0.5398626924	 0.429167306	-0.105061
C	 3.414161507	 0.2360535944	 0.6717985865	 0.079966
N	 3.858083135	-0.9127093722	 1.0005120512	-0.262746
C	 2.8470850544	-1.9543428197	 1.1886016818	-0.165611
C	 1.645260265	-1.8538421579	 0.227765225	-0.324832
C	 1.1291463221	-0.4490365609	 0.204193921	 0.400568
N	-0.050643609	-0.0397031919	-0.0511084566	-0.330048
H	-0.6210679435	 1.7854341714	 0.8383399009	 0.118184
H	-0.4569665549	 1.8495934964	-0.9139221847	 0.118937
H	 1.8969913355	 2.2873539157	-0.7562077527	 0.118332
H	 1.6506251214	 2.5402744501	 0.9836477856	 0.123439
H	 4.1003575813	 1.076925978	 0.5700225392	 0.115108
H	 3.3284063658	-2.9301459951	 1.0792638416	 0.11295
H	 2.4888221581	-1.8976222889	 2.227639114	 0.114327
H	 1.9715633247	-2.1082824416	-0.789338264	 0.13248
H	 0.8433636288	-2.5456709871	 0.4939105124	 0.133976
97.6018	122.4707	160.5174	261.8077	379.0262	440.3431	536.6342	560.6678	612.8042	696.5481	761.7721	807.4165	849.216	881.5971	928.092	944.9941	950.955	983.6462	1030.045	1071.1947	1108.0177	1152.9334	1198.3439	1211.4153	1244.4589	1250.744	1275.1582	1304.2866	1325.4612	1339.22	1372.6081	1402.0384	1434.5533	1466.1971	1490.3514	1499.8537	1526.1111	1707.7943	1731.985	2997.7595	3021.5897	3031.1329	3038.1308	3075.0212	3080.2494	3090.4223	3113.6363	3131.2195
C1CN2C=NCCC2=N1	C1CN2C=NCCC2=N1	
InChI=1S/C6H9N3/c1-2-7-5-9-4-3-8-6(1)9/h5H,1-4H2	InChI=1S/C6H9N3/c1-2-7-5-9-4-3-8-6(1)9/h5H,1-4H2
