16
gdb 18058	3.60306	2.26903	1.65567	2.3391	60.1	-0.2536	0.0754	0.329	786.8122	0.132622	-420.847525	-420.841139	-420.840194	-420.878243	24.315	
C	 0.0733411804	 1.5396655156	 0.168402938	-0.08306
O	 1.4861377255	 1.517697881	-0.1323596465	-0.288162
C	 1.4148992718	 0.1335518246	-0.529720574	 0.107973
C	 2.4810937431	-0.7564402114	 0.0823667773	-0.122481
O	 2.2031914795	-1.0763923907	 1.436801413	-0.223002
C	 0.9015237589	-1.5684239939	 1.5696114831	 0.016687
O	-0.0714562301	-0.5768995007	 1.3522887696	-0.254135
C	-0.0146787299	 0.0094932756	 0.0637243985	 0.052749
H	-0.1374828788	 1.9427963806	 1.1628045855	 0.121836
H	-0.4990963608	 2.0838932745	-0.5940010709	 0.097775
H	 1.4320251135	 0.0396869267	-1.6253069119	 0.074484
H	 2.5589970304	-1.6822564183	-0.5127481007	 0.091695
H	 3.4480452208	-0.2462154223	 0.061975052	 0.130184
H	 0.7466936697	-2.4199029225	 0.8789982218	 0.073445
H	 0.7785697453	-1.8966094334	 2.6031074496	 0.122969
H	-0.7896093892	-0.4158148555	-0.5840140445	 0.081042
107.2022	159.2872	310.6619	382.4001	411.4936	466.7132	568.3015	724.8913	798.484	831.2246	873.1341	899.0359	950.4989	1003.7444	1014.0088	1040.4487	1066.3279	1089.4507	1128.8642	1151.7617	1180.8609	1211.384	1257.318	1273.7563	1294.7958	1330.0445	1354.467	1362.7416	1372.2652	1404.3056	1446.2367	1476.3429	1506.4183	1512.2092	2916.8664	2965.6043	2999.1055	3016.5661	3042.8696	3096.1939	3097.0687	3118.8252
C1OC2COCOC12	C1O[C@H]2COCO[C@@H]12	
InChI=1S/C5H8O3/c1-4-5(2-7-4)8-3-6-1/h4-5H,1-3H2	InChI=1S/C5H8O3/c1-4-5(2-7-4)8-3-6-1/h4-5H,1-3H2/t4-,5-/m0/s1
