19
gdb 124841	3.29104	1.40135	1.25943	2.9815	82.04	-0.2307	0.038	0.2687	1084.6509	0.160441	-382.071187	-382.062997	-382.062053	-382.103889	31.524	
C	-0.2824078191	 1.6391238674	-0.2168280474	-0.428429
C	-0.0166369228	 0.1468297841	-0.0624239673	 0.305252
C	-1.2482810315	-0.6278362018	 0.3895587919	-0.428427
C	 0.8125446863	-0.524183327	-1.2506921689	-0.440594
C	 1.916265914	-0.7194385882	-0.2219414936	 0.375134
C	 3.1258246022	-1.0837159483	 0.3432970808	-0.390167
C	 2.9719228772	-0.6576732609	 1.6916633977	 0.009497
N	 1.7831099153	-0.0818101987	 1.9507303935	-0.322356
N	 1.194309703	-0.1516706594	 0.7507530418	 0.083158
H	 0.6201618493	 2.1676212567	-0.5352012123	 0.129838
H	-1.0676901694	 1.8092909039	-0.9602360523	 0.123147
H	-0.6140105476	 2.0695381751	 0.7330469062	 0.13794
H	-2.0574110125	-0.5117455017	-0.3385285401	 0.123138
H	-1.0248679432	-1.6927271797	 0.496351415	 0.129824
H	-1.6029480752	-0.2540287261	 1.3549382592	 0.137974
H	 0.3638074891	-1.4374557352	-1.6494403559	 0.123024
H	 1.0424588041	 0.1552133124	-2.0753007811	 0.123024
H	 3.9798998838	-1.5665461626	-0.1007837105	 0.102159
H	 3.6930743771	-0.7511402501	 2.4913640132	 0.106863
62.4071	168.825	214.1777	226.9811	292.2615	317.5987	336.6669	432.0706	523.9661	619.9955	646.195	682.444	704.5586	780.079	831.6929	870.5614	910.5162	942.9085	956.2369	981.0188	1019.7098	1041.8766	1067.0227	1089.7699	1170.3714	1190.6486	1218.8666	1246.4041	1266.0107	1294.653	1339.3633	1402.9138	1405.874	1419.0195	1473.402	1477.0732	1483.7934	1496.0735	1507.1106	1512.5547	1562.7698	3037.4007	3042.154	3063.3154	3109.1898	3112.9232	3115.4239	3120.0713	3121.3545	3238.6381	3278.434
CC1(C)CC2=CC=NN12	CC1(C)Cc2ccnn12	
InChI=1S/C7H10N2/c1-7(2)5-6-3-4-8-9(6)7/h3-4H,5H2,1-2H3	InChI=1S/C7H10N2/c1-7(2)5-6-3-4-8-9(6)7/h3-4H,5H2,1-2H3
