21
gdb 84101	2.5306	1.48782	1.09653	1.2602	84.55	-0.2197	0.0253	0.245	1190.3278	0.181478	-387.095076	-387.085851	-387.084907	-387.128265	35.915	
C	-0.1659589484	 1.5851085175	 0.0780189213	-0.38814
C	 0.020410025	 0.0621230575	 0.0091253352	-0.034807
C	 0.80546302	-0.4148876714	-1.2005300905	-0.188488
C	 1.8127595261	-1.2351308808	-0.8872919748	 0.260318
C	 2.7713179292	-1.9279969302	-1.8014664147	-0.511493
C	 1.9046194236	-1.4025806334	 0.6057034587	 0.309585
O	 2.1926593741	-2.66484574	 1.1308986013	-0.469338
C	 2.2617350008	-0.1485674638	 1.3706758637	-0.350875
C	 0.8060280168	-0.541732907	 1.1763855751	-0.096221
H	 0.7978028153	 2.1012494442	 0.1283612186	 0.114751
H	-0.6978697412	 1.9544157451	-0.8053730383	 0.110042
H	-0.7476309081	 1.868265326	 0.9611820286	 0.113295
H	-0.9830453388	-0.3894866982	-0.0122989653	 0.080709
H	 0.5643759026	-0.0852935729	-2.2066316594	 0.083165
H	 2.5344251779	-1.7432914167	-2.8522552379	 0.123678
H	 3.8041839135	-1.5998076505	-1.6223955161	 0.11872
H	 2.7508399563	-3.0102490518	-1.6274798769	 0.13496
H	 3.1479587007	-2.7383481131	 1.2252436749	 0.282937
H	 2.6448212498	-0.287013214	 2.3773406631	 0.106989
H	 2.6793610496	 0.6948792457	 0.8302816994	 0.109462
H	 0.2740342654	-0.870278552	 2.0611822842	 0.090751
140.8443	154.474	181.4179	226.2118	232.8993	244.2959	255.2912	323.0517	407.079	437.549	499.7266	553.5476	608.6288	665.2331	696.2836	795.6729	837.4747	873.5836	908.4586	943.4399	959.3397	983.6066	1019.2549	1042.6104	1054.7486	1065.4511	1077.9228	1112.3961	1127.1887	1151.4817	1231.6715	1245.8389	1308.3186	1326.3656	1343.8118	1358.3952	1390.0137	1407.8581	1409.6181	1472.3678	1477.1036	1492.4939	1496.3986	1498.6231	1711.6631	2984.0386	3014.9616	3031.874	3067.2232	3097.7896	3106.486	3115.7083	3117.9453	3175.6668	3182.6993	3209.2879	3806.0745
CC1C=C(C)C2(O)CC12	C[C@H]1C=C(C)[C@@]2(O)C[C@@H]12	
InChI=1S/C8H12O/c1-5-3-6(2)8(9)4-7(5)8/h3,5,7,9H,4H2,1-2H3	InChI=1S/C8H12O/c1-5-3-6(2)8(9)4-7(5)8/h3,5,7,9H,4H2,1-2H3/t5-,7-,8-/m0/s1
