17
gdb 88145	2.57483	1.52742	1.14199	4.1136	68.63	-0.2637	0.0127	0.2764	1079.4293	0.136434	-458.993052	-458.984902	-458.983958	-459.025951	30.444	
O	-0.1754335762	 1.4128193753	-0.1602022567	-0.419414
C	-0.0901065903	 0.0258459988	-0.0482651906	 0.064959
C	-0.442265814	-0.6480074109	 1.2425421641	-0.376122
C	-1.4169802971	-0.6976964275	 0.0873219809	 0.157302
C	-2.7538535438	 0.0078427541	 0.0279238434	-0.33839
C	-3.4119001394	-0.6830947377	-1.1828128043	-0.085017
O	-2.7578528231	-1.9586633077	-1.3351875976	-0.228987
C	-1.5701515349	-1.976626016	-0.6748584997	 0.414547
O	-0.8027274422	-2.8969351073	-0.7387362462	-0.365731
H	 0.554712654	 1.7998598566	 0.3340407803	 0.296171
H	 0.6550844022	-0.4532044332	-0.6816409073	 0.115269
H	 0.063267216	-1.5753945634	 1.4900050791	 0.142495
H	-0.7156899431	-0.0102806262	 2.0768185194	 0.11998
H	-3.3337597891	-0.1724750011	 0.9386720044	 0.116745
H	-2.6553404493	 1.0855408636	-0.1107954943	 0.137141
H	-4.4788173114	-0.8728210205	-1.0512505722	 0.125194
H	-3.2665316782	-0.1140841067	-2.1074727427	 0.12386
83.338	153.8447	180.8539	215.1288	236.2346	272.0994	400.4637	461.8058	521.8337	579.1956	699.289	729.4965	735.7427	820.6887	850.5887	907.0573	925.1441	972.3836	1035.9341	1044.441	1057.4541	1083.6439	1114.5624	1138.6905	1186.4768	1213.5793	1238.7751	1260.9296	1292.3225	1320.2916	1349.5297	1403.4592	1414.6369	1470.2832	1498.5715	1525.144	1865.522	3047.6768	3054.5215	3111.4056	3119.8482	3126.359	3129.7404	3227.7827	3810.6353
OC1CC11CCOC1=O	O[C@H]1C[C@]21CCOC2=O	
InChI=1S/C6H8O3/c7-4-3-6(4)1-2-9-5(6)8/h4,7H,1-3H2	InChI=1S/C6H8O3/c7-4-3-6(4)1-2-9-5(6)8/h4,7H,1-3H2/t4-,6-/m0/s1
