16
gdb 44329	3.1755	1.86483	1.51094	2.7377	72.04	-0.2252	-0.0346	0.1906	879.6043	0.126869	-400.754013	-400.747693	-400.746749	-400.784642	25.955	
O	 0.0172727411	 0.0620136557	 0.2344146932	-0.301541
C	-0.0125327622	 1.2424143953	 0.0344273501	 0.419952
C	-1.266345558	 2.1338943546	-0.0985952428	-0.367956
C	-0.7485512705	 3.3949428515	-0.7491951223	-0.031715
C	 0.2031464414	 4.3329696505	-0.0618062709	-0.073981
C	 0.7110285466	 4.002389305	 1.2948423242	-0.077242
C	 1.3374707681	 2.8237697201	 1.2741147541	-0.09124
C	 1.1963597856	 2.2013769395	-0.103753078	-0.174649
N	 0.721411365	 3.294151068	-0.9930348954	-0.11884
H	-2.014736642	 1.6335296597	-0.7178219507	 0.139107
H	-1.7029882317	 2.2718831797	 0.8951937377	 0.143511
H	-1.3088460012	 3.7855382463	-1.594147256	 0.101154
H	 0.247389799	 5.3611546009	-0.4128764362	 0.096967
H	 0.5931805065	 4.6533671929	 2.1517156624	 0.112003
H	 1.7693695699	 2.2967866303	 2.1157919264	 0.120171
H	 2.0824580724	 1.69673182	-0.4916803059	 0.104298
105.9449	268.7253	326.9708	434.8911	489.6835	569.6219	613.6197	693.8306	730.4696	745.4015	771.1272	774.7121	810.4779	862.7285	916.679	937.639	945.3972	972.4224	1027.9258	1035.9951	1089.5273	1103.6196	1123.4278	1124.9953	1173.7019	1219.2359	1231.4099	1266.3206	1276.5001	1324.7072	1375.8048	1384.1519	1451.0556	1652.9934	1861.055	3066.386	3101.8534	3111.7047	3134.326	3146.0247	3206.1979	3229.8504
O=C1CC2C3C=CC1N23	O=C1C[C@H]2[C@H]3C=C[C@@H]1N23	
InChI=1S/C7H7NO/c9-7-3-6-4-1-2-5(7)8(4)6/h1-2,4-6H,3H2	InChI=1S/C7H7NO/c9-7-3-6-4-1-2-5(7)8(4)6/h1-2,4-6H,3H2/t4-,5+,6+,8?/m1/s1
