15
gdb 43909	2.81513	1.49566	1.1529	4.1609	72.18	-0.2694	0.0011	0.2705	1052.9548	0.111707	-420.602247	-420.594587	-420.593642	-420.634532	29.198	
O	-0.1478891567	 0.1518786919	 0.6128833862	-0.320079
C	-0.0288665133	 1.2381669971	 0.1478283551	 0.448754
O	-1.0295180806	 2.0523141672	-0.3400757993	-0.278376
C	-0.0699056843	 3.1102945197	-0.7088162558	 0.272437
C	 0.0902444143	 4.1350819775	 0.4465423727	-0.282786
C	 1.2330610619	 3.2680409684	 1.0561162817	-0.236365
C	 1.0850652306	 2.2420000159	-0.1107213278	-0.289069
C	-0.1939848786	 3.538575782	-2.0725420049	 0.237521
C	-0.273070657	 3.9248111369	-3.207887002	-0.394034
H	 0.4229412492	 5.1140541855	 0.0987217838	 0.127783
H	-0.8155764267	 4.2510164893	 1.0432454507	 0.131544
H	 2.2014252221	 3.7695513445	 1.0426366927	 0.125362
H	 1.0650241076	 2.8614358948	 2.0545221209	 0.131761
H	 1.9662087226	 1.9082539109	-0.6530151795	 0.120179
H	-0.3526369612	 4.2583923884	-4.2134735845	 0.205368
94.0514	143.5745	183.0268	220.2175	364.2178	435.173	492.7497	498.2131	576.1096	633.3623	664.1656	679.7614	735.0042	755.0836	821.3272	869.4044	908.533	950.8291	981.8569	1031.7229	1062.9909	1098.5457	1128.2628	1172.8668	1213.0682	1227.1897	1255.4864	1285.2159	1304.767	1466.1626	1491.8207	1939.2981	2241.8171	3083.2166	3087.6161	3132.041	3149.8315	3156.2765	3498.996
O=C1OC2(CCC12)C#C	O=C1O[C@]2(CC[C@@H]12)C#C	
InChI=1S/C7H6O2/c1-2-7-4-3-5(7)6(8)9-7/h1,5H,3-4H2	InChI=1S/C7H6O2/c1-2-7-4-3-5(7)6(8)9-7/h1,5H,3-4H2/t5-,7-/m0/s1
