16
gdb 99559	2.34711	1.21374	0.95898	4.4984	71.52	-0.2886	0.009	0.2975	1249.6525	0.120919	-437.837633	-437.827669	-437.826725	-437.872887	34.781	
C	 0.0502731448	 1.3285098213	-0.2756086887	-0.242805
O	 0.0049848122	-0.0381225661	 0.0988017799	-0.248245
C	-1.2841297709	-0.6217100287	 0.0627719198	-0.115692
C	-1.8275733322	-0.7192907042	-1.2949062924	 0.338636
C	-2.2797880881	-0.7879528438	-2.4056719644	-0.430236
C	-1.0854532769	-2.0268392832	 0.689732279	-0.027521
O	-0.0711557279	-2.7385232868	 0.0344272885	-0.404992
C	-0.8090835228	-1.8822073616	 2.1391423196	 0.271881
N	-0.601781388	-1.7779659817	 3.2706330431	-0.318553
H	 1.092098238	 1.6416274814	-0.1887930032	 0.141604
H	-0.2905283932	 1.4720444882	-1.3083117392	 0.130458
H	-0.5674108067	 1.9417717517	 0.3951878318	 0.121187
H	-1.9814791286	-0.0477449633	 0.6936461791	 0.119467
H	-2.6798677321	-0.8557368022	-3.3877696355	 0.21001
H	-2.0104356768	-2.5998333038	 0.5749079834	 0.14909
H	 0.6734318791	-2.1278946972	-0.0561458909	 0.305709
64.2695	88.5278	123.5031	159.9102	184.0885	199.7403	241.2196	292.4265	346.5079	401.0104	454.5311	489.7706	577.6806	592.1802	645.5915	689.9524	732.4222	881.6637	921.8496	1013.4208	1016.8468	1101.9362	1148.6791	1183.6449	1203.5072	1279.45	1293.9992	1344.8382	1363.129	1433.7997	1480.2227	1485.5319	1508.6461	2236.7236	2359.1637	2983.4102	3003.382	3067.9536	3082.206	3136.1398	3499.172	3764.5394
COC(C#C)C(O)C#N	CO[C@@H](C#C)[C@@H](O)C#N	
InChI=1S/C6H7NO2/c1-3-6(9-2)5(8)4-7/h1,5-6,8H,2H3	InChI=1S/C6H7NO2/c1-3-6(9-2)5(8)4-7/h1,5-6,8H,2H3/t5-,6-/m0/s1
