15
gdb 37102	2.23313	2.0654	1.3255	1.4625	65.02	-0.256	0.0504	0.3064	952.0204	0.110651	-457.653885	-457.646623	-457.645679	-457.685683	27.816	
C	-0.0038195154	 1.5226246402	 0.0974049465	-0.260967
O	 1.1556392486	 0.6937052944	-0.1084639799	-0.261292
C	-0.1014773206	 0.0702961472	-0.0026436669	 0.375275
C	-0.4266261099	-0.9952311682	 1.0431555261	-0.105755
O	-1.8317981554	-1.2518547099	 0.9015771113	-0.239265
C	-0.9298455646	-1.9109546003	 0.0001926481	-0.105745
C	-0.6270479185	-0.8862907742	-1.0921272061	 0.375268
C	-1.2142736206	-0.6805139893	-2.4118319543	-0.260968
O	 0.1254309922	-1.1813811049	-2.244030061	-0.26129
H	-0.0691342126	 2.0038050958	 1.0718718111	 0.125285
H	-0.2835322123	 2.1430139117	-0.7523192461	 0.122799
H	 0.0476493201	-1.1927823116	 1.9964387532	 0.124288
H	-0.941347148	-2.9924887663	-0.0533313052	 0.124287
H	-1.9371135663	-1.3960241106	-2.8003339987	 0.125283
H	-1.2821140366	 0.3254606759	-2.8223991981	 0.122797
101.3597	179.8598	212.6478	263.5127	336.2885	380.7024	514.9588	578.2914	610.1658	613.6213	827.3745	852.9909	868.2303	870.9254	906.4776	911.5236	973.1655	998.3464	998.569	1031.0959	1113.9554	1118.856	1120.8482	1148.7962	1153.4792	1173.8705	1216.8418	1233.9102	1354.1717	1428.3871	1464.5429	1530.178	1546.5602	3087.3169	3088.2985	3176.1272	3177.9861	3196.0822	3209.7777
C1OC11C2OC2C11CO1	C1O[C@]21[C@H]1O[C@H]1[C@]12CO1	
InChI=1S/C6H6O3/c1-5(7-1)3-4(9-3)6(5)2-8-6/h3-4H,1-2H2	InChI=1S/C6H6O3/c1-5(7-1)3-4(9-3)6(5)2-8-6/h3-4H,1-2H2/t3-,4+,5+,6-
