17
gdb 35472	3.93127	1.22742	1.02708	1.5222	80.29	-0.2397	0.0033	0.243	1157.8335	0.135606	-384.632024	-384.624244	-384.6233	-384.66432	30.601	
C	 0.0407901577	-1.1915451397	 0.1489045949	-0.436705
C	 0.0035913558	 0.0069312106	 0.0870111587	 0.304976
C	-0.0141040496	 1.4636210018	-0.0295735055	-0.076737
O	-0.7369451184	 1.9814073528	 1.0934178256	-0.271551
C	-0.7413539003	 3.3792508109	 1.1876911551	 0.101738
C	 0.0647465528	 3.9737000329	 2.3094740497	-0.302454
C	 0.5339597809	 4.1050960378	 0.8654350166	-0.099348
C	 1.6367390701	 3.2681677693	 0.3341017693	-0.098284
C	 1.3931764333	 2.0381067761	-0.1104815222	-0.074391
H	 0.0648340324	-2.251435814	 0.2121099221	 0.199282
H	-0.5547959219	 1.7248507252	-0.9567922756	 0.110156
H	-1.6949410029	 3.8324452965	 0.9231220184	 0.09107
H	-0.309537194	 4.8611075205	 2.8082675597	 0.113034
H	 0.5909002767	 3.2673585496	 2.9408378922	 0.129615
H	 0.44426299	 5.0952122988	 0.4268231236	 0.099235
H	 2.638715881	 3.6873250102	 0.3003311426	 0.099654
H	 2.1645092064	 1.4036408107	-0.5319790953	 0.110709
76.9006	148.9436	202.816	256.2985	377.4173	436.2559	470.3131	498.5714	547.9781	612.4439	623.8338	674.2615	712.0115	771.1535	822.8604	837.559	864.461	933.1293	984.8304	999.788	1012.8016	1046.802	1057.4018	1082.7241	1100.6831	1123.4433	1173.5131	1189.8451	1232.687	1288.113	1331.1359	1355.3431	1398.5926	1414.7044	1473.931	1708.8735	2246.932	2938.4001	3115.2594	3136.8338	3143.184	3161.1611	3201.2558	3234.3762	3504.1788
C#CC1OC2CC2C=C1	C#C[C@H]1O[C@H]2C[C@H]2C=C1	
InChI=1S/C8H8O/c1-2-7-4-3-6-5-8(6)9-7/h1,3-4,6-8H,5H2	InChI=1S/C8H8O/c1-2-7-4-3-6-5-8(6)9-7/h1,3-4,6-8H,5H2/t6-,7-,8+/m1/s1
