17
gdb 126956	6.42944	0.79784	0.71784	1.0818	71.7	-0.1973	0.0484	0.2457	1544.5698	0.137567	-451.358862	-451.349983	-451.349039	-451.392882	32.27	
C	-0.0430394945	 1.479434114	-0.0557194995	-0.399906
C	-0.0460500268	-0.0358203315	 0.1151816155	-0.102731
N	-1.3933803587	-0.564896706	-0.0396376355	-0.384608
C	-1.5954664415	-1.9209411919	-0.0095307682	 0.454214
N	-0.6231848633	-2.8066527102	-0.1669914647	-0.324319
N	-1.3325346961	-3.9950472321	-0.1238055159	-0.267516
C	-2.6303719258	-3.7332819401	 0.0681743699	 0.462205
O	-3.532597309	-4.7163905067	 0.1584163867	-0.422075
N	-2.8593898311	-2.4420202748	 0.1486328077	-0.445789
H	 0.971751205	 1.8736181877	 0.0471515005	 0.121239
H	-0.4281460619	 1.7624313279	-1.039755269	 0.128434
H	-0.6652920249	 1.965579434	 0.7050212006	 0.113018
H	 0.583664516	-0.5077795668	-0.6451987057	 0.131892
H	 0.3883616911	-0.3118920982	 1.0893900037	 0.097333
H	-2.1242624474	-0.0506643985	 0.4300669072	 0.240548
H	-0.8652101113	-4.8793634902	-0.2146465001	 0.279417
H	-4.3908994899	-4.2920033666	 0.2825239867	 0.318642
57.8839	95.2956	129.9909	239.6734	270.0556	319.2742	340.717	352.7235	411.5239	441.1616	503.0935	537.442	716.7049	730.0075	774.4494	804.4539	825.2746	929.2311	1010.6119	1075.1009	1090.7528	1141.5083	1154.2201	1183.853	1200.2129	1280.9594	1307.3897	1358.7143	1402.0689	1418.2068	1486.4167	1497.2055	1501.5672	1526.5756	1571.6418	1622.547	1656.9741	2976.2662	3033.3136	3074.2927	3103.3401	3121.3222	3607.5955	3696.2172	3806.9762
CCNC1=NNC(O)=N1	CCNc1n[nH]c(O)n1	
InChI=1S/C4H8N4O/c1-2-5-3-6-4(9)8-7-3/h2H2,1H3,(H3,5,6,7,8,9)	InChI=1S/C4H8N4O/c1-2-5-3-6-4(9)8-7-3/h2H2,1H3,(H3,5,6,7,8,9)
