16
gdb 44787	2.44943	2.23769	1.60342	3.7514	68.78	-0.248	0.0059	0.2539	863.0718	0.125885	-437.794134	-437.787597	-437.786653	-437.824692	27.047	
O	 0.1180227439	 0.0876645368	 0.0476328111	-0.37567
C	 0.0643665941	 1.2885530112	 0.0626626929	 0.424812
N	-1.0605001437	 2.1073235643	 0.1687016282	-0.303327
C	-0.4968020198	 3.4318370359	-0.06827568	-0.096803
C	 0.7097772229	 3.4072164039	 0.9949070637	-0.309648
C	 1.2262435255	 2.3188469708	-0.0371928053	 0.062027
C	 2.1638467518	 1.8226585794	-1.1660139818	-0.184623
O	 1.1450829894	 2.3094357638	-2.1395058475	-0.314444
C	 0.7006261714	 3.2329247999	-1.0953026981	 0.140717
H	-1.9134399869	 1.8128717067	-0.2854753577	 0.25714
H	-1.2273936818	 4.2383018372	-0.1080124044	 0.093831
H	 1.3049594837	 4.3193819854	 1.0190587325	 0.125579
H	 0.4308852227	 3.0825507129	 1.9983716604	 0.13071
H	 3.1032236737	 2.3684497276	-1.2930976784	 0.114371
H	 2.2981818445	 0.7422089126	-1.235426787	 0.147156
H	 1.2423869187	 4.1784545816	-1.2143503386	 0.088171
179.871	243.7782	311.2666	392.4014	436.5831	481.741	519.7155	623.8214	667.7378	707.5367	743.3948	794.3704	822.3926	839.4298	881.8562	909.3111	979.621	993.5829	1008.1438	1028.9607	1054.7955	1112.2644	1127.5745	1138.032	1172.28	1193.3262	1195.739	1252.7104	1277.6946	1322.1429	1369.7652	1392.2762	1489.545	1493.5001	1870.0046	3033.2389	3058.2859	3086.8921	3136.7833	3142.3778	3162.6756	3609.758
O=C1NC2CC11COC21	O=C1N[C@H]2C[C@]31CO[C@@H]23	
InChI=1S/C6H7NO2/c8-5-6-1-3(7-5)4(6)9-2-6/h3-4H,1-2H2,(H,7,8)	InChI=1S/C6H7NO2/c8-5-6-1-3(7-5)4(6)9-2-6/h3-4H,1-2H2,(H,7,8)/t3-,4-,6-/m0/s1
