19
gdb 113028	3.51713	1.01824	0.85567	1.5822	84.	-0.2449	0.0073	0.2522	1389.3656	0.157492	-385.85985	-385.850668	-385.849724	-385.89431	34.066	
C	 0.1223564828	 1.5249022043	-0.1253764321	-0.381318
C	 0.0861947708	-0.0050283073	-0.1203248495	-0.178065
C	-1.302211841	-0.5641934953	 0.2088991951	 0.091574
O	-2.2528472617	-0.1147803532	-0.7696208408	-0.276524
C	-2.9913266269	-1.2175516117	-1.3022235074	-0.097124
C	-2.3373291939	-2.4424114615	-0.6964692813	-0.099471
C	-1.401503538	-2.0649209978	 0.1627561262	-0.100491
C	-4.4205282923	-1.1213923782	-0.9785231658	 0.337814
C	-5.5937582963	-1.057880456	-0.726342509	-0.474354
H	 1.1209370957	 1.8945009371	-0.3766715403	 0.109365
H	-0.5861003638	 1.9222088391	-0.8567149919	 0.137687
H	-0.1474354751	 1.9292665656	 0.8567772956	 0.112577
H	 0.3930227839	-0.3975221369	-1.0970675012	 0.100024
H	 0.7960462606	-0.3976261053	 0.6194924446	 0.091762
H	-1.6062967788	-0.1828104844	 1.1994198223	 0.084542
H	-2.8868681296	-1.2043386318	-2.3983814543	 0.113092
H	-2.6494721318	-3.4480036266	-0.9436647622	 0.119003
H	-0.7762953842	-2.7119005694	 0.7652734484	 0.110641
H	-6.6296136806	-0.9943950407	-0.5007009966	 0.199265
51.8634	104.6632	108.7563	189.7702	214.7032	243.6129	328.7042	410.4771	454.9138	514.1929	554.0794	618.2231	667.1478	722.8957	748.5454	786.9124	825.2608	876.6651	910.6486	943.1929	958.6791	991.3781	1025.3645	1042.7919	1079.9808	1116.1031	1137.8199	1143.7966	1272.8436	1285.7563	1307.959	1335.5372	1349.1825	1371.3102	1392.922	1408.7147	1476.1208	1496.152	1508.8441	1694.0774	2233.3833	2947.9979	2977.5833	3022.8858	3036.3742	3064.5777	3102.1802	3124.4048	3209.7423	3238.4725	3502.6528
CCC1OC(C=C1)C#C	CC[C@H]1O[C@@H](C=C1)C#C	
InChI=1S/C8H10O/c1-3-7-5-6-8(4-2)9-7/h1,5-8H,4H2,2H3	InChI=1S/C8H10O/c1-3-7-5-6-8(4-2)9-7/h1,5-8H,4H2,2H3/t7-,8-/m1/s1
