14
gdb 17226	5.45874	1.70232	1.5509	4.6477	66.5	-0.2414	0.0152	0.2567	808.3272	0.109479	-341.522979	-341.516979	-341.516035	-341.553004	23.676	
N	 0.0995617741	-1.0843830755	-0.0837697206	-0.349642
C	 0.0416862493	 0.0707442491	-0.0279045407	 0.167832
C	-0.0397469054	 1.4896144552	 0.0413639829	 0.218451
C	-1.1336477386	 2.3522781541	 0.6788704294	-0.257177
C	-0.4540189639	 3.529975245	-0.0569875635	-0.063066
N	 0.8607692055	 3.630676264	 0.6780851914	-0.320637
C	 1.2201474083	 2.3902801391	-0.0366391447	-0.063767
C	 0.172417481	 2.5035745104	-1.0929734225	-0.135739
H	-2.1120087127	 2.1101318763	 0.259279972	 0.120846
H	-1.1753882911	 2.4188608271	 1.7683093571	 0.123123
H	-0.9800779766	 4.4552339909	-0.2755391024	 0.093731
H	 1.3964125875	 4.3814886459	 0.2420307483	 0.225044
H	 2.2141646681	 1.9632583202	-0.0559778536	 0.122354
H	 0.1468316446	 2.3572572381	-2.1643610132	 0.118646
159.1588	167.4982	417.1005	477.3162	520.663	545.4052	573.7449	712.7585	746.2792	789.4737	842.5324	893.2117	915.7305	955.2516	965.0146	1000.2678	1019.4964	1030.8392	1089.2812	1132.6894	1140.4516	1171.93	1181.4324	1224.4659	1266.5722	1294.1372	1351.9816	1388.8004	1489.9957	2345.1563	3070.7877	3135.9636	3160.9856	3204.5541	3218.5255	3456.3573
N#CC12CC3NC1C23	N#C[C@@]12C[C@H]3N[C@@H]1[C@@H]23	
InChI=1S/C6H6N2/c7-2-6-1-3-4(6)5(6)8-3/h3-5,8H,1H2	InChI=1S/C6H6N2/c7-2-6-1-3-4(6)5(6)8-3/h3-5,8H,1H2/t3-,4+,5-,6-/m1/s1
