18
gdb 69568	2.8854	1.47428	1.17367	3.5806	78.43	-0.2297	-0.0136	0.2161	1102.3107	0.146684	-401.909014	-401.900569	-401.899625	-401.941916	32.023	
C	-0.0795354019	 1.5538157275	 0.0560265584	-0.510347
C	 0.1203521757	 0.0727845616	 0.0047744785	 0.208431
N	-0.779270204	-0.8941175975	 0.7303146749	-0.367768
C	 0.6732452044	-0.9290981169	 0.9869360692	-0.257763
C	 1.2618736568	-1.7747815347	-0.1289595015	 0.294159
C	 2.6235798574	-2.4140411865	-0.2283104786	-0.333109
C	 1.3829768712	-3.2621726898	-0.2865702687	-0.308455
C	 0.7401022456	-0.7495922198	-1.1238706112	 0.346417
O	 0.9107891993	-0.5632050637	-2.2953540399	-0.325427
H	 0.7996502395	 2.0778317476	-0.3313793769	 0.13981
H	-0.9395668821	 1.8529766966	-0.5526118485	 0.144072
H	-0.2559464662	 1.8939887462	 1.0822461468	 0.120075
H	-1.2127290174	-0.345715554	 1.4764006943	 0.229889
H	 1.0969577403	-0.7341929056	 1.9641113607	 0.108252
H	 3.1755651234	-2.2412347013	-1.146299775	 0.135673
H	 3.229107513	-2.4472940194	 0.6713854771	 0.120145
H	 1.1368461542	-3.8761404238	 0.5729977177	 0.123044
H	 1.0921361906	-3.6798991364	-1.2446038574	 0.1329
92.3532	166.0233	179.8084	197.9031	216.8178	276.6306	313.6393	446.2738	523.5833	537.6087	653.0099	746.5422	755.8999	786.8134	809.9085	866.9838	917.882	923.1811	940.6998	965.3613	1009.2135	1022.2537	1047.5732	1060.9803	1080.9631	1106.6185	1126.2381	1192.7796	1212.2048	1276.019	1310.4221	1401.9154	1405.0193	1431.4346	1459.2105	1479.3963	1495.1335	1497.6688	1881.7342	3031.1825	3096.9397	3105.7229	3129.7256	3133.7271	3198.3363	3212.6943	3227.1943	3437.498
CC12NC1C1(CC1)C2=O	C[C@]12N[C@H]1C1(CC1)C2=O	
InChI=1S/C7H9NO/c1-6-4(8-6)7(2-3-7)5(6)9/h4,8H,2-3H2,1H3	InChI=1S/C7H9NO/c1-6-4(8-6)7(2-3-7)5(6)9/h4,8H,2-3H2,1H3/t4-,6+/m1/s1
