16
gdb 8013	3.5618	1.92521	1.5411	2.2543	64.74	-0.2459	-0.0282	0.2177	852.2667	0.129125	-383.729194	-383.721861	-383.720916	-383.760771	27.676	
C	-0.1486318042	 1.5366231598	 0.1721797932	-0.474117
C	 0.0634001142	 0.050890287	 0.0634521071	 0.442983
C	-1.1622325228	-0.9065401395	 0.0371295948	-0.397985
C	-0.4266506857	-1.8061178831	 1.0523217638	 0.413694
O	-0.7135938291	-2.8181728526	 1.6220998309	-0.296602
C	 0.7866228361	-0.8700120807	 1.1131936794	-0.263311
C	 1.7844523881	-1.123882356	-0.0399728959	-0.091843
O	 1.0242512995	-0.3132252913	-0.9590909046	-0.322478
H	 0.8007987333	 2.0545099271	 0.3348074939	 0.128235
H	-0.5906197469	 1.9214705142	-0.7534366288	 0.135838
H	-0.82570852	 1.7757493434	 0.9982575793	 0.12151
H	-2.0749256046	-0.4811467625	 0.4694951862	 0.131756
H	-1.3963544137	-1.3501690041	-0.9334910837	 0.138733
H	 1.1765558879	-0.5729016445	 2.0860789613	 0.100778
H	 2.7777425791	-0.6970564955	 0.1424319928	 0.114214
H	 1.8960712389	-2.1602348617	-0.3783373696	 0.118595
76.8727	196.0989	209.7929	274.6226	330.0396	378.2529	446.4433	521.0002	598.405	639.6058	719.5604	827.5942	874.1005	904.4261	932.3335	954.1955	994.5327	1028.1305	1057.2861	1106.3191	1108.1529	1158.647	1167.3555	1199.9669	1207.6174	1242.9536	1320.0488	1344.9785	1412.4084	1417.6616	1479.0162	1489.9432	1526.7491	1891.3993	3021.9908	3035.3758	3051.6233	3068.2113	3104.477	3115.6049	3119.7449	3125.6238
CC12CC(=O)C1CO2	C[C@]12CC(=O)[C@H]1CO2	
InChI=1S/C6H8O2/c1-6-2-5(7)4(6)3-8-6/h4H,2-3H2,1H3	InChI=1S/C6H8O2/c1-6-2-5(7)4(6)3-8-6/h4H,2-3H2,1H3/t4-,6+/m1/s1
