15
gdb 50184	2.15428	1.90708	1.32106	4.12	69.01	-0.2568	-0.038	0.2188	971.1309	0.112222	-416.769799	-416.76192	-416.760976	-416.802756	28.391	
O	-0.467675654	 0.5711925348	 0.7216393754	-0.236262
C	 0.0649537608	 1.0576904142	-0.241307249	 0.14989
C	 1.2353144606	 2.0097389381	-0.1590630327	-0.123397
C	 1.2311985231	 3.3984890175	-0.8722591203	-0.203867
N	 1.6036002056	 4.1008703478	 0.4122014002	-0.137239
C	 0.4912471936	 3.8588908214	 1.367714068	-0.157221
C	-0.8816511985	 3.8155129471	 0.9326403248	 0.319049
N	-1.977291599	 3.8215481232	 0.562067628	-0.341447
C	 1.4798331052	 2.7742898705	 1.1339133283	-0.032484
H	-0.2610833655	 0.8093889007	-1.2764602842	 0.08794
H	 2.1263353016	 1.4479043987	-0.4627092316	 0.127588
H	 2.0326158326	 3.52649956	-1.5991255397	 0.131386
H	 0.2859413991	 3.7366411949	-1.3041151833	 0.145255
H	 0.633382909	 4.4219225243	 2.2855801493	 0.149867
H	 2.1616585758	 2.4844053667	 1.9257357568	 0.120943
78.764	105.4788	144.0221	185.1053	267.5945	377.5958	404.8697	534.831	589.9142	691.6295	707.0281	764.518	769.2073	881.1815	913.736	920.3337	977.2055	1016.825	1046.4622	1065.6862	1093.1431	1125.3727	1180.8959	1218.4771	1229.429	1287.9274	1329.7425	1357.7564	1402.6354	1418.1713	1502.2122	1827.428	2352.9138	2881.0463	3050.3865	3076.9823	3143.4228	3160.3136	3179.3525
O=CC1CN2C(C#N)C12	O=C[C@H]1CN2[C@@H](C#N)[C@@H]12	
InChI=1S/C6H6N2O/c7-1-5-6-4(3-9)2-8(5)6/h3-6H,2H2	InChI=1S/C6H6N2O/c7-1-5-6-4(3-9)2-8(5)6/h3-6H,2H2/t4-,5+,6-,8?/m1/s1
