17
gdb 50241	3.57104	1.35461	1.2495	5.6443	73.45	-0.2341	0.0299	0.264	1032.5771	0.137613	-417.950788	-417.943612	-417.942668	-417.982921	27.801	
O	 0.0083440671	 0.0580769514	-0.2599096717	-0.328886
C	 0.0636730169	 1.2594315705	-0.1022718171	 0.141387
N	 1.1956731314	 1.9528323489	 0.1647575871	-0.019915
C	 2.5962354849	 1.5113401731	 0.0477650863	-0.190713
C	 3.0132358975	 3.0116369758	-0.0068154215	-0.056903
C	 3.0475341482	 3.7010301393	-1.3921798969	-0.057485
N	 2.0597867198	 3.0178312544	-2.2521442574	-0.322751
C	 1.5982505017	 4.0526335782	-1.3043372642	-0.063733
C	 1.5035975408	 3.3828971807	 0.0974543887	-0.030879
H	-0.8262147395	 1.9236477756	-0.1334368279	 0.059118
H	 2.9488829538	 0.9695499723	 0.9305354336	 0.114639
H	 2.7888042077	 0.9271046334	-0.8543573593	 0.139676
H	 3.7308204199	 3.3759616892	 0.7244840027	 0.088533
H	 3.8756290257	 4.2484463167	-1.8248849877	 0.100078
H	 2.1032263975	 3.4477918966	-3.1746685981	 0.23868
H	 1.0584519163	 4.9254879571	-1.6509694101	 0.09918
H	 1.0982391704	 4.0090443368	 0.8944024134	 0.089977
52.1631	178.1501	223.0661	313.2511	324.3229	453.2259	497.3699	632.9327	722.618	751.676	803.2347	811.5749	835.374	887.9974	903.8465	941.7565	946.3044	991.06	1008.9225	1033.9565	1048.7386	1096.2658	1121.7439	1138.7439	1160.6841	1189.4133	1205.2489	1223.9382	1271.2332	1309.758	1318.3057	1333.708	1374.107	1388.2581	1436.983	1493.789	1795.6909	2906.0907	3053.3119	3093.3248	3118.1674	3146.0197	3182.7508	3196.8175	3489.3861
O=CN1CC2C3NC3C12	O=CN1C[C@H]2[C@H]3N[C@H]3[C@@H]12	
InChI=1S/C6H8N2O/c9-2-8-1-3-4-5(7-4)6(3)8/h2-7H,1H2	InChI=1S/C6H8N2O/c9-2-8-1-3-4-5(7-4)6(3)8/h2-7H,1H2/t3-,4+,5+,6-/m0/s1
