18
gdb 63736	2.76498	1.29376	1.16827	2.7614	73.97	-0.2282	-0.0364	0.1919	1141.0358	0.145375	-439.059374	-439.050156	-439.049212	-439.093723	34.032	
C	-0.5596164545	 1.5125919902	 0.1479924846	-0.449636
C	 0.0072110436	 0.1122823648	-0.0311916728	 0.289916
O	-0.99614768	-0.8897231471	 0.0345247355	-0.468161
C	 0.9259440772	-0.1357998612	-1.2703921597	-0.377691
C	 2.0866594314	-0.5225188462	-0.332425995	 0.223857
C	 3.0966705716	-1.6065042507	-0.4904807936	-0.283036
N	 3.5169457956	-0.2053037112	-0.4360552395	-0.349495
C	 1.2259407378	-0.2417533018	 0.8768173751	 0.316752
O	 1.3623668496	-0.3251620141	 2.064045654	-0.311243
H	 0.2189387749	 2.2758004162	 0.0493397031	 0.123399
H	-1.3352398538	 1.701363549	-0.6005661629	 0.129443
H	-1.0022674062	 1.6161551637	 1.144742511	 0.126794
H	-1.3148116623	-0.9193950596	 0.9446509931	 0.289442
H	 0.5578916386	-0.9365288053	-1.9134292181	 0.126469
H	 1.1089862357	 0.762646196	-1.8658438839	 0.109603
H	 3.3704468782	-2.199190021	 0.3777065173	 0.141065
H	 3.1113450955	-2.1334529669	-1.4413650387	 0.123736
H	 3.7089997171	 0.1383723352	-1.3753405393	 0.238786
30.8918	152.6917	198.642	215.71	231.6232	255.0905	266.626	330.6864	340.0314	393.628	519.4591	582.5415	714.8544	726.3886	787.1482	818.6129	881.3638	900.8799	932.2627	966.8006	972.2439	1002.8465	1018.512	1098.5152	1122.9872	1134.556	1176.8929	1222.9669	1258.5878	1261.288	1284.2434	1361.5132	1392.6319	1401.5853	1467.5066	1486.5095	1487.7839	1501.956	1886.1795	3031.0325	3066.6163	3102.5402	3107.3263	3112.8217	3131.2596	3200.06	3484.6541	3790.7744
CC1(O)CC2(CN2)C1=O	C[C@@]1(O)C[C@]2(CN2)C1=O	
InChI=1S/C6H9NO2/c1-5(9)2-6(3-7-6)4(5)8/h7,9H,2-3H2,1H3	InChI=1S/C6H9NO2/c1-5(9)2-6(3-7-6)4(5)8/h7,9H,2-3H2,1H3/t5-,6+/m1/s1
