17
gdb 66024	2.48131	1.29068	1.12064	1.4985	80.93	-0.255	0.01	0.265	1162.7533	0.132405	-384.598157	-384.588828	-384.587884	-384.632194	34.684	
C	-0.1682831714	 1.5696055446	-0.025971022	-0.449423
C	-0.0561614132	 0.0422144153	-0.0133218399	 0.056845
C	 1.1885661291	-0.4864714178	-0.7846151789	-0.101692
O	 1.9086729561	-0.7267800285	 0.4388316958	-0.282806
C	 0.7171493048	-0.5431660772	 1.235700267	-0.081067
C	 0.9080028176	 0.2942517665	 2.4028038786	 0.327384
C	 1.0481835957	 0.9844823447	 3.3769553019	-0.43041
C	-1.3225745114	-0.5996601068	-0.3106325759	 0.281999
C	-2.3712487794	-1.1353854744	-0.554111315	-0.455993
H	 0.7996670745	 2.0231355455	 0.2025310584	 0.135156
H	-0.4957206622	 1.9108708143	-1.012203126	 0.126088
H	-0.8929876138	 1.912206176	 0.7165877193	 0.136517
H	 1.0062477725	-1.410505296	-1.345397766	 0.110881
H	 1.6966670788	 0.2431355008	-1.4239574102	 0.113759
H	 0.2980889581	-1.512463539	 1.5362796354	 0.109078
H	 1.1787140078	 1.5908269926	 4.2394548196	 0.204528
H	-3.2975567637	-1.6080125807	-0.7700134222	 0.199154
60.7017	135.3252	139.2583	179.8868	223.4351	256.3927	322.8505	351.0774	441.1429	505.0049	545.7835	569.1923	621.5676	630.4961	631.0965	641.0671	678.1322	817.7048	901.7919	941.004	958.3757	973.6739	1025.1481	1067.566	1138.2325	1154.5917	1195.6763	1218.7161	1280.2608	1343.1767	1368.9159	1409.7787	1487.4794	1491.342	1521.9533	2232.0084	2236.5159	3015.2757	3026.912	3046.4795	3080.2038	3122.5383	3130.1716	3500.292	3500.6619
CC1(COC1C#C)C#C	C[C@]1(CO[C@H]1C#C)C#C	
InChI=1S/C8H8O/c1-4-7-8(3,5-2)6-9-7/h1-2,7H,6H2,3H3	InChI=1S/C8H8O/c1-4-7-8(3,5-2)6-9-7/h1-2,7H,6H2,3H3/t7-,8+/m0/s1
