18
gdb 85286	2.47286	1.61106	1.18426	3.9374	73.75	-0.2525	0.0247	0.2772	1079.3598	0.147436	-439.09404	-439.085664	-439.084719	-439.126629	32.478	
C	 0.1539483533	 1.5465590206	-0.0409977973	-0.412311
C	-0.0016905889	 0.0410997085	 0.0880328667	 0.063071
O	 0.4978355608	-0.5996441302	-1.1046327526	-0.264764
C	 1.1206610811	-1.7901339855	-0.805662566	 0.424266
N	 1.3872454078	-2.6899385603	-1.6496797854	-0.55119
C	 1.4239157573	-1.8279292865	 0.6468855198	-0.177677
C	 2.2365239694	-0.6429278911	 1.166957509	-0.35892
C	 0.7419759159	-0.626622653	 1.243985402	 0.373823
O	 0.0770054685	-0.7082978045	 2.461713654	-0.467182
H	 1.2066517614	 1.8281394192	-0.1324549006	 0.126083
H	-0.380304666	 1.9146308017	-0.9207109044	 0.135343
H	-0.2655657872	 2.0402031561	 0.841884471	 0.117372
H	-1.0641344923	-0.21644618	 0.197491167	 0.098816
H	 1.0333329505	-2.427042891	-2.5712633303	 0.220954
H	 1.4970020652	-2.7817550109	 1.1491096212	 0.125816
H	 2.7610288928	-0.8249889402	 2.0983114261	 0.125656
H	 2.7573183452	-0.0099644774	 0.4561280356	 0.129828
H	 0.2944074154	 0.0742825546	 2.9792104943	 0.291016
120.0279	147.3737	224.7688	236.0134	256.6984	308.1482	334.6538	404.5339	484.8517	508.0282	576.9257	655.5914	682.9425	729.009	804.7614	877.8569	900.1588	921.8556	932.971	980.6577	985.3565	1053.4645	1066.6328	1072.0443	1104.1153	1115.0531	1137.7077	1216.8952	1256.4558	1318.5411	1327.8023	1357.6657	1383.5309	1408.2814	1413.0023	1481.9741	1487.4974	1497.2838	1781.5626	3016.1009	3042.6208	3114.1431	3125.9102	3131.9507	3222.9728	3231.701	3471.9864	3806.7719
CC1OC(=N)C2CC12O	C[C@H]1O[C]([NH])[C@H]2C[C@@]12O	
InChI=1S/C6H9NO2/c1-3-6(8)2-4(6)5(7)9-3/h3-4,7-8H,2H2,1H3	InChI=1S/C6H9NO2/c1-3-6(8)2-4(6)5(7)9-3/h3-4,7-8H,2H2,1H3/t3-,4-,6-/m1/s1
