15
gdb 133667	2.92593	1.17579	1.06492	3.6377	53.86	-0.2601	0.0619	0.322	1122.2226	0.10871	-585.419851	-585.411259	-585.410314	-585.453766	31.099	
N	-0.0941923233	 1.4705510238	 0.0380581639	-0.51223
C	-0.009941563	 0.0222114053	-0.0100402865	-0.176312
C	 0.6180481718	-0.5484325405	-1.2834125073	 0.084111
C	 0.3691072778	 0.0503521929	-2.5973578882	-0.196473
O	 1.6032837724	 0.2754928949	-1.908858748	-0.226072
C	 0.7832170769	-0.4589576421	 1.2112164125	 0.303983
F	 0.1851510828	-0.1200671449	 2.3539507787	-0.066425
F	 0.8984481941	-1.8024602344	 1.1999573353	-0.090972
F	 2.0206539301	 0.0516931411	 1.2211873644	-0.078033
H	 0.7235873428	 1.8641860906	-0.4185206039	 0.253171
H	-0.9172925394	 1.8050230402	-0.4468248923	 0.24021
H	-1.0109849379	-0.4067980165	 0.1102730285	 0.115366
H	 0.8790401882	-1.6043525999	-1.239510961	 0.115075
H	 0.4379457931	-0.5682909669	-3.489964315	 0.12708
H	-0.2782492664	 0.9215354263	-2.6804027011	 0.107521
66.9822	76.7024	181.6625	232.0862	264.7235	311.6135	325.7574	359.7513	417.1256	527.4202	573.531	630.0345	707.4916	782.197	815.6268	857.6125	909.3616	973.2184	1024.5454	1095.4535	1108.6533	1146.7862	1163.8823	1177.8791	1208.9461	1237.6469	1290.565	1295.392	1337.2392	1412.1358	1430.0772	1523.433	1664.2301	3063.2511	3092.5253	3134.0322	3180.7004	3511.4691	3606.6298
NC(C1CO1)C(F)(F)F	N[C@@H]([C@H]1CO1)C(F)(F)F	
InChI=1S/C4H6F3NO/c5-4(6,7)3(8)2-1-9-2/h2-3H,1,8H2	InChI=1S/C4H6F3NO/c5-4(6,7)3(8)2-1-9-2/h2-3H,1,8H2/t2-,3+/m1/s1
