16
gdb 23513	3.99337	1.32023	1.18258	1.7953	71.61	-0.2238	0.012	0.2358	1036.694	0.125057	-437.807467	-437.800566	-437.799622	-437.838734	27.853	
O	-0.1302707115	 1.3451997476	 0.0832523378	-0.394735
N	 0.0279014967	-0.0542471952	 0.0332677997	-0.259983
C	-1.1016563944	-0.634125553	-0.0535248948	 0.454115
C	-2.4890474387	-0.0166945655	-0.0997057412	-0.304584
C	-3.3540058281	-1.2290495206	-0.4342324915	 0.065247
O	-2.9474180092	-1.6986142084	-1.7657498221	-0.303478
C	-2.161367863	-2.7060335293	-1.1419236485	 0.105085
C	-2.6910940426	-2.4681752245	 0.2259552176	-0.165916
C	-1.2369265385	-2.1127645193	-0.0688242219	-0.18355
H	 0.7816466935	 1.6489128512	 0.1411164978	 0.30594
H	-2.7501513983	 0.4138428707	 0.8755484224	 0.124494
H	-2.5643083024	 0.7747619803	-0.8490240656	 0.140942
H	-4.4342255433	-1.1002582427	-0.3666415965	 0.089956
H	-1.9257813399	-3.6013019563	-1.7046336696	 0.114863
H	-3.0618421167	-3.1136462139	 1.0093696687	 0.105959
H	-0.4320839736	-2.740496101	 0.2913463975	 0.105644
106.7153	221.6086	267.1455	376.6759	379.8615	475.1242	496.7581	573.1557	680.7682	723.1565	758.8622	785.8497	811.0042	846.006	875.1831	904.38	969.033	978.2257	990.1544	991.7677	1023.556	1050.5795	1065.209	1104.9001	1145.2056	1207.0737	1222.7941	1242.0678	1281.7447	1304.646	1333.22	1379.7169	1414.922	1450.9257	1756.776	3037.7042	3110.6983	3118.2399	3188.2642	3205.9112	3216.5789	3821.457
ON=C1CC2OC3C2C13	ON=C1C[C@H]2O[C@@H]3[C@H]2[C@H]13	
InChI=1S/C6H7NO2/c8-7-2-1-3-5-4(2)6(5)9-3/h3-6,8H,1H2	InChI=1S/C6H7NO2/c8-7-2-1-3-5-4(2)6(5)9-3/h3-6,8H,1H2/t3-,4+,5-,6+/m1/s1
