19
gdb 70472	3.10171	1.0376	0.91218	4.2442	77.81	-0.2646	0.0116	0.2762	1332.531	0.157921	-423.026548	-423.017623	-423.016679	-423.061145	32.627	
C	-0.022981762	 1.4662436901	-0.0884664259	-0.507963
C	 0.0609226654	-0.0319660264	-0.0199931362	 0.345286
C	-0.8528685658	-0.8762565421	 0.8300971725	-0.321619
C	 0.6271590265	-0.9726626402	 1.0615462498	-0.097648
C	 1.2364763574	-1.8892961085	-0.0051330164	-0.265396
C	 0.7109286001	-0.9044487175	-1.089667247	 0.062479
O	-0.1781359651	-1.4615050015	-2.0634678472	-0.190514
C	 0.0976425176	-1.2897341953	-3.3679388597	 0.164966
O	-0.5940202487	-1.7200301863	-4.2414848721	-0.278223
H	 0.9383785516	 1.9121154516	-0.3694880296	 0.115977
H	-0.7683946368	 1.7878314894	-0.8257137595	 0.130766
H	-0.3155108525	 1.8882928018	 0.8780822979	 0.124286
H	-1.4100848801	-0.3153118236	 1.5738035835	 0.114138
H	-1.3979292737	-1.7128576134	 0.4010313513	 0.125107
H	 1.0909029013	-0.7058151163	 2.0026552074	 0.093043
H	 2.3266403836	-1.9504838304	 0.0099706259	 0.109434
H	 0.8215239054	-2.9001050976	-0.0569129539	 0.115628
H	 1.5275253868	-0.3836834917	-1.6029946401	 0.086544
H	 1.027666629	-0.710668822	-3.5369646807	 0.073709
34.7533	100.2517	143.5012	190.1904	229.9285	267.2745	331.9027	370.4818	414.8139	480.5786	611.8861	677.5985	736.0123	814.8199	870.7416	879.3617	954.3876	964.6547	998.828	1017.5186	1044.2691	1045.5961	1058.7197	1081.5173	1109.5224	1126.7509	1169.3926	1199.8786	1227.0503	1249.1962	1265.8646	1314.3922	1372.6555	1401.5072	1422.4948	1442.5892	1479.9707	1486.3357	1498.7592	1505.9335	1864.0106	2935.0407	3021.4011	3037.7118	3058.6624	3079.4321	3099.7255	3115.8223	3116.6768	3193.5319	3205.4778
CC12CC1CC2OC=O	C[C@]12C[C@H]1C[C@H]2OC=O	
InChI=1S/C7H10O2/c1-7-3-5(7)2-6(7)9-4-8/h4-6H,2-3H2,1H3	InChI=1S/C7H10O2/c1-7-3-5(7)2-6(7)9-4-8/h4-6H,2-3H2,1H3/t5-,6-,7+/m1/s1
