18
gdb 35899	2.78485	1.51433	1.20122	2.9128	77.23	-0.2436	0.0524	0.296	1069.7382	0.148947	-401.883014	-401.875147	-401.874203	-401.915436	30.753	
C	-0.1490383328	-1.2402767228	-0.3116587412	-0.491917
C	-0.0556473868	-0.0575532258	-0.121008423	 0.369641
C	 0.0240168842	 1.3840823337	 0.0920446822	-0.190969
C	-0.6777476919	 1.8400530423	 1.3995579112	-0.086949
O	 0.1401135154	 1.700643386	 2.5382975722	-0.228661
C	 1.216196191	 2.616906019	 2.5386707904	-0.083173
C	 2.0589513402	 2.5216326301	 1.2835924867	-0.044354
N	 2.4467796567	 1.1654794484	 0.8875908662	-0.305729
C	 1.4725041743	 1.8952442726	 0.0662513205	-0.046716
H	-0.2177208387	-2.2880090356	-0.4684013998	 0.193279
H	-0.5097800466	 1.8762101332	-0.7324371546	 0.101942
H	-0.9819721942	 2.8937325398	 1.2790112986	 0.08249
H	-1.5720169626	 1.2391698127	 1.5775141399	 0.120193
H	 0.8389654274	 3.6504151589	 2.637795534	 0.084463
H	 1.8159221052	 2.3844536349	 3.4241797707	 0.116149
H	 2.7710996185	 3.3339427643	 1.1471704541	 0.085677
H	 3.3562737607	 1.1657496187	 0.4350400009	 0.233137
H	 1.8090296302	 2.2582137595	-0.901394839	 0.091499
75.7529	135.6021	209.6623	293.8082	350.4363	365.345	431.5106	454.3057	560.699	615.5301	634.8388	663.4252	759.6637	776.8627	805.1728	861.8702	886.6604	933.2719	966.6239	980.722	1053.3782	1069.8885	1098.2579	1114.99	1147.9142	1169.4477	1212.4284	1250.2276	1276.5648	1290.2557	1320.6407	1350.8358	1374.4592	1405.2969	1424.1202	1461.6462	1482.7813	1493.7134	2238.0528	2950.0393	2959.3763	3013.1831	3078.5789	3107.3557	3118.7519	3136.5276	3506.1309	3513.632
C#CC1COCC2NC12	C#C[C@H]1COC[C@H]2N[C@@H]12	
InChI=1S/C7H9NO/c1-2-5-3-9-4-6-7(5)8-6/h1,5-8H,3-4H2	InChI=1S/C7H9NO/c1-2-5-3-9-4-6-7(5)8-6/h1,5-8H,3-4H2/t5-,6+,7-/m0/s1
