14
gdb 43553	2.33929	1.53233	1.02106	5.7545	74.65	-0.2593	0.0021	0.2614	1118.4779	0.100046	-395.690152	-395.681659	-395.680715	-395.723715	30.782	
N	-0.1695211016	 1.1355801935	-0.8553726093	-0.528993
C	-0.0363243615	 0.0734370148	-0.1944497158	 0.3996
N	 0.9657096621	-0.5998348737	 0.484782026	-0.309001
C	 0.1848824068	-1.8208747557	 0.7431467815	-0.190755
C	 0.1202338737	-2.2589400841	 2.1234315387	 0.354888
C	 0.0647430204	-2.6424460903	 3.26005929	-0.414762
C	-1.0546781348	-1.0434148462	 0.1256389801	-0.27712
C	-2.1396189843	-0.7032760639	 1.0246575877	 0.319147
N	-3.0090911759	-0.4402094233	 1.7383267655	-0.322184
H	 0.7017275864	 1.6618344009	-0.9304902981	 0.222182
H	 1.9658518506	-0.5259303692	 0.3701303328	 0.254851
H	 0.4660100289	-2.6590844615	 0.0939710993	 0.12333
H	 0.0049606885	-2.9677009188	 4.2698441558	 0.213821
H	-1.4479114094	-1.5216258326	-0.7736994642	 0.154996
64.8824	101.0548	145.5577	191.9508	249.7907	369.9065	389.8662	438.5599	478.4133	516.9199	599.6031	653.4147	664.9558	681.0071	769.4321	808.891	834.8197	920.5969	971.0196	1050.3977	1065.9612	1099.7855	1133.8039	1207.9304	1297.033	1316.799	1360.5658	1380.7393	1814.8648	2245.7001	2367.2351	3028.4491	3104.4738	3477.9523	3499.9147	3612.6786
N=C1NC(C#C)C1C#N	[NH][C]1N[C@@H](C#C)[C@H]1C#N	
InChI=1S/C6H5N3/c1-2-5-4(3-7)6(8)9-5/h1,4-5H,(H2,8,9)	InChI=1S/C6H5N3/c1-2-5-4(3-7)6(8)9-5/h1,4-5H,(H2,8,9)/t4-,5+/m1/s1
