17
gdb 131339	5.65609	0.92803	0.85102	2.6707	76.25	-0.2126	0.026	0.2385	1342.6501	0.137889	-418.01875	-418.010722	-418.009778	-418.051791	30.629	
O	 0.0535632805	 1.3362125225	 0.0311356892	-0.431491
C	 0.0603782511	-0.0129505029	 0.0714464335	 0.43827
N	 0.0979234873	-0.7405009179	-1.032951835	-0.340271
N	 0.0917508248	-2.0223129875	-0.5681994308	-0.299826
C	 0.0513319011	-2.1025934681	 0.7865355816	 0.442338
C	 0.0297123575	-0.7971325965	 1.2449175988	-0.43379
C	 0.0362313322	-3.3690097799	 1.5394955272	-0.083193
C	-0.6923229681	-4.5943654483	 1.0211758162	-0.271618
C	 0.808876693	-4.5855054013	 1.0661584331	-0.271606
H	 0.0801244565	 1.5885348079	-0.9003730959	 0.300815
H	 0.1156397784	-2.7725118469	-1.2352559159	 0.267487
H	-0.0029776892	-0.4610566116	 2.2674668128	 0.106011
H	 0.0031629671	-3.2155263211	 2.612108788	 0.099278
H	-1.2301357461	-5.2033076113	 1.7390161805	 0.123582
H	-1.1822289935	-4.5139881544	 0.0564765578	 0.11521
H	 1.3546654858	-4.4989708396	 0.1324881393	 0.115224
H	 1.3099137115	-5.1883513031	 1.8150819995	 0.123581
46.259	147.7559	164.5393	306.6295	328.2889	328.7588	412.5457	477.1264	483.2358	597.5812	690.0668	720.4804	743.148	779.9697	789.9977	821.2671	908.0166	910.7384	1004.15	1028.99	1059.8635	1075.911	1076.0256	1129.0026	1146.5997	1173.2036	1201.5483	1224.8123	1238.6233	1338.1875	1356.3906	1463.2331	1475.7908	1503.9938	1540.0783	1563.7986	1623.0648	3132.664	3137.1803	3174.4972	3211.3515	3227.8383	3275.7721	3692.6902	3794.7572
OC1=NNC(=C1)C1CC1	Oc1n[nH]c(c1)C1CC1	
InChI=1S/C6H8N2O/c9-6-3-5(7-8-6)4-1-2-4/h3-4H,1-2H2,(H2,7,8,9)	InChI=1S/C6H8N2O/c9-6-3-5(7-8-6)4-1-2-4/h3-4H,1-2H2,(H2,7,8,9)
