14
gdb 29932	2.15797	1.88209	1.01171	4.7931	72.63	-0.2269	-0.0243	0.2026	1088.2791	0.102649	-432.925076	-432.916991	-432.916047	-432.958031	28.911	
C	-0.0764907465	 1.430917153	 0.0500381809	-0.345726
N	-0.0094068679	-0.018217321	 0.0425468838	-0.06971
C	 0.0003357743	-0.8338850258	-1.0288963969	 0.013395
N	 0.0686250865	-2.1161074729	-0.7000376578	-0.353053
C	 0.1047155449	-2.1291587518	 0.652810136	 0.284183
O	 0.1759231816	-3.2615034119	 1.3608027675	-0.410886
C	 0.0585861947	-0.8425675376	 1.1712574772	 0.093843
C	 0.0702487884	-0.3507245408	 2.4850625716	 0.217492
N	 0.0782256038	 0.0825345921	 3.5617736989	-0.367316
H	 0.8062692212	 1.8536243996	 0.5371814762	 0.165052
H	-0.1196609943	 1.7826669761	-0.9817812895	 0.149889
H	-0.9681204376	 1.7712689898	 0.5833471139	 0.165042
H	-0.0439809789	-0.4505840206	-2.0375463091	 0.146717
H	 0.1929888199	-3.9889355983	 0.7253719473	 0.311077
94.3744	132.0117	144.8478	187.7694	285.0025	343.1544	418.2569	423.8177	529.7691	553.1925	597.9272	639.5942	683.1118	750.9341	807.831	831.5146	1065.5395	1091.3775	1154.3013	1158.8406	1263.9666	1310.6707	1366.0787	1401.0543	1454.6841	1474.4667	1478.7723	1522.5447	1545.6386	1651.4533	2327.4362	3052.35	3119.841	3149.5855	3252.7292	3793.3652
CN1C=NC(O)=C1C#N	Cn1cnc(O)c1C#N	
InChI=1S/C5H5N3O/c1-8-3-7-5(9)4(8)2-6/h3,9H,1H3	InChI=1S/C5H5N3O/c1-8-3-7-5(9)4(8)2-6/h3,9H,1H3
