21
gdb 118796	2.17177	1.07028	0.81502	4.9278	84.45	-0.2686	0.018	0.2865	1490.7778	0.18148	-383.271977	-383.261817	-383.260872	-383.307439	36.881	
C	 0.0965109986	 1.5913110198	-0.0147993882	-0.383284
C	 0.222990492	 0.0663460432	-0.062526943	-0.172552
C	 0.3975843027	-0.5511587354	 1.3322245867	-0.230929
C	 0.6106331481	-2.0559782254	 1.3045900096	 0.31564
C	-0.5599095246	-2.8957495349	 0.8301994124	-0.469337
N	 1.966531274	-2.4670494223	 0.9197545257	-0.338236
C	 1.5247115864	-2.6971940052	 2.3135934591	-0.253924
C	 2.19566184	-1.9456497304	 3.3463835617	 0.336461
N	 2.7065575028	-1.3520964629	 4.1972093738	-0.342962
H	 0.9845591296	 2.0470363473	 0.4360024016	 0.123583
H	-0.0210674862	 2.0105673004	-1.0186972962	 0.113228
H	-0.7709795936	 1.9003059287	 0.578994635	 0.114884
H	-0.6637121069	-0.3545135613	-0.5525524739	 0.093774
H	 1.0847364272	-0.2162198267	-0.6789728197	 0.113596
H	 1.2567721932	-0.0837289801	 1.8235234035	 0.127049
H	-0.4795630428	-0.3285744041	 1.9541214941	 0.100214
H	-0.8000174304	-2.6725875574	-0.2141322103	 0.136999
H	-0.339885718	-3.9657841861	 0.9029864677	 0.116502
H	-1.4547464752	-2.6932499432	 1.4276472769	 0.135485
H	 1.9546975874	-3.3534191223	 0.4197442912	 0.238457
H	 1.2807070257	-3.7131674318	 2.6135364823	 0.125353
73.431	85.0794	104.8403	149.2388	200.0949	222.8834	242.7861	303.8673	345.5214	360.3637	412.9122	453.9179	579.5296	604.8937	738.3003	748.0163	812.2196	878.3236	886.3229	928.7885	945.7822	983.0574	1023.6208	1036.5608	1058.0065	1112.2763	1121.055	1148.1172	1210.8741	1251.4028	1298.8356	1318.7225	1346.6928	1354.9418	1403.77	1413.7096	1418.3378	1438.4071	1474.8293	1489.6415	1493.5505	1498.932	1503.4861	1510.5057	2357.0248	3022.8216	3028.5304	3032.2664	3034.3333	3059.5079	3086.6387	3100.844	3103.9212	3105.1183	3106.3291	3142.2313	3494.5101
CCCC1(C)NC1C#N	CCC[C@@]1(C)N[C@H]1C#N	
InChI=1S/C7H12N2/c1-3-4-7(2)6(5-8)9-7/h6,9H,3-4H2,1-2H3	InChI=1S/C7H12N2/c1-3-4-7(2)6(5-8)9-7/h6,9H,3-4H2,1-2H3/t6-,7+/m0/s1
