19
gdb 86168	2.72257	1.18271	0.885	1.367	87.48	-0.2338	-0.0268	0.2071	1319.5688	0.158043	-385.877163	-385.867946	-385.867002	-385.911046	35.088	
C	 0.0551119725	 1.5804408753	-0.0197975472	-0.399635
C	 0.065675005	 0.0504745245	 0.0234777208	-0.097702
C	 0.7653284099	-0.6209096574	-1.1824624331	-0.257477
C	 1.4705190014	-1.8857804149	-0.6314797651	 0.116488
O	 2.707859807	-2.1922650348	-1.2584366181	-0.431764
C	 1.5727995441	-1.5954956565	 0.8450872783	-0.251438
C	 0.8213760326	-0.5466055413	 1.21306648	 0.189995
C	 0.6619072057	-0.0457590752	 2.5278636771	 0.228267
C	 0.4956718179	 0.4134816435	 3.6300109664	-0.418053
H	 1.0752361265	 1.976230167	-0.0741569761	 0.113828
H	-0.493345329	 1.9385127839	-0.8969249055	 0.115078
H	-0.4201841487	 1.9972183758	 0.8728293704	 0.127878
H	-0.9761838614	-0.2953246733	 0.0829948781	 0.092016
H	 0.0833750507	-0.8394873149	-2.0076001911	 0.105087
H	 1.5404395678	 0.0511178862	-1.572266234	 0.095503
H	 0.8613405259	-2.7839416256	-0.8006158992	 0.099556
H	 3.3118531097	-1.4640218805	-1.073430909	 0.27412
H	 2.1646615255	-2.2087273473	 1.5145865682	 0.104706
H	 0.3602159466	 0.8051358754	 4.6075967591	 0.193549
75.5722	110.4265	136.9099	227.4293	259.4138	286.0768	339.2221	389.259	407.9784	481.3295	525.9943	542.3341	598.0434	620.027	634.0412	649.6225	773.3948	879.783	890.764	915.8859	935.5541	1032.564	1042.6392	1068.7941	1116.5037	1127.001	1163.8845	1218.149	1250.8543	1263.121	1304.5927	1318.3587	1325.7551	1357.5157	1408.9507	1426.7596	1485.7301	1495.9863	1499.2853	1665.376	2218.1272	3000.1498	3017.3219	3031.6147	3035.7255	3100.1198	3104.2757	3112.9798	3205.6933	3503.0034	3792.9169
CC1CC(O)C=C1C#C	C[C@H]1C[C@@H](O)C=C1C#C	
InChI=1S/C8H10O/c1-3-7-5-8(9)4-6(7)2/h1,5-6,8-9H,4H2,2H3	InChI=1S/C8H10O/c1-3-7-5-8(9)4-6(7)2/h1,5-6,8-9H,4H2,2H3/t6-,8+/m0/s1
