20
gdb 14725	7.597	0.54483	0.53418	1.2814	81.48	-0.2404	0.0618	0.3022	2108.6514	0.174898	-348.981307	-348.970842	-348.969898	-349.019478	35.302	
C	 0.4613581589	 1.3338636668	 0.3271323701	-0.362824
C	-0.3429764836	 0.1672266557	-0.2749161802	-0.312952
C	 0.2773690026	-0.401971206	-1.4673526347	 0.131309
C	 0.8054406484	-0.8492200648	-2.453481379	 0.001549
C	 1.4459548858	-1.4227388106	-3.6322454478	-0.35583
C	 2.0894328966	-2.7960672949	-3.3617197541	-0.153772
C	 2.7524158888	-3.3768036291	-4.6035085389	-0.073967
O	 3.3109927298	-4.6326233948	-4.2516625324	-0.422005
H	 1.4645402082	 1.0064369253	 0.6135155438	 0.126594
H	 0.5668663947	 2.1468460869	-0.396465942	 0.125987
H	-0.040655287	 1.7265440183	 1.2166326518	 0.111671
H	-0.4674730112	-0.618417924	 0.4816733042	 0.126398
H	-1.3569015306	 0.5105162	-0.518575437	 0.125208
H	 0.7078260257	-1.5184063433	-4.4406653664	 0.123496
H	 2.2111948095	-0.7289845806	-4.0072617881	 0.123406
H	 2.8371777738	-2.7045695924	-2.567261451	 0.116446
H	 1.3291370478	-3.4968729038	-3.0019068189	 0.116854
H	 2.0062622344	-3.4828666089	-5.4089070024	 0.083591
H	 3.5277293598	-2.683345816	-4.9705292154	 0.083487
H	 3.7307914374	-5.004979934	-5.0324208617	 0.285352
7.9459	68.1366	74.5663	113.3094	139.8236	195.2527	252.3463	258.9263	291.3094	345.0071	400.6904	513.468	521.446	743.6555	755.5981	785.362	865.43	960.847	1019.2002	1029.1299	1078.7295	1084.2898	1103.1335	1118.4139	1168.131	1212.6346	1230.8239	1286.3814	1299.5856	1304.6958	1310.9762	1351.3819	1375.9052	1407.7594	1464.4391	1475.8647	1477.0785	1494.4387	1499.2784	1505.8679	1528.3213	2368.2994	2952.5876	2977.2452	3004.0615	3016.2647	3029.9833	3042.281	3042.4207	3053.002	3098.5713	3115.0177	3121.7059	3830.3626	7.9359	68.1358	74.5659	113.3084	139.8231	195.2518	252.3458	258.9221	291.3086	345.0057	400.6898	513.4672	521.4454	743.6554	755.5979	785.3618	865.4299	960.847	1019.2001	1029.1299	1078.7295	1084.2893	1103.1335	1118.414	1168.1308	1212.6347	1230.824	1286.3817	1299.5859	1304.6959	1310.9763	1351.382	1375.9054	1407.7596	1464.4391	1475.8651	1477.079	1494.439	1499.2787	1505.8682	1528.321	2368.299	2952.5875	2977.2451	3004.0615	3016.2647	3029.9833	3042.281	3042.4207	3053.0019	3098.5713	3115.0177	3121.7059	3830.3618
CCC#CCCCO	CCC#CCCCO	
InChI=1S/C7H12O/c1-2-3-4-5-6-7-8/h8H,2,5-7H2,1H3	InChI=1S/C7H12O/c1-2-3-4-5-6-7-8/h8H,2,5-7H2,1H3
