16
gdb 43645	3.64263	1.06892	0.86602	3.1636	79.54	-0.2483	-0.0358	0.2124	1291.6403	0.123889	-400.737785	-400.729609	-400.728665	-400.77107	30.635	
N	-0.0244035136	 1.309590436	-0.0211718462	-0.545953
C	-0.0382385828	 0.0444233814	-0.0114104913	 0.394207
O	 1.0764541236	-0.7630448563	-0.0144307409	-0.243449
C	 0.6841620863	-2.1411019228	 0.0012121946	 0.052682
C	 1.2874716557	-2.8507285364	 1.2319368995	-0.363157
C	 2.742158019	-2.9120516749	 1.2004552534	 0.304295
C	 3.9412890946	-2.9670140058	 1.1575933589	-0.431503
C	-0.8199599561	-2.097113541	 0.004425584	-0.106006
C	-1.2215282403	-0.8270746424	 0.002729283	-0.143557
H	 0.935367766	 1.6581547492	-0.0279754468	 0.226074
H	 1.0776135007	-2.6168237882	-0.9073058887	 0.116763
H	 0.9444696916	-2.3279594459	 2.1324500282	 0.144234
H	 0.8735551074	-3.8664666649	 1.2765960051	 0.134094
H	 5.0018322581	-3.0105573486	 1.1285398083	 0.200664
H	-1.4337717743	-2.9882117499	 0.0111846871	 0.125357
H	-2.2272241259	-0.4341029594	 0.006542352	 0.135255
64.3162	112.0833	133.1324	239.7587	317.3401	348.2305	433.4993	456.2552	536.5682	624.6871	649.8828	664.7477	692.2144	790.7421	820.6589	861.0433	882.0574	920.6952	962.8964	975.9782	992.5648	1029.1176	1065.9875	1092.1142	1121.119	1231.2782	1254.0506	1291.6885	1350.5121	1365.312	1387.2769	1458.1591	1661.7028	1761.6116	2244.6024	3018.6301	3026.3532	3069.1139	3223.6742	3261.4291	3481.2425	3506.7222
N=C1OC(CC#C)C=C1	[NH]C1=C[CH][C@@H](O1)CC#C	
InChI=1S/C7H7NO/c1-2-3-6-4-5-7(8)9-6/h1,4-6,8H,3H2	InChI=1S/C7H7NO/c1-2-3-6-4-5-7(8)9-6/h1,4-6,8H,3H2/t6-/m0/s1
