19
gdb 68094	2.54436	1.63758	1.32857	2.4853	75.87	-0.2211	-0.0148	0.2064	1052.8494	0.157792	-423.029863	-423.021122	-423.020178	-423.062739	33.249	
C	-0.0325591417	 1.5565413271	 0.0757628725	-0.502255
C	-0.0104797857	 0.0536193861	-0.0139201721	 0.139799
C	 0.6966736561	-0.7740314876	-1.1524209675	-0.324488
C	-0.2053812386	-1.9382033302	-0.6336581814	 0.306164
C	-0.458705664	-3.2395659804	-1.3294446357	-0.496948
O	 0.2891081976	-2.1294021846	 0.7084961293	-0.310458
C	 0.4399872436	-0.7752338383	 1.2026320308	-0.109713
C	-1.237312359	-0.8020241697	-0.4205786705	 0.385019
O	-2.3900373426	-0.5962051741	-0.6562098076	-0.323685
H	 0.9683631943	 1.9621297592	 0.2586716657	 0.122821
H	-0.4149136784	 1.9980716158	-0.8493010463	 0.132091
H	-0.6826720856	 1.8863812339	 0.8930700022	 0.132672
H	 0.4446415099	-0.4306339153	-2.1580822222	 0.116918
H	 1.7712530368	-0.9351878959	-1.0377048576	 0.11376
H	 0.4647223725	-3.8197094112	-1.4174682511	 0.131299
H	-1.1840140145	-3.8325652099	-0.7651641577	 0.141537
H	-0.8610466998	-3.063140391	-2.3305467087	 0.130063
H	 1.4854154982	-0.594992677	 1.4826301884	 0.104167
H	-0.1959771494	-0.6192536871	 2.0826772095	 0.111234
130.9364	165.5968	176.912	209.1298	213.9246	254.7718	286.2116	360.5835	451.45	529.4268	578.5446	596.2651	679.1036	717.3203	805.3484	862.8445	873.6098	891.8503	926.5208	975.1914	1000.2041	1011.1215	1039.905	1090.0798	1150.4391	1160.6872	1178.6938	1202.2825	1232.6515	1288.0788	1346.8954	1385.4719	1414.9381	1425.7285	1475.4942	1477.1497	1489.8453	1490.9004	1491.3147	1528.9162	1898.0767	3013.0862	3033.5706	3046.0022	3055.2043	3065.1292	3097.8541	3108.2566	3117.295	3125.3731	3136.5763
CC12CC(C)(OC1)C2=O	C[C@@]12C[C@@](C)(OC1)C2=O	
InChI=1S/C7H10O2/c1-6-3-7(2,5(6)8)9-4-6/h3-4H2,1-2H3	InChI=1S/C7H10O2/c1-6-3-7(2,5(6)8)9-4-6/h3-4H2,1-2H3/t6-,7-/m1/s1
