16
gdb 129759	2.72511	1.56252	1.04268	3.0689	74.09	-0.193	0.0247	0.2178	1105.7693	0.126267	-434.030438	-434.022394	-434.021449	-434.063216	29.952	
N	-0.0627723018	 1.4658863997	 0.2203880382	-0.61165
C	-0.0287265949	 0.0803999821	-0.0019823487	-0.015548
C	-1.0605740092	-0.8068917351	-0.2713760867	 0.364218
C	-2.468457949	-1.3688004975	-0.3340937542	-0.084376
O	-3.205595893	-0.980688065	-1.4651898717	-0.419301
C	-1.7542173324	-2.798257296	-0.38571939	-0.194749
N	-0.5021973813	-2.0349767313	-0.3330467458	 0.075312
N	 0.7995914061	-2.0918355912	-0.0912434004	-0.303519
C	 1.0996422445	-0.7857113751	 0.0800543577	-0.044036
H	 0.8344829774	 1.9020358106	 0.0505767543	 0.244198
H	-0.7627424303	 1.9316918212	-0.3424079608	 0.248487
H	-3.0488835956	-1.2325371212	 0.5876135327	 0.095509
H	-4.1094263364	-1.2959827365	-1.3615925693	 0.289536
H	-1.9197022308	-3.4452942395	 0.4805000041	 0.12732
H	-1.9075536717	-3.3459260714	-1.3190846117	 0.1284
H	 2.1265994383	-0.4958443939	 0.2547926523	 0.100199
89.9981	130.2804	174.7279	216.531	286.4161	331.309	382.9624	464.4425	536.2853	640.4529	653.4762	668.7623	758.6574	770.6821	795.9555	829.3026	857.3696	1001.9068	1058.556	1073.1563	1127.3299	1148.9822	1183.4548	1202.8816	1223.6169	1253.3395	1292.7223	1337.7449	1384.5706	1403.7385	1455.04	1477.9642	1513.2023	1640.2837	1660.4292	3018.48	3054.1217	3117.892	3232.7914	3537.5622	3624.6056	3812.769
NC1=C2C(O)CN2N=C1	Nc1c2[C@@H](O)Cn2nc1	
InChI=1S/C5H7N3O/c6-3-1-7-8-2-4(9)5(3)8/h1,4,9H,2,6H2	InChI=1S/C5H7N3O/c6-3-1-7-8-2-4(9)5(3)8/h1,4,9H,2,6H2/t4-/m0/s1
