16
gdb 6198	3.7274	1.6817	1.56744	3.088	60.85	-0.2707	0.0071	0.2777	882.316	0.128895	-420.932345	-420.924506	-420.923561	-420.964469	28.902	
C	 0.0644722109	 1.4530543689	 0.1224372562	-0.407771
C	-0.0617355313	-0.0621155095	-0.0114931148	 0.437425
C	-1.4974280894	-0.5518343038	-0.0714736226	-0.41043
O	 0.6302152936	-0.5308811938	-1.1675990445	-0.281833
C	 1.9043783123	-0.9835786168	-0.7682344746	-0.236023
C	 1.7896081496	-1.1980496258	 0.7349930995	 0.392097
O	 2.5660972271	-1.7115322128	 1.4831996924	-0.327581
O	 0.5956409818	-0.6803758897	 1.1151191761	-0.242277
H	 1.1170762554	 1.7477647076	 0.1516718997	 0.125428
H	-0.4109483343	 1.940319257	-0.7324955934	 0.133002
H	-0.4169515446	 1.7969492812	 1.0413311087	 0.135107
H	-1.9840686406	-0.1491848485	-0.9633666254	 0.134385
H	-1.5135759143	-1.642395773	-0.1221282599	 0.133703
H	-2.0507537104	-0.22494772	 0.8120844214	 0.1333
H	 2.1496889718	-1.9195553615	-1.2775985896	 0.148124
H	 2.7012376522	-0.2550177293	-0.978224889	 0.133344
87.1769	133.7941	194.8738	240.1782	319.2752	336.5188	367.0366	497.9765	512.4456	562.8498	625.1138	670.219	808.185	858.0531	926.4	931.3025	991.9833	1003.6465	1033.6689	1086.5623	1149.5896	1207.2204	1236.3613	1254.364	1285.8052	1349.5081	1404.8057	1417.7298	1471.7595	1475.8165	1494.2964	1494.6596	1502.64	1898.8291	3005.3564	3049.9027	3057.9282	3092.2894	3127.3917	3132.0145	3139.4637	3143.1867
CC1(C)OCC(=O)O1	CC1(C)OCC(=O)O1	
InChI=1S/C5H8O3/c1-5(2)7-3-4(6)8-5/h3H2,1-2H3	InChI=1S/C5H8O3/c1-5(2)7-3-4(6)8-5/h3H2,1-2H3
