19
gdb 75717	2.23198	1.64748	1.32779	2.3456	75.41	-0.2406	-0.0255	0.215	1067.5044	0.157352	-423.021275	-423.012396	-423.011452	-423.054718	33.143	
C	-0.6950764215	 1.2862240088	 0.0110233675	-0.415827
C	-0.0254835685	-0.0781583732	-0.0591849585	-0.150944
C	 1.1550787322	-0.2940877026	-1.0282738509	 0.402192
O	 1.3187230356	-0.0673719099	-2.1925972204	-0.306085
C	 2.0481003126	-0.894261006	 0.0677889786	-0.274246
C	 2.8266571734	 0.2101934892	 0.8140998127	-0.09205
O	 1.6880942042	 0.5302731364	 1.6412368615	-0.321701
C	 0.9073525865	-0.5663274833	 1.0954024282	 0.426445
C	 0.3675505144	-1.4810249455	 2.1620759893	-0.478406
H	 0.0114959881	 2.0337915661	 0.3795738459	 0.138169
H	-1.0400373662	 1.588876414	-0.9819254622	 0.134242
H	-1.5589233887	 1.2733056436	 0.6827459788	 0.119304
H	-0.7614675299	-0.86681707	-0.2754660031	 0.102239
H	 2.5234182009	-1.8602616777	-0.0971743747	 0.101017
H	 3.6607786347	-0.1719944644	 1.4149644771	 0.112333
H	 3.1729713002	 1.0616698192	 0.2180705108	 0.120382
H	-0.3476364123	-0.9425459663	 2.7936690516	 0.134891
H	-0.1478942469	-2.3388372215	 1.7186524604	 0.120592
H	 1.1727793211	-1.8491344168	 2.8042809175	 0.127452
71.6746	176.1517	187.9776	198.3451	208.5812	223.2575	271.489	335.3427	474.5488	500.3079	594.0589	631.0155	649.842	748.8519	839.6478	857.298	898.4548	947.4225	968.9284	997.5069	1033.269	1045.8723	1094.1984	1099.5415	1118.3017	1161.1844	1170.7584	1184.08	1207.7241	1240.2125	1301.4797	1338.9902	1344.7277	1399.054	1410.993	1480.0225	1489.1508	1490.6899	1503.4453	1526.0707	1886.7223	3008.2534	3020.1778	3034.7817	3043.8589	3070.1216	3103.0448	3110.7675	3114.5649	3127.3616	3129.4594
CC1C(=O)C2COC12C	C[C@H]1C(=O)[C@H]2CO[C@@]12C	
InChI=1S/C7H10O2/c1-4-6(8)5-3-9-7(4,5)2/h4-5H,3H2,1-2H3	InChI=1S/C7H10O2/c1-4-6(8)5-3-9-7(4,5)2/h4-5H,3H2,1-2H3/t4-,5+,7-/m0/s1
