21
gdb 81971	2.07961	1.86271	1.30172	2.3653	76.49	-0.2515	0.0692	0.3207	1073.2484	0.182919	-424.219824	-424.21109	-424.210146	-424.252946	34.291	
C	-0.402101381	 1.4899790582	-0.1168414965	-0.390236
C	-0.0156429	 0.0082989931	-0.0136922034	-0.047824
C	 0.8861405488	-0.4334965479	-1.1640075347	 0.046727
O	 2.016618446	 0.4323882195	-1.3831527059	-0.26504
C	 2.2207633063	-0.7990102175	-0.6693756739	-0.01184
C	 2.2929023067	-0.5237737485	 0.8353724519	 0.096447
O	 3.0670472683	 0.6307725154	 1.1042719086	-0.432692
C	 0.7953477652	-0.4157181912	 1.2606096285	-0.017087
C	 0.5712086085	 0.4052934747	 2.5274138708	-0.400446
H	 0.4801720423	 2.134593433	-0.1180811452	 0.125449
H	-0.9511701274	 1.6792139872	-1.0452805075	 0.112817
H	-1.0439841867	 1.7890611333	 0.7160762536	 0.117777
H	-0.9384623503	-0.5824353958	-0.0558645623	 0.074454
H	 0.4632889899	-0.8492477931	-2.0757368844	 0.096402
H	 2.8783858844	-1.5134091429	-1.1570535163	 0.099973
H	 2.7790380948	-1.345277736	 1.3713954812	 0.080029
H	 2.903324194	 1.2319397342	 0.3650887612	 0.291976
H	 0.4892840246	-1.4504175741	 1.4664047944	 0.07362
H	 0.9253238483	 1.4312356888	 2.4073769478	 0.128072
H	-0.4887081579	 0.431912638	 2.8011877993	 0.106665
H	 1.1220879051	-0.0306073283	 3.3671618931	 0.114757
58.4728	212.6385	214.5321	230.8665	248.745	267.4779	305.2702	417.982	453.3967	497.026	542.6364	582.5538	682.4973	710.6398	780.564	797.6705	852.3327	885.5668	918.4277	959.9746	984.2544	1017.3317	1045.1668	1050.0769	1097.8367	1118.1498	1126.4672	1158.3372	1184.0726	1252.7453	1267.6733	1275.8562	1316.957	1324.1987	1355.9804	1357.6494	1366.401	1405.5757	1410.5589	1430.6988	1447.9467	1486.3762	1493.8818	1502.7978	1505.7442	3002.7423	3033.4655	3039.4008	3043.2936	3060.9202	3099.1659	3106.8378	3126.2506	3130.557	3137.8097	3154.9541	3754.9312
CC1C2OC2C(O)C1C	C[C@H]1[C@H]2O[C@H]2[C@@H](O)[C@H]1C	
InChI=1S/C7H12O2/c1-3-4(2)6-7(9-6)5(3)8/h3-8H,1-2H3	InChI=1S/C7H12O2/c1-3-4(2)6-7(9-6)5(3)8/h3-8H,1-2H3/t3-,4+,5-,6+,7-/m0/s1
