21
gdb 32904	3.9054	0.83739	0.72529	0.1371	88.09	-0.2012	0.0269	0.2281	1644.8683	0.181949	-387.14286	-387.133202	-387.132258	-387.178158	35.059	
C	-0.0269007137	 1.4911803791	-0.279535584	-0.381793
C	-0.0382341261	-0.0361583889	-0.1903725712	-0.156552
C	-1.414863997	-0.5968816052	 0.21694838	-0.304212
C	-1.459905716	-2.083277843	 0.2912211207	 0.356097
C	-1.6526264353	-2.9711868745	 1.3027219394	-0.269571
C	-1.567521517	-4.2805255406	 0.7221643971	-0.256188
C	-1.3274956281	-4.10175026	-0.6038951843	 0.347285
C	-1.1362591967	-5.0313243922	-1.7477869789	-0.492287
O	-1.2595568202	-2.7645238619	-0.8796678019	-0.217045
H	 0.9588841151	 1.8648449476	-0.5731010659	 0.112829
H	-0.7526672978	 1.8509367293	-1.0176021751	 0.114651
H	-0.2825405408	 1.9477880489	 0.6834151385	 0.113054
H	 0.2468555221	-0.4699311927	-1.1553833959	 0.110725
H	 0.7117524352	-0.3761152042	 0.5338938299	 0.100236
H	-1.7018491173	-0.2009019552	 1.1975493012	 0.108249
H	-2.1693308754	-0.2378905	-0.4971536335	 0.109804
H	-1.8358906073	-2.7242893744	 2.3371404974	 0.100736
H	-1.6730618329	-5.2289304969	 1.226058369	 0.101323
H	-1.8941708703	-4.8782946615	-2.5249890865	 0.134876
H	-0.155582042	-4.8963399915	-2.2188425434	 0.134614
H	-1.2080870186	-6.0645696223	-1.4007692924	 0.133169
55.6596	82.3497	98.6144	135.8706	220.0091	238.9905	266.5895	306.9058	359.563	408.2897	629.7633	636.9078	669.8407	744.8099	751.6725	794.0722	820.1563	869.3899	895.5826	960.0962	987.239	1017.4819	1041.8654	1046.5876	1064.829	1098.0489	1110.5689	1221.9048	1233.5343	1246.5643	1268.3572	1310.179	1323.9496	1382.8265	1396.4586	1412.19	1416.3703	1471.6291	1472.669	1492.2591	1493.1026	1498.7325	1509.1082	1603.6918	1657.9133	3008.3038	3026.8974	3027.9387	3035.5831	3058.9532	3075.254	3076.7539	3098.3911	3102.8101	3127.2387	3245.6675	3259.4905
CCCC1=CC=C(C)O1	CCCc1ccc(C)o1	
InChI=1S/C8H12O/c1-3-4-8-6-5-7(2)9-8/h5-6H,3-4H2,1-2H3	InChI=1S/C8H12O/c1-3-4-8-6-5-7(2)9-8/h5-6H,3-4H2,1-2H3
