20
gdb 55029	2.8801	1.05084	0.93855	3.2638	81.16	-0.2432	0.0291	0.2723	1346.8006	0.171041	-403.160942	-403.151679	-403.150735	-403.195527	34.793	
N	 0.1655238235	 0.8382190251	-1.1326437111	-0.535954
C	-0.1914520512	-0.4130335075	-1.5580553899	 0.42093
O	 0.3566065523	-0.948948145	-2.5074100771	-0.37829
C	-1.3100461223	-1.0391145747	-0.7868886155	-0.140688
C	-2.1182821135	-2.1213209636	-1.4747440935	-0.300653
C	-1.2070220798	-2.5062137069	-0.3525246849	-0.012109
C	 0.025043526	-3.3238225195	-0.5720835725	 0.020949
C	 0.9083331137	-3.6816753912	 0.5986215605	-0.271778
C	 0.0698405393	-4.7454506758	-0.0664212473	-0.2772
H	 0.9837721777	 1.2518955564	-1.5495710531	 0.258296
H	-0.1613916765	 1.211353771	-0.2586505729	 0.255625
H	-1.8381793723	-0.3798733157	-0.1048636046	 0.075458
H	-3.1909776748	-2.1305301542	-1.3179110029	 0.109658
H	-1.7889709164	-2.3603222966	-2.4800913618	 0.141566
H	-1.6940413212	-2.6995017886	 0.601357048	 0.081594
H	 0.5272441191	-3.1238719922	-1.5108161823	 0.120886
H	 1.9819550753	-3.6966639283	 0.4467707212	 0.111693
H	 0.6055598149	-3.3463240408	 1.5858198685	 0.102663
H	-0.7929280837	-5.120179133	 0.475220982	 0.105846
H	 0.5662035398	-5.491451709	-0.677144921	 0.111508
53.5572	76.8685	138.3039	190.0619	241.4334	261.7589	283.0933	383.5695	406.4691	484.3444	578.2932	631.3731	736.9562	752.672	797.8446	799.7725	834.3625	845.9987	912.4413	923.8106	962.0799	998.4243	1018.6074	1057.9072	1074.3338	1076.334	1082.5399	1124.6293	1133.1868	1152.9724	1200.7309	1206.4496	1222.6878	1253.7328	1284.9639	1318.0432	1435.6799	1447.4513	1469.4665	1483.0425	1508.6018	1617.1473	1775.1725	3121.2129	3125.3103	3130.8953	3135.7643	3150.3954	3190.6895	3203.7201	3220.3848	3230.074	3599.1447	3733.7474
NC(=O)C1CC1C1CC1	NC(=O)[C@H]1C[C@H]1C1CC1	
InChI=1S/C7H11NO/c8-7(9)6-3-5(6)4-1-2-4/h4-6H,1-3H2,(H2,8,9)	InChI=1S/C7H11NO/c8-7(9)6-3-5(6)4-1-2-4/h4-6H,1-3H2,(H2,8,9)/t5-,6-/m0/s1
