18
gdb 53708	10.08664	0.43992	0.42602	4.3853	83.69	-0.2555	0.0243	0.2799	2459.1389	0.144641	-401.927746	-401.916902	-401.915958	-401.9666	35.264	
C	-0.0751255498	 1.4654494337	 0.0112942524	-0.498893
C	-0.051802495	 0.0105252509	 0.002963492	 0.140289
C	-0.0359635766	-1.1923777473	-0.0038746139	-0.000404
C	 0.0114199946	-2.6460532133	-0.0123073829	-0.212514
O	-1.3074085804	-3.1765207968	-0.0030312314	-0.245439
C	-1.3241064636	-4.5824967917	-0.0104210129	-0.039057
C	-2.7995066539	-5.000566173	 0.000988095	-0.340847
C	-2.958877304	-6.451095152	-0.005400911	 0.247062
N	-3.0650572306	-7.6015156711	-0.0104005167	-0.301262
H	 0.9414189044	 1.8735883906	 0.001943595	 0.153011
H	-0.5992470578	 1.8601703456	-0.865718115	 0.152846
H	-0.579066902	 1.8504040412	 0.9043309812	 0.152831
H	 0.5540096139	-3.003353614	-0.9040548002	 0.119958
H	 0.5703461262	-3.0130890974	 0.8652855336	 0.119958
H	-0.8233779679	-4.9854055789	-0.9052066068	 0.111115
H	-0.8069316177	-4.9949357307	 0.8705624386	 0.111119
H	-3.286152345	-4.5837846929	 0.8887105828	 0.165118
H	-3.3024903548	-4.574269663	-0.8729979399	 0.16511
21.3629	34.5074	58.7427	93.5242	124.5672	129.4669	210.5974	242.3103	337.9532	371.8612	377.1426	398.9732	507.6605	566.9382	796.7817	798.5257	946.0963	1016.5922	1027.2906	1052.2077	1053.7816	1076.5383	1095.3757	1140.7133	1183.2614	1226.6732	1257.0757	1301.649	1303.2426	1387.4747	1414.3655	1449.1261	1470.9262	1475.375	1478.7655	1499.3171	1530.2252	2366.7785	2381.5555	2953.5926	2973.4434	2974.3489	3005.2507	3030.3824	3059.165	3092.9178	3093.1606	3102.4402
CC#CCOCCC#N	CC#CCOCCC#N	
InChI=1S/C7H9NO/c1-2-3-6-9-7-4-5-8/h4,6-7H2,1H3	InChI=1S/C7H9NO/c1-2-3-6-9-7-4-5-8/h4,6-7H2,1H3
