15
gdb 130313	3.19977	1.24691	0.98073	3.1594	72.27	-0.2313	0.0013	0.2326	1161.9294	0.112581	-416.76809	-416.759876	-416.758932	-416.801127	30.83	
N	 0.2093689162	 1.3126045682	 0.2957649122	-0.594633
C	 0.0846753742	-0.0490103836	 0.0957445729	 0.352125
N	-1.0860864073	-0.627098562	-0.0627714886	-0.22972
O	-0.7995190435	-1.9767188558	-0.3200152145	-0.17624
C	 0.526035114	-2.1482453338	-0.2858483344	-0.003211
C	 1.1679082201	-0.9815261219	-0.0339817426	 0.110011
C	 2.6415753654	-0.6951876728	 0.0502446833	-0.47934
C	 3.0231730595	-0.0037871023	 1.2832946607	 0.298232
C	 3.3089675049	 0.5882863671	 2.2900369798	-0.450152
H	 0.9585815133	 1.5599102481	 0.9296990898	 0.26054
H	-0.6648317812	 1.7565593221	 0.5437567424	 0.25965
H	 0.8790445048	-3.1534623838	-0.4627894653	 0.147045
H	 3.2025021563	-1.6333485186	-0.0310435825	 0.145588
H	 2.9535686384	-0.0801743941	-0.8054465888	 0.154301
H	 3.5829418248	 1.0893483833	 3.1856652457	 0.205806
63.4869	109.6983	225.9646	257.3301	314.2969	336.09	379.1271	442.9004	467.5865	587.8671	627.702	645.7898	658.1372	723.6242	739.0915	777.6962	846.5651	907.8231	933.3945	943.2435	954.9942	1142.892	1177.3473	1205.56	1243.8715	1304.9289	1347.4996	1458.3455	1476.3232	1550.4378	1643.9033	1679.9857	2234.7775	3011.5097	3059.9778	3253.0498	3502.3031	3539.8672	3642.5215
NC1=NOC=C1CC#C	Nc1nocc1CC#C	
InChI=1S/C6H6N2O/c1-2-3-5-4-9-8-6(5)7/h1,4H,3H2,(H2,7,8)	InChI=1S/C6H6N2O/c1-2-3-5-4-9-8-6(5)7/h1,4H,3H2,(H2,7,8)
