23
gdb 83586	2.3793	1.5908	1.4982	1.6357	82.78	-0.2486	0.0626	0.3111	1058.1817	0.209978	-388.323891	-388.315938	-388.314994	-388.355698	33.005	
O	 0.0771353039	 1.3975254942	-0.0587245024	-0.466837
C	 0.0227192429	-0.0215892189	 0.0093021293	 0.162911
C	 0.5819068576	-0.5990775168	 1.3237456594	-0.013751
C	-0.5535580235	-0.2861571578	 2.334831815	-0.237061
C	-1.8659620637	-0.2765831204	 1.4851234256	-0.237077
C	-1.4113196633	-0.584523354	 0.0332354988	-0.013773
C	-1.3512073144	-2.1007706952	-0.2446225798	-0.211546
C	-0.5227851864	-2.8444128353	 0.8200194365	-0.19214
C	 0.7952235909	-2.1164418475	 1.1450746106	-0.211549
H	-0.4060703667	 1.7587114256	 0.6910150435	 0.278129
H	 0.5865305547	-0.3612840991	-0.8653429768	 0.07196
H	 1.5243775367	-0.1165726164	 1.5985075383	 0.063113
H	-0.5884175905	-1.0201403913	 3.1451062284	 0.099907
H	-0.3887045593	 0.6856079199	 2.8117722344	 0.092075
H	-2.5985188209	-1.0054892004	 1.8436590815	 0.09991
H	-2.3586081367	 0.6999677503	 1.5364087293	 0.092068
H	-2.0427134263	-0.0905352739	-0.7109932742	 0.06311
H	-2.3644148742	-2.5176690083	-0.285616946	 0.091092
H	-0.9100056082	-2.2582025381	-1.2374562273	 0.093654
H	-1.1171830464	-2.9366365235	 1.7370461439	 0.098811
H	-0.3186987477	-3.8696641508	 0.4932367086	 0.092249
H	 1.5189048874	-2.2759348473	 0.3351298019	 0.093652
H	 1.2429496241	-2.5440117551	 2.0499501116	 0.091092
182.3972	193.0008	201.2514	271.948	297.3582	346.506	378.4794	433.3602	478.3957	598.7092	724.7769	742.0997	768.1731	816.196	838.5274	856.9632	870.9643	879.4515	953.54	958.7951	978.2323	998.4084	1040.5954	1043.245	1079.8101	1094.9103	1106.6653	1140.5195	1173.7363	1197.9843	1229.9521	1233.9315	1246.8011	1270.9124	1292.1182	1304.179	1323.4455	1336.09	1338.6056	1359.8767	1368.5051	1379.8397	1387.2601	1436.2332	1486.2293	1489.9722	1496.0571	1499.1117	1518.1363	3018.0216	3018.3954	3029.4008	3036.6948	3048.3117	3055.0047	3056.2056	3062.1375	3066.0955	3072.8201	3073.0389	3075.8359	3093.4001	3822.2621
OC1C2CCC1CCC2	O[C@H]1[C@H]2CC[C@@H]1CCC2	
InChI=1S/C8H14O/c9-8-6-2-1-3-7(8)5-4-6/h6-9H,1-5H2	InChI=1S/C8H14O/c9-8-6-2-1-3-7(8)5-4-6/h6-9H,1-5H2/t6-,7+,8+
