18
gdb 10434	3.06003	1.72935	1.38918	2.9705	68.17	-0.2555	-0.0357	0.2198	951.4903	0.153237	-384.937283	-384.929103	-384.928159	-384.969938	30.207	
O	 0.1494550938	 1.3687436493	-0.2135493347	-0.428473
C	 0.0995317763	-0.0180656292	 0.0441060557	-0.127233
C	-1.3328938427	-0.561814283	 0.0668646182	 0.216562
C	-2.0441730649	-0.4911777725	-1.3312641078	-0.257004
C	-1.7209269416	-1.9917442646	-1.5528382217	-0.20837
C	-1.4124857753	-2.1190839316	-0.0376524966	-0.278692
C	-2.1388152169	 0.0597328949	 1.1733697294	 0.113872
O	-1.7930111997	 1.0074287479	 1.8418235763	-0.275277
H	-0.2868826145	 1.7872718949	 0.5399108689	 0.295841
H	 0.665482806	-0.5073056573	-0.756436956	 0.103762
H	 0.591647732	-0.2740903154	 0.9960449302	 0.094209
H	-3.1193387154	-0.3068191714	-1.2421152922	 0.103974
H	-1.6192436929	 0.2454787232	-2.0151079328	 0.131071
H	-2.5233438129	-2.618009541	-1.9477862909	 0.104999
H	-0.8345000011	-2.1405178665	-2.1739984229	 0.114057
H	-0.5094629634	-2.6599684464	 0.2580227377	 0.109987
H	-2.2570096434	-2.5259415041	 0.5275364263	 0.10524
H	-3.1361307136	-0.4096163972	 1.3410265028	 0.081475
95.5278	111.6976	149.1168	212.8174	273.9555	326.4728	334.0226	467.4265	476.7733	569.8337	688.2564	777.3441	783.7312	857.0045	908.0944	919.8299	948.9278	964.5346	980.3751	1064.5032	1084.6999	1109.2762	1125.1193	1206.7588	1214.9785	1251.0511	1260.4794	1276.2334	1278.7433	1340.8144	1383.4669	1427.5292	1442.5235	1473.6892	1483.8706	1496.2321	1507.0834	1798.2888	2863.6418	2979.1173	3048.0099	3056.1322	3063.8523	3070.3694	3097.654	3115.9546	3128.8348	3768.4375
OCC1(CCC1)C=O	OCC1(CCC1)C=O	
InChI=1S/C6H10O2/c7-4-6(5-8)2-1-3-6/h4,8H,1-3,5H2	InChI=1S/C6H10O2/c7-4-6(5-8)2-1-3-6/h4,8H,1-3,5H2
