18
gdb 51430	3.80033	1.1794	1.08098	4.6699	72.39	-0.2392	0.0224	0.2616	1145.2342	0.149411	-439.07897	-439.071307	-439.070363	-439.11195	29.282	
O	 0.0290570184	 0.376103096	 1.2155825386	-0.317785
C	 0.0294179974	 1.3010491326	 0.4329546172	 0.147112
N	 1.1327408393	 1.7827714813	-0.2047724405	-0.301664
C	 2.4241321372	 1.1362969456	-0.1241545028	 0.061377
C	 3.6302671283	 2.0929001001	-0.4026935967	-0.119834
C	 3.4590156784	 2.602916468	 1.0652280899	-0.243243
C	 3.1052344671	 1.1113318948	 1.2788034843	 0.111278
O	 4.3331500983	 0.4277537581	 0.9963413311	-0.276688
C	 4.7787721197	 1.098079358	-0.2075743208	-0.083545
H	-0.8834209909	 1.8694457514	 0.1620156056	 0.075717
H	 0.9927909759	 2.4908157714	-0.9093725856	 0.24732
H	 2.4253808627	 0.1705659637	-0.6408693254	 0.093319
H	 3.670803182	 2.7528592021	-1.2703699702	 0.07037
H	 4.3426151017	 2.9818214758	 1.5826756174	 0.104395
H	 2.6102376606	 3.2732850345	 1.1892034727	 0.110636
H	 2.6293852007	 0.6971105357	 2.1622196236	 0.110681
H	 4.8793131658	 0.3742482202	-1.0243139656	 0.104964
H	 5.7468138476	 1.5831402908	-0.0374337126	 0.105592
37.3372	137.0857	196.0326	301.7888	334.5695	366.5448	463.152	503.6408	531.7834	654.8667	786.067	848.9551	854.6448	902.4879	921.854	937.818	951.3161	984.113	998.7396	1033.6127	1039.0836	1076.208	1081.8422	1104.0218	1131.392	1172.858	1213.7105	1219.6505	1243.4563	1262.6696	1276.2067	1290.8576	1355.8447	1387.8226	1429.5763	1485.5805	1504.7008	1528.9754	1808.3514	2928.9396	3026.7984	3049.5173	3068.0612	3084.439	3109.7825	3159.5881	3183.0339	3614.6775
O=CNC1C2CC1OC2	O=CN[C@H]1[C@H]2C[C@@H]1OC2	
InChI=1S/C6H9NO2/c8-3-7-6-4-1-5(6)9-2-4/h3-6H,1-2H2,(H,7,8)	InChI=1S/C6H9NO2/c8-3-7-6-4-1-5(6)9-2-4/h3-6H,1-2H2,(H,7,8)/t4-,5-,6-/m0/s1
