23
gdb 122635	3.75227	0.73247	0.65653	2.2039	83.24	-0.2437	0.0789	0.3226	1805.4571	0.203616	-425.407052	-425.396446	-425.395502	-425.444159	37.266	
C	-0.2870268845	 1.5198417165	 0.1161962264	-0.383162
C	 0.2751977815	 0.1039192318	-0.030938981	-0.184069
C	 0.6644255966	-0.5081935364	 1.307282476	-0.042012
O	 1.1748585041	-1.8096433964	 1.0809205548	-0.251384
C	 1.5967073656	-2.4617212326	 2.2458882918	 0.069975
C	 0.5052429625	-3.1443749934	 3.1036608664	-0.098222
O	 1.0377512383	-4.4506142346	 2.81335357	-0.293031
C	 2.1028074255	-3.9031759833	 1.9938445082	 0.11918
C	 2.0815802437	-4.4307741995	 0.5739145984	-0.388896
H	 0.4444197005	 2.1952375397	 0.5736458509	 0.116992
H	-0.5589222419	 1.9368421508	-0.8575564579	 0.119268
H	-1.1850249907	 1.5302301404	 0.7437588383	 0.117249
H	-0.4613649436	-0.5502201132	-0.5112644308	 0.108531
H	 1.1582867223	 0.1093997316	-0.6799830752	 0.107997
H	 1.426328911	 0.1131715422	 1.8093759524	 0.085957
H	-0.2105596335	-0.5475643201	 1.9776421051	 0.088761
H	 2.2894749335	-1.8245752743	 2.8137751187	 0.068992
H	 0.5212604548	-2.9206841484	 4.1777801071	 0.096173
H	-0.5149625392	-3.0162616961	 2.7195928146	 0.10136
H	 3.0776204409	-4.1008568697	 2.4605773667	 0.072654
H	 1.1400691526	-4.1847135215	 0.0794700918	 0.129885
H	 2.9018045728	-3.9987756448	-0.0083168336	 0.116831
H	 2.2030594772	-5.5182689087	 0.5884850708	 0.12097
43.6926	62.0332	79.0388	100.9706	150.1946	196.705	222.3683	233.8304	322.0558	357.8239	416.3205	450.9318	558.7934	756.24	766.6137	845.7482	874.1951	900.0884	902.8133	926.6819	996.3927	1024.1652	1044.2432	1055.7091	1092.0605	1101.2118	1138.9351	1161.3097	1168.6801	1192.2963	1208.6277	1266.4807	1271.9832	1292.1427	1316.8372	1333.6124	1348.8667	1379.64	1389.2578	1404.9769	1414.8019	1447.6085	1482.2404	1488.7363	1492.8488	1501.2535	1507.4765	1512.3488	1526.7786	2950.1878	2978.9107	2992.6714	3004.5306	3015.0372	3032.7438	3040.3196	3044.3361	3055.4254	3073.1283	3100.9894	3109.7626	3111.7152	3138.8811
CCCOC1COC1C	CCCO[C@H]1CO[C@H]1C	
InChI=1S/C7H14O2/c1-3-4-8-7-5-9-6(7)2/h6-7H,3-5H2,1-2H3	InChI=1S/C7H14O2/c1-3-4-8-7-5-9-6(7)2/h6-7H,3-5H2,1-2H3/t6-,7-/m0/s1
