17
gdb 11511	3.54378	1.32414	1.08561	3.3623	69.27	-0.2714	0.02	0.2913	1118.9956	0.140628	-363.852294	-363.84374	-363.842796	-363.88595	30.556	
C	 1.1350169696	 1.6731763526	 0.1088111553	-0.400109
C	 0.2873687264	 0.4758929468	-0.3169095651	 0.004955
O	 0.937066671	-0.1519329812	-1.4047962596	-0.247182
C	 0.1844378428	-1.1605371498	-2.0241064729	 0.13081
C	-0.8648008867	-0.7687711687	-3.0324521512	-0.289825
C	 0.4538666212	-1.3736043925	-3.4752702352	-0.286037
C	 0.0983922597	-0.470084547	 0.8087754167	 0.262335
N	-0.0516656934	-1.2159817988	 1.6785289197	-0.325671
H	 2.1321895487	 1.3410892794	 0.4057942899	 0.149576
H	 1.2277006921	 2.3605957704	-0.7349206288	 0.135295
H	 0.6690401709	 2.1942268128	 0.9484365036	 0.138784
H	-0.7150449386	 0.8134907657	-0.6214053511	 0.11817
H	-0.0016493925	-2.0265435363	-1.3916304726	 0.113806
H	-1.7679962691	-1.3645701697	-3.1005390091	 0.122589
H	-1.001799269	 0.2909851169	-3.217850573	 0.120142
H	 1.171670926	-0.7046029558	-3.9355699854	 0.129599
H	 0.468607971	-2.3896329648	-3.8520650911	 0.122762
54.9632	91.1885	149.183	205.0812	212.5264	266.6105	359.7394	388.8561	463.4144	570.6698	619.3915	754.3429	795.6652	824.53	833.222	913.7901	978.9625	1004.8474	1052.7289	1072.7862	1077.0258	1117.8539	1135.9968	1155.9267	1193.7501	1200.5556	1241.932	1331.4858	1360.7032	1404.0796	1408.7048	1455.4087	1481.3188	1494.7981	1498.4462	2353.2699	2995.0276	3057.9771	3124.653	3137.6838	3140.3071	3143.4924	3145.6367	3222.1943	3237.7443
CC(OC1CC1)C#N	C[C@@H](OC1CC1)C#N	
InChI=1S/C6H9NO/c1-5(4-7)8-6-2-3-6/h5-6H,2-3H2,1H3	InChI=1S/C6H9NO/c1-5(4-7)8-6-2-3-6/h5-6H,2-3H2,1H3/t5-/m1/s1
