18
gdb 94037	4.32946	0.86355	0.78561	2.869	78.41	-0.263	-0.0095	0.2536	1434.4048	0.148077	-401.976651	-401.967778	-401.966834	-402.011215	32.296	
O	-0.4429560873	 1.5187474585	-0.2737356589	-0.429426
C	 0.0059166875	 0.1968186853	 0.0253926988	 0.105611
C	-1.1339425165	-0.8483030271	 0.184076774	-0.246217
C	-1.0987833276	-1.7289984866	-1.0897115627	-0.316568
C	 0.2351999822	-1.386231245	-1.7163046205	 0.339564
C	 0.7527201851	-2.1107528904	-2.9352065515	-0.443703
C	 0.8990352813	-3.5529317067	-2.7139493378	 0.267041
N	 1.0042460441	-4.6881743649	-2.5267743079	-0.309216
C	 0.8438910864	-0.3769526995	-1.0921072373	-0.222032
H	-0.8309161936	 1.4995601527	-1.1557752538	 0.273036
H	 0.5702328163	 0.3167292003	 0.9553856614	 0.094024
H	-0.9467695633	-1.4659093717	 1.0668099626	 0.115463
H	-2.0900660787	-0.3428057213	 0.3375144668	 0.111669
H	-1.1754277595	-2.7969522868	-0.8582505163	 0.133875
H	-1.9210790654	-1.512355798	-1.785978115	 0.107841
H	 0.0634985084	-1.9741391577	-3.7800804177	 0.158926
H	 1.720527088	-1.7030974589	-3.2443388541	 0.159724
H	 1.7986607127	 0.0537437677	-1.3746111801	 0.100388
45.1814	86.6969	95.4099	173.4733	288.4914	322.7346	385.5507	394.1619	404.6841	486.0608	519.1695	669.2163	747.1452	777.9199	854.1005	867.2879	887.1316	942.7185	948.3985	982.3463	995.039	1060.662	1073.4769	1147.7866	1177.228	1205.776	1232.7773	1269.2881	1288.8143	1294.6378	1321.6764	1334.9317	1363.184	1431.4227	1452.8983	1478.0236	1497.5437	1714.3976	2362.7729	3013.1697	3020.9713	3057.1553	3064.2075	3074.032	3083.2508	3115.7041	3192.3668	3797.3256
OC1CCC(CC#N)=C1	O[C@H]1CCC(=C1)CC#N	
InChI=1S/C7H9NO/c8-4-3-6-1-2-7(9)5-6/h5,7,9H,1-3H2	InChI=1S/C7H9NO/c8-4-3-6-1-2-7(9)5-6/h5,7,9H,1-3H2/t7-/m0/s1
