16
gdb 133687	2.52204	1.07298	0.90107	3.5277	58.51	-0.2569	-0.0271	0.2297	1279.896	0.118278	-569.413637	-569.404257	-569.403313	-569.448993	32.783	
C	-0.1917341602	 1.5248153076	-0.0462827859	-0.418288
C	-0.2268463964	-0.0159387058	-0.0911201159	-0.063355
C	 0.5638048952	-0.5398614372	-1.2991767759	-0.354597
C	 0.4086006854	-2.0313745737	-1.5186914273	 0.286849
F	-0.8726186413	-2.3735224112	-1.722335006	-0.078574
F	 1.1106330161	-2.4404003283	-2.5848326778	-0.072835
F	 0.8450065518	-2.7339421161	-0.4565981036	-0.079258
C	 0.3390999479	-0.528121599	 1.2268877355	 0.164884
O	-0.327508651	-0.8881013577	 2.1590934857	-0.245854
H	 0.832583395	 1.8954963667	 0.0741978721	 0.126435
H	-0.593509456	 1.9445152254	-0.9733232031	 0.130099
H	-0.7893293727	 1.8989891404	 0.7887326397	 0.143045
H	-1.2654920128	-0.3535756667	-0.1512111936	 0.116792
H	 0.2331246133	-0.0404637727	-2.2143989851	 0.136872
H	 1.6342351288	-0.3353221166	-1.1854978816	 0.133263
H	 1.452874487	-0.489245695	 1.2914098031	 0.07452
43.6877	78.6871	108.6359	158.8221	233.4257	283.9308	292.7382	341.1361	369.6197	389.8656	516.5875	537.7263	595.7799	662.4506	843.3119	848.6079	910.7759	934.0668	982.3505	1059.6698	1087.2604	1148.9135	1175.6769	1196.5384	1270.998	1281.565	1317.1702	1348.4273	1392.4986	1407.5472	1427.5311	1473.9291	1497.691	1501.803	1843.212	2847.9909	3035.4945	3055.6185	3078.6591	3103.7014	3108.9769	3124.9483
CC(CC(F)(F)F)C=O	C[C@@H](CC(F)(F)F)C=O	
InChI=1S/C5H7F3O/c1-4(3-9)2-5(6,7)8/h3-4H,2H2,1H3	InChI=1S/C5H7F3O/c1-4(3-9)2-5(6,7)8/h3-4H,2H2,1H3/t4-/m0/s1
