21
gdb 121810	3.52559	0.78888	0.74999	2.5836	82.28	-0.256	0.0401	0.296	1629.3294	0.178046	-424.185994	-424.174952	-424.174008	-424.222331	39.988	
C	 0.2349275363	 1.4789023915	 0.0731511454	-0.388004
C	 0.0572856898	-0.0276876132	 0.0040232604	-0.031716
O	 0.6651512731	-0.5017375512	-1.1852618261	-0.267995
C	 0.5943469116	-1.9043308973	-1.3459390646	-0.090447
C	 1.4278378107	-2.2496264328	-2.599440491	 0.143286
C	 0.7759154734	-1.6751351717	-3.8724573465	-0.413955
O	 2.7388149544	-1.7136883167	-2.4314579228	-0.462433
C	 1.5408073484	-3.7081982901	-2.6982313884	 0.35473
C	 1.5863500018	-4.9059017141	-2.77701409	-0.471827
H	 1.2965774701	 1.7418948538	 0.087019085	 0.127202
H	-0.2275594446	 1.9614353864	-0.7924934364	 0.129725
H	-0.2309294771	 1.873971532	 0.980615982	 0.120738
H	 0.5157122915	-0.5161062132	 0.8791610083	 0.095119
H	-1.0119526391	-0.2939114	 0.0073068876	 0.094143
H	 1.0261739851	-2.4158428729	-0.4735813657	 0.105534
H	-0.446479186	-2.2393019161	-1.4673498648	 0.099794
H	 0.6337352294	-0.5980845865	-3.7532699914	 0.124401
H	 1.4287502006	-1.8592708291	-4.7278435192	 0.131861
H	-0.1957534096	-2.1406463984	-4.062169174	 0.117052
H	 2.5995553663	-0.8344570987	-2.054618349	 0.285968
H	 1.6444765741	-5.9638301114	-2.8508377888	 0.196827
56.857	74.9678	98.9733	160.3373	178.4278	193.5741	247.631	253.3333	299.468	367.0361	385.2325	405.0562	427.7811	506.6803	565.4176	577.1071	629.9832	668.9318	763.9243	821.5249	900.9265	920.78	953.8408	976.2681	1039.617	1130.1169	1145.8392	1151.4445	1164.2668	1195.4523	1201.5524	1276.9323	1297.7857	1357.7428	1394.88	1404.8837	1417.6389	1441.7686	1484.618	1488.0983	1492.4455	1499.0748	1505.6582	1533.2517	2242.3869	2967.6045	2989.2426	2996.7747	3031.7762	3045.909	3048.1939	3120.8028	3122.5829	3124.2592	3141.4253	3501.8299	3763.2227
CCOCC(C)(O)C#C	CCOC[C@@](C)(O)C#C	
InChI=1S/C7H12O2/c1-4-7(3,8)6-9-5-2/h1,8H,5-6H2,2-3H3	InChI=1S/C7H12O2/c1-4-7(3,8)6-9-5-2/h1,8H,5-6H2,2-3H3/t7-/m0/s1
