21
gdb 39283	2.58292	2.01569	1.45852	1.5839	79.43	-0.2391	0.0689	0.3079	967.9279	0.187326	-387.102327	-387.095611	-387.094666	-387.13322	28.539	
C	 0.05114382	 1.4405456665	-0.4421566871	-0.274073
C	 1.5155747584	 1.5593721064	 0.09190966	 0.001124
C	 1.7521252928	 2.428375648	 1.3518916845	-0.234153
C	 2.0355266668	 1.4302556062	 2.5026927026	-0.21803
C	 1.3002478546	 0.1391385397	 2.1020206328	-0.028146
C	-0.2354194629	 0.2053331856	 2.3168619215	-0.101446
O	-0.8534977401	-0.3201084436	 1.1493149585	-0.255141
C	-0.0170240536	-0.0417624248	 0.0441026769	 0.111362
C	 1.438283128	 0.0730677945	 0.5671223298	-0.056425
H	-0.6793222344	 2.1041987057	 0.0296785855	 0.100811
H	-0.0404255082	 1.5448149782	-1.5262651772	 0.098795
H	 2.24611642	 1.7626320109	-0.6929113241	 0.065722
H	 2.5776403095	 3.1338595818	 1.2220218896	 0.09693
H	 0.8631719536	 3.0294745158	 1.5726929834	 0.10007
H	 3.1109917855	 1.2297367267	 2.5675588063	 0.097554
H	 1.7233556886	 1.8123676678	 3.480818192	 0.095623
H	 1.7110045043	-0.7452422239	 2.5947770423	 0.070518
H	-0.5762162986	-0.3906569769	 3.1681794942	 0.105826
H	-0.5548725377	 1.2456718075	 2.4895135582	 0.086197
H	-0.2440433904	-0.7767459722	-0.730621345	 0.075606
H	 2.1857304939	-0.63336797	 0.2057303654	 0.061274
130.3191	201.1663	326.5603	371.8017	398.8085	577.6522	592.0381	626.7216	693.4821	738.1663	810.7335	823.0469	838.0025	884.808	896.3072	915.9968	944.4316	957.4333	987.4373	1014.0639	1017.9709	1039.1619	1050.7605	1080.7509	1125.4844	1147.2622	1181.7038	1194.3706	1207.9153	1223.0851	1239.766	1254.1098	1270.6845	1280.9326	1292.1647	1319.7175	1323.8441	1333.2504	1346.3966	1363.9659	1396.9051	1471.2507	1490.2551	1502.5385	1526.7467	2973.647	3035.0474	3043.0822	3054.0966	3069.6498	3070.69	3080.3923	3085.9393	3087.0588	3094.1319	3107.3665	3115.3409
C1C2CCC3COC1C23	C1[C@H]2CC[C@H]3CO[C@@H]1[C@@H]23	
InChI=1S/C8H12O/c1-2-6-4-9-7-3-5(1)8(6)7/h5-8H,1-4H2	InChI=1S/C8H12O/c1-2-6-4-9-7-3-5(1)8(6)7/h5-8H,1-4H2/t5-,6+,7+,8+/m1/s1
