20
gdb 71698	3.34749	1.54528	1.43132	1.5092	81.82	-0.2163	0.0811	0.2973	1023.1665	0.171581	-365.973744	-365.966008	-365.965064	-366.005304	31.531	
C	-0.0175640373	 1.4706946742	 0.0919968308	-0.487934
C	-0.071188098	-0.032273046	 0.0708705214	 0.32534
C	-1.2933014748	-0.7828782057	-0.4240729277	-0.292122
C	-0.7426934188	-2.1889192052	-0.3523254409	-0.125187
C	 0.2497933265	-2.3185724505	 0.8034092764	-0.169982
C	 0.6816050239	-0.8689441207	 1.0451321135	-0.091026
N	 1.1878456451	-0.7265043257	-0.3638497957	-0.233458
C	 0.7414858947	-2.1592784221	-0.6133521492	 0.375452
C	 1.5331423788	-3.023592955	-1.537819926	-0.504409
H	 0.9537458283	 1.8177888178	 0.453892158	 0.129701
H	-0.1670155833	 1.8808514058	-0.9124345223	 0.122337
H	-0.7955187738	 1.8799161384	 0.7457462289	 0.116144
H	-2.1601220588	-0.6212205884	 0.2267897953	 0.102116
H	-1.56698525	-0.4908780356	-1.4446346484	 0.10278
H	-1.3160546632	-3.0588246576	-0.6487554596	 0.086446
H	 0.3030460711	-3.1548396762	 1.4865538329	 0.088309
H	 1.2455391128	-0.4899207344	 1.8904005218	 0.087404
H	 2.5870747932	-3.0547863064	-1.2430185259	 0.127703
H	 1.1461658961	-4.0476006874	-1.5371085523	 0.116699
H	 1.4839185874	-2.6417316895	-2.5644315711	 0.123685
181.1915	192.9032	211.0577	230.6485	288.5826	340.9278	424.6222	540.2589	568.1392	617.2423	706.1104	749.28	774.2741	794.6582	846.9677	874.5522	893.5941	909.1444	936.9606	975.8071	978.5737	1016.1458	1024.6683	1029.8261	1054.8864	1099.1559	1120.5727	1170.1579	1189.0826	1206.2262	1226.0293	1247.7988	1286.6506	1327.0131	1393.0101	1408.012	1420.6064	1460.3905	1476.3904	1487.044	1490.9774	1495.6979	1499.8252	3026.4166	3032.3485	3036.675	3076.3888	3089.346	3095.913	3105.4095	3117.2683	3167.5415	3192.8015	3209.6815
CC12CC3C4C1N2C34C	C[C@]12C[C@@H]3[C@@H]4[C@H]1N2[C@]34C	
InChI=1S/C8H11N/c1-7-3-4-5-6(7)9(7)8(4,5)2/h4-6H,3H2,1-2H3	InChI=1S/C8H11N/c1-7-3-4-5-6(7)9(7)8(4,5)2/h4-6H,3H2,1-2H3/t4-,5-,6-,7+,8-,9?/m1/s1
