22
gdb 107794	2.4824	1.56043	1.23577	1.992	84.48	-0.2303	0.0709	0.3013	1134.1018	0.194265	-367.15386	-367.145099	-367.144155	-367.187082	34.174	
C	-0.1548281075	 1.5306864597	 0.0931888421	-0.38458
C	-0.0034837046	 0.0038360187	 0.048111517	-0.311444
C	 0.6931483688	-0.5083917917	-1.1900772787	 0.29265
C	 0.0967740693	-0.37595189	-2.6064612393	-0.190899
N	 0.8189782044	-1.6194314173	-3.029509051	-0.153413
C	 2.1372895118	-1.5702514732	-2.2938934932	-0.050487
C	 0.9153309916	-2.0234486456	-1.5987978717	-0.119422
C	 2.2313411358	-0.3016704919	-1.4471314039	-0.014189
C	 2.8087420835	 0.983265204	-2.0310610214	-0.432821
H	 0.8176767548	 2.0312722431	 0.1204590658	 0.123509
H	-0.6951972437	 1.9025561379	-0.783859414	 0.121103
H	-0.7120768402	 1.840362882	 0.9824118946	 0.114911
H	 0.5395228216	-0.338641927	 0.9388376259	 0.097016
H	-0.9986319702	-0.4577172877	 0.1045804758	 0.098405
H	-0.977112271	-0.5851370984	-2.6279644508	 0.102433
H	 0.3045894354	 0.5208760919	-3.200523885	 0.093171
H	 2.936697704	-2.1584500269	-2.7268001582	 0.091151
H	 0.5886176757	-2.9769264506	-1.2040916037	 0.09185
H	 2.7597645816	-0.5561157536	-0.5199694918	 0.07371
H	 2.3111133085	 1.2824091227	-2.9573394038	 0.122476
H	 2.7359909196	 1.8156069658	-1.3234526216	 0.117463
H	 3.8706971309	 0.8445797682	-2.2639369531	 0.117405
75.0583	138.9342	181.6038	205.2896	237.7376	280.3161	330.0104	355.847	486.2126	560.9445	633.1781	679.675	751.8987	776.6094	796.5158	824.0596	867.2544	901.5864	949.362	952.963	980.2818	990.4564	1014.2109	1034.7402	1066.3395	1087.6224	1109.0673	1129.2388	1149.5321	1169.5626	1188.36	1207.3425	1237.6396	1268.1741	1301.8025	1328.128	1344.4874	1376.9289	1392.9122	1406.892	1415.1084	1484.0831	1489.0851	1494.1666	1500.9419	1507.3114	1518.1303	3011.102	3028.9842	3032.6045	3036.079	3039.4552	3042.2645	3089.2427	3092.9837	3103.8379	3110.8427	3116.1455	3188.5255	3202.8905
CCC12CN3C(C13)C2C	CC[C@]12CN3[C@H]([C@@H]13)[C@H]2C	
InChI=1S/C8H13N/c1-3-8-4-9-6(5(8)2)7(8)9/h5-7H,3-4H2,1-2H3	InChI=1S/C8H13N/c1-3-8-4-9-6(5(8)2)7(8)9/h5-7H,3-4H2,1-2H3/t5-,6+,7+,8-,9?/m1/s1
