15
gdb 12425	3.60373	2.07497	1.42564	2.8842	71.1	-0.2142	-0.0244	0.1898	846.275	0.121683	-362.715676	-362.70909	-362.708146	-362.74632	25.63	
O	 0.0331217053	-0.0928689776	 0.0135199147	-0.351102
C	-0.0443685089	 1.1160457839	 0.0221769262	 0.385374
C	-1.3511976399	 1.9007254207	 0.0140323217	-0.356244
C	-1.4784105826	 2.7549143501	-1.2191014323	-0.107516
C	-0.6786525003	 3.8072185426	-1.4549689403	-0.063089
C	 0.472299306	 4.1547101478	-0.6504325769	-0.11452
C	 1.2511735773	 3.2798514911	 0.020021226	-0.01043
N	 1.101453367	 1.9009821993	 0.0827517206	-0.308466
H	-2.15839502	 1.172687633	 0.0901586704	 0.130262
H	-1.3652259536	 2.538165393	 0.9089764152	 0.129395
H	-2.266028769	 2.5045695425	-1.9226871853	 0.102876
H	-0.8857008471	 4.4471867927	-2.3095083082	 0.096236
H	 0.7912173382	 5.1920695888	-0.6338123188	 0.096611
H	 2.1362591352	 3.637153986	 0.5375997418	 0.113887
H	 1.9311797623	 1.3540828763	 0.2661955351	 0.256724
122.5227	189.295	335.0651	359.2305	391.2174	481.5895	579.4699	595.9653	638.219	710.6868	741.7811	787.3147	884.2923	899.4933	938.253	957.4325	974.0101	987.2213	1008.7101	1116.5994	1181.7244	1238.1971	1257.2213	1306.5908	1322.8362	1407.7921	1460.0377	1463.9708	1485.298	1650.4992	1695.1697	1801.9531	3014.2662	3136.4388	3150.862	3167.5724	3183.2804	3188.2794	3602.5231
O=C1CC=CC=CN1	O=C1CC=CC=CN1	
InChI=1S/C6H7NO/c8-6-4-2-1-3-5-7-6/h1-3,5H,4H2,(H,7,8)	InChI=1S/C6H7NO/c8-6-4-2-1-3-5-7-6/h1-3,5H,4H2,(H,7,8)
