16
gdb 43208	2.38669	1.68988	1.20792	1.8293	75.21	-0.2342	-0.037	0.1972	1039.9156	0.123178	-400.677249	-400.669252	-400.668308	-400.710277	29.972	
O	-0.023571235	-0.0047929526	-0.4134849109	-0.273351
C	-0.040393849	 1.1556993322	-0.1496878616	 0.375441
C	-1.1216805588	 2.2043525118	 0.1338074634	-0.10092
C	-1.646031753	 2.2463066815	 1.5896337236	-0.252951
C	-0.4483738954	 3.1846151294	 1.8961945996	-0.172447
N	-0.0473022679	 3.23236405	 0.4464206859	-0.144311
C	 1.0513620702	 2.2577430581	 0.0791556689	-0.28264
C	 2.1237764249	 2.0033204346	 1.0103972666	 0.337541
C	 3.0038699473	 1.7708978785	 1.7965755873	-0.437382
H	-1.8220813628	 2.4050766462	-0.6812972315	 0.10869
H	-2.6240401654	 2.7219534861	 1.6768522396	 0.122571
H	-1.6727907475	 1.2889417433	 2.1134346676	 0.126753
H	-0.7170399639	 4.1772178956	 2.2651320779	 0.116673
H	 0.3204187765	 2.7651529283	 2.5505373734	 0.125926
H	 1.4620289459	 2.556089587	-0.8951444499	 0.142918
H	 3.7903987638	 1.5678915601	 2.4811255901	 0.207488
57.0877	119.2328	162.6601	191.9116	346.469	355.976	484.9355	510.674	576.5529	608.1358	664.197	677.3272	733.1883	776.5981	819.6415	875.9491	907.2352	939.183	981.869	1027.08	1060.7433	1073.933	1080.8672	1169.4915	1183.1122	1196.8175	1222.6043	1246.9169	1281.104	1306.6278	1321.6759	1487.0165	1510.982	1907.7845	2229.4522	3015.8372	3060.726	3074.2836	3081.5181	3106.2797	3134.7821	3500.5041
O=C1C2CCN2C1C#C	O=C1[C@H]2CCN2[C@H]1C#C	
InChI=1S/C7H7NO/c1-2-5-7(9)6-3-4-8(5)6/h1,5-6H,3-4H2	InChI=1S/C7H7NO/c1-2-5-7(9)6-3-4-8(5)6/h1,5-6H,3-4H2/t5-,6+/m0/s1
