21
gdb 40313	2.89762	1.30626	1.05702	2.6369	81.48	-0.2319	0.0645	0.2964	1210.2226	0.184022	-383.197529	-383.188905	-383.187961	-383.231173	33.34	
C	-0.3136989084	 1.3571013816	-0.1097985673	-0.259
C	 1.1461830073	 1.0255662344	 0.0818574839	-0.302022
C	 0.1170495708	-0.0735592926	 0.1049670676	-0.050284
C	-0.2614381426	-0.8316360426	 1.3515248425	 0.282061
C	 0.8129137666	-1.4319113258	 2.1895773613	-0.268274
N	 0.0313974328	-0.2817550331	 2.6830079691	-0.362083
C	-1.6037208316	-1.5121764599	 1.2520746237	-0.030537
C	-2.3219808353	-1.9925201426	 2.4534387056	-0.252725
N	-2.8197942339	-0.8163717308	 1.7121253745	-0.327784
H	-0.8225075799	 1.8562595056	 0.7079705977	 0.116807
H	-0.6576921162	 1.6546071675	-1.0936604867	 0.119197
H	 1.809236091	 1.0784559532	-0.7743273088	 0.117994
H	 1.6180667666	 1.3309241072	 1.0112657652	 0.106794
H	 0.0935980957	-0.7017502824	-0.782289681	 0.092172
H	 0.6337973905	-2.3639414997	 2.7176824695	 0.11873
H	 1.8430851646	-1.2596997132	 1.8891882244	 0.11397
H	 0.5806697887	 0.5704962038	 2.6135865145	 0.230737
H	-1.7486189996	-2.0530534126	 0.3183385805	 0.083042
H	-2.95042012	-2.8762794341	 2.387529904	 0.109937
H	-1.855761182	-1.8187061281	 3.4182214314	 0.127585
H	-2.5240978951	 0.0121851842	 2.2268298685	 0.23368
68.5874	75.641	174.5578	211.2231	255.3552	283.4851	396.5636	404.5525	518.8054	543.7556	672.1242	779.2473	804.7685	828.1956	847.2747	882.4261	888.0659	923.6971	936.8446	962.0901	970.6637	991.5568	1021.6188	1054.4403	1060.6462	1079.8739	1111.8021	1120.4663	1137.8545	1152.6432	1154.119	1195.2717	1202.8012	1217.7259	1243.7799	1258.3986	1283.1762	1309.4671	1372.0509	1403.5397	1438.9971	1470.9687	1495.9648	1503.2887	1513.3198	3108.8527	3112.8968	3119.3456	3124.8328	3133.5277	3138.1753	3198.3108	3203.9964	3205.8811	3224.3944	3476.4244	3508.085
C1CC1C1(CN1)C1CN1	C1CC1[C@]1(CN1)[C@H]1CN1	
InChI=1S/C7H12N2/c1-2-5(1)7(4-9-7)6-3-8-6/h5-6,8-9H,1-4H2	InChI=1S/C7H12N2/c1-2-5(1)7(4-9-7)6-3-8-6/h5-6,8-9H,1-4H2/t6-,7-/m1/s1
