20
gdb 121474	5.11364	0.57531	0.54528	4.1868	81.87	-0.2392	-0.0194	0.2198	2053.0592	0.166846	-440.292241	-440.2814	-440.280456	-440.329968	36.886	
C	-0.0275081286	 1.4626116583	-0.0221748573	-0.384361
C	-0.5730099329	 0.2022978208	 0.6220018055	-0.056994
O	-1.1121973314	-0.6237924775	-0.4165750238	-0.202602
C	-1.5632082353	-1.8324872553	-0.0341527304	 0.129905
N	-2.0917397365	-2.6014552908	-0.8792175043	-0.249441
C	-2.5842619526	-3.9097651616	-0.4848966203	-0.031194
C	-2.6020046464	-4.2937545467	 0.9962413716	-0.412914
C	-3.9675043431	-4.0696970699	-1.1250594707	 0.160877
O	-4.8601951316	-4.7306351494	-0.6629019643	-0.247266
H	 0.3898324615	 2.1238262836	 0.7426978196	 0.122526
H	 0.7599578266	 1.2178952182	-0.7399039274	 0.136545
H	-0.8205311401	 1.9981023041	-0.550782629	 0.138222
H	 0.2205672341	-0.3408907352	 1.1529828461	 0.108784
H	-1.3615274676	 0.4433976132	 1.3476721194	 0.110998
H	-1.4153781135	-2.0510325866	 1.0308989033	 0.083207
H	-1.9661337968	-4.6479483165	-1.0278041761	 0.116254
H	-3.0901901232	-5.2639822682	 1.1058632067	 0.141834
H	-1.5911081685	-4.3618666355	 1.4078521872	 0.114443
H	-3.1745190525	-3.5706785604	 1.5860821254	 0.124509
H	-4.0707431515	-3.5187714244	-2.0839418008	 0.096669
33.6124	41.0052	90.6377	108.9755	151.7096	209.1228	245.507	254.4804	268.5515	276.6137	359.0161	446.8746	492.0284	553.9257	656.7561	809.775	818.255	900.7082	921.8035	963.9471	994.784	1065.8285	1102.906	1119.0902	1139.4336	1161.9832	1182.3744	1253.0766	1299.3561	1304.2581	1318.9128	1384.6439	1396.3031	1406.8235	1414.1976	1439.1806	1484.051	1489.9394	1498.3491	1499.2499	1522.7923	1772.9808	1834.7036	2915.7704	2947.56	3001.3259	3038.3082	3042.3358	3047.6043	3050.2366	3112.1816	3125.5985	3130.2626	3137.2584
CCOC=NC(C)C=O	CCOC=N[C@@H](C)C=O	
InChI=1S/C6H11NO2/c1-3-9-5-7-6(2)4-8/h4-6H,3H2,1-2H3	InChI=1S/C6H11NO2/c1-3-9-5-7-6(2)4-8/h4-6H,3H2,1-2H3/t6-/m0/s1
