20
gdb 32573	1.95362	1.8317	1.02798	1.0618	82.75	-0.171	0.0611	0.2322	1202.0315	0.170441	-403.191588	-403.181919	-403.180975	-403.226022	35.78	
C	 0.0410382954	 1.5932298354	 0.0401560445	-0.377261
C	 0.0024149496	 0.0644638313	-0.0480713539	-0.153721
N	 0.6631666594	-0.4584969407	-1.2331993096	-0.089898
C	 0.0715025262	-0.7871694893	-2.4528414716	 0.278076
C	-1.4010777095	-0.6980380809	-2.6767460216	-0.504715
C	 1.0745412322	-1.1883050722	-3.2983105045	-0.21694
C	 2.3198704447	-1.1033533129	-2.6010327699	-0.304924
C	 2.0152980095	-0.6489269419	-1.3434383685	 0.349458
O	 2.7747226146	-0.3661356636	-0.2477185232	-0.448141
H	 1.0745747931	 1.9469760766	 0.0800821985	 0.138152
H	-0.4455771726	 2.0498134195	-0.8268759541	 0.125253
H	-0.4748878767	 1.9340452343	 0.9436328055	 0.114067
H	 0.4893118159	-0.3713941748	 0.8288598843	 0.128816
H	-1.0307340461	-0.292307767	-0.0564526527	 0.115165
H	-1.7959661769	 0.3171929391	-2.539413345	 0.120791
H	-1.6239814656	-0.9979318955	-3.7037017707	 0.131289
H	-1.9751916159	-1.3589375111	-2.0133801082	 0.122144
H	 0.9340383637	-1.5164417404	-4.3174617079	 0.085013
H	 3.3027239179	-1.3444714489	-2.9756723899	 0.081538
H	 3.683684841	-0.6084236971	-0.4466171115	 0.305837
63.8165	97.1196	177.4015	186.6415	218.6433	224.2419	285.0416	308.9375	319.3906	404.2819	503.8555	583.7368	623.6835	664.3126	705.9851	714.6668	725.7531	772.9875	794.2875	966.5392	979.5592	1016.177	1039.3388	1062.9487	1101.1422	1142.8382	1185.7729	1243.9794	1264.3107	1316.9602	1325.7359	1391.2915	1408.641	1418.2909	1422.3729	1478.2913	1481.3147	1491.9371	1495.5419	1506.4033	1544.4585	1579.2757	1625.7721	3004.735	3041.375	3043.6937	3063.521	3101.4474	3113.8884	3115.3712	3130.6112	3235.2203	3250.0279	3851.5744
CCN1C(C)=CC=C1O	CCn1c(C)ccc1O	
InChI=1S/C7H11NO/c1-3-8-6(2)4-5-7(8)9/h4-5,9H,3H2,1-2H3	InChI=1S/C7H11NO/c1-3-8-6(2)4-5-7(8)9/h4-5,9H,3H2,1-2H3
