16
gdb 124164	3.54038	0.99332	0.78029	2.3127	85.6	-0.1936	0.0059	0.1995	1429.3789	0.125343	-396.926036	-396.916937	-396.915993	-396.961192	32.388	
C	-0.0346058991	 1.4254630982	 0.0000358619	-0.509555
C	-0.0036703812	-0.028713739	-0.0075595695	 0.205393
C	 0.0509922625	-1.2348025548	-0.0079050737	-0.087624
C	 0.032382941	-2.6495986113	-0.0110195549	 0.181902
N	 1.1448707628	-3.4005745823	-0.0792006925	-0.300456
N	 0.6960706137	-4.655696158	-0.0667628208	-0.199332
C	-0.6630542638	-4.7577275773	 0.01362265	-0.107586
C	-1.1382409171	-3.46297467	 0.0511077576	 0.099528
N	-2.4507433228	-3.0043319243	 0.195939613	-0.621654
H	 0.9722945792	 1.8353239728	 0.1358828867	 0.154913
H	-0.4303149657	 1.8267286867	-0.9401931627	 0.146191
H	-0.6598397448	 1.8088918084	 0.814422844	 0.148127
H	 1.361473124	-5.407673683	-0.1148491271	 0.274587
H	-1.1656919691	-5.7107087712	 0.0408397901	 0.125147
H	-3.1296006454	-3.5414861345	-0.3268432308	 0.243099
H	-2.5272641442	-2.0240620104	-0.0466579014	 0.247319
24.532	82.6868	108.6024	218.1679	259.0522	265.4112	328.5741	380.1935	459.7818	474.6549	506.9776	570.3266	649.9251	696.9131	713.6773	739.2459	789.9222	944.3473	1001.8041	1050.808	1053.0735	1071.9849	1112.9443	1202.0012	1287.6337	1339.6712	1390.6959	1412.9287	1475.151	1477.0483	1478.2739	1525.9997	1621.6856	1652.9001	2354.5919	3023.0522	3079.7683	3088.2855	3266.978	3533.1793	3625.4883	3680.1403
CC#CC1=NNC=C1N	CC#Cc1n[nH]cc1N	
InChI=1S/C6H7N3/c1-2-3-6-5(7)4-8-9-6/h4H,7H2,1H3,(H,8,9)	InChI=1S/C6H7N3/c1-2-3-6-5(7)4-8-9-6/h4H,7H2,1H3,(H,8,9)
