15
gdb 52370	5.9594	0.59682	0.55189	2.6313	71.18	-0.2646	-0.0504	0.2142	1860.5054	0.108502	-457.757487	-457.747767	-457.746823	-457.794146	32.323	
O	-0.488874888	 0.6935839056	 0.7700244772	-0.225886
C	 0.1303430096	 1.0045308804	-0.2124758212	 0.154382
C	 1.3541794635	 1.8980124881	-0.2122251733	-0.29123
C	 1.2175432007	 3.0438277615	-1.2079965593	-0.075393
O	 2.5012424355	 3.6903869187	-1.2885838846	-0.232212
C	 2.5675389392	 4.7252251942	-2.1485906722	 0.297487
O	 1.6489699858	 5.1127059767	-2.825592765	-0.348218
C	 3.8909205127	 5.3071730332	-2.1506689171	 0.223554
C	 4.9718126134	 5.8296068067	-2.192449744	-0.352955
H	-0.1637140038	 0.6270672721	-1.2198648688	 0.080637
H	 1.5331385522	 2.2632632079	 0.8014388311	 0.138684
H	 2.2120551261	 1.2813092673	-0.5149111556	 0.139311
H	 0.9325441247	 2.6873868339	-2.2038306434	 0.132862
H	 0.4663868	 3.7738418665	-0.8916648258	 0.142493
H	 5.9280322184	 6.2925480073	-2.229254728	 0.216483
40.5525	55.8616	67.9027	105.877	152.0104	198.1039	294.4504	304.4629	338.1182	513.5188	564.6812	608.4628	662.9163	702.2772	768.9299	778.4002	860.9249	918.5375	996.8258	1040.7553	1109.9658	1134.966	1229.2643	1248.0503	1278.0465	1304.4533	1413.1715	1431.7257	1466.8579	1513.4444	1794.8477	1841.8129	2238.7683	2860.0743	3026.4765	3049.3715	3093.4538	3122.2561	3496.3381
O=CCCOC(=O)C#C	O=CCCOC(=O)C#C	
InChI=1S/C6H6O3/c1-2-6(8)9-5-3-4-7/h1,4H,3,5H2	InChI=1S/C6H6O3/c1-2-6(8)9-5-3-4-7/h1,4H,3,5H2
