12
gdb 22464	2.37416	0.90884	0.65724	3.1008	83.29	-0.2565	-0.1006	0.1559	1554.2181	0.073455	-435.374715	-435.365378	-435.364434	-435.410598	31.394	
O	-0.0717367532	 1.3479779426	 0.0096216823	-0.358662
N	 0.0672493593	-0.0153756372	 0.0010119643	-0.149954
C	-1.0786551104	-0.6280286275	 0.0089330695	 0.080336
C	-1.0613886578	-2.0535152379	 0.0011010818	 0.288743
C	-1.0971670375	-3.2552713454	-0.0050361155	-0.440122
C	-2.3377656075	 0.037338219	 0.0246495615	 0.165727
C	-3.416530992	 0.5829732837	 0.0379920907	-0.031363
C	-4.6812171037	 1.2761582981	 0.0539846797	 0.015648
O	-5.7577433064	 0.7256852597	 0.0603771906	-0.219536
H	 0.8431939931	 1.6553081987	 0.0023322548	 0.324924
H	-1.1207839888	-4.3173864971	-0.0106679521	 0.214142
H	-4.5901646853	 2.3803133532	 0.0601280821	 0.110117
32.8216	58.871	130.4266	161.1306	178.3729	199.5592	332.6607	382.4325	447.7429	468.2459	510.0556	573.2302	623.5963	627.786	673.5304	708.1325	759.2951	1018.6674	1031.765	1063.1101	1291.0167	1396.3536	1419.9614	1607.2437	1763.7046	2238.8804	2314.7576	2933.7596	3500.7174	3795.2134
ON=C(C#C)C#CC=O	ON=C(C#C)C#CC=O	
InChI=1S/C6H3NO2/c1-2-6(7-9)4-3-5-8/h1,5,9H	InChI=1S/C6H3NO2/c1-2-6(7-9)4-3-5-8/h1,5,9H
