25
gdb 122984	4.35091	0.5474	0.5286	1.377	90.04	-0.2615	0.0807	0.3422	2181.0617	0.227385	-389.481976	-389.470904	-389.46996	-389.518933	40.438	
C	 0.0762170876	 1.5508864324	 0.3965067031	-0.461007
C	-0.0027949894	 0.0693793542	 0.0748928061	 0.392989
C	-1.3486240689	-0.4260946106	-0.4359810771	-0.265375
C	-1.7730954026	 0.1603264422	-1.7901803952	-0.185229
C	-3.0992584885	-0.4151857147	-2.2958790042	-0.161949
C	-3.529197974	 0.1670263571	-3.6355711541	-0.07564
O	-4.7622163868	-0.435027848	-4.0027330638	-0.42186
C	 1.240285739	-0.5969176821	-0.4691025658	-0.293841
C	 0.7947737235	-0.8686635883	 0.9494998367	-0.314874
H	 1.0604553561	 1.8135869155	 0.7969902855	 0.110363
H	-0.0919862012	 2.1709708598	-0.4907477443	 0.115936
H	-0.6732488624	 1.8327193313	 1.1461198709	 0.112013
H	-1.3146405959	-1.5199749928	-0.521584239	 0.089543
H	-2.1235030042	-0.2047349439	 0.3120105609	 0.091919
H	-1.8597730586	 1.2517167447	-1.7115752753	 0.095433
H	-0.9810716854	-0.0306787446	-2.5269241407	 0.095443
H	-3.0244062998	-1.5048680123	-2.3996515252	 0.102479
H	-3.8963059386	-0.2276249995	-1.5655335599	 0.103272
H	-3.6310970446	 1.2617020541	-3.5493527181	 0.081744
H	-2.7507179912	-0.0267209514	-4.392163702	 0.081948
H	-5.034366334	-0.0698256315	-4.8494723661	 0.28403
H	 1.1210395475	-1.390514129	-1.1999802638	 0.105657
H	 2.1269759435	 0.0102482251	-0.6192699194	 0.105335
H	 1.3790068993	-0.4420389255	 1.7584574489	 0.10538
H	 0.3764996596	-1.844469332	 1.174573172	 0.10629
57.9548	60.5915	96.6954	128.1974	143.5948	217.268	227.7605	264.7169	282.0355	342.1818	357.8039	404.0331	426.2451	520.2875	723.0283	744.4647	786.5462	799.6455	867.2327	908.3416	931.1441	952.8016	957.9879	1014.0786	1026.1695	1045.9339	1058.322	1061.7326	1078.6634	1088.7043	1109.3804	1140.8232	1188.6224	1203.9849	1227.0849	1274.01	1290.0852	1315.3262	1318.8272	1324.5173	1356.8615	1374.4688	1401.4467	1420.5877	1463.7037	1469.9384	1478.5303	1490.722	1495.5686	1501.8424	1506.4566	1513.0084	1529.3619	2955.7804	2980.2003	3001.371	3014.5558	3022.7583	3029.0354	3032.9945	3051.6801	3075.8886	3083.3813	3098.1279	3123.0572	3127.8887	3199.6584	3214.2324	3830.5156
CC1(CCCCO)CC1	CC1(CCCCO)CC1	
InChI=1S/C8H16O/c1-8(5-6-8)4-2-3-7-9/h9H,2-7H2,1H3	InChI=1S/C8H16O/c1-8(5-6-8)4-2-3-7-9/h9H,2-7H2,1H3
