22
gdb 98410	2.5287	1.19038	0.97512	1.6749	84.42	-0.2246	-0.0212	0.2034	1347.0871	0.191229	-404.345682	-404.33523	-404.334285	-404.381059	38.429	
C	-0.3211293415	 1.627639816	-0.1232541949	-0.378336
C	-0.3991777865	 0.1280399585	-0.3968425847	-0.292389
C	 0.8411929153	-0.4218521299	-1.089550303	 0.324099
O	 1.7683837582	 0.3099520708	-1.3772018094	-0.321839
C	 0.8895976801	-1.9094370185	-1.3692628768	 0.226798
C	-0.3948131665	-2.7090898758	-1.265936455	-0.472032
C	 1.9537269044	-2.3514991801	-2.3347421692	-0.263097
N	 2.0903967329	-2.6683257918	-0.9315405855	-0.110833
C	 3.1640756962	-2.0319411141	-0.1739036551	-0.329626
H	 0.5313495016	 1.8642957805	 0.5182777279	 0.130585
H	-0.1904956941	 2.1874683011	-1.0526492718	 0.131733
H	-1.2336910652	 1.9766337	 0.3680229362	 0.10821
H	-0.5473672937	-0.4377009341	 0.5335379489	 0.125764
H	-1.2747262372	-0.1147683819	-1.0132823547	 0.12565
H	-1.1506775724	-2.3509095958	-1.9734396968	 0.117832
H	-0.1847058929	-3.7571695594	-1.4892041299	 0.130691
H	-0.8237078023	-2.6663668275	-0.2598457996	 0.121388
H	 1.7366933892	-3.1875368201	-2.9963354756	 0.110272
H	 2.5827789346	-1.5663227937	-2.7479015393	 0.131682
H	 3.3972873529	-1.0083213403	-0.4879913779	 0.143489
H	 2.895015437	-2.0256309067	 0.8874287348	 0.116906
H	 4.0589003998	-2.6515834272	-0.2898635782	 0.123054
49.9932	89.5027	186.2466	187.2903	198.9231	203.3138	240.3287	259.2431	315.6967	346.3366	400.5582	419.0482	451.7937	558.4067	589.8318	713.3498	725.1262	817.9465	833.7955	933.9914	980.3382	988.1292	1029.9139	1058.787	1079.8949	1102.5021	1116.9198	1132.2457	1163.7818	1166.5618	1213.292	1279.6761	1283.731	1350.7422	1377.8462	1412.9932	1415.3872	1443.8137	1448.2215	1484.5042	1488.5885	1492.226	1495.9188	1497.1958	1499.1647	1512.7975	1768.3716	3021.0489	3022.4772	3036.6631	3049.1353	3051.7939	3093.5011	3093.6942	3099.4152	3100.8613	3122.886	3127.2499	3128.4693	3188.1936
CCC(=O)C1(C)CN1C	CCC(=O)[C@@]1(C)CN1C	
InChI=1S/C7H13NO/c1-4-6(9)7(2)5-8(7)3/h4-5H2,1-3H3	InChI=1S/C7H13NO/c1-4-6(9)7(2)5-8(7)3/h4-5H2,1-3H3/t7-,8?/m1/s1
