16
gdb 50309	2.98151	1.39586	1.05231	10.5587	75.08	-0.2001	-0.0048	0.1953	1111.506	0.125566	-437.851752	-437.844083	-437.843139	-437.88429	28.715	
O	-0.3276167916	 0.0361507867	 0.2448248079	-0.3092
C	-0.0469767623	 1.2185868504	 0.1680825122	 0.063191
C	 1.2296294371	 1.8064262339	-0.029480067	-0.095099
N	 1.2623455703	 3.3013679044	-0.1077050291	-0.291133
H	 0.8851834946	 3.6410022999	-0.9972033688	 0.302906
H	 0.6987952114	 3.7358982718	 0.6287573014	 0.299682
C	 2.6959475846	 3.7209929583	-0.0057441475	-0.061046
C	 3.4153720808	 3.2711297433	 1.2253918795	-0.289893
C	 3.5277634526	 2.4786096901	-0.0590268115	-0.134647
C	 2.5591838484	 1.2860006639	-0.1343731444	 0.353795
O	 2.9414350639	 0.1361953887	-0.2371263656	-0.361922
H	-0.8634832528	 1.9960056159	 0.2652289418	-0.014421
H	 2.9134725275	 4.657508491	-0.5018639865	 0.128695
H	 4.2549202664	 3.8871269414	 1.5289744023	 0.138512
H	 2.8452068468	 2.8335253691	 2.0390061895	 0.147982
H	 4.4650839825	 2.4251239113	-0.5965065843	 0.122598
71.4776	169.4142	194.9476	234.5268	275.8749	375.1663	426.9202	478.2031	598.3858	688.3288	710.3088	750.6176	820.3221	824.6608	918.1483	927.3546	984.211	1005.1017	1023.7081	1046.2987	1077.3523	1097.5278	1116.2731	1142.3211	1197.851	1228.3104	1268.5184	1299.2125	1392.2154	1426.2271	1468.2683	1478.8617	1653.649	1736.8858	1798.8042	2666.0036	3129.7119	3200.5575	3211.9353	3222.4582	3372.0204	3408.2144
O=C[C-]1[NH2+]C2CC2C1=O	O=C[C]1[NH2][C@H]2C[C@H]2C1=O	
InChI=1S/C6H7NO2/c8-2-5-6(9)3-1-4(3)7-5/h2-4H,1,7H2	InChI=1S/C6H7NO2/c8-2-5-6(9)3-1-4(3)7-5/h2-4H,1,7H2/t3-,4+/m1/s1
