16
gdb 19981	3.536	1.67634	1.31566	2.2205	70.85	-0.2404	0.0504	0.2908	945.7081	0.129164	-346.529548	-346.521789	-346.520844	-346.561881	28.901	
C	 0.0645783097	-1.2070962256	 0.2383872401	-0.466637
C	 0.0595992098	-0.0058380147	 0.179585155	 0.347119
C	 0.0291049623	 1.4237951154	 0.081324232	-0.205016
C	 0.6495887503	 2.2979506957	 1.1615996781	-0.299362
C	 1.3007629751	 2.2249149903	-0.1861303131	-0.039623
C	 2.6195693002	 1.5343567212	-0.3503675682	 0.056325
C	 3.8197221197	 1.9988927029	 0.3605983174	-0.173303
O	 3.1340341016	 0.8135321123	 0.7675292447	-0.219156
H	 0.080707398	-2.2664238247	 0.3042643707	 0.194593
H	-0.868296097	 1.8219989992	-0.3840646744	 0.112072
H	 0.1184948024	 3.2000729633	 1.4422773613	 0.116061
H	 1.1545842297	 1.7780380579	 1.9665921249	 0.148193
H	 1.1704055293	 3.0730693595	-0.8535293399	 0.098282
H	 2.7614839515	 1.0232411311	-1.303500135	 0.10017
H	 4.8049750298	 1.8421137283	-0.0755962242	 0.116062
H	 3.7377151776	 2.8414769279	 1.0456223705	 0.114218
75.5038	103.9286	183.2473	243.6141	260.6441	391.983	503.1772	559.0081	586.1867	635.8564	649.7198	741.692	777.5055	844.595	857.1326	906.5003	957.6925	982.9858	1041.2831	1083.4303	1094.0986	1109.1057	1130.0196	1148.4911	1161.7465	1169.6894	1219.76	1289.9551	1373.8572	1397.0353	1433.1942	1479.9508	1524.7638	2238.8109	3085.0224	3102.6107	3137.3248	3143.053	3148.8172	3174.1035	3242.7563	3506.3847
C#CC1CC1C1CO1	C#C[C@H]1C[C@H]1[C@H]1CO1	
InChI=1S/C7H8O/c1-2-5-3-6(5)7-4-8-7/h1,5-7H,3-4H2	InChI=1S/C7H8O/c1-2-5-3-6(5)7-4-8-7/h1,5-7H,3-4H2/t5-,6+,7+/m0/s1
