18
gdb 6100	4.79209	0.96139	0.82706	2.6324	65.76	-0.2405	0.0609	0.3014	1363.2141	0.153133	-418.302005	-418.292538	-418.291594	-418.33681	34.051	
C	 0.0134581862	 1.5283435944	 0.0333824925	-0.407273
C	-0.050756964	 0.0049059308	 0.0007502979	 0.110907
O	 0.7661704609	-0.5814412344	 1.020478652	-0.435807
C	-1.4837352725	-0.520606866	 0.1064504238	-0.13043
N	-1.4655350882	-1.9691899648	 0.110021731	-0.345057
C	-2.6278823781	-2.6797059008	-0.0711829304	 0.450951
N	-2.4970924132	-4.0453436895	 0.1708019639	-0.566204
O	-3.683455849	-2.1670116445	-0.3964461636	-0.396469
H	 1.0519419917	 1.864803691	-0.0215208535	 0.128746
H	-0.5388602177	 1.9640304666	-0.8051033117	 0.127034
H	-0.4265035532	 1.9186312767	 0.959734362	 0.112229
H	 0.3847095548	-0.3646763581	-0.9347571482	 0.098609
H	 0.5091743658	-0.1852350771	 1.8614561082	 0.280767
H	-1.9551226449	-0.1152108311	 1.0180766495	 0.091304
H	-2.0903247117	-0.1815391252	-0.737070183	 0.134239
H	-0.7198828887	-2.3741051238	 0.6567114995	 0.242718
H	-1.5996023619	-4.4644927441	-0.0238277821	 0.246151
H	-3.2770862863	-4.5707528301	-0.1947663478	 0.257585
38.4636	82.1476	117.0453	207.8167	236.9867	263.6108	316.792	338.5877	402.511	444.9309	469.4752	508.38	555.4058	594.5086	670.2597	779.874	845.2364	913.6607	937.5065	990.588	1072.3694	1091.178	1110.9881	1166.1717	1180.4282	1223.1788	1290.0947	1321.2272	1343.9546	1404.6273	1408.0694	1425.6151	1490.5261	1495.408	1508.8487	1527.5761	1626.2816	1800.5304	2960.6039	3027.6191	3052.2964	3095.2375	3104.0725	3123.4298	3569.7938	3610.955	3683.7632	3788.7992
CC(O)CNC(N)=O	C[C@@H](O)CNC(=O)N	
InChI=1S/C4H10N2O2/c1-3(7)2-6-4(5)8/h3,7H,2H2,1H3,(H3,5,6,8)	InChI=1S/C4H10N2O2/c1-3(7)2-6-4(5)8/h3,7H,2H2,1H3,(H3,5,6,8)/t3-/m1/s1
