20
gdb 93761	2.87726	1.28014	0.91926	5.4791	85.77	-0.2151	-0.0173	0.1978	1280.8087	0.172191	-403.207612	-403.198716	-403.197772	-403.24088	34.521	
C	-0.1125438648	 1.5544996401	-0.0050361614	-0.397551
C	 0.0599921001	 0.0354189943	 0.0060583535	-0.088159
C	 0.7487863108	-0.4982787427	-1.2570750287	-0.214852
C	 0.8978032829	-2.020917284	-1.2170457814	-0.310285
C	 1.5128055075	-2.4900864665	 0.0785314624	 0.38124
N	 2.0426069873	-3.7527421655	 0.0530713627	-0.561917
C	 1.4716163377	-1.7268824613	 1.2002264535	-0.282054
C	 0.7987618395	-0.4383128839	 1.2713034022	 0.385446
O	 0.7898473579	 0.2324655811	 2.2923555091	-0.373588
H	 0.8543774923	 2.0559769632	-0.122657107	 0.113774
H	-0.7606107465	 1.8680063925	-0.8297746796	 0.098604
H	-0.5435697293	 1.8930358414	 0.9383944523	 0.138144
H	-0.9385535022	-0.4284841739	 0.06289381	 0.090338
H	 0.1853214526	-0.2043884502	-2.1494698215	 0.097396
H	 1.7420492011	-0.039538908	-1.3444627455	 0.104994
H	-0.083725028	-2.5028425572	-1.3302536039	 0.128525
H	 1.5061675646	-2.3725603251	-2.0606651703	 0.098727
H	 2.3483870241	-4.1254555366	-0.8309984826	 0.255139
H	 2.5744146808	-4.0608519665	 0.8520635141	 0.260047
H	 1.9327744617	-2.0707598212	 2.1221972522	 0.076031
75.658	160.7605	198.5047	212.2288	284.3121	334.6392	362.6661	381.7968	399.6318	457.6561	494.8735	523.2062	577.9722	652.4616	695.6774	746.0285	832.8406	868.8048	882.6281	950.6331	961.1766	1039.5881	1071.7013	1094.5608	1117.2249	1133.885	1201.3548	1223.752	1256.5483	1293.1553	1318.023	1339.125	1356.2204	1388.3228	1407.7164	1427.7106	1469.1186	1488.9321	1494.1955	1501.2527	1640.8784	1677.3912	1742.5209	2974.4686	3008.9858	3023.784	3037.6136	3043.7605	3070.2078	3099.2547	3139.6932	3164.0727	3585.2618	3698.6687
CC1CCC(N)=CC1=O	C[C@H]1CCC(=CC1=O)N	
InChI=1S/C7H11NO/c1-5-2-3-6(8)4-7(5)9/h4-5H,2-3,8H2,1H3	InChI=1S/C7H11NO/c1-5-2-3-6(8)4-7(5)9/h4-5H,2-3,8H2,1H3/t5-/m0/s1
