16
gdb 36127	4.15457	1.18362	1.05688	1.0173	72.97	-0.2472	0.0112	0.2584	1124.2778	0.124	-400.709036	-400.701298	-400.700354	-400.741525	29.75	
C	-0.7390675655	-0.0541725958	 1.3377269263	-0.447243
C	-0.1705098381	 0.3086837787	 0.3426859743	 0.291739
C	 0.5302871677	 0.7668840025	-0.8502254964	-0.438882
C	 1.6888315437	 1.7039992495	-0.5552359078	 0.320878
C	 2.6132906119	 1.5367667132	 0.6327689511	-0.353359
C	 1.7678983665	 2.7741349458	 0.5211498814	 0.032948
O	 2.3715855623	 3.8977190177	-0.1100083311	-0.210129
C	 2.6499748788	 3.4792219404	-1.3705406769	 0.089279
N	 2.3035668246	 2.3069460341	-1.7233083252	-0.308337
H	-1.2526175492	-0.3860371351	 2.2059845977	 0.199797
H	 0.9141927749	-0.0937309546	-1.4128221741	 0.147708
H	-0.1720467396	 1.2798261732	-1.5190646896	 0.142422
H	 2.2958296566	 0.832474971	 1.3935291587	 0.137193
H	 3.6829150283	 1.6074136799	 0.4664235813	 0.124174
H	 1.0117576446	 3.0431668499	 1.2460699355	 0.125468
H	 3.1575021324	 4.2076591997	-1.9909415751	 0.146344
61.3917	127.7135	232.5676	298.76	341.6311	362.4109	440.6083	477.1934	616.3825	622.396	648.7021	669.0031	758.833	782.0169	860.0286	898.7298	937.8198	949.7233	976.8248	996.9735	1008.6959	1042.6374	1072.8095	1100.5566	1141.455	1196.8203	1236.7025	1273.9731	1329.7389	1348.9855	1385.1029	1463.8538	1471.9831	1664.8292	2239.3012	3024.6964	3056.1527	3134.1092	3210.3417	3230.4858	3231.606	3504.9664
C#CCC12CC1OC=N2	C#CC[C@]12C[C@H]1OC=N2	
InChI=1S/C7H7NO/c1-2-3-7-4-6(7)9-5-8-7/h1,5-6H,3-4H2	InChI=1S/C7H7NO/c1-2-3-7-4-6(7)9-5-8-7/h1,5-6H,3-4H2/t6-,7+/m1/s1
