18
gdb 36346	3.04	1.2374	1.04272	1.8154	77.18	-0.2394	0.0303	0.2697	1178.7485	0.1459	-401.848259	-401.839513	-401.838569	-401.881948	32.45	
C	-0.9027993983	 0.5185246973	-1.019245988	-0.464937
C	-0.1539093155	 0.6552730373	-0.0877907458	 0.302591
C	 0.7882443069	 0.8212311958	 1.023858677	-0.290631
N	 1.8288847489	 1.8469837417	 0.8788348923	-0.13603
C	 2.2981594742	 2.2161448879	-0.4612331858	-0.321065
C	 1.4929069646	 3.151943155	 0.3571183647	 0.299905
C	 0.1300770214	 3.7879295778	 0.0662231304	-0.144583
O	 0.578346569	 5.0324031305	 0.6457097859	-0.278167
C	 1.8594905952	 4.4764565639	 1.0170655359	-0.136503
H	-1.5761341583	 0.390904989	-1.8309453763	 0.205392
H	 0.2336516417	 1.0447801595	 1.9430208529	 0.14303
H	 1.3005777801	-0.1327871424	 1.1968499891	 0.145373
H	 3.3735341274	 2.3450384575	-0.5568447149	 0.117901
H	 1.8049668734	 1.7641805493	-1.319697726	 0.127282
H	-0.14535771	 3.8942839695	-0.98933156	 0.110701
H	-0.7194886178	 3.3619534707	 0.6140022469	 0.108264
H	 1.9942381562	 4.423675521	 2.1051834314	 0.106701
H	 2.6952313708	 5.0302057184	 0.5715129304	 0.104774
76.8408	108.4935	120.8698	199.8885	214.7652	333.4687	354.4425	385.1743	434.2356	565.2688	616.2052	623.0419	671.6992	743.5799	865.8167	892.6987	896.1172	932.0227	967.0289	988.3441	1007.3562	1026.5008	1090.0196	1118.1955	1126.7778	1145.3744	1152.3606	1182.9038	1211.8024	1286.6507	1304.3093	1339.1489	1361.354	1441.6395	1468.8717	1501.6154	1510.9121	1527.855	2224.3649	3007.8626	3022.3414	3031.5951	3056.2958	3062.463	3064.1248	3095.9595	3183.3899	3500.5568
C#CCN1CC11COC1	C#CCN1CC21COC2	
InChI=1S/C7H9NO/c1-2-3-8-4-7(8)5-9-6-7/h1H,3-6H2	InChI=1S/C7H9NO/c1-2-3-8-4-7(8)5-9-6-7/h1H,3-6H2
