18
gdb 50632	2.58665	1.37668	1.15967	1.9472	73.21	-0.2551	-0.0441	0.2111	1116.4134	0.148266	-439.113028	-439.104677	-439.103733	-439.146839	30.749	
N	-0.0223921723	 1.3990602619	-0.1307460865	-0.515398
C	 0.1565157168	 0.1596748088	-0.3026436776	 0.401968
C	-0.6786536991	-0.892430412	 0.3771350915	-0.299814
C	-1.137206003	-1.9369898863	-0.6534564881	-0.206499
C	 0.0727499096	-2.5738857746	-1.3754035947	-0.233884
C	 1.3418654983	-1.7241622495	-1.205590637	 0.011253
O	 1.1040594735	-0.3124856336	-1.1812226379	-0.259551
C	 2.1802601274	-2.1185784684	 0.0145328013	 0.130804
O	 2.2346816192	-3.2300033315	 0.4696421717	-0.234049
H	 0.6397605406	 1.9342204173	-0.6970878981	 0.219411
H	-0.0934926202	-1.3816957546	 1.1675836253	 0.131434
H	-1.5168814578	-0.391071356	 0.861619632	 0.137703
H	-1.7412996043	-2.7059544155	-0.1653068798	 0.114813
H	-1.7860638816	-1.4415339148	-1.3826373592	 0.120214
H	 0.30411117	-3.561741149	-0.9665504497	 0.139063
H	-0.1424099734	-2.7022764265	-2.4385612753	 0.113335
H	 2.0098405407	-1.8682804039	-2.0646129194	 0.125487
H	 2.7702500255	-1.2738875418	 0.4349073713	 0.103707
51.4129	84.7065	134.5542	199.3341	259.1315	380.7187	414.9068	455.1362	479.8438	603.9957	631.8736	713.1142	756.2733	820.9757	851.0913	894.2951	913.4175	927.8343	1003.1549	1014.0013	1066.6691	1089.0872	1108.6751	1128.7591	1182.1203	1226.1958	1265.338	1290.3249	1320.722	1343.1171	1361.5681	1365.8403	1387.0742	1404.2798	1484.3816	1488.7829	1507.3932	1762.3619	1834.3785	2895.0663	3025.6947	3032.4732	3053.2791	3067.9018	3093.7823	3114.509	3131.6181	3460.0284
N=C1CCCC(O1)C=O	[NH][C]1CCC[C@@H](O1)C=O	
InChI=1S/C6H9NO2/c7-6-3-1-2-5(4-8)9-6/h4-5,7H,1-3H2	InChI=1S/C6H9NO2/c7-6-3-1-2-5(4-8)9-6/h4-5,7H,1-3H2/t5-/m1/s1
