16
gdb 14458	3.38109	2.44045	2.00517	0.819	63.44	-0.2303	0.072	0.3023	731.2433	0.132002	-383.694083	-383.687871	-383.686927	-383.724032	25.259	
O	 0.113167481	 1.3620791455	 0.1527259494	-0.476551
C	 0.0643004778	-0.013526006	 0.0658099197	 0.38272
C	 0.6961757219	-0.9853394238	 1.0702789906	-0.291069
C	 0.0256367651	-1.8935092782	 0.0068004865	-0.098228
C	-1.2124299851	-0.9400334933	-0.0280686896	-0.115889
C	-1.6809541687	-0.8787891573	-1.4747858434	-0.120663
O	-0.4179750173	-0.8558976771	-2.1707268326	-0.288482
C	 0.517892556	-0.9288809736	-1.1081879474	 0.065772
H	-0.0959832665	 1.7255087395	-0.7154895278	 0.29128
H	 1.7886668954	-1.002969429	 1.117794977	 0.096892
H	 0.2553653862	-1.0066526934	 2.0693477921	 0.10225
H	 0.0059051973	-2.9796842558	-0.0301534182	 0.083701
H	-1.9419712158	-0.9523853057	 0.7811611233	 0.076778
H	-2.2648226961	-1.7525345138	-1.7892979332	 0.105325
H	-2.2564223721	 0.0268220094	-1.7082518334	 0.09843
H	 1.540592461	-0.9394703374	-1.4832361229	 0.087734
205.4181	247.7964	283.2539	375.7049	441.5352	482.6966	655.5357	697.4611	743.7394	765.4294	823.8248	906.6162	931.085	947.2797	958.2712	984.4221	1010.4221	1015.0421	1043.708	1082.1441	1091.1413	1121.1177	1140.495	1176.6804	1193.4095	1212.4894	1222.1213	1274.9292	1279.9762	1336.8698	1377.1756	1403.9931	1525.1549	1527.3187	3012.3587	3049.464	3056.725	3119.9323	3128.3891	3136.9436	3154.5356	3799.5364
OC12CC3C1COC23	O[C@@]12C[C@H]3[C@@H]1CO[C@@H]23	
InChI=1S/C6H8O2/c7-6-1-3-4(6)2-8-5(3)6/h3-5,7H,1-2H2	InChI=1S/C6H8O2/c7-6-1-3-4(6)2-8-5(3)6/h3-5,7H,1-2H2/t3-,4-,5+,6-/m0/s1
