21
gdb 106828	3.18635	1.0287	0.90952	1.58	79.3	-0.2314	0.0691	0.3005	1375.1365	0.181056	-424.184531	-424.174874	-424.17393	-424.219353	35.707	
C	-0.093520711	 1.5086033325	-0.2540617119	-0.375442
C	-0.022609697	 0.0151529901	 0.0959019182	-0.286386
C	-1.3760023559	-0.6258472593	 0.0939168941	 0.442439
C	-2.1175440267	-1.17771672	-1.0887839727	-0.394867
C	-1.898488793	-2.0505767212	 0.145254269	 0.156036
C	-1.2273961306	-3.3880866217	 0.1059686325	-0.171388
O	-2.1177862491	-4.4400353571	-0.2509815679	-0.412051
C	-2.816135625	-1.5309428586	 1.2464197581	-0.124056
O	-2.3189616166	-0.1751771873	 1.0794536024	-0.330901
H	 0.8989238535	 1.966552231	-0.211871814	 0.111466
H	-0.4956625119	 1.6577306218	-1.2611297098	 0.118581
H	-0.7435995299	 2.0364035852	 0.4493066421	 0.139748
H	 0.618491883	-0.512203059	-0.620026301	 0.101665
H	 0.4302502071	-0.1111835438	 1.0866514365	 0.10783
H	-3.1062590453	-0.7969737902	-1.3314899416	 0.113539
H	-1.5014082023	-1.4445418323	-1.9436200421	 0.110516
H	-0.3615273727	-3.3486594462	-0.5749979887	 0.086477
H	-0.8466768194	-3.6570070159	 1.0977169971	 0.111771
H	-2.5205750357	-4.1978129302	-1.0917925649	 0.282447
H	-3.8988757316	-1.6000423646	 1.0904301224	 0.10493
H	-2.5612295	-1.9163818032	 2.2409621823	 0.107646
63.791	95.6127	99.6264	192.9092	211.0957	263.2632	285.7101	320.7999	364.1045	393.2896	445.8324	516.4951	661.4104	757.3443	768.5105	797.6679	878.3443	925.9595	935.193	970.4891	988.0458	990.6334	1002.1114	1047.1355	1057.9583	1068.6027	1103.1392	1141.5636	1153.4708	1199.8598	1258.6262	1283.5673	1308.6527	1333.0696	1367.337	1369.6541	1406.5479	1414.1781	1431.7906	1474.1309	1492.0587	1499.0238	1499.2851	1510.4026	1522.2881	2969.7978	3020.5245	3030.1601	3041.3063	3061.8822	3068.3272	3070.5116	3105.5913	3111.2274	3121.0965	3196.5945	3806.9504
CCC12CC1(CO)CO2	CC[C@@]12C[C@]1(CO)CO2	
InChI=1S/C7H12O2/c1-2-7-3-6(7,4-8)5-9-7/h8H,2-5H2,1H3	InChI=1S/C7H12O2/c1-2-7-3-6(7,4-8)5-9-7/h8H,2-5H2,1H3/t6-,7+/m0/s1
