19
gdb 110657	3.57439	1.39084	1.21524	0.5159	82.85	-0.2089	-0.0296	0.1793	1087.001	0.159132	-385.778794	-385.771062	-385.770118	-385.811142	30.257	
C	 0.354132762	 1.244600235	-0.2524813766	-0.243955
O	 0.1156912903	-0.1286591149	-0.0213283669	-0.235059
C	 0.6032460976	-0.5787416679	 1.1994338129	 0.138547
C	 0.2362424946	-2.0216213258	 1.6552512404	-0.128633
C	 1.1919430431	-3.2283438552	 1.2987917326	-0.038375
C	 2.2334523756	-3.1952432897	 0.1649942531	-0.262402
C	 2.5279968033	-1.699475196	 0.1577652647	-0.085649
C	 2.0526220263	-1.1328993981	 1.2847326812	-0.036368
C	 1.5924715096	-2.2011350835	 2.2906375617	-0.10899
H	 1.4297001893	 1.4684809229	-0.2992203266	 0.116229
H	-0.1043829338	 1.4967867129	-1.2111784088	 0.128432
H	-0.0948821379	 1.870559027	 0.5338860952	 0.107841
H	 0.3219545533	 0.1199904875	 2.0045829765	 0.070319
H	-0.7205603885	-2.2617083367	 2.1126665923	 0.089366
H	 0.78247387	-4.181698229	 1.6292061656	 0.078973
H	 3.0615629721	-3.8822986599	 0.391076868	 0.10656
H	 1.8453132659	-3.4751518299	-0.8217773112	 0.113016
H	 2.554195515	-1.164748651	-0.7866170992	 0.1011
H	 1.8593988022	-2.2951770776	 3.3342957052	 0.089048
77.0219	143.1801	167.6145	263.2619	319.3058	366.8909	482.1957	537.771	620.02	685.5631	759.792	769.9665	800.9808	825.0095	885.3565	901.4811	923.7353	944.7194	978.0959	988.2438	1009.8972	1043.7635	1060.7178	1066.5024	1095.3262	1156.3636	1172.9551	1181.4872	1205.9182	1226.7731	1231.1107	1274.918	1276.8875	1306.453	1374.0378	1389.8646	1472.1334	1483.1154	1486.9591	1508.3022	1588.7696	2962.3004	2982.4752	3000.124	3032.6146	3053.7976	3120.525	3126.8104	3141.3313	3173.6446	3204.819
COC1C2C3CC=C1C23	CO[C@H]1[C@H]2[C@H]3C[CH][C]1[C@@H]23	
InChI=1S/C8H10O/c1-9-8-5-3-2-4-6(5)7(4)8/h3-4,6-8H,2H2,1H3	InChI=1S/C8H10O/c1-9-8-5-3-2-4-6(5)7(4)8/h3-4,6-8H,2H2,1H3/t4-,6-,7-,8+/m0/s1
