21
gdb 119637	4.42172	0.98168	0.94392	1.4773	81.92	-0.2261	0.0783	0.3044	1356.1281	0.18221	-387.032088	-387.023656	-387.022712	-387.065463	32.802	
C	 0.0447386065	 1.544178462	 0.1278315652	-0.382945
C	-0.0221169562	 0.0195968958	 0.0115932837	-0.164908
C	-1.4634391237	-0.5079898094	-0.0463327901	-0.325985
C	-1.5316734852	-2.0043204328	-0.1122403005	 0.455436
C	-0.9843631835	-2.8656840213	-1.2906321438	-0.264416
C	-1.8894417332	-3.9654243958	-0.7424764501	-0.124275
C	-1.8701538423	-3.746205978	 0.7807293384	 0.105287
O	-0.9674810129	-2.6816111799	 1.0623723521	-0.333951
C	-2.8016250905	-2.9490457624	-0.0593276282	-0.217413
H	 1.0808360518	 1.8941603422	 0.1690055884	 0.112256
H	-0.4374544117	 2.0304491507	-0.727867458	 0.111363
H	-0.461179328	 1.8946445793	 1.0343205939	 0.115574
H	 0.5193753192	-0.3054744209	-0.8855296672	 0.099169
H	 0.4871450263	-0.4441841548	 0.8634328553	 0.122635
H	-2.0172232065	-0.1705925775	 0.8388255906	 0.106505
H	-1.9824863879	-0.0958662148	-0.9217879678	 0.097932
H	-1.3413680286	-2.4972645275	-2.2562662253	 0.099804
H	 0.0979823442	-3.0276963316	-1.3143295653	 0.098013
H	-2.163887719	-4.9104003488	-1.1934767041	 0.089435
H	-2.0293844282	-4.5162816669	 1.5237321882	 0.105093
H	-3.8705010905	-2.7863615877	-0.0620737455	 0.095389
77.7112	91.7916	126.3146	243.4494	308.0042	315.9228	331.047	457.0722	550.9976	693.7306	739.7633	762.1661	772.3555	786.5227	811.0088	847.1311	872.7947	904.2934	933.6635	957.4363	964.2263	1003.0509	1026.6162	1035.0166	1043.9464	1053.525	1074.1445	1128.486	1130.6365	1170.8395	1179.7002	1231.5328	1255.5659	1287.2627	1297.8189	1335.9775	1352.5452	1363.4078	1408.7085	1413.1493	1474.785	1486.3779	1493.5354	1499.0948	1509.9007	3018.687	3027.8403	3032.0849	3045.4645	3053.9732	3073.7878	3098.6424	3102.4273	3107.4103	3197.3229	3201.8744	3218.206
CCCC12CC3C(O1)C23	CCC[C@@]12C[C@H]3[C@@H](O1)[C@@H]23	
InChI=1S/C8H12O/c1-2-3-8-4-5-6(8)7(5)9-8/h5-7H,2-4H2,1H3	InChI=1S/C8H12O/c1-2-3-8-4-5-6(8)7(5)9-8/h5-7H,2-4H2,1H3/t5-,6+,7-,8+/m1/s1
