19
gdb 68622	2.39143	1.66965	1.35813	4.1894	78.84	-0.2468	0.0079	0.2547	1033.4866	0.161346	-382.057171	-382.049306	-382.048362	-382.08922	31.026	
C	-0.0258998753	 1.5249850575	 0.0545346832	-0.507617
C	 0.0120282156	 0.0167124835	 0.0151579166	 0.318106
C	 0.3287466629	-0.8216337762	-1.2540760114	-0.214231
N	-0.3982975865	-1.9666949904	-0.5726709732	-0.131936
C	 0.5300514688	-2.1963149654	 0.5805218974	-0.180044
C	 0.8590611671	-0.7424431283	 1.0569782248	-0.275855
C	-1.284095234	-0.8666535725	-0.0015975231	-0.159079
C	-2.0090785475	-1.1384457179	 1.2306683075	 0.29122
N	-2.5721063503	-1.3268694332	 2.222924335	-0.337327
H	 0.9791241338	 1.9426522264	-0.070204462	 0.127194
H	-0.6588110328	 1.9317513706	-0.7411348106	 0.120208
H	-0.4161643318	 1.8827930863	 1.0133187305	 0.135806
H	-0.2157210709	-0.5037965266	-2.146751429	 0.111161
H	 1.3736900252	-1.0284438791	-1.4982912488	 0.107528
H	 0.030568645	-2.7969782406	 1.3426688453	 0.132857
H	 1.4031288975	-2.7455393487	 0.2226381755	 0.11223
H	 1.919439802	-0.4882597967	 0.9751286277	 0.103079
H	 0.5367604211	-0.5453970457	 2.082691227	 0.122949
H	-1.9917012199	-0.5473109329	-0.7713680924	 0.123752
128.9361	150.2605	215.0425	261.0334	288.8764	359.6245	413.7483	486.9018	525.681	569.5547	598.6378	755.4263	816.5488	827.2265	853.4544	865.7074	882.8709	921.7422	947.7411	990.1993	1008.988	1037.7134	1074.0422	1117.1861	1166.7465	1176.6831	1198.6083	1237.0498	1244.6234	1252.3771	1256.3361	1323.411	1341.8761	1379.4568	1416.6587	1490.3636	1492.8667	1497.0931	1503.8254	1526.1063	2350.9245	3029.8528	3059.49	3061.4796	3079.3355	3082.3943	3097.2732	3099.7457	3105.2799	3122.742	3132.902
CC12CN(CC1)C2C#N	C[C@@]12CN(CC1)[C@H]2C#N	
InChI=1S/C7H10N2/c1-7-2-3-9(5-7)6(7)4-8/h6H,2-3,5H2,1H3	InChI=1S/C7H10N2/c1-7-2-3-9(5-7)6(7)4-8/h6H,2-3,5H2,1H3/t6-,7-/m0/s1
