20
gdb 95176	2.4261	1.64327	1.13583	3.0985	78.8	-0.2325	-0.0175	0.215	1123.8701	0.172746	-403.164067	-403.155843	-403.154898	-403.196963	32.107	
C	 0.0541180401	 1.5704978846	 0.0139059748	-0.402523
C	 0.0626508611	 0.0391697143	-0.0339768543	-0.080174
C	 0.7274812257	-0.5191972475	-1.3037870825	-0.216979
C	 0.7625717211	-2.052933288	-1.3262067538	-0.229443
C	 1.4511581496	-2.6061115379	-0.0948926784	-0.020866
N	 2.6011352534	-1.8352160855	 0.3790478692	-0.332536
C	 1.3520828895	-1.8581847485	 1.1921638864	-0.144707
C	 0.6082604365	-0.5550129473	 1.2707058473	 0.434244
O	 0.3886148077	-0.0442816287	 2.3469826402	-0.333606
H	 1.0744261769	 1.9649910463	-0.0396571906	 0.121837
H	-0.5111058369	 1.9805014484	-0.8284433169	 0.107907
H	-0.3939046929	 1.9197015054	 0.9458244863	 0.138976
H	-0.9860749445	-0.3054287309	-0.034427824	 0.102448
H	 0.184168591	-0.1508955563	-2.1806845937	 0.093932
H	 1.749831351	-0.1364120857	-1.3759242472	 0.12623
H	-0.2577960805	-2.4568091567	-1.3693782797	 0.100449
H	 1.2799891981	-2.4049995985	-2.2265135912	 0.103812
H	 1.5019895594	-3.6905353653	-0.0183887496	 0.089198
H	 3.2859421903	-2.440347936	 0.8238683133	 0.241337
H	 1.3749868633	-2.3992254963	 2.1336377443	 0.100464
53.6404	174.3182	207.8713	275.9591	287.7076	339.1221	368.2777	411.6696	486.6699	530.8334	621.7461	646.1852	759.3577	793.2635	855.4606	878.6418	894.1491	924.313	973.9795	978.8687	994.815	1048.3013	1097.2124	1108.0841	1138.6325	1151.4369	1162.2408	1219.9694	1236.9483	1251.9954	1269.8815	1307.4854	1350.6921	1375.5943	1378.9129	1389.8472	1405.296	1444.4306	1483.9339	1491.0465	1495.6567	1503.8717	1796.2905	2963.4254	3020.1667	3040.2324	3045.9098	3059.9257	3094.0371	3105.3623	3126.0801	3138.286	3158.4868	3510.2238
CC1CCC2NC2C1=O	C[C@H]1CC[C@H]2N[C@H]2C1=O	
InChI=1S/C7H11NO/c1-4-2-3-5-6(8-5)7(4)9/h4-6,8H,2-3H2,1H3	InChI=1S/C7H11NO/c1-4-2-3-5-6(8-5)7(4)9/h4-6,8H,2-3H2,1H3/t4-,5+,6+/m0/s1
