17
gdb 32678	3.51048	1.30028	1.00396	2.3387	74.47	-0.2206	0.0348	0.2554	1150.5207	0.137926	-418.002834	-417.994959	-417.994015	-418.036193	29.101	
O	 0.1784995385	 1.4504953679	-0.1556019769	-0.414165
C	 0.0347208427	 0.0799227792	-0.474713086	-0.076023
C	-1.296504687	-0.4803554622	 0.0006488744	 0.024901
C	-1.4589762138	-2.0547631778	 0.0020424112	-0.409899
C	-1.5976514342	-1.8950688414	 1.5055053293	 0.381508
N	-1.8975499829	-2.3770003384	 2.686029299	-0.367346
C	-1.9204934611	-1.2341371708	 3.4746381953	-0.087995
C	-1.6603827891	-0.0824231235	 2.7542975413	-0.188646
N	-1.4291312772	-0.5561676177	 1.4815750879	 0.002554
H	 0.3062915477	 1.5164733427	 0.7965972847	 0.291975
H	 0.0826920065	 0.0061181501	-1.5667207603	 0.122378
H	 0.8548302633	-0.5252682399	-0.0598755299	 0.101941
H	-2.1286864425	 0.060420942	-0.4585458931	 0.113789
H	-2.3467273814	-2.4165063935	-0.5211724515	 0.137094
H	-0.5820310231	-2.6036602598	-0.3521170991	 0.129468
H	-2.1190428812	-1.3019451218	 4.5341108542	 0.1091
H	-1.6079245152	 0.9541151747	 3.0405713994	 0.129367
46.0688	91.557	146.6847	247.1838	323.6358	379.4182	413.7955	529.1575	619.3908	692.1303	694.9253	715.0493	785.7577	838.0498	868.6029	945.8318	958.7191	1001.9167	1054.8649	1073.8644	1086.2077	1124.5851	1141.1831	1144.4318	1202.544	1225.1619	1243.8529	1271.8394	1335.8888	1391.17	1401.6105	1416.1115	1420.1581	1470.0688	1486.0981	1493.4775	1580.4606	2995.8818	3066.3191	3071.0377	3086.0776	3119.671	3245.2261	3283.3618	3813.5108
OCC1CC2=NC=CN12	OC[C@H]1Cc2nccn12	
InChI=1S/C6H8N2O/c9-4-5-3-6-7-1-2-8(5)6/h1-2,5,9H,3-4H2	InChI=1S/C6H8N2O/c9-4-5-3-6-7-1-2-8(5)6/h1-2,5,9H,3-4H2/t5-/m1/s1
