14
gdb 123958	3.60565	1.66548	1.17549	4.3073	63.3	-0.2354	-0.0043	0.231	962.8358	0.103507	-473.799151	-473.792811	-473.791867	-473.829951	24.822	
C	-0.0088533886	 1.4129386115	 0.0129658222	-0.112244
C	 1.4178221271	 1.9576829995	 0.0309543336	-0.104329
O	 2.1397380634	 1.5249965326	 1.1960370558	-0.259394
C	 1.9221756772	 0.2199626287	 1.4410532309	 0.388899
N	 2.6495740442	-0.4898294335	 2.2638810997	-0.242073
O	 2.0715358478	-1.7612354876	 2.2272874376	-0.175964
C	 1.0141462373	-1.7665338632	 1.3857687595	-0.050581
C	 0.8642690585	-0.5306162755	 0.8509655476	 0.148654
O	-0.0256829523	-0.0195441341	-0.0375298228	-0.276387
H	-0.5498477659	 1.7555648429	 0.9052358087	 0.127389
H	-0.5343949467	 1.7594496732	-0.8794077508	 0.132522
H	 1.9548632047	 1.6338721489	-0.8696484321	 0.130692
H	 1.4079369741	 3.0488128187	 0.0678706808	 0.135377
H	 0.4882619394	-2.7000923721	 1.2753192694	 0.157439
128.4564	238.7811	343.3946	408.3622	445.7415	472.6577	551.1623	577.0448	702.7297	723.2389	734.9147	796.2564	886.9994	915.4123	925.6471	964.2679	1069.4213	1089.7687	1119.6392	1135.1761	1225.5133	1271.4194	1292.0443	1306.8887	1392.3465	1402.8052	1473.0082	1490.2767	1492.2351	1581.4906	1699.0046	3021.8965	3036.0745	3118.381	3121.8534	3280.0692
C1COC2=NOC=C2O1	C1COc2nocc2O1	
InChI=1S/C5H5NO3/c1-2-8-5-4(7-1)3-9-6-5/h3H,1-2H2	InChI=1S/C5H5NO3/c1-2-8-5-4(7-1)3-9-6-5/h3H,1-2H2
