19
gdb 95337	3.1225	1.40114	1.14216	1.9372	78.43	-0.2412	0.0071	0.2484	1111.6835	0.160936	-423.0092	-423.001493	-423.000548	-423.041271	30.75	
O	-0.0020617744	 1.4743039664	-0.1294299994	-0.431902
C	 0.0277140231	 0.0517872935	 0.0036974028	 0.094475
C	-1.3946349876	-0.5220962697	 0.1612006146	-0.122434
O	-2.0847353444	-0.6106268448	-1.0873843287	-0.27062
C	-1.4260454863	-1.5682505169	-1.8809025511	 0.086155
C	-1.4801923795	-1.4643521323	-3.4305882198	-0.261185
C	 0.0599833159	-1.7771464504	-3.4511438639	-0.321552
C	 0.0587581949	-1.3428970806	-1.9998231533	 0.298822
C	 0.7441061297	-0.5492764164	-1.18816407	-0.27317
H	-0.4888589106	 1.6564490313	-0.9421402377	 0.278768
H	 0.5743340274	-0.1288390026	 0.9369262723	 0.090283
H	-1.3526439044	-1.5146944845	 0.6387548836	 0.088918
H	-1.9766655353	 0.1493506874	 0.7962416377	 0.116877
H	-1.6874458545	-2.5876948165	-1.5479612603	 0.07217
H	-2.1485935594	-2.1470000197	-3.9582485375	 0.106132
H	-1.6789805341	-0.4348098735	-3.7347879995	 0.11889
H	 0.2533882455	-2.8464903146	-3.5858567781	 0.116475
H	 0.687597967	-1.2164141119	-4.1467428995	 0.117771
H	 1.7461038468	-0.1875403344	-1.4025944323	 0.095128
94.4868	181.2732	208.9648	310.3923	355.4972	383.3466	444.3003	449.1775	489.9533	576.3854	687.8013	745.1657	780.1383	813.7886	856.9105	879.6603	911.6719	944.6605	973.4028	994.9861	1043.488	1063.803	1091.8814	1112.9586	1132.2699	1148.574	1184.4357	1224.9322	1252.6927	1258.0965	1265.4519	1304.9971	1321.0648	1335.1204	1369.1403	1403.8214	1422.6599	1475.0017	1484.1075	1489.2197	1765.6611	2949.457	2974.4797	3044.7707	3051.3455	3075.5177	3109.2138	3110.6651	3139.9967	3164.8205	3791.0991
OC1COC2CCC2=C1	O[C@H]1CO[C@H]2CC[C]2[CH]1	
InChI=1S/C7H10O2/c8-6-3-5-1-2-7(5)9-4-6/h3,6-8H,1-2,4H2	InChI=1S/C7H10O2/c8-6-3-5-1-2-7(5)9-4-6/h3,6-8H,1-2,4H2/t6-,7+/m1/s1
