18
gdb 48941	3.77791	1.43394	1.24389	3.2133	75.31	-0.2357	-0.0343	0.2014	1023.856	0.148799	-401.903075	-401.895838	-401.894894	-401.934926	28.424	
O	 0.0216115254	-0.102952871	-0.2333066641	-0.246924
C	 0.0725040925	 1.0968730778	-0.137281795	 0.075031
C	 1.3433748955	 1.893332824	-0.0644532219	 0.281999
C	 1.4358759824	 3.0006313541	 1.0121920524	-0.305835
C	 2.0204769694	 3.9192024668	-0.07563118	 0.017825
C	 3.4969586803	 3.6567492363	-0.4288824339	-0.240424
C	 3.014958521	 2.4441180127	-1.2498637365	 0.016443
C	 2.6702119963	 1.2007248342	-0.4097105376	-0.308206
N	 1.5598568886	 2.9487245974	-1.1759010137	-0.20362
H	-0.8515945514	 1.7187975402	-0.1095193866	 0.077724
H	 0.4402141914	 3.3340533386	 1.321367761	 0.113743
H	 2.03249807	 2.7910811291	 1.9039559211	 0.110404
H	 1.6642428084	 4.9503509792	-0.1112353193	 0.079641
H	 3.8971167097	 4.4443990862	-1.072121052	 0.114821
H	 4.2011490237	 3.4774345289	 0.3891762923	 0.101657
H	 3.452192162	 2.2881158217	-2.2374668613	 0.081134
H	 3.3393870231	 0.9353898831	 0.4128454837	 0.103418
H	 2.4904192518	 0.3141465206	-1.0213893186	 0.131169
70.686	178.6447	231.7646	323.6375	334.8991	406.4442	439.0885	647.2169	687.1135	731.6207	778.2553	833.0104	876.7542	889.4727	913.5948	926.8833	941.8573	953.8301	958.645	1021.5808	1042.2314	1065.9516	1068.8666	1136.657	1158.6103	1190.4929	1231.7295	1238.2895	1245.809	1260.5654	1286.5787	1314.4277	1335.3032	1364.6041	1417.8716	1473.608	1478.366	1495.0878	1822.6892	2872.1403	3047.1181	3050.6342	3063.1152	3085.3255	3089.0742	3102.881	3109.4119	3122.9114
O=CC12CC3CC(C1)N23	O=C[C@@]12C[C@H]3C[C@@H](C1)N23	
InChI=1S/C7H9NO/c9-4-7-2-5-1-6(3-7)8(5)7/h4-6H,1-3H2	InChI=1S/C7H9NO/c9-4-7-2-5-1-6(3-7)8(5)7/h4-6H,1-3H2/t5-,6+,7-
