19
gdb 79992	2.2286	2.0389	1.626	1.4197	78.96	-0.2311	-0.0095	0.2216	943.301	0.160287	-385.88503	-385.877531	-385.876587	-385.916195	31.606	
C	-0.0291596587	 1.5130741975	 0.0635066232	-0.50716
C	 0.0135249919	-0.00369445	 0.020897238	 0.221044
C	 0.5989045381	-0.6646693902	-1.2345967691	-0.109591
C	 0.2027184484	-1.9389360986	-1.2586500961	-0.088739
C	-0.6555095065	-2.177612421	-0.0129064651	-0.161747
C	 0.2316405757	-1.9893975673	 1.2267267918	-0.110474
C	 0.6295927133	-0.7146621599	 1.2406793401	-0.129228
C	-1.3732003263	-0.7740467399	 0.003791407	 0.149894
O	-2.2510028343	-0.5096053211	 1.0531937684	-0.443438
H	 0.9745141146	 1.9395702436	 0.1676913733	 0.114027
H	-0.4718727898	 1.9207672654	-0.8511514748	 0.117561
H	-0.6334799493	 1.858021954	 0.9082282985	 0.124414
H	 1.2149914805	-0.141843783	-1.9550828996	 0.097454
H	 0.4227974892	-2.6933721565	-2.0019181684	 0.100406
H	-1.2907326933	-3.0629060181	-0.0225062852	 0.064297
H	 0.5074246092	-2.7810352435	 1.9109461324	 0.101998
H	 1.3004516741	-0.2331306384	 1.9412885531	 0.099087
H	-1.9283656555	-0.5845480105	-0.9177480887	 0.088237
H	-1.7689889311	-0.6909723025	 1.8720706012	 0.271959
178.5135	223.9758	247.1845	311.7911	363.6481	425.5122	469.772	513.5372	539.5676	583.5227	629.0147	695.2338	731.9039	758.8996	806.6326	813.6936	857.6246	897.9083	905.7852	925.0363	937.6448	945.5554	973.2019	1070.9487	1081.0983	1129.7756	1134.9373	1165.7302	1202.2989	1234.3244	1251.2707	1262.1967	1286.4598	1299.9195	1358.4145	1411.2666	1435.9142	1492.24	1495.7965	1606.5008	1652.0774	3031.2464	3095.8682	3098.4451	3105.2293	3121.3216	3199.294	3202.0848	3226.2727	3229.8996	3741.6713
CC12C=CC(C=C1)C2O	C[C@@]12C=C[C@@H](C=C1)[C@H]2O	
InChI=1S/C8H10O/c1-8-4-2-6(3-5-8)7(8)9/h2-7,9H,1H3	InChI=1S/C8H10O/c1-8-4-2-6(3-5-8)7(8)9/h2-7,9H,1H3/t6-,7-,8+/m1/s1
