20
gdb 118663	2.82231	0.71078	0.59035	2.5955	76.14	-0.2746	0.0295	0.3041	1844.2595	0.168965	-440.289214	-440.27822	-440.277276	-440.326426	37.527	
O	-0.1376406226	 1.4775309162	 0.0590823149	-0.419037
C	 0.0161506205	 0.072053315	-0.046286006	-0.090716
C	-1.3804196564	-0.5365907092	 0.0085134615	-0.17958
C	-1.3902091266	-2.0796413061	-0.0158014037	-0.16526
C	-2.8189745353	-2.6418543959	 0.1398831101	-0.17958
C	-2.8778586916	-4.1631413874	 0.217821638	-0.090719
O	-4.233796128	-4.5169429212	 0.4332039214	-0.419039
C	-0.7588946936	-2.5875057349	-1.2415544503	 0.290593
N	-0.2668262586	-2.9841628409	-2.2098912553	-0.342466
H	 0.7228877319	 1.8859688446	-0.0716740483	 0.290485
H	 0.51144329	-0.2105086387	-0.9869226838	 0.113994
H	 0.6284207766	-0.3269297219	 0.780177914	 0.086166
H	-1.8711324861	-0.2066037002	 0.9301379847	 0.11865
H	-1.9718552558	-0.1493587683	-0.8277088224	 0.126279
H	-0.7808957533	-2.4436218239	 0.8235109798	 0.124655
H	-3.251244102	-2.2265475364	 1.0562603006	 0.118653
H	-3.4432274088	-2.3024550243	-0.6932607597	 0.126276
H	-2.4892318307	-4.6014238423	-0.7132136529	 0.113995
H	-2.2355393864	-4.5184851191	 1.0413886609	 0.086167
H	-4.3067792132	-5.4745527749	 0.3875441064	 0.290485
70.1388	79.0023	88.3171	105.5531	108.8808	176.8795	251.1548	251.2318	260.8277	269.1648	306.2054	415.2571	452.4726	571.9942	639.4059	771.919	799.9587	864.8768	974.2007	1017.1615	1038.6828	1050.9798	1074.2155	1105.0129	1108.0939	1132.115	1214.0746	1226.5402	1229.467	1265.3217	1298.8903	1312.7528	1314.4795	1351.3373	1353.0954	1368.7233	1465.8212	1471.0809	1485.8755	1496.3444	1528.8854	1529.1539	2350.2391	2958.9243	2959.4179	3009.8946	3010.684	3014.3727	3048.0681	3053.4671	3095.3408	3102.0817	3834.4313	3834.4767
OCCC(CCO)C#N	OCCC(CCO)C#N	
InChI=1S/C6H11NO2/c7-5-6(1-3-8)2-4-9/h6,8-9H,1-4H2	InChI=1S/C6H11NO2/c7-5-6(1-3-8)2-4-9/h6,8-9H,1-4H2
