20
gdb 58617	2.11497	1.50444	1.16455	3.0792	75.21	-0.2473	-0.0293	0.2181	1168.7469	0.168804	-440.281551	-440.271703	-440.270759	-440.316138	36.64	
C	 0.9304110917	-2.3461969419	 0.4919627548	-0.416017
C	 0.2519162629	-0.9944754121	 0.2372612973	 0.06063
O	 0.4847170247	-0.0757408679	 1.2886327666	-0.444388
C	 0.6209813555	-0.3950319142	-1.1219665717	 0.202544
C	-0.1593949272	-0.8587557754	-2.310425752	-0.27951
N	-0.3614833208	 0.4916658263	-1.8017798051	-0.347527
C	 2.0429480488	 0.094509451	-1.2668772347	 0.374558
C	 2.4922239145	 0.6182159225	-2.6122745765	-0.495658
O	 2.7952230657	 0.0788263777	-0.3095658816	-0.335897
H	 0.6614913932	-3.0774174073	-0.2777059795	 0.107257
H	 2.0175472608	-2.2376911608	 0.5035050399	 0.137809
H	 0.6112568363	-2.7320434486	 1.463762998	 0.124739
H	-0.8360759912	-1.1513860827	 0.2281397014	 0.070453
H	 1.4351590517	 0.103516258	 1.2664516864	 0.294035
H	 0.302717739	-0.9212058455	-3.2909067332	 0.12269
H	-0.915637647	-1.6171565221	-2.1203075213	 0.12287
H	-1.201230048	 0.5486204006	-1.2294733699	 0.246624
H	 1.721944198	 1.2558171306	-3.0525051737	 0.167915
H	 3.4275476159	 1.1648339482	-2.4893673701	 0.143684
H	 2.6642346554	-0.2209856064	-3.296581695	 0.143192
58.5152	105.8236	157.669	199.1405	211.1253	241.1912	288.8439	296.9746	323.1227	435.6977	479.9001	495.8062	539.3061	557.0338	629.226	668.2012	824.9571	840.3	912.0347	936.7283	972.8668	980.8014	1032.1113	1055.702	1069.1115	1106.3423	1123.3836	1147.2135	1181.1692	1247.3113	1289.4374	1334.0778	1348.4829	1380.0932	1395.3802	1405.0088	1447.5218	1464.943	1478.1834	1489.971	1504.9496	1513.6727	1769.6415	3006.6728	3041.3587	3042.4759	3107.9708	3113.0295	3115.772	3133.3315	3161.1959	3193.8345	3494.8128	3746.884
CC(O)C1(CN1)C(C)=O	C[C@@H](O)[C@]1(CN1)C(=O)C	
InChI=1S/C6H11NO2/c1-4(8)6(3-7-6)5(2)9/h4,7-8H,3H2,1-2H3	InChI=1S/C6H11NO2/c1-4(8)6(3-7-6)5(2)9/h4,7-8H,3H2,1-2H3/t4-,6-/m1/s1
