22
gdb 117173	2.629	0.89274	0.69607	1.8395	80.66	-0.2595	0.0337	0.2932	1688.1626	0.19201	-441.501924	-441.490932	-441.489988	-441.53875	39.072	
C	 1.1298919683	 1.1153111352	-0.2480163537	-0.390728
C	 0.1945129036	-0.0422076947	 0.0457395979	-0.030524
O	 0.7988309916	-0.8366587399	 1.0799779184	-0.249029
C	 0.1021940093	-1.9083776306	 1.5015340804	 0.372981
N	-1.0206110526	-2.2287750683	 1.0091116118	-0.540752
C	 0.8435980422	-2.6264100695	 2.6318256737	 0.034224
O	 0.1204216733	-3.774583722	 3.047499891	-0.421412
C	 2.2987234549	-2.9538375689	 2.265665155	-0.19685
C	 3.0807885921	-3.5644597359	 3.4305442203	-0.383768
H	 2.1048529732	 0.754386396	-0.5884022018	 0.12522
H	 0.7039125854	 1.7473191537	-1.0329249578	 0.121263
H	 1.2834849229	 1.7301146083	 0.6435566254	 0.12668
H	-0.7885033389	 0.2972908768	 0.3881031803	 0.121325
H	 0.02822627	-0.6711912489	-0.8350152231	 0.119115
H	-1.3735317292	-3.0431667039	 1.5116933449	 0.223355
H	 0.8416668527	-1.955805048	 3.5009802965	 0.113075
H	 0.2719490175	-4.4671796056	 2.3935818873	 0.283342
H	 2.2923353819	-3.6438958102	 1.4087073537	 0.090894
H	 2.7794765364	-2.037215084	 1.9141280502	 0.124958
H	 4.0970004425	-3.8297030133	 3.1244670174	 0.113603
H	 3.1559145196	-2.8580026599	 4.2644817779	 0.119064
H	 2.5892985833	-4.4660439865	 3.8063555441	 0.123967
49.664	88.6791	93.5338	107.2764	149.5046	216.3458	227.1307	262.3358	312.3282	332.1271	359.0232	365.2072	424.39	498.3798	621.8683	752.8139	787.3035	807.0184	864.6919	887.3372	920.4907	965.5753	997.0689	1046.0483	1072.6451	1099.0407	1124.804	1135.5818	1148.3331	1183.8205	1253.1494	1287.1643	1289.5376	1334.4619	1360.4397	1374.4314	1400.1686	1408.7447	1415.455	1436.9074	1485.7219	1487.6861	1495.5238	1496.6183	1508.5994	1521.3308	1725.9808	3003.2443	3036.0876	3039.21	3044.4297	3048.3804	3084.1027	3094.2887	3105.6974	3119.1917	3121.2334	3122.5534	3490.8581	3791.1213
CCOC(=N)C(O)CC	CCO[C]([NH])[C@@H](O)CC	
InChI=1S/C6H13NO2/c1-3-5(8)6(7)9-4-2/h5,7-8H,3-4H2,1-2H3	InChI=1S/C6H13NO2/c1-3-5(8)6(7)9-4-2/h5,7-8H,3-4H2,1-2H3/t5-/m0/s1
