18
gdb 71416	4.48107	1.15516	1.05054	4.4581	80.44	-0.2648	0.0353	0.3001	1165.6809	0.148513	-364.783099	-364.775398	-364.774453	-364.815094	30.182	
C	-0.0045161042	 1.4751072611	-0.0094076624	-0.504916
C	-0.0300494883	-0.0243725549	-0.0044117618	 0.322966
C	-1.2382446972	-0.9368968015	-0.2292970838	-0.294927
C	-0.3504704146	-2.0822982835	 0.320133973	-0.059864
C	 0.5636624493	-0.9864434789	 1.00035598	-0.114517
C	 1.2167840638	-0.8558149134	-0.3570340129	-0.095204
C	 0.7399169747	-2.2479455721	-0.793516745	-0.172964
C	 1.7064142126	-3.2977427414	-0.5010587135	 0.26627
N	 2.4696058928	-4.135719485	-0.27200078	-0.330326
H	 0.9640079282	 1.8566067741	 0.3305743813	 0.124418
H	-0.1834586754	 1.8731511771	-1.0149179006	 0.125101
H	-0.7744906234	 1.8841237725	 0.6540253334	 0.123711
H	-2.0464057839	-0.6913390495	 0.4658357596	 0.105399
H	-1.646265753	-1.0485711064	-1.24142799	 0.092571
H	-0.7745004493	-2.9626434661	 0.7953365062	 0.095769
H	 0.9520349158	-0.8579441398	 1.999709251	 0.102059
H	 2.1594158369	-0.3856832524	-0.6038115536	 0.103446
H	 0.3720788654	-2.37192707	-1.8187230207	 0.111008
123.3047	141.1858	211.5544	252.0884	299.8326	385.5357	437.315	477.5322	547.3644	615.8122	757.3826	795.4268	826.0275	840.0976	874.9469	894.6413	926.4568	932.3043	964.0618	1007.7504	1025.083	1036.9908	1061.9487	1097.9723	1131.6576	1157.0657	1164.2051	1195.6611	1219.3889	1240.4558	1259.1632	1302.1194	1343.4854	1406.2015	1428.609	1487.0125	1498.092	1504.8694	2353.8335	3024.3565	3027.2177	3042.8554	3086.7762	3092.5768	3097.5766	3156.9573	3206.0738	3230.9965
CC12CC3C1C2C3C#N	C[C@]12C[C@@H]3[C@H]1[C@H]2[C@H]3C#N	
InChI=1S/C8H9N/c1-8-2-4-5(3-9)7(8)6(4)8/h4-7H,2H2,1H3	InChI=1S/C8H9N/c1-8-2-4-5(3-9)7(8)6(4)8/h4-7H,2H2,1H3/t4-,5-,6-,7+,8-/m0/s1
