20
gdb 78185	2.05213	1.61951	1.36592	1.7251	84.58	-0.2267	0.0303	0.257	1093.8484	0.169554	-365.928966	-365.919753	-365.918809	-365.962391	35.248	
C	-1.2816799033	 0.7725801859	-0.8020735734	-0.43055
C	-0.5668881254	-0.5554202529	-0.91396628	 0.036421
C	 0.5614437823	-0.9504182749	-1.7819578307	-0.074391
C	 1.6738620812	 0.0838779288	-1.9547465591	 0.001592
C	 1.4814587723	 1.3244963217	-2.8173395388	-0.427152
C	 1.7348315728	 0.1389297076	-0.3862919237	-0.189136
C	 1.5456114574	 1.3849541181	 0.3323477565	 0.370697
C	 1.4565421629	 2.4203798173	 0.9389070479	-0.469319
N	 0.6920312817	-0.9596669193	-0.249413346	-0.165215
H	-0.6327235526	 1.6391436751	-0.9019891468	 0.141041
H	-2.056695459	 0.8280355016	-1.5748278441	 0.115735
H	-1.7763021411	 0.8448602858	 0.1723114308	 0.126184
H	-1.2655291571	-1.3834353535	-0.7866340193	 0.098031
H	 0.5368315443	-1.8839193266	-2.3378281382	 0.091292
H	 2.5779752939	-0.4297925654	-2.2948071761	 0.090244
H	 0.6006500302	 1.9058681599	-2.5416454312	 0.127856
H	 2.3529513255	 1.9828974693	-2.7400678432	 0.122697
H	 1.3748515236	 1.0360241804	-3.8689098449	 0.117608
H	 2.674471388	-0.3006058259	-0.0386218772	 0.117177
H	 1.3588911224	 3.3300311572	 1.4782621277	 0.19919
116.338	117.8336	156.72	191.3797	234.2474	260.0791	290.0759	337.3335	413.4968	509.9733	541.9357	617.3517	641.516	654.4607	686.5066	711.5947	765.9148	816.7843	888.8928	933.5354	941.1071	1016.7579	1024.2762	1070.3336	1090.1032	1114.8653	1122.7246	1164.1946	1170.9571	1235.4797	1269.5579	1285.3037	1351.8373	1370.9202	1382.1895	1411.6058	1416.8459	1451.5891	1485.4927	1493.4702	1499.2583	1506.7828	2224.3883	3038.3694	3040.0483	3046.9785	3064.5735	3093.441	3097.1428	3098.2901	3139.832	3144.1396	3175.0132	3501.5712
CC1C2C(C)C(C#C)N12	C[C@H]1[C@H]2[C@@H](C)[C@@H](C#C)N12	
InChI=1S/C8H11N/c1-4-7-5(2)8-6(3)9(7)8/h1,5-8H,2-3H3	InChI=1S/C8H11N/c1-4-7-5(2)8-6(3)9(7)8/h1,5-8H,2-3H3/t5-,6-,7+,8+,9?/m0/s1
