18
gdb 71652	3.10273	1.9225	1.64044	2.7197	72.83	-0.2267	0.0693	0.2961	873.5261	0.150066	-401.896401	-401.889861	-401.888917	-401.926785	27.931	
O	-0.0289579896	 1.4116150319	 0.0813695726	-0.493864
C	 0.0360658926	 0.0129456772	-0.0035818128	 0.397202
C	 0.332028997	-0.6423421509	-1.3895305169	-0.31105
C	-0.7926922037	-1.6516911387	-1.0748699404	-0.047988
C	-0.5274119023	-2.6383831719	 0.0787605354	-0.058319
C	 0.1118239436	-1.9999911367	 1.2602144831	-0.029323
C	 0.8405640374	-0.6848817621	 1.1034529655	-0.301454
N	-1.3490115323	-1.8325208133	 1.0751614916	-0.158529
C	-1.351226901	-0.728352848	 0.0306205351	-0.027863
H	 0.8629362046	 1.7637214694	-0.0130806904	 0.277402
H	 0.0317363725	 0.0285814845	-2.1996989621	 0.105773
H	 1.3449474324	-1.015049166	-1.5714566075	 0.089033
H	-1.4133272716	-2.0478676596	-1.8769932252	 0.078847
H	-0.637045338	-3.71633042	 0.0081246069	 0.091012
H	 0.3773678213	-2.6534013524	 2.0863569584	 0.094124
H	 1.8993851005	-0.8024945834	 0.848441735	 0.097826
H	 0.7656137271	-0.1079197859	 2.0323373398	 0.112151
H	-2.2612226804	-0.137434514	-0.0379743882	 0.085019
217.3108	255.1927	289.4064	399.5192	418.7754	472.5513	575.5023	625.6818	698.2229	737.8164	752.6361	774.5779	854.5795	878.0942	885.9912	929.2168	944.6449	958.0401	964.384	1009.7476	1028.2256	1042.0523	1072.0676	1110.3995	1130.5759	1164.1784	1180.7615	1190.8875	1215.8431	1230.7032	1250.6847	1261.9614	1304.0305	1306.6909	1341.7565	1375.2652	1410.9484	1476.7851	1491.337	3034.7369	3042.8545	3081.7454	3103.793	3121.0472	3148.8871	3149.6947	3160.9758	3800.3748
OC12CC3C4C(C1)N4C23	O[C@@]12C[C@H]3[C@H]4[C@@H](C1)N4[C@@H]23	
InChI=1S/C7H9NO/c9-7-1-3-5-4(2-7)8(5)6(3)7/h3-6,9H,1-2H2	InChI=1S/C7H9NO/c9-7-1-3-5-4(2-7)8(5)6(3)7/h3-6,9H,1-2H2/t3-,4+,5-,6+,7-,8?/m0/s1
