15
gdb 5519	3.31889	1.89127	1.26491	1.2954	63.35	-0.2336	0.0008	0.2344	925.7993	0.11931	-399.830803	-399.823102	-399.822158	-399.863266	27.397	
C	 0.2279383201	 1.485647703	 0.0404319436	-0.501371
C	 0.0957675038	 0.001458356	-0.0402890191	 0.183368
C	-0.0199475951	-0.8007689229	-1.1337749103	 0.207667
C	-0.0451439111	-0.5792999292	-2.6129166014	-0.172627
O	 0.8656493943	 0.4248642397	-3.035694236	-0.400573
O	-0.1201625389	-2.1002103567	-0.6906602579	-0.175179
C	-0.064773028	-2.0012658732	 0.6545566057	 0.058692
N	 0.0667069332	-0.7983248564	 1.1037029829	-0.299431
H	 1.0864972782	 1.7622254785	 0.6609972471	 0.136352
H	 0.3590506258	 1.9126144235	-0.9553414464	 0.143401
H	-0.6590227536	 1.9322620482	 0.5033287749	 0.136759
H	 0.1367580141	-1.5432040528	-3.1110261842	 0.115266
H	-1.0292268144	-0.2283159504	-2.9442228664	 0.132989
H	 1.7394508059	 0.177688077	-2.7137827173	 0.286166
H	-0.1327544041	-2.9223654044	 1.2123210348	 0.148519
59.4514	155.8242	168.8359	228.8652	271.8816	354.5773	366.7052	438.3407	643.8947	671.5468	694.0314	738.9034	839.9538	954.3001	968.1273	986.247	1064.2213	1071.0407	1119.3685	1155.9642	1196.6261	1233.3645	1299.5247	1342.4134	1392.0803	1415.9156	1429.6154	1487.3227	1490.4045	1501.8639	1556.2062	1664.4446	2999.7154	3038.569	3057.6296	3091.8945	3142.0494	3273.1483	3806.1476
CC1=C(CO)OC=N1	Cc1c(CO)ocn1	
InChI=1S/C5H7NO2/c1-4-5(2-7)8-3-6-4/h3,7H,2H2,1H3	InChI=1S/C5H7NO2/c1-4-5(2-7)8-3-6-4/h3,7H,2H2,1H3
