19
gdb 89805	3.07085	1.47458	1.19932	1.9954	75.98	-0.2344	0.0876	0.3221	1093.5653	0.158693	-422.998869	-422.990907	-422.989963	-423.031177	31.416	
C	 0.2380862995	 1.5551079179	-0.0977433811	-0.404004
C	 0.0510698262	 0.0526666547	 0.0417964541	 0.098466
O	 0.6170621967	-0.5845865183	-1.1140641277	-0.313992
C	 1.1688969039	-1.8289418435	-0.751185379	 0.455158
C	 0.6270316651	-3.0924541842	-1.3741520695	-0.338925
C	 1.98245709	-2.5389412637	-1.7805222224	-0.328416
C	 1.4753018557	-1.7592129569	 0.7095864003	-0.067919
O	 2.1923462274	-0.5709083769	 1.0825660987	-0.255004
C	 0.7676599966	-0.5861668884	 1.2208934303	 0.010748
H	 1.3037943915	 1.7960030682	-0.0936484913	 0.140784
H	-0.1991029935	 1.9049585165	-1.0364972893	 0.127059
H	-0.2511018032	 2.0815588472	 0.7280139296	 0.112238
H	-1.0208410214	-0.1956300704	 0.1207249259	 0.072871
H	 0.5901637579	-4.0009689905	-0.7811229507	 0.111183
H	-0.1896377364	-2.9700628128	-2.0763329992	 0.124189
H	 2.0545156488	-2.0601341419	-2.750392818	 0.129931
H	 2.878309597	-3.0610079464	-1.4628736727	 0.120267
H	 1.684239451	-2.6544926941	 1.2876347027	 0.104566
H	 0.3734087672	-0.4982460867	 2.2297753193	 0.1008
95.096	164.7981	222.6116	238.3932	273.8304	347.8402	404.4546	466.8773	543.8108	578.8351	697.9633	764.387	819.9239	850.9609	857.6284	865.9893	890.4923	931.3026	943.7311	973.1628	1004.0301	1009.9513	1049.7668	1061.5184	1073.5961	1092.8571	1128.1181	1152.3429	1188.9989	1245.1991	1265.2016	1284.8188	1343.4123	1370.0641	1376.2384	1405.5911	1444.3445	1450.8438	1485.5247	1499.1102	1502.2693	2962.0366	3045.6315	3117.7358	3128.5126	3135.1262	3137.9105	3150.4414	3165.932	3217.2513	3231.8656
CC1OC2(CC2)C2OC12	C[C@H]1OC2(CC2)[C@H]2O[C@@H]12	
InChI=1S/C7H10O2/c1-4-5-6(8-5)7(9-4)2-3-7/h4-6H,2-3H2,1H3	InChI=1S/C7H10O2/c1-4-5-6(8-5)7(9-4)2-3-7/h4-6H,2-3H2,1H3/t4-,5+,6+/m1/s1
