16
gdb 51850	3.08595	1.21746	0.90999	1.5757	65.71	-0.2629	-0.0049	0.2581	1212.4074	0.125555	-475.093421	-475.085339	-475.084395	-475.126923	29.048	
O	 0.4424521649	 0.9607630563	-1.6400163135	-0.324494
C	 0.0618263205	 1.2169340987	-0.5165552794	 0.150698
N	 0.8891672093	 1.4324304308	 0.5403880683	-0.297858
C	 2.3095149702	 1.2050279363	 0.4392953245	-0.086529
C	 3.1330269703	 2.1736286218	-0.4163575188	-0.244122
C	 4.5009957148	 2.0722728401	 0.271669927	-0.093151
O	 4.2134193713	 1.8192146481	 1.6687672417	-0.219366
C	 2.9514288994	 1.3699360146	 1.8171658639	 0.443393
O	 2.434208411	 1.166496951	 2.8795122143	-0.352811
H	-1.0054460814	 1.3191773023	-0.2416182436	 0.088773
H	 0.5148485438	 1.4740284582	 1.4790069356	 0.265723
H	 2.5053230995	 0.1760686305	 0.1002404563	 0.132374
H	 3.1541595888	 1.9012772185	-1.4706140356	 0.145641
H	 2.7257976414	 3.184810789	-0.3216425368	 0.125888
H	 5.0995155083	 1.2389502219	-0.1122034183	 0.128385
H	 5.094788938	 2.9860129618	 0.2227188444	 0.137456
56.9057	125.573	148.1346	209.5433	243.0122	278.8761	441.7122	508.8864	551.8821	570.9335	666.6598	719.6294	763.92	866.4603	903.7015	958.0305	998.2964	1036.2208	1041.8184	1101.1025	1119.9412	1179.2584	1190.7897	1230.3096	1237.9148	1301.3412	1310.2577	1373.6965	1408.9019	1423.0245	1497.4688	1510.6451	1523.2114	1797.7176	1874.8593	2955.1101	2994.3425	3051.5889	3072.0169	3125.6649	3152.4644	3590.4402
O=CNC1CCOC1=O	O=CN[C@H]1CCOC1=O	
InChI=1S/C5H7NO3/c7-3-6-4-1-2-9-5(4)8/h3-4H,1-2H2,(H,6,7)	InChI=1S/C5H7NO3/c7-3-6-4-1-2-9-5(4)8/h3-4H,1-2H2,(H,6,7)/t4-/m0/s1
