17
gdb 5304	4.42948	1.39518	1.38046	2.1004	69.81	-0.2352	0.0077	0.2429	985.0918	0.142912	-363.90563	-363.897853	-363.896909	-363.938086	28.361	
C	 0.0084461823	 1.5541685725	 0.0260471077	-0.38604
C	 0.0449440033	 0.0140769688	-0.0050234857	-0.093284
C	 0.7661346978	-0.5015184841	-1.2652555299	-0.386149
C	 0.6522397468	-0.543655423	 1.2391810999	 0.364324
C	 0.2200660237	-1.3357329455	 2.251322724	-0.215512
N	 1.2478604719	-1.5346149055	 3.1690316852	-0.256726
C	 2.234972535	-0.8651371598	 2.6764963955	 0.068655
O	 1.9649944506	-0.2329801604	 1.5096827872	-0.187221
H	 1.0221488705	 1.963974993	 0.0706486591	 0.129294
H	-0.4756812451	 1.9430838821	-0.8750804633	 0.114451
H	-0.5427173634	 1.9193022286	 0.8973562299	 0.121487
H	-0.9878300862	-0.3547608753	-0.0237206716	 0.093801
H	 1.8120602766	-0.1797388595	-1.2708118895	 0.129392
H	 0.7481716822	-1.5941357304	-1.311996391	 0.12148
H	 0.2855501621	-0.1104143077	-2.1673676778	 0.114429
H	-0.7542582427	-1.7777158829	 2.3879278287	 0.120999
H	 3.2320205645	-0.747857811	 3.0712218116	 0.14662
57.9227	138.7814	191.1841	223.1674	263.5342	320.5803	397.2477	479.4576	645.0223	668.0808	718.9953	831.8018	855.4535	880.1465	931.7868	939.3198	963.3125	974.8979	1061.2526	1120.7395	1122.8205	1129.3899	1180.6982	1245.3849	1255.7799	1331.0861	1332.8506	1369.5718	1395.6877	1419.04	1486.7591	1491.6269	1501.0145	1510.9818	1553.2056	1636.1794	3036.7549	3036.8779	3040.4114	3108.8237	3113.4218	3114.5596	3117.9261	3261.9716	3275.7708
CC(C)C1=CN=CO1	CC(C)c1cnco1	
InChI=1S/C6H9NO/c1-5(2)6-3-7-4-8-6/h3-5H,1-2H3	InChI=1S/C6H9NO/c1-5(2)6-3-7-4-8-6/h3-5H,1-2H3
