17
gdb 69280	2.62417	1.55518	1.15982	3.5539	68.93	-0.2319	-0.0202	0.2117	1058.8158	0.135378	-458.956365	-458.948153	-458.947209	-458.989391	30.936	
O	 0.1669669715	 1.3745866797	 0.0994232788	-0.4643
C	 0.0551322483	-0.0150613439	 0.0077216811	 0.40658
C	-0.5050834195	-0.6641205362	-1.2102023148	-0.366715
C	-1.3069884514	-0.6892721699	 0.106780467	-0.201687
C	-1.4324811129	-1.967449019	 0.8567053229	 0.398212
O	-2.4984869852	-2.4666831772	 1.138966606	-0.323637
C	-0.1029506002	-2.5832511331	 1.3010899336	-0.199944
O	 0.7741008547	-1.5792603864	 1.7760060015	-0.232737
C	 1.2027396088	-0.696620071	 0.7589372721	-0.141674
H	-0.3720525252	 1.7830016749	-0.585379274	 0.286467
H	-0.9196839404	-0.0379026519	-1.9944392181	 0.123008
H	-0.0634755277	-1.5878015462	-1.5703033343	 0.129712
H	-2.1917711861	-0.0615519028	 0.1291405065	 0.110611
H	-0.2999423658	-3.270961444	 2.1252218589	 0.139676
H	 0.3535028876	-3.1549488981	 0.4724401359	 0.102438
H	 1.8566514405	-1.2285846843	 0.0490508096	 0.096521
H	 1.7856005328	 0.0831483894	 1.2522438774	 0.137468
76.6095	110.2614	153.1959	247.0805	351.069	369.8457	385.4916	434.9315	463.9913	506.5191	576.393	651.8871	729.9303	821.5109	881.0064	907.7024	932.143	967.3726	975.705	1005.9608	1028.9918	1065.4751	1104.0579	1138.1662	1179.6335	1220.9998	1257.8446	1265.5075	1318.8719	1349.9871	1373.8044	1403.7644	1423.3538	1471.6435	1482.7331	1494.9559	1806.2278	2944.2504	2973.9506	3119.356	3123.0793	3123.5545	3172.6438	3210.1735	3822.3256
OC12CC1C(=O)COC2	O[C@]12C[C@H]1C(=O)COC2	
InChI=1S/C6H8O3/c7-5-2-9-3-6(8)1-4(5)6/h4,8H,1-3H2	InChI=1S/C6H8O3/c7-5-2-9-3-6(8)1-4(5)6/h4,8H,1-3H2/t4-,6-/m0/s1
