16
gdb 27100	3.25463	1.18403	0.90807	2.4734	74.28	-0.221	0.006	0.227	1242.9864	0.124737	-434.099709	-434.091075	-434.090131	-434.134057	30.546	
C	-0.3280449287	 1.3067545486	-0.4042469927	-0.500292
C	-0.0815105461	-0.1490773062	-0.1808110464	 0.18608
C	 0.3526320454	-1.0970269271	-1.0703133325	 0.282767
N	 0.4485006392	-2.2837422739	-0.3759244509	-0.301915
C	 0.0723581389	-2.0072024051	 0.9054569754	 0.009899
N	-0.2573922571	-0.7470893823	 1.0536871172	-0.304455
O	 0.7226700663	-1.0553636956	-2.3818154082	-0.214116
C	-0.2560185269	-0.7817070707	-3.2973479431	 0.108584
N	 0.056727759	-0.6666287538	-4.5089032567	-0.427441
H	 0.2381355583	 1.905300276	 0.3163599158	 0.142198
H	-0.0246019813	 1.6094021151	-1.4102162951	 0.12739
H	-1.3858568638	 1.5602586444	-0.2734847426	 0.132781
H	 0.7720283404	-3.157661963	-0.7565571136	 0.275787
H	 0.063650061	-2.7611274166	 1.6782631018	 0.134539
H	-1.24570972	-0.6909168121	-2.8354301665	 0.109054
H	-0.7714691045	-0.4711900877	-5.067313402	 0.23914
42.6844	106.7671	118.6418	144.658	248.3552	261.7471	401.6529	429.2588	497.8284	502.3483	668.9156	686.6024	702.4328	802.0712	820.3096	828.1311	952.4773	982.6585	1030.5688	1049.3929	1065.5018	1105.7479	1172.4458	1251.1133	1277.163	1291.1646	1389.537	1397.7879	1417.2601	1464.6754	1477.4098	1494.4551	1526.866	1648.9169	1750.0209	3035.3303	3061.2713	3091.7229	3118.097	3252.1126	3524.5755	3662.4756
CC1=C(NC=N1)OC=N	Cc1c([nH]cn1)O[CH][NH]	
InChI=1S/C5H7N3O/c1-4-5(9-2-6)8-3-7-4/h2-3,6H,1H3,(H,7,8)	InChI=1S/C5H7N3O/c1-4-5(9-2-6)8-3-7-4/h2-3,6H,1H3,(H,7,8)
