20
gdb 80661	2.63602	1.71707	1.25767	3.7122	79.31	-0.2273	0.0322	0.2595	1054.5682	0.173331	-403.181671	-403.17373	-403.172786	-403.214146	31.045	
C	-0.0460831974	 1.440399797	 0.0262041825	-0.354437
N	 0.0072067757	-0.0087524977	 0.0182436566	-0.070283
C	-1.2327122359	-0.7868098047	 0.0472717486	 0.01246
C	-1.1259852229	-1.9137561379	 1.1112612232	-0.228184
C	-0.3466399381	-2.6980343751	 0.0154510146	-0.029345
C	-1.182204034	-1.9041640091	-1.0309031853	-0.228188
C	 1.1010479122	-2.1952451918	-0.0203067297	-0.320236
C	 1.2121363164	-0.6626498956	-0.0163498257	 0.397419
O	 2.2906315188	-0.0956190763	-0.0421281129	-0.397817
H	 0.9797035385	 1.8078917362	 0.0009643016	 0.168784
H	-0.5888057823	 1.8218038378	-0.8475612477	 0.120583
H	-0.5421778054	 1.813749869	 0.9306277852	 0.120582
H	-2.0794482396	-0.1001819017	 0.0725640581	 0.075158
H	-0.6129146847	-1.673716841	 2.0461733846	 0.101592
H	-2.099097574	-2.363795622	 1.3224421498	 0.103016
H	-0.4017249731	-3.7889686714	 0.0120146894	 0.068289
H	-2.1651500256	-2.3525410173	-1.1947884245	 0.103018
H	-0.718815727	-1.6556421497	-1.9892504392	 0.101593
H	 1.6727437272	-2.5595151076	 0.8405364985	 0.127997
H	 1.6267184614	-2.5516701611	-0.9131718677	 0.127997
96.2948	120.2201	149.2078	316.4172	331.8129	392.051	423.2022	448.4903	505.2796	599.3498	614.3119	702.0462	807.1591	853.7651	868.4668	886.7368	921.915	942.1475	973.7086	1033.1585	1063.9195	1080.3299	1086.3292	1127.7942	1134.2219	1156.9559	1160.3434	1212.2702	1242.6771	1254.8197	1264.543	1290.3891	1318.7717	1325.3929	1364.7571	1422.8787	1455.4994	1470.0968	1470.5835	1499.7665	1501.7344	1521.2802	1771.8695	3013.5212	3045.4572	3055.3206	3059.5879	3061.7015	3081.4333	3083.0746	3105.014	3117.3372	3120.7965	3157.1572
CN1C2CC(C2)CC1=O	CN1[C@@H]2C[C@@H](C2)CC1=O	
InChI=1S/C7H11NO/c1-8-6-2-5(3-6)4-7(8)9/h5-6H,2-4H2,1H3	InChI=1S/C7H11NO/c1-8-6-2-5(3-6)4-7(8)9/h5-6H,2-4H2,1H3/t5-,6+
