17
gdb 41048	3.2944	2.1109	1.89648	1.7089	73.45	-0.2207	0.0638	0.2845	804.4094	0.137563	-384.55839	-384.552457	-384.551513	-384.588225	25.918	
C	 0.0281759108	 1.4893999978	-0.2429629288	-0.316271
C	 1.5443746163	 1.5884000524	 0.1786467151	-0.326007
C	 1.4878778768	 0.1368416386	 0.7179532605	 0.194262
C	 0.9611128737	-0.4898328218	 2.0439388685	-0.175013
C	 0.8611786771	-1.7853080535	 1.275624605	-0.074563
C	-0.3349450779	-0.8265662779	 1.3119994326	-0.164469
C	 0.0857170829	-0.0099751101	 0.0831322304	 0.371245
O	 0.5779910135	-0.8924893805	-0.9671014843	-0.336687
C	 1.599447412	-1.2356514135	 0.0017978305	 0.00909
H	-0.6459343048	 2.0448907391	 0.4134082712	 0.114769
H	-0.2083958091	 1.7281601541	-1.2812346624	 0.120794
H	 2.2313244192	 1.7077701193	-0.6618937196	 0.122499
H	 1.7788429988	 2.3500760779	 0.9250143875	 0.113557
H	 1.1738831772	-0.31927619	 3.0896662244	 0.090671
H	 0.8146656756	-2.7935631497	 1.660820474	 0.096057
H	-1.3081109673	-1.1165748279	 1.6901583854	 0.087113
H	 2.4628005352	-1.7563451241	-0.4176203502	 0.072953
189.4077	293.0562	418.1822	527.7135	563.9749	621.9861	666.1659	720.1417	746.6026	794.6237	802.363	816.2875	830.9853	865.0407	866.5017	893.3831	917.1337	961.396	978.5073	1005.3366	1012.7548	1038.3242	1073.0674	1118.1086	1132.1364	1162.7659	1177.1711	1219.8509	1232.0178	1250.0453	1257.1535	1269.1026	1293.4927	1306.0072	1328.5354	1454.0633	1469.1394	3068.9632	3072.3041	3095.792	3118.7524	3135.6849	3177.7262	3212.8777	3228.5923
C1CC23C4C5C4C12OC35	C1C[C@@]23[C@@H]4[C@H]5[C@@H]4[C@@]12O[C@@H]35	
InChI=1S/C8H8O/c1-2-8-5-3-4(5)7(1,8)6(3)9-8/h3-6H,1-2H2	InChI=1S/C8H8O/c1-2-8-5-3-4(5)7(1,8)6(3)9-8/h3-6H,1-2H2/t3-,4+,5-,6+,7-,8-/m0/s1
