18
gdb 32223	2.68481	1.47738	1.03143	3.7449	81.98	-0.2225	-0.0277	0.1947	1168.8133	0.149892	-398.191215	-398.182787	-398.181842	-398.224322	31.775	
C	-0.094210057	 1.5387509094	-0.0224378812	-0.381613
C	 0.0641749549	 0.0061323688	-0.0260025689	-0.29134
C	 0.7357175502	-0.511178405	 1.2213792529	 0.288817
N	 2.0570836077	-0.6982683892	 1.1746355686	-0.298911
C	 2.6618961197	-1.1491141242	 2.2725139159	 0.0425
N	 2.0772905268	-1.4395326264	 3.4340686876	-0.249571
C	 0.7616935676	-1.2467622803	 3.4846006414	-0.036322
C	 0.0132553421	-0.7754121337	 2.4023707235	 0.207532
N	-1.3728603402	-0.6468864029	 2.4775072468	-0.59881
H	 0.8845996668	 2.0216169301	 0.0468315372	 0.139461
H	-0.5818209994	 1.8809306968	-0.939996523	 0.121353
H	-0.6938891928	 1.8886453848	 0.8255930366	 0.108267
H	-0.9152616385	-0.472727731	-0.1460006821	 0.10725
H	 0.6807799845	-0.2900930906	-0.8782420873	 0.126965
H	 3.7368234271	-1.2967378101	 2.2130229881	 0.109848
H	 0.2654621584	-1.4781163002	 4.4275556076	 0.098173
H	-1.7389903852	-0.6275885127	 3.4191373077	 0.250556
H	-1.7730693327	 0.0885846763	 1.9149072987	 0.255846
75.9996	115.8515	203.7012	217.6946	280.4603	322.7241	344.4618	432.6931	477.5536	534.0546	608.5072	611.7665	641.6852	742.9875	796.6815	816.955	881.8845	928.5355	975.9399	980.2017	1050.1467	1075.8972	1092.782	1179.7899	1228.4752	1258.0225	1283.6792	1310.267	1349.2601	1360.3048	1406.7887	1448.3616	1484.832	1493.0654	1497.0067	1509.7473	1593.012	1614.3053	1659.8851	3033.5111	3036.1471	3090.3746	3109.5147	3120.3828	3121.9959	3170.0905	3564.1668	3662.6944
CCC1=NC=NC=C1N	CCc1ncncc1N	
InChI=1S/C6H9N3/c1-2-6-5(7)3-8-4-9-6/h3-4H,2,7H2,1H3	InChI=1S/C6H9N3/c1-2-6-5(7)3-8-4-9-6/h3-4H,2,7H2,1H3
