23
gdb 36888	4.22857	0.84427	0.82158	0.2654	89.75	-0.2447	0.0913	0.336	1532.112	0.207215	-351.110561	-351.101941	-351.100997	-351.144623	33.762	
C	-0.2611558113	 1.6638564526	 0.1554176487	-0.254519
C	-0.267348741	 0.1976539256	-0.2320507275	 0.049987
C	-0.0862125854	-0.8703003874	 0.8182025186	-0.25673
C	-1.4245311513	-0.6914447058	 0.1411334282	-0.279462
C	 1.1428314538	 2.235290078	 0.2337560306	 0.021935
C	 1.948073259	 2.7449276315	-0.9353635799	-0.063548
C	 1.0792295237	 3.5136951588	-1.9408327809	-0.228143
C	 0.6312776703	 4.4795154162	-0.7965019406	-0.226227
C	 1.5074730437	 3.6949204056	 0.1903139776	-0.08864
H	-0.8713984244	 2.2306511211	-0.5566663676	 0.098427
H	-0.7523968923	 1.7795338832	 1.1315114516	 0.088413
H	 0.1971279909	-0.0067611789	-1.193706408	 0.082158
H	 0.5017689505	-1.7484117672	 0.5746611031	 0.107906
H	 0.0014364159	-0.553036236	 1.8528266239	 0.106887
H	-2.2307069667	-0.2552484243	 0.7225630943	 0.107406
H	-1.74906973	-1.4466341764	-0.5664086654	 0.107643
H	 1.7723296913	 1.6890034601	 0.9351938368	 0.08219
H	 2.9387085155	 2.3593890678	-1.1477066931	 0.077439
H	 1.6739894669	 4.0288767137	-2.6982957667	 0.100648
H	 0.2970575959	 2.9431903042	-2.452672435	 0.094215
H	 0.9933016482	 5.4971604256	-0.9585728844	 0.099982
H	-0.4387778535	 4.5298337038	-0.5703720617	 0.094425
H	 2.1090137706	 4.1462027585	 0.9712919874	 0.077607
50.9877	75.5149	132.9048	206.6249	261.6313	347.9058	369.666	453.2393	537.6992	709.2156	755.3715	776.2843	788.9724	795.5181	813.127	836.7288	887.4915	908.7598	936.8459	955.6137	959.6259	994.0185	1012.0948	1021.7121	1031.5555	1056.2236	1077.1872	1077.8764	1116.8948	1131.3158	1143.3316	1162.0141	1197.1114	1204.1856	1222.7107	1227.6797	1245.1914	1264.1062	1273.4991	1306.7693	1311.2069	1356.1268	1412.1437	1451.0121	1468.9703	1477.4352	1491.9171	1507.6264	1510.364	3012.8643	3043.3041	3050.1409	3061.3907	3092.7251	3111.3605	3118.0021	3125.727	3129.9906	3135.9935	3164.9848	3177.444	3202.8792	3218.2735
C(C1CC1)C1C2CCC12	C(C1CC1)[C@H]1[C@H]2CC[C@@H]12	
InChI=1S/C9H14/c1-2-6(1)5-9-7-3-4-8(7)9/h6-9H,1-5H2	InChI=1S/C9H14/c1-2-6(1)5-9-7-3-4-8(7)9/h6-9H,1-5H2/t7-,8+,9-
