17
gdb 52937	3.28179	1.00227	0.87551	1.8735	80.3	-0.2413	0.0164	0.2578	1374.4726	0.134131	-421.733503	-421.724756	-421.723812	-421.76866	32.08	
C	-0.1063474689	 1.4061388241	-0.0301271119	-0.517931
C	-0.0309795592	-0.0454054976	-0.0180250849	 0.37888
C	 0.0268076988	-1.2491082175	-0.0084854457	-0.386792
C	 0.1289685356	-2.6710086536	-0.0179766028	 0.292879
C	 0.5379001117	-3.657554476	 1.1044676582	-0.261441
C	-0.0053046847	-4.4864619729	-0.0713927422	-0.034662
O	-1.1136990578	-3.5054892693	-0.2272903763	-0.37021
C	 0.8266962034	-3.6259614924	-1.0616088013	 0.15809
O	 0.4196453306	-3.5558035729	-2.378446264	-0.438704
H	 0.463166086	 1.8273828491	-0.8656173941	 0.155933
H	-1.1445427591	 1.7406549251	-0.1316600687	 0.158785
H	 0.2911535689	 1.8321650875	 0.8974580848	 0.154316
H	 1.5999492011	-3.7316991447	 1.3509890259	 0.10333
H	-0.1084738838	-3.6294038288	 1.9806542244	 0.121884
H	-0.2710908571	-5.5414613687	-0.1165221725	 0.102467
H	 1.9157429502	-3.6970712079	-1.0238357213	 0.093764
H	-0.5459234955	-3.4795323934	-2.3373113275	 0.289411
17.5704	81.2775	102.5246	242.0371	287.7107	326.3676	368.6006	462.2401	493.7284	514.7222	526.9218	597.4656	706.0512	741.0368	774.1466	880.652	888.159	936.5073	972.7927	1014.5202	1048.453	1051.9898	1054.0413	1096.2654	1142.6898	1163.1104	1196.5894	1220.0522	1233.8038	1309.5501	1351.9813	1412.2932	1445.9069	1473.2377	1475.8248	1493.9299	2363.8104	3029.1477	3070.1038	3092.25	3093.1077	3102.0537	3137.1739	3161.9286	3722.211
CC#CC12CC(O1)C2O	CC#C[C@@]12C[C@@H](O1)[C@H]2O	
InChI=1S/C7H8O2/c1-2-3-7-4-5(9-7)6(7)8/h5-6,8H,4H2,1H3	InChI=1S/C7H8O2/c1-2-3-7-4-5(9-7)6(7)8/h5-6,8H,4H2,1H3/t5-,6-,7+/m1/s1
