22
gdb 13411	5.29782	1.01366	0.9012	0.8959	78.97	-0.2498	0.0858	0.3356	1353.4377	0.201259	-350.213891	-350.204926	-350.203982	-350.248842	32.21	
C	 0.0135142541	 1.3852748361	 0.0387737519	-0.223707
O	 0.0141813533	-0.0195927038	 0.0839121376	-0.234502
C	-1.2801475633	-0.5756336896	-0.0191873142	-0.076564
C	-1.1758411945	-2.0901570681	 0.0486076032	 0.035856
C	-0.6090974705	-2.6368548428	 1.3712391928	-0.193563
C	-1.0446843495	-4.1084871022	 1.3566933311	-0.201814
C	-2.4871281516	-4.0617241531	 0.8064643145	-0.199212
C	-2.5461430626	-2.8023216321	-0.1072370467	-0.225934
H	 1.0512205178	 1.7184597165	 0.121222298	 0.124383
H	-0.4068473617	 1.7652226711	-0.9066193395	 0.100493
H	-0.5662376247	 1.8227006146	 0.8677861443	 0.100774
H	-1.9224553323	-0.2057962402	 0.8013042117	 0.077853
H	-1.7556792534	-0.2613180563	-0.9653132881	 0.080212
H	-0.5109505314	-2.4105346337	-0.7637222495	 0.076501
H	 0.4703965002	-2.4953572311	 1.4589049494	 0.104048
H	-1.0777191067	-2.1145532336	 2.217203897	 0.087194
H	-0.3982334141	-4.6749400574	 0.6749402438	 0.0952
H	-0.9792162396	-4.5911623525	 2.3361598051	 0.08962
H	-2.7576032237	-4.976700862	 0.2722731882	 0.094356
H	-3.1988376157	-3.9600157606	 1.632371732	 0.09745
H	-3.3594227004	-2.1383538105	 0.2081452871	 0.09322
H	-2.7439298397	-3.0583346488	-1.1519388399	 0.098137
24.3643	86.0166	109.5304	153.4955	212.6245	240.1151	335.8931	373.3144	442.7629	576.5275	640.3	775.5989	826.6524	877.6596	894.8091	910.3063	943.3955	983.3718	1002.1644	1016.157	1033.4812	1102.4957	1122.2567	1165.0612	1179.3949	1194.8954	1208.7198	1224.4314	1230.7895	1264.4458	1283.6092	1298.1681	1315.3817	1324.4291	1343.8408	1350.6109	1386.1587	1422.571	1480.6824	1485.1816	1488.8775	1490.5847	1495.4012	1502.6682	1516.2474	1526.4001	2930.8524	2958.9764	2965.2033	3005.4539	3010.7697	3023.9915	3032.0667	3033.5544	3049.1029	3073.6154	3084.8645	3097.7624	3105.2094	3109.2569
COCC1CCCC1	COCC1CCCC1	
InChI=1S/C7H14O/c1-8-6-7-4-2-3-5-7/h7H,2-6H2,1H3	InChI=1S/C7H14O/c1-8-6-7-4-2-3-5-7/h7H,2-6H2,1H3
