14
gdb 27430	2.61983	1.75615	1.22375	5.1563	70.26	-0.2539	-0.1026	0.1514	996.7227	0.101309	-432.895848	-432.888286	-432.887342	-432.928001	27.562	
C	-0.3620105716	 1.4390154922	 0.1390588772	-0.478138
C	-0.0238031956	-0.0090416076	-0.0903639773	 0.280248
N	-0.3193435215	-0.5743358595	-1.2030924378	-0.25737
C	 0.0996973323	-1.9055478813	-1.4199764763	 0.36614
O	 0.8828993847	-2.2078723616	-2.2761390415	-0.295437
N	-0.5891353773	-2.8393432488	-0.6192612531	-0.219517
C	-0.3913850003	-2.7883170434	 0.6425693222	 0.075044
N	 0.463556721	-1.9517801545	 1.3581639981	-0.201413
C	 0.6461471492	-0.725077532	 1.022887749	-0.012224
H	 0.549521173	 2.0159085895	 0.3355906992	 0.14972
H	-0.8617755491	 1.845706011	-0.739943879	 0.162887
H	-1.0091694953	 1.5565044168	 1.0155416272	 0.148534
H	-0.8948395603	-3.5192937301	 1.2747873608	 0.145136
H	 1.3059975808	-0.1340916307	 1.6634823413	 0.136389
127.7349	135.9445	164.6828	259.075	292.3679	363.319	420.6858	472.1173	556.6931	641.4862	678.2857	716.8038	859.171	875.6123	907.2535	941.188	1008.4258	1019.0601	1060.965	1072.2385	1167.1046	1230.4869	1401.1712	1411.3578	1415.226	1468.4108	1476.3324	1604.6713	1663.9009	1694.2167	1838.3433	3035.1555	3090.2566	3096.8785	3143.728	3159.071
CC1=NC(=O)N=CN=C1	Cc1nc(=O)ncnc1	
InChI=1S/C5H5N3O/c1-4-2-6-3-7-5(9)8-4/h2-3H,1H3	InChI=1S/C5H5N3O/c1-4-2-6-3-7-5(9)8-4/h2-3H,1H3
