18
gdb 129818	4.36997	0.99694	0.86891	3.0718	80.18	-0.2011	0.0413	0.2423	1343.5512	0.149901	-398.136097	-398.127656	-398.126712	-398.169448	32.014	
N	 0.2122353482	 1.391315557	-0.2491595242	-0.607173
C	 0.0053639836	 0.016157997	-0.1095820709	 0.402376
C	-1.0603380566	-0.7997747487	-0.4345990689	-0.398399
C	-0.6166845138	-2.1155870334	-0.1295208356	 0.384543
N	 0.6222304758	-2.1155793708	 0.3510830364	-0.318137
N	 0.9822534505	-0.8012438701	 0.3531536407	-0.250918
C	-1.3441930638	-3.3920693233	-0.270769048	-0.074842
C	-2.8372624373	-3.4696242988	-0.0238285935	-0.269514
C	-2.3043878769	-3.6150999339	-1.421181768	-0.268806
H	 0.5783805557	 1.8285318204	 0.5887211522	 0.249155
H	-0.6354174079	 1.8683777719	-0.5253340451	 0.255055
H	-2.0185859282	-0.4850000596	-0.8159216581	 0.089056
H	 1.9231834226	-0.5501261346	 0.6018470661	 0.264759
H	-0.7554605278	-4.2466849756	 0.043470595	 0.092703
H	-3.2226096695	-4.3498686382	 0.4789467781	 0.111907
H	-3.346280813	-2.548039812	 0.2370832552	 0.112266
H	-2.4491727954	-2.7924285885	-2.1130783664	 0.113817
H	-2.3218209962	-4.5957133789	-1.8839048248	 0.112149
63.0801	137.5521	151.3909	177.2694	281.467	347.384	388.0285	442.7852	477.6776	580.0786	663.8005	715.2542	729.8375	751.213	784.8208	790.8818	825.0133	915.729	920.4515	993.6636	1044.9171	1058.3954	1064.3948	1074.0687	1110.0815	1136.853	1143.5667	1197.7886	1201.6355	1220.1036	1336.7277	1361.6636	1439.3058	1468.2421	1497.2921	1511.0074	1548.5454	1621.0586	1660.6042	3130.5335	3134.6388	3173.803	3209.7606	3226.0585	3253.8245	3529.2433	3627.3042	3680.2271
NC1=CC(=NN1)C1CC1	Nc1cc(n[nH]1)C1CC1	
InChI=1S/C6H9N3/c7-6-3-5(8-9-6)4-1-2-4/h3-4H,1-2H2,(H3,7,8,9)	InChI=1S/C6H9N3/c7-6-3-5(8-9-6)4-1-2-4/h3-4H,1-2H2,(H3,7,8,9)
