18
gdb 18756	2.85823	2.23225	1.57087	0.6285	66.67	-0.2422	0.0586	0.3009	862.9609	0.15374	-384.901947	-384.894321	-384.893377	-384.933787	29.306	
C	 0.2455935893	 1.4396793114	-0.43523558	-0.416094
C	 0.036553669	 0.0266750942	 0.0833805457	 0.144007
O	 0.5244356115	-0.9885024857	-0.8354632411	-0.309873
C	 1.2759798372	-1.6363228041	 0.2085433646	 0.122255
C	 2.7450715996	-1.1479754757	 0.2704420351	-0.292542
C	 2.3481097266	-0.1998722432	 1.4492014893	 0.136802
O	 2.7854213381	 1.133352097	 1.4904553198	-0.428387
C	 0.8482160635	-0.5709756954	 1.2601105842	-0.1474
H	 1.2638930559	 1.586146687	-0.8087282909	 0.109185
H	-0.4273049593	 1.6309664522	-1.2770983062	 0.130211
H	 0.0370715189	 2.1779355358	 0.3453690979	 0.130295
H	-1.0376909709	-0.1278088494	 0.2599302602	 0.081901
H	 1.0719989132	-2.7068885121	 0.2772905756	 0.077137
H	 3.5046887212	-1.8941343184	 0.5159458123	 0.1038
H	 3.0329455401	-0.636276449	-0.6517863173	 0.1067
H	 2.6845016694	-0.6332804974	 2.3961379402	 0.097486
H	 2.5841532896	 1.5490291089	 0.6475667772	 0.281064
H	 0.2767586371	-0.778396926	 2.1645519933	 0.073452
74.6058	154.7922	250.1524	271.8574	317.5957	372.4738	403.402	426.8238	594.4544	626.2646	706.1773	761.0871	845.606	869.6982	896.5984	937.4092	1003.3191	1007.5936	1010.756	1076.6749	1091.228	1102.5731	1140.3543	1162.9915	1171.6456	1206.7815	1239.2044	1266.1827	1296.9852	1310.3666	1334.9386	1342.7951	1393.7141	1403.8369	1440.8076	1465.0657	1477.0157	1511.546	2990.9103	3034.9789	3058.5748	3060.7542	3084.6697	3101.2797	3111.0181	3115.4746	3120.716	3840.4926
CC1OC2CC(O)C12	C[C@H]1O[C@H]2C[C@@H](O)[C@@H]12	
InChI=1S/C6H10O2/c1-3-6-4(7)2-5(6)8-3/h3-7H,2H2,1H3	InChI=1S/C6H10O2/c1-3-6-4(7)2-5(6)8-3/h3-7H,2H2,1H3/t3-,4-,5+,6-/m1/s1
