14
gdb 12046	4.07794	1.74673	1.56847	5.1273	61.4	-0.2653	0.0145	0.2797	822.9829	0.107663	-378.679557	-378.672708	-378.671764	-378.71042	26.33	
O	-0.0013351459	 1.3785409594	-0.0808275336	-0.469349
C	 0.0274284934	-0.015811125	-0.0185378056	 0.282941
C	 0.3094765758	-0.682701861	 1.4016357485	-0.287851
C	-1.1032035827	-1.2598904956	 1.3605303518	-0.027878
N	-2.0129350952	-0.0987929548	 1.1800196828	-0.360827
C	-1.3586641455	-0.7141093293	 0.0039723699	-0.103215
C	 0.9122526807	-0.5243055134	-1.0665375237	 0.264854
N	 1.5974026256	-0.9740465404	-1.8804952364	-0.331875
H	-0.744303799	 1.6305442561	 0.4890268736	 0.299694
H	 1.0926616544	-1.4402674019	 1.3524563504	 0.13687
H	 0.5208805291	 0.0351143538	 2.1968660318	 0.122685
H	-1.4602644773	-2.1786938717	 1.8057393948	 0.111383
H	-2.9747492824	-0.4319699222	 1.208601501	 0.244774
H	-1.9246291112	-1.0915565739	-0.8375958453	 0.117793
135.3267	166.369	228.8273	351.5118	423.5422	489.7549	499.8029	558.0645	560.9236	668.9027	755.4942	824.3698	847.8217	907.9894	932.6488	964.1557	981.4828	1012.383	1069.7783	1096.766	1123.0072	1140.3911	1199.8078	1228.2234	1288.5886	1309.634	1369.9328	1426.0817	1469.481	2366.0409	3078.96	3146.7237	3202.8452	3216.4961	3498.0313	3718.3886
OC1(CC2NC12)C#N	O[C@]1(C[C@H]2N[C@@H]12)C#N	
InChI=1S/C5H6N2O/c6-2-5(8)1-3-4(5)7-3/h3-4,7-8H,1H2	InChI=1S/C5H6N2O/c6-2-5(8)1-3-4(5)7-3/h3-4,7-8H,1H2/t3-,4-,5-/m1/s1
