18
gdb 95901	2.16428	1.62411	1.30721	3.9136	71.32	-0.2626	0.0302	0.2929	1053.3938	0.147119	-439.098148	-439.089003	-439.088059	-439.131975	33.293	
C	-0.3557879394	 1.556812333	 0.0280338057	-0.447964
C	 0.0492814278	 0.0748717242	 0.0325204728	 0.0604
C	 1.0570409415	-0.3053723264	-1.0801741913	-0.079631
O	 1.6720664731	-1.5105701024	-0.6592024043	-0.262039
C	 1.5666855752	-1.6386400464	 0.7573170086	-0.096318
C	 0.8650505689	-0.3755625155	 1.2799358878	 0.076454
O	 1.774270351	 0.6731448175	 1.5664040589	-0.440751
C	-1.1483864393	-0.7697029993	-0.0689180099	 0.273632
N	-2.0995573213	-1.4226952609	-0.1390931352	-0.345115
H	 0.5300459841	 2.1790802888	 0.1550449495	 0.150663
H	-0.8457167016	 1.8125602108	-0.9153401694	 0.134041
H	-1.0532838556	 1.7723999094	 0.8412113973	 0.137689
H	 0.5796770907	-0.4758543806	-2.0485050936	 0.124839
H	 1.7927568352	 0.5050318532	-1.1774905657	 0.10885
H	 0.9903036444	-2.5415296962	 0.9952989449	 0.12283
H	 2.5664084325	-1.7398977442	 1.2001535866	 0.096413
H	 0.2166940169	-0.5870469786	 2.139548045	 0.093123
H	 2.3847543858	 0.3668669435	 2.2438988323	 0.292883
81.3181	118.3977	149.2923	207.5568	218.6792	233.9693	282.226	324.2658	393.6229	451.255	507.7112	563.7136	627.6756	747.929	802.6592	870.0222	896.4023	941.3753	951.4138	1015.734	1029.4712	1113.1766	1117.9011	1157.6314	1161.0952	1200.1797	1217.0057	1248.9832	1288.3915	1328.561	1362.9272	1392.0897	1404.0633	1430.6981	1492.0643	1497.5817	1507.9101	1518.6698	2354.0329	3006.8138	3013.4306	3029.5779	3052.7356	3057.1661	3097.6574	3125.4887	3158.0287	3829.1802
CC1(COCC1O)C#N	C[C@]1(COC[C@H]1O)C#N	
InChI=1S/C6H9NO2/c1-6(3-7)4-9-2-5(6)8/h5,8H,2,4H2,1H3	InChI=1S/C6H9NO2/c1-6(3-7)4-9-2-5(6)8/h5,8H,2,4H2,1H3/t5-,6-/m1/s1
