21
gdb 63576	2.97385	1.33898	1.14363	1.2835	86.92	-0.2054	0.0169	0.2223	1179.6653	0.181174	-387.08692	-387.077834	-387.07689	-387.120379	34.987	
C	-0.099084369	 1.5115373902	-0.0258786478	-0.444793
C	-0.0388715823	-0.0038321813	-0.0443811077	 0.256764
C	-1.1893240494	-0.664588663	-0.7802036233	-0.452195
C	 1.3322470386	-0.6575449608	-0.1251449993	-0.397199
C	 0.5584152788	-0.6913080719	 1.1733223206	 0.405356
O	 1.0357511599	 0.1279650156	 2.2282263259	-0.310574
C	 0.7824972208	-0.5049246324	 3.4820070557	-0.129473
C	 0.1482606084	-1.822337931	 3.1321654245	-0.115852
C	 0.0284452257	-1.9168363628	 1.8109477352	-0.152925
H	 0.7110067935	 1.9367380482	 0.5689284735	 0.133391
H	-0.0332351116	 1.9119635798	-1.0444486699	 0.108175
H	-1.0449534136	 1.8578285304	 0.4069583646	 0.111184
H	-1.225810207	-0.3187103937	-1.8204003377	 0.115057
H	-1.0969431176	-1.7542328709	-0.8034913403	 0.108848
H	-2.1515572995	-0.4197489925	-0.315516629	 0.116354
H	 1.4425301637	-1.5787693662	-0.6895253662	 0.104505
H	 2.2012147213	-0.0077784856	-0.1399701786	 0.117693
H	 1.7290322433	-0.6210779496	 4.032707417	 0.106756
H	 0.1254215943	 0.1300180942	 4.0980739634	 0.104851
H	-0.1519753653	-2.5544494478	 3.8701983684	 0.10492
H	-0.386421033	-2.7458991487	 1.2548378308	 0.109156
79.2381	145.998	172.5982	190.3006	219.24	272.2187	343.8294	373.0791	398.5344	441.4554	532.8252	552.7351	693.214	772.664	782.8792	838.0425	880.2372	904.3098	916.0134	947.0981	955.614	972.8443	982.685	1029.2765	1045.3066	1049.8508	1055.5315	1121.9037	1152.0266	1193.707	1197.7291	1208.7468	1292.1456	1344.9014	1381.1815	1403.1881	1409.9487	1423.3349	1475.0943	1483.2888	1489.646	1502.3512	1512.471	1521.9184	1679.299	2969.848	2987.9174	3020.5406	3026.592	3077.9001	3081.0442	3101.7683	3119.1356	3133.9002	3211.1668	3215.2333	3240.7678
CC1(C)CC11OCC=C1	CC1(C)C[C@]21OCC=C2	
InChI=1S/C8H12O/c1-7(2)6-8(7)4-3-5-9-8/h3-4H,5-6H2,1-2H3	InChI=1S/C8H12O/c1-7(2)6-8(7)4-3-5-9-8/h3-4H,5-6H2,1-2H3/t8-/m1/s1
