14
gdb 57127	3.77028	0.76272	0.65785	4.9331	80.32	-0.2518	-0.0307	0.2211	1602.3302	0.099366	-436.655738	-436.646601	-436.645656	-436.690509	32.652	
N	 0.056451833	 1.0362990785	-0.0917689346	-0.526425
H	-1.3078331772	-0.2759513599	-0.0374959831	 0.311326
H	 1.0626516647	 1.0483037655	 0.0356722831	 0.257525
H	-0.1488903867	 1.6452199724	-0.8791151714	 0.258185
C	-0.6303878527	 1.5347470407	 1.1179860656	-0.381899
C	-0.6998015704	 2.9843889654	 1.222884684	 0.491636
C	-0.7294007263	 4.1934180186	 1.2571143868	-0.286252
C	-0.7642402062	 5.5525468446	 1.2980379835	 0.295374
C	-0.7918650511	 6.7590062895	 1.3326395865	-0.545285
C	-2.0419713999	 0.8724041817	 1.2249685568	 0.456724
O	-2.9018856524	 1.2782175567	 1.9510328422	-0.320112
O	-2.1518625298	-0.2190179536	 0.4629646137	-0.365963
H	-0.0851210151	 1.1366655519	 1.9848884657	 0.157423
H	-0.8224552	 7.8199199378	 1.3669037211	 0.197743
55.4761	68.8696	116.8648	203.4771	259.8829	304.9548	319.408	403.2486	440.7748	512.792	528.2582	548.9514	583.729	599.8489	614.5848	707.52	798.2404	847.5962	860.6717	932.9513	1083.6282	1165.3913	1184.6402	1210.7621	1278.4649	1375.8565	1422.8255	1659.0981	1887.7199	2183.6877	2363.1082	3023.6761	3474.98	3503.5454	3505.2238	3586.1278
[NH3+]C(C#CC#C)C([O-])=O	N[C@@H](C#CC#C)C(=O)O	
InChI=1S/C6H5NO2/c1-2-3-4-5(7)6(8)9/h1,5H,7H2,(H,8,9)	InChI=1S/C6H5NO2/c1-2-3-4-5(7)6(8)9/h1,5H,7H2,(H,8,9)/t5-/m0/s1
