14
gdb 26572	2.38952	1.89531	1.05696	4.8433	68.59	-0.2008	-0.0149	0.186	1032.7873	0.102571	-473.890771	-473.883284	-473.882339	-473.922416	29.139	
O	 0.2050478506	 1.35648772	 0.0148085833	-0.424103
C	 0.0628218374	 0.0122938302	 0.0084349926	 0.379061
C	-1.117546685	-0.6585822872	-0.0218037468	 0.101571
O	-2.3011856447	 0.0035315477	-0.049399243	-0.466209
C	-1.1829012079	-2.1066230832	-0.0264404089	 0.325282
O	-2.3027041843	-2.6424962023	-0.0549310775	-0.452325
C	 0.1035577586	-2.7707768653	 0.0038120027	-0.266303
C	 1.2557352529	-2.0506211142	 0.0334895845	 0.018603
N	 1.2412422143	-0.684110632	 0.0358575338	-0.376732
H	-0.6832015917	 1.736631668	-0.0076199146	 0.326462
H	-2.9478697398	-0.7340373055	-0.0669386228	 0.303108
H	 0.1358963863	-3.8525430946	 0.0023675981	 0.11661
H	 2.2391616892	-2.5018505092	 0.0567500705	 0.138526
H	 2.0972203642	-0.1534155423	 0.0577394082	 0.276449
144.2488	218.5048	259.3254	299.9066	329.4558	396.4958	441.8884	503.1474	520.5944	559.5296	591.0645	596.7872	650.5718	715.1922	731.1594	823.3749	869.5087	925.8597	1054.6797	1081.7291	1192.5402	1243.732	1261.9278	1322.0907	1368.9214	1427.943	1461.966	1583.3456	1617.1661	1682.4637	1737.4374	3212.1007	3228.421	3528.7141	3652.7001	3788.9017
OC1=C(O)C(=O)C=CN1	Oc1c(O)c(=O)cc[nH]1	
InChI=1S/C5H5NO3/c7-3-1-2-6-5(9)4(3)8/h1-2,8H,(H2,6,7,9)	InChI=1S/C5H5NO3/c7-3-1-2-6-5(9)4(3)8/h1-2,8H,(H2,6,7,9)
