14
gdb 25492	5.60415	1.01107	0.85654	0.7612	74.46	-0.2646	-0.0466	0.218	1256.2166	0.103337	-432.921936	-432.91465	-432.913706	-432.954575	26.092	
N	-0.1632635508	 1.3129724431	 0.0106755882	-0.417671
C	-0.0082517179	 0.0647292853	 0.0039088893	 0.106563
O	-1.1406454781	-0.7105751895	 0.0080675082	-0.228294
C	-1.0463853895	-2.0636607183	 0.0008819867	 0.49433
N	 0.1367162046	-2.658713691	-0.0095275335	-0.341955
C	 0.1200373466	-3.9962508652	-0.0158054887	 0.078756
N	-0.9461805029	-4.7864735853	-0.012720577	-0.260709
C	-2.1300983703	-4.152827074	-0.0020827158	 0.034369
C	-2.2482938971	-2.7757283217	 0.0052236569	-0.242009
H	 0.7464437262	 1.7714795245	 0.0056651651	 0.240413
H	 0.9118028551	-0.5173128053	-0.0060680722	 0.149006
H	 1.092184232	-4.4831357021	-0.0243892132	 0.128439
H	-3.0156808736	-4.7832564071	 0.0006126995	 0.128429
H	-3.2014005742	-2.2639392634	 0.0137861265	 0.130334
72.8092	86.6836	187.6378	228.9823	387.9991	413.9158	489.2134	565.698	667.2471	704.6562	802.588	844.5615	872.0772	898.8489	988.9104	1007.2844	1025.0646	1043.4464	1070.4311	1083.2397	1199.6724	1253.8954	1272.9821	1333.9188	1347.1697	1386.5268	1423.2582	1499.905	1610.0765	1618.3456	1745.2288	3154.0413	3166.0852	3169.1922	3225.4034	3512.4957
N=COC1=NC=NC=C1	[NH][CH]Oc1ncncc1	
InChI=1S/C5H5N3O/c6-3-9-5-1-2-7-4-8-5/h1-4,6H	InChI=1S/C5H5N3O/c6-3-9-5-1-2-7-4-8-5/h1-4,6H
