24
gdb 120753	3.30717	0.80826	0.71859	1.2346	90.42	-0.208	0.0895	0.2975	1706.0494	0.216763	-368.367531	-368.357501	-368.356557	-368.403361	37.428	
C	-5.3630285971	-1.0108809428	-2.0504873905	-0.3808
C	-4.3971646874	-1.9464388074	-1.3187830622	-0.164714
C	-2.9273057557	-1.5315759585	-1.4733365183	-0.195827
C	-1.9911185939	-2.4423587524	-0.7051922809	 0.016469
C	-1.3817126032	-3.6414970472	-1.3492406991	-0.260947
N	-0.549534109	-2.507862536	-0.9602302791	-0.1076
C	 0.0554215068	-1.6482259154	-1.9491526527	 0.07281
C	 1.2908577459	-2.097998843	-2.6702615045	-0.279921
C	 0.0183442385	-1.8429582353	-3.4511746819	-0.278654
H	-6.4021737512	-1.3289694784	-1.9207661595	 0.111797
H	-5.2796510391	 0.015698211	-1.6765735423	 0.11417
H	-5.1537531502	-0.9874903761	-3.1258118337	 0.113657
H	-4.6540815839	-1.9766111271	-0.2517174928	 0.096577
H	-4.5223815447	-2.971832306	-1.6891792971	 0.098715
H	-2.6557410167	-1.5204943895	-2.534143713	 0.106327
H	-2.805863547	-0.5003018462	-1.1123338543	 0.095263
H	-2.2253129979	-2.5096993291	 0.3580368107	 0.083953
H	-1.2151859967	-4.5603999599	-0.7925630689	 0.111079
H	-1.6061678534	-3.7893555177	-2.4040905023	 0.106431
H	 0.0549846773	-0.6154559462	-1.6113530094	 0.09327
H	 2.1206721904	-1.4071968681	-2.7702916273	 0.111056
H	 1.5844303524	-3.1339104083	-2.5363169069	 0.117167
H	-0.4893314373	-2.7084427266	-3.8610706575	 0.111138
H	-0.0442103468	-0.9595956638	-4.0783927066	 0.108585
52.6292	81.8239	89.224	101.864	209.7387	250.2261	264.0115	308.1439	352.8963	434.6826	493.5928	556.5213	677.2857	748.8304	777.1718	808.2014	839.0818	865.404	890.8646	906.3229	941.7776	942.5513	994.5239	1027.0622	1051.8545	1053.903	1072.4012	1094.5326	1115.1336	1131.6613	1141.7785	1165.8072	1171.5546	1195.9175	1201.6925	1225.6015	1263.1857	1304.5199	1324.8993	1346.4727	1385.4085	1400.0472	1412.7548	1427.1709	1461.2379	1484.152	1494.4663	1500.0554	1500.8629	1507.7336	1512.5083	3008.5324	3019.2688	3029.695	3047.4312	3074.5838	3093.6324	3094.1436	3098.9769	3102.1629	3130.9152	3133.9371	3143.6094	3174.7408	3209.6975	3224.7873
CCCC1CN1C1CC1	CCC[C@H]1CN1C1CC1	
InChI=1S/C8H15N/c1-2-3-8-6-9(8)7-4-5-7/h7-8H,2-6H2,1H3	InChI=1S/C8H15N/c1-2-3-8-6-9(8)7-4-5-7/h7-8H,2-6H2,1H3/t8-,9?/m0/s1
