22
gdb 112264	2.47416	1.12742	0.84529	2.6615	84.14	-0.2578	0.0306	0.2884	1455.8469	0.193421	-404.36575	-404.355727	-404.354783	-404.401124	36.485	
C	-0.0996313745	 1.6519677271	-0.1623398223	-0.389075
C	-0.0438586229	 0.1923481262	 0.3007074074	-0.188853
C	-1.3416304094	-0.5446472187	 0.033850595	 0.115662
O	-1.6080722618	-0.6752175584	-1.4104568728	-0.272
C	-1.634795398	-2.0495032727	-1.325756007	 0.44069
N	-1.7810388609	-2.9165454303	-2.2221820643	-0.547992
C	-1.4108041879	-2.0926726176	 0.173896462	-0.153988
C	-0.2126377362	-2.8920766534	 0.6878150079	-0.195531
C	-0.4591554146	-4.403065228	 0.6112161785	-0.391429
H	 0.8518064867	 2.1589546711	 0.0215734514	 0.116332
H	-0.3143013604	 1.7070211001	-1.2332740378	 0.13853
H	-0.8828820649	 2.2063574894	 0.3662360154	 0.116182
H	 0.77876755	-0.3267624171	-0.2029034726	 0.108696
H	 0.1615778525	 0.1431055636	 1.3777939687	 0.104574
H	-2.183955951	-0.022626036	 0.5014949146	 0.087327
H	-1.8940458725	-2.4838335049	-3.1408999214	 0.224561
H	-2.3161416303	-2.4111620643	 0.7013641059	 0.102482
H	 0.6804595886	-2.6384978279	 0.1064236997	 0.105958
H	-0.0062807553	-2.5968098001	 1.7242889481	 0.098331
H	 0.4187560905	-4.9594540589	 0.9528670955	 0.109711
H	-1.3071550085	-4.6955199163	 1.2404634372	 0.111862
H	-0.6845384992	-4.7035044828	-0.4154940891	 0.15797
77.3913	87.8979	104.825	131.9214	175.6292	219.9461	251.4324	292.5213	316.4442	410.5715	450.0211	528.8826	652.0726	735.7439	767.8119	803.1967	816.8612	867.8083	888.7208	913.3307	960.1414	999.78	1028.2778	1055.7083	1058.9041	1099.5891	1103.8972	1161.2263	1174.939	1230.9663	1236.8501	1284.8013	1286.3172	1310.8299	1338.7675	1364.1697	1384.4234	1408.0333	1413.0597	1415.5187	1472.4003	1489.4822	1497.9289	1498.4471	1508.4771	1511.7149	1813.981	3024.7878	3031.7931	3035.5054	3037.8059	3040.3711	3056.089	3068.406	3078.7788	3103.0256	3107.521	3120.6878	3125.9186	3469.7857
CCC1OC(=N)C1CC	CC[C@H]1O[C]([NH])[C@H]1CC	
InChI=1S/C7H13NO/c1-3-5-6(4-2)9-7(5)8/h5-6,8H,3-4H2,1-2H3	InChI=1S/C7H13NO/c1-3-5-6(4-2)9-7(5)8/h5-6,8H,3-4H2,1-2H3/t5-,6+/m0/s1
