17
gdb 19401	3.10089	2.16162	1.61975	1.9261	67.66	-0.2418	0.0748	0.3166	844.032	0.142059	-363.79021	-363.783005	-363.78206	-363.821364	27.936	
C	-0.0525545194	 1.5804483669	-0.0866234787	-0.406969
C	 0.0310825606	 0.0654831596	 0.0244418016	-0.113325
C	 1.0582911564	-0.6633341484	-0.872649386	 0.02299
O	 2.3627397666	-0.2260096736	-0.4780935659	-0.245508
C	 1.7326956123	-1.26778929	 0.2877206133	-0.059028
C	 0.7746755391	-0.5731340072	 1.236949828	 0.349099
C	 0.9950706864	-0.0541194271	 2.5993766076	-0.301565
N	 0.1527799828	-1.2513221465	 2.3665698024	-0.375929
H	 0.9487662982	 2.0167910494	-0.0464269932	 0.138159
H	-0.5239053114	 1.8813291784	-1.0285892512	 0.116044
H	-0.6462648481	 2.0074206798	 0.7291143132	 0.111623
H	-0.9566212088	-0.4003657718	-0.0814354077	 0.080438
H	 0.9375067197	-1.0252947579	-1.8871173364	 0.104183
H	 2.2593512506	-2.2070847113	 0.4054629577	 0.111394
H	 1.9305741699	-0.2456592746	 3.1175522101	 0.123335
H	 0.5080998795	 0.8788703472	 2.8724664255	 0.114218
H	-0.8321693044	-1.0024598528	 2.4282451498	 0.230842
127.032	207.5031	226.1831	239.0579	298.7731	380.8883	498.5557	572.2245	610.7638	746.98	835.2722	853.5974	858.1401	875.1776	902.0655	935.5811	971.9913	981.9106	1032.3488	1042.574	1062.6922	1088.4202	1118.071	1148.4236	1202.3957	1222.9647	1236.235	1261.3828	1296.0292	1349.5767	1374.4878	1406.9327	1430.6615	1493.1263	1501.07	1517.1293	3030.9111	3036.252	3091.9443	3106.2723	3123.0326	3182.3138	3191.1275	3201.0187	3487.4308
CC1C2OC2C11CN1	C[C@H]1[C@H]2O[C@H]2[C@]21CN2	
InChI=1S/C6H9NO/c1-3-4-5(8-4)6(3)2-7-6/h3-5,7H,2H2,1H3	InChI=1S/C6H9NO/c1-3-4-5(8-4)6(3)2-7-6/h3-5,7H,2H2,1H3/t3-,4+,5+,6+/m0/s1
