21
gdb 23167	2.58014	1.0964	0.822	1.0016	84.01	-0.2114	0.0072	0.2186	1441.2555	0.180383	-420.33718	-420.327075	-420.326131	-420.372224	36.939	
C	 0.3791256978	 1.2100027038	 0.4319939087	-0.394278
C	 0.1469500698	-0.2599318892	 0.0666569904	-0.185489
C	-1.3316041734	-0.6808828003	 0.0357739963	-0.060621
N	-2.1631920136	-0.4029278778	-1.182833567	-0.083862
C	-1.8055228087	 0.6061061797	-2.152438663	-0.325907
C	-2.1526702989	-1.8202915424	-1.6062530661	-0.268392
C	-1.547108035	-2.1514888941	-0.2638321238	 0.409371
N	-1.2786028503	-3.1814350031	 0.4154700717	-0.244544
O	-1.6403760553	-4.3525890181	-0.27788766	-0.392394
H	 1.4493082369	 1.4275024349	 0.503808202	 0.115891
H	-0.0469055728	 1.8921894655	-0.3088395875	 0.121002
H	-0.074727169	 1.4471701324	 1.4004762259	 0.119302
H	 0.6226503518	-0.4977408632	-0.892462454	 0.099297
H	 0.6339828294	-0.8991443147	 0.8125497138	 0.118668
H	-1.8228319271	-0.3198099873	 0.9499525254	 0.090679
H	-0.7913252367	 0.4970943792	-2.5788512161	 0.094332
H	-2.5171970187	 0.5607893818	-2.9841511285	 0.122738
H	-1.8849821122	 1.6037138294	-1.7090389911	 0.124844
H	-3.1378476194	-2.2447641363	-1.8308491648	 0.125145
H	-1.4740815919	-2.0528466516	-2.444778346	 0.107229
H	-1.4013734626	-5.0423129387	 0.3504993736	 0.306988
81.6632	95.662	119.9593	178.9045	199.1937	249.6203	258.9027	297.2367	331.7981	341.066	378.1938	457.5334	517.6499	568.2785	695.7616	727.0375	812.3753	858.7765	961.2579	963.5175	979.9466	1011.966	1064.1206	1092.3073	1107.4245	1125.4234	1158.3391	1173.4626	1211.4742	1232.4111	1274.2156	1286.984	1312.2537	1342.1472	1379.7205	1410.3066	1411.0564	1451.9536	1475.8018	1486.1787	1496.7082	1504.0998	1505.8871	1507.8788	1809.5378	2933.714	2959.8776	3002.9121	3033.2487	3037.1215	3050.3664	3055.4022	3067.3984	3096.9584	3102.751	3115.2247	3817.9941
CCC1N(C)CC1=NO	CC[C@H]1N(C)CC1=NO	
InChI=1S/C6H12N2O/c1-3-6-5(7-9)4-8(6)2/h6,9H,3-4H2,1-2H3	InChI=1S/C6H12N2O/c1-3-6-5(7-9)4-8(6)2/h6,9H,3-4H2,1-2H3/t6-/m1/s1
