15
gdb 55894	2.57085	1.21995	1.00843	2.9071	66.52	-0.2777	0.0231	0.3009	1191.1397	0.112133	-453.985624	-453.976853	-453.975909	-454.02048	31.303	
N	-0.2870322165	 1.2095877267	 0.0932194611	-0.563825
C	-0.1040127266	-0.120516847	-0.1234528215	 0.507938
O	 0.7805906453	-0.6293336729	-0.7642870704	-0.386271
O	-1.0678080242	-0.8262473159	 0.5578916752	-0.257287
C	-1.0370138378	-2.2081424867	 0.3531808366	 0.15504
C	-2.189361196	-2.9615176212	 0.9057007417	-0.3323
C	-2.0550527117	-2.8057227127	-0.6115208308	-0.209603
C	-2.9531746393	-1.9278385828	-1.3026879869	 0.293789
N	-3.6694294854	-1.2116272529	-1.8616645866	-0.338654
H	 0.2427350551	 1.8305547281	-0.4942111526	 0.276131
H	-1.1801386253	 1.5268878342	 0.4311162377	 0.27446
H	-0.041906755	-2.6349439104	 0.3423925431	 0.142584
H	-2.0206198921	-3.9475327003	 1.3213542617	 0.13996
H	-2.9713955736	-2.3820109874	 1.3810724308	 0.154166
H	-1.7372919569	-3.6716966086	-1.1815978692	 0.143872
30.0064	62.036	154.7133	171.2863	237.0988	360.6883	379.5179	395.8984	464.0206	514.3087	552.4299	637.6126	684.8277	777.1703	780.5569	796.2632	833.9267	923.6021	1008.9587	1056.0323	1074.1845	1111.8032	1119.1631	1122.4492	1174.819	1236.6577	1335.5143	1372.9907	1414.8472	1481.2551	1615.0793	1854.3856	2356.109	3152.3551	3176.505	3199.1995	3247.9192	3613.2823	3741.1789
NC(=O)OC1CC1C#N	NC(=O)O[C@H]1C[C@H]1C#N	
InChI=1S/C5H6N2O2/c6-2-3-1-4(3)9-5(7)8/h3-4H,1H2,(H2,7,8)	InChI=1S/C5H6N2O2/c6-2-3-1-4(3)9-5(7)8/h3-4H,1H2,(H2,7,8)/t3-,4-/m0/s1
