18
gdb 26225	3.37634	1.05224	0.97237	0.7571	74.56	-0.2155	0.0273	0.2428	1292.1395	0.14763	-439.134909	-439.126092	-439.125148	-439.168727	32.663	
C	-0.0937962463	 1.5595213547	 0.0326260725	-0.386259
C	-0.0345691594	 0.0194993256	 0.0424477535	-0.093671
C	 0.7262861457	-0.5005268574	 1.2777350993	-0.386262
C	-1.3932630065	-0.5842083404	-0.0615004941	 0.354987
C	-2.0406235515	-1.3753400387	-0.9445342901	-0.22187
N	-3.3453806786	-1.6299510809	-0.5062568622	-0.382366
C	-3.4039261646	-0.9803849376	 0.6076216329	 0.465785
O	-4.4248643368	-0.8739183631	 1.4566332044	-0.400447
O	-2.2957064149	-0.320406829	 0.9698707996	-0.210383
H	 0.9150330358	 1.9823793125	 0.0698854342	 0.112773
H	-0.5891968818	 1.9293255768	-0.869650118	 0.119634
H	-0.6491480253	 1.9305445061	 0.8995215992	 0.130355
H	 0.5018489348	-0.3100513858	-0.8561018665	 0.092439
H	 0.2065624084	-0.2189018448	 2.1986869343	 0.130359
H	 0.8120619437	-1.5907239895	 1.2579215817	 0.119633
H	 1.7344678736	-0.0760400032	 1.3139589636	 0.112772
H	-1.6685439591	-1.7861651612	-1.86977804	 0.120763
H	-5.1492575872	-1.3897654841	 1.0800748855	 0.321759
55.6942	119.1357	161.2521	224.2515	259.3809	277.8364	319.1349	422.5948	429.8801	446.3976	505.5517	626.7999	686.5141	747.2283	752.004	848.2698	880.9137	928.5182	961.4998	976.8945	1010.2052	1065.8421	1120.2384	1136.2844	1177.4665	1223.8894	1249.7491	1260.8112	1326.4244	1355.4051	1394.4934	1417.6013	1486.0859	1491.867	1493.4043	1501.8107	1511.8408	1656.4072	1659.9721	3033.4441	3036.2587	3039.8029	3107.9707	3112.5685	3114.2689	3117.64	3261.7308	3808.9762
CC(C)C1=CN=C(O)O1	CC(C)c1cnc(O)o1	
InChI=1S/C6H9NO2/c1-4(2)5-3-7-6(8)9-5/h3-4H,1-2H3,(H,7,8)	InChI=1S/C6H9NO2/c1-4(2)5-3-7-6(8)9-5/h3-4H,1-2H3,(H,7,8)
