14
gdb 132436	3.18805	1.37345	0.96569	3.9547	68.58	-0.2391	-0.046	0.1931	1125.3526	0.101376	-478.043076	-478.035428	-478.034484	-478.075528	28.102	
C	-0.0194787628	 1.5105244501	 0.0217828584	-0.489978
C	-0.0046708297	 0.012595823	-0.064667212	 0.407678
N	-0.0398233107	-0.5869510001	-1.2167803367	-0.309308
C	-0.0230720253	-1.9596083295	-1.2051794758	-0.117982
C	 0.0274902382	-2.7023432472	-0.0726802117	 0.127426
F	 0.0416888518	-4.0287519672	-0.1050332688	-0.053471
C	 0.0690316401	-2.0816057751	 1.2404830759	 0.328488
O	 0.1142584428	-2.6251995106	 2.3240520991	-0.374731
N	 0.0470155131	-0.6782386336	 1.1130616241	-0.377766
H	 0.880108395	 1.8846426296	 0.5231363614	 0.146818
H	-0.0626988693	 1.9211381789	-0.9859875539	 0.166189
H	-0.8870943466	 1.8633819252	 0.5903696742	 0.146755
H	-0.0529906233	-2.4538062454	-2.1717144725	 0.132654
H	 0.0732971065	-0.1814425881	 1.9950439383	 0.267229
98.5573	137.825	170.9758	299.1898	304.8259	389.8467	412.0814	458.8371	541.2415	591.9827	650.592	730.4831	749.5883	773.8982	785.3696	959.3591	984.7472	1026.0291	1064.3601	1176.3205	1223.7312	1281.3608	1301.709	1381.5813	1407.091	1467.9985	1482.9643	1499.5173	1618.6594	1658.2536	1808.6531	3038.6484	3094.067	3167.4891	3179.837	3581.1377
CC1=NC=C(F)C(=O)N1	Cc1ncc(F)c(=O)[nH]1	
InChI=1S/C5H5FN2O/c1-3-7-2-4(6)5(9)8-3/h2H,1H3,(H,7,8,9)	InChI=1S/C5H5FN2O/c1-3-7-2-4(6)5(9)8-3/h2H,1H3,(H,7,8,9)
