18
gdb 12863	2.84771	2.33168	1.68731	2.4586	66.41	-0.2454	0.0558	0.3012	834.1746	0.154954	-384.932139	-384.924915	-384.92397	-384.963448	28.19	
O	 0.1722548266	 1.3598033343	-0.084238347	-0.479993
C	 0.0762673276	-0.0397313419	-0.0008461734	 0.359085
C	 0.1830340767	-0.735640339	-1.3652214645	-0.11375
O	-0.9870976387	-1.5339678638	-1.0833479914	-0.29796
C	-1.3236580177	-0.7207174794	 0.0715831349	 0.083808
C	-1.4228954578	-1.5027349635	 1.3892329283	-0.234362
C	-0.2197342823	-1.0002126505	 2.2222475514	-0.209255
C	 0.8591289548	-0.6737161907	 1.1699698335	-0.288034
H	 0.1338089227	 1.7257175463	 0.8055609592	 0.278954
H	 0.0176915421	-0.0421599797	-2.1991627795	 0.105335
H	 1.0694605305	-1.349097342	-1.5619533214	 0.099176
H	-2.1780649494	-0.0671912675	-0.1388044855	 0.073185
H	-2.3772907221	-1.3613615772	 1.9033726119	 0.098413
H	-1.3198814869	-2.5682957943	 1.1613312821	 0.117955
H	-0.4998707552	-0.0894248623	 2.7682622935	 0.091923
H	 0.1161403367	-1.7231498856	 2.9704245213	 0.103322
H	 1.3418130739	-1.5999181709	 0.8401369369	 0.112611
H	 1.6478055686	-0.0070434623	 1.5315469895	 0.099588
97.2885	168.5703	246.8783	287.9764	372.1262	393.6685	450.5584	544.8687	609.7026	678.3283	773.5414	842.9844	875.2943	894.2114	909.7404	955.8113	997.3796	1000.6329	1028.0436	1053.4559	1062.2534	1128.1737	1143.4652	1157.126	1183.364	1220.1288	1246.4064	1281.1316	1301.6212	1319.634	1333.3096	1353.2986	1360.5045	1406.3756	1478.0986	1486.2388	1503.1461	1519.3942	3017.8731	3018.4564	3039.3341	3045.6254	3056.5289	3071.1615	3089.5625	3095.3433	3106.8761	3811.5956
OC12COC1CCC2	O[C@]12CO[C@H]1CCC2	
InChI=1S/C6H10O2/c7-6-3-1-2-5(6)8-4-6/h5,7H,1-4H2	InChI=1S/C6H10O2/c7-6-3-1-2-5(6)8-4-6/h5,7H,1-4H2/t5-,6+/m0/s1
