17
gdb 97082	3.35174	1.07407	0.9934	2.8467	78.05	-0.2235	0.0247	0.2482	1261.6948	0.135754	-417.983779	-417.974771	-417.973827	-418.01842	32.233	
C	 0.472960727	 1.1439741233	 0.253826958	-0.329266
N	-0.0103416209	-0.1647913022	-0.1459936532	-0.37048
C	 0.375082342	-0.6669982968	-1.2320369673	 0.501081
N	-0.0728249908	-1.8843188752	-1.7491162818	-0.348665
C	 0.8783115176	-2.3616420676	-2.7504442749	-0.186377
C	 1.402337515	-0.9905010494	-3.2463129448	-0.090492
O	 1.2749817461	-0.1276086067	-2.1181492454	-0.248911
C	 1.9276145363	-3.2312700824	-2.2120241202	 0.344385
C	 2.7722146067	-3.9554114979	-1.7571916378	-0.47225
H	 1.1522317487	 1.6144186893	-0.466988725	 0.118491
H	-0.3798111052	 1.8147555876	 0.4132811787	 0.118403
H	 0.9936823931	 1.0628703104	 1.2156029832	 0.118636
H	-0.4011425104	-2.537488185	-1.0530864223	 0.259707
H	 0.355852771	-2.8827859344	-3.5596055218	 0.121093
H	 2.4473153041	-1.0182149573	-3.5563468764	 0.135228
H	 0.7779143276	-0.6191218903	-4.0668120528	 0.120691
H	 3.5208362321	-4.5920452154	-1.353597096	 0.208725
48.7918	66.3806	135.0953	179.5988	230.5788	231.6971	277.4789	448.9017	483.5018	552.6656	610.8609	643.9359	661.6973	710.6718	725.6264	803.2938	830.3111	896.7173	992.1448	1041.7372	1051.133	1100.1277	1123.5016	1138.3584	1161.3321	1228.2227	1236.8918	1285.2959	1366.1804	1406.4666	1409.1765	1445.301	1495.7039	1501.5267	1512.3225	1822.7401	2233.0618	3009.7444	3038.7122	3052.8563	3064.6272	3076.8053	3131.8111	3500.8524	3624.5275
CN=C1NC(CO1)C#C	CN=C1N[C@@H](CO1)C#C	
InChI=1S/C6H8N2O/c1-3-5-4-9-6(7-2)8-5/h1,5H,4H2,2H3,(H,7,8)	InChI=1S/C6H8N2O/c1-3-5-4-9-6(7-2)8-5/h1,5H,4H2,2H3,(H,7,8)/t5-/m1/s1
