22
gdb 118542	1.88139	1.03758	0.73316	2.5161	79.89	-0.2507	0.0303	0.281	1601.3048	0.192279	-441.512825	-441.501596	-441.500651	-441.550511	38.92	
C	-0.3310207061	 1.4423410669	-0.4346140962	-0.385897
C	-0.1268387804	-0.056501351	-0.2017887303	-0.189254
C	 0.6775875625	-0.3909870625	 1.064809854	 0.02342
C	 0.7106787528	-1.9043278068	 1.331081712	-0.169172
C	 1.3394021977	-2.2879493199	 2.6653460744	-0.083767
O	 1.2680052417	-3.7037724056	 2.7723992587	-0.425023
N	 2.024749213	 0.1742405581	 0.9700470739	-0.266419
C	 2.6350620803	 0.8505258395	 1.9775558253	 0.155345
O	 2.1579853792	 1.0584175881	 3.0744687609	-0.332891
H	 0.6243674736	 1.9665340681	-0.5313912368	 0.116259
H	-0.906758944	 1.6212361163	-1.3475160565	 0.115574
H	-0.8738766303	 1.8991090172	 0.399636294	 0.12521
H	-1.0999453449	-0.5542142166	-0.1238242122	 0.107614
H	 0.3719112004	-0.5088967644	-1.071279238	 0.091098
H	 0.2210605413	 0.1111300853	 1.9243945871	 0.118376
H	-0.3150857133	-2.2903108911	 1.3126270087	 0.108364
H	 1.2513040577	-2.4150350223	 0.5234459299	 0.095336
H	 2.3809061279	-1.9383956837	 2.7093428867	 0.092773
H	 0.7987883613	-1.7934695645	 3.4868022071	 0.100434
H	 1.669875358	-3.9588920582	 3.6077938941	 0.285967
H	 2.540454656	 0.0358869242	 0.1139761121	 0.243457
H	 3.6436498657	 1.2042102528	 1.682354661	 0.073197
36.6431	77.2329	80.0762	114.1113	127.7352	181.9635	217.4189	236.7655	267.8264	298.1593	337.3953	388.9737	447.4969	528.3409	572.9278	748.9221	778.7936	801.1038	909.6548	933.2894	1000.118	1017.4084	1030.1402	1050.9186	1068.3627	1120.5635	1139.3341	1156.884	1202.8859	1232.5546	1242.8639	1292.0013	1307.5953	1319.2292	1358.3049	1377.7876	1395.5295	1414.6623	1429.8111	1463.9975	1479.8507	1484.2704	1496.5606	1507.1512	1522.1857	1529.7271	1798.302	2927.8222	2984.8553	3007.285	3015.4606	3026.1789	3039.3628	3060.0131	3065.6875	3081.9875	3107.1027	3113.2962	3616.5628	3831.4241
CCC(CCO)NC=O	CC[C@@H](CCO)NC=O	
InChI=1S/C6H13NO2/c1-2-6(3-4-8)7-5-9/h5-6,8H,2-4H2,1H3,(H,7,9)	InChI=1S/C6H13NO2/c1-2-6(3-4-8)7-5-9/h5-6,8H,2-4H2,1H3,(H,7,9)/t6-/m0/s1
