17
gdb 74814	3.67426	1.3187	1.1234	1.4463	69.99	-0.2082	0.0444	0.2526	1084.5697	0.137073	-455.144376	-455.136337	-455.135393	-455.176452	31.751	
N	-0.0008085989	 1.3547568513	 0.0795443536	-0.560016
C	-0.0633151614	-0.0213912983	 0.0949768159	 0.446678
N	-1.1587705998	-0.659531236	-0.0097680778	-0.336766
C	-1.0952020286	-2.0872902611	-0.004731631	-0.062939
C	-0.2261100628	-2.828341844	-1.0210380489	-0.325973
C	 0.1759910623	-2.7739602618	 0.4182158492	 0.347068
O	 0.1544979299	-3.9845608226	 1.1184113186	-0.460893
C	 1.2742669126	-1.8297699506	 0.8675325008	-0.147412
O	 1.1915108929	-0.5436953295	 0.2441087661	-0.264013
H	 0.8998067663	 1.7359323223	-0.1652248758	 0.257212
H	-0.7879211482	 1.7925344794	-0.3735275221	 0.262179
H	-2.0336797469	-2.5686974221	 0.2524814939	 0.091952
H	-0.5866239095	-3.7859656555	-1.3786525723	 0.122552
H	 0.3228004763	-2.2334995341	-1.74341455	 0.120487
H	-0.2205662339	-3.8195950801	 1.9914274471	 0.284284
H	 1.209665989	-1.7033676359	 1.9587912669	 0.100376
H	 2.2683793808	-2.2164139614	 0.6268727459	 0.125222
127.9975	156.7046	257.9655	310.4778	327.8965	368.6401	387.4251	407.6965	436.7096	511.5883	563.0733	564.8306	686.8604	737.2991	776.1507	811.3878	889.8056	916.3906	934.4763	988.0926	1034.2572	1057.9784	1081.746	1110.7518	1123.631	1229.0488	1249.7182	1266.8879	1304.2404	1322.5422	1361.9695	1402.0341	1424.7335	1479.8587	1514.1884	1616.3715	1749.9145	2993.2368	3087.7297	3134.6751	3154.5903	3230.5922	3587.4469	3703.8412	3784.835
NC1=NC2CC2(O)CO1	NC1=N[C@H]2C[C@@]2(O)CO1	
InChI=1S/C5H8N2O2/c6-4-7-3-1-5(3,8)2-9-4/h3,8H,1-2H2,(H2,6,7)	InChI=1S/C5H8N2O2/c6-4-7-3-1-5(3,8)2-9-4/h3,8H,1-2H2,(H2,6,7)/t3-,5+/m0/s1
