19
gdb 101541	2.60941	0.96516	0.87891	2.1642	80.48	-0.2526	-0.062	0.1906	1422.3405	0.154707	-422.996225	-422.985636	-422.984691	-423.032971	37.137	
C	 0.5191758716	 0.6537972371	 0.6297837039	-0.239266
O	-0.1001066016	 0.0463018915	-0.4812232761	-0.246851
C	-1.378353759	-0.5171286058	-0.2329486725	 0.137507
C	-1.9757853354	-0.8352847983	-1.5989475205	-0.406082
C	-1.2823512597	-1.7759403847	 0.6555260232	-0.316843
C	-1.2908800869	-1.4933198449	 2.1509182385	 0.214296
O	-1.8996720939	-0.5673378775	 2.644541909	-0.292537
C	-0.551099878	-2.4360752268	 2.9745497961	 0.270463
C	 0.0637705862	-3.2289811005	 3.6401311439	-0.416774
H	 1.4015750365	 1.1787294441	 0.2549433524	 0.124318
H	-0.1463849349	 1.3729945032	 1.1282868059	 0.120103
H	 0.8506743228	-0.0800644804	 1.380987925	 0.106717
H	-2.0096644018	 0.2158044052	 0.2911046906	 0.09543
H	-3.000688189	-1.2039719321	-1.4975870495	 0.114933
H	-1.9865966117	 0.0648511275	-2.2183224174	 0.127053
H	-1.3800998628	-1.5960200492	-2.1136528465	 0.123026
H	-2.1581105588	-2.4141598407	 0.4740378041	 0.141216
H	-0.4030583477	-2.365144255	 0.3775640756	 0.126663
H	 0.603214754	-3.9195334827	 4.2420832943	 0.216627
23.9821	76.9039	110.4632	135.2854	197.4216	224.9911	236.1498	239.4782	300.8357	325.7344	403.4817	481.2958	505.8697	589.1248	622.7271	642.9422	711.8753	828.7281	845.969	901.7133	922.0248	1058.7319	1079.4493	1132.7966	1141.6163	1152.0673	1181.7523	1210.5912	1243.3352	1307.7594	1377.4023	1389.6975	1411.0435	1439.8416	1477.7362	1483.1942	1495.4756	1503.3528	1506.7995	1760.4237	2208.7542	2976.8724	3003.4261	3027.7465	3031.135	3042.6742	3092.1147	3110.2253	3114.6509	3126.5946	3494.2604
COC(C)CC(=O)C#C	CO[C@@H](C)CC(=O)C#C	
InChI=1S/C7H10O2/c1-4-7(8)5-6(2)9-3/h1,6H,5H2,2-3H3	InChI=1S/C7H10O2/c1-4-7(8)5-6(2)9-3/h1,6H,5H2,2-3H3/t6-/m0/s1
