13
gdb 128619	2.3635	0.89541	0.67628	2.9937	62.77	-0.2724	-0.0332	0.2392	1555.1753	0.082554	-486.129729	-486.118129	-486.117185	-486.171835	34.138	
C	-0.0559821644	 1.616367815	 0.1413812287	-0.228317
O	 0.1449803744	 0.1980494514	 0.1497182572	-0.224159
C	 0.7666567966	-0.4028985835	-0.8692209773	 0.465166
N	 1.1283346746	 0.491649445	-1.9073501076	-0.407495
C	 1.912390088	 0.1971303302	-2.8077367828	 0.528235
N	 2.7664129019	 0.0797246062	-3.6550739202	-0.515678
N	 1.1783734707	-3.0291330386	-3.769637055	-0.012318
N	 0.8534036421	-3.9769743659	-3.3198082162	 0.010682
O	 0.95433849	-1.5884498246	-0.8801215523	-0.345527
H	 0.8971771457	 2.1498080091	 0.1108160712	 0.140769
H	-0.6692239553	 1.9223704085	-0.7092298319	 0.143348
H	-0.5747700043	 1.836445945	 1.0750845964	 0.143025
H	 2.6272833598	-0.4276430279	-4.51721738	 0.302268
13.3451	36.8706	41.3566	46.5236	61.2656	87.1723	122.7681	130.4037	172.2756	287.5477	410.654	522.8606	562.679	580.233	660.2419	776.074	832.7347	847.5142	1073.3628	1170.5205	1175.4155	1256.9324	1407.539	1486.8784	1489.7119	1494.4351	1827.3133	2254.389	2435.059	3051.1607	3130.6027	3152.1888	3639.0641	13.3462	36.8706	41.3562	46.5234	61.2655	87.1721	122.7681	130.4036	172.2757	287.5477	410.654	522.8606	562.6789	580.2329	660.2419	776.074	832.7347	847.5143	1073.3629	1170.5206	1175.4154	1256.9326	1407.539	1486.8785	1489.7119	1494.4351	1827.3132	2254.3892	2435.059	3051.1607	3130.6027	3152.1888	3639.0641
COC1=NC(=N)N=NO1	COC(=O)[N][C][NH].N#N	
InChI=1S/C3H4N4O2/c1-8-3-5-2(4)6-7-9-3/h4H,1H3	InChI=1S/C3H4N2O2.N2/c1-7-3(6)5-2-4;1-2/h4H,1H3;
