14
gdb 13060	4.32268	1.35971	1.08831	5.0239	60.	-0.2593	-0.0484	0.2109	1030.9402	0.105136	-419.698226	-419.690437	-419.689493	-419.731674	26.619	
O	-0.05213445	 0.0330563049	-0.1154895192	-0.265667
C	 0.011468372	 1.2186765575	-0.221861757	 0.176949
O	 1.0119120447	 1.9386762862	 0.3423452563	-0.19141
C	 1.0109637612	 3.3338357745	 0.1051722178	 0.028911
C	 2.1943159847	 4.1179100679	 0.7262768364	-0.267285
C	 2.3911098794	 4.8925055204	-0.6150647871	-0.34507
C	 1.5010000492	 3.8294895169	-1.2781769402	 0.376504
O	 1.3472914429	 3.4152563474	-2.3873829151	-0.278144
H	-0.7180836816	 1.8446122878	-0.7668973061	 0.092138
H	 0.0403532796	 3.7799732117	 0.3600740289	 0.116269
H	 1.9685111675	 4.7080564758	 1.6136562285	 0.12413
H	 3.026425451	 3.4435673879	 0.9354009755	 0.14379
H	 1.920417381	 5.8805904945	-0.6223179576	 0.142453
H	 3.4031994384	 4.9838439266	-1.0135606911	 0.146432
42.7445	92.4227	115.6462	199.1039	245.6568	387.8677	411.1714	558.1751	595.0831	691.8143	767.6122	796.1418	917.904	943.9218	1014.5197	1036.1556	1067.4905	1080.7041	1136.8309	1175.7627	1189.9495	1226.2706	1246.2259	1264.7276	1359.1635	1436.28	1443.9567	1487.3456	1870.8542	1902.678	2978.5042	3023.0029	3066.6827	3093.5167	3127.4001	3156.1069
O=COC1CCC1=O	O=CO[C@H]1CCC1=O	
InChI=1S/C5H6O3/c6-3-8-5-2-1-4(5)7/h3,5H,1-2H2	InChI=1S/C5H6O3/c6-3-8-5-2-1-4(5)7/h3,5H,1-2H2/t5-/m0/s1
