20
gdb 104911	2.12764	1.44721	1.02204	5.345	80.54	-0.2735	0.0376	0.3111	1245.2227	0.168132	-403.157133	-403.146856	-403.145912	-403.191907	37.814	
C	 0.2742209937	 1.5423732252	 0.1805320759	-0.38611
C	-0.1439158435	 0.0965441109	-0.1085154917	-0.258931
C	 0.6076601853	-0.5178230236	-1.2886517416	 0.116546
C	 2.0026911846	-1.1189453053	-1.0714973378	-0.378817
C	 0.8470633228	-2.0199911734	-1.4101195815	 0.347421
C	 0.2834127019	-2.9968044605	-0.4020621013	-0.448811
O	 0.7698768445	-2.4786451693	-2.7304074359	-0.445395
C	 0.4066959026	 0.1928727972	-2.5297674514	 0.282139
N	 0.2175359059	 0.8134310571	-3.4874868088	-0.363285
H	 1.3411617531	 1.6041256682	 0.418629274	 0.11928
H	 0.0852967999	 2.1877268793	-0.6820342211	 0.147743
H	-0.285769704	 1.9407458328	 1.0314243835	 0.117135
H	 0.0310570655	-0.5174672071	 0.7795937829	 0.102438
H	-1.2201146544	 0.0538046224	-0.3120073741	 0.120201
H	 2.7437096723	-0.9444486155	-1.8425299603	 0.136738
H	 2.3776326618	-1.1056136403	-0.0530938553	 0.121655
H	 0.3600494916	-2.63442456	 0.6247714523	 0.124454
H	-0.7656587225	-3.2130599278	-0.6240195318	 0.139193
H	 0.8407145322	-3.9393755856	-0.4585231244	 0.117898
H	 1.4286180667	-3.1724786647	-2.8469610815	 0.288508
80.2709	119.8235	150.4783	169.7611	203.3662	217.9787	243.4812	283.1626	319.0277	378.4211	394.2169	414.874	473.7737	576.4612	610.3017	650.8571	749.5473	795.9818	887.5686	906.4924	922.0072	976.3787	995.8747	1043.9969	1059.7611	1077.7669	1104.4698	1168.0997	1216.5044	1282.4955	1295.1079	1325.0639	1358.9795	1388.7072	1413.8471	1420.2468	1466.1118	1483.8749	1487.8488	1497.5973	1501.1689	1508.1465	2350.6925	3035.2223	3040.4385	3043.047	3084.4863	3100.1088	3111.0681	3121.1831	3131.9128	3135.9096	3230.8912	3796.6963
CCC1(CC1(C)O)C#N	CC[C@]1(C[C@]1(C)O)C#N	
InChI=1S/C7H11NO/c1-3-7(5-8)4-6(7,2)9/h9H,3-4H2,1-2H3	InChI=1S/C7H11NO/c1-3-7(5-8)4-6(7,2)9/h9H,3-4H2,1-2H3/t6-,7-/m0/s1
