20
gdb 60605	2.35148	1.35983	1.06794	6.3139	74.97	-0.2404	0.0356	0.276	1205.2977	0.171608	-440.309191	-440.300119	-440.299175	-440.342905	34.595	
C	-0.9813925486	-3.1196455224	-0.8542643495	-0.391206
C	-1.2171916559	-1.7819885897	-1.5649682418	-0.151336
C	 0.1060323066	-1.2439174715	-2.1388132483	-0.001696
C	 0.3428138421	-0.9041144987	-3.5932207531	-0.308432
C	 0.308519847	 0.193863127	-2.5619007152	-0.024004
N	-0.8552989732	 1.061264708	-2.5513444309	-0.521485
H	-2.2012833039	-0.0341145616	-2.8980815557	 0.313801
H	-0.942048984	 1.5390714442	-1.659048622	 0.248686
H	-0.7825925156	 1.77597299	-3.2697291792	 0.252156
C	-2.347332991	-1.9340751076	-2.6023701333	 0.401768
O	-2.7663799201	-0.8019288455	-3.1823320424	-0.391972
O	-2.8489947995	-2.9960432357	-2.8687906296	-0.328635
H	-0.6146164926	-3.8705171646	-1.5587222278	 0.134706
H	-0.2462580878	-3.0016055393	-0.0517796448	 0.100367
H	-1.9106141777	-3.4998535723	-0.4261542787	 0.130182
H	-1.5820117209	-1.0555772874	-0.8236812731	 0.088013
H	 0.9657761273	-1.6730255295	-1.6326186339	 0.096769
H	 1.2992280459	-1.1619947602	-4.0332850224	 0.117961
H	-0.4975331711	-0.9655834749	-4.2751876535	 0.145997
H	 1.2582634331	 0.6546460516	-2.2937823349	 0.088361
80.5663	101.0829	204.2858	223.4474	236.6736	280.1275	309.1583	369.3941	393.0627	469.6516	492.157	540.5835	634.2678	741.9187	776.0398	813.1584	851.2232	867.1089	907.7102	951.9102	1004.4334	1015.7101	1057.6506	1077.4145	1085.6372	1110.9541	1132.2154	1169.1038	1177.5376	1227.4624	1255.1468	1260.3366	1314.7606	1337.7112	1394.9104	1411.8502	1418.9946	1486.871	1489.9658	1493.1275	1494.7458	1650.3588	1848.7892	2995.4404	3045.6379	3102.1445	3117.9627	3137.4197	3142.0455	3148.4771	3193.4138	3230.4886	3490.5409	3564.2264
CC(C1CC1[NH3+])C([O-])=O	C[C@@H]([C@H]1C[C@H]1N)C(=O)O	
InChI=1S/C6H11NO2/c1-3(6(8)9)4-2-5(4)7/h3-5H,2,7H2,1H3,(H,8,9)	InChI=1S/C6H11NO2/c1-3(6(8)9)4-2-5(4)7/h3-5H,2,7H2,1H3,(H,8,9)/t3-,4+,5+/m0/s1
