21
gdb 61980	3.58766	0.69211	0.60395	2.9248	85.74	-0.2457	-0.0115	0.2342	1853.2559	0.178083	-387.086817	-387.075668	-387.074724	-387.124733	39.188	
C	 0.0275188826	 1.6194975935	 0.0935599997	-0.38637
C	 0.0387831492	 0.0779284549	 0.0279060582	-0.170758
C	 0.7187660382	-0.4701353725	-1.2497752192	-0.16673
C	-0.0058483522	-0.0980084191	-2.5430087488	-0.31743
C	 0.5842454799	-0.7656395393	-3.7819710429	 0.375776
C	-0.0423405156	-0.3796669161	-5.1112507513	-0.472915
O	 1.497001174	-1.555707514	-3.7123364222	-0.286358
C	 0.6852959529	-0.4761242289	 1.2173562602	 0.316941
C	 1.2362862586	-0.9216997571	 2.1886057405	-0.455761
H	 1.0482609235	 2.0123130848	 0.0531604325	 0.126769
H	-0.5407631032	 2.0455420869	-0.7381789089	 0.112713
H	-0.4289250929	 1.961600887	 1.0257172041	 0.128213
H	-1.0060541472	-0.2666719749	 0.0254285837	 0.101291
H	 1.7532571887	-0.1123744977	-1.2889366881	 0.117064
H	 0.7831137971	-1.5592443816	-1.1812984097	 0.126618
H	-1.0685680896	-0.37938637	-2.4915070229	 0.118921
H	-0.0082122217	 0.9861831282	-2.7152034173	 0.120582
H	-1.1246719094	-0.5486777873	-5.0936790249	 0.135705
H	 0.1083130408	 0.6889824223	-5.3031565998	 0.139163
H	 0.4097861257	-0.9601925194	-5.9161445653	 0.14366
H	 1.7146644905	-1.3221607498	 3.047722622	 0.192905
21.9333	69.2581	94.373	96.0202	126.4883	183.9678	210.6986	256.2978	278.5703	355.2085	411.5043	479.7779	526.3056	538.6843	603.0328	627.7196	634.3912	740.5831	796.3713	854.4101	902.609	921.0548	957.6426	1001.0326	1055.8868	1090.3409	1117.6234	1147.0211	1177.566	1214.3843	1281.6525	1309.3975	1341.0253	1349.5234	1382.9107	1393.0946	1408.655	1452.1033	1466.1835	1478.1043	1486.4936	1494.7605	1503.273	1813.7354	2234.8036	2993.2568	3007.1797	3036.6335	3041.44	3048.3998	3058.432	3096.9178	3104.9464	3115.118	3122.1266	3152.5617	3505.7109
CC(CCC(C)=O)C#C	C[C@@H](CCC(=O)C)C#C	
InChI=1S/C8H12O/c1-4-7(2)5-6-8(3)9/h1,7H,5-6H2,2-3H3	InChI=1S/C8H12O/c1-4-7(2)5-6-8(3)9/h1,7H,5-6H2,2-3H3/t7-/m1/s1
