19
gdb 116553	3.18961	1.10481	0.92292	3.7377	80.08	-0.2366	0.0036	0.2402	1326.6216	0.158288	-419.153982	-419.144852	-419.143908	-419.188276	33.542	
C	-0.0578032762	 1.560204536	-0.0304391424	-0.361448
C	 0.0515153806	 0.0353193109	-0.0919743389	-0.151194
N	 0.8688187277	-0.3640987118	-1.2328888125	-0.284437
C	 1.8789000666	-1.075128207	-1.0381757845	 0.369503
C	 2.6475348712	-1.7026006539	 0.139154472	-0.015763
O	 1.8922771272	-2.5512174202	 0.9700476515	-0.419864
C	 3.5595121406	-2.2970469278	-0.93928928	-0.069469
C	 2.7784073813	-3.012413951	-1.9594637766	-0.241921
N	 2.8270096806	-1.5249488049	-2.0443944485	-0.162203
H	 0.92111775	 2.0153997495	 0.1506133384	 0.114814
H	-0.4418272221	 1.9547294503	-0.9751776492	 0.130125
H	-0.7313366883	 1.8644581313	 0.7769183754	 0.109219
H	 0.4245552625	-0.3653619529	 0.8605358006	 0.106291
H	-0.9482266822	-0.3890589077	-0.2476826581	 0.111413
H	 3.1714809729	-0.9266506438	 0.7152150188	 0.098939
H	 2.4524112808	-2.8536781996	 1.6928381734	 0.290019
H	 4.6429650685	-2.3051898387	-0.9101198104	 0.103036
H	 3.3197718879	-3.4917432614	-2.7681278261	 0.132665
H	 1.8399081406	-3.4854486871	-1.6845446628	 0.140276
58.6781	101.4329	151.9766	180.4622	223.0515	246.419	269.8258	335.2995	437.5899	503.2766	572.2407	652.3637	683.7786	755.495	808.073	813.328	843.7808	927.127	955.6952	1013.994	1048.7643	1057.3791	1072.4239	1112.8898	1116.6596	1140.1072	1147.4728	1180.4595	1186.5499	1238.368	1293.0198	1300.977	1361.6722	1380.6953	1406.2723	1417.1222	1488.1703	1493.931	1500.6097	1513.393	1826.8089	3006.51	3009.3921	3038.6102	3048.1255	3108.6474	3121.1527	3123.4255	3183.4663	3217.1527	3806.2956
CCN=C1C(O)C2CN12	CCN=C1[C@@H](O)[C@H]2CN12	
InChI=1S/C6H10N2O/c1-2-7-6-5(9)4-3-8(4)6/h4-5,9H,2-3H2,1H3	InChI=1S/C6H10N2O/c1-2-7-6-5(9)4-3-8(4)6/h4-5,9H,2-3H2,1H3/t4-,5+,8?/m1/s1
