23
gdb 119042	2.47805	1.03518	0.83823	1.5258	83.16	-0.2488	0.0749	0.3237	1487.1681	0.203006	-425.398871	-425.387914	-425.38697	-425.435308	39.467	
C	 1.5493240531	-0.9279624382	-1.1678375613	-0.388237
C	 0.4146615543	-0.4094821672	-0.2747440907	-0.243224
C	 0.6473558348	-0.632035599	 1.2141019564	 0.322095
C	 1.7749986885	 0.1640477361	 1.830531139	-0.128136
O	 1.4602329027	 1.5406170294	 1.7498054781	-0.233458
C	 2.4787754359	 2.3654072002	 2.2587352747	-0.221927
C	-0.5639802196	-0.8829428155	 2.0968588589	-0.372531
C	 0.4005114956	-2.0013948103	 1.7901395109	 0.050947
O	 0.0392648163	-3.0133624534	 0.892968178	-0.421295
H	 1.6875820242	-2.0037873374	-1.0280677281	 0.13313
H	 1.3200662332	-0.7488942213	-2.2232100925	 0.106467
H	 2.500982603	-0.43019608	-0.9543657374	 0.109908
H	 0.2676277797	 0.663777606	-0.4377814578	 0.108109
H	-0.5143242539	-0.9087312199	-0.5630848784	 0.097747
H	 1.919372949	-0.1305506284	 2.8843998286	 0.076078
H	 2.7268014249	-0.0362217116	 1.3097719511	 0.088811
H	 2.672675483	 2.1674791651	 3.3256210858	 0.100218
H	 3.4264575364	 2.233881864	 1.7118105822	 0.102111
H	 2.1489217506	 3.4014076939	 2.1478850073	 0.125897
H	-0.5793459329	-0.464086981	 3.0975777469	 0.109657
H	-1.5294779789	-0.9184930107	 1.6030212442	 0.110327
H	 1.0574343903	-2.3327391017	 2.5957043704	 0.079033
H	-0.6369313702	-3.5546047792	 1.3130319735	 0.288273
48.8419	85.2933	100.6554	133.7849	183.6596	220.3193	237.8916	270.4606	284.7093	303.2884	339.523	381.0028	435.0268	475.4489	612.9671	717.7042	781.3909	830.7849	907.3037	933.3556	948.7329	989.2498	1022.5113	1041.3014	1047.7357	1067.7302	1109.6143	1128.1749	1153.9794	1177.9906	1186.9912	1225.2423	1251.7085	1265.0839	1290.3908	1330.3088	1340.1827	1381.0449	1403.5458	1419.2965	1436.9672	1477.1735	1480.7998	1484.5896	1492.6617	1497.639	1506.1824	1507.668	1526.5641	2946.1316	2965.993	2975.9012	3005.7478	3036.1621	3048.7884	3083.8946	3086.8097	3102.3283	3111.1918	3119.1852	3127.5998	3215.8403	3809.0924
CCC1(COC)CC1O	CC[C@@]1(COC)C[C@H]1O	
InChI=1S/C7H14O2/c1-3-7(5-9-2)4-6(7)8/h6,8H,3-5H2,1-2H3	InChI=1S/C7H14O2/c1-3-7(5-9-2)4-6(7)8/h6,8H,3-5H2,1-2H3/t6-,7+/m1/s1
