22
gdb 119951	2.46696	0.93712	0.8095	3.7693	84.75	-0.2438	0.0115	0.2553	1554.7957	0.192288	-404.355027	-404.344549	-404.343605	-404.391071	37.204	
C	 0.0405507067	 1.4367175068	-0.3508637905	-0.382833
C	-0.0347638815	-0.0884639454	-0.2477071591	-0.16845
C	-1.4397482123	-0.5902366663	 0.120191747	-0.197713
C	-1.5073134619	-2.0916262058	 0.302786192	-0.03294
C	-2.7881059092	-2.8946074652	 0.1907941987	-0.019861
C	-4.1343929247	-2.2890491889	-0.1339324688	-0.407723
N	-1.7475254952	-2.9979153301	-0.8074021954	-0.067634
C	-1.8311192055	-2.7591750485	-2.1567316218	 0.13854
O	-2.7443995543	-3.1084095825	-2.8699989009	-0.311077
H	 1.0504679853	 1.7673458586	-0.6110722601	 0.117381
H	-0.6424796301	 1.816637557	-1.1185407571	 0.119237
H	-0.2319132148	 1.9116477938	 0.5981883163	 0.116477
H	 0.2764312755	-0.5380947897	-1.1988862693	 0.106244
H	 0.6821839751	-0.443542858	 0.503876234	 0.100957
H	-1.7516060653	-0.1184684311	 1.0622994926	 0.10657
H	-2.1558364431	-0.2656832903	-0.6425067079	 0.107526
H	-0.7710810607	-2.4724174159	 1.0126511633	 0.096551
H	-2.8482856804	-3.7721721287	 0.834951595	 0.100113
H	-4.0512446126	-1.373326996	-0.7216226942	 0.129226
H	-4.7319031806	-2.995752504	-0.7153628426	 0.150703
H	-4.6709239526	-2.059548152	 0.7924444785	 0.119196
H	-0.9145950075	-2.2742161278	-2.54729505	 0.079508
68.27	85.5039	120.0474	131.0773	149.6623	175.5449	246.661	254.353	266.1566	337.1116	406.314	504.011	515.7706	622.7719	749.6171	799.0453	822.9005	871.766	898.8181	938.4158	1014.5604	1032.3871	1047.3347	1071.9259	1086.7826	1118.1299	1138.9904	1165.8295	1188.5653	1201.5696	1264.7287	1303.9591	1330.7497	1378.5763	1387.4777	1404.0469	1414.8355	1419.1973	1425.4814	1463.5062	1473.3114	1487.7561	1491.3402	1497.9753	1500.3914	1509.1886	1784.6391	2935.6063	3014.709	3023.2699	3031.9246	3048.0948	3050.3883	3073.269	3091.6583	3099.2965	3102.6428	3106.9616	3118.6832	3140.9081
CCCC1C(C)N1C=O	CCC[C@H]1[C@@H](C)N1C=O	
InChI=1S/C7H13NO/c1-3-4-7-6(2)8(7)5-9/h5-7H,3-4H2,1-2H3	InChI=1S/C7H13NO/c1-3-4-7-6(2)8(7)5-9/h5-7H,3-4H2,1-2H3/t6-,7+,8?/m1/s1
