20
gdb 6186	3.51941	1.5165	1.40766	2.8792	74.29	-0.2343	-0.0122	0.2222	997.3116	0.176309	-349.052602	-349.044282	-349.043338	-349.084961	32.286	
C	 0.2077491412	 1.4243415571	 0.1345533267	-0.418497
C	-0.0683172781	-0.0846151674	-0.000870525	 0.286323
C	-1.5786117548	-0.3269008683	-0.0801987744	-0.433874
C	 0.6733748583	-0.6614708334	-1.2435653784	-0.236497
C	 2.1253698891	-0.8818430279	-0.7954787469	-0.326853
C	 2.0421149161	-1.1074303053	 0.7207479105	 0.401294
O	 2.9550688236	-1.432054165	 1.4347344306	-0.313673
C	 0.5989296852	-0.850012842	 1.1630657882	-0.341067
H	 1.2787758523	 1.6440151551	 0.201083574	 0.116007
H	-0.1912448792	 1.9727710939	-0.7255474278	 0.11388
H	-0.264750188	 1.8262105916	 1.0372693876	 0.116388
H	-2.0109045941	 0.1756306957	-0.9529925985	 0.112289
H	-1.804535611	-1.3955502968	-0.1632363944	 0.109687
H	-2.0906170408	 0.0565076181	 0.8092171063	 0.11382
H	 0.2201357473	-1.6211379626	-1.5189539573	 0.098309
H	 0.584274557	-0.0034523612	-2.1129435257	 0.09923
H	 2.6307137733	-1.7216715154	-1.2795062534	 0.127695
H	 2.7535351211	 0.000117172	-0.9678645368	 0.133199
H	 0.5657600915	-0.3413534573	 2.1301696988	 0.120879
H	 0.1258572699	-1.8328545608	 1.2999429957	 0.121463
71.5474	167.6657	233.7446	244.7233	296.3816	331.6393	365.9715	399.2073	463.9554	491.3029	552.2068	590.6695	722.4821	763.8718	811.2231	885.9459	916.8746	947.7518	962.6787	967.3622	1003.2507	1051.9104	1060.8382	1134.4419	1169.4055	1199.2141	1217.1401	1259.6244	1279.1462	1283.1971	1319.3028	1346.9018	1403.2988	1422.5908	1447.6787	1453.5174	1483.8612	1488.0571	1501.9157	1505.8809	1508.1098	1846.0871	3018.4764	3022.3194	3028.1101	3036.8531	3047.4884	3084.5575	3089.7099	3093.5248	3096.26	3097.4136	3100.1665	3103.1027
CC1(C)CCC(=O)C1	CC1(C)CCC(=O)C1	
InChI=1S/C7H12O/c1-7(2)4-3-6(8)5-7/h3-5H2,1-2H3	InChI=1S/C7H12O/c1-7(2)4-3-6(8)5-7/h3-5H2,1-2H3
