15
gdb 18817	4.1894	2.33274	1.88315	3.9537	63.35	-0.2425	-0.0101	0.2324	718.8772	0.121068	-362.639316	-362.633543	-362.632599	-362.669102	23.314	
O	 0.0239850632	-0.0195275706	-0.0414525054	-0.299521
C	-0.0083854981	 1.1744845518	-0.0071237864	 0.386858
C	-1.2528777369	 2.06419547	 0.2008545695	-0.359714
C	-0.6763720818	 3.4609158537	 0.1446004673	-0.051549
C	 0.5640516042	 3.8203978449	 0.9710053924	-0.085652
C	 1.3226474369	 2.5609024034	 1.3679603459	-0.198377
N	 1.1725086159	 2.0292087965	-0.0595681514	-0.174369
C	 0.691279051	 3.3842073204	-0.4667530551	-0.03939
H	-1.9852886312	 1.8912561903	-0.5948147226	 0.136496
H	-1.730701958	 1.7842475177	 1.1452530487	 0.136281
H	-1.3085960287	 4.3022004548	-0.1142308418	 0.099938
H	 0.6837382217	 4.8089063963	 1.3970059559	 0.097492
H	 2.3802681206	 2.7404072709	 1.5727794446	 0.129659
H	 0.9099216293	 1.9117877985	 2.1488843263	 0.118792
H	 1.056193642	 3.8681239014	-1.3626456481	 0.103056
118.0683	303.8069	388.8658	483.773	572.2514	625.8354	687.5144	747.96	775.7103	787.1537	814.9853	890.1019	933.9631	975.7293	991.7966	1003.0355	1022.354	1051.2557	1061.6244	1076.5753	1092.3791	1122.0059	1177.1611	1186.072	1235.7614	1276.2776	1305.8153	1320.3981	1398.1027	1461.633	1512.3353	1877.004	3037.3033	3052.3459	3089.9543	3104.6092	3183.8944	3189.2296	3207.8969
O=C1CC2C3CN1C23	O=C1C[C@H]2[C@H]3CN1[C@@H]23	
InChI=1S/C6H7NO/c8-5-1-3-4-2-7(5)6(3)4/h3-4,6H,1-2H2	InChI=1S/C6H7NO/c8-5-1-3-4-2-7(5)6(3)4/h3-4,6H,1-2H2/t3-,4+,6-/m0/s1
