16
gdb 98496	2.35259	1.44008	0.96392	2.9233	72.17	-0.2763	-0.0095	0.2668	1200.4811	0.124527	-434.086067	-434.076916	-434.075972	-434.120647	32.056	
C	 0.3760797081	 1.4592894525	-0.0806951861	-0.343648
N	 0.6134880267	 0.0292854549	 0.0061971843	-0.352142
C	 0.2894114179	-0.6963471827	 1.0965678052	 0.418332
O	-0.2265940924	-0.2492654151	 2.1093608241	-0.39811
C	 0.6066182807	-2.1862862	 1.0290930333	 0.049556
C	 1.1853883445	-2.7701840666	 2.2902298096	-0.241771
N	-0.192901383	-3.0425945312	 1.9252773019	-0.322542
C	 0.96036503	-2.7379386386	-0.2557932339	 0.258205
N	 1.2715077028	-3.1006230775	-1.309412286	-0.354132
H	 1.3154718106	 2.0047518269	-0.2170819843	 0.137924
H	-0.2922744781	 1.6933235181	-0.9154226789	 0.140247
H	-0.090103151	 1.7754834333	 0.8524320406	 0.175714
H	 1.0170620442	-0.4471185799	-0.7859737158	 0.27343
H	 1.8676970356	-3.6097918411	 2.2039655475	 0.146295
H	 1.3855920744	-2.0562366687	 3.0833043849	 0.15005
H	-0.7979383209	-2.4002956043	 2.4414731836	 0.26259
66.4551	79.3916	131.3131	141.8504	228.2581	243.4078	303.6081	337.0616	411.9658	511.9005	528.8115	573.078	591.5264	760.885	795.2355	872.3147	903.9571	952.8193	1010.1159	1053.9626	1114.508	1142.1549	1154.6389	1178.4247	1237.716	1291.0816	1328.877	1366.6073	1443.4127	1487.9034	1496.7563	1498.5792	1583.7007	1771.5892	2348.8962	3039.2994	3096.2173	3122.5208	3161.9666	3223.5606	3452.7247	3622.0911
CNC(=O)C1(CN1)C#N	CNC(=O)[C@]1(CN1)C#N	
InChI=1S/C5H7N3O/c1-7-4(9)5(2-6)3-8-5/h8H,3H2,1H3,(H,7,9)	InChI=1S/C5H7N3O/c1-7-4(9)5(2-6)3-8-5/h8H,3H2,1H3,(H,7,9)/t5-/m1/s1
