17
gdb 72836	2.71577	1.60867	1.26919	4.6885	67.3	-0.2622	0.0076	0.2698	1010.2126	0.13639	-458.992658	-458.984812	-458.983868	-459.025254	29.888	
O	 0.0301920874	 1.3381251585	-0.3837455577	-0.482592
C	 0.0316918793	-0.0129314656	 0.0065875972	 0.382609
C	 0.3690633708	-1.037995667	-1.122852772	-0.290337
C	-1.1294210267	-1.4549720605	-1.1754630562	-0.224908
C	-1.3775671482	-0.632596586	 0.1210402197	-0.212724
C	-1.3116043547	-1.4744367032	 1.3858556938	 0.438176
O	-2.1283305979	-2.2391712908	 1.807625207	-0.340902
O	-0.1159754156	-1.2759882152	 2.0193811234	-0.22337
C	 0.6678390559	-0.2550733757	 1.3849637611	-0.147696
H	 0.9169213723	 1.5703943962	-0.6809459519	 0.283006
H	 0.771311708	-0.5873129962	-2.0329307961	 0.106508
H	 1.0390328471	-1.838284196	-0.7970931329	 0.112815
H	-1.6568263558	-1.0313794288	-2.0315252014	 0.120398
H	-1.3533726823	-2.5211436159	-1.1138878254	 0.125904
H	-2.238396454	 0.0364138753	 0.1426628621	 0.11754
H	 1.7040643963	-0.6045479758	 1.3417343337	 0.11392
H	 0.6176285082	 0.6615144467	 1.9832172155	 0.121655
65.9064	146.4728	209.7135	254.0422	298.2306	348.6377	391.7589	509.2108	562.0621	624.8307	683.4149	724.6707	740.8167	807.5487	861.7791	922.4324	955.1403	969.861	989.8396	1064.798	1067.8085	1087.5651	1145.809	1147.2072	1197.5607	1208.4781	1227.1257	1248.1247	1269.058	1279.963	1310.5817	1344.4638	1407.9811	1466.5297	1492.5947	1514.9204	1881.0874	3038.107	3060.6763	3080.8686	3091.0078	3113.3687	3116.6098	3138.9605	3800.757
OC12CCC1C(=O)OC2	O[C@]12CC[C@H]1C(=O)OC2	
InChI=1S/C6H8O3/c7-5-4-1-2-6(4,8)3-9-5/h4,8H,1-3H2	InChI=1S/C6H8O3/c7-5-4-1-2-6(4,8)3-9-5/h4,8H,1-3H2/t4-,6-/m0/s1
