14
gdb 130266	4.12847	0.98821	0.80208	1.7488	68.58	-0.2413	-0.0134	0.2279	1320.3455	0.101702	-432.877093	-432.869031	-432.868087	-432.910677	29.157	
N	 0.1503333901	 1.4021201979	 0.0383870436	-0.58733
C	 0.097975293	 0.0283208931	-0.0855273062	 0.425841
N	-0.7912931784	-0.5524391936	-0.8635910678	-0.225736
O	-0.4868542908	-1.9244336173	-0.8083933918	-0.225671
C	 0.5572737258	-2.1029724507	 0.0107897227	 0.466994
C	 1.0066488789	-3.5236458267	 0.1789379368	-0.464741
C	 2.1100849032	-3.6500712623	 1.1273868156	 0.28338
N	 2.9823294796	-3.7450507053	 1.8778771965	-0.302742
C	 0.9886331213	-0.9201889006	 0.5103989286	-0.403527
H	 0.4322759672	 1.733815415	 0.9488909632	 0.259881
H	-0.6823765606	 1.8667456687	-0.297449043	 0.264336
H	 0.1672731033	-4.1418249276	 0.5203307264	 0.18391
H	 1.3175903012	-3.9348980414	-0.789553766	 0.18488
H	 1.8123082362	-0.742664289	 1.1812007415	 0.140525
38.6516	105.8036	175.7763	276.4534	315.6166	357.4365	382.7592	430.2327	466.9717	609.0929	627.1271	673.9458	734.7285	776.4065	804.2775	934.2144	957.8062	965.2056	1001.8809	1039.1945	1138.4628	1166.1586	1218.8584	1264.7648	1370.4129	1454.6292	1500.4085	1549.0326	1642.3251	1673.1224	2374.6462	3036.6747	3068.0875	3281.0842	3563.6953	3666.2709
NC1=NOC(CC#N)=C1	Nc1noc(CC#N)c1	
InChI=1S/C5H5N3O/c6-2-1-4-3-5(7)8-9-4/h3H,1H2,(H2,7,8)	InChI=1S/C5H5N3O/c6-2-1-4-3-5(7)8-9-4/h3H,1H2,(H2,7,8)
