16
gdb 7289	3.05305	1.52919	1.09831	2.4741	66.84	-0.2647	-0.03	0.2347	1053.6931	0.126877	-383.72723	-383.71817	-383.717226	-383.761402	32.268	
C	-0.9728684028	 1.2567786101	 0.0431289994	-0.483816
C	-0.2199654736	-0.0472117403	 0.0435826643	 0.369373
O	 0.9900944199	-0.1040644475	 0.1262194907	-0.318536
C	-0.9933223597	-1.3709471003	-0.0855825739	 0.031862
O	-0.0849638498	-2.4150905663	-0.2897693441	-0.425866
C	-1.8360404414	-1.6899198721	 1.1875524955	-0.376188
C	-3.0597071079	-0.917746995	 1.3433113565	 0.299919
C	-4.0783284788	-0.2882214592	 1.4546229676	-0.450601
H	-0.2731214005	 2.0852623091	 0.1584691098	 0.144224
H	-1.5225879974	 1.3640216792	-0.8987940482	 0.14912
H	-1.722907548	 1.272223255	 0.8393562399	 0.166197
H	-1.6832924522	-1.2934965523	-0.9388639306	 0.100135
H	 0.7916477577	-2.0105900471	-0.1702090506	 0.293951
H	-2.0809734	-2.7546974938	 1.109889129	 0.158229
H	-1.1957240173	-1.5857223052	 2.0721368718	 0.139335
H	-4.9820353082	 0.2593104858	 1.5614725028	 0.202661
48.1441	82.0839	138.4189	156.0782	235.6099	307.9286	353.8837	379.2658	432.6546	461.3084	522.8556	613.7138	627.5464	636.5033	654.2317	755.1993	929.9469	968.243	978.7809	1011.3041	1069.1709	1130.5929	1190.0784	1206.6502	1282.0825	1315.2374	1356.8949	1394.7237	1446.3815	1462.2006	1468.944	1473.0393	1791.3835	2234.5077	3000.3576	3036.016	3045.1135	3077.8602	3109.5426	3156.6031	3503.8175	3647.4732
CC(=O)C(O)CC#C	CC(=O)[C@@H](O)CC#C	
InChI=1S/C6H8O2/c1-3-4-6(8)5(2)7/h1,6,8H,4H2,2H3	InChI=1S/C6H8O2/c1-3-4-6(8)5(2)7/h1,6,8H,4H2,2H3/t6-/m0/s1
