17
gdb 81255	3.03615	1.56805	1.45113	1.5723	67.69	-0.2525	0.0419	0.2943	955.712	0.136578	-458.857257	-458.850192	-458.849248	-458.888647	28.429	
O	 0.0565296428	 1.389018796	-0.1380197255	-0.456382
C	 0.1120276813	 0.0063261153	-0.0468303064	 0.16304
C	 0.0254458439	-0.6464211871	 1.3398261743	-0.087268
O	-1.417491884	-0.1786647316	 1.4137055958	-0.4035
C	-1.2435761526	-0.7827144849	 0.0539174984	 0.357592
C	-2.0491351714	-1.3321606433	-1.0845513964	-0.406817
C	-1.0208367955	-2.4667977595	-1.4965544695	-0.068688
O	-0.0496114972	-2.672184975	-0.4204105691	-0.287835
C	-0.5460810441	-1.9496948799	 0.6799867685	 0.104455
H	-0.6152864635	 1.6601906506	 0.5044001748	 0.288681
H	 0.8638324371	-0.3722392339	-0.738242552	 0.110493
H	 0.6070207107	-0.4980772908	 2.250167444	 0.099408
H	-2.9973741084	-1.7616887916	-0.7501072959	 0.128877
H	-2.2369558389	-0.6390770843	-1.9072194551	 0.125368
H	-1.5387005594	-3.4112918194	-1.6906598847	 0.119497
H	-0.4587810323	-2.1862276658	-2.3916431948	 0.123899
H	-1.1349595787	-2.5515682948	 1.3788958237	 0.08918
110.5014	216.3485	225.5188	332.788	362.5345	463.3173	540.4259	580.5127	652.2537	687.919	701.6031	769.019	830.7922	859.248	884.2728	898.2965	913.2124	940.4166	961.5021	1019.5691	1086.645	1098.766	1138.2863	1152.9344	1175.1573	1182.6095	1196.459	1222.0175	1240.6332	1269.1798	1312.2956	1319.967	1370.4522	1377.0372	1457.4318	1489.0025	1516.5083	3048.6265	3064.4703	3068.6571	3093.8816	3119.935	3123.9423	3136.1929	3739.8192
OC1C2OC11CCOC21	O[C@H]1[C@H]2O[C@]31CCO[C@@H]23	
InChI=1S/C6H8O3/c7-4-3-5-6(4,9-3)1-2-8-5/h3-5,7H,1-2H2	InChI=1S/C6H8O3/c7-4-3-5-6(4,9-3)1-2-8-5/h3-5,7H,1-2H2/t3-,4+,5+,6+/m1/s1
