19
gdb 39150	2.93352	2.00219	1.45698	1.4091	79.59	-0.2365	0.0031	0.2396	928.8966	0.162828	-385.877653	-385.871153	-385.870209	-385.9082	27.494	
C	-0.0188337085	 1.5655847133	-0.1823586787	-0.267484
C	 1.5371904422	 1.6002614082	 0.054916977	-0.023449
C	 2.0504274245	 2.3671438871	 1.2965400378	-0.263257
C	 1.5501673794	 1.4840525315	 2.4298347199	-0.159279
C	 1.196350162	 0.2779505538	 1.9847195164	 0.208215
C	 0.0689342343	-0.6441162374	 2.3334054263	-0.150323
O	-0.7942979476	-0.4923514492	 1.1803428796	-0.288034
C	-0.0363141294	 0.0132102299	 0.0700620786	 0.142534
C	 1.4318331122	 0.1202657682	 0.4961599642	-0.122292
H	-0.6084569351	 2.1274663293	 0.5444408201	 0.107308
H	-0.3276813457	 1.8581181024	-1.1885473792	 0.099135
H	 2.10498099	 1.8040248388	-0.8545182054	 0.063571
H	 3.1426683685	 2.4912788988	 1.2821132629	 0.103558
H	 1.6249139753	 3.3761190835	 1.3718663468	 0.105572
H	 1.3650991699	 1.8614991313	 3.4300629605	 0.094556
H	 0.3656673748	-1.6978960151	 2.4364271367	 0.096562
H	-0.4875238391	-0.3457599389	 3.2262792859	 0.112422
H	-0.2919113403	-0.5802027416	-0.8111874589	 0.073631
H	 2.1651754025	-0.6378645839	 0.2077425895	 0.067053
156.9077	272.036	319.4093	365.4229	368.8594	556.7724	627.0298	675.1015	733.4392	745.697	796.1573	834.5733	845.9694	892.2947	905.2631	922.4612	943.4844	958.5264	983.9012	997.363	1032.508	1041.9815	1065.859	1116.0265	1151.9619	1180.2046	1188.3461	1198.1661	1228.4554	1243.2835	1259.8535	1274.3483	1300.3181	1316.1902	1330.8108	1344.1597	1375.6183	1463.568	1480.2476	1516.6376	1715.6205	2994.0972	3004.1313	3044.0378	3062.4074	3067.736	3078.2586	3085.908	3095.1644	3129.9526	3186.7612
C1C2CC=C3COC1C23	C1[C@H]2C[CH][C]3CO[C@@H]1[C@@H]23	
InChI=1S/C8H10O/c1-2-6-4-9-7-3-5(1)8(6)7/h2,5,7-8H,1,3-4H2	InChI=1S/C8H10O/c1-2-6-4-9-7-3-5(1)8(6)7/h2,5,7-8H,1,3-4H2/t5-,7+,8+/m1/s1
