16
gdb 71150	3.08199	1.69388	1.38159	3.7529	67.51	-0.2505	-0.014	0.2364	931.1899	0.124673	-437.868066	-437.861021	-437.860077	-437.899266	28.396	
O	-0.0448363269	 1.3849328649	-0.0026666667	-0.490996
C	 0.0231741653	-0.007455128	 0.0294030557	 0.386666
C	 0.4078957053	-0.7703809072	-1.2927383876	-0.317297
C	-0.8462131969	-1.6333252495	-1.0927625514	-0.043123
C	-1.3530812438	-0.7337917297	-0.0279367644	-0.09123
N	-0.9940475601	-2.1107538742	 0.3167416231	-0.145942
C	 0.2238700822	-2.1063469635	 1.0931368023	 0.390711
O	 0.7331084923	-3.0968250583	 1.5292435197	-0.300402
C	 0.7164614757	-0.6596022314	 1.2265240825	-0.391278
H	 0.8511230658	 1.7383766514	-0.0127713801	 0.285926
H	 0.2716112053	-0.1076771248	-2.1503968266	 0.122102
H	 1.384066984	-1.2636032949	-1.3488329771	 0.106676
H	-1.3720935987	-2.2071887347	-1.8455199863	 0.114685
H	-2.3352086563	-0.3432569903	 0.2057863945	 0.111398
H	 1.8089433018	-0.6290647379	 1.2119483069	 0.125071
H	 0.3608730049	-0.2192950218	 2.1661346157	 0.137032
118.5529	238.9915	280.3391	320.2451	387.5746	409.5309	499.1879	545.5042	638.1838	649.5761	661.0134	753.689	798.464	852.4647	877.5857	904.107	944.6295	973.5015	994.9094	1021.9053	1046.2255	1071.1635	1115.3074	1144.2814	1195.327	1210.5557	1216.0813	1231.8438	1257.6132	1287.8561	1349.1296	1385.0179	1459.1831	1487.2388	1875.1132	3042.2528	3046.1779	3109.1017	3118.3093	3190.6437	3206.7185	3810.1238
OC12CC3C1N3C(=O)C2	O[C@]12C[C@@H]3[C@H]1N3C(=O)C2	
InChI=1S/C6H7NO2/c8-4-2-6(9)1-3-5(6)7(3)4/h3,5,9H,1-2H2	InChI=1S/C6H7NO2/c8-4-2-6(9)1-3-5(6)7(3)4/h3,5,9H,1-2H2/t3-,5-,6+,7?/m1/s1
