15
gdb 9216	7.29552	0.86643	0.82442	4.0774	60.41	-0.2575	-0.0306	0.2269	1350.8886	0.116279	-436.981481	-436.97226	-436.971316	-437.017374	29.862	
C	-0.0756005596	 1.3141877848	 0.1615347521	-0.330643
N	 0.4997252161	-0.0087502565	 0.0361642101	-0.353516
C	 0.6269162297	-0.6369072756	-1.1561800805	 0.525878
O	 0.2892862196	-0.2054018851	-2.2354561016	-0.403161
O	 1.2077463108	-1.8634594941	-0.9579871605	-0.278573
C	 1.4191541534	-2.6541113975	-2.1226614133	-0.169509
C	 0.5944009992	-3.9251341082	-2.039979774	 0.144863
O	 0.8419691091	-4.9200313862	-2.6665109078	-0.23022
H	 0.6464259876	 2.0253817488	 0.577682814	 0.130896
H	-0.3617591835	 1.6453093714	-0.8370714725	 0.173326
H	-0.9654065381	 1.3028620563	 0.8005013602	 0.130672
H	 0.8381872128	-0.4942772967	 0.8499196561	 0.257613
H	 1.1154220196	-2.0861744222	-3.0100459623	 0.174152
H	 2.4812120479	-2.9034128538	-2.2003802413	 0.140434
H	-0.2780533346	-3.8517620455	-1.3515755788	 0.087789
31.4089	65.7785	82.1958	88.8895	136.8853	228.521	327.9364	347.6688	418.4528	483.0565	590.925	685.4017	755.7308	772.9021	922.4352	1046.3176	1051.7003	1118.3001	1159.9079	1171.8982	1180.7241	1243.8483	1269.6095	1347.4856	1408.6272	1448.0226	1452.862	1498.529	1500.4448	1570.272	1826.8902	1844.1669	2882.8251	3030.2583	3046.5895	3082.3221	3106.4581	3157.2158	3657.31
CNC(=O)OCC=O	CNC(=O)OCC=O	
InChI=1S/C4H7NO3/c1-5-4(7)8-3-2-6/h2H,3H2,1H3,(H,5,7)	InChI=1S/C4H7NO3/c1-5-4(7)8-3-2-6/h2H,3H2,1H3,(H,5,7)
