22
gdb 117081	2.78244	0.95807	0.89095	2.5994	80.05	-0.2311	0.0368	0.2679	1478.416	0.191401	-441.534051	-441.522873	-441.521929	-441.571194	40.392	
C	-0.0460040212	 1.2790314328	 0.4969479669	-0.371972
C	-0.0544074837	 0.0836859407	-0.4588229282	-0.143112
N	-1.3324449455	-0.6052230604	-0.4884302543	-0.314217
C	-1.5254548856	-1.8323072369	 0.0564052795	 0.362672
O	-0.6454504538	-2.5116089834	 0.5622654776	-0.404516
C	-2.9943041843	-2.3283146814	 0.015971808	 0.251742
C	-3.0223583491	-3.761028082	-0.5204620134	-0.426644
C	-3.5544556023	-2.2473308975	 1.4394952575	-0.388151
O	-3.8149859425	-1.4649644967	-0.7863177528	-0.466748
H	 0.9303065627	 1.7738529865	 0.4814831171	 0.118938
H	-0.8016612786	 2.0203707614	 0.2146861391	 0.112693
H	-0.2523496161	 0.9560464487	 1.5214151902	 0.131887
H	 0.2035921267	 0.4111001161	-1.4737631667	 0.102486
H	 0.6836607144	-0.6604433259	-0.1505556005	 0.146654
H	-2.1626223978	-0.132468032	-0.8135668165	 0.248779
H	-2.3455522868	-4.3890982903	 0.0607566714	 0.15363
H	-4.037028278	-4.1658916366	-0.4681617189	 0.117269
H	-2.6851808777	-3.7932478179	-1.5641156279	 0.107821
H	-3.5983594239	-1.2053047709	 1.7694201266	 0.121174
H	-4.5662123878	-2.6610296071	 1.4688955919	 0.117496
H	-2.9119179455	-2.8047847166	 2.1239174259	 0.141142
H	-3.7334524938	-1.7509350308	-1.7025126326	 0.280976
28.1259	51.5298	85.4686	182.5598	216.1927	237.3485	254.188	271.884	300.3462	320.0921	340.4334	361.6973	423.1946	439.955	522.0177	587.6792	655.0277	766.5926	770.1261	827.279	896.1368	918.1593	942.4039	977.7641	1017.161	1070.2279	1117.3373	1120.9323	1176.5887	1193.1515	1228.6017	1271.7132	1324.5533	1356.0061	1390.2797	1392.6962	1407.3775	1410.4753	1477.7436	1483.7019	1485.7383	1492.4339	1496.3208	1502.6352	1506.6063	1547.7901	1766.314	3026.6279	3028.2341	3034.4619	3046.8515	3096.0043	3099.6132	3114.6049	3117.8903	3123.103	3141.5451	3148.9081	3615.7096	3808.9884
CCNC(=O)C(C)(C)O	CCNC(=O)C(C)(C)O	
InChI=1S/C6H13NO2/c1-4-7-5(8)6(2,3)9/h9H,4H2,1-3H3,(H,7,8)	InChI=1S/C6H13NO2/c1-4-7-5(8)6(2,3)9/h9H,4H2,1-3H3,(H,7,8)
