12
gdb 132171	3.27207	1.42563	0.99326	6.4967	60.32	-0.2505	-0.0364	0.2141	1055.5089	0.077574	-513.955298	-513.947896	-513.946952	-513.987295	27.46	
N	 0.0568731402	 1.3294378419	 0.1124730615	-0.557429
C	-0.0316041525	-0.0184035113	 0.0389031414	 0.50163
N	-1.1592695884	-0.6353995411	 0.021009286	-0.390174
C	-1.1977911609	-2.0300841828	-0.0045721809	 0.305178
O	-2.2251379339	-2.6688722761	-0.0180306985	-0.345823
C	 0.1353835899	-2.6741592619	-0.0202269175	 0.098962
F	 0.1888777926	-3.9971258186	-0.0486118535	-0.047263
C	 1.2552153828	-1.9475104184	-0.0109457803	-0.076005
O	 1.208091918	-0.5802326499	 0.0196356691	-0.211562
H	 0.9337339197	 1.7750489157	-0.0948075769	 0.276613
H	-0.795395391	 1.8432525462	-0.0308867002	 0.287545
H	 2.2644146536	-2.3337300138	-0.0246529702	 0.158328
96.077	181.7908	294.4354	299.738	353.8909	369.5329	389.5422	470.2844	494.2801	542.9484	609.116	745.6831	749.3441	797.4847	807.2661	872.654	916.0906	1072.7295	1203.7288	1254.0889	1297.4226	1386.3107	1412.4234	1597.3732	1679.4093	1738.3952	1803.5378	3242.0129	3621.5508	3751.8413
NC1=NC(=O)C(F)=CO1	Nc1nc(=O)c(F)co1	
InChI=1S/C4H3FN2O2/c5-2-1-9-4(6)7-3(2)8/h1H,(H2,6,7,8)	InChI=1S/C4H3FN2O2/c5-2-1-9-4(6)7-3(2)8/h1H,(H2,6,7,8)
