16
gdb 45240	3.49659	1.67166	1.49927	2.7776	66.79	-0.2411	0.0118	0.2529	888.5783	0.128275	-437.897139	-437.891155	-437.890211	-437.927352	25.253	
O	-0.0619107039	-0.0803043712	-0.0292360381	-0.375831
C	-0.033247879	 1.1283460303	-0.032406132	 0.394538
N	-1.1241186129	 1.9835249881	-0.091333219	-0.307115
C	-0.700497657	 3.3366926851	 0.26571665	-0.055403
C	-0.1074258022	 3.3289817029	 1.7104755438	-0.225162
C	 1.3296573651	 2.9983050821	 1.2704642902	 0.060882
O	 1.5836432883	 4.1245208607	 0.3723323116	-0.292529
C	 0.6705442869	 3.4370467333	-0.5027054828	 0.096264
C	 1.1607568865	 2.0663262807	 0.0025309765	-0.165337
H	-2.0340796421	 1.6258705466	 0.1636077863	 0.249941
H	-1.4568492274	 4.0860422407	 0.041937888	 0.090695
H	-0.1230445425	 4.3059678983	 2.1971270608	 0.119161
H	-0.5882017209	 2.5850773575	 2.3497926309	 0.108848
H	 2.1054451751	 2.827560216	 2.0141570744	 0.096818
H	 0.6746508686	 3.761513357	-1.5417436284	 0.098576
H	 2.0953672473	 1.6800063921	-0.3934546524	 0.105654
159.1422	315.7171	423.2677	460.9464	542.1981	554.1003	585.942	656.9415	692.5923	796.8779	827.4575	851.3373	876.0717	890.1121	924.8565	934.9672	967.4859	973.9341	1012.31	1040.8558	1052.7927	1104.5541	1150.0143	1163.8162	1208.0069	1214.9047	1243.4689	1261.9455	1293.9992	1311.3754	1327.672	1345.5266	1403.7076	1480.0907	1842.2879	3074.143	3131.1659	3138.3507	3145.2832	3147.5423	3173.1065	3605.153
O=C1NC2CC3OC2C13	O=C1N[C@H]2C[C@@H]3O[C@H]2[C@H]13	
InChI=1S/C6H7NO2/c8-6-4-3-1-2(7-6)5(4)9-3/h2-5H,1H2,(H,7,8)	InChI=1S/C6H7NO2/c8-6-4-3-1-2(7-6)5(4)9-3/h2-5H,1H2,(H,7,8)/t2-,3-,4+,5+/m0/s1
