21
gdb 119372	3.23853	0.9478	0.84977	1.8404	79.1	-0.2341	0.0777	0.3117	1440.3058	0.181082	-424.157293	-424.147875	-424.146931	-424.191889	35.232	
C	-0.2329681336	 1.5824767436	-0.1071808244	-0.443558
C	 0.0017268066	 0.0897363134	 0.0555229603	 0.001782
C	 1.1716099477	-0.6785524954	-0.6196853902	 0.032258
C	 2.185681223	-0.056450149	 0.3630003108	-0.277606
C	 0.9282495885	-0.5216684551	 1.1554645692	 0.414459
C	 0.7043745499	-0.6474145994	 2.6334693268	-0.359524
C	 1.7943435635	-1.4631868076	 3.3386711087	-0.064228
O	 1.5692123311	-1.5743028821	 4.7350088171	-0.418133
O	 0.9553938885	-1.7778095048	 0.3470951953	-0.348562
H	 0.6822920304	 2.1757556919	-0.0375790103	 0.119527
H	-0.6908432584	 1.7923551582	-1.0799375688	 0.123681
H	-0.9237440275	 1.9464102776	 0.6612976961	 0.123597
H	-0.9311278795	-0.476821387	-0.0211220845	 0.07877
H	 1.3063950134	-0.9557471385	-1.6656824327	 0.08992
H	 3.0814629284	-0.6560410847	 0.5292755182	 0.107659
H	 2.4052883403	 1.0108354249	 0.29943285	 0.095722
H	 0.65355563	 0.3528983108	 3.0796083757	 0.114525
H	-0.2727948756	-1.122636676	 2.795429961	 0.100658
H	 1.8850763353	-2.4476956525	 2.8591014926	 0.113045
H	 2.7615875164	-0.9608266223	 3.233746442	 0.114176
H	 0.7845429516	-2.1165805059	 4.8634005972	 0.281832
72.7158	89.643	114.8723	167.9269	216.7884	295.6538	308.5599	339.8231	359.5444	418.6446	566.0018	592.4485	696.4529	710.5681	774.944	802.9654	831.9506	896.9616	920.0333	966.1952	1010.8925	1016.8138	1042.7968	1072.5342	1082.1344	1107.0044	1113.0529	1139.7182	1150.7206	1193.885	1224.5963	1229.1281	1253.3417	1283.2172	1320.2391	1342.4359	1389.3761	1404.505	1416.4287	1421.5143	1469.2855	1493.7031	1494.6912	1507.4877	1513.6457	3012.3743	3018.8803	3035.3379	3063.2714	3069.1687	3075.3604	3085.8227	3093.1677	3114.0708	3116.7561	3148.5402	3817.1504
CC1C2CC1(CCO)O2	C[C@H]1[C@H]2C[C@]1(CCO)O2	
InChI=1S/C7H12O2/c1-5-6-4-7(5,9-6)2-3-8/h5-6,8H,2-4H2,1H3	InChI=1S/C7H12O2/c1-5-6-4-7(5,9-6)2-3-8/h5-6,8H,2-4H2,1H3/t5-,6+,7-/m0/s1
