17
gdb 38865	2.83708	2.06018	1.92661	0.8792	66.	-0.2442	0.0788	0.323	817.4892	0.13955	-458.94497	-458.938979	-458.938035	-458.97501	25.404	
C	-0.0547832331	 1.5121908137	 0.0698154728	-0.251366
C	 1.4920969495	 1.4497883404	-0.0258127298	 0.058927
O	 2.0230551977	 1.1375653112	 1.2700155488	-0.279998
C	 1.732808926	-0.2172794149	 1.5745472351	 0.144456
C	 2.6037797758	-1.1209544248	 0.7074241539	-0.07083
O	 2.3045515098	-0.8744823111	-0.6703970868	-0.278532
C	 1.3177916159	 0.1069262444	-0.801315658	 0.099084
C	 0.0056711613	-0.0372265624	 0.0309077727	 0.058931
O	 0.3676791036	-0.5184829601	 1.3331934858	-0.279998
H	-0.4637165545	 1.9556002163	 0.9778544289	 0.117052
H	-0.5191351122	 1.9423606497	-0.8214492855	 0.103878
H	 2.072431777	 2.276147753	-0.4379412443	 0.083773
H	 1.9197367927	-0.3634811431	 2.6399903703	 0.097603
H	 3.6643957457	-0.9098392447	 0.8915004782	 0.107781
H	 2.4011254719	-2.1737206806	 0.9397427291	 0.107782
H	 1.1266502299	 0.2574554986	-1.8642694317	 0.097682
H	-0.8351453972	-0.6325945056	-0.3269633997	 0.083774
208.7075	338.2115	358.9162	412.3814	458.3622	573.2852	580.6255	669.7623	752.4499	828.6858	839.9264	855.3576	858.1855	895.3643	926.6944	977.7078	977.8283	1007.5403	1045.4133	1063.6244	1126.5368	1138.1656	1138.9755	1152.0441	1193.9968	1221.3495	1240.0127	1252.1833	1269.6061	1315.6974	1330.6562	1355.2791	1384.9034	1387.9042	1418.9686	1463.2827	1508.1832	3016.9582	3060.3214	3069.4337	3103.8954	3105.6627	3107.1498	3119.1738	3146.1165
C1C2OC3COC2C1O3	C1[C@H]2O[C@@H]3CO[C@H]2[C@H]1O3	
InChI=1S/C6H8O3/c1-3-6-4(1)9-5(8-3)2-7-6/h3-6H,1-2H2	InChI=1S/C6H8O3/c1-3-6-4(1)9-5(8-3)2-7-6/h3-6H,1-2H2/t3-,4+,5+,6-
