20
gdb 16242	2.69542	2.29373	1.45337	1.6066	74.6	-0.2199	0.0864	0.3063	931.0856	0.177563	-349.000983	-348.993044	-348.9921	-349.033666	30.589	
C	-0.3915270563	 1.4196241179	 0.0111215654	-0.420017
C	 0.0037989706	-0.0529632255	-0.0372816227	-0.05203
C	 1.0854307064	-0.3979480667	-1.0771617374	-0.238178
C	 1.5919899028	-1.7529738211	-0.5747440851	-0.078176
O	 1.4207240585	-1.7455232746	 0.8437387237	-0.308358
C	 0.635479409	-0.6308276118	 1.2250779589	 0.475935
C	 1.1574707059	 0.1919312511	 2.3743926007	-0.329927
C	-0.0406251643	-0.7300291542	 2.5525111588	-0.334953
H	 0.4813876495	 2.0598721071	 0.1735819709	 0.121275
H	-0.8582420366	 1.7233010051	-0.9311823932	 0.115585
H	-1.1115306679	 1.6190092823	 0.8122782725	 0.1178
H	-0.8909866677	-0.6508643036	-0.2622508237	 0.079537
H	 0.7055993914	-0.439415621	-2.101295449	 0.098667
H	 1.8854385269	 0.3505317922	-1.0408930839	 0.10486
H	 1.0081806109	-2.5793757419	-1.0062758346	 0.093407
H	 2.6483602262	-1.9316888642	-0.8037530971	 0.101482
H	 2.09804762	-0.1311522249	 2.8061369051	 0.116602
H	 0.9895815949	 1.2631418859	 2.3926089075	 0.107721
H	-1.0220897761	-0.2814834532	 2.6728265816	 0.107925
H	 0.1106945358	-1.6472430188	 3.1105280115	 0.120844
33.5751	163.4485	225.3323	256.6451	267.2889	359.5147	387.8781	498.7646	530.0998	615.3669	708.5421	765.4591	837.9815	862.2577	878.9693	916.0021	941.5004	966.5992	974.7572	992.9176	1041.4526	1070.4084	1071.157	1103.9197	1130.5712	1164.6847	1190.551	1212.3413	1225.9965	1239.4645	1311.7554	1333.9945	1362.8236	1382.8856	1400.3318	1415.6542	1447.6653	1489.5918	1495.91	1501.0721	1503.832	1531.5979	2992.5729	3000.9569	3032.4379	3040.2793	3059.4108	3097.8363	3101.14	3107.0241	3125.1439	3134.0592	3211.9621	3227.8937
CC1CCOC11CC1	C[C@H]1CCOC21CC2	
InChI=1S/C7H12O/c1-6-2-5-8-7(6)3-4-7/h6H,2-5H2,1H3	InChI=1S/C7H12O/c1-6-2-5-8-7(6)3-4-7/h6H,2-5H2,1H3/t6-/m0/s1
