20
gdb 63128	2.30599	1.55022	1.16323	3.0063	81.27	-0.2372	-0.0318	0.2054	1141.4894	0.169385	-403.120797	-403.111701	-403.110757	-403.154128	34.616	
C	-0.0559424588	 1.5627583806	-0.0379394142	-0.468863
C	-0.0002944539	 0.0480621132	 0.0614848872	 0.282578
C	-1.2594566719	-0.606322187	-0.4871933185	-0.454158
N	 1.1944332477	-0.7344123701	-0.2798760715	-0.212232
C	 2.4206942181	 0.0363211577	 0.1437851471	-0.154833
C	 1.9801162394	 0.0963257058	 1.6249785337	-0.32619
C	 0.7120970261	-0.6372367214	 1.1959448073	 0.215944
C	 0.1925582127	-1.802600462	 1.9393694009	 0.061735
O	 0.5239767139	-2.0546983321	 3.0752630422	-0.265469
H	 0.7738728515	 2.073464756	 0.4501274986	 0.127993
H	-0.0697421624	 1.8642137022	-1.0914769626	 0.129666
H	-0.9818195668	 1.9243530091	 0.420230424	 0.129535
H	-1.4630244419	-0.2147004444	-1.4894387259	 0.124495
H	-1.1453926382	-1.6874473076	-0.5753786639	 0.135782
H	-2.1277190728	-0.3877274373	 0.1428865763	 0.121396
H	 3.302381254	-0.5832254632	-0.0268115473	 0.119521
H	 2.5480539906	 0.9832030523	-0.3880982445	 0.109818
H	 2.5903745381	-0.522137165	 2.2833524582	 0.13554
H	 1.8526837742	 1.0770751874	 2.0892483282	 0.109524
H	-0.5253173097	-2.4478355342	 1.3934607448	 0.078221
94.9164	167.0728	174.0324	206.7849	245.7571	273.8605	308.8917	326.8479	378.6091	413.015	505.5506	522.2958	623.8302	723.3292	743.7292	792.4025	848.8692	922.452	960.4772	968.1917	976.0862	1018.9316	1029.689	1059.8034	1127.2759	1144.6347	1157.3777	1214.7107	1219.64	1255.7335	1295.8774	1332.7383	1371.0631	1410.7401	1420.7419	1438.243	1478.3767	1482.54	1497.0598	1506.9337	1512.0841	1519.605	1791.8113	2923.6809	3038.2915	3043.0936	3064.8437	3073.2685	3098.273	3102.8835	3117.205	3139.4323	3140.885	3146.9529
CC1(C)N2CCC12C=O	CC1(C)N2CC[C@@]12C=O	
InChI=1S/C7H11NO/c1-6(2)7(5-9)3-4-8(6)7/h5H,3-4H2,1-2H3	InChI=1S/C7H11NO/c1-6(2)7(5-9)3-4-8(6)7/h5H,3-4H2,1-2H3/t7-,8?/m1/s1
