19
gdb 71201	2.75759	1.99341	1.45941	1.5384	79.28	-0.2163	0.023	0.2394	949.5903	0.160449	-385.870721	-385.863534	-385.86259	-385.901691	30.08	
C	-0.0381604963	 1.4779280058	 0.021139404	-0.449891
C	-0.0417532634	-0.0346562338	-0.0647595923	 0.38946
C	 0.9277467762	-0.6008095195	-1.0998541176	-0.289013
C	 0.8528098457	-2.1048527953	-1.1822605145	-0.081752
C	-0.1252326789	-2.8111849501	-0.6138734618	-0.039067
C	-1.2382683402	-2.1657701857	 0.119200263	-0.124125
C	-1.0127995489	-1.2194898411	 1.2993168731	 0.088122
O	 0.2703699789	-0.6212681906	 1.2546404603	-0.323652
C	-1.446953666	-0.6728992295	-0.0241347043	-0.203477
H	 0.9690250444	 1.8449904826	 0.243004008	 0.124063
H	-0.3650914655	 1.918450663	-0.9272792674	 0.115075
H	-0.711570046	 1.8182368386	 0.8125244363	 0.123738
H	 0.7456468113	-0.1424793848	-2.0836456764	 0.104136
H	 1.9426534452	-0.2952425676	-0.8112282377	 0.114045
H	 1.6470191837	-2.6097097426	-1.7251833251	 0.085759
H	-0.1273150467	-3.8954885224	-0.6763211922	 0.085778
H	-2.1585357963	-2.7359579076	 0.2122368149	 0.087738
H	-1.506272675	-1.3138938973	 2.2600870831	 0.101335
H	-2.3648708221	-0.2024689221	-0.3514349234	 0.091728
181.2428	228.6619	272.7593	303.4877	366.9768	396.39	487.9836	526.7731	605.0485	651.4948	716.5438	766.9649	789.774	833.0967	847.0282	895.6143	914.9496	936.0211	959.3961	980.3497	993.8123	1011.7636	1039.4364	1045.9474	1063.833	1117.5995	1126.1596	1175.4292	1195.6208	1225.9461	1241.8156	1305.3056	1326.7942	1374.7652	1403.5951	1407.7371	1428.7297	1458.3009	1484.8193	1490.0291	1713.3225	2997.2367	3032.3368	3033.9807	3104.0211	3117.2036	3148.2565	3156.9148	3173.599	3178.7337	3195.2139
CC12CC=CC3C(O1)C23	C[C@@]12CC=C[C@H]3[C@@H](O1)[C@@H]23	
InChI=1S/C8H10O/c1-8-4-2-3-5-6(8)7(5)9-8/h2-3,5-7H,4H2,1H3	InChI=1S/C8H10O/c1-8-4-2-3-5-6(8)7(5)9-8/h2-3,5-7H,4H2,1H3/t5-,6+,7-,8+/m1/s1
