15
gdb 19715	4.17619	2.45043	2.28141	3.0815	62.25	-0.2206	-0.0032	0.2173	663.3343	0.122169	-362.611716	-362.606479	-362.605535	-362.640645	22.602	
N	-0.0271551079	 1.512052064	-0.042693946	-0.266778
C	 1.4446845015	 1.6663856676	-0.0119705097	-0.124377
C	 1.8630253566	 0.7329043913	 1.1481128628	-0.082456
C	 0.9759836349	-0.267106232	 1.1515503096	-0.082457
C	-0.0047207441	 0.0324392863	-0.006328884	-0.124379
C	 0.8498844761	-0.2434406586	-1.275916547	 0.069957
O	 0.8059193995	 0.7653144161	-2.2892957458	-0.236149
C	 1.8161782608	 0.8458680602	-1.2796694689	 0.069957
H	-0.3998260306	 1.8456939781	 0.843720246	 0.21466
H	 1.7861356915	 2.7002246376	 0.0256464288	 0.074981
H	 2.7488528924	 0.8446865235	 1.7592453301	 0.105312
H	 0.9727747869	-1.157584667	 1.7661286628	 0.105313
H	-0.9903160385	-0.4297271573	 0.0364618814	 0.074981
H	 1.0624100031	-1.2584663585	-1.5956181673	 0.100718
H	 2.848206178	 0.7546720586	-1.6025550128	 0.100717
345.4842	356.5268	479.7206	496.5902	605.9401	701.004	713.3572	800.49	817.0727	849.1187	862.9476	870.1641	886.4455	907.4717	928.9938	931.6607	978.3744	999.9089	1051.7017	1056.7642	1092.0411	1116.8267	1195.6089	1217.7971	1233.1453	1270.3403	1277.4377	1306.8794	1325.5102	1394.4562	1416.1503	1618.6417	3123.8858	3125.9304	3162.3511	3175.5197	3209.3261	3235.3491	3489.2721
N1C2C=CC1C1OC21	N1[C@H]2C=C[C@@H]1[C@H]1O[C@@H]21	
InChI=1S/C6H7NO/c1-2-4-6-5(8-6)3(1)7-4/h1-7H	InChI=1S/C6H7NO/c1-2-4-6-5(8-6)3(1)7-4/h1-7H/t3-,4+,5-,6+
