19
gdb 68956	2.66896	1.60903	1.21716	2.7954	81.76	-0.2362	-0.0232	0.213	1067.4095	0.158764	-385.909489	-385.901202	-385.900258	-385.941819	32.394	
C	 0.1606660587	 1.4614861973	 0.0611927183	-0.489762
C	 0.0411982082	-0.0429881758	 0.0595276472	 0.292646
C	 1.2338082719	-0.8825404553	-0.2325613465	-0.347785
C	 0.6681805104	-0.9321724024	 1.1903580926	 0.193273
C	 1.4617121527	-0.34961665	 2.2880887127	 0.066715
O	 2.3479624327	 0.4658736864	 2.1520029273	-0.280652
C	-0.3340310012	-2.007860949	 1.4363468172	-0.16829
C	-1.3991906683	-1.8955807811	 0.6412579596	-0.080435
C	-1.3294149395	-0.6664831801	-0.2368620328	-0.333213
H	 1.1325634747	 1.7799204269	 0.4439169223	 0.154677
H	 0.0484699318	 1.8503456622	-0.9577651785	 0.119718
H	-0.6187271271	 1.9202599651	 0.6794324871	 0.116672
H	 1.1278750106	-1.7902776321	-0.8181169392	 0.116393
H	 2.1836466272	-0.3654907192	-0.3255304081	 0.136669
H	 1.1800324479	-0.7135048111	 3.302227733	 0.07152
H	-0.1686385127	-2.7980775432	 2.1606151781	 0.102679
H	-2.2269366484	-2.5940170245	 0.5991496048	 0.100847
H	-2.1398664155	 0.0369742498	-0.0014130173	 0.111555
H	-1.4361198041	-0.9107302439	-1.3019094977	 0.116774
136.7875	180.1263	202.6633	215.7002	239.1375	321.5615	372.9319	433.5395	450.8427	517.024	611.1066	663.3462	725.8432	746.336	768.2014	878.1851	921.6831	948.969	961.977	974.4097	982.1303	1004.1483	1050.7613	1071.6862	1091.1361	1116.8327	1162.6331	1194.2136	1239.5476	1257.1471	1326.4384	1369.9102	1381.9384	1418.6527	1437.7561	1466.0834	1478.841	1499.0525	1501.7368	1672.7657	1788.8455	2871.5898	3012.3374	3029.2297	3042.4545	3085.8853	3121.9808	3130.6266	3184.2817	3209.9163	3218.5439
CC12CC1(C=O)C=CC2	C[C@@]12C[C@]1(C=O)C=CC2	
InChI=1S/C8H10O/c1-7-3-2-4-8(7,5-7)6-9/h2,4,6H,3,5H2,1H3	InChI=1S/C8H10O/c1-7-3-2-4-8(7,5-7)6-9/h2,4,6H,3,5H2,1H3/t7-,8+/m1/s1
