19
gdb 86283	2.04987	1.52497	1.27718	3.4253	76.36	-0.2428	0.0222	0.265	1114.0871	0.157594	-419.195668	-419.185989	-419.185045	-419.229748	35.553	
C	-0.0228194686	 1.4717760602	-0.1336334281	-0.342341
N	-0.0596425771	 0.0404907212	 0.094179966	-0.099491
C	-1.3197426358	-0.6073156332	 0.5043517919	-0.224042
C	-0.4852310884	-1.6528966838	 1.2804834603	 0.127113
O	-0.2222144688	-2.8449204523	 0.5989394406	-0.428681
C	 0.6838075527	-0.5800810593	 1.2197645881	 0.089001
C	 2.0969723622	-1.0513384877	 0.9004393826	-0.437599
C	 0.6711347168	 0.247171847	 2.4408006538	 0.259521
N	 0.6316672649	 0.922358029	 3.3795791452	-0.348127
H	 0.9993919339	 1.7851672377	-0.3672986942	 0.129771
H	-0.6513186017	 1.7094408214	-0.9976155656	 0.128085
H	-0.3779131282	 2.0588362148	 0.7293212958	 0.124703
H	-1.9421366421	 0.0086054831	 1.1721245788	 0.1114
H	-1.9367611508	-0.9823918211	-0.3194457699	 0.106895
H	-0.8213132131	-1.9231241786	 2.2806375982	 0.114557
H	-0.0596821024	-2.6299384534	-0.3269969157	 0.293316
H	 2.0713933163	-1.7561244325	 0.0679060215	 0.119988
H	 2.7308920005	-0.2035501207	 0.624833292	 0.134802
H	 2.5445692397	-1.5468743719	 1.7662520587	 0.14113
99.9796	131.1718	148.9718	171.5815	207.5858	233.3661	266.2022	305.8393	374.1984	401.0101	437.8583	469.9317	541.3502	607.4354	642.5254	711.6378	855.1293	874.3503	911.0129	968.6537	1017.8732	1100.6282	1116.4227	1141.7872	1162.2209	1173.17	1186.3406	1222.3459	1244.9548	1271.9069	1312.204	1321.8846	1406.0197	1437.5806	1451.4125	1477.5165	1484.7274	1487.1615	1501.6138	1515.6706	2334.5262	2974.3424	2985.5616	3051.3012	3064.1829	3070.6438	3107.7162	3122.7806	3130.4744	3143.2053	3797.8006
CN1CC(O)C1(C)C#N	CN1C[C@@H](O)[C@]1(C)C#N	
InChI=1S/C6H10N2O/c1-6(4-7)5(9)3-8(6)2/h5,9H,3H2,1-2H3	InChI=1S/C6H10N2O/c1-6(4-7)5(9)3-8(6)2/h5,9H,3H2,1-2H3/t5-,6+/m1/s1
