23
gdb 121239	2.76046	0.89945	0.73366	1.371	83.07	-0.2427	0.0789	0.3216	1628.0479	0.204246	-425.405462	-425.394979	-425.394035	-425.441798	37.659	
C	 0.323962066	 1.3935860264	-0.1904327016	-0.385375
C	-0.0035660845	-0.0005570802	 0.3171979154	-0.036102
O	-1.0830752371	-0.5135406603	-0.4406068377	-0.255554
C	-1.4562716399	-1.8191544397	-0.0857651638	 0.150312
C	-2.2488159442	-2.0565887992	 1.2323555725	-0.257981
C	-3.1787268407	-3.0142109417	 0.4344716828	-0.223856
C	-2.6476492426	-2.3957833802	-0.8915962681	-0.039513
C	-3.5663715058	-1.3348561316	-1.4781940904	-0.076365
O	-4.7184361592	-2.0064502684	-1.9752348397	-0.42709
H	 1.159966765	 1.8191617934	 0.3726948453	 0.113965
H	 0.5974936877	 1.3612961098	-1.2489146568	 0.125811
H	-0.5405025261	 2.0547379175	-0.0808410456	 0.124674
H	 0.8722350228	-0.6646560038	 0.2198186793	 0.084994
H	-0.2659827724	 0.0304336499	 1.3869372804	 0.090519
H	-0.5828905141	-2.4887757623	-0.1388417263	 0.063041
H	-1.7075138247	-2.4649186097	 2.0889198335	 0.092815
H	-2.7652744365	-1.143926431	 1.5431776493	 0.10624
H	-2.8928632995	-4.0625616453	 0.5484913062	 0.099444
H	-4.2536150395	-2.927236745	 0.600968736	 0.111514
H	-2.3883494383	-3.1043041997	-1.6829898839	 0.073268
H	-3.8386387875	-0.595760215	-0.7094383941	 0.084997
H	-3.0398967659	-0.7918211359	-2.2759015245	 0.096061
H	-5.310855343	-1.3458119579	-2.3451997781	 0.28418
63.2971	75.6649	92.2462	116.674	140.4489	222.8176	250.2319	260.8777	302.4028	346.2012	396.2754	479.2877	552.0188	700.5389	769.9603	819.7767	843.1022	886.0469	909.9462	929.8899	954.2805	967.0382	1055.7289	1065.6059	1082.1329	1097.1723	1142.8459	1166.5568	1173.7392	1187.1006	1197.0139	1235.2606	1245.21	1257.715	1259.3647	1292.3752	1295.2111	1310.8002	1360.2402	1373.3212	1402.9882	1438.6894	1458.1095	1480.7632	1484.0303	1496.408	1499.7487	1519.4821	1529.0178	2956.4333	2970.1679	2984.0586	2988.6258	3017.1406	3044.1916	3058.3801	3066.0736	3075.8506	3108.6277	3118.4127	3120.7619	3127.9999	3831.3438
CCOC1CCC1CO	CCO[C@H]1CC[C@H]1CO	
InChI=1S/C7H14O2/c1-2-9-7-4-3-6(7)5-8/h6-8H,2-5H2,1H3	InChI=1S/C7H14O2/c1-2-9-7-4-3-6(7)5-8/h6-8H,2-5H2,1H3/t6-,7-/m0/s1
