20
gdb 54271	2.84734	1.2713	1.13584	3.0195	74.62	-0.2401	0.0375	0.2776	1169.3361	0.171141	-440.340601	-440.331091	-440.330146	-440.375805	35.446	
N	-0.0168357644	 1.2778738388	 0.55320673	-0.528998
C	 0.0600129285	 0.1077542806	-0.1236956206	 0.364067
O	 1.0760708616	-0.3094815734	-0.6518303706	-0.390748
C	-1.2405425642	-0.7084238583	-0.1725186647	 0.314563
O	-2.2753594155	 0.0811716795	 0.4278533322	-0.504589
C	-1.6066981421	-1.1178137662	-1.6312753276	-0.251997
C	-1.9848351116	-2.623237215	-1.5895374146	-0.203109
C	-2.1143066066	-2.9683884408	-0.093237192	-0.225549
C	-1.0668118712	-2.0569471722	 0.5613125507	-0.242614
H	 0.8025503787	 1.8583668604	 0.609936946	 0.25825
H	-0.8929610779	 1.5757266934	 0.9456322197	 0.275279
H	-3.0449497868	-0.4789520279	 0.5656325865	 0.281867
H	-2.4344274681	-0.4859441801	-1.964417099	 0.102362
H	-0.758884427	-0.9400334224	-2.2942616128	 0.129912
H	-2.8928612634	-2.8463226267	-2.1560519117	 0.096044
H	-1.1789457298	-3.2193769272	-2.0296629575	 0.112477
H	-3.1219366881	-2.7267996211	 0.2748396184	 0.081884
H	-1.9526420528	-4.0282978485	 0.1206325192	 0.102403
H	-0.0610485243	-2.4332820179	 0.349759818	 0.130131
H	-1.1721461051	-1.9399829848	 1.6435638904	 0.098365
36.8061	42.812	168.4433	195.2258	232.2694	281.4061	294.2723	380.8322	387.8956	434.3006	526.2158	585.9465	619.3338	632.7215	733.4538	766.5668	805.0465	858.4988	887.4281	909.3414	948.6216	982.7035	1018.4224	1045.4592	1051.6207	1097.5708	1121.6195	1184.2754	1216.1591	1240.8736	1267.6721	1290.0017	1302.8111	1331.2269	1335.1995	1352.4983	1425.9943	1476.3842	1480.6276	1497.243	1512.6899	1591.7786	1790.3287	3002.7367	3051.0202	3055.4186	3067.618	3088.9854	3095.782	3108.961	3129.6408	3606.1066	3748.5542	3826.8889
NC(=O)C1(O)CCCC1	NC(=O)C1(O)CCCC1	
InChI=1S/C6H11NO2/c7-5(8)6(9)3-1-2-4-6/h9H,1-4H2,(H2,7,8)	InChI=1S/C6H11NO2/c7-5(8)6(9)3-1-2-4-6/h9H,1-4H2,(H2,7,8)
