15
gdb 124200	5.31241	0.80884	0.71235	6.7154	74.42	-0.2785	-0.0135	0.265	1522.9512	0.112473	-412.941723	-412.932973	-412.932029	-412.978569	28.993	
C	 0.2120849266	 1.3435179929	-0.7055667606	-0.499907
C	 0.0590376994	-0.0165972928	-0.2117844769	 0.11427
C	-0.0579028256	-1.143222322	 0.193917223	 0.017201
C	-0.1837188632	-2.4988345949	 0.7053057701	-0.28387
N	-1.3513787596	-3.1960219696	 0.1599956459	 0.026477
C	-2.4567589903	-2.7426035042	-0.4550899869	 0.079257
N	-3.2457645165	-3.7623184227	-0.7189017562	-0.232307
N	-2.5963653795	-4.857957946	-0.2454953258	-0.094026
N	-1.4626486185	-4.5351097473	 0.2836784777	-0.126715
H	 1.2523083972	 1.6740801405	-0.6171210796	 0.162513
H	-0.0702841516	 1.4127686872	-1.7612362339	 0.161405
H	-0.4119368486	 2.0449868186	-0.1422363743	 0.159052
H	 0.6924710206	-3.10326129	 0.4503438222	 0.175294
H	-0.2653208272	-2.4948939091	 1.798607162	 0.169653
H	-2.6335127033	-1.7068373705	-0.6878572067	 0.171702
14.1183	23.5647	77.3699	194.099	205.0871	255.1979	346.819	375.785	453.8864	663.9565	736.2421	748.4771	786.8973	874.8609	990.1176	991.6237	1046.9269	1051.6539	1054.1026	1116.6097	1164.4225	1182.6371	1200.4907	1264.7655	1308.5124	1366.1162	1414.3077	1459.5861	1474.0818	1476.4568	1484.8073	1522.0319	2381.1835	3035.0979	3040.4651	3082.6657	3100.1011	3100.3757	3304.2875
CC#CCN1C=NN=N1	CC#CCn1cnnn1	
InChI=1S/C5H6N4/c1-2-3-4-9-5-6-7-8-9/h5H,4H2,1H3	InChI=1S/C5H6N4/c1-2-3-4-9-5-6-7-8-9/h5H,4H2,1H3
