15
gdb 46009	4.92166	0.99293	0.83464	0.8022	75.07	-0.2603	-0.0525	0.2078	1276.1693	0.114431	-416.871795	-416.863786	-416.862842	-416.905259	28.819	
O	 0.0086844711	-0.0349150823	 0.4094326035	-0.369041
C	-0.0216054149	 1.1539926671	 0.1611550245	 0.401795
C	-1.3380067417	 1.876073093	-0.0948901521	-0.377491
C	-1.2361460239	 3.3364726803	-0.3883897262	-0.133267
C	-0.0707659563	 3.9916023175	-0.4293499657	 0.155906
C	 1.2577347564	 3.321807102	-0.1833620915	-0.238078
N	 1.1152196918	 1.9075913888	 0.0975419376	-0.330552
C	-0.0149003251	 5.3900122211	-0.7138001771	 0.225048
N	 0.067834153	 6.5225411436	-0.9411286912	-0.325315
H	-1.8414551544	 1.3520853375	-0.9176341084	 0.159477
H	-1.9791329818	 1.7026672557	 0.7790753236	 0.159477
H	-2.1584958199	 3.878308582	-0.5750819049	 0.128764
H	 1.901268096	 3.4722513712	-1.062356366	 0.143662
H	 1.7624878055	 3.8269190357	 0.6529830265	 0.143664
H	 1.9591287143	 1.3814559967	 0.2747908675	 0.25595
47.1105	105.6363	152.7082	170.4105	368.3437	390.8668	443.2218	504.8934	528.3039	561.0705	613.8208	651.3054	698.8531	771.6161	865.9531	936.8366	989.6156	1018.5542	1028.9902	1114.7694	1168.7678	1206.0593	1254.0418	1298.7762	1337.5962	1393.9246	1401.1071	1440.4644	1492.454	1527.0935	1719.4704	1799.6609	2341.3356	2995.433	3013.534	3033.4387	3056.0683	3179.7024	3607.7777
O=C1CC=C(CN1)C#N	O=C1CC=C(CN1)C#N	
InChI=1S/C6H6N2O/c7-3-5-1-2-6(9)8-4-5/h1H,2,4H2,(H,8,9)	InChI=1S/C6H6N2O/c7-3-5-1-2-6(9)8-4-5/h1H,2,4H2,(H,8,9)
