15
gdb 78416	3.3902	1.35434	1.222	3.8962	63.82	-0.2575	0.0022	0.2597	1016.8744	0.112652	-457.729209	-457.722153	-457.721209	-457.760688	27.634	
O	-0.0107778044	 1.2816903997	-0.0881325682	-0.434685
C	-0.0290950481	-0.1126206187	-0.038192814	 0.073532
C	-0.46987844	-0.7082933399	 1.2826253405	-0.120837
C	-1.4114690718	-0.6621053262	 0.0590262983	-0.073066
C	-1.4346621224	-2.2141531345	 0.0179993955	-0.247472
C	-0.5003953027	-2.242319339	 1.2334213981	 0.09052
O	 0.5476373099	-2.8938093432	 0.4302688482	-0.26765
C	-0.2675287317	-2.9218849564	-0.6906291832	 0.444833
O	-0.0104604995	-3.3858640792	-1.7526956058	-0.320045
H	 0.8165134572	 1.5829217534	 0.3023650524	 0.293733
H	 0.7312154273	-0.6067836999	-0.6418730181	 0.119487
H	-0.4820132064	-0.1041862205	 2.1806680083	 0.100965
H	-2.2715711525	-0.0310369192	-0.1183660588	 0.116782
H	-2.4103160744	-2.6934490833	-0.0076144074	 0.115234
H	-0.6984978903	-2.793241283	 2.1502808543	 0.108671
119.1471	201.3038	265.5799	293.3052	339.6184	404.2268	468.0748	553.7803	692.2456	752.3255	769.8076	810.3383	831.3721	853.8684	892.234	909.5035	971.7177	974.2668	1012.482	1037.5117	1083.0509	1092.938	1121.4285	1158.5452	1179.0892	1217.4628	1231.7729	1255.2779	1295.6277	1307.2945	1332.3701	1459.7943	1935.2614	3109.3909	3141.7961	3153.8495	3198.4486	3214.3793	3808.0645
OC1C2C1C1C2OC1=O	O[C@H]1[C@H]2[C@@H]1[C@@H]1[C@H]2OC1=O	
InChI=1S/C6H6O3/c7-4-1-2(4)5-3(1)6(8)9-5/h1-5,7H	InChI=1S/C6H6O3/c7-4-1-2(4)5-3(1)6(8)9-5/h1-5,7H/t1-,2-,3-,4-,5+/m1/s1
