15
gdb 98133	4.84487	0.88013	0.74834	3.2143	65.93	-0.2624	-0.0635	0.1989	1437.0337	0.111909	-491.139917	-491.130781	-491.129837	-491.174693	31.034	
C	-0.1042077862	 1.3126651066	 0.1961926553	-0.244128
O	-0.0673193217	-0.1215450128	 0.1270606464	-0.201776
C	 0.5061421949	-0.6240740464	-0.9548775272	 0.465972
O	 0.9849621541	 0.0272790284	-1.8586317631	-0.39287
C	 0.5147959445	-2.1426021701	-0.970245437	 0.234998
N	 0.014456346	-2.8219278716	-0.0257195806	-0.478807
N	 1.136476735	-2.5950853648	-2.1424003392	-0.336345
C	 1.3285470362	-3.9034414195	-2.5010247513	 0.166734
O	 0.9842760806	-4.8654963006	-1.8505197864	-0.299677
H	 0.9090484966	 1.721216412	 0.1826389872	 0.14744
H	-0.6636784779	 1.7207931205	-0.6489299666	 0.147419
H	-0.6014985468	 1.5458258566	 1.1365143133	 0.147978
H	 0.1176610129	-3.820730659	-0.2193429961	 0.262146
H	 1.4608482798	-1.8558015394	-2.7539386942	 0.277727
H	 1.8455955521	-3.98859335	-3.4746371606	 0.103191
61.4863	93.1091	124.6984	157.6246	163.6483	259.4137	264.1303	323.2668	360.8664	504.9677	517.5226	617.0004	706.8663	824.1471	837.747	935.6325	968.8921	992.5414	1029.5178	1065.3615	1177.8922	1181.8706	1210.0668	1279.285	1369.1357	1435.5454	1477.3983	1483.7023	1493.4746	1523.931	1721.6839	1785.0144	1807.7745	2966.6351	3056.5327	3133.1858	3172.1004	3465.2298	3573.5922
COC(=O)C(=N)NC=O	COC(=O)C(=N)NC=O	
InChI=1S/C4H6N2O3/c1-9-4(8)3(5)6-2-7/h2H,1H3,(H2,5,6,7)	InChI=1S/C4H6N2O3/c1-9-4(8)3(5)6-2-7/h2H,1H3,(H2,5,6,7)
