18
gdb 90912	3.499	1.54616	1.45479	1.7879	76.95	-0.2223	-0.0011	0.2211	956.2201	0.148502	-401.822894	-401.816045	-401.815101	-401.853643	29.279	
O	 0.3689778732	 1.3151733896	-0.2698923831	-0.429666
C	 0.1450227017	-0.04174085	-0.030707167	 0.074846
C	 0.2115238765	-0.4561399393	 1.5103458879	-0.239138
N	-1.2484147993	-0.1267986389	 1.536280037	-0.098478
C	-2.5852977619	-0.8378705764	 1.6541340469	-0.08186
C	-2.8763242394	-0.1119977322	 0.2487709659	-0.281453
C	-1.3446915004	-0.5064085825	 0.1289371483	 0.185422
C	-1.4952897064	-2.0675957551	 0.1421421168	-0.137715
C	-2.318025777	-2.2677412686	 1.1703828742	-0.070794
H	-0.1994647482	 1.7943479671	 0.3467112557	 0.287128
H	 0.7718136447	-0.6039611101	-0.7264530273	 0.086715
H	 0.4663058188	-1.5163443585	 1.6314662709	 0.107029
H	 0.8232317931	 0.1692996916	 2.1650431452	 0.104171
H	-3.1947978005	-0.6588157566	 2.5397836765	 0.076145
H	-3.5989412754	-0.5963547987	-0.4100017861	 0.101437
H	-3.0497033827	 0.9614435744	 0.346262004	 0.107072
H	-1.0602659677	-2.7645538215	-0.560762986	 0.100921
H	-2.7417586989	-3.1763423743	 1.5734849401	 0.108216
154.6122	233.8277	351.5673	390.0467	450.7462	479.5697	499.439	539.0468	636.734	664.0096	725.5384	752.7779	785.8063	800.9734	866.4479	885.4922	898.0067	907.6849	944.9724	962.1191	1025.2215	1043.0045	1051.3588	1075.4088	1098.1255	1120.8911	1145.3649	1163.8075	1189.1214	1207.3863	1209.8526	1249.8325	1258.8213	1294.3437	1300.7052	1436.4534	1475.196	1480.6114	1619.6637	3024.7694	3071.5841	3095.1094	3106.4699	3122.2592	3150.5727	3217.9961	3246.9233	3774.5203
OC1CN2C3CC12C=C3	O[C@H]1CN2[C@H]3C[C@@]12C=C3	
InChI=1S/C7H9NO/c9-6-4-8-5-1-2-7(6,8)3-5/h1-2,5-6,9H,3-4H2	InChI=1S/C7H9NO/c9-6-4-8-5-1-2-7(6,8)3-5/h1-2,5-6,9H,3-4H2/t5-,6+,7+/m1/s1
