23
gdb 60253	2.96759	1.01926	0.85787	2.2244	82.79	-0.2485	0.0667	0.3152	1460.9602	0.203729	-425.415377	-425.405087	-425.404143	-425.451508	38.133	
C	-0.3009218514	 1.5135318725	 0.1203235391	-0.396823
C	-0.1259528773	 0.0164134249	-0.1032932745	 0.134661
C	 1.1745811562	-0.5158832042	 0.4989572782	-0.382711
O	-1.256991696	-0.6324685938	 0.5039357259	-0.280265
C	-1.6241340733	-1.8616002486	-0.075970853	 0.107226
C	-2.6513978018	-2.6720515599	 0.7420161769	-0.262281
C	-3.4402950772	-2.930751059	-0.5735253068	-0.240936
C	-2.667082014	-1.7604542895	-1.2432722265	 0.119988
O	-3.3577227907	-0.5322282834	-1.1990780849	-0.452694
H	 0.544950699	 2.0672743436	-0.2975377666	 0.117402
H	-1.2165697278	 1.8713343525	-0.3589392134	 0.123544
H	-0.3623312621	 1.7319763027	 1.1911357124	 0.126513
H	-0.1395523898	-0.1877440343	-1.1839769666	 0.081895
H	 1.2687195544	-1.5968228518	 0.3590958227	 0.118343
H	 2.0402302309	-0.0411984324	 0.0261315497	 0.116325
H	 1.2063154546	-0.3065456652	 1.5727772802	 0.125035
H	-0.7456504359	-2.4558626595	-0.3545095964	 0.071866
H	-2.2797407942	-3.5312422634	 1.3038702139	 0.098733
H	-3.1951436326	-2.012319827	 1.4223283885	 0.115988
H	-3.2018150319	-3.8975168235	-1.0259637241	 0.096536
H	-4.523621502	-2.8063446544	-0.5390996303	 0.110488
H	-2.306257956	-1.9337622579	-2.263759196	 0.06275
H	-2.9485895611	-0.0252345386	-0.4830291985	 0.288419
40.0119	52.4317	88.7036	182.8681	215.8024	238.1642	268.9889	303.7071	368.0706	410.7833	441.2835	450.1244	465.2496	621.1775	695.166	751.7409	830.8632	854.8659	900.1462	925.8309	930.1972	938.7697	946.902	980.7353	1038.3227	1103.5888	1133.5251	1145.1575	1153.0576	1162.0072	1185.326	1210.5914	1243.2503	1257.6633	1259.9898	1286.0382	1346.1872	1361.4949	1368.0511	1397.796	1409.7338	1417.3409	1422.4156	1469.2637	1481.9436	1483.7688	1489.8157	1495.1091	1507.8768	2995.5235	3022.7123	3034.6869	3037.7537	3041.6378	3064.3027	3071.0349	3108.5423	3111.9948	3116.8913	3118.7682	3119.4289	3133.2846	3718.3734
CC(C)OC1CCC1O	CC(C)O[C@H]1CC[C@H]1O	
InChI=1S/C7H14O2/c1-5(2)9-7-4-3-6(7)8/h5-8H,3-4H2,1-2H3	InChI=1S/C7H14O2/c1-5(2)9-7-4-3-6(7)8/h5-8H,3-4H2,1-2H3/t6-,7+/m1/s1
