22
gdb 59804	3.02832	1.01597	0.93641	2.0705	85.49	-0.2414	0.0286	0.2699	1417.6164	0.192808	-404.355907	-404.345743	-404.344799	-404.391316	36.98	
C	 1.2076577539	 0.4003496393	-0.3685562438	-0.388653
C	-0.1594009968	 0.4968346329	 0.3246361412	 0.056134
C	-1.2834669067	-0.1104982155	-0.5275720258	-0.388584
N	-0.1280167142	-0.0701542587	 1.680060676	-0.34264
C	 0.1048370327	-1.2775138102	 1.8928160327	 0.466263
O	 0.3761892113	-2.3335358069	 1.0246125266	-0.272387
C	 0.5590570551	-3.2553226842	 2.1410711132	-0.092139
C	 0.2258561795	-2.1282251404	 3.1462826751	-0.138779
C	 1.2863050353	-1.7119587063	 4.1576559731	-0.40279
H	 1.4717512582	-0.6417311014	-0.5683253493	 0.13072
H	 1.1901305629	 0.9420639605	-1.3201291051	 0.106735
H	 1.9884299997	 0.8402142392	 0.2592798117	 0.113227
H	-0.3866090872	 1.5609942398	 0.4613927773	 0.077464
H	-1.0899407937	-1.1663203338	-0.736123391	 0.131137
H	-2.2438365217	-0.0316331521	-0.0092429493	 0.113889
H	-1.3662840107	 0.4215229173	-1.4811309177	 0.106615
H	-0.1444809851	-4.0893778974	 2.0814248741	 0.117676
H	 1.5870992107	-3.6280021195	 2.1735868667	 0.116306
H	-0.741457596	-2.2703765952	 3.6371407379	 0.105398
H	 2.2634082789	-1.5939964975	 3.678280411	 0.123521
H	 1.0179399635	-0.7537227429	 4.6107419231	 0.14249
H	 1.3830578305	-2.4546601869	 4.9559224522	 0.118396
49.6305	98.8866	132.1871	144.9572	201.7938	224.3384	241.675	264.5197	325.6885	355.14	420.2515	475.8664	567.3901	677.4948	723.08	794.3015	848.9247	890.4821	923.5169	932.8476	954.4678	957.3645	973.7133	1058.2826	1112.5877	1120.6439	1139.6977	1152.9887	1176.42	1190.4385	1195.2231	1254.1959	1325.4858	1364.9483	1370.6715	1385.3573	1392.0272	1410.4861	1412.5268	1485.0109	1494.432	1495.0197	1496.1069	1497.0191	1514.3176	1518.0333	1841.7292	3022.0988	3034.9736	3037.7878	3038.9874	3053.8228	3067.3061	3103.6891	3106.7655	3107.1423	3113.3479	3119.7004	3120.2869	3124.7209
CC(C)N=C1OCC1C	CC(C)N=C1OC[C@H]1C	
InChI=1S/C7H13NO/c1-5(2)8-7-6(3)4-9-7/h5-6H,4H2,1-3H3	InChI=1S/C7H13NO/c1-5(2)8-7-6(3)4-9-7/h5-6H,4H2,1-3H3/t6-/m1/s1
