19
gdb 53443	4.22666	0.84188	0.75567	0.9609	87.4	-0.2396	0.0178	0.2575	1565.2613	0.158843	-385.867723	-385.85852	-385.857576	-385.90355	33.034	
C	 0.008249944	 1.477967839	 0.0172293928	-0.500459
C	 0.0005395759	 0.0226166653	 0.0141872788	 0.109912
C	 0.0041428493	-1.1805367692	 0.0234282111	 0.031946
C	-0.0222630541	-2.6429069268	-0.0049261288	-0.077266
O	 0.7938202294	-3.12858253	 1.0566552083	-0.26449
C	 0.6367220789	-4.5225636826	 1.26762178	-0.066964
C	-0.7722149811	-4.8503561778	 1.7651382427	-0.254343
C	-1.7866226676	-4.1569289955	 0.8953194114	-0.074376
C	-1.4445101378	-3.1687053618	 0.0744513044	-0.061419
H	 0.6790616841	 1.863470902	 0.7928072052	 0.153317
H	 0.3493144621	 1.8778550364	-0.9440273249	 0.147833
H	-0.990844322	 1.8830427233	 0.211965411	 0.148039
H	 0.4137534219	-2.9744805059	-0.9680914999	 0.097392
H	 0.8386481757	-5.075233224	 0.3348673535	 0.089563
H	 1.3997163453	-4.8038860729	 1.9984896385	 0.106281
H	-0.9298231264	-5.9363642831	 1.7478915636	 0.102895
H	-0.8884990153	-4.5373766212	 2.8115646698	 0.118459
H	-2.819268683	-4.4923769947	 0.94492829	 0.092019
H	-2.1653683294	-2.6859527604	-0.5776875975	 0.101662
18.4475	64.8095	91.4741	166.6199	278.7191	287.3322	321.955	382.6968	414.6762	475.5563	533.8435	591.2745	656.9039	777.6554	837.7587	869.6071	912.8497	950.2023	996.3658	998.978	1051.2207	1054.5068	1062.582	1085.7684	1103.8081	1172.8884	1208.1906	1234.2549	1285.611	1306.4592	1350.9206	1366.0786	1387.9487	1413.7339	1422.7102	1469.6066	1476.8728	1478.8234	1497.3735	1724.378	2377.3474	2898.3513	2967.6558	3015.4448	3027.5091	3049.1669	3088.014	3088.7435	3090.1846	3154.252	3186.0801
CC#CC1OCCC=C1	CC#C[C@H]1OCCC=C1	
InChI=1S/C8H10O/c1-2-5-8-6-3-4-7-9-8/h3,6,8H,4,7H2,1H3	InChI=1S/C8H10O/c1-2-5-8-6-3-4-7-9-8/h3,6,8H,4,7H2,1H3/t8-/m1/s1
