17
gdb 43819	3.13161	1.57684	1.22422	4.1384	74.52	-0.2506	0.0287	0.2792	1028.7131	0.137031	-417.980055	-417.972785	-417.971841	-418.011828	28.879	
N	-0.0619184315	 1.2164370222	 0.4384291141	-0.542363
C	-0.0258039998	 0.0348435501	 0.0085293426	 0.416267
O	 1.1122333717	-0.6280423744	-0.3950582056	-0.27301
C	 0.7641951567	-1.8799521472	-0.9683418776	 0.438084
C	 1.3860883822	-2.2463866968	-2.2801735923	-0.33311
C	 1.8155582918	-2.941226629	-0.9968160758	-0.333361
C	-0.6891241767	-2.0756737249	-0.6545181096	-0.120714
C	-1.095551803	-1.983171105	 0.7660764989	-0.256369
N	-1.1800479373	-0.7911817031	-0.1195293264	-0.130312
H	 0.8738730156	 1.6212508576	 0.4332257499	 0.227929
H	 0.7869997537	-2.7980694005	-2.9973703803	 0.123307
H	 2.0746963687	-1.5294807157	-2.7121383594	 0.135188
H	 2.7863340034	-2.6802207719	-0.5910928403	 0.135063
H	 1.5125301901	-3.9693054377	-0.8305476426	 0.125461
H	-1.3167159357	-2.5726735758	-1.3869758987	 0.114535
H	-2.0613072273	-2.3634576749	 1.0807346983	 0.134768
H	-0.3186178626	-1.991683453	 1.5253787449	 0.138639
85.8475	171.8928	253.6077	276.2538	361.3228	454.9479	498.6747	541.1228	679.1419	740.3684	745.4663	772.9379	810.1371	853.8042	875.0839	896.2888	923.768	939.8036	965.7925	998.1947	1035.4989	1052.7933	1069.142	1077.6161	1085.0696	1110.3837	1160.6517	1187.7806	1219.9335	1264.1162	1308.7751	1336.0576	1420.3342	1450.8791	1501.1989	1503.7235	1787.1553	3122.315	3133.4443	3137.4983	3165.7515	3217.7289	3220.5592	3234.0629	3502.5377
N=C1OC2(CC2)C2CN12	[NH][C]1OC2(CC2)[C@H]2CN12	
InChI=1S/C6H8N2O/c7-5-8-3-4(8)6(9-5)1-2-6/h4,7H,1-3H2	InChI=1S/C6H8N2O/c7-5-8-3-4(8)6(9-5)1-2-6/h4,7H,1-3H2/t4-,8?/m1/s1
