20
gdb 8317	5.36917	0.94352	0.93544	1.2168	72.38	-0.2439	0.0799	0.3238	1347.2419	0.17546	-386.116522	-386.107354	-386.10641	-386.151262	32.243	
C	-0.5187922271	 1.3782715101	 0.230369894	-0.223058
O	-0.5788939478	-0.0050250264	 0.4815143346	-0.235316
C	-0.7081364631	-0.7735812121	-0.6925300645	-0.073167
C	-0.7468226569	-2.2353024912	-0.2885428007	 0.137356
C	-2.0471720854	-2.7948245772	 0.3197684245	-0.306493
C	-1.9996360215	-3.7941021362	-0.8579493908	 0.175192
C	-3.1814243348	-3.8779109789	-1.801135158	-0.397389
O	-0.8672746212	-3.0950005954	-1.44219539	-0.317705
H	-0.4179207925	 1.8829017933	 1.194404998	 0.126761
H	 0.3446189386	 1.6409608849	-0.4012323253	 0.105509
H	-1.4304646576	 1.7435315019	-0.2687175219	 0.103783
H	-1.6288462814	-0.511892093	-1.2411969378	 0.083505
H	 0.1408552854	-0.6051708037	-1.3770912646	 0.093849
H	 0.1521720891	-2.4700710946	 0.2974646754	 0.079763
H	-1.9776659492	-3.2144586478	 1.3236310735	 0.109042
H	-2.8875185725	-2.0972171851	 0.2768586669	 0.106317
H	-1.6948229404	-4.8036903676	-0.5470231446	 0.072733
H	-3.5088515093	-2.8792126279	-2.1063204027	 0.116753
H	-2.9143770001	-4.4416331302	-2.7007821079	 0.126909
H	-4.0211232821	-4.3877391528	-1.3156817082	 0.115656
46.5372	78.5828	90.7205	172.8798	225.4162	230.3606	323.1083	340.4423	395.4384	427.4339	480.8748	712.4645	828.8989	891.2219	900.9367	924.4527	965.3975	990.2594	1043.3705	1084.1013	1104.3239	1147.228	1156.0068	1172.7099	1188.981	1202.5136	1226.4134	1250.605	1253.9851	1276.1127	1325.3977	1369.6401	1391.499	1406.1194	1431.5943	1480.0063	1481.8934	1484.8033	1490.7159	1495.5467	1504.3483	1526.269	2951.9748	2971.7347	2982.958	2995.8709	3013.5521	3016.6492	3031.8142	3071.8707	3103.9033	3111.052	3113.0776	3134.155
COCC1CC(C)O1	COC[C@H]1C[C@@H](C)O1	
InChI=1S/C6H12O2/c1-5-3-6(8-5)4-7-2/h5-6H,3-4H2,1-2H3	InChI=1S/C6H12O2/c1-5-3-6(8-5)4-7-2/h5-6H,3-4H2,1-2H3/t5-,6-/m1/s1
