15
gdb 16196	3.27874	2.33895	1.52862	2.1799	67.83	-0.2432	-0.0295	0.2137	815.7862	0.119988	-362.668241	-362.661556	-362.660612	-362.699047	25.697	
O	 0.1003681698	 0.0560711709	-0.1265816351	-0.33083
C	 0.0264209399	 1.2554686045	-0.0134987085	 0.335525
C	-1.2441099753	 2.10931663	 0.0723117436	-0.383918
C	-0.7088947573	 3.5196273103	 0.0088496136	-0.098274
C	 0.6262330885	 3.5610358649	-0.0375474563	-0.141623
C	 1.2044657728	 2.1985024058	 0.0119276395	 0.23302
C	 2.4360658091	 1.766121404	 0.7490418826	-0.272147
N	 2.4360410694	 1.8158977942	-0.7071196413	-0.354331
H	-1.9325634561	 1.8561113681	-0.7429459339	 0.141956
H	-1.7797469254	 1.8881447641	 1.005072036	 0.142035
H	-1.3583001556	 4.3866933618	 0.0035721805	 0.107584
H	 1.2364106438	 4.4536070863	-0.0942550689	 0.113633
H	 3.0405884906	 2.5237001432	 1.2402812431	 0.126676
H	 2.394429283	 0.7979979052	 1.2416559197	 0.13345
H	 2.290734793	 0.8721708867	-1.0691617449	 0.247243
103.1701	238.177	247.2585	258.3238	453.5193	472.6964	569.8833	622.6919	668.1979	727.218	774.8508	845.5029	891.4524	947.3687	966.062	970.6627	982.6646	1003.0615	1055.0617	1100.0979	1131.3965	1142.1358	1154.4584	1273.6879	1281.9618	1322.6626	1328.7279	1425.5183	1441.3671	1494.4556	1664.0405	1834.4203	3029.4187	3062.3337	3105.8017	3198.9573	3200.7186	3223.2477	3455.3775
O=C1CC=CC11CN1	O=C1CC=C[C@]21CN2	
InChI=1S/C6H7NO/c8-5-2-1-3-6(5)4-7-6/h1,3,7H,2,4H2	InChI=1S/C6H7NO/c8-5-2-1-3-6(5)4-7-6/h1,3,7H,2,4H2/t6-/m1/s1
