18
gdb 95666	3.17888	1.29032	1.01294	3.2789	79.03	-0.2476	-0.0346	0.213	1190.2855	0.148716	-439.098302	-439.090106	-439.089162	-439.13136	31.021	
C	 1.0729304734	 1.416040072	 0.013895458	-0.396879
C	 0.0223519189	 0.3142064233	-0.1356994276	 0.065243
O	 0.4232014336	-0.4772045632	-1.2478510907	-0.2394
C	-0.3396697667	-1.6146389122	-1.4721142759	-0.002343
O	 0.2108221479	-2.7745695114	-0.8708118516	-0.246044
C	 0.2335685355	-2.9023672871	 0.4888884905	 0.356562
N	 0.523993181	-4.0214857643	 1.0224177432	-0.510567
C	-0.0681010795	-1.7683891784	 1.3796004171	-0.104606
C	-0.1598467257	-0.4564735311	 1.1397222085	-0.087717
H	 2.0443866516	 0.9793351934	 0.2595660921	 0.138548
H	 1.1631252831	 1.9676534158	-0.9249926414	 0.132056
H	 0.7891274705	 2.113904485	 0.806138412	 0.121194
H	-0.9466148918	 0.7918644811	-0.372941824	 0.08881
H	-1.3785275867	-1.4734547253	-1.1405823119	 0.102991
H	-0.3110935607	-1.8298244934	-2.5420773048	 0.126443
H	 0.7081114147	-4.712794263	 0.292255128	 0.221478
H	-0.204545276	-2.1129825673	 2.3989595387	 0.12566
H	-0.4014544031	 0.1819440061	 1.9880927899	 0.108569
64.1999	113.8538	227.4849	254.3502	305.1258	311.4446	365.1949	420.4975	488.9623	523.5527	663.3958	674.102	752.9753	798.1331	830.1518	850.8021	908.4722	923.7692	1019.1718	1024.3627	1040.901	1090.7357	1109.1061	1142.2727	1164.2837	1211.5196	1251.5373	1318.1643	1334.63	1356.1663	1382.9968	1402.321	1425.0418	1463.9107	1483.9924	1497.6323	1509.3483	1684.3578	1729.3563	2927.4441	3001.7141	3050.2807	3114.3563	3128.8559	3133.6213	3142.6255	3195.0055	3466.4132
CC1OCOC(=N)C=C1	C[C@H]1OCOC(=C[CH]1)[NH]	
InChI=1S/C6H9NO2/c1-5-2-3-6(7)9-4-8-5/h2-3,5,7H,4H2,1H3	InChI=1S/C6H9NO2/c1-5-2-3-6(7)9-4-8-5/h2-3,5,7H,4H2,1H3/t5-/m1/s1
