19
gdb 92126	2.48788	1.80555	1.27657	3.0093	74.65	-0.2477	0.0582	0.3059	1024.0531	0.159855	-422.975087	-422.967478	-422.966534	-423.006996	30.833	
O	 0.0805826028	 0.7995852952	-1.0855699009	-0.443218
C	-0.0618035862	-0.2151533477	-0.1347682198	 0.170412
C	 0.1016474264	 0.0852870771	 1.3924703749	-0.286714
C	-1.1704240712	-0.7628537727	 1.6932602456	-0.022338
C	-2.446525256	 0.0846704688	 1.9236278554	-0.313348
C	-2.560248605	 0.233633185	 0.4024652464	 0.430393
C	-3.6727678547	 0.6616532842	-0.4439612604	-0.267374
O	-2.5405213033	 1.5214364704	-0.2347021097	-0.279672
C	-1.4648927794	-0.8120755734	 0.1416545942	-0.181516
H	-0.6878900528	 1.3800078977	-0.9993699879	 0.294901
H	 0.6253577975	-1.0159763837	-0.4278344935	 0.086233
H	 1.0329191335	-0.2678313224	 1.8401321262	 0.102052
H	-0.0183096045	 1.1453419864	 1.635226887	 0.105411
H	-1.0344304828	-1.6612922978	 2.2928374862	 0.070087
H	-3.2755780649	-0.4958039234	 2.3410117606	 0.108062
H	-2.3380176858	 1.0132211288	 2.4911938661	 0.11318
H	-3.771965153	 0.2584849288	-1.4507450076	 0.12369
H	-4.5980107048	 1.0099624929	 0.0128273123	 0.121299
H	-1.7761440156	-1.7022791241	-0.4077081651	 0.06846
86.6822	181.8219	264.9245	334.0456	342.2794	388.8995	418.8711	497.4409	514.7941	633.3573	638.3118	761.3617	781.9201	823.4595	841.6679	866.5965	925.0016	941.0933	963.2143	994.7096	1016.9941	1061.229	1090.5281	1118.335	1124.6391	1142.813	1160.0312	1173.3676	1191.2619	1215.6034	1224.0435	1257.3043	1272.4822	1300.2196	1307.6663	1349.8633	1425.611	1463.9363	1470.4783	1484.9644	1527.3288	3046.61	3048.3792	3058.1372	3084.2472	3092.5913	3101.831	3111.9469	3127.8563	3172.9626	3744.5469
OC1CC2CC3(CO3)C12	O[C@H]1C[C@H]2C[C@]3(CO3)[C@@H]12	
InChI=1S/C7H10O2/c8-5-1-4-2-7(3-9-7)6(4)5/h4-6,8H,1-3H2	InChI=1S/C7H10O2/c8-5-1-4-2-7(3-9-7)6(4)5/h4-6,8H,1-3H2/t4-,5-,6+,7-/m0/s1
