17
gdb 77664	2.1942	1.38467	1.26383	3.8703	72.05	-0.2346	-0.0221	0.2126	1095.9511	0.134035	-458.938227	-458.929451	-458.928507	-458.971437	32.859	
O	-0.2674890681	 1.4514931081	-0.0960838361	-0.41868
C	-0.1553667929	 0.0639402436	 0.0314729195	 0.008413
C	-0.4484254043	-0.6742843264	 1.2748205499	 0.286685
O	 0.4794686986	-1.5582226035	 1.7585283168	-0.434687
C	-1.5991296752	-0.0691731139	 2.0714281552	-0.292592
C	-2.5166404984	-0.0967339698	 0.8110205011	-0.286458
C	-1.4203991598	-0.7522579877	-0.0264576773	 0.138499
C	-1.6165646422	-1.8577677438	-0.9616053698	 0.055136
O	-2.687694975	-2.3754782409	-1.1930265206	-0.2799
H	 0.4749235562	 1.8556519866	 0.3662553601	 0.292789
H	 0.6630675782	-0.3887718995	-0.5337212257	 0.103599
H	 0.0304025715	-2.2153289366	 2.3033597264	 0.296352
H	-1.9546498887	-0.7481697799	 2.8518736029	 0.104516
H	-1.3932855657	 0.9060082763	 2.5224285456	 0.110389
H	-3.3800634194	-0.7530932563	 0.9205133259	 0.128134
H	-2.8429945379	 0.8805310276	 0.4519298442	 0.123057
H	-0.683385567	-2.2281199639	-1.4448621781	 0.064749
91.5008	167.8814	196.9602	213.0161	250.2889	259.9549	294.5112	363.3576	422.6934	480.5944	525.9596	568.8576	606.4494	716.4439	793.9402	800.7129	813.892	955.2435	1002.8911	1037.5197	1062.007	1076.9494	1105.4677	1153.3258	1206.6713	1230.5288	1248.893	1252.8571	1265.2649	1321.4052	1354.2028	1389.8021	1429.9862	1469.6307	1483.0622	1518.6155	1782.4322	2863.6232	3050.5427	3085.622	3086.7754	3097.966	3144.865	3786.9556	3804.5807
OC1C2(O)CCC12C=O	O[C@H]1[C@@]2(O)CC[C@@]12C=O	
InChI=1S/C6H8O3/c7-3-5-1-2-6(5,9)4(5)8/h3-4,8-9H,1-2H2	InChI=1S/C6H8O3/c7-3-5-1-2-6(5,9)4(5)8/h3-4,8-9H,1-2H2/t4-,5-,6+/m1/s1
