19
gdb 120233	3.00662	1.03869	0.86573	2.649	75.89	-0.2416	-0.03	0.2116	1388.3686	0.157404	-423.003407	-422.994388	-422.993443	-423.037976	32.772	
C	 0.0114768141	 1.5815122998	 0.0203914521	-0.382068
C	 0.1215411886	 0.0548980976	 0.014623537	-0.168349
C	 0.5810509378	-0.4995917686	-1.3407303162	-0.196694
C	 0.7301878832	-2.0184417519	-1.3385821098	-0.156179
C	 1.4026721505	-2.7051032364	-2.5422214715	 0.010561
O	 2.7382775391	-2.216750063	-2.5956673647	-0.232244
C	 2.4644246063	-3.3342916277	-1.7180410716	-0.110698
C	 1.8508374609	-2.6924103212	-0.4746620101	 0.418615
O	 2.0571669667	-2.7701468278	 0.6994410785	-0.30269
H	 0.9778410263	 2.0482688414	-0.2000303123	 0.117281
H	-0.7035316056	 1.931671965	-0.7327382408	 0.111598
H	-0.3223898655	 1.9520239093	 0.9943860892	 0.114316
H	 0.8187625178	-0.2736359225	 0.7935730467	 0.124744
H	-0.8506715034	-0.3849799984	 0.2742929345	 0.092955
H	-0.1379625853	-0.2109605894	-2.1197733558	 0.095872
H	 1.5417294979	-0.0537360754	-1.6216961816	 0.115595
H	-0.2168101327	-2.5092172345	-1.074337816	 0.103295
H	 0.9600838901	-3.0794623332	-3.45730653	 0.118846
H	 3.0485515332	-4.2361615731	-1.8555045378	 0.125243
73.7465	78.0103	100.2997	172.177	221.0803	246.6215	283.3953	373.5932	465.2317	547.3212	646.463	741.7058	746.624	780.6611	842.1083	851.9105	899.1529	905.3299	925.9221	960.8504	1018.8558	1044.9112	1056.7023	1079.4803	1115.2883	1148.0496	1194.4176	1211.9007	1246.7684	1260.038	1295.5617	1329.8665	1349.4071	1356.8147	1395.5751	1410.1451	1488.3835	1496.088	1498.6324	1512.5653	1895.1831	3012.1423	3020.0393	3026.1058	3029.1014	3060.9569	3076.1571	3098.2792	3103.9936	3192.6514	3205.9448
CCCC1C2OC2C1=O	CCC[C@H]1[C@H]2O[C@H]2C1=O	
InChI=1S/C7H10O2/c1-2-3-4-5(8)7-6(4)9-7/h4,6-7H,2-3H2,1H3	InChI=1S/C7H10O2/c1-2-3-4-5(8)7-6(4)9-7/h4,6-7H,2-3H2,1H3/t4-,6-,7+/m1/s1
