18
gdb 119559	3.08797	1.05481	0.86603	3.1565	72.95	-0.2383	-0.0184	0.2199	1335.1659	0.146566	-439.04919	-439.040227	-439.039283	-439.083605	32.713	
O	 0.0526167531	 1.4570908079	-0.3297950153	-0.415241
C	 0.0018622072	 0.0425832534	-0.2701390401	-0.064428
C	-1.3760312677	-0.4705878428	 0.1806615776	-0.361602
C	-1.4400586892	-1.9661861361	 0.2160868141	 0.2281
N	-1.5445470067	-2.8059313709	-1.035376456	-0.362329
C	-2.5436440622	-2.9792543438	 0.0261632754	-0.127766
C	-1.9176521482	-3.9739066566	 1.0131556341	-0.342819
C	-0.8194548069	-2.8943255489	 1.2416212236	 0.404069
O	 0.03946635	-2.7457709993	 2.0624451149	-0.312992
H	 0.0448180137	 1.792136849	 0.5723324275	 0.284855
H	 0.2155466097	-0.3106519011	-1.2842115971	 0.119355
H	 0.778199443	-0.3695562355	 0.3896717035	 0.12047
H	-1.5898732823	-0.0796507342	 1.1844833849	 0.107394
H	-2.1461166426	-0.0690756818	-0.4894209398	 0.108211
H	-1.9429205635	-2.1825729633	-1.7402426486	 0.236027
H	-3.5955737933	-2.7824403968	-0.1349121778	 0.112943
H	-2.489740788	-4.1354742041	 1.931063328	 0.130454
H	-1.6014137759	-4.9287255153	 0.5887939713	 0.135301
63.3057	91.4642	110.0661	152.4201	252.5921	295.8544	345.107	358.255	447.2256	502.4011	557.8137	654.3011	735.7577	756.9254	804.5177	853.9422	909.836	938.4739	988.9527	1014.0822	1030.5279	1049.4647	1063.2393	1084.9159	1102.471	1150.7982	1169.8132	1209.0682	1262.7556	1308.0697	1317.213	1350.9095	1398.5167	1414.2071	1423.6741	1447.5619	1475.9828	1512.4978	1883.6983	3010.5147	3017.91	3057.4462	3070.1144	3086.4226	3132.4727	3205.4705	3447.4246	3818.524
OCCC12NC1CC2=O	OCC[C@]12N[C@H]1CC2=O	
InChI=1S/C6H9NO2/c8-2-1-6-4(7-6)3-5(6)9/h4,7-8H,1-3H2	InChI=1S/C6H9NO2/c8-2-1-6-4(7-6)3-5(6)9/h4,7-8H,1-3H2/t4-,6-/m0/s1
