16
gdb 65704	4.85405	0.84099	0.79312	1.2471	71.25	-0.2577	-0.036	0.2217	1391.2929	0.12094	-437.888733	-437.879156	-437.878212	-437.924422	33.099	
O	-0.0304701735	 1.454377522	-0.1083450036	-0.465549
C	 0.011152348	 0.0685338018	 0.0095055642	 0.414744
C	 1.1361184719	-0.4952060908	-0.8361416213	-0.329496
C	 2.4989391046	-0.0318733528	-0.3435767443	 0.157313
O	 3.418599628	-0.7777864898	-0.1288548985	-0.233891
C	-0.3546711057	-0.5928481709	 1.3034073461	-0.335539
C	-1.2994842852	-0.7225014776	 0.0999033569	-0.265956
C	-2.5077567441	 0.0452602448	 0.1058356096	 0.280727
N	-3.4324574004	 0.7429899347	 0.1084178722	-0.33439
H	-0.9131187664	 1.7823885998	 0.1055933512	 0.305585
H	 1.125820192	-1.587579193	-0.8414880354	 0.125646
H	 1.0050624624	-0.1335500312	-1.8645579923	 0.141144
H	 2.5905813995	 1.0644199442	-0.1963797836	 0.106795
H	 0.1695256963	-1.4921247189	 1.6066561546	 0.144646
H	-0.6867518208	 0.0425384325	 2.116322605	 0.146206
H	-1.3573402664	-1.6796666049	-0.4058987107	 0.142015
42.7293	59.3255	106.3201	121.9042	169.3663	221.8197	306.2263	355.7037	414.2095	437.8352	493.1712	561.8232	660.0359	708.5402	801.963	826.2286	861.9482	919.3749	981.1175	1008.2225	1054.2602	1070.7388	1078.3169	1117.2778	1185.5503	1198.5409	1287.1638	1328.621	1348.3619	1423.1508	1425.152	1453.5882	1479.4114	1833.6981	2340.6804	2923.1837	3033.1768	3116.3465	3143.1106	3177.2536	3237.8108	3773.4803
OC1(CC=O)CC1C#N	O[C@@]1(CC=O)C[C@H]1C#N	
InChI=1S/C6H7NO2/c7-4-5-3-6(5,9)1-2-8/h2,5,9H,1,3H2	InChI=1S/C6H7NO2/c7-4-5-3-6(5,9)1-2-8/h2,5,9H,1,3H2/t5-,6-/m0/s1
