17
gdb 121583	3.4043	0.86353	0.71711	1.6391	66.71	-0.2577	-0.0759	0.1819	1551.198	0.132386	-496.138082	-496.127859	-496.126915	-496.175381	34.391	
C	 0.0450280384	 1.3618638155	 0.3467511911	-0.472254
C	 0.0266045045	-0.1442293807	 0.2956718511	 0.283841
O	 1.0046097619	-0.8462470324	 0.3019565747	-0.265226
C	-1.3921054317	-0.762739454	 0.2437879001	 0.353479
O	-2.3997774434	-0.1035704473	 0.3056861149	-0.342225
O	-1.3412932268	-2.0896595448	 0.1278093428	-0.234262
C	-2.6070484567	-2.7871900729	 0.1175142027	-0.08024
C	-2.2685724402	-4.2593714698	-0.036666877	-0.069387
O	-1.4792032436	-4.73596831	 1.0318589843	-0.417206
H	 1.0753602314	 1.7141812178	 0.3939837859	 0.144787
H	-0.459585411	 1.7729573662	-0.5337811663	 0.15782
H	-0.5225602254	 1.7141871032	 1.2137564467	 0.160908
H	-3.1230244521	-2.5915955414	 1.0621466628	 0.134234
H	-3.224025139	-2.4137025342	-0.7058979529	 0.125544
H	-3.1977696681	-4.8385405362	-0.032392867	 0.119262
H	-1.778572847	-4.4186962406	-1.0097480052	 0.102605
H	-0.6747156713	-4.2048389584	 1.0432667712	 0.29832
29.4729	50.2128	70.3694	123.1559	129.0186	186.9599	280.0864	295.4747	356.3573	417.263	434.4125	484.9276	541.3566	605.7428	723.6965	839.5468	865.5196	918.5664	973.6163	1032.882	1038.444	1090.7252	1126.3595	1167.4503	1234.5634	1264.6183	1310.7661	1385.346	1392.0272	1401.3788	1432.6289	1452.9376	1460.6722	1493.2142	1496.7806	1808.003	1828.9843	2990.7762	3049.5963	3054.4069	3083.5068	3110.346	3110.933	3164.2227	3803.299
CC(=O)C(=O)OCCO	CC(=O)C(=O)OCCO	
InChI=1S/C5H8O4/c1-4(7)5(8)9-3-2-6/h6H,2-3H2,1H3	InChI=1S/C5H8O4/c1-4(7)5(8)9-3-2-6/h6H,2-3H2,1H3
