19
gdb 108411	2.07205	1.46003	1.0378	2.9424	77.71	-0.2356	-0.019	0.2166	1212.101	0.157716	-422.99191	-422.982942	-422.981998	-423.025943	32.911	
C	-0.040151336	 1.3406962791	-0.2498992198	-0.263866
O	-0.035500665	-0.0172701831	 0.1713338855	-0.271802
C	-1.2745211001	-0.6018450465	 0.1536086035	 0.428197
C	-2.3550513555	-0.4050350197	 1.2308990799	-0.313392
C	-2.6883986231	-1.9306025471	 1.1036745173	-0.231924
C	-1.5930610347	-2.065374957	 0.0356306062	-0.168873
C	-1.8498564041	-1.141907684	-1.16186317	-0.168405
C	-3.1754282907	-0.805527953	-1.7204612955	 0.143847
O	-3.3716846507	-0.5713132103	-2.8912585506	-0.275451
H	 0.9930046163	 1.6895907639	-0.2025024261	 0.134034
H	-0.4107429695	 1.4352944541	-1.2792091745	 0.125629
H	-0.6594939203	 1.9648748603	 0.408367395	 0.117493
H	-1.9046276156	-0.1686101844	 2.1973806564	 0.119398
H	-3.1528999761	 0.3133345095	 1.0268952119	 0.106616
H	-2.4397685421	-2.4778990003	 2.0148031736	 0.116809
H	-3.7051884384	-2.1976986393	 0.807089977	 0.111364
H	-0.9235322295	-2.9074344401	-0.0888378737	 0.108286
H	-1.078062563	-1.2237880165	-1.9221094827	 0.11342
H	-4.0140271218	-0.7637487157	-0.9923196035	 0.068621
72.5449	102.9687	158.3072	176.458	211.0503	253.8139	313.5872	375.2915	435.9927	481.3304	505.3744	659.493	677.2329	797.1793	871.7843	904.1448	928.3776	950.8025	990.8648	1029.8363	1044.2696	1056.1402	1093.5912	1125.9323	1154.6125	1180.7409	1195.911	1211.4195	1220.8959	1228.8391	1247.7592	1296.9797	1310.4153	1402.6985	1463.0202	1482.7991	1487.9309	1492.6244	1505.1123	1512.7437	1800.2612	2892.2234	3001.023	3058.8895	3064.8449	3073.2638	3110.6477	3127.9207	3131.9015	3163.9829	3193.6312
COC12CCC1C2C=O	CO[C@]12CC[C@H]1[C@H]2C=O	
InChI=1S/C7H10O2/c1-9-7-3-2-5(7)6(7)4-8/h4-6H,2-3H2,1H3	InChI=1S/C7H10O2/c1-9-7-3-2-5(7)6(7)4-8/h4-6H,2-3H2,1H3/t5-,6+,7+/m0/s1
