18
gdb 17065	3.95205	1.50516	1.29059	2.743	68.82	-0.2332	0.0817	0.3149	1012.8576	0.152258	-384.851314	-384.843315	-384.84237	-384.883803	29.556	
C	-0.7942019993	 1.0606213384	-0.1236043449	-0.242257
O	-0.9438443543	-0.2738687511	-0.5570743145	-0.241586
C	 0.0362433085	-0.6735625414	-1.4534789279	 0.179357
C	 1.3877030414	-1.2514338529	-0.9158276372	-0.021299
O	 0.6323800239	-2.4032472115	-0.3778717464	-0.307854
C	 0.0916854839	-2.1882017129	-1.7396782289	-0.019092
C	 1.5597179618	-2.0464314956	-2.2431304026	 0.041974
C	 1.9625909953	-1.4295159281	-3.5741134964	-0.445883
H	 0.1344784543	 1.2051192026	 0.4477803937	 0.109575
H	-0.7930942693	 1.7660178881	-0.9697674311	 0.103199
H	-1.6443204603	 1.2868952496	 0.5235526646	 0.132062
H	 0.0966995704	 0.0119866903	-2.3089399975	 0.061982
H	 2.1452090776	-0.8012424474	-0.2728510851	 0.090092
H	-0.7047887952	-2.8525157055	-2.0767332771	 0.093742
H	 2.1029127931	-2.9735900238	-2.0467806576	 0.091633
H	 1.4415385074	-0.4975734293	-3.8047552829	 0.122826
H	 3.0373600029	-1.2183117585	-3.5811990837	 0.125235
H	 1.7639130379	-2.1310499111	-4.3914255146	 0.126292
78.4357	160.9131	174.8112	179.058	266.6281	314.803	346.2874	445.0683	579.0526	623.4121	750.6471	796.5016	808.5357	868.	890.0995	951.53	1003.5677	1026.0577	1075.5319	1105.6007	1112.5425	1130.0918	1158.6686	1169.7103	1181.3311	1204.9309	1228.1686	1244.0928	1259.1486	1283.3713	1382.8243	1412.6114	1426.275	1484.2663	1489.993	1496.2475	1501.2037	1509.2885	2974.7962	3017.7077	3026.0303	3038.8091	3088.0395	3096.1376	3109.6483	3118.4814	3121.4464	3123.2329
COC1C2OC1C2C	CO[C@H]1[C@H]2O[C@@H]1[C@H]2C	
InChI=1S/C6H10O2/c1-3-4-6(7-2)5(3)8-4/h3-6H,1-2H3	InChI=1S/C6H10O2/c1-3-4-6(7-2)5(3)8-4/h3-6H,1-2H3/t3-,4-,5+,6-
