17
gdb 12799	3.57036	2.1302	1.63994	2.1878	68.4	-0.2413	0.0303	0.2716	830.2312	0.143382	-363.866588	-363.8595	-363.858556	-363.897662	27.417	
C	-0.0209144024	 1.5817896447	 0.1482762288	-0.451643
C	 0.1080346447	 0.0872791595	 0.0380053054	 0.425794
C	-0.8358332871	-0.8478507619	 0.7459794032	-0.341973
C	 0.6234509656	-0.7652547493	 1.1601534268	-0.106103
C	 1.5777123291	-1.8946187783	 0.8127441759	-0.177607
N	 1.746580618	-2.1645554641	-0.6090104378	-0.268882
C	 1.2422224691	-1.3792643877	-1.4585198898	 0.117706
O	 0.4826494166	-0.2686317913	-1.2848237368	-0.261075
H	 0.9387693078	 2.0709178235	-0.0469766365	 0.127513
H	-0.7509665229	 1.9603869013	-0.5743765523	 0.13065
H	-0.3532249715	 1.8608829577	 1.1519061444	 0.119921
H	-1.5896928734	-0.4217628554	 1.3990116508	 0.115771
H	-1.1514650484	-1.7348887969	 0.2055813448	 0.126956
H	 0.8342205997	-0.2533804907	 2.0950094452	 0.090547
H	 2.57066494	-1.6588508733	 1.217208433	 0.118136
H	 1.2719776469	-2.8298927557	 1.2999777367	 0.112627
H	 1.3874231882	-1.5493006521	-2.5238264521	 0.121662
104.5853	192.1179	221.7207	320.526	371.5324	399.2781	500.7305	517.076	594.731	679.8987	773.2121	859.2008	883.1786	904.0958	930.5406	941.9725	961.9255	1001.7501	1046.5194	1081.7754	1113.1232	1125.427	1136.2967	1181.8054	1248.2727	1276.2671	1287.4584	1366.9407	1408.052	1417.8626	1430.5371	1479.6319	1481.5962	1490.5859	1506.5598	1741.5931	3013.4642	3036.7676	3037.5162	3104.7655	3118.8203	3128.0634	3143.7927	3158.1902	3217.4662
CC12CC1CN=CO2	C[C@]12C[C@H]1CN=CO2	
InChI=1S/C6H9NO/c1-6-2-5(6)3-7-4-8-6/h4-5H,2-3H2,1H3	InChI=1S/C6H9NO/c1-6-2-5(6)3-7-4-8-6/h4-5H,2-3H2,1H3/t5-,6-/m0/s1
