18
gdb 106944	3.86953	1.09592	0.9808	1.8039	72.21	-0.2462	-0.0268	0.2194	1212.553	0.148585	-439.088135	-439.07985	-439.078906	-439.121401	31.334	
O	 0.0724574316	 1.3207920285	-0.4808376221	-0.416393
C	 0.0375168397	 0.0652973942	 0.1784481927	-0.135727
C	-1.3646363905	-0.4915650214	 0.2195974573	 0.299929
C	-2.4396271613	 0.2182163923	 1.0441630349	-0.282238
C	-3.574347006	-0.813509375	 1.2198209366	-0.364757
C	-2.9218686497	-2.1842544222	 0.9591725135	 0.41984
O	-3.3190710863	-3.2460469458	 1.3670625947	-0.31939
C	-1.6644074727	-1.9596542774	 0.1698843268	-0.194923
N	-1.8095596446	-1.1020572219	-1.0321195905	-0.368761
H	-0.201738807	 1.1602323094	-1.3909859616	 0.291115
H	 0.7046877448	-0.6634865887	-0.303032276	 0.100237
H	 0.4046702977	 0.243883381	 1.1946077802	 0.112797
H	-2.0198487649	 0.4926079365	 2.017616891	 0.118907
H	-2.7607719874	 1.1466290849	 0.5633926738	 0.119159
H	-4.0172111443	-0.8110883574	 2.2174259477	 0.140863
H	-4.4016014357	-0.6615382275	 0.5167520325	 0.131991
H	-0.9235302237	-2.749009711	 0.1114496312	 0.110234
H	-2.7898318796	-0.9081632587	-1.2270242027	 0.237116
66.3018	107.9862	146.4513	235.4323	311.215	382.9187	401.7747	421.4717	477.7727	545.39	639.0299	643.2986	732.9057	788.5898	812.8052	880.1386	925.089	981.3354	996.2805	1015.7385	1035.5129	1071.6656	1103.8862	1126.718	1157.2534	1186.5559	1207.7596	1238.0178	1263.1465	1283.8013	1306.9295	1335.4052	1384.4679	1413.9905	1435.6568	1465.6948	1492.5673	1497.9287	1835.5217	3006.3061	3047.6712	3052.2266	3079.6806	3093.48	3119.693	3184.1756	3482.5394	3801.0341
OCC12CCC(=O)C1N2	OC[C@]12CCC(=O)[C@H]1N2	
InChI=1S/C6H9NO2/c8-3-6-2-1-4(9)5(6)7-6/h5,7-8H,1-3H2	InChI=1S/C6H9NO2/c8-3-6-2-1-4(9)5(6)7-6/h5,7-8H,1-3H2/t5-,6-/m1/s1
