15
gdb 132023	2.34666	1.83383	1.03062	4.1866	75.58	-0.1769	-0.0025	0.1744	1064.212	0.114214	-458.125405	-458.117537	-458.116593	-458.157387	30.63	
N	 0.051374952	 1.3914899016	 0.0322187442	-0.598701
C	 0.008413086	 0.0062943093	 0.0402923648	 0.094678
C	-1.133391929	-0.7159291454	 0.0755742755	 0.299169
F	-2.3466056534	-0.1537697415	 0.0431883432	-0.076092
N	-1.1648409503	-2.0883610548	 0.1408302029	-0.397793
C	 0.0055592852	-2.7913361239	 0.1772303318	 0.010001
C	 1.1982656399	-2.1494216829	 0.1338815021	-0.226311
C	 1.2959491479	-0.703466582	 0.0464324955	 0.272871
N	 2.366213086	 0.0217765384	-0.0351200757	-0.58673
H	 0.9738676266	 1.7048470137	-0.2517584808	 0.266678
H	-0.711094625	 1.8523641195	-0.441152399	 0.243319
H	-2.0615911539	-2.5421320225	 0.1792134893	 0.270775
H	-0.0933465316	-3.8671270015	 0.2382113754	 0.132492
H	 2.1116621528	-2.7323755462	 0.1528422188	 0.096151
H	 3.2018865468	-0.5625805418	-0.033893498	 0.199494
135.7363	200.1151	268.449	282.3894	290.4015	354.1043	373.3595	494.3038	510.6089	535.9187	554.3798	562.6097	668.641	702.5201	729.9187	785.9787	837.0291	875.5179	913.1441	987.9669	1083.4009	1140.5319	1210.2153	1269.7726	1299.6141	1313.1352	1413.355	1435.2213	1555.2022	1597.9563	1613.1345	1671.8435	1738.4255	3196.2331	3223.4636	3471.5315	3514.0245	3651.2708	3672.6968
NC1=C(F)NC=CC1=N	NC1=C(F)NCC=C1[NH]	
InChI=1S/C5H6FN3/c6-5-4(8)3(7)1-2-9-5/h1-2H,8H2,(H2,7,9)	InChI=1S/C5H7FN3/c6-5-4(8)3(7)1-2-9-5/h1,7,9H,2,8H2
