21
gdb 102557	1.97622	1.50627	1.05199	2.3867	74.73	-0.2474	0.0675	0.3148	1234.3208	0.18048	-461.326338	-461.316266	-461.315322	-461.361508	37.361	
C	 0.0246721045	 1.4304196265	 0.0044394307	-0.239741
O	-0.0077037661	 0.0200669683	-0.0404444091	-0.254928
C	 0.6638982073	-0.5565565845	-1.1577749764	 0.004934
C	 2.1574053121	-0.7295670875	-0.858991994	-0.091352
O	 2.396032316	-1.7914496923	 0.0565092764	-0.428425
C	 0.0037773155	-1.9056296888	-1.4600848793	 0.423181
O	 0.8127517952	-2.7537655769	-2.2289315342	-0.480607
C	-0.9271536645	-2.5524016806	-0.4639251257	-0.317359
C	-1.4593856625	-1.9753591335	-1.7608614112	-0.307686
H	 1.0464630192	 1.8271355753	 0.0907443384	 0.110217
H	-0.441460603	 1.8715231923	-0.8890485003	 0.11323
H	-0.5417471488	 1.7362528595	 0.8875230726	 0.130735
H	 0.5599651756	 0.1057046559	-2.0328802006	 0.072938
H	 2.6889213036	-0.9875435886	-1.7780828069	 0.123468
H	 2.5729940268	 0.2184330375	-0.4863726057	 0.093882
H	 1.809495103	-1.6448447967	 0.8080555091	 0.293568
H	 1.507371977	-3.062736654	-1.6309951195	 0.290063
H	-0.8627799569	-3.6322735541	-0.389858357	 0.109708
H	-1.1567382409	-2.0278775011	 0.4542727542	 0.122385
H	-2.0336103051	-1.0571237878	-1.7030715558	 0.111628
H	-1.7606398879	-2.665826859	-2.5397633456	 0.120159
58.8651	91.851	106.5642	167.0423	203.4118	235.3033	302.0316	333.3452	354.0023	411.3351	437.4102	460.3444	478.4113	595.4319	637.3337	777.1068	794.2153	841.8675	909.2393	923.8408	936.5238	992.0412	1030.3576	1053.1567	1058.2382	1082.4037	1094.3018	1137.7006	1183.4932	1195.3789	1206.1901	1227.7664	1271.0283	1298.8073	1310.5767	1372.2551	1391.3814	1400.5175	1426.77	1442.6115	1479.0195	1488.0574	1496.3786	1503.2867	1511.1333	2969.6048	2985.34	3001.9295	3036.358	3103.4241	3114.9319	3137.7826	3145.4992	3227.2996	3244.9388	3750.2484	3795.8635
COC(CO)C1(O)CC1	CO[C@@H](CO)C1(O)CC1	
InChI=1S/C6H12O3/c1-9-5(4-7)6(8)2-3-6/h5,7-8H,2-4H2,1H3	InChI=1S/C6H12O3/c1-9-5(4-7)6(8)2-3-6/h5,7-8H,2-4H2,1H3/t5-/m0/s1
