17
gdb 28797	3.09331	1.64836	1.09979	1.7722	75.43	-0.162	0.0671	0.2291	1057.9727	0.139119	-418.02984	-418.022196	-418.021252	-418.061846	29.545	
O	 0.0466829584	 1.3207437452	 0.2705934876	-0.444369
C	 0.0413825997	-0.0216586273	 0.0441642079	 0.320984
C	 0.0180588397	-0.7950273928	-1.0927364155	-0.292503
C	-0.0113674378	-2.1765665229	-0.676315955	-0.290836
C	 0.0112231518	-2.1667997807	 0.6893355523	 0.343283
N	 0.0458882866	-3.0607231447	 1.787807168	-0.408332
C	-0.1986023253	-2.2040562217	 2.9717107899	-0.176108
C	 0.1821776422	-0.7497686389	 2.5623779316	-0.192635
N	 0.0254895607	-0.8548855605	 1.1266675751	-0.047434
H	-0.0316168337	 1.7658924269	-0.5783862282	 0.304235
H	-0.0152642473	-0.4278729355	-2.1074653214	 0.081621
H	-0.0439960178	-3.0414006917	-1.3190486424	 0.090078
H	 0.9465324535	-3.5248271309	 1.8581449196	 0.233466
H	-1.2656433264	-2.2391743116	 3.2166472428	 0.125152
H	 0.3616350212	-2.5622005853	 3.8372615066	 0.111655
H	-0.4889145153	-0.0061156169	 2.9987234858	 0.128666
H	 1.2138256098	-0.4870921508	 2.8331160353	 0.113077
121.8874	166.2218	212.5876	226.8529	271.5765	334.9533	546.7755	612.3191	613.4961	629.9166	640.1875	702.4056	738.9919	749.3042	772.0037	820.1301	917.906	934.0396	1003.9336	1026.4117	1047.9273	1124.5323	1148.2199	1204.5161	1246.3	1255.6911	1263.5611	1305.2676	1328.781	1364.3155	1398.4294	1437.8611	1498.3687	1521.4633	1547.9083	1590.031	1630.8428	3011.2362	3045.9319	3096.8191	3118.9273	3237.464	3262.3256	3490.6312	3846.8748
OC1=CC=C2NCCN12	Oc1ccc2NCCn12	
InChI=1S/C6H8N2O/c9-6-2-1-5-7-3-4-8(5)6/h1-2,7,9H,3-4H2	InChI=1S/C6H8N2O/c9-6-2-1-5-7-3-4-8(5)6/h1-2,7,9H,3-4H2
