18
gdb 31878	3.86577	0.9547	0.80513	1.989	93.39	-0.1934	0.0026	0.196	1437.9682	0.147622	-364.832482	-364.823475	-364.822531	-364.866668	33.709	
C	-0.047531643	 1.5262798707	-0.3389813637	-0.366957
C	-0.0531267302	 0.0508811363	 0.1018753771	-0.312152
C	-1.421269456	-0.5485863629	 0.190476664	 0.305177
C	-2.1703038613	-0.938999423	 1.2859177903	-0.214013
C	-3.414295599	-1.4238404677	 0.8183112114	-0.246828
C	-3.4098587312	-1.3237910458	-0.5642763217	 0.165703
N	-2.1849624677	-0.786406236	-0.9212759259	-0.356924
C	-4.3799744967	-1.6645755034	-1.5248743983	 0.258649
C	-5.2006585949	-1.9511843708	-2.3610247581	-0.45944
H	 0.9743763807	 1.9157505874	-0.3805907019	 0.115658
H	-0.4918934247	 1.6486872628	-1.3322639135	 0.11203
H	-0.6230183814	 2.141905207	 0.358400079	 0.128434
H	 0.5703300906	-0.5345466885	-0.5878696683	 0.106851
H	 0.4172842138	-0.0378918956	 1.0860059249	 0.118031
H	-1.8456238403	-0.8784348509	 2.313787555	 0.095244
H	-4.2312997877	-1.8090768744	 1.4076922586	 0.101293
H	-1.9068133756	-0.6121161089	-1.8720606377	 0.262131
H	-5.9308953253	-2.2071751963	-3.0875418211	 0.187113
44.9798	109.7708	139.3939	185.3182	218.7375	328.8883	379.8414	455.4637	489.471	507.3048	538.0141	553.6113	651.7976	671.398	675.4029	705.68	784.1425	794.4411	846.2753	948.4407	996.5205	1019.8775	1063.0952	1074.846	1084.4049	1199.4669	1252.8024	1278.6344	1309.9019	1353.382	1407.0096	1416.1637	1452.8272	1484.3089	1496.0247	1500.3133	1513.1606	1612.8029	2221.577	3013.5157	3035.7745	3077.2708	3105.738	3116.3073	3243.3701	3264.2567	3504.3668	3672.3821
CCC1=CC=C(N1)C#C	CCc1ccc([nH]1)C#C	
InChI=1S/C8H9N/c1-3-7-5-6-8(4-2)9-7/h1,5-6,9H,4H2,2H3	InChI=1S/C8H9N/c1-3-7-5-6-8(4-2)9-7/h1,5-6,9H,4H2,2H3
