16
gdb 55507	3.39055	0.94323	0.76969	3.7344	68.09	-0.249	-0.0996	0.1495	1427.1727	0.121102	-475.090781	-475.08095	-475.080006	-475.127327	33.97	
C	-0.4124062269	 1.5134446153	 0.0119518848	-0.475164
C	-0.2600335644	 0.0733320276	 0.4302992503	 0.319142
O	 0.592280235	-0.3323983115	 1.1832345393	-0.260921
C	-1.2866725825	-0.9201012037	-0.1794013643	 0.263256
O	-2.1395618804	-0.4914472477	-0.9299300297	-0.300575
C	-1.1249676373	-2.3738195865	 0.1991224137	-0.409004
C	-2.4158425933	-3.1846665287	 0.4216334527	 0.382963
N	-3.3956615969	-2.9745651479	-0.4976815211	-0.511746
O	-2.4890682809	-3.9901740036	 1.3253748582	-0.346487
H	 0.3540238344	 2.1177972689	 0.4967999573	 0.147467
H	-0.3347815734	 1.5995456384	-1.0765904566	 0.158287
H	-1.4104408137	 1.8775955934	 0.2753131635	 0.159813
H	-0.581744087	-2.8511549509	-0.6294793763	 0.166914
H	-0.4992073544	-2.4688561629	 1.0848048607	 0.17123
H	-3.3592362099	-2.1482766375	-1.0771376863	 0.274651
H	-4.2829235683	-3.4215712728	-0.3288302461	 0.260173
36.0238	43.6407	74.672	111.8525	176.6669	265.9249	331.7503	362.7604	383.2821	465.8787	514.8997	531.683	558.2852	596.0253	635.5066	693.4288	801.7088	873.3198	923.188	945.7526	1032.7934	1060.0614	1134.7502	1163.8679	1229.9823	1327.1061	1352.5915	1385.4557	1441.2046	1452.1883	1460.4747	1619.1187	1778.567	1811.9077	1814.4816	3027.2934	3050.7549	3111.8491	3159.5366	3165.079	3554.7092	3697.6274
CC(=O)C(=O)CC(N)=O	CC(=O)C(=O)CC(=O)N	
InChI=1S/C5H7NO3/c1-3(7)4(8)2-5(6)9/h2H2,1H3,(H2,6,9)	InChI=1S/C5H7NO3/c1-3(7)4(8)2-5(6)9/h2H2,1H3,(H2,6,9)
