17
gdb 50422	2.51949	1.53197	1.18168	4.2415	74.2	-0.2378	-0.0332	0.2046	1070.9615	0.134713	-421.849883	-421.841548	-421.840603	-421.883549	30.221	
O	-0.7567842555	 1.0783215026	 0.6877513671	-0.234907
C	 0.1182862518	 1.1272739931	-0.1382030637	 0.160277
C	 1.3443603079	 2.0117160836	-0.0613022489	-0.119449
C	 1.253157496	 3.0616890202	-1.2147224117	-0.285217
C	 0.6852001993	 4.2725026876	-0.5126739631	-0.068032
C	 0.7516396558	 4.1604051502	 0.8118398338	-0.072496
C	 1.3952949573	 2.8624990689	 1.2427737022	-0.108775
C	 0.8030321422	 2.1898631944	 2.4817125312	 0.14836
O	 1.3699540588	 1.3056801939	 3.0713554652	-0.272798
H	 0.0596538949	 0.5168872164	-1.0679185341	 0.093027
H	 2.2204222825	 1.3656265599	-0.1794021588	 0.110307
H	 2.2435122654	 3.271799895	-1.6387850411	 0.121647
H	 0.6305465334	 2.7128113592	-2.0484589225	 0.113443
H	 0.3075640763	 5.1323271959	-1.0538971272	 0.105345
H	 0.434280097	 4.9146648207	 1.523168295	 0.106667
H	 2.4512791418	 3.032464208	 1.4989048688	 0.114527
H	-0.1601246849	 2.6069846403	 2.8410458577	 0.088074
54.8694	97.7741	131.372	198.1035	250.4436	324.8521	355.5882	461.9214	480.0143	637.6642	714.85	741.727	778.6711	818.7813	918.82	926.719	957.2434	974.3307	987.105	1005.527	1052.0229	1078.3651	1104.5448	1142.7958	1186.4923	1202.1994	1252.5212	1277.9765	1315.6857	1343.2702	1374.6007	1413.5517	1421.953	1491.7332	1685.5171	1816.4931	1827.0154	2878.3637	2914.5947	3002.6949	3018.9116	3046.4767	3066.0735	3188.7205	3213.1177
O=CC1CC=CC1C=O	O=C[C@H]1CC=C[C@H]1C=O	
InChI=1S/C7H8O2/c8-4-6-2-1-3-7(6)5-9/h1-2,4-7H,3H2	InChI=1S/C7H8O2/c8-4-6-2-1-3-7(6)5-9/h1-2,4-7H,3H2/t6-,7+/m0/s1
