18
gdb 79063	2.15971	2.05166	1.70323	1.6505	75.15	-0.2132	0.0049	0.2181	924.8929	0.148106	-401.90798	-401.900364	-401.89942	-401.939458	30.721	
C	-0.0816423971	 1.5465545584	 0.0189360043	-0.491569
C	-0.0034259472	 0.0401485314	-0.0568186584	 0.205021
C	 0.7071875037	-0.5780616656	-1.233031567	-0.10423
C	 0.1927824558	-1.787257105	-1.4511014549	-0.079711
C	-0.9339893776	-1.9909265554	-0.5015327088	-0.068866
C	-0.740886843	-1.6820881886	 0.9608880909	-0.092153
C	 0.4104728325	-0.758247765	 1.2531982945	 0.10849
O	 1.6753802381	-1.3477137772	 1.4021029022	-0.432436
N	-1.3662865542	-0.6759551649	 0.0163403633	-0.162412
H	 0.9206921958	 1.9851437938	 0.0869667881	 0.110015
H	-0.5710729979	 1.9547471645	-0.8709231066	 0.129975
H	-0.6559673483	 1.8634283651	 0.8948447131	 0.121875
H	 1.5814918188	-0.1442916621	-1.701340391	 0.100417
H	 0.5270664888	-2.5323611843	-2.1605724379	 0.105743
H	-1.7379227785	-2.6834548177	-0.733474429	 0.092618
H	-1.3257664149	-2.19765595	 1.7167297239	 0.092336
H	 0.1494876761	-0.1371284407	 2.1205148123	 0.081756
H	 2.2783788792	-0.6937736269	 1.769296151	 0.283134
171.0464	192.1019	246.7116	264.9638	287.5974	308.2984	462.176	518.7653	584.4015	610.6313	728.7854	742.7707	754.3169	779.5786	797.7348	825.5794	878.251	922.145	943.7879	982.0163	1000.5273	1049.1109	1073.3629	1095.6221	1124.2139	1139.9948	1158.4537	1195.3725	1220.2032	1249.1712	1281.4603	1350.7159	1367.6262	1382.0863	1412.7057	1445.8246	1482.4157	1496.1406	1662.7583	3014.411	3030.0596	3098.3281	3109.0909	3150.6041	3161.6561	3205.7835	3232.8797	3818.5931
CC12C=CC3C(C1O)N23	C[C@@]12C=C[C@H]3[C@@H]([C@H]1O)N23	
InChI=1S/C7H9NO/c1-7-3-2-4-5(6(7)9)8(4)7/h2-6,9H,1H3	InChI=1S/C7H9NO/c1-7-3-2-4-5(6(7)9)8(4)7/h2-6,9H,1H3/t4-,5-,6+,7+,8?/m0/s1
