21
gdb 91931	2.14233	1.71733	1.53597	2.5773	76.61	-0.2538	0.082	0.3358	1031.6416	0.182441	-424.229389	-424.220735	-424.219791	-424.261823	34.714	
C	 0.0357844454	 1.55054447	 0.0001411235	-0.423313
C	 0.0287026795	 0.0183669672	 0.0170097968	 0.216898
C	-1.4179267063	-0.5069430562	-0.0202976118	-0.430696
C	 0.7954545963	-0.5884860588	-1.1527807885	 0.036354
O	 2.2290583163	-0.5404591371	-0.9972582413	-0.289791
C	 1.534858141	-1.7739466094	-0.706231872	 0.041639
C	 1.2952116002	-1.9743935658	 0.7748907072	-0.27913
C	 0.7926763197	-0.5839355529	 1.252115323	 0.097051
O	 1.8686959891	 0.225004391	 1.6895499328	-0.442552
H	 1.0520623757	 1.9466178484	-0.0244963202	 0.123858
H	-0.50308607	 1.9259704572	-0.8770210714	 0.103632
H	-0.4538301621	 1.9518859582	 0.8931094806	 0.117611
H	-1.9242128904	-0.2016555747	-0.9427072065	 0.115746
H	-1.4613342877	-1.5994854181	 0.0346144152	 0.114187
H	-1.9919236932	-0.1046508624	 0.820579048	 0.121662
H	 0.4432954523	-0.4578459885	-2.1740686711	 0.092914
H	 1.7821422121	-2.6023612277	-1.3646103652	 0.097585
H	 0.5425610567	-2.7579967917	 0.9209550298	 0.106274
H	 2.1926267142	-2.2646449779	 1.3281958963	 0.116862
H	 0.121137585	-0.6686413344	 2.1110494829	 0.07741
H	 2.4786129862	 0.2698161036	 0.9406760421	 0.285798
136.3776	198.8339	217.8255	226.0098	257.2347	318.2865	341.6527	365.6306	439.8077	467.9452	516.4563	582.9017	593.4763	719.8298	815.3427	825.0741	855.8588	879.1057	901.663	947.3615	958.2397	975.1277	996.6346	1019.1553	1043.6226	1084.24	1128.483	1188.8207	1191.0712	1206.2703	1233.6988	1262.182	1270.522	1298.3427	1326.4397	1362.9278	1402.0243	1418.9775	1437.8316	1454.6477	1474.663	1482.6134	1487.7054	1504.1451	1507.5809	3029.1371	3037.5776	3042.9345	3073.5633	3094.26	3098.3702	3099.7905	3105.0377	3134.0898	3135.8105	3155.7656	3753.5036
CC1(C)C2OC2CC1O	CC1(C)[C@H]2O[C@H]2C[C@H]1O	
InChI=1S/C7H12O2/c1-7(2)5(8)3-4-6(7)9-4/h4-6,8H,3H2,1-2H3	InChI=1S/C7H12O2/c1-7(2)5(8)3-4-6(7)9-4/h4-6,8H,3H2,1-2H3/t4-,5+,6-/m0/s1
