19
gdb 30725	3.05818	1.1909	0.90571	1.2336	80.36	-0.1825	0.0398	0.2223	1313.6086	0.159903	-419.231818	-419.222188	-419.221244	-419.266461	35.504	
C	 0.2923858599	 1.5595191487	-0.261762359	-0.365939
C	-0.0949897336	 0.1165728208	 0.1053404231	-0.301347
C	 0.5409288013	-0.3670949785	 1.3624358646	 0.334163
C	 0.0475925959	-0.8785322336	 2.527715743	 0.043609
N	-1.2757132854	-1.1798900109	 2.9161849177	-0.625679
C	 1.1822336195	-1.1776459404	 3.3626511566	 0.201728
N	 1.0554814156	-1.6676757416	 4.6720493782	-0.618244
C	 2.280423027	-0.8230151376	 2.6432542775	-0.117814
O	 1.9073508382	-0.3331374908	 1.420757457	-0.205644
H	 1.3760361035	 1.6482063367	-0.3738545627	 0.13435
H	-0.1757155414	 1.8606948666	-1.2040514514	 0.107464
H	-0.0217371921	 2.2597585126	 0.518322364	 0.117048
H	-1.1830441905	 0.0437630735	 0.2217094078	 0.094884
H	 0.1640261945	-0.5480213844	-0.7309290797	 0.114291
H	-1.9515713112	-0.9259134425	 2.2060498325	 0.23792
H	-1.5249796631	-0.7031658341	 3.7777077573	 0.246055
H	 0.3345776465	-2.3801198076	 4.7218253993	 0.247844
H	 1.9208468343	-2.0455182124	 5.0363268706	 0.241045
H	 3.3382997311	-0.8483378945	 2.8431858336	 0.114266
52.4157	113.8127	116.0981	195.8812	233.7278	246.9384	290.817	334.0564	356.4314	383.407	523.8946	566.3846	624.5261	659.3986	695.366	729.2081	747.9388	785.8778	805.4063	835.5925	943.7074	985.0767	1053.7354	1087.1774	1118.3128	1164.8767	1200.2068	1236.7971	1291.0866	1305.5272	1330.5168	1364.7431	1405.9281	1473.2581	1484.5487	1495.8425	1508.7684	1622.448	1633.1502	1651.3386	1712.4301	3005.6022	3040.3677	3052.1019	3109.6117	3123.864	3276.3957	3497.0749	3511.2535	3596.6656	3609.9302
CCC1=C(N)C(N)=CO1	CCc1c(N)c(N)co1	
InChI=1S/C6H10N2O/c1-2-5-6(8)4(7)3-9-5/h3H,2,7-8H2,1H3	InChI=1S/C6H10N2O/c1-2-5-6(8)4(7)3-9-5/h3H,2,7-8H2,1H3
