23
gdb 84007	2.05806	1.61047	1.38437	1.2351	85.26	-0.241	0.082	0.323	1131.2578	0.20712	-388.292267	-388.283322	-388.282378	-388.325151	35.306	
C	-0.2290629772	 1.5474897632	-0.0074131876	-0.431058
C	-0.0180916224	 0.0480687141	 0.0272776982	-0.04183
C	 1.3240473966	-0.6157796387	-0.2421951328	-0.088786
C	 2.5915428535	 0.2083670338	-0.4576806944	-0.234963
C	 3.251056298	 0.5732267341	 0.8741877584	-0.072667
O	 2.3021139416	 1.0990178902	 1.7874501554	-0.239667
C	 1.4002137903	 0.1047735774	 2.2456888797	-0.146008
C	 0.6986262734	-0.68009206	 1.1423561375	 0.286925
C	 0.1182007211	-1.9937803028	 1.6279453214	-0.46599
H	 0.5983314657	 2.0896375754	 0.4525945427	 0.142442
H	-0.3432100138	 1.9017056672	-1.0388317887	 0.10927
H	-1.1442162894	 1.8174699792	 0.5317269343	 0.111124
H	-0.8623071925	-0.5059001013	-0.3791547889	 0.073422
H	 1.2754488518	-1.5331788556	-0.8221841679	 0.075722
H	 3.3043847365	-0.3587284944	-1.0659334786	 0.096086
H	 2.3684119195	 1.1263822835	-1.0137857569	 0.106984
H	 3.7379786802	-0.3141115259	 1.3130727254	 0.084353
H	 4.0136093374	 1.3467684508	 0.7436072916	 0.102811
H	 1.9452482465	-0.6110033448	 2.8866609318	 0.084158
H	 0.6750567671	 0.6274820482	 2.8799006056	 0.106108
H	-0.6307720947	-1.8334062227	 2.4138149405	 0.114511
H	-0.3728874642	-2.5328840309	 0.8121736275	 0.11472
H	 0.8955435649	-2.6482050798	 2.0407468559	 0.112332
141.8841	167.1215	196.8183	208.251	231.098	263.4297	323.0131	352.5894	444.5661	448.9445	484.9915	549.5271	596.5794	737.5703	774.9934	782.2769	872.1431	919.1899	941.194	967.0799	994.73	1019.6339	1047.4058	1067.0517	1095.4182	1119.8937	1140.4253	1143.2561	1151.2163	1158.7508	1233.3261	1253.1801	1275.8884	1319.4456	1335.5619	1361.8014	1366.8326	1388.6387	1413.9767	1415.2604	1423.1891	1461.2087	1484.7462	1489.7145	1493.3658	1498.614	1501.9556	1509.4468	1514.3474	2944.9728	2963.4919	3015.8904	3027.5216	3033.0376	3055.2231	3071.5918	3072.3829	3078.9021	3083.2937	3097.8519	3111.7566	3135.8812	3141.8343
CC1C2CCOCC12C	C[C@H]1[C@H]2CCOC[C@@]12C	
InChI=1S/C8H14O/c1-6-7-3-4-9-5-8(6,7)2/h6-7H,3-5H2,1-2H3	InChI=1S/C8H14O/c1-6-7-3-4-9-5-8(6,7)2/h6-7H,3-5H2,1-2H3/t6-,7+,8-/m0/s1
