15
gdb 28023	6.07789	0.88621	0.78089	3.5557	71.67	-0.2486	-0.0053	0.2433	1388.2758	0.112767	-416.866919	-416.858545	-416.8576	-416.901018	29.24	
C	 0.6293999294	 1.3492288737	-0.7064270962	-0.488873
C	 0.0709135567	 0.0685270413	-0.20299085	 0.380651
N	-0.9774138388	-0.573926813	-0.61544528	-0.349804
C	-1.042732255	-1.7007638677	 0.1964015968	 0.242142
C	-2.1437710818	-2.7037082128	 0.0161736087	-0.452502
C	-2.0514179782	-3.8197536899	 0.9558583265	 0.271211
N	-1.9663807644	-4.6954678911	 1.704104705	-0.3094
C	-0.0111398061	-1.6758785374	 1.0702481364	-0.101469
O	 0.7141941601	-0.5425527068	 0.8248091022	-0.172354
H	 1.6540846103	 1.2152080896	-1.0675945985	 0.151324
H	 0.0064222299	 1.7106495543	-1.5245601616	 0.159904
H	 0.6550950429	 2.1042524122	 0.0858273599	 0.151326
H	-3.1187814558	-2.216174978	 0.1378956222	 0.173885
H	-2.1278188956	-3.098272399	-1.0071597994	 0.173887
H	 0.3312359663	-2.3187049154	 1.861997478	 0.170072
42.9796	91.2062	107.9048	192.293	261.7601	311.2864	383.0227	398.6083	471.9403	639.0916	694.3412	697.683	751.469	775.9748	939.6121	951.1461	960.0565	1015.2237	1047.8743	1066.9348	1137.5466	1216.8353	1218.6515	1242.655	1330.3311	1378.5289	1412.9521	1458.9864	1475.1581	1479.7639	1621.8993	1640.1786	2369.9291	3037.2397	3047.3608	3066.4856	3102.9257	3160.1687	3301.1392
CC1=NC(CC#N)=CO1	Cc1nc(CC#N)co1	
InChI=1S/C6H6N2O/c1-5-8-6(2-3-7)4-9-5/h4H,2H2,1H3	InChI=1S/C6H6N2O/c1-5-8-6(2-3-7)4-9-5/h4H,2H2,1H3
