18
gdb 83491	2.98665	1.52951	1.4606	2.5906	71.81	-0.2614	0.0253	0.2867	987.9891	0.150212	-439.110462	-439.103173	-439.102228	-439.141984	29.002	
C	-0.1129654569	 1.5299133638	-0.0166009728	-0.437707
C	 0.048444791	 0.0161297719	 0.0354092077	-0.015916
C	 1.0953269125	-0.5906793326	-0.910717745	 0.195036
O	 2.3256328607	-0.0706002875	-0.4702478831	-0.260295
C	 2.237951041	-0.0619219453	 0.9744006815	-0.096411
C	 0.8115595401	-0.603693936	 1.2416800053	-0.162448
C	 0.8530905707	-2.0452701558	 0.7838528495	 0.43754
N	 0.7651976158	-3.0879792601	 1.4841425044	-0.566055
O	 1.0339527274	-1.9979420271	-0.5854295312	-0.255225
H	 0.8485746967	 2.0476966452	-0.0014080815	 0.138133
H	-0.6319592264	 1.8250099656	-0.9344018601	 0.12555
H	-0.7108422012	 1.8859459879	 0.8281467101	 0.125516
H	-0.9179313789	-0.4770543347	-0.1011717838	 0.098274
H	 1.010070689	-0.4758493453	-1.9888879149	 0.102892
H	 3.0182832925	-0.7031614601	 1.3933161091	 0.130939
H	 2.3756748003	 0.9591306512	 1.3446130843	 0.111645
H	 0.4277497101	-0.4568167075	 2.2476736511	 0.103738
H	 0.8451509556	-3.9217327436	 0.8984171596	 0.224794
142.5505	176.0527	244.0809	266.1394	300.7206	426.1915	497.0769	519.1602	616.3948	700.3309	756.6228	801.7083	815.6939	891.9407	899.8024	918.4272	929.1975	941.3623	969.5738	992.8147	1041.4136	1070.1574	1091.9937	1112.6556	1130.5785	1177.2644	1223.1502	1241.4741	1274.958	1290.3794	1305.2054	1359.6649	1379.555	1400.9365	1415.6628	1493.8833	1502.3776	1530.0607	1799.3567	3042.7485	3047.2211	3075.2685	3096.4378	3103.6668	3131.042	3160.9926	3164.9419	3466.563
CC1C2OCC1C(=N)O2	C[C@H]1[C@H]2OC[C@@H]1[C]([NH])O2	
InChI=1S/C6H9NO2/c1-3-4-2-8-6(3)9-5(4)7/h3-4,6-7H,2H2,1H3	InChI=1S/C6H9NO2/c1-3-4-2-8-6(3)9-5(4)7/h3-4,6-7H,2H2,1H3/t3-,4+,6+/m1/s1
