22
gdb 120457	3.51188	0.84929	0.74494	3.3411	85.34	-0.2403	0.0378	0.2781	1630.0208	0.193447	-404.383842	-404.373502	-404.372558	-404.419894	36.392	
C	 0.0783168908	 1.5672585369	-0.0480152017	-0.38356
C	-0.0015543724	 0.039159391	-0.0743095385	-0.166442
C	-1.4282940898	-0.4869361719	 0.1328456032	-0.190183
C	-1.5086343178	-2.009347759	 0.0555034894	-0.147135
C	-2.9220096288	-2.6710357917	 0.0316535783	-0.206115
N	-2.5882576224	-3.1958248651	-1.2934649085	-0.06753
C	-3.3263755869	-3.9897496154	-2.2388854867	-0.344058
C	-1.3398404659	-2.6296306654	-1.3547584828	 0.412323
O	-0.4943134064	-2.6320296295	-2.215213978	-0.385543
H	 1.1067806234	 1.9134850192	-0.1891415139	 0.113788
H	-0.5323887199	 2.0096173427	-0.8430350501	 0.114532
H	-0.2805075774	 1.969911684	 0.9063113239	 0.109152
H	 0.3813746604	-0.3438195941	-1.0264724546	 0.133592
H	 0.6495845466	-0.3765176119	 0.7062403117	 0.092124
H	-1.8110135548	-0.1513339614	 1.1063412227	 0.094291
H	-2.0932822034	-0.0517945103	-0.6260703491	 0.097048
H	-0.8368722418	-2.4715851404	 0.7859382991	 0.097004
H	-3.1013282119	-3.4439150806	 0.7878997344	 0.106097
H	-3.7599880378	-1.9632432848	 0.0298710847	 0.10609
H	-4.2539193866	-3.4919422397	-2.5487712625	 0.12634
H	-2.6923641758	-4.1305736251	-3.117749717	 0.16126
H	-3.5834408918	-4.9735426676	-1.8269149941	 0.126925
61.7198	89.0214	99.2648	125.6696	155.4961	191.4154	242.4693	246.291	262.9641	343.982	402.8219	514.031	662.4141	725.7373	763.1442	787.4175	867.2879	892.5373	905.8511	975.4517	1010.5687	1038.4815	1051.864	1106.3184	1120.7284	1128.3329	1159.3935	1181.622	1208.0359	1252.2764	1254.9465	1298.6291	1306.61	1333.548	1367.5697	1394.1423	1412.2794	1421.7707	1448.8545	1482.6621	1486.7252	1495.5883	1499.8323	1511.9018	1512.812	1533.9871	1863.0101	3004.2727	3011.0158	3020.9348	3021.6821	3027.6766	3037.2716	3059.0672	3061.5352	3071.0078	3074.2968	3097.1893	3102.6655	3127.4763
CCCC1CN(C)C1=O	CCC[C@H]1CN(C)C1=O	
InChI=1S/C7H13NO/c1-3-4-6-5-8(2)7(6)9/h6H,3-5H2,1-2H3	InChI=1S/C7H13NO/c1-3-4-6-5-8(2)7(6)9/h6H,3-5H2,1-2H3/t6-/m0/s1
