21
gdb 80599	2.66413	1.44861	1.22701	3.0094	81.7	-0.2303	-0.0001	0.2303	1123.3114	0.183656	-387.101534	-387.093177	-387.092233	-387.133989	33.216	
C	-0.1166723069	 1.5471666821	-0.110345889	-0.411364
C	 0.0673079831	 0.0304063864	-0.0392833177	 0.007186
C	 0.9290788617	-0.5584791479	-1.1892522553	-0.145128
C	 2.3893542308	-0.3250873967	-0.6757926151	-0.255927
C	 1.9848994386	-1.3222503812	 0.4611331551	-0.145127
C	 0.8660974506	-0.5474256269	 1.2093230309	 0.007186
C	 1.3840998047	 0.4615296702	 2.2355506185	-0.411364
C	 1.1604758946	-1.984306687	-0.6574862546	 0.432077
O	 0.929531407	-3.0978269439	-1.0250595145	-0.331243
H	 0.8339325986	 2.0875656605	-0.1379641492	 0.1166
H	-0.6748312682	 1.8158965687	-1.013253884	 0.116807
H	-0.6841037838	 1.9186162268	 0.7486982572	 0.118692
H	-0.9287609046	-0.4247654258	-0.0672442341	 0.084352
H	 0.6206428347	-0.3562010671	-2.2136500291	 0.078247
H	 3.1486274568	-0.7282354191	-1.3481023648	 0.117205
H	 2.6530821425	 0.689696995	-0.3748819953	 0.107101
H	 2.7131152055	-1.8698782105	 1.0571580959	 0.078247
H	 0.2282694618	-1.2617415149	 1.7413426885	 0.084352
H	 2.0741352242	 1.1904348466	 1.8008202534	 0.116601
H	 0.5611897857	 1.0176451599	 2.6954055603	 0.118692
H	 1.9171454226	-0.0589775752	 3.0380064529	 0.116807
137.9875	141.1384	213.6442	255.422	270.8831	286.6683	323.1365	459.3732	472.3125	508.5621	638.0081	654.1878	727.3364	778.5218	799.2679	839.3346	860.3069	922.0325	982.0764	1011.083	1012.7243	1028.7655	1035.4494	1063.2171	1070.6609	1096.3112	1130.3237	1132.689	1157.4573	1205.2272	1220.3839	1229.506	1251.2329	1312.5232	1317.1734	1377.3324	1380.9959	1411.8058	1419.1622	1488.7894	1494.0661	1498.5965	1508.0891	1517.518	1899.6534	3029.536	3035.6304	3040.2345	3047.2717	3083.	3098.3171	3103.4003	3107.3024	3116.1329	3134.1551	3136.6786	3143.0334
CC1C2CC(C1C)C2=O	C[C@H]1[C@H]2C[C@@H]([C@H]1C)C2=O	
InChI=1S/C8H12O/c1-4-5(2)7-3-6(4)8(7)9/h4-7H,3H2,1-2H3	InChI=1S/C8H12O/c1-4-5(2)7-3-6(4)8(7)9/h4-7H,3H2,1-2H3/t4-,5+,6-,7+
