15
gdb 98942	3.27579	0.97723	0.83741	2.2691	70.41	-0.2542	-0.0531	0.2011	1366.7261	0.110037	-453.928316	-453.918572	-453.917628	-453.964428	33.309	
N	 0.4425704327	 0.909929568	-0.4747159671	-0.4861
C	-0.2443525673	 0.0742286384	 0.4898008476	-0.27473
C	-1.5291055037	-0.5713952385	-0.0121480162	 0.420236
O	-1.9778531393	-0.4846094517	-1.1198074377	-0.333747
O	-2.1278339824	-1.2736767241	 1.0021133783	-0.221256
C	-3.2577464154	-2.0265512016	 0.7159712525	 0.263191
N	-4.2962476539	-1.7831506638	 1.3920377822	-0.450057
C	-3.0819177299	-3.0674050158	-0.2504949939	 0.327857
C	-2.9681540865	-3.9775112858	-1.0281012474	-0.487913
H	 0.6160375354	 0.3737087034	-1.3202744441	 0.239133
H	-0.1712057108	 1.6666388881	-0.7628492588	 0.239211
H	 0.4173157409	-0.7321830712	 0.8296331889	 0.145451
H	-0.487199648	 0.6522799669	 1.3884797696	 0.150397
H	-5.036188215	-2.4426170413	 1.1519700968	 0.246881
H	-2.8666662567	-4.772055231	-1.726672921	 0.221446
43.3778	58.3128	73.9295	126.3885	189.8554	225.0317	260.0841	295.8911	380.1033	482.0495	559.431	609.8865	651.9221	670.7204	681.6215	747.3626	825.1884	890.9781	917.7749	919.548	958.8444	1047.2924	1148.5822	1164.8501	1182.35	1316.9381	1374.6552	1388.3668	1452.0941	1677.9313	1713.3087	1846.5274	2231.2375	3042.3824	3081.6332	3496.7034	3497.5762	3503.0038	3566.8696
NCC(=O)OC(=N)C#C	NCC(=O)O[C]([NH])C#C	
InChI=1S/C5H6N2O2/c1-2-4(7)9-5(8)3-6/h1,7H,3,6H2	InChI=1S/C5H6N2O2/c1-2-4(7)9-5(8)3-6/h1,7H,3,6H2
