15
gdb 77430	1.94619	1.69962	1.68213	0.4141	60.05	-0.2339	0.042	0.2759	943.2977	0.109592	-494.78926	-494.78109	-494.780146	-494.821406	31.704	
O	 0.1313734226	 1.3929027842	-0.0650136113	-0.424471
C	-0.0624378287	 0.023926908	 0.0637911438	-0.014871
C	-0.4469274555	-0.7825737512	 1.2835858127	 0.215739
O	 0.30898315	-1.7979019826	 1.827352853	-0.444082
C	-1.6460243516	-0.1581922578	 2.0683021084	-0.043048
O	-2.0412060441	 1.0984206184	 1.4644652305	-0.271136
C	-2.4837036066	-0.1515239602	 0.8797184029	-0.043055
C	-1.3448095828	-0.7753671018	 0.0096631693	 0.215798
O	-1.6080553225	-1.782418511	-0.8928448828	-0.444097
H	-0.5844769083	 1.8009919216	 0.4417871479	 0.29675
H	 0.7108271517	-0.5163485532	-0.4843495498	 0.115894
H	 1.1622537116	-1.4367306247	 2.0933666453	 0.296372
H	-1.8810248892	-0.3165643194	 3.1139640694	 0.123907
H	-3.5483447259	-0.3031035685	 0.7483183067	 0.123918
H	-1.5687959606	-1.414807442	-1.783119356	 0.296381
141.7201	206.2067	255.7031	260.5749	272.744	284.4113	346.3398	379.8339	435.2294	560.932	586.5104	603.895	683.7902	731.5038	778.4624	792.2148	808.687	873.2389	945.5154	976.6497	1055.172	1084.4671	1127.3071	1150.1834	1185.2885	1225.6458	1275.7659	1284.5136	1300.3599	1352.1669	1368.9173	1432.9298	1513.3166	3116.0166	3188.7179	3203.6465	3740.0885	3788.2147	3788.4331
OC1C2(O)C3OC3C12O	O[C@H]1[C@@]2(O)[C@H]3O[C@H]3[C@@]12O	
InChI=1S/C5H6O4/c6-3-4(7)1-2(9-1)5(3,4)8/h1-3,6-8H	InChI=1S/C5H6O4/c6-3-4(7)1-2(9-1)5(3,4)8/h1-3,6-8H/t1-,2+,3-,4-,5+
