17
gdb 16311	3.09796	1.94469	1.40412	3.4648	68.68	-0.2416	0.011	0.2526	921.6981	0.142392	-363.863053	-363.855357	-363.854413	-363.895187	28.818	
C	-0.2025791536	 1.518335018	-0.0069751015	-0.37797
C	 0.0438079886	 0.0049212734	 0.0771902877	-0.299801
C	 0.777508763	-0.5130238078	-1.127612652	 0.198765
C	 0.1048300026	-0.9497221637	-2.4382233124	-0.325055
C	 0.9882418718	-1.9060197217	-1.6981517543	-0.067398
N	 2.4069082875	-1.6037348373	-1.9185754819	-0.34584
C	 2.2458449304	-0.2753409917	-1.4723215931	 0.376088
O	 3.0116377422	 0.6451339262	-1.4081225818	-0.345621
H	 0.7437639287	 2.0541622704	-0.1218734752	 0.148278
H	-0.8345378619	 1.7657238187	-0.8661626944	 0.116081
H	-0.6992328195	 1.8844244083	 0.8964271375	 0.111249
H	 0.6262105975	-0.2224232162	 0.9784843476	 0.112847
H	-0.9095128583	-0.5278180665	 0.1809109647	 0.099059
H	-0.9674488796	-1.1086870114	-2.3524520564	 0.121824
H	 0.4264817299	-0.5434281974	-3.3932099468	 0.12116
H	 0.6831940907	-2.8579415613	-1.2839370462	 0.115984
H	 2.9022994199	-1.83629795	-2.7728968716	 0.24035
74.3583	137.5464	205.0922	220.6485	292.1802	358.9643	457.1206	480.4665	609.1885	685.0734	716.8949	776.2357	786.7608	858.175	884.4954	916.2391	972.5452	986.7327	1000.899	1048.9065	1085.228	1101.3311	1121.3445	1142.8766	1236.8922	1275.3006	1314.9314	1324.5838	1350.0905	1400.2677	1413.3397	1482.7047	1490.1002	1497.4359	1511.2966	1888.5731	3023.809	3039.6327	3057.5725	3108.2103	3108.9468	3122.0653	3194.9443	3206.278	3536.7837
CCC12CC1NC2=O	CC[C@]12C[C@H]1NC2=O	
InChI=1S/C6H9NO/c1-2-6-3-4(6)7-5(6)8/h4H,2-3H2,1H3,(H,7,8)	InChI=1S/C6H9NO/c1-2-6-3-4(6)7-5(6)8/h4H,2-3H2,1H3,(H,7,8)/t4-,6+/m1/s1
