18
gdb 33239	6.49162	0.71956	0.65567	0.3479	74.96	-0.2142	0.005	0.2191	1691.4219	0.147673	-439.111572	-439.102723	-439.101778	-439.146575	31.271	
C	 0.0221679756	 1.5121770353	 0.0084486994	-0.38401
C	-0.0459203211	-0.0174041087	 0.0030152526	-0.186883
C	-1.479547997	-0.5229231214	 0.0136415954	-0.046779
O	-1.4307226034	-1.9563237968	 0.0078287082	-0.280404
C	-2.6047323307	-2.6006899064	 0.0146300887	 0.347608
C	-2.7951185914	-3.9482860208	 0.0100906257	-0.160943
O	-4.1547555957	-4.1594519831	 0.0205546982	-0.137578
C	-4.6908752272	-2.9302139932	 0.0306090646	 0.085179
N	-3.8309086365	-1.959572035	 0.0277882657	-0.338635
H	 1.0598610478	 1.8570824085	 0.0006409095	 0.119087
H	-0.4764364043	 1.9374631643	-0.8693551256	 0.119519
H	-0.4608222811	 1.9304801528	 0.898254685	 0.119521
H	 0.4623150488	-0.4174178396	-0.8818784533	 0.108681
H	 0.4777577952	-0.4243394585	 0.8756651618	 0.108691
H	-2.0197445176	-0.1764476545	 0.9031264709	 0.114004
H	-2.0352320099	-0.1697905162	-0.8635881322	 0.114017
H	-2.157309404	-4.8118258881	 0.000837165	 0.146699
H	-5.7672202576	-2.8626225686	 0.0399193305	 0.152226
46.3958	58.0029	114.1398	131.5759	234.3953	291.5471	327.9836	340.2052	517.027	639.2226	664.8185	736.7235	743.6747	764.2651	828.3057	895.1578	913.6857	936.4468	984.6473	1047.7976	1070.5532	1084.7685	1142.2309	1166.2084	1188.244	1250.3932	1267.6134	1313.7236	1333.2199	1336.1377	1347.7183	1413.5622	1422.0038	1492.4801	1501.6667	1506.1142	1521.7916	1549.1169	1657.352	3022.8771	3034.2279	3040.2112	3056.2597	3078.6171	3103.5446	3111.2565	3275.9422	3316.9046
CCCOC1=COC=N1	CCCOc1cocn1	
InChI=1S/C6H9NO2/c1-2-3-9-6-4-8-5-7-6/h4-5H,2-3H2,1H3	InChI=1S/C6H9NO2/c1-2-3-9-6-4-8-5-7-6/h4-5H,2-3H2,1H3
