13
gdb 15488	3.5643	1.98596	1.28548	0.992	62.55	-0.2644	-0.047	0.2174	869.4691	0.096883	-394.82106	-394.814327	-394.813383	-394.852294	24.212	
N	-0.1137638301	 1.2960609979	 0.0075221808	-0.525038
C	-0.0193106939	 0.0366295335	 0.0004658428	 0.377659
C	-1.1820173498	-0.9483715308	 0.0020639342	-0.237169
N	-0.5962031048	-2.292605256	-0.0082307726	-0.244152
C	 0.6647918825	-2.1458469326	-0.0146710227	 0.081973
N	 1.1264780207	-0.8117607578	-0.0105049967	-0.143393
C	 2.460479112	-0.4464335391	-0.0165694962	 0.163862
O	 3.3722818477	-1.2353392057	-0.0261614485	-0.292841
H	 0.7850225744	 1.7778905944	 0.0048567557	 0.228499
H	-1.8134228286	-0.8120173301	 0.8861912237	 0.158851
H	-1.8235121944	-0.8029563907	-0.8733147557	 0.15885
H	 1.4007251095	-2.9397821999	-0.0230045794	 0.174447
H	 2.5993847249	 0.648715217	-0.0120472455	 0.098453
107.5442	161.184	219.2763	245.5664	387.2521	472.4679	572.6596	579.3623	657.8175	786.9921	864.7541	901.5303	940.1421	975.537	1002.3429	1010.9379	1027.0281	1188.9837	1191.4585	1239.932	1281.2568	1309.0056	1382.6207	1438.9585	1453.0664	1700.4383	1769.4591	1809.9218	2982.5019	3058.0338	3091.3736	3236.0672	3481.2711
N=C1CN=CN1C=O	[NH][C]1CN=CN1C=O	
InChI=1S/C4H5N3O/c5-4-1-6-2-7(4)3-8/h2-3,5H,1H2	InChI=1S/C4H5N3O/c5-4-1-6-2-7(4)3-8/h2-3,5H,1H2
