18
gdb 109475	2.10004	1.73017	0.99256	2.6624	75.59	-0.2147	-0.0133	0.2014	1187.8511	0.146554	-439.11874	-439.109467	-439.108523	-439.152874	33.427	
C	-0.1251922572	 1.3991575144	 0.1054193819	-0.242469
O	 0.1716094346	 0.021829201	-0.0740298605	-0.248429
C	 0.7207380517	-0.6002471217	 1.0641179669	-0.086067
C	-0.3417743608	-0.9223142831	 2.1578127162	 0.409165
O	-1.1419063324	-0.1697191353	 2.6653140612	-0.367124
N	-0.1924006378	-2.2657095264	 2.4252430518	-0.335779
C	 0.7382971143	-2.8543116298	 1.5423897413	-0.118625
C	 1.2974220606	-1.9567117016	 0.7252467159	 0.244521
C	 2.3201659922	-2.164856699	-0.3390608981	-0.496252
H	 0.7818844282	 1.9655674202	 0.3692360792	 0.100698
H	-0.5045215644	 1.7626825466	-0.85239348	 0.123728
H	-0.8776458368	 1.5528762523	 0.8848065897	 0.147789
H	 1.4884207369	 0.0511234559	 1.5221432654	 0.09268
H	-0.8396813872	-2.7738593568	 3.0057576879	 0.259583
H	 0.9275325217	-3.9169225826	 1.609791085	 0.12822
H	 2.5651158423	-3.224520286	-0.4552982945	 0.120515
H	 1.9569740278	-1.7859941725	-1.3008816599	 0.144391
H	 3.2507851364	-1.6258688656	-0.1180770793	 0.123454
74.1965	119.6872	167.7592	173.6621	194.6752	258.337	269.9557	288.3147	388.1131	470.2596	517.5069	543.3893	581.5397	707.5969	752.3952	849.129	889.1574	928.8006	1004.3934	1012.1363	1067.0636	1084.2626	1147.181	1182.5705	1187.7048	1215.9415	1224.9509	1305.1952	1337.0779	1367.5203	1399.3892	1415.8051	1472.8642	1474.3474	1481.2973	1496.1892	1518.1288	1725.4483	1831.0689	2931.7333	2983.7555	3018.028	3071.3491	3081.4483	3109.2088	3127.9779	3230.4283	3650.9021
COC1C(=O)NC=C1C	CO[C@H]1C(=O)NC=C1C	
InChI=1S/C6H9NO2/c1-4-3-7-6(8)5(4)9-2/h3,5H,1-2H3,(H,7,8)	InChI=1S/C6H9NO2/c1-4-3-7-6(8)5(4)9-2/h3,5H,1-2H3,(H,7,8)/t5-/m1/s1
