19
gdb 76775	2.21552	1.65079	1.10572	3.2491	77.52	-0.2317	-0.0186	0.2131	1141.3807	0.157422	-423.022727	-423.013437	-423.012493	-423.057078	34.323	
C	-0.6873503014	 1.274422399	 0.1129720503	-0.407649
C	-0.0090645274	-0.084964972	-0.0176346437	-0.150467
C	 0.8944812688	-0.3410378794	-1.2899666623	-0.03318
O	 1.1189289821	 0.7686339222	-2.1351303398	-0.419027
C	 2.0912462027	-0.5815039888	-0.3653806489	 0.246643
C	 3.2327197332	-1.5687571236	-0.4862490298	-0.322679
C	 3.514875289	-0.1075921665	-0.5760189772	-0.294813
C	 1.2532282564	-0.312297684	 0.8452042312	 0.340087
O	 1.4748967371	-0.2751297896	 2.0248535951	-0.326122
H	 0.0099523978	 2.081907637	-0.1231264879	 0.134604
H	-1.5446068017	 1.3579910125	-0.5639185001	 0.108986
H	-1.0497137969	 1.4167221662	 1.134929504	 0.136462
H	-0.7308183322	-0.8952809915	 0.1402358948	 0.095296
H	 0.5874795232	-1.2206251601	-1.8707283824	 0.06967
H	 0.3376438872	 0.8946049853	-2.6831961877	 0.287867
H	 3.5088024553	-2.0952898982	 0.4213837166	 0.134384
H	 3.2700605653	-2.161764875	-1.3942222245	 0.124118
H	 3.7232499636	 0.3265580389	-1.5469545678	 0.139996
H	 3.9874394979	 0.3829763677	 0.2680218903	 0.135827
37.755	167.0911	186.3156	189.4768	211.7134	218.8738	239.0719	295.954	370.8418	499.1529	554.0208	588.6527	710.7562	738.9257	788.0411	801.8488	846.9041	893.8291	938.4063	949.3005	1008.7117	1027.494	1053.1004	1073.4212	1091.7402	1130.4964	1147.9353	1178.1276	1201.2156	1224.341	1257.1713	1284.3111	1314.6741	1365.6687	1401.7993	1429.5649	1458.8341	1490.6299	1493.4257	1501.6354	1873.9212	3010.0562	3037.2369	3044.4924	3104.7238	3128.3706	3129.2672	3140.5203	3216.168	3236.8446	3817.6305
CC1C(O)C2(CC2)C1=O	C[C@H]1[C@@H](O)C2(CC2)C1=O	
InChI=1S/C7H10O2/c1-4-5(8)7(2-3-7)6(4)9/h4-5,8H,2-3H2,1H3	InChI=1S/C7H10O2/c1-4-5(8)7(2-3-7)6(4)9/h4-5,8H,2-3H2,1H3/t4-,5+/m0/s1
