17
gdb 96615	2.33794	1.23218	0.95864	4.265	73.61	-0.234	-0.0657	0.1683	1285.174	0.13192	-455.176523	-455.165881	-455.164937	-455.213132	36.157	
C	 0.2025339166	 1.1995311605	 0.6030338103	-0.346749
N	 0.0832829633	-0.2103258366	 0.2841050767	-0.275046
C	-1.0635576743	-0.6395087579	-0.092286292	 0.285183
N	-2.234423212	 0.0365630633	-0.2705388946	-0.559925
C	-1.156962338	-2.1113611778	-0.3789660208	 0.29096
O	-2.2180181237	-2.6656261241	-0.5658074055	-0.32415
C	 0.1727467813	-2.8859793717	-0.4596419247	 0.346311
C	 0.6404997207	-3.5695262247	 0.7986586256	-0.499233
O	 0.719977251	-2.9545585895	-1.5321557193	-0.287289
H	 1.2316649035	 1.4264754009	 0.8887173404	 0.134415
H	-0.062979562	 1.8352804891	-0.2553916306	 0.127056
H	-0.4502451509	 1.4919342448	 1.4418802798	 0.113158
H	-2.3649762887	 0.9446347941	 0.1404192447	 0.26368
H	-3.0531059522	-0.5384683562	-0.4056135565	 0.27392
H	-0.1580669308	-4.2028109532	 1.2008545611	 0.150386
H	 1.5283045548	-4.1686637908	 0.5898850284	 0.145644
H	 0.8683160613	-2.8055340301	 1.5494662169	 0.161679
37.4965	74.4388	121.1838	129.3268	140.7832	159.2724	251.9473	263.9106	309.6257	328.8118	351.1749	455.1054	529.1906	567.3117	603.3873	633.1223	737.9196	801.3652	947.2981	985.3366	1015.8639	1079.9997	1097.3865	1106.8488	1202.1965	1241.2893	1370.0338	1384.3503	1429.5649	1461.1081	1467.5149	1488.4379	1500.8063	1608.5889	1726.3095	1785.7418	1816.9059	2967.0423	3017.8961	3039.0876	3108.2292	3113.3518	3149.9703	3583.3673	3716.4211
CN=C(N)C(=O)C(C)=O	CN=C(N)C(=O)C(=O)C	
InChI=1S/C5H8N2O2/c1-3(8)4(9)5(6)7-2/h1-2H3,(H2,6,7)	InChI=1S/C5H8N2O2/c1-3(8)4(9)5(6)7-2/h1-2H3,(H2,6,7)
