19
gdb 12535	3.3607	1.80474	1.2521	2.3096	72.62	-0.2395	0.02	0.2595	989.9919	0.16703	-365.074179	-365.066292	-365.065348	-365.106562	29.501	
C	-0.1854126854	 1.509152099	 0.0368099974	-0.404579
C	 0.0313782729	-0.0106970475	-0.0000635305	 0.011987
C	 0.6962751029	-0.447075105	-1.3091455772	-0.202347
C	 0.7321072537	-1.9629832042	-1.5296914723	-0.157822
N	 1.5146846248	-2.7903600646	-0.6276168503	-0.24313
C	 1.5232963423	-2.6974615361	 0.6279296508	 0.11421
O	 0.9340084476	-1.8244887557	 1.4931834369	-0.233847
C	 0.8679754234	-0.4243724883	 1.2099930068	-0.056736
H	 0.7689087696	 2.046204831	-0.0173251645	 0.118364
H	-0.7953835572	 1.8354365903	-0.8106356007	 0.119894
H	-0.6926462309	 1.8211003556	 0.9556142843	 0.115908
H	-0.9457303582	-0.5071606224	 0.0838564286	 0.080769
H	 0.1579122437	-0.0041945103	-2.1566649718	 0.094788
H	 1.7192285295	-0.0472063367	-1.3478062119	 0.09803
H	-0.3006019205	-2.3445928608	-1.5123914778	 0.110973
H	 1.1050674324	-2.1563793048	-2.5414896788	 0.105352
H	 2.0444717779	-3.4624674561	 1.2063489641	 0.113689
H	 1.8921996341	-0.0404968351	 1.0925623697	 0.102721
H	 0.4503001473	 0.0077532717	 2.1235874174	 0.111776
61.1165	166.5934	207.2889	222.085	303.7612	325.4645	386.94	427.8104	499.0135	558.1165	741.8834	815.9254	841.3617	888.4199	953.0298	953.4273	971.57	983.1864	997.0653	1057.9717	1108.7774	1146.901	1161.292	1179.5347	1229.4152	1289.6376	1315.8059	1332.5345	1355.4323	1380.9936	1397.9673	1406.8717	1430.813	1433.6976	1477.3468	1489.2968	1495.9055	1497.9989	1502.721	1760.4457	2991.7297	2997.5017	3007.1159	3016.0928	3029.8292	3053.6206	3054.2587	3087.5612	3096.1907	3107.6922	3120.8218
CC1CCN=COC1	C[C@H]1CCN=COC1	
InChI=1S/C6H11NO/c1-6-2-3-7-5-8-4-6/h5-6H,2-4H2,1H3	InChI=1S/C6H11NO/c1-6-2-3-7-5-8-4-6/h5-6H,2-4H2,1H3/t6-/m0/s1
