13
gdb 57234	3.09417	0.82011	0.74382	3.1987	77.11	-0.3129	-0.0738	0.2391	1481.5179	0.086877	-415.592533	-415.583257	-415.582312	-415.627014	32.345	
C	-0.0062026781	 1.5403347975	 0.0518714179	-0.391852
C	 0.0051898956	 0.0017117723	 0.002712414	-0.025584
O	 0.6969008708	-0.4307012712	 1.1606608411	-0.402154
C	-1.389968742	-0.5136583887	 0.0131494039	 0.279701
N	-2.4690759742	-0.9238147775	 0.0489909562	-0.318989
C	 0.6692459758	-0.4762576371	-1.2225972056	 0.205361
C	 1.2470009652	-0.869831435	-2.2063223846	-0.021957
C	 1.9004853216	-1.3137776858	-3.3210097439	 0.218348
N	 2.457980292	-1.6901178946	-4.267353373	-0.319251
H	 1.025736917	 1.8955777017	 0.049927981	 0.15579
H	-0.5381855901	 1.9490752293	-0.8084921625	 0.154696
H	-0.498896068	 1.8568895915	 0.9730807529	 0.159266
H	 0.7296856145	-1.3954291824	 1.1651623527	 0.306626
70.5339	89.5733	177.0387	184.5564	234.4969	239.3861	278.595	348.7152	368.3135	456.2071	491.2073	521.4587	575.9531	586.1619	617.2193	657.8763	857.2012	946.3466	1024.6518	1080.8101	1166.3673	1228.2654	1359.6539	1403.8054	1478.3188	1484.9492	2268.4392	2359.054	2405.209	3065.3987	3155.5605	3159.236	3793.9136
CC(O)(C#N)C#CC#N	C[C@@](O)(C#N)C#CC#N	
InChI=1S/C6H4N2O/c1-6(9,5-8)3-2-4-7/h9H,1H3	InChI=1S/C6H4N2O/c1-6(9,5-8)3-2-4-7/h9H,1H3/t6-/m0/s1
