20
gdb 103846	2.76288	1.01657	0.8974	4.1531	76.15	-0.2382	0.0599	0.2981	1379.6387	0.16913	-440.229867	-440.220049	-440.219105	-440.264995	35.543	
C	-0.5583681979	 1.7603419826	 0.6507187931	-0.452702
C	-0.1096498988	 0.4233178812	 0.0983210526	 0.287412
C	-1.2527955918	-0.3886122614	-0.4918526287	-0.146223
O	-0.7330031592	-1.5664501715	-1.0875661032	-0.418376
N	 1.1752208229	 0.4099787299	-0.6129999828	-0.385014
C	 1.0491862586	-0.324573423	 0.6653049605	-0.066723
C	 1.8729869824	 0.1587811913	 1.8118887778	 0.08101
C	 1.8272539077	-0.5093713729	 3.1196568699	-0.183715
O	 2.9289600615	-0.7134747561	 2.2371211552	-0.236933
H	 0.2939084972	 2.3524027757	 0.986684625	 0.132833
H	-1.0789120229	 2.3395019466	-0.1207856296	 0.117564
H	-1.2448946599	 1.6303255778	 1.4950438025	 0.115126
H	-1.9791653821	-0.6271733511	 0.3015790501	 0.096144
H	-1.7743182213	 0.2314557224	-1.2395300538	 0.094513
H	-1.4511675968	-2.0331014285	-1.5227733555	 0.296652
H	 1.1237601014	-0.2621218278	-1.3761564898	 0.24096
H	 0.9899091426	-1.4085012697	 0.6049993976	 0.105349
H	 2.1584920202	 1.208791715	 1.7758962407	 0.101659
H	 2.0449294203	 0.0552761857	 4.0255938498	 0.112129
H	 1.174080356	-1.3708421663	 3.2584348385	 0.108335
58.6966	99.9249	138.9429	149.2398	181.4154	213.9375	258.5395	335.4912	362.3707	369.5118	443.4945	496.0581	573.6755	710.9663	822.1804	850.7108	868.6563	914.9193	951.433	990.5656	1012.8203	1031.5442	1082.2863	1099.0894	1101.0844	1126.3076	1146.8396	1155.9153	1170.7982	1215.0937	1242.9936	1261.7796	1290.3474	1311.3026	1337.3123	1391.1495	1419.249	1456.5711	1476.7683	1492.4254	1503.9132	1520.423	1533.1533	2962.0853	2991.9096	3031.2859	3076.4826	3087.83	3124.6974	3140.2363	3149.0068	3162.1281	3494.6727	3849.1856
CC1(CO)NC1C1CO1	C[C@@]1(CO)N[C@H]1[C@H]1CO1	
InChI=1S/C6H11NO2/c1-6(3-8)5(7-6)4-2-9-4/h4-5,7-8H,2-3H2,1H3	InChI=1S/C6H11NO2/c1-6(3-8)5(7-6)4-2-9-4/h4-5,7-8H,2-3H2,1H3/t4-,5+,6+/m1/s1
