17
gdb 106661	2.83885	1.22186	1.02522	2.2183	70.96	-0.2442	-0.0137	0.2305	1178.4819	0.13433	-458.943114	-458.934255	-458.933311	-458.976981	32.811	
O	 0.2439332642	 1.3079049213	-0.1135182688	-0.40878
C	 0.0465183884	-0.0688358936	 0.1843435477	-0.167867
C	-1.3930443168	-0.4789335294	 0.1169331904	 0.213896
C	-2.0850195424	-0.9156835249	-1.1414844092	-0.383205
C	-1.9891532253	-1.9611054858	-0.0715626958	 0.284437
O	-1.4167389915	-3.170804046	-0.3449683641	-0.444443
C	-2.8244665688	-1.6740906397	 1.1226424974	 0.327094
O	-3.2673852603	-2.4318883307	 1.9477530073	-0.339049
C	-2.4621087134	-0.1674609974	 1.1719499431	-0.40077
H	-0.0765513252	 1.4611661069	-1.0086810287	 0.283567
H	 0.6412263978	-0.7163863539	-0.4785723345	 0.100496
H	 0.4297818019	-0.200407666	 1.2018867349	 0.118308
H	-3.0433272533	-0.4892027511	-1.4300776159	 0.123646
H	-1.4302144489	-1.1457026448	-1.9790053814	 0.134095
H	-1.3978021353	-3.669586887	 0.4828877881	 0.304571
H	-2.0711117641	 0.1039768713	 2.1559169302	 0.134586
H	-3.2379231571	 0.5453793406	 0.8791528093	 0.119418
73.1997	88.9784	131.0279	222.9394	266.649	312.7221	371.1282	388.8537	422.773	474.5147	511.38	575.7981	666.676	705.0012	745.3965	785.9156	894.6263	940.1397	980.245	998.2197	1021.6732	1049.8871	1093.4778	1113.1393	1130.5393	1164.4899	1204.3411	1285.9781	1331.9149	1376.3804	1387.2044	1420.0271	1427.5447	1466.2804	1494.0645	1507.7486	1840.8176	2985.8922	3058.5533	3071.0561	3098.2974	3117.0048	3184.7365	3766.3009	3810.5226
OCC12CC1(O)C(=O)C2	OC[C@@]12C[C@]1(O)C(=O)C2	
InChI=1S/C6H8O3/c7-3-5-1-4(8)6(5,9)2-5/h7,9H,1-3H2	InChI=1S/C6H8O3/c7-3-5-1-4(8)6(5,9)2-5/h7,9H,1-3H2/t5-,6+/m1/s1
