23
gdb 118241	4.45299	0.60859	0.58369	2.7654	83.28	-0.2595	0.0674	0.327	2002.6847	0.203466	-425.408839	-425.398118	-425.397173	-425.445646	38.468	
C	 0.0214416312	 1.5501904138	-0.04240713	-0.382183
C	-0.0195854477	 0.0206826232	-0.0815514184	-0.163704
C	-1.4374996802	-0.545899383	 0.0467544177	-0.190073
C	-1.4849439799	-2.0769729436	 0.0737827629	 0.128528
O	-0.7056817612	-2.6110863385	 1.1460372138	-0.432876
C	-2.9221508972	-2.6191563994	 0.1231517092	-0.249248
C	-2.9684355857	-4.1237425194	 0.0174641514	 0.10283
C	-4.0935651965	-4.8310865667	-0.6033762803	-0.183765
O	-2.8616055924	-4.6634086843	-1.3063078488	-0.239475
H	 1.0456136295	 1.9235272545	-0.139829709	 0.113043
H	-0.5701158394	 1.9863333546	-0.8553595264	 0.112372
H	-0.3835314581	 1.9346921735	 0.9007539548	 0.110229
H	 0.4229269991	-0.335839217	-1.0208915355	 0.09748
H	 0.6005090572	-0.3943633915	 0.7201913344	 0.107351
H	-1.9095002089	-0.1613545297	 0.9652101488	 0.078997
H	-2.0594236254	-0.1866690091	-0.7838923772	 0.096265
H	-1.0023654012	-2.4670915043	-0.8309824889	 0.105005
H	-1.0543745324	-2.2448149921	 1.9671523989	 0.274789
H	-3.3917153085	-2.3026972452	 1.0666964399	 0.087412
H	-3.5113625057	-2.1857092318	-0.6929571799	 0.103646
H	-2.3699905962	-4.65528677	 0.7566531471	 0.102555
H	-4.3276833775	-5.8518293751	-0.3034172261	 0.112661
H	-4.9360272729	-4.2607420189	-0.9944220482	 0.108159
53.9698	64.6453	91.741	114.6506	128.1969	207.4952	249.0125	304.396	314.4576	349.4819	367.6683	436.4266	481.4842	580.1078	746.6088	788.9437	847.3464	853.6645	880.4063	907.6732	954.0046	970.3044	1030.1217	1040.8414	1076.8057	1086.4277	1106.2528	1132.4534	1149.6014	1159.9795	1170.5487	1219.2169	1244.3685	1273.9748	1295.5011	1306.9806	1324.7522	1357.5794	1374.9987	1397.29	1413.9967	1419.8871	1445.7757	1459.4408	1480.5665	1494.3144	1500.5406	1511.649	1532.434	2984.2459	3001.4936	3024.993	3028.0977	3034.8281	3047.2087	3068.662	3073.1555	3077.9947	3095.6977	3101.6014	3123.2029	3163.0293	3787.9535
CCCC(O)CC1CO1	CCC[C@@H](O)C[C@H]1CO1	
InChI=1S/C7H14O2/c1-2-3-6(8)4-7-5-9-7/h6-8H,2-5H2,1H3	InChI=1S/C7H14O2/c1-2-3-6(8)4-7-5-9-7/h6-8H,2-5H2,1H3/t6-,7+/m1/s1
