13
gdb 5418	3.68325	2.03472	1.31067	5.1969	63.56	-0.2009	-0.0224	0.1785	853.0018	0.096856	-394.82777	-394.820749	-394.819805	-394.859102	25.6	
N	-0.1012999752	 1.3130100939	 0.0111192224	-0.592633
C	 0.0154298998	 0.0432094303	 0.0034455012	 0.471718
N	 1.1151220779	-0.8035011931	-0.0080026864	-0.376502
C	 0.7156352757	-2.1440733348	-0.0121906328	-0.087084
C	-0.6237147863	-2.1808529453	-0.0043269085	-0.091907
N	-1.0812498258	-0.8502319126	 0.0052760271	-0.113261
C	-2.4127426827	-0.4647416768	 0.0151954085	 0.167687
O	-3.3244368685	-1.2564726861	 0.0163396409	-0.314602
H	 0.8031921121	 1.7763105462	 0.008000985	 0.213552
H	 2.0624321873	-0.4724079939	-0.0102548482	 0.265341
H	 1.4331904799	-2.9465062278	-0.0207514714	 0.150556
H	-1.3268504685	-2.9932837393	-0.0044458511	 0.168712
H	-2.5155111757	 0.6298464294	 0.0212862333	 0.138423
115.4096	149.3006	218.7208	253.2944	333.4657	397.6983	590.7179	598.5348	683.0767	697.9096	713.0441	748.2224	814.8754	837.0777	918.9209	1039.9528	1047.529	1088.9845	1104.2367	1207.0181	1280.5027	1311.9799	1393.3499	1417.6226	1447.5993	1659.123	1753.1014	1802.6886	3050.9257	3284.719	3321.909	3530.4736	3702.9569
N=C1NC=CN1C=O	[NH][C@@H]1NC=CN1C=O	
InChI=1S/C4H5N3O/c5-4-6-1-2-7(4)3-8/h1-3H,(H2,5,6)	InChI=1S/C4H6N3O/c5-4-6-1-2-7(4)3-8/h1-6H/t4-/m1/s1
