23
gdb 59697	1.99845	1.37404	0.9236	2.7805	86.04	-0.2449	-0.0226	0.2223	1358.1294	0.204106	-388.298683	-388.288576	-388.287632	-388.333967	37.345	
C	-0.0758948979	 1.556242755	 0.0532238567	-0.396626
C	 0.0268950695	 0.0313246781	-0.0902606783	 0.00968
C	 0.7980524251	-0.3574868405	-1.3601225422	-0.400984
C	 0.672361354	-0.5782920873	 1.1553290263	 0.065257
C	-0.0198063513	-0.4575121988	 2.5408988597	-0.247604
C	 0.4638954331	-1.8919950289	 2.8724431179	-0.246011
C	 0.7237724947	-2.1453091911	 1.3555965268	-0.121646
C	-0.4093694968	-2.8736120789	 0.6852889189	 0.168966
O	-0.2854601457	-3.6242059776	-0.2508803474	-0.2633
H	 0.9199618267	 2.0086167116	 0.1336110661	 0.112262
H	-0.5715762538	 1.999459623	-0.8163820026	 0.113753
H	-0.6448640004	 1.8411400443	 0.9440888207	 0.114527
H	-0.9954060356	-0.3649179564	-0.1772839628	 0.071392
H	 1.8274374973	 0.0187282808	-1.3182976974	 0.108294
H	 0.8397434304	-1.4425013737	-1.4913814479	 0.138681
H	 0.3256054704	 0.0703244375	-2.2503222336	 0.11133
H	 1.7028636368	-0.2091712243	 1.2320433279	 0.078119
H	 0.302646856	 0.3513661779	 3.2001893628	 0.102662
H	-1.1094282534	-0.4063839677	 2.443056477	 0.104131
H	 1.3982128603	-1.8980732265	 3.4381647994	 0.112866
H	-0.2442470601	-2.5611822512	 3.3690067968	 0.104412
H	 1.6582039722	-2.6320542704	 1.0701021664	 0.088817
H	-1.4188135916	-2.6763078248	 1.1190980886	 0.071023
59.5073	84.3142	118.8734	163.9592	222.2754	232.9811	253.4941	298.9505	325.8724	370.0242	429.7673	471.9586	486.2244	667.4893	755.2844	867.0396	874.9805	884.4169	929.935	942.4493	954.1634	968.4866	991.6106	1007.5805	1026.1517	1083.6897	1120.3384	1145.8794	1185.4882	1201.6623	1218.3464	1244.821	1257.004	1266.9049	1278.0619	1314.0258	1330.163	1349.7283	1395.5272	1401.6324	1424.8547	1437.5448	1483.2273	1488.5751	1493.7546	1500.7595	1506.6063	1512.8391	1818.7524	2842.8721	2994.5041	3024.0956	3025.0612	3031.4232	3049.4158	3060.5432	3089.4177	3094.3749	3095.022	3100.6842	3102.6349	3114.9217	3119.1275
CC(C)C1CCC1C=O	CC(C)[C@H]1CC[C@H]1C=O	
InChI=1S/C8H14O/c1-6(2)8-4-3-7(8)5-9/h5-8H,3-4H2,1-2H3	InChI=1S/C8H14O/c1-6(2)8-4-3-7(8)5-9/h5-8H,3-4H2,1-2H3/t7-,8+/m0/s1
