16
gdb 87035	2.32974	1.50614	1.06631	13.9586	75.61	-0.1807	-0.0196	0.1611	1122.0167	0.122469	-437.799858	-437.790819	-437.789875	-437.833744	33.206	
N	 0.0829246094	 1.0482902918	 0.1211263439	-0.4208
H	 0.8062962989	 0.3764205477	 0.4787424777	 0.300783
H	 0.5751737076	 1.8321502096	-0.3109318508	 0.327148
H	-0.4941710016	 0.5956256354	-0.5898626452	 0.319796
C	-0.6928552719	 1.507224969	 1.3151683823	-0.084077
C	-1.459943572	 0.4806695092	 2.0726126696	-0.318688
C	-0.1570353732	 1.0193799558	 2.6508987168	-0.004438
C	 0.9927026563	 0.1840662214	 2.539320066	 0.248786
C	 1.9582781547	-0.4952057037	 2.268790206	-0.448571
C	-0.3060750495	 2.1340651279	 3.8242301085	 0.333097
O	 0.5419526544	 2.0580105385	 4.7038745514	-0.441476
O	-1.2759215684	 2.8727526004	 3.5887312375	-0.473177
H	-1.0303345356	 2.5344928323	 1.2641293951	 0.170199
H	-2.3590285324	 0.8467463476	 2.5544125985	 0.173292
H	-1.4798882518	-0.5392526813	 1.6990219618	 0.114554
H	 2.836570825	-1.0894535416	 2.1948837809	 0.203574
59.659	141.7431	158.068	170.2001	234.2568	250.9375	333.6893	381.521	433.3453	473.0771	556.7955	593.0687	632.8897	672.5332	734.4464	757.3718	803.7124	847.0646	867.743	937.0997	983.8165	1025.858	1084.4291	1109.8771	1165.4343	1173.9622	1256.2058	1312.3236	1357.4549	1446.4925	1472.6862	1632.4198	1642.877	1843.6726	2178.2214	3012.5003	3124.6085	3213.2499	3233.1445	3448.5184	3486.4018	3514.2716
[NH3+]C1CC1(C#C)C([O-])=O	[NH3][C@H]1C[C@]1(C#C)C(=O)[O]	
InChI=1S/C6H7NO2/c1-2-6(5(8)9)3-4(6)7/h1,4H,3,7H2,(H,8,9)	InChI=1S/C6H7NO2/c1-2-6(5(8)9)3-4(6)7/h1,4H,3H2,7H3/t4-,6-/m0/s1
