19
gdb 98075	2.74795	1.0503	0.90647	2.7702	75.72	-0.2376	-0.0505	0.1871	1359.5994	0.156699	-456.345998	-456.335416	-456.334472	-456.382665	36.527	
C	-0.1293979753	 1.1606261066	-0.6095668779	-0.324903
N	-0.3591553773	-0.2341568315	-0.2603338331	-0.078941
C	 0.8069855763	-1.0966367418	-0.3886462049	-0.348627
C	-1.3043215773	-0.4937116969	 0.7040354775	 0.310604
N	-1.9723692513	 0.4396632347	 1.2727213557	-0.528608
C	-1.6466951204	-1.9517468825	 0.9573011789	 0.243423
O	-1.6192174279	-2.4393708833	 2.0675130709	-0.317507
C	-2.1973996896	-2.767465413	-0.2071605849	-0.133686
O	-2.5095274445	-4.0676304978	 0.1912218708	-0.418711
H	 0.3926368423	 1.2003849666	-1.5699431127	 0.119533
H	-1.0863279094	 1.6762989216	-0.683861014	 0.159163
H	 0.4769879889	 1.6805027944	 0.1454230315	 0.127166
H	 1.6435602246	-0.7435885149	 0.2324139829	 0.130689
H	 0.5760195934	-2.1178811698	-0.0803366371	 0.146337
H	 1.1412660541	-1.1204088275	-1.4308941466	 0.134399
H	-2.668052272	 0.0465608824	 1.9047014656	 0.230566
H	-3.0836290091	-2.2236112888	-0.5811128838	 0.126375
H	-1.4753007581	-2.7701351696	-1.0355930463	 0.127131
H	-2.3835554674	-4.0767000689	 1.1536979775	 0.295598
31.9021	74.6061	99.4495	131.9177	170.5182	207.1479	215.1402	273.1991	342.6269	347.0157	377.6187	412.7739	446.5297	569.4399	664.0103	697.9317	795.1783	824.005	919.8455	1011.1738	1052.6326	1080.4528	1116.8272	1126.1257	1154.8869	1174.6924	1231.0881	1245.483	1300.955	1316.9536	1434.8485	1445.2186	1449.5003	1472.0467	1476.1977	1484.7703	1491.6851	1504.0479	1532.6911	1670.9955	1784.2471	2957.7008	2996.9893	3011.0251	3024.8398	3072.07	3087.4052	3131.2038	3157.3151	3500.5249	3685.6729
CN(C)C(=N)C(=O)CO	CN(C)C(=N)C(=O)CO	
InChI=1S/C5H10N2O2/c1-7(2)5(6)4(9)3-8/h6,8H,3H2,1-2H3	InChI=1S/C5H10N2O2/c1-7(2)5(6)4(9)3-8/h6,8H,3H2,1-2H3
