18
gdb 93122	2.04719	1.67606	1.26979	3.1797	76.04	-0.2586	0.0076	0.2663	1069.9073	0.149171	-401.980304	-401.972038	-401.971093	-402.013076	31.597	
O	 0.0508475837	 1.4186530812	-0.0054689073	-0.439145
C	 0.0284343161	 0.0081896471	 0.0288373539	 0.124457
C	 0.8350261331	-0.5725625933	 1.1945623022	-0.285107
C	 0.6334584612	-2.0579186469	 1.3454820288	-0.04748
C	-0.3599477236	-2.7303950972	 0.7665030097	-0.046697
C	-1.4119942704	-2.0915459149	-0.1014867314	-0.278547
C	-1.4210371583	-0.5497798419	 0.0232072224	-0.175855
C	-2.1185943815	-0.0979847149	 1.2308749811	 0.266215
N	-2.6341541723	 0.2975355478	 2.18762704	-0.334073
H	-0.3100825175	 1.7451942077	 0.8280118833	 0.292074
H	 0.4838052369	-0.3103173208	-0.9154594226	 0.103639
H	 1.8947918777	-0.3389587806	 1.0434511819	 0.11956
H	 0.5449126435	-0.0624224814	 2.1258367406	 0.123663
H	 1.3474324024	-2.5873419521	 1.970824606	 0.096465
H	-0.4415140196	-3.8045608102	 0.9091939071	 0.096378
H	-1.2398887958	-2.3507153074	-1.1550816375	 0.12273
H	-2.4027292828	-2.4896592225	 0.1440075667	 0.129817
H	-1.9445062028	-0.1091115596	-0.8319165649	 0.131907
95.8731	137.3201	150.4173	242.0775	333.789	376.7876	395.6992	404.7819	457.212	469.7676	599.1673	644.6091	691.9749	742.8038	838.5041	894.3398	914.5307	954.0568	990.6723	1006.0507	1041.4942	1063.6069	1090.2103	1108.2447	1172.1626	1206.3936	1234.1557	1259.8861	1273.723	1324.3746	1358.2585	1372.3984	1390.4082	1411.9241	1428.7645	1474.5128	1479.3982	1726.8912	2348.0008	3000.1331	3017.6045	3050.4449	3060.9114	3063.2358	3068.3872	3153.0636	3175.3148	3783.9457
OC1CC=CCC1C#N	O[C@H]1CC=CC[C@H]1C#N	
InChI=1S/C7H9NO/c8-5-6-3-1-2-4-7(6)9/h1-2,6-7,9H,3-4H2	InChI=1S/C7H9NO/c8-5-6-3-1-2-4-7(6)9/h1-2,6-7,9H,3-4H2/t6-,7-/m0/s1
