17
gdb 125380	2.90742	1.2309	0.94737	3.5707	75.53	-0.2355	-0.0224	0.2131	1221.9579	0.135968	-418.04624	-418.037334	-418.03639	-418.081168	31.281	
C	 0.0079224207	 1.5437323544	-0.0168336511	-0.519067
C	-0.0118613151	 0.0454703824	-0.0209446392	 0.153119
C	-0.041326015	-0.8069248961	-1.1052631741	-0.10784
N	-0.0592483808	-2.0701302967	-0.6118680451	-0.189325
N	-0.0457384421	-2.1106032418	 0.73166375	-0.286218
C	-0.0209866407	-0.8299395603	 1.0998561462	 0.245217
C	 0.0451655416	-0.4511016979	 2.5515303303	-0.370098
C	 1.4642858706	-0.034153543	 2.9052476246	 0.157825
O	 1.7917558642	 1.0769185478	 3.2339964624	-0.241785
H	 0.8060512528	 1.9345739324	 0.6223223487	 0.15021
H	 0.1588584629	 1.9392170134	-1.0249040663	 0.122616
H	-0.9338384511	 1.9593709173	 0.3616528337	 0.131546
H	-0.0501722382	-0.610343701	-2.166243342	 0.133588
H	-0.0891219725	-2.9340786617	-1.1254544038	 0.275519
H	-0.6287829169	 0.3765602218	 2.7894246433	 0.122355
H	-0.2236451755	-1.3264930157	 3.1527817425	 0.135444
H	 2.211956695	-0.8526954352	 2.8029777595	 0.086892
51.1663	55.3242	93.1761	165.6407	228.8831	258.0969	370.2426	398.8912	476.0871	499.0059	637.1203	665.558	702.3973	741.9823	792.0726	865.6389	946.1204	1008.2072	1010.9656	1055.9839	1072.0831	1088.4197	1146.8005	1210.156	1225.6489	1290.3953	1323.2457	1403.9114	1418.0011	1425.8991	1453.1669	1467.3778	1485.5754	1492.2096	1513.825	1610.0548	1827.6487	2883.0011	3029.37	3048.6176	3084.2091	3111.0673	3115.0061	3256.2201	3678.6086
CC1=CNN=C1CC=O	Cc1c[nH]nc1CC=O	
InChI=1S/C6H8N2O/c1-5-4-7-8-6(5)2-3-9/h3-4H,2H2,1H3,(H,7,8)	InChI=1S/C6H8N2O/c1-5-4-7-8-6(5)2-3-9/h3-4H,2H2,1H3,(H,7,8)
