22
gdb 59477	2.89352	1.07712	0.87269	1.8086	84.09	-0.231	0.076	0.307	1410.8508	0.192675	-404.298278	-404.288454	-404.287509	-404.333347	36.804	
C	 0.1331953354	 1.433992017	-0.2969364626	-0.39891
C	 0.0584712488	-0.0172336922	 0.1810975674	 0.129355
O	 0.6479069541	-0.1621343907	 1.4753779485	-0.437223
C	-1.3604204866	-0.5500601964	 0.1649277074	-0.043684
C	-1.9604867143	-1.1410751826	-1.092964328	-0.325516
C	-1.6296425097	-2.0301057465	 0.0771192515	 0.045626
N	-0.5034721516	-2.909628816	-0.0634862869	-0.058659
C	-0.1247772918	-3.6744661962	 1.1184892454	-0.207584
C	-0.7797486764	-4.3424658035	-0.041479296	-0.230633
H	 1.1649755577	 1.79384432	-0.2568227175	 0.120174
H	-0.2345844584	 1.5310185072	-1.323142609	 0.117906
H	-0.4806096804	 2.0854251129	 0.3388311208	 0.099334
H	 0.6719953979	-0.6503256434	-0.4658926134	 0.10318
H	 0.1517434968	 0.3970677675	 2.0835436175	 0.26997
H	-2.0465009831	 0.0136926019	 0.7963921521	 0.070017
H	-3.0001835709	-0.938564285	-1.3247964488	 0.107595
H	-1.3097228005	-1.2314118759	-1.9563468646	 0.120357
H	-2.4680965517	-2.4109081316	 0.6683099844	 0.06709
H	 0.9421430481	-3.7779975748	 1.2907480659	 0.120651
H	-0.7205433942	-3.543168063	 2.0197311876	 0.108432
H	-1.8143271031	-4.658383567	 0.0836695755	 0.107488
H	-0.2007687361	-4.9473834516	-0.7337168072	 0.115031
51.6709	82.2181	122.0093	177.4878	239.7227	271.6518	275.4796	295.9052	338.2647	386.7407	460.6445	508.8991	617.8415	727.7706	779.8405	821.3094	839.8489	900.0427	907.8809	923.7126	986.9884	1004.0094	1025.595	1052.6491	1062.8756	1083.083	1101.9789	1111.4908	1116.8658	1123.1699	1133.6273	1172.8625	1185.7735	1205.7863	1225.3257	1288.3895	1318.048	1329.5713	1397.2981	1400.3628	1418.9668	1433.0056	1484.9754	1490.0772	1492.0026	1495.165	1520.0011	3020.6787	3042.4236	3075.4257	3094.458	3095.2891	3103.7675	3111.1468	3118.6432	3133.0751	3177.9601	3195.3723	3221.1218	3796.4928
CC(O)C1CC1N1CC1	C[C@@H](O)[C@H]1C[C@H]1N1CC1	
InChI=1S/C7H13NO/c1-5(9)6-4-7(6)8-2-3-8/h5-7,9H,2-4H2,1H3	InChI=1S/C7H13NO/c1-5(9)6-4-7(6)8-2-3-8/h5-7,9H,2-4H2,1H3/t5-,6-,7-/m1/s1
