15
gdb 33321	4.73397	0.82175	0.77629	2.2455	89.28	-0.2277	-0.0142	0.2135	1449.5507	0.111135	-383.383854	-383.375778	-383.374834	-383.417037	30.216	
C	 0.0297012936	-3.7817658	-0.042486816	-0.566389
C	 0.0383432375	-2.5739190206	-0.0201158073	 0.297445
C	 0.0458550134	-1.2147837254	 0.0062497948	-0.215345
C	 0.0522159563	-0.0032011363	 0.0268879365	 0.418363
C	 0.0536374156	 1.4239688044	 0.0534112878	-0.308138
C	 0.4456908841	 2.2464825684	 1.2873960012	-0.144833
C	 1.6417895621	 1.5893946195	 1.9684652105	-0.097821
O	 2.390403505	 1.5849023354	 0.717150675	-0.274622
C	 1.3250130857	 2.2581287125	 0.0694214134	 0.100159
H	 0.0243721854	-4.8430906616	-0.0642487034	 0.189448
H	-0.7462173051	 1.9010956417	-0.5097260785	 0.124399
H	-0.2131898696	 2.9921828926	 1.7102785773	 0.111973
H	 2.1338228778	 2.2380154519	 2.6999474361	 0.118623
H	 1.5065224578	 0.5829006715	 2.3761172438	 0.12834
H	 1.5628112803	 3.0039163459	-0.6806104713	 0.118397
69.4331	90.0376	191.2568	209.7753	339.7055	360.7336	486.7015	509.7629	526.9105	557.7109	598.5251	600.8373	741.4253	778.9519	792.5463	830.0812	929.3442	959.8198	976.9135	997.1022	1046.9264	1062.9194	1097.3576	1111.2236	1162.1949	1218.7564	1255.086	1301.6605	1355.5061	1414.0554	1505.347	2180.3309	2352.5954	3044.2094	3100.1222	3131.1434	3180.2058	3210.3564	3505.0699
C#CC#CC1C2COC12	C#CC#C[C@H]1[C@H]2CO[C@@H]12	
InChI=1S/C8H6O/c1-2-3-4-6-7-5-9-8(6)7/h1,6-8H,5H2	InChI=1S/C8H6O/c1-2-3-4-6-7-5-9-8(6)7/h1,6-8H,5H2/t6-,7+,8-/m0/s1
