16
gdb 14004	4.10874	1.49714	1.28748	4.9864	70.1	-0.269	0.0141	0.2831	964.6215	0.131533	-342.760379	-342.753066	-342.752122	-342.792196	27.314	
N	-0.0630408911	-1.1513984485	-0.0744873504	-0.33841
C	-0.0338715141	 0.0035977368	-0.0250137873	 0.336767
C	 0.0231377439	 1.4443382532	-0.0151268348	-0.276515
N	 0.5752320534	 2.0792486945	 1.2071910562	-0.36013
C	 1.3319133542	 2.1682916812	-0.0237823851	 0.373539
C	 2.7188202181	 1.57078855	-0.2666090823	-0.290201
C	 2.8980094711	 2.6078289892	-1.4169299989	-0.207255
C	 1.6578010426	 3.3916790003	-0.8883823928	-0.310994
H	-0.8137489163	 1.9243523003	-0.5159116518	 0.129725
H	 0.0692489049	 2.9428756283	 1.3941171904	 0.242356
H	 3.3854934919	 1.7539725833	 0.5803408772	 0.119274
H	 2.7604182807	 0.5112886406	-0.5271652596	 0.130052
H	 3.8418685737	 3.1539153389	-1.4406994864	 0.110097
H	 2.7200158919	 2.1703385669	-2.4013964041	 0.117054
H	 0.9077890828	 3.7109103153	-1.6164064191	 0.109993
H	 1.9421706424	 4.2529804196	-0.2750332212	 0.11465
88.7729	132.0752	160.133	311.4657	354.6198	366.3007	517.4255	565.6118	603.9804	717.3611	781.4855	812.2391	869.8678	907.3079	927.9381	937.1982	956.8099	1003.4493	1030.4934	1071.8346	1135.1932	1188.5588	1200.3466	1218.6631	1250.3904	1252.7248	1271.8611	1290.9345	1350.8445	1451.564	1470.8747	1481.7096	1507.3242	2356.9998	3049.6062	3067.9168	3079.1634	3102.4329	3119.8846	3138.0299	3144.7644	3490.2743
N#CC1NC11CCC1	N#C[C@H]1NC21CCC2	
InChI=1S/C6H8N2/c7-4-5-6(8-5)2-1-3-6/h5,8H,1-3H2	InChI=1S/C6H8N2/c7-4-5-6(8-5)2-1-3-6/h5,8H,1-3H2/t5-/m1/s1
