17
gdb 53395	2.95724	1.00693	0.82587	2.2998	77.93	-0.2468	0.0186	0.2654	1418.3313	0.133364	-421.751384	-421.742127	-421.741183	-421.787892	32.073	
C	 0.1073367258	 1.5226297848	-0.2568314258	-0.49968
C	 0.0392550633	 0.075475562	-0.1239942977	 0.075232
C	-0.0062111384	-1.1225052856	-0.0057642181	 0.090437
C	-0.0719230176	-2.5643043039	 0.1193791987	-0.140623
O	 0.0907947254	-3.0584130293	 1.482311887	-0.285887
C	-1.1298836422	-3.8306154933	 1.4298659503	-0.152883
C	-1.4498982153	-3.2500392287	 0.0598528419	 0.362616
C	-2.6949390863	-2.8264592884	-0.5657506347	-0.250836
O	-1.9424992225	-3.9597748073	-1.0460172737	-0.256678
H	 0.7105525237	 1.9588509194	 0.5468834976	 0.157533
H	 0.5646456654	 1.812523934	-1.2090316812	 0.153253
H	-0.8878748945	 1.977866934	-0.2099642473	 0.15017
H	 0.6497757715	-3.0477112665	-0.553906244	 0.113428
H	-0.9428045469	-4.9118897558	 1.4239405625	 0.115918
H	-1.8133341026	-3.5784424107	 2.2486034608	 0.115837
H	-3.6472225688	-3.0674161179	-0.0959523887	 0.121849
H	-2.6946673002	-1.9568021368	-1.2199657376	 0.130315
12.9552	63.4686	82.7657	142.6206	233.1113	283.8054	321.0092	357.992	380.2305	477.8171	512.2198	597.7964	785.3491	851.327	876.0428	908.0865	935.2376	975.6037	1013.0988	1049.4847	1054.196	1088.3573	1123.9857	1147.7127	1159.2885	1174.3457	1193.0752	1241.0709	1321.8738	1357.6754	1413.2087	1452.8208	1475.0595	1477.4765	1513.6087	1544.1124	2366.223	3006.4101	3019.5874	3028.971	3067.8235	3088.9586	3090.9056	3092.3304	3180.9245
CC#CC1OCC11CO1	CC#C[C@H]1OC[C@]21CO2	
InChI=1S/C7H8O2/c1-2-3-6-7(4-8-6)5-9-7/h6H,4-5H2,1H3	InChI=1S/C7H8O2/c1-2-3-6-7(4-8-6)5-9-7/h6H,4-5H2,1H3/t6-,7-/m1/s1
