25
gdb 122883	3.92071	0.59378	0.58341	0.4181	87.11	-0.246	0.0643	0.3103	2085.6957	0.224776	-426.63121	-426.619254	-426.618309	-426.669034	42.939	
C	-0.1246319374	 1.5640674672	 0.1346811033	-0.38423
C	-0.0230867613	 0.0496366718	 0.0622229988	-0.026331
O	-1.3266991523	-0.4889478003	 0.0080596495	-0.246282
C	-1.3421306527	-1.9001944226	-0.071421188	-0.062384
C	-2.796714812	-2.3524909362	-0.1282132117	-0.21955
C	-3.0070008718	-3.8774771298	-0.0178530889	 0.338025
C	-4.5097098363	-4.1920104637	-0.0125371074	-0.415193
C	-2.3085713474	-4.6438186009	-1.145402591	-0.390773
O	-2.4093888261	-4.3718361342	 1.1901982075	-0.45749
H	 0.8724534109	 2.0126512806	 0.1771202913	 0.112656
H	-0.6449672943	 1.9557280993	-0.7440896913	 0.124767
H	-0.6812731294	 1.8696033826	 1.0253271626	 0.124332
H	 0.5534340624	-0.2560061332	-0.8282327302	 0.082101
H	 0.5165509023	-0.3448751608	 0.9405314708	 0.08297
H	-0.7882081366	-2.2319431827	-0.9649254288	 0.082602
H	-0.8448987332	-2.3471684575	 0.8032621989	 0.095943
H	-3.3292114721	-1.8631083853	 0.6984168459	 0.091387
H	-3.2571886449	-1.9818349051	-1.0514321607	 0.100586
H	-4.9868351837	-3.8835823326	-0.9483483482	 0.115096
H	-4.6690711712	-5.2656428534	 0.1223048611	 0.119786
H	-5.0147141715	-3.6645217925	 0.8056083908	 0.102357
H	-1.2247574279	-4.5160189353	-1.0919624979	 0.124864
H	-2.523441538	-5.7126407099	-1.0594872361	 0.118741
H	-2.6536596609	-4.2969382029	-2.1238023996	 0.111346
H	-2.8674254747	-3.9616420225	 1.9320564794	 0.274675
41.8094	63.4111	98.3692	131.4947	135.3952	209.0937	224.0865	244.8888	250.827	289.0959	307.2534	341.3319	373.9538	419.5779	449.1158	490.3879	552.0578	773.2938	797.5796	821.3571	892.9212	919.6165	936.1722	948.3595	998.1742	1038.9567	1053.6495	1079.7598	1122.8454	1156.3993	1167.6658	1184.919	1209.9581	1232.3582	1247.866	1295.8857	1304.7211	1328.7798	1374.5471	1391.3945	1402.3191	1407.3538	1420.068	1449.9794	1473.1965	1482.9245	1483.8756	1490.4557	1497.6345	1499.8409	1509.2666	1520.6162	1542.7482	2947.1728	2967.5325	2971.1611	3003.1538	3018.5353	3027.2112	3043.7234	3047.3191	3068.3126	3093.2984	3113.0086	3117.8446	3119.5649	3120.3538	3127.1254	3800.5268
CCOCCC(C)(C)O	CCOCCC(C)(C)O	
InChI=1S/C7H16O2/c1-4-9-6-5-7(2,3)8/h8H,4-6H2,1-3H3	InChI=1S/C7H16O2/c1-4-9-6-5-7(2,3)8/h8H,4-6H2,1-3H3
