21
gdb 109693	2.38074	1.12826	0.96671	3.2334	75.13	-0.234	0.0624	0.2964	1333.0626	0.179249	-461.321857	-461.310961	-461.310016	-461.357839	38.808	
C	-0.2877368547	 1.0638333359	-0.0797767792	-0.235995
O	 0.6506376977	 0.0096477419	 0.0398570252	-0.252379
C	 0.9356936946	-0.6346278756	-1.163087517	-0.017208
C	 1.5015460606	-2.0130637669	-0.9768834251	 0.066199
O	 1.6383809672	-2.4895171201	 0.3264012274	-0.437297
C	 0.1182215231	-1.8529524837	-1.5920958264	 0.213619
C	-1.0830651741	-2.2785683344	-0.7747140088	-0.470648
C	 0.0137334851	-2.0823186017	-3.0877562061	-0.127322
O	-0.0039579019	-3.4538731329	-3.4556872569	-0.415636
H	 0.0798965148	 1.8450964935	-0.7603482429	 0.115071
H	-1.2563211182	 0.7033421526	-0.4497019259	 0.117855
H	-0.4181443655	 1.4927209159	 0.9162273051	 0.132262
H	 1.3383353175	 0.0234107511	-1.9351253776	 0.083943
H	 2.3067265121	-2.3423312991	-1.6288215796	 0.10228
H	 1.4993204467	-1.7354475843	 0.913582563	 0.298713
H	-0.9680751813	-2.0062077571	 0.2747723372	 0.130757
H	-2.0038406238	-1.8183039784	-1.1525939084	 0.108261
H	-1.2101107533	-3.3670541245	-0.8071898354	 0.117158
H	-0.8722580206	-1.554959805	-3.4803177167	 0.083383
H	 0.8883271159	-1.6604993354	-3.595512285	 0.102036
H	-0.7822751417	-3.8572900018	-3.059469897	 0.284949
66.4551	100.7314	131.872	143.3654	160.3872	192.2566	210.4725	255.434	279.355	321.7283	339.3075	382.0163	428.0379	511.4032	603.0553	630.5318	735.1633	849.7227	869.0354	960.861	972.7077	1016.0153	1048.4092	1070.7003	1097.7779	1119.1642	1160.7116	1170.6976	1183.3871	1220.5845	1231.1838	1254.8991	1337.1902	1343.27	1371.1717	1388.7838	1411.9191	1430.8537	1449.5609	1485.5836	1486.7859	1490.3296	1498.704	1505.3225	1508.5126	2960.3653	2996.694	3024.2748	3054.1376	3060.7016	3077.0178	3083.5311	3123.9321	3138.9886	3141.5743	3769.2723	3825.4874
COC1C(O)C1(C)CO	CO[C@H]1[C@@H](O)[C@]1(C)CO	
InChI=1S/C6H12O3/c1-6(3-7)4(8)5(6)9-2/h4-5,7-8H,3H2,1-2H3	InChI=1S/C6H12O3/c1-6(3-7)4(8)5(6)9-2/h4-5,7-8H,3H2,1-2H3/t4-,5+,6+/m1/s1
