15
gdb 46604	2.96728	1.79114	1.39333	4.5815	64.45	-0.2657	-0.0141	0.2516	920.7302	0.113493	-457.744158	-457.737376	-457.736432	-457.775291	26.464	
O	-0.1033960165	 0.0109448057	 0.3497351568	-0.335055
C	-0.0261188826	 1.1405717888	-0.0291414288	 0.424984
O	-1.0500020449	 1.7642036138	-0.7097053094	-0.238225
C	-0.8825808469	 3.2001005828	-0.7902971796	-0.1524
C	 0.5325757053	 3.4404929329	-0.331636239	 0.261008
C	 1.2626942255	 4.1936263754	 0.8018864197	-0.294309
C	 1.8447395831	 2.8113850731	 1.285837214	-0.30399
C	 1.067638261	 2.1515241451	 0.1355010642	 0.123144
O	 1.485161157	 2.7294612565	-1.1058468133	-0.27187
H	-1.074302424	 3.5002819296	-1.8231799724	 0.14034
H	-1.6136779168	 3.6778718541	-0.1298164405	 0.128439
H	 1.9751085939	 4.9495728386	 0.4682646768	 0.127979
H	 0.5754450456	 4.6314870949	 1.5282790531	 0.124124
H	 2.9266284073	 2.6802399386	 1.2440547021	 0.131348
H	 1.4759842631	 2.5205298501	 2.2704000964	 0.134484
137.0683	202.5964	240.6047	299.9963	385.2382	479.7712	566.1383	627.1762	654.0827	744.1012	759.1607	769.4319	788.7444	879.1498	929.7345	944.4641	976.7887	1011.9496	1028.8714	1084.441	1121.7189	1188.6463	1222.0086	1227.3556	1234.5209	1267.1948	1294.4404	1391.572	1403.7326	1464.9246	1482.9173	1503.0514	1885.247	3053.9911	3079.8872	3089.4595	3109.768	3135.2756	3152.5954
O=C1OCC23CCC12O3	O=C1OC[C@@]23CC[C@@]12O3	
InChI=1S/C6H6O3/c7-4-6-2-1-5(6,9-6)3-8-4/h1-3H2	InChI=1S/C6H6O3/c7-4-6-2-1-5(6,9-6)3-8-4/h1-3H2/t5-,6+/m0/s1
