19
gdb 51220	4.09223	1.01869	0.99719	2.9046	79.71	-0.2388	-0.0199	0.2188	1250.9371	0.159165	-385.848587	-385.840698	-385.839754	-385.881842	30.257	
O	-0.2731484844	 0.0796599598	 0.1144886197	-0.238962
C	 0.0115531072	 1.2478254139	 0.0647437815	 0.166595
C	 1.3801500332	 1.7934164442	-0.299606053	-0.405515
C	 1.3018523279	 2.8531677816	-1.3648241707	 0.347326
C	 1.0017056857	 2.6558760794	-2.8528180567	-0.280938
C	 1.5194930326	 4.1069618255	-3.0434047426	-0.061802
C	 0.4601760938	 4.9820484993	-2.3170483929	-0.229698
C	 0.9550036522	 4.3221356207	-1.0329307158	-0.104527
C	 2.2820416216	 3.9654633004	-1.6610842974	-0.140103
H	-0.7445486199	 2.0352737399	 0.2909935522	 0.075208
H	 1.8068848448	 2.2310716074	 0.6155437706	 0.119944
H	 2.0188461678	 0.955256051	-0.5968845791	 0.12072
H	 1.6820061252	 1.9191042191	-3.2906556647	 0.100773
H	-0.0258826508	 2.4389120715	-3.1692544744	 0.091773
H	 1.9559968991	 4.4236854607	-3.987872368	 0.073504
H	 0.7244298982	 6.0429501388	-2.3420931367	 0.10139
H	-0.5880195011	 4.8562386417	-2.612878677	 0.089963
H	 0.7705874751	 4.6257068578	-0.0095790291	 0.083465
H	 3.3027024418	 4.1275592771	-1.3454506458	 0.090883
56.5115	75.282	151.5019	284.4418	327.7833	415.9803	434.4124	480.9615	641.3937	713.4904	746.3784	797.9484	805.0682	837.886	891.4264	916.8843	925.4125	952.2442	981.7453	992.2462	1008.2529	1040.8734	1058.8781	1082.0628	1104.1052	1138.47	1147.672	1175.2733	1190.3283	1215.4753	1249.1293	1257.3973	1281.0909	1304.4347	1325.7504	1406.3132	1423.7674	1451.6381	1492.9456	1508.5986	1835.4244	2864.6935	3005.0994	3024.7187	3032.5856	3081.5519	3088.6535	3094.4609	3140.2869	3186.7303	3219.4971
O=CCC12CC3CC1C23	O=CC[C@@]12C[C@H]3C[C@@H]1[C@@H]23	
InChI=1S/C8H10O/c9-2-1-8-4-5-3-6(8)7(5)8/h2,5-7H,1,3-4H2	InChI=1S/C8H10O/c9-2-1-8-4-5-3-6(8)7(5)8/h2,5-7H,1,3-4H2/t5-,6-,7+,8-/m1/s1
