15
gdb 9437	2.70648	1.77005	1.72476	4.4071	66.14	-0.2638	-0.0478	0.216	872.1758	0.117447	-362.688278	-362.680217	-362.679273	-362.721135	28.682	
C	-0.2879353552	 1.5895574027	 0.1352837922	-0.442119
C	 0.0111400918	 0.0949940808	-0.0221793511	 0.024695
C	 0.882741473	-0.3607873761	-1.2531731169	-0.270334
C	 1.8973736531	-1.0757939921	-0.3129781273	-0.335209
C	 1.1928995087	-0.4297728045	 0.8801288813	 0.381753
O	 1.4562332212	-0.2493646595	 2.0269316983	-0.270197
C	-1.1850328661	-0.7185022481	 0.1447431905	 0.253494
N	-2.1251961241	-1.3797801093	 0.2761077886	-0.332552
H	 0.6317255424	 2.1691354363	 0.0155471735	 0.12894
H	-1.0118044256	 1.9222470046	-0.6134279325	 0.142531
H	-0.6943515648	 1.7915413152	 1.1291670715	 0.157463
H	 0.3706446507	-0.9964486001	-1.9739469789	 0.136268
H	 1.3098623793	 0.5003943535	-1.7699225649	 0.125653
H	 1.7813485992	-2.1643572043	-0.2976633573	 0.156835
H	 2.9589329964	-0.842288779	-0.4208473768	 0.142778
50.6969	126.9183	184.6003	200.7156	218.3617	317.9129	408.4103	492.3917	540.7937	570.173	643.9367	719.1713	741.4524	856.7193	901.9323	941.2829	976.3727	1048.0666	1069.4603	1125.5165	1170.4166	1204.0502	1221.3435	1256.6153	1271.1622	1408.312	1437.9638	1484.4234	1488.1024	1493.6583	1907.4175	2344.8861	3046.555	3063.2271	3089.0193	3120.3563	3122.4329	3132.9288	3155.5124
CC1(CCC1=O)C#N	C[C@]1(CCC1=O)C#N	
InChI=1S/C6H7NO/c1-6(4-7)3-2-5(6)8/h2-3H2,1H3	InChI=1S/C6H7NO/c1-6(4-7)3-2-5(6)8/h2-3H2,1H3/t6-/m0/s1
