19
gdb 94825	3.91037	1.16422	1.0175	2.5176	79.41	-0.2427	0.0011	0.2437	1217.7344	0.159106	-423.012632	-423.004471	-423.003527	-423.045274	31.767	
C	-0.0127264798	 1.5255082828	-0.0541076481	-0.400363
C	-0.0194661604	 0.00030098	 0.0066139605	 0.085094
O	 0.5978437126	-0.4612264019	-1.1871416179	-0.258912
C	 0.8257524665	-1.8568157097	-1.1903313408	-0.166703
C	 1.7747163846	-2.2671281503	-0.0812516766	 0.393694
C	 2.3776766487	-3.6087191923	-0.0960414146	-0.241581
O	 3.1584764821	-2.4705875574	-0.4464680839	-0.276239
C	 1.5398201408	-1.5426047412	 1.1878908837	-0.133215
C	 0.682936664	-0.523536414	 1.2361159709	-0.081366
H	 1.0151138466	 1.898600571	-0.0605889422	 0.132869
H	-0.5123781074	 1.8637249266	-0.9652762332	 0.127705
H	-0.5354662818	 1.9467168978	 0.8096767424	 0.114268
H	-1.0714990743	-0.3468383923	 0.0262158493	 0.074332
H	-0.1270572362	-2.4024681534	-1.0750583557	 0.090014
H	 1.2583062064	-2.1078527523	-2.1620691995	 0.119794
H	 2.6388882487	-4.0929456867	 0.8449623154	 0.112162
H	 2.1449402615	-4.2915993061	-0.9141266521	 0.111905
H	 2.0817736607	-1.8775345706	 2.0675181506	 0.097456
H	 0.4683794167	-0.01752656	 2.1738031719	 0.099086
69.2411	194.2049	218.5364	255.3885	295.5932	333.6717	363.0553	415.847	446.4989	555.2481	590.2172	684.8129	745.2331	786.6688	817.2735	883.2893	902.5281	938.2153	982.4388	990.4832	1037.238	1050.816	1101.3286	1128.1059	1131.2431	1148.969	1165.0084	1200.0339	1282.1129	1311.3037	1339.2538	1339.6759	1365.0382	1398.8121	1406.4252	1447.7663	1479.7674	1484.364	1500.0451	1527.299	1711.4446	2904.0155	2955.5139	3046.2639	3068.4255	3100.9788	3122.3279	3129.3034	3152.3487	3156.8757	3179.0434
CC1OCC2(CO2)C=C1	C[C@H]1OC[C@]2(CO2)C=C1	
InChI=1S/C7H10O2/c1-6-2-3-7(4-8-6)5-9-7/h2-3,6H,4-5H2,1H3	InChI=1S/C7H10O2/c1-6-2-3-7(4-8-6)5-9-7/h2-3,6H,4-5H2,1H3/t6-,7+/m1/s1
