18
gdb 11903	4.74611	1.46374	1.2745	1.9898	74.46	-0.24	0.0104	0.2505	1000.9067	0.15396	-347.800991	-347.793499	-347.792555	-347.83297	28.842	
C	 0.1453874687	 1.6029269976	-0.0360495403	-0.395457
C	 0.0068812888	 0.0771781972	 0.03858684	-0.024748
C	 0.5911886396	-0.674317893	-1.1916930752	-0.327829
C	 1.3935778141	-1.8443285035	-0.6148665377	 0.434322
C	 1.4587737853	-3.1885984405	-1.2117539231	-0.250191
O	 2.5604067645	-2.2872522189	-1.3269198414	-0.282132
C	 1.5009119244	-1.5864811512	 0.8445423688	-0.154683
C	 0.7502571414	-0.5458012318	 1.2027252446	-0.072331
H	 1.1974039218	 1.8941026291	-0.1264338049	 0.120847
H	-0.3923193466	 2.0041330079	-0.9014977916	 0.115868
H	-0.2610896193	 2.0823743299	 0.8609814641	 0.11264
H	-1.0629271444	-0.1572126326	 0.1381498957	 0.083331
H	-0.1796162554	-0.996580268	-1.8960509548	 0.103447
H	 1.2832684241	-0.0253417719	-1.7389049728	 0.120128
H	 1.6290920378	-4.0606188219	-0.5797719441	 0.108669
H	 0.9157357604	-3.3891720707	-2.1356525166	 0.109649
H	 2.1118028136	-2.2014549481	 1.4948143127	 0.102103
H	 0.6445700214	-0.1687755496	 2.2148752966	 0.096367
48.8222	197.3073	238.5911	281.2117	330.2468	385.9207	401.9314	487.5553	578.7395	693.1424	780.2056	810.9769	823.9647	844.408	909.72	917.8684	942.2691	972.4542	983.8228	1050.1937	1099.5367	1116.0678	1130.2978	1143.9235	1162.5131	1210.0358	1250.2155	1276.4006	1317.1539	1331.3732	1357.6787	1406.4037	1428.9271	1482.5118	1496.8949	1499.4171	1526.5729	1678.4815	2993.4849	3028.339	3051.9017	3068.1249	3097.1036	3099.9729	3103.0313	3153.0855	3180.5844	3211.2533
CC1CC2(CO2)C=C1	C[C@H]1C[C@]2(CO2)C=C1	
InChI=1S/C7H10O/c1-6-2-3-7(4-6)5-8-7/h2-3,6H,4-5H2,1H3	InChI=1S/C7H10O/c1-6-2-3-7(4-6)5-8-7/h2-3,6H,4-5H2,1H3/t6-,7+/m1/s1
