22
gdb 118192	3.72791	0.68607	0.67373	5.2828	79.99	-0.2429	0.0209	0.2639	1782.5203	0.192647	-441.515279	-441.504652	-441.503708	-441.55207	37.598	
C	 0.0356475329	 1.4696909724	-0.3369457425	-0.380799
C	 0.0128497741	-0.0196794682	 0.0195614474	-0.189789
C	-1.41562333	-0.5451430154	 0.1831716136	-0.118609
N	-1.4906595536	-1.9995801012	 0.3735495989	-0.099419
H	-1.0455747998	-3.4698197297	-0.8156877124	 0.295282
C	-0.938408086	-2.4389963206	 1.6574042644	-0.340289
C	-2.8323585556	-2.5461843513	 0.1696154661	-0.300188
C	-2.7794561353	-3.9726408465	-0.401847642	 0.409829
O	-1.5989780767	-4.2671882343	-0.968389932	-0.361205
O	-3.7090222328	-4.7311406179	-0.3774631347	-0.33175
H	 1.0619281048	 1.8318489511	-0.4445700656	 0.12087
H	-0.4860443655	 1.6612887311	-1.2809352964	 0.119646
H	-0.4494598304	 2.0730050316	 0.438216774	 0.119988
H	 0.5125384179	-0.604043172	-0.7623161907	 0.105916
H	 0.5842058996	-0.1761402402	 0.9412447537	 0.104871
H	-1.9136217213	-0.0108509373	 1.0134070737	 0.089108
H	-1.9790115369	-0.307119114	-0.7260330479	 0.106495
H	 0.1162718307	-2.1682563643	 1.7330621869	 0.132672
H	-1.476125111	-1.9974430762	 2.5139175259	 0.111804
H	-1.0092326157	-3.5274239097	 1.732963085	 0.141749
H	-3.4524383162	-2.5600287411	 1.0770964552	 0.126612
H	-3.3625533734	-1.9368611862	-0.5699459408	 0.137206
50.3402	59.8361	87.2853	118.8889	158.038	225.8004	226.8696	248.357	332.6697	354.4958	402.9224	419.2708	556.7034	580.5235	658.5009	757.1709	853.3652	866.6298	875.3893	893.9189	927.5115	996.312	1040.7655	1061.5506	1102.6812	1131.5427	1164.4715	1173.5221	1215.8451	1243.6869	1289.3906	1299.3913	1333.9125	1346.529	1354.1263	1410.8864	1415.6788	1421.8074	1458.6875	1472.4064	1489.1023	1494.7173	1498.6503	1499.8395	1505.2865	1514.8485	1879.9307	2934.9614	2965.3767	3012.4842	3032.1619	3034.4958	3051.5353	3071.3287	3079.0621	3088.4337	3101.4278	3110.7639	3131.8234	3478.2859
CCC[NH+](C)CC([O-])=O	CCCN(C)CC(=O)O	
InChI=1S/C6H13NO2/c1-3-4-7(2)5-6(8)9/h3-5H2,1-2H3,(H,8,9)	InChI=1S/C6H13NO2/c1-3-4-7(2)5-6(8)9/h3-5H2,1-2H3,(H,8,9)
