21
gdb 73674	2.15985	1.87321	1.40959	1.4806	82.14	-0.2426	0.0171	0.2597	1036.8181	0.185136	-387.122329	-387.114514	-387.11357	-387.154422	32.065	
O	 0.0876594167	 1.3953463305	-0.3196227331	-0.489606
C	 0.0601029253	-0.0021362532	-0.0257325892	 0.407177
C	 0.7017718432	-0.7331849152	-1.2253314941	-0.247432
C	-0.0923065781	-2.039732628	-1.3605399129	-0.204611
C	-1.5348531427	-1.5972967612	-1.0571896612	-0.222995
C	-1.3894029411	-0.610778872	 0.1205927406	-0.055542
C	-1.4406406677	-1.2688949443	 1.5281549837	-0.278682
C	-0.0969989741	-0.9593300905	 2.1385511712	-0.069902
C	 0.707346827	-0.3049081372	 1.303661494	-0.153858
H	-0.1887750487	 1.86199056	 0.4766644286	 0.268366
H	 0.5559068735	-0.1045925358	-2.1108526147	 0.108291
H	 1.7775797989	-0.8820788732	-1.0976885038	 0.091963
H	 0.0181942204	-2.5092266646	-2.3420341595	 0.093934
H	 0.2466257311	-2.7668396836	-0.612134773	 0.100034
H	-1.9431911415	-1.0746621673	-1.930143786	 0.098794
H	-2.2094198441	-2.4300336305	-0.83509072	 0.089359
H	-2.1237345804	 0.1954999789	 0.0529392344	 0.067752
H	-2.2668366123	-0.8901851112	 2.1432930247	 0.102125
H	-1.5961059682	-2.3539165834	 1.4570696733	 0.106081
H	 0.1664329829	-1.266729666	 3.1457950537	 0.094503
H	 1.7259999701	 0.0062575578	 1.5122733635	 0.094247
74.6686	181.7204	251.9059	308.9071	352.2722	381.2189	435.5323	460.439	562.9128	577.7862	620.1144	729.2903	763.0613	803.7813	820.1725	868.372	909.3412	925.483	953.376	969.2467	986.246	993.2543	1025.1619	1057.5574	1064.3082	1074.9731	1126.8488	1144.1916	1175.4342	1191.5264	1216.9889	1257.2946	1272.5208	1309.0097	1312.0449	1324.1521	1339.6037	1353.3713	1367.5874	1392.2969	1481.1117	1486.8796	1490.6359	1505.8054	1687.1952	3014.678	3031.5165	3034.8965	3038.2826	3045.7669	3074.5912	3080.9885	3089.5876	3098.7986	3171.6353	3197.5974	3801.2737
OC12CCCC1CC=C2	O[C@]12CCC[C@H]1CC=C2	
InChI=1S/C8H12O/c9-8-5-1-3-7(8)4-2-6-8/h1,5,7,9H,2-4,6H2	InChI=1S/C8H12O/c9-8-5-1-3-7(8)4-2-6-8/h1,5,7,9H,2-4,6H2/t7-,8-/m1/s1
