18
gdb 69866	2.75455	1.65213	1.19396	1.1685	83.21	-0.2137	0.0308	0.2445	1059.5496	0.145883	-364.698138	-364.689832	-364.688888	-364.730459	33.054	
C	 0.0482228491	 1.4938057414	 0.0819483381	-0.495926
C	-0.1000881293	 0.0076307487	-0.0379688302	 0.299442
C	-0.9727142212	-0.8228524584	 0.8157438446	-0.300708
N	 0.4990936737	-0.9400462354	 0.9681448548	-0.176457
C	 1.0820774103	-1.7268940998	-0.1779784696	-0.045508
C	 0.1630888564	-2.2347185492	-1.2390837345	-0.357097
C	 0.536212519	-0.7634242398	-1.2369920618	 0.105384
C	 1.1911789699	-0.1227116788	-2.3210336984	 0.193178
C	 1.736763008	 0.43483256	-3.2389595202	-0.417035
H	 1.0635815221	 1.8069041554	-0.1792629322	 0.136553
H	-0.6451533262	 2.0076932314	-0.5934805114	 0.126707
H	-0.1621513124	 1.8147058358	 1.1057151292	 0.126646
H	-1.4193640603	-0.3282463343	 1.6738908281	 0.12448
H	-1.5637940897	-1.6473933404	 0.4359226502	 0.119234
H	 2.0933304484	-2.0911079933	-0.0519517052	 0.119165
H	 0.6780024299	-2.7927977876	-2.0145475533	 0.135005
H	-0.8496108645	-2.5770118279	-1.0617622787	 0.12118
H	 2.2220086167	 0.9228578723	-4.0471570496	 0.185756
121.8006	137.1915	186.1025	240.1898	306.8624	386.5752	462.17	484.9134	504.6238	520.4782	547.4186	592.0294	623.9506	662.6533	715.9681	779.0508	826.8915	868.6308	910.4056	941.1123	980.27	1011.6592	1013.9746	1064.8703	1084.9842	1105.9069	1112.0509	1130.7965	1166.25	1254.0133	1285.4581	1339.9658	1380.3396	1418.6995	1474.55	1479.9227	1493.2165	1532.2851	2226.5064	3034.868	3100.5456	3120.7763	3127.0568	3142.0912	3199.727	3210.7335	3221.2112	3503.3697
CC12CN1C1CC21C#C	C[C@]12CN1[C@H]1C[C@@]21C#C	
InChI=1S/C8H9N/c1-3-8-4-6(8)9-5-7(8,9)2/h1,6H,4-5H2,2H3	InChI=1S/C8H9N/c1-3-8-4-6(8)9-5-7(8,9)2/h1,6H,4-5H2,2H3/t6-,7+,8+,9?/m0/s1
