19
gdb 99376	7.14515	0.53481	0.50889	2.721	74.41	-0.26	-0.0327	0.2273	2116.6814	0.155448	-460.212385	-460.201667	-460.200723	-460.251073	35.309	
C	-0.0511934504	 1.4214138816	 0.2197271393	-0.371105
C	 0.1669296427	-0.0729070179	-0.0039504786	-0.30331
C	 0.8106358837	-0.3775971018	-1.3403392206	 0.44573
O	 1.1408573113	 0.4329991573	-2.1679385919	-0.348834
O	 0.9772763574	-1.7118629982	-1.4992908644	-0.24776
C	 1.5744792773	-2.1169674418	-2.740124	-0.071194
C	 1.6741453067	-3.6387706855	-2.7184333062	-0.288499
C	 2.4826662758	-4.1668073197	-3.8847782859	 0.154576
O	 2.1105232579	-5.0199902421	-4.6463513479	-0.228229
H	 0.896029476	 1.9651718933	 0.183352823	 0.133644
H	-0.6991662869	 1.8424709349	-0.5530057454	 0.134015
H	-0.5147283146	 1.5975507945	 1.1941387165	 0.114068
H	 0.8012846654	-0.5086880855	 0.7771979627	 0.133173
H	-0.776226601	-0.6299336336	 0.0452171701	 0.134421
H	 0.9594479334	-1.7623164788	-3.5729965785	 0.136073
H	 2.5599433274	-1.6481844254	-2.8385806806	 0.125949
H	 2.1939203115	-3.9354337282	-1.7963919889	 0.134329
H	 0.6875317681	-4.1076795382	-2.7231235988	 0.13441
H	 3.4920870781	-3.7042947151	-3.9912835638	 0.078541
24.7145	44.7894	57.7971	65.5459	115.9072	163.2769	215.2581	238.8275	286.8335	328.5796	492.7386	517.7555	579.2671	665.4449	773.8048	810.0269	858.4748	901.459	981.9945	1014.5262	1043.1117	1102.4101	1107.6641	1112.863	1136.5077	1207.2018	1230.0754	1277.019	1277.8404	1302.8129	1374.0856	1417.5125	1417.7645	1432.7759	1458.2141	1466.5421	1493.6191	1500.3554	1516.8105	1822.5444	1840.6751	2858.0553	3023.5545	3042.0604	3045.7472	3053.4995	3071.4572	3088.689	3119.3215	3125.588	3130.2458
CCC(=O)OCCC=O	CCC(=O)OCCC=O	
InChI=1S/C6H10O3/c1-2-6(8)9-5-3-4-7/h4H,2-3,5H2,1H3	InChI=1S/C6H10O3/c1-2-6(8)9-5-3-4-7/h4H,2-3,5H2,1H3
