14
gdb 19330	4.76076	1.76586	1.54936	5.2215	66.57	-0.2491	-0.0008	0.2483	816.0576	0.107944	-341.50505	-341.498727	-341.497783	-341.53534	24.802	
N	 0.1358241362	-1.1157952738	 0.0190633117	-0.346548
C	 0.062247243	 0.039440574	 0.014577684	 0.238031
C	-0.0134266973	 1.4618901984	-0.0045366526	 0.217296
C	 0.2685461099	 2.2722572179	-1.2524421414	-0.341657
C	 1.0965154304	 2.5123990567	-0.0310041943	-0.113242
C	 0.3273200324	 3.2271746243	 1.0920991629	-0.030789
C	-1.0870347477	 3.5314090513	 0.791322212	-0.252362
N	-0.7219030138	 2.1480069559	 1.15809035	-0.168793
H	 0.7711768376	 1.6898909971	-2.0176531916	 0.150293
H	-0.4352207913	 2.9939437311	-1.6489615495	 0.13324
H	 2.163190052	 2.3398705218	-0.0006918711	 0.12716
H	 0.8196150346	 3.5625502545	 1.9980956828	 0.117004
H	-1.6557908587	 4.0066321814	 1.5852156268	 0.139493
H	-1.4358239073	 3.7780179995	-0.2039736598	 0.130874
149.759	168.3754	333.06	437.84	483.043	512.6081	541.2085	602.643	708.5133	751.5177	810.1392	830.7994	910.8114	918.6807	955.3421	989.6141	1016.2084	1053.1148	1058.5817	1075.8622	1110.4511	1134.4035	1164.0685	1226.8916	1281.4436	1342.4993	1367.9449	1469.3359	1513.9573	2346.262	3132.5736	3145.7752	3174.986	3216.1578	3220.2189	3227.4117
N#CC12CC1C1CN21	N#C[C@]12C[C@H]1[C@H]1CN21	
InChI=1S/C6H6N2/c7-3-6-1-4(6)5-2-8(5)6/h4-5H,1-2H2	InChI=1S/C6H6N2/c7-3-6-1-4(6)5-2-8(5)6/h4-5H,1-2H2/t4-,5+,6+,8?/m0/s1
