19
gdb 73294	2.90039	1.83409	1.31037	1.2341	74.91	-0.2363	0.0756	0.3119	1003.6727	0.158496	-422.973034	-422.965237	-422.964293	-423.004606	31.509	
C	 0.0271582577	 1.5148430213	-0.0413613269	-0.508755
C	 0.043360431	 0.0084788115	-0.0365079927	 0.289774
C	 0.4465756821	-0.7721626626	-1.2776360436	-0.151617
O	 0.3211569473	-2.13623777	-0.8320628752	-0.312641
C	-0.1047078689	-2.004900242	 0.5045114362	 0.460462
C	-0.3084474901	-3.3196781384	 1.1950291343	-0.496429
C	 0.6084759089	-0.7908687803	 1.187359756	-0.061722
O	-0.5908390445	-0.5036344159	 1.9801621081	-0.319236
C	-1.106897526	-0.811052895	 0.6427792822	-0.061718
H	 1.0198418018	 1.9231875268	-0.2609425456	 0.119352
H	-0.6659266293	 1.903322586	-0.7957483546	 0.119355
H	-0.2883184288	 1.8806860083	 0.9394388315	 0.141857
H	-0.2184845096	-0.5956623658	-2.1324585896	 0.105825
H	 1.4789457147	-0.575683596	-1.5935375174	 0.105824
H	 0.6221067246	-3.8948609145	 1.2118076437	 0.127887
H	-0.6363257333	-3.1377043504	 2.2209476124	 0.140924
H	-1.0657101152	-3.9147650274	 0.6759215414	 0.127887
H	 1.5801179263	-0.7169078713	 1.6785835225	 0.086485
H	-2.1852772287	-0.7611959246	 0.4831831673	 0.086485
201.3532	232.4207	247.153	248.555	260.2781	299.0588	380.1818	445.639	516.6809	585.4361	691.7505	716.0506	731.8292	743.7705	809.634	874.7672	880.0342	929.8452	944.38	1001.4934	1018.1187	1055.3071	1096.2844	1104.117	1129.3622	1156.4483	1162.3545	1178.058	1220.0897	1241.6479	1290.7536	1297.2587	1342.8722	1392.2504	1408.5885	1424.9279	1485.1637	1492.5548	1495.5319	1499.0397	1520.0612	3015.8118	3031.9932	3046.4369	3053.7521	3090.9758	3103.311	3110.4033	3112.2495	3118.8559	3136.8751
CC12COC3(C)C1OC23	C[C@@]12CO[C@@]3(C)[C@@H]1O[C@@H]23	
InChI=1S/C7H10O2/c1-6-3-8-7(2)4(6)9-5(6)7/h4-5H,3H2,1-2H3	InChI=1S/C7H10O2/c1-6-3-8-7(2)4(6)9-5(6)7/h4-5H,3H2,1-2H3/t4-,5+,6-,7+
