13
gdb 130694	3.35896	1.67055	1.12353	5.7563	65.44	-0.2674	-0.0526	0.2148	976.1078	0.092102	-452.763404	-452.756847	-452.755903	-452.794574	24.641	
O	-0.0059711252	-0.0643936096	 0.0038249427	-0.365488
C	 0.0206328958	 1.1424392853	 0.0094213131	 0.353971
N	-1.0657025459	 2.0047351663	 0.0285415969	-0.353593
C	-0.7578052471	 3.4356363824	 0.031350782	-0.293438
C	 0.7401714758	 3.3923200756	 0.0105697008	 0.157898
C	 1.157467118	 2.1048531994	-0.0014911949	 0.271698
O	 2.4828786047	 2.008272576	-0.0202307572	-0.219445
N	 2.991705364	 3.3161605504	-0.0207719325	-0.120928
C	 1.9507417619	 4.1242584225	-0.0024367776	-0.123353
H	-2.0038684347	 1.640260464	 0.0396371646	 0.26444
H	-1.1820844834	 3.9393775463	-0.8466190191	 0.141033
H	-1.1577460008	 3.930653894	 0.9255559898	 0.141031
H	 2.1309518369	 5.1897494675	 0.0003436513	 0.146172
124.6818	187.6355	259.5392	293.1643	422.7814	543.6146	623.6248	627.9245	641.3628	652.7581	781.0762	787.956	877.4748	902.4683	976.7034	1017.6906	1041.1234	1106.2735	1166.5973	1188.6241	1205.4654	1310.4312	1370.053	1415.9869	1439.4668	1497.5516	1505.2183	1638.8501	1842.3277	3019.5313	3047.7406	3248.6674	3663.6203
O=C1NCC2=C1ON=C2	O=C1NCc2c1onc2	
InChI=1S/C5H4N2O2/c8-5-4-3(1-6-5)2-7-9-4/h2H,1H2,(H,6,8)	InChI=1S/C5H4N2O2/c8-5-4-3(1-6-5)2-7-9-4/h2H,1H2,(H,6,8)
