21
gdb 58949	2.5938	1.36047	1.13353	1.7388	77.86	-0.232	0.059	0.2909	1189.1701	0.180941	-424.186543	-424.177112	-424.176168	-424.220548	35.79	
C	-0.0670505502	 1.4468974751	-0.1722801942	-0.393032
C	 0.0137375188	-0.0664866635	 0.0937919655	-0.087109
C	 0.6580422642	-0.3684654654	 1.4549028436	-0.391194
C	-1.3516854537	-0.6822913805	-0.017086595	 0.42541
O	-2.3497858356	-0.2677209591	 0.9464773779	-0.347146
C	-2.8392901981	-1.6385624237	 1.0557013418	-0.104639
C	-1.9145175577	-2.1065345484	-0.0541948549	-0.252067
C	-2.0819206417	-1.1529518282	-1.2305194098	 0.071682
O	-3.308494831	-0.6126947575	-1.6068820533	-0.441312
H	 0.9249327631	 1.9048094349	-0.1107829458	 0.110938
H	-0.4783231619	 1.6538789793	-1.1650539046	 0.120042
H	-0.7105401486	 1.9321877892	 0.5684028282	 0.132939
H	 0.6254873803	-0.5256592146	-0.6947074589	 0.079655
H	 1.6537789787	 0.0805043275	 1.5223081633	 0.109759
H	 0.0448756755	 0.0365856486	 2.265452421	 0.130999
H	 0.760269718	-1.4466557902	 1.6141395157	 0.110984
H	-2.6007288258	-2.0465675732	 2.0428303177	 0.114607
H	-3.9173466374	-1.7051276307	 0.8713136475	 0.112368
H	-1.4225994185	-3.068212044	-0.1213675979	 0.097531
H	-1.4625237401	-1.3985298304	-2.0891202583	 0.104548
H	-3.5471286086	 0.0102889947	-0.9065473795	 0.295038
63.7376	125.8701	180.7389	220.2468	225.4298	259.767	278.9859	306.0328	344.8109	443.8295	455.099	542.6191	605.7303	711.3527	789.9637	822.6857	868.4626	916.3023	928.8922	963.2774	965.7336	974.5181	989.9911	1001.8271	1044.0706	1101.8353	1117.3443	1137.1643	1164.6551	1187.156	1198.5777	1246.214	1299.2764	1322.5666	1329.2425	1345.5161	1393.6421	1394.7659	1416.0736	1478.9255	1486.2728	1494.0883	1501.9367	1513.1911	1519.1353	3016.093	3034.1541	3035.0159	3038.5337	3086.1158	3104.5114	3108.6682	3110.3613	3116.0644	3153.0386	3195.9482	3748.0657
CC(C)C12OCC1C2O	CC(C)[C@]12OC[C@H]1[C@H]2O	
InChI=1S/C7H12O2/c1-4(2)7-5(3-9-7)6(7)8/h4-6,8H,3H2,1-2H3	InChI=1S/C7H12O2/c1-4(2)7-5(3-9-7)6(7)8/h4-6,8H,3H2,1-2H3/t5-,6+,7-/m0/s1
