23
gdb 112127	2.64821	1.19335	0.95662	0.1656	93.81	-0.2324	0.0238	0.2562	1360.0827	0.207442	-351.167111	-351.157895	-351.156951	-351.201586	35.299	
C	 0.404202955	 0.0516622662	 1.8199335444	-0.390639
C	-0.0941582196	 0.3748081373	 0.4085553662	-0.157316
C	-1.3250638945	-0.4613644395	-0.0594440294	-0.082744
C	-1.8606594616	 0.1300521166	-1.342661015	-0.063765
C	-1.5762888995	-0.2115630567	-2.5977975949	-0.062351
C	-0.6740745268	-1.3383038367	-3.0349762274	-0.257206
C	-1.0697449158	-2.7132342813	-2.4753492028	-0.237187
C	-0.9645507156	-2.8643405428	-0.9810181508	-0.063346
C	-1.0524225454	-1.9463299244	-0.0168727059	-0.048746
H	 1.2109739332	 0.7323824188	 2.1095913697	 0.112293
H	-0.3986674051	 0.1566618295	 2.5589390807	 0.11155
H	 0.7927059058	-0.9683628451	 1.891110622	 0.121024
H	-0.3713271936	 1.4349008141	 0.3577164444	 0.094082
H	 0.7157964452	 0.233240589	-0.3163273767	 0.103346
H	-2.0981325848	-0.2915122881	 0.7070202324	 0.08062
H	-2.5150405151	 0.9873195448	-1.1907057525	 0.081579
H	-2.0331132841	 0.3727845173	-3.3938470262	 0.08137
H	-0.669834624	-1.3934302741	-4.128718407	 0.094859
H	 0.3619378789	-1.1278290373	-2.7373733454	 0.11177
H	-2.0942781851	-2.9522398101	-2.795855103	 0.111522
H	-0.4337413046	-3.4777001486	-2.9402878286	 0.096221
H	-0.7970407238	-3.8895584728	-0.6526229742	 0.078812
H	-0.932738929	-2.3168314461	 1.0000258201	 0.084254
37.2118	100.549	155.5499	208.474	238.588	252.9714	341.3169	366.0348	413.4786	488.9326	543.8837	640.5655	725.4039	728.8531	751.7874	796.319	835.2295	867.1562	906.7302	933.0696	956.7945	1005.7252	1023.1208	1037.8671	1044.5475	1053.9691	1080.8363	1102.9186	1147.4064	1193.3087	1255.8996	1271.1423	1275.6346	1296.8888	1318.397	1350.5207	1356.2525	1380.24	1404.9604	1413.3295	1425.5229	1444.2636	1475.8796	1482.8694	1486.6097	1497.7244	1508.458	1732.9729	1741.5408	2969.4335	3001.82	3015.7285	3027.3089	3031.1018	3037.5526	3065.1065	3066.3189	3096.9289	3108.7961	3118.0341	3124.2786	3143.9726	3152.479
CCC1C=CCCC=C1	CC[C@H]1C=CCCC=C1	
InChI=1S/C9H14/c1-2-9-7-5-3-4-6-8-9/h5-9H,2-4H2,1H3	InChI=1S/C9H14/c1-2-9-7-5-3-4-6-8-9/h5-9H,2-4H2,1H3
