20
gdb 58737	3.05524	1.42877	1.2147	2.0107	79.05	-0.2129	0.0835	0.2964	1107.9857	0.170412	-403.061513	-403.053111	-403.052167	-403.094411	32.421	
C	 0.1433835181	 1.3974443159	-0.2148756695	-0.333993
N	-0.0094553768	-0.01806436	 0.0974018881	-0.190666
C	 0.730769685	-0.4281333442	 1.2832807479	-0.336625
C	-1.3264675158	-0.4789008202	 0.0414776841	 0.371896
C	-1.8918039845	-1.8832721633	-0.1327063225	-0.175859
C	-2.8607267474	-1.7210969169	 1.0351076843	-0.227095
C	-2.7558103785	-0.2006276856	 0.7671045847	-0.007228
O	-3.3780687827	-0.0359395167	-0.5347426348	-0.28516
C	-2.2641060934	-0.7234593546	-1.0902434711	 0.009684
H	 1.2050583558	 1.6305950708	-0.3462968266	 0.116836
H	-0.3805910548	 1.6234078472	-1.1467656708	 0.131991
H	-0.2550346481	 2.059016096	 0.5743227608	 0.101455
H	 0.3917420616	 0.0794538316	 2.2041474802	 0.099172
H	 0.6228791728	-1.5064982696	 1.425596822	 0.126806
H	 1.7934771561	-0.2018874209	 1.1481630065	 0.118672
H	-1.3721778626	-2.7670896556	-0.4807198382	 0.090859
H	-3.8639680848	-2.150820174	 0.9529115472	 0.09978
H	-2.3982923718	-2.0016760773	 1.9851929817	 0.099582
H	-3.0562644705	 0.5564183291	 1.488485487	 0.082765
H	-2.1269853577	-0.7409200318	-2.1632820711	 0.10713
86.6859	145.9139	148.8549	226.8695	246.2118	341.7971	381.2622	405.5263	481.544	560.4252	571.6353	748.2589	783.2856	793.8315	843.1713	919.3131	933.9579	960.8815	968.5511	974.6694	1032.3773	1035.0412	1061.3872	1069.7985	1094.4763	1122.8365	1128.2751	1148.4527	1181.149	1197.1689	1215.0508	1249.8533	1263.5405	1304.8198	1327.5349	1439.8142	1449.6252	1479.6164	1481.9891	1489.4081	1498.6627	1500.9186	1530.8952	2946.3386	2955.4216	3048.9505	3062.7189	3064.869	3109.868	3114.8482	3119.2921	3143.2513	3198.8167	3212.6389
CN(C)C12C3CC1OC23	CN(C)[C@@]12[C@H]3C[C@@H]1O[C@@H]23	
InChI=1S/C7H11NO/c1-8(2)7-4-3-5(7)9-6(4)7/h4-6H,3H2,1-2H3	InChI=1S/C7H11NO/c1-8(2)7-4-3-5(7)9-6(4)7/h4-6H,3H2,1-2H3/t4-,5-,6+,7-/m0/s1
