22
gdb 100091	3.26056	0.91989	0.86421	4.1655	78.69	-0.2328	0.0376	0.2704	1453.7252	0.191698	-441.533935	-441.522991	-441.522047	-441.569903	40.633	
C	-0.4369981286	 1.3900841789	 0.017441663	-0.417975
C	 0.2936251255	 0.0494488486	-0.1072445175	-0.167941
C	 0.7737108123	-0.569931541	 1.225538983	 0.31601
C	 1.8443206918	 0.29124749	 1.9081990249	-0.433064
O	-0.358114697	-0.7378181411	 2.1074463162	-0.462629
C	 1.293209738	-1.9946545361	 0.9427423506	-0.293337
C	 1.9478413057	-2.7335958548	 2.1141758096	 0.348797
N	 1.159462961	-2.8591929784	 3.2203012667	-0.504683
O	 3.0654837076	-3.2086013607	 2.0356854738	-0.364025
H	 0.2032285925	 2.1790545213	 0.4243875005	 0.120195
H	-0.7819861268	 1.7272171779	-0.9642883756	 0.123837
H	-1.3223865177	 1.3021837808	 0.6561582752	 0.113531
H	-0.3751084605	-0.6747789555	-0.5865725775	 0.103107
H	 1.1611932008	 0.1618103388	-0.7684050857	 0.100941
H	 1.4669712503	 1.296999988	 2.1220008926	 0.107496
H	 2.1574310226	-0.1604925233	 2.852682544	 0.13362
H	 2.7271073654	 0.39572135	 1.2705425059	 0.131045
H	-0.5845554962	 0.1249046111	 2.4689100931	 0.28427
H	 0.4469116082	-2.5917548236	 0.583293947	 0.123729
H	 2.0415122103	-1.9592775853	 0.1491078533	 0.122934
H	 0.3273611603	-2.2931651626	 3.2966120148	 0.263455
H	 1.5736432746	-3.2653028528	 4.043624802	 0.250689
49.7798	82.0671	105.3324	156.083	218.5223	249.9307	268.5495	300.7166	329.7964	343.517	382.9469	396.3194	417.1617	449.8451	534.9738	567.1372	630.2196	703.8697	779.8799	784.807	859.9044	901.43	927.3021	946.9606	1008.0623	1020.5445	1063.4397	1108.5709	1141.8133	1167.7908	1187.6261	1248.3855	1313.0307	1332.0376	1351.75	1364.3907	1389.0944	1410.4352	1414.2795	1457.7676	1476.6021	1491.478	1497.4725	1507.4412	1511.5365	1613.1174	1797.2003	3030.9593	3036.2191	3040.8639	3047.8134	3069.0201	3104.0689	3105.1136	3110.6863	3124.3647	3127.8107	3559.2445	3706.6518	3821.7993
CCC(C)(O)CC(N)=O	CC[C@@](C)(O)CC(=O)N	
InChI=1S/C6H13NO2/c1-3-6(2,9)4-5(7)8/h9H,3-4H2,1-2H3,(H2,7,8)	InChI=1S/C6H13NO2/c1-3-6(2,9)4-5(7)8/h9H,3-4H2,1-2H3,(H2,7,8)/t6-/m1/s1
