19
gdb 69049	3.16334	1.08221	0.94854	3.8846	77.55	-0.2571	0.005	0.2621	1294.841	0.157632	-423.024961	-423.015997	-423.015053	-423.058993	33.035	
C	 0.0274864629	 1.4906176432	 0.209526527	-0.49327
C	 0.109011682	 0.0004161719	 0.0542352813	 0.273594
C	-0.671074058	-0.9622292728	 0.9288362878	-0.385401
C	 0.8288711518	-1.0494126029	 0.888996639	 0.391828
C	 1.3248723866	-1.7808328573	-0.3540058743	-0.292029
C	 0.538531443	-0.7418939172	-1.2244036305	-0.274856
O	 1.6304495907	-0.8360475508	 2.0183378395	-0.231382
C	 1.4390224536	-1.6503042599	 3.0836136252	 0.147557
O	 2.0980629179	-1.5708297403	 4.0749722555	-0.270448
H	 0.9161387426	 1.9797837555	-0.2041955923	 0.124128
H	-0.8489903582	 1.895603235	-0.3095275408	 0.124441
H	-0.0487912256	 1.7740160687	 1.2639061079	 0.129159
H	-1.073523559	-0.5118159661	 1.8312564578	 0.123044
H	-1.2909566179	-1.7479674184	 0.5010980737	 0.110555
H	 2.4050419621	-1.6824133212	-0.4793395977	 0.122108
H	 1.0482144392	-2.8359576596	-0.4475890438	 0.100432
H	-0.2773908559	-1.1414345468	-1.8342634564	 0.101696
H	 1.1979986944	-0.1489884691	-1.8622032598	 0.110487
H	 0.6155689277	-2.3698612218	 2.924652421	 0.088357
62.0547	127.1933	140.4764	188.4941	201.3834	253.2314	340.4814	371.2839	437.168	462.8641	541.2426	636.7951	714.3687	789.5685	831.7607	872.4232	932.228	941.8319	972.4279	987.9976	1025.0123	1049.5105	1065.631	1089.7861	1140.083	1163.3854	1189.0485	1217.8768	1230.6078	1237.2841	1267.4343	1321.8066	1395.1913	1416.0264	1425.0445	1479.366	1481.5847	1486.1944	1497.9405	1519.0021	1867.4807	2978.5349	3026.3546	3048.1317	3056.3785	3086.7742	3099.7844	3103.1435	3103.9644	3122.3355	3196.4128
CC12CC1(CC2)OC=O	C[C@]12C[C@]1(CC2)OC=O	
InChI=1S/C7H10O2/c1-6-2-3-7(6,4-6)9-5-8/h5H,2-4H2,1H3	InChI=1S/C7H10O2/c1-6-2-3-7(6,4-6)9-5-8/h5H,2-4H2,1H3/t6-,7-/m0/s1
