19
gdb 11409	3.47159	1.55593	1.21849	3.1998	72.61	-0.2526	0.0326	0.2852	1048.1497	0.16665	-365.099369	-365.091311	-365.090367	-365.132125	30.012	
C	 0.0768486061	 1.3768639071	 0.3649606866	-0.383072
C	-0.1060940133	-0.1251441393	 0.1349031108	-0.181696
C	-1.541083391	-0.5089989157	-0.2279673383	 0.120347
C	-1.780772597	-2.0267000765	-0.3556231643	-0.248812
C	-2.2538580928	-2.4145013241	 1.0518873057	-0.299823
C	-2.8754931188	-1.1361559945	 1.5715612785	 0.415684
N	-3.6658545742	-1.0429436852	 2.5517524874	-0.542873
O	-2.4520048852	-0.0812127268	 0.8122107889	-0.245819
H	 1.1114317024	 1.611005894	 0.6318218045	 0.114289
H	-0.1732979999	 1.9469830531	-0.5367894491	 0.114856
H	-0.5728670973	 1.7265063019	 1.1713070516	 0.13599
H	 0.545451478	-0.4640739054	-0.6806632822	 0.10023
H	 0.1987274999	-0.6827176063	 1.0299765198	 0.101631
H	-1.8427084672	 0.0298388037	-1.1326034614	 0.086823
H	-2.5684126036	-2.2212733437	-1.0892680142	 0.114669
H	-0.8831916482	-2.5589724268	-0.6778239775	 0.10954
H	-2.9708061251	-3.2352101554	 1.07947642	 0.13667
H	-1.4155728891	-2.6914753349	 1.7004460951	 0.132751
H	-3.9292773338	-0.0678035351	 2.705185578	 0.218615
82.2802	107.4769	137.4376	220.4556	241.0005	379.891	425.2341	473.5718	521.4101	649.0179	702.9131	778.4382	809.4725	845.3327	894.4125	902.3693	953.9007	962.8361	1006.7889	1035.4696	1053.3857	1096.113	1108.5618	1130.0302	1196.98	1224.614	1275.2956	1288.6196	1313.6074	1319.7849	1338.4763	1391.2465	1404.4382	1414.3588	1473.753	1480.2257	1497.2128	1499.3322	1508.2735	1776.2267	3020.9902	3038.0238	3043.2529	3057.2057	3059.4445	3068.9167	3104.1918	3112.1372	3124.7443	3133.03	3468.7708
CCC1CCC(=N)O1	CC[C@H]1CC[C]([NH])O1	
InChI=1S/C6H11NO/c1-2-5-3-4-6(7)8-5/h5,7H,2-4H2,1H3	InChI=1S/C6H11NO/c1-2-5-3-4-6(7)8-5/h5,7H,2-4H2,1H3/t5-/m0/s1
