17
gdb 133037	4.54572	0.96215	0.84485	1.7605	78.49	-0.2474	-0.0298	0.2176	1341.596	0.136582	-426.04129	-426.033301	-426.032357	-426.074655	29.863	
C	 0.0438985671	 1.5259268313	-0.1871159455	-0.368436
C	-0.0106133356	 0.0181204262	 0.1062314787	-0.265094
C	-1.4172555144	-0.5289434789	 0.0425766077	 0.320217
N	-2.2567772493	-0.1310760573	 1.0105764715	-0.297631
C	-3.5130653248	-0.569603146	 0.9923204863	-0.116315
C	-3.9875302004	-1.4257721295	 0.0059345657	 0.245661
F	-5.2587694196	-1.83473961	 0.0406239205	-0.07732
C	-3.1417234193	-1.8516989326	-1.0035378418	-0.208576
C	-1.8304602396	-1.3893188487	-0.9784299938	-0.158408
H	 1.0652923822	 1.9055750518	-0.0881721984	 0.112045
H	-0.3024147974	 1.7432482829	-1.2029433848	 0.113858
H	-0.5970047285	 2.0689662952	 0.5124838735	 0.138423
H	 0.6273674093	-0.5255114658	-0.5987288167	 0.096732
H	 0.3866365921	-0.1658771217	 1.1106998231	 0.118518
H	-4.1791430024	-0.2397051703	 1.7857184558	 0.120377
H	-3.5045903424	-2.5214279238	-1.7748104576	 0.12082
H	-1.1296282369	-1.6965251224	-1.7471409142	 0.105129
41.1556	103.9419	216.8952	239.4979	330.0042	399.7205	422.8077	437.4512	491.1721	559.1783	644.5328	727.8342	780.899	798.1168	859.2153	864.8656	947.6629	975.3452	982.2321	1034.9848	1070.2535	1085.6008	1140.3599	1239.5825	1262.4043	1278.8317	1309.3642	1322.0409	1360.4854	1402.3094	1419.0998	1480.1758	1495.9473	1507.5949	1520.8222	1619.6262	1639.3721	3037.8221	3039.3918	3078.1626	3107.4905	3124.5862	3162.7679	3184.9432	3205.8156
CCC1=NC=C(F)C=C1	CCc1ncc(F)cc1	
InChI=1S/C7H8FN/c1-2-7-4-3-6(8)5-9-7/h3-5H,2H2,1H3	InChI=1S/C7H8FN/c1-2-7-4-3-6(8)5-9-7/h3-5H,2H2,1H3
