21
gdb 76719	3.37571	0.73158	0.69303	4.2996	80.36	-0.2405	-0.0138	0.2267	1688.2274	0.17982	-424.219066	-424.208582	-424.207638	-424.255883	36.961	
C	 0.0347528978	 1.5885192845	-0.2713609217	-0.418097
C	 0.0655762296	 0.0851813696	-0.0943629812	-0.074483
C	 1.3808850481	-0.6643859514	-0.0077884648	 0.073773
O	 2.5816014611	 0.0542106429	 0.0704802553	-0.41787
C	 0.4921462798	-0.5844402127	 1.2042139553	-0.044153
C	 0.9240275704	 0.1951939759	 2.4294797748	-0.21954
C	 1.8701016088	-0.6298584514	 3.3259224219	-0.265592
C	 2.34987134	 0.1653520815	 4.5154155	 0.154601
O	 2.2264127794	-0.1616868273	 5.66808339	-0.240901
H	 0.9438285157	 2.0600025757	 0.1086803663	 0.127677
H	-0.0519857975	 1.8479641826	-1.3325412676	 0.113756
H	-0.8205884038	 2.0362505565	 0.2455503268	 0.122345
H	-0.7227375327	-0.4368315581	-0.6313881911	 0.084719
H	 1.4645806184	-1.6211042869	-0.5228553089	 0.084201
H	 2.7889454747	 0.391255969	-0.8074020748	 0.291529
H	-0.0393273241	-1.5026693658	 1.4435345636	 0.086904
H	 1.433162811	 1.1158960473	 2.133496464	 0.115623
H	 0.0386221516	 0.4908386193	 3.0058414463	 0.107138
H	 1.3931761566	-1.5466888154	 3.6853524261	 0.113924
H	 2.7507340189	-0.9055378975	 2.7296980184	 0.136386
H	 2.8464640061	 1.1287361116	 4.2467413813	 0.068059
45.7285	66.2102	74.3222	110.5736	167.9696	198.9012	249.556	268.8925	310.3711	331.9802	454.2166	522.8395	571.7695	598.6098	751.9232	772.7128	792.8038	853.6646	899.2072	965.7366	980.2151	1013.0649	1054.8285	1066.7018	1096.1389	1121.9628	1150.5543	1164.8419	1178.729	1218.6981	1252.1827	1266.7016	1295.4546	1316.7265	1352.6869	1381.1694	1397.8726	1417.9769	1430.5008	1458.9493	1467.0952	1487.2605	1501.4918	1507.723	1834.6218	2844.2502	3023.0149	3033.32	3036.4837	3087.73	3088.517	3095.748	3104.3706	3120.2206	3128.6011	3141.6678	3805.646
CC1C(O)C1CCC=O	C[C@H]1[C@@H](O)[C@H]1CCC=O	
InChI=1S/C7H12O2/c1-5-6(7(5)9)3-2-4-8/h4-7,9H,2-3H2,1H3	InChI=1S/C7H12O2/c1-5-6(7(5)9)3-2-4-8/h4-7,9H,2-3H2,1H3/t5-,6+,7-/m1/s1
