16
gdb 15956	3.13196	1.90424	1.37604	1.9337	70.61	-0.2522	0.0177	0.2699	916.3969	0.129114	-346.526687	-346.51905	-346.518106	-346.558825	28.616	
C	-0.0796944839	-1.1366231296	-0.4119909421	-0.452757
C	-0.0317000845	 0.0289326818	-0.1208796131	 0.341007
C	 0.0395644219	 1.4455805482	 0.196712445	-0.117115
O	 0.0333810813	 1.7316179064	 1.6205701866	-0.28655
C	 1.2886529566	 2.4477906797	 1.5473260768	-0.137064
C	 1.4048108623	 2.143313347	 0.060109312	 0.297397
C	 2.5940805318	 1.6935953735	-0.7222276612	-0.321241
C	 1.8994339496	 2.9935658803	-1.0657610883	-0.324398
H	-0.1306617169	-2.1688031665	-0.6575201434	 0.201929
H	-0.7805389711	 1.9793590039	-0.3042777988	 0.102936
H	 1.1683842536	 3.5066086458	 1.8113061541	 0.103167
H	 2.0522461039	 1.9973467289	 2.1937357559	 0.109279
H	 3.5656110065	 1.7423718178	-0.2405602101	 0.117156
H	 2.463934292	 0.8470195675	-1.3884355264	 0.128532
H	 1.3050588011	 3.0320787244	-1.9733635184	 0.120129
H	 2.3980879858	 3.9257843509	-0.8191200687	 0.117593
66.8741	126.5334	199.7787	272.5546	294.1731	358.5986	488.8748	533.6299	592.7742	619.3126	674.0694	771.189	823.0564	870.447	894.7557	951.7529	960.2704	985.764	1014.7298	1051.1147	1068.9518	1078.259	1103.6017	1150.6287	1187.5033	1233.9605	1254.4812	1324.3605	1356.4385	1407.9135	1463.3644	1508.1065	1524.7273	2232.5218	2998.1604	3008.5738	3050.4936	3122.911	3127.8436	3202.2985	3217.8443	3501.5074
C#CC1OCC11CC1	C#C[C@H]1OCC21CC2	
InChI=1S/C7H8O/c1-2-6-7(3-4-7)5-8-6/h1,6H,3-5H2	InChI=1S/C7H8O/c1-2-6-7(3-4-7)5-8-6/h1,6H,3-5H2/t6-/m1/s1
