21
gdb 101461	3.33924	1.00973	0.83621	0.9811	80.99	-0.2287	0.0171	0.2458	1432.5012	0.181435	-424.230129	-424.220526	-424.219582	-424.264963	35.31	
C	-0.1279473194	 1.5386416266	-0.0273986129	-0.385037
C	-0.0204895001	 0.0120642459	-0.0361361158	-0.192877
C	 0.7507620385	-0.5292342125	-1.2408450374	 0.11995
O	 2.0922980723	-0.0458352482	-1.2880129218	-0.435613
C	 0.7630010429	-2.0707351605	-1.2833534952	 0.062527
O	-0.5718811724	-2.5832332031	-1.272313225	-0.277883
C	-0.7769729736	-3.4644394481	-2.3760886329	-0.115523
C	 0.5084870756	-3.4210605607	-3.1528762956	-0.099958
C	 1.3824346208	-2.6395160273	-2.5304503863	-0.089501
H	 0.8624273269	 2.0006343497	-0.0699711093	 0.121914
H	-0.6963068117	 1.8967234705	-0.8928515687	 0.115607
H	-0.6349099468	 1.8943773769	 0.8745691643	 0.109393
H	 0.4804588739	-0.3359815053	 0.8807407408	 0.078735
H	-1.0135151868	-0.4482885065	-0.0336154208	 0.12277
H	 0.2858129632	-0.1690438987	-2.1668139153	 0.087677
H	 2.4988833555	-0.2358554401	-0.4346251386	 0.27821
H	 1.2929136797	-2.4224836735	-0.3770620649	 0.064861
H	-1.0126192744	-4.4768927315	-2.0099495318	 0.104168
H	-1.6426482492	-3.1244361494	-2.9646709393	 0.107393
H	 0.6594542671	-3.9637828704	-4.0773959159	 0.1061
H	 2.3909802781	-2.3991546041	-2.8361710976	 0.117087
75.3278	81.5755	119.4541	147.0208	213.8769	256.7996	283.6749	300.2424	374.9928	420.682	466.2939	549.4702	721.6483	768.9618	783.4266	816.3149	892.5992	929.0892	942.0085	963.6595	982.8097	998.26	1046.0964	1060.4287	1081.7145	1109.6138	1111.9016	1132.1813	1146.3929	1196.4133	1238.9571	1266.7258	1301.9522	1326.9464	1354.3756	1375.4547	1384.2365	1390.3044	1405.1967	1416.6268	1486.2469	1496.0796	1509.2583	1521.8427	1690.3987	2911.0315	2971.7001	2992.1903	2996.3333	3036.6125	3044.2102	3082.163	3102.2112	3116.9607	3213.0293	3245.5771	3791.0153
CCC(O)C1OCC=C1	CC[C@@H](O)[C@H]1OCC=C1	
InChI=1S/C7H12O2/c1-2-6(8)7-4-3-5-9-7/h3-4,6-8H,2,5H2,1H3	InChI=1S/C7H12O2/c1-2-6(8)7-4-3-5-9-7/h3-4,6-8H,2,5H2,1H3/t6-,7+/m1/s1
