15
gdb 56493	2.29198	1.27345	1.00974	4.2269	76.63	-0.2668	0.0023	0.2691	1195.6148	0.109912	-379.596586	-379.586918	-379.585974	-379.631169	34.827	
N	-0.0424860561	 1.5059296605	 0.1423947382	-0.497088
C	-0.0159994451	 0.0638707062	-0.0144515125	-0.144435
C	-1.3737619701	-0.4847952258	 0.1210319012	 0.309466
N	-2.4303031654	-0.941392475	 0.2144880927	-0.312682
C	 0.628432581	-0.4693024656	-1.3627200104	-0.366593
C	-0.0913316346	 0.0557738809	-2.5232327679	 0.333443
C	-0.7102195542	 0.5117405028	-3.4457123587	-0.433401
C	 2.046444685	-0.1057818485	-1.3845096129	 0.301575
C	 3.2044012815	 0.2116407337	-1.3496861768	-0.41428
H	 0.9098951611	 1.8576918168	 0.1015705669	 0.247692
H	-0.5542789727	 1.9257856579	-0.6292810481	 0.249362
H	 0.5903548702	-0.3552311857	 0.7963159181	 0.147975
H	 0.5419919819	-1.5645779473	-1.353985659	 0.15633
H	-1.254620068	 0.8938360961	-4.2742934177	 0.212729
H	 4.2333993656	 0.4764120631	-1.3437316933	 0.209907
64.1217	112.5199	127.9703	150.3801	191.712	259.1349	334.9653	336.8036	343.5111	442.0665	495.894	561.4308	578.5277	651.4837	652.2808	666.1336	667.4714	710.6935	807.7789	879.3445	909.9581	988.9934	1043.7489	1111.1048	1198.9755	1265.55	1279.7439	1342.9715	1418.1651	1661.6176	2238.8918	2244.5604	2367.5071	3017.201	3057.9446	3489.5912	3499.7549	3500.7054	3574.6587
NC(C#N)C(C#C)C#C	N[C@@H](C#N)C(C#C)C#C	
InChI=1S/C7H6N2/c1-3-6(4-2)7(9)5-8/h1-2,6-7H,9H2	InChI=1S/C7H6N2/c1-3-6(4-2)7(9)5-8/h1-2,6-7H,9H2/t7-/m0/s1
