17
gdb 81862	2.85963	1.54554	1.15918	3.3097	68.02	-0.2666	-0.0037	0.263	1064.797	0.135453	-458.993369	-458.985247	-458.984303	-459.025897	31.149	
C	 0.0277233563	 1.5754518546	 0.130883997	-0.469894
C	 0.0974397928	 0.0805956972	 0.0521751302	 0.409488
C	-0.8882719931	-0.8587636753	 0.6808056966	-0.338226
C	 0.5606268862	-0.8566549862	 1.1404338547	-0.115519
C	 1.4864893328	-1.8384588246	 0.4728717108	-0.016269
O	 1.1708845658	-3.1930357856	 0.7032851493	-0.43001
C	 1.3326554042	-1.5153057047	-1.0263930768	 0.382759
O	 1.7382699211	-2.1941894655	-1.9269143737	-0.348577
O	 0.620782557	-0.3784649047	-1.2017901245	-0.24095
H	 1.0172535475	 2.0214160219	-0.0098273979	 0.133075
H	-0.6406634703	 1.9744629686	-0.6384672405	 0.140592
H	-0.3550207839	 1.8820984416	 1.1080022188	 0.128076
H	-1.6181257671	-0.4383723475	 1.3634508352	 0.125198
H	-1.2398802698	-1.7057562011	 0.1016572108	 0.139574
H	 0.8016863777	-0.4833466854	 2.1276975417	 0.104124
H	 2.5294224146	-1.6227851514	 0.7580806244	 0.09959
H	 1.5340077378	-3.6850670618	-0.0459023761	 0.296969
93.6366	154.968	209.8267	240.7753	284.7964	331.5921	407.2204	436.3651	488.9291	533.2717	589.2581	631.4719	713.383	767.2982	843.5217	877.9312	914.211	963.7664	981.8042	994.0818	1050.6948	1073.6058	1089.8146	1129.7847	1140.4842	1189.951	1232.0126	1272.5494	1302.6943	1350.6906	1401.5038	1426.9927	1436.9076	1478.5198	1487.0301	1504.2714	1873.6872	2969.2524	3041.2949	3108.9772	3122.3321	3138.6831	3189.9624	3229.0326	3758.1122
CC12CC1C(O)C(=O)O2	C[C@]12C[C@H]1[C@@H](O)C(=O)O2	
InChI=1S/C6H8O3/c1-6-2-3(6)4(7)5(8)9-6/h3-4,7H,2H2,1H3	InChI=1S/C6H8O3/c1-6-2-3(6)4(7)5(8)9-6/h3-4,7H,2H2,1H3/t3-,4+,6-/m0/s1
