16
gdb 131829	2.95737	1.28305	0.95465	3.1541	66.19	-0.2178	0.0218	0.2396	1184.7381	0.125827	-471.238571	-471.230087	-471.229142	-471.272564	30.289	
O	-0.240310585	 1.533037206	 0.3324556425	-0.415299
C	 0.0683126026	 0.1755392799	 0.050569043	-0.077665
C	-1.2476799787	-0.5680864299	-0.1273472656	-0.168993
N	-1.9825827058	-0.1434922172	-1.3017679382	-0.114648
C	-2.5676948478	 1.0697914135	-1.570824611	 0.048065
N	-3.1569317819	 1.0947726021	-2.7257974022	-0.225695
N	-2.9397773289	-0.1686457477	-3.2308063478	-0.311489
C	-2.2179569481	-0.9899156301	-2.3977132041	 0.470267
O	-1.8611039423	-2.1429963967	-2.5391668787	-0.438124
H	 0.5674076618	 2.0513826338	 0.2768914425	 0.295961
H	 0.6703248529	 0.0786596028	-0.8640113952	 0.110762
H	 0.6260403167	-0.2896480216	 0.8777656802	 0.100375
H	-1.0622488161	-1.6372693655	-0.2611716372	 0.152837
H	-1.8639535249	-0.4276216917	 0.7674590394	 0.129564
H	-2.5164744014	 1.9035140123	-0.8909164278	 0.164218
H	-3.3048111331	-0.42388375	-4.1309605898	 0.279865
44.3675	114.867	136.8989	221.434	245.2938	260.1615	339.6284	434.8391	463.6839	545.8339	660.1804	673.5408	753.7222	781.9369	857.5491	891.5194	923.2733	974.8716	1058.8965	1087.2665	1099.8865	1177.1593	1211.8259	1246.0423	1264.6298	1280.0836	1370.6422	1373.7819	1398.132	1429.8675	1455.1813	1476.639	1513.6687	1618.1253	1833.6274	2986.0482	3025.9501	3053.2091	3115.8814	3291.7772	3700.7527	3838.7857
OCCN1C=NNC1=O	OCCn1cn[nH]c1=O	
InChI=1S/C4H7N3O2/c8-2-1-7-3-5-6-4(7)9/h3,8H,1-2H2,(H,6,9)	InChI=1S/C4H7N3O2/c8-2-1-7-3-5-6-4(7)9/h3,8H,1-2H2,(H,6,9)
