12
gdb 132134	3.12094	1.47115	0.99984	1.8717	64.06	-0.2249	-0.0656	0.1593	1048.6602	0.076988	-513.925639	-513.91842	-513.917476	-513.957717	26.85	
O	 0.0535202538	 1.3190921698	 0.0069938467	-0.38042
C	-0.0252113184	-0.0031671845	 0.0009259886	 0.388993
C	-1.1914352999	-0.7028801545	 0.0036170299	 0.048277
F	-2.3797748517	-0.0920823969	 0.0128432943	-0.062178
C	-1.0846570933	-2.1129156409	-0.0038622935	-0.056636
N	 0.0413146274	-2.7655678206	-0.0129833754	-0.320964
C	 1.2224333022	-2.0584561638	-0.0156683925	 0.434383
N	 2.4071213006	-2.4944675238	-0.0241683013	-0.524064
O	 1.1451654741	-0.629354886	-0.0082726103	-0.23742
H	 0.9898899968	 1.5655573551	 0.0032893532	 0.325537
H	-2.0074890899	-2.6924583128	-0.0018724293	 0.142758
H	 2.3733227283	-3.512000041	-0.0290832803	 0.241734
70.823	184.7374	277.7437	313.6197	359.7439	428.8558	458.3541	477.5397	530.463	596.1477	690.4827	733.5413	747.3045	807.9078	845.5277	895.6031	987.1204	989.379	1157.5281	1235.5682	1302.5697	1311.9254	1425.8318	1442.8173	1586.0524	1727.1848	1767.6596	3142.9747	3529.5923	3769.1634
OC1=C(F)C=NC(=N)O1	O[C@@H]1C(=CN=C([NH])O1)F	
InChI=1S/C4H3FN2O2/c5-2-1-7-4(6)9-3(2)8/h1,6,8H	InChI=1S/C4H4FN2O2/c5-2-1-7-4(6)9-3(2)8/h1,3,6,8H/t3-/m0/s1
