19
gdb 114026	4.0453	0.70184	0.67609	2.1345	74.67	-0.2549	0.0247	0.2796	1682.2503	0.15901	-456.300157	-456.290441	-456.289497	-456.336325	34.124	
O	-0.3131953421	 0.946089968	-1.1970864043	-0.417918
C	-0.0611441864	 0.1494173268	-0.0534354453	-0.065739
C	-1.2737064722	-0.6839992627	 0.2950334475	-0.042032
N	-1.5425319835	-1.8119860963	-0.6200667579	-0.351119
C	-1.2450294223	-2.0840803406	 0.7980826532	-0.025051
C	 0.0096442285	-2.8714680164	 1.0878835436	-0.105961
O	-0.2495744766	-4.2746158756	 1.0337272778	-0.185008
C	-0.2299779698	-4.8437977885	-0.1916569555	 0.126207
N	-0.5761747097	-6.0500014118	-0.3255400793	-0.440637
H	-0.5608604672	 0.3350901252	-1.9010242583	 0.28985
H	 0.8183431246	-0.4924495907	-0.2021654006	 0.088779
H	 0.1672031376	 0.843591302	 0.7621542009	 0.11454
H	-2.1330501879	-0.0892650116	 0.6007870767	 0.099299
H	-2.5381986611	-1.9048785335	-0.799113721	 0.242175
H	-2.0806652437	-2.3792770111	 1.4304913643	 0.10576
H	 0.8093560676	-2.6050472215	 0.3886958313	 0.113421
H	 0.3591682776	-2.6794828931	 2.1062154424	 0.125499
H	 0.1101315846	-4.1650888272	-0.9835430052	 0.100279
H	-0.4758561479	-6.3298816315	-1.2991409004	 0.227656
41.334	70.1287	81.4288	122.2202	152.7386	229.9312	304.0008	338.7609	406.2588	432.1172	478.3187	554.3099	660.8835	805.2041	821.7019	851.7815	890.2429	960.706	983.1183	985.0612	1025.2891	1043.0423	1052.6287	1072.7006	1131.4664	1150.5782	1182.0459	1225.8184	1265.1492	1272.322	1277.6128	1333.1522	1364.3861	1381.6949	1407.4714	1424.6286	1440.647	1482.3932	1491.6621	1499.6773	1743.7832	3006.8645	3044.4782	3052.0626	3076.7732	3102.0658	3120.7287	3132.2439	3513.9651	3515.8898	3794.0557
OCC1NC1COC=N	OC[C@H]1N[C@H]1CO[CH][NH]	
InChI=1S/C5H10N2O2/c6-3-9-2-5-4(1-8)7-5/h3-8H,1-2H2	InChI=1S/C5H10N2O2/c6-3-9-2-5-4(1-8)7-5/h3-8H,1-2H2/t4-,5+/m1/s1
