19
gdb 78976	2.98228	1.9835	1.72791	1.7379	75.73	-0.2417	0.0836	0.3253	867.3273	0.16325	-385.868962	-385.8628	-385.861856	-385.898995	27.433	
O	 0.1383856764	 1.4062026098	 0.1354026007	-0.458389
C	 0.0464640904	 0.0031566208	 0.0332070226	 0.173833
C	-1.3743269974	-0.5298455805	-0.2423926851	-0.085366
C	-1.698486892	 0.0312132934	-1.6442530646	-0.103166
C	-1.4760767104	-1.314702344	-2.2776961015	-0.071564
C	-0.3661401823	-0.2775200774	-2.3329208172	-0.079225
C	 0.6813151769	-0.6327821149	-1.2342653018	-0.090313
C	 0.3916024147	-2.1260976453	-0.9608211268	-0.220297
C	-1.1396681577	-1.9568039129	-0.9159575185	-0.05742
H	-0.2539952612	 1.7749812053	-0.664941333	 0.281592
H	 0.4909820247	-0.3908447495	 0.9520791367	 0.079049
H	-2.1186527268	-0.4419399291	 0.5461080918	 0.066615
H	-2.3758924661	 0.8291682269	-1.9232983568	 0.083766
H	-1.9409031184	-1.7668753198	-3.1449539787	 0.082603
H	-0.1047426935	 0.1983908491	-3.2685221901	 0.085173
H	 1.7104105728	-0.3450499016	-1.4452144946	 0.060917
H	 0.7038644401	-2.7879626247	-1.7745519194	 0.094107
H	 0.8366279755	-2.480218242	-0.0250500928	 0.092508
H	-1.7496188557	-2.7879963537	-0.5675842909	 0.065576
214.0335	308.5979	371.1756	424.4972	504.443	562.0174	669.7618	716.504	763.3069	790.1981	802.3879	813.3703	838.3432	873.1774	891.5627	906.9419	917.4607	939.4424	966.9964	979.1355	1009.7098	1015.2046	1046.9718	1052.2512	1058.721	1101.9941	1129.0078	1153.7681	1181.6477	1202.2465	1223.3342	1234.9711	1255.0458	1267.6383	1278.7793	1287.3914	1303.4761	1330.9456	1368.3817	1436.3121	1494.967	3043.8668	3071.4559	3094.6903	3127.6221	3131.7089	3142.1978	3176.0343	3187.6859	3208.2802	3788.6255
OC1C2C3C4C3C1CC24	O[C@H]1[C@H]2[C@@H]3[C@H]4[C@@H]3[C@@H]1C[C@@H]24	
InChI=1S/C8H10O/c9-8-3-1-2-4-5(3)7(4)6(2)8/h2-9H,1H2	InChI=1S/C8H10O/c9-8-3-1-2-4-5(3)7(4)6(2)8/h2-9H,1H2/t2-,3+,4-,5+,6-,7-,8-/m1/s1
