21
gdb 70610	2.33711	1.84061	1.29631	1.5932	81.59	-0.2527	0.0881	0.3408	1061.9251	0.183222	-387.07995	-387.07172	-387.070776	-387.112273	33.053	
C	-0.0215949113	 1.5070815486	-0.0140043519	-0.490382
C	 0.0185766688	-0.0016243507	-0.0038673763	 0.28154
C	-0.5683522057	-0.7751037775	 1.160316931	-0.342141
C	 0.9191262581	-0.8114264941	 0.9147189284	-0.07006
C	 1.4713046107	-2.0045660204	 0.1452450265	-0.223843
C	 0.5384056922	-2.1482247583	-1.0814759979	-0.317764
C	-0.0004551388	-0.7400659295	-1.322359534	 0.398167
C	-0.8495385042	-0.3879719634	-2.4633525736	-0.262414
O	 0.5373437338	-0.0263999536	-2.4495307575	-0.27918
H	 0.7389172454	 1.9124307454	-0.6864031451	 0.136711
H	-0.9968775848	 1.8814458989	-0.3472057333	 0.113865
H	 0.1534007744	 1.9041116092	 0.9904451283	 0.111242
H	-0.9172131694	-0.1817474372	 1.9990632343	 0.109229
H	-1.1645297883	-1.6633006942	 0.9756819208	 0.107209
H	 1.5668412284	-0.3086215242	 1.6250430751	 0.081974
H	 2.4935360142	-1.7830264516	-0.1811222423	 0.108534
H	 1.5118659234	-2.920112494	 0.7447225496	 0.097296
H	 1.0510059622	-2.5191568529	-1.9713940076	 0.114964
H	-0.2862004438	-2.8362658314	-0.8675194277	 0.107879
H	-1.1245242898	-1.1531500331	-3.1894240873	 0.107868
H	-1.5489362255	 0.444020124	-2.3892845396	 0.109308
98.112	179.3692	220.441	257.2684	264.6821	355.6961	393.4998	422.7763	445.5515	557.9804	602.6709	655.608	771.2653	809.0856	816.8457	863.6901	889.3897	904.9179	947.4295	957.8896	978.5605	1003.1086	1054.1194	1064.7097	1086.0865	1102.7095	1117.6284	1129.8549	1150.1719	1169.0937	1196.1273	1226.2027	1278.6566	1300.3622	1329.6445	1335.6942	1396.3962	1415.0771	1426.4827	1477.7038	1483.001	1493.088	1504.7947	1507.8668	1532.7066	3030.2798	3038.9344	3050.9656	3074.9085	3077.3819	3090.6862	3113.2433	3119.6212	3125.8876	3157.7131	3164.2326	3207.2211
CC12CC1CCC21CO1	C[C@]12C[C@H]1CC[C@]12CO1	
InChI=1S/C8H12O/c1-7-4-6(7)2-3-8(7)5-9-8/h6H,2-5H2,1H3	InChI=1S/C8H12O/c1-7-4-6(7)2-3-8(7)5-9-8/h6H,2-5H2,1H3/t6-,7+,8-/m1/s1
