17
gdb 53592	2.2701	1.23726	0.9568	2.7944	80.69	-0.2524	0.0111	0.2634	1286.3948	0.134275	-380.822378	-380.812704	-380.811759	-380.85825	33.34	
C	 0.7140747775	 0.2134273728	-1.1034730865	-0.500725
C	 0.1251037695	-0.7337468157	-0.1688760577	 0.063196
C	-0.3267027102	-1.5349664972	 0.6089934236	 0.066613
C	-0.8969879485	-2.5072963594	 1.5397530112	-0.29415
N	-1.6112473411	-3.6660268907	 0.9674196385	-0.088936
C	-2.1032196574	-3.6137409493	-0.3934502852	-0.237668
C	-0.9694732938	-4.5284299762	-0.0307776964	-0.134423
C	 0.3582494311	-4.2875310765	-0.5447648294	 0.29099
N	 1.4379114528	-4.178894814	-0.9458608023	-0.340845
H	 1.3542245196	-0.3021544737	-1.8272939605	 0.165056
H	-0.0534589475	 0.7623532086	-1.6595202985	 0.147536
H	 1.3323958183	 0.9482130624	-0.5765570441	 0.154367
H	-0.1158994981	-2.9077494092	 2.1958573072	 0.149591
H	-1.6240908712	-2.0073620105	 2.1907309847	 0.145067
H	-3.0882601638	-4.0394269571	-0.5622346159	 0.130448
H	-1.8473047411	-2.7456738284	-0.9959460256	 0.144433
H	-1.1727733363	-5.586477406	 0.1151164069	 0.13945
44.5755	53.2248	85.6768	136.9704	202.7196	219.214	279.133	345.9338	373.9621	385.7567	518.5638	546.9308	615.8021	737.6351	779.6112	809.0393	908.7748	987.3005	1029.3742	1047.1626	1051.1836	1055.6151	1122.6063	1130.1973	1157.528	1162.1367	1285.4694	1313.8039	1358.9794	1375.7938	1412.481	1470.2955	1475.241	1477.9214	1495.7409	2349.4348	2365.1068	3030.5763	3033.5837	3068.4019	3092.7956	3096.2761	3108.6878	3140.2328	3202.2735
CC#CCN1CC1C#N	CC#CCN1C[C@H]1C#N	
InChI=1S/C7H8N2/c1-2-3-4-9-6-7(9)5-8/h7H,4,6H2,1H3	InChI=1S/C7H8N2/c1-2-3-4-9-6-7(9)5-8/h7H,4,6H2,1H3/t7-,9?/m1/s1
