21
gdb 81188	2.91868	1.54448	1.40187	0.2704	88.17	-0.2309	0.0152	0.2461	1051.5851	0.184808	-349.888266	-349.880911	-349.879967	-349.919515	31.054	
C	-0.1003136918	 1.6021371787	 0.0903689742	-0.447998
C	 0.0531047781	 0.0906607207	 0.0116913741	 0.048945
C	 1.1895798801	-0.5933645093	-0.7922836229	-0.111385
C	 2.1875213795	-0.1783354958	 0.3601395416	-0.32418
C	 0.9099482325	-0.7270849715	 1.0657211242	 0.314271
C	 0.3196007873	-1.3103894162	 2.3102219764	-0.243045
C	-0.373901334	-2.4037587003	 1.953415959	-0.045788
C	-0.2863640028	-2.7322228199	 0.4521861719	-0.352415
C	 0.9451225678	-1.8917806768	 0.0575180137	 0.036076
H	 0.8357010837	 2.1337868547	 0.2785272835	 0.116014
H	-0.5157430545	 1.9916276691	-0.8463913201	 0.114735
H	-0.7994383016	 1.8716525202	 0.8901279654	 0.116488
H	-0.9309608932	-0.3515312276	-0.1679157827	 0.061112
H	 1.3807913854	-0.5145710727	-1.8649297363	 0.06334
H	 3.0892354518	-0.7890377324	 0.4578545995	 0.093318
H	 2.4262041449	 0.8812249755	 0.4548270535	 0.092669
H	 0.3460351297	-0.8835468261	 3.3059388054	 0.095186
H	-0.9898326316	-2.9889987886	 2.6293250843	 0.091703
H	-0.1413337242	-3.8014243632	 0.2668345416	 0.10021
H	-1.2216694887	-2.4568841719	-0.0501118152	 0.115941
H	 1.8458067717	-2.5079643766	 0.1505639291	 0.064803
169.2686	186.4466	247.0248	290.8216	385.7132	438.115	491.4285	538.8251	593.6642	642.5181	733.0375	740.8652	791.9993	806.9028	830.0759	875.2199	898.3448	925.7826	950.6591	971.7538	1001.7258	1017.2351	1034.2382	1083.5857	1093.7558	1103.039	1121.099	1124.3719	1153.6629	1170.2214	1182.9424	1201.2329	1218.8611	1232.4547	1256.0213	1287.4854	1359.391	1406.1963	1411.7189	1422.3919	1484.1468	1495.8306	1498.7583	1531.4811	1619.8534	3030.173	3033.1669	3039.7798	3060.2573	3063.4777	3073.4029	3083.7147	3085.2488	3115.9246	3134.5985	3175.6755	3205.8436
CC1C2CC11C=CCC21	C[C@H]1[C@H]2C[C@]31C=CC[C@@H]23	
InChI=1S/C9H12/c1-6-7-5-9(6)4-2-3-8(7)9/h2,4,6-8H,3,5H2,1H3	InChI=1S/C9H12/c1-6-7-5-9(6)4-2-3-8(7)9/h2,4,6-8H,3,5H2,1H3/t6-,7+,8-,9-/m0/s1
