25
gdb 108369	1.95945	1.53696	1.16364	0.217	93.03	-0.2376	0.0789	0.3165	1262.1183	0.22816	-352.341325	-352.331264	-352.330319	-352.375595	39.165	
C	-1.1006365411	 0.4941406631	-0.0061034263	-0.373112
C	 0.1780030417	-0.3322130285	 0.2005379399	-0.294198
C	 0.8052264755	-0.7604417657	-1.1023958679	 0.336412
C	 0.147306353	-1.8353212925	-1.9931618589	-0.291611
C	 1.552626964	-2.4384161579	-2.3042830732	-0.242354
C	 2.191048437	-1.3507823401	-1.4373751161	-0.164359
C	 1.8199590124	 0.0454989757	-1.894765053	 0.29544
C	 1.6282327839	 0.4123585108	-3.3574351541	-0.463919
C	 2.5391838649	 1.1468982104	-1.1274828985	-0.461714
H	-0.8874123735	 1.4217704798	-0.5475301102	 0.116541
H	-1.8435517982	-0.063288563	-0.5867934646	 0.117428
H	-1.5589936095	 0.7605350969	 0.9515645331	 0.108375
H	 0.8881910574	 0.2438745821	 0.8021439187	 0.095404
H	-0.0634882005	-1.2266825159	 0.791285562	 0.090564
H	-0.4699224333	-2.5213481094	-1.406356182	 0.096538
H	-0.4495149667	-1.4847355277	-2.841020268	 0.092081
H	 1.670877821	-3.4384682824	-1.8808255109	 0.098682
H	 1.862378175	-2.4745212258	-3.3539037168	 0.093238
H	 3.0412933092	-1.5017137218	-0.7794225964	 0.072266
H	 1.1261361571	-0.364695346	-3.9364230138	 0.117015
H	 1.0313656539	 1.3276946638	-3.4498020303	 0.110307
H	 2.596419373	 0.6048006172	-3.8351327729	 0.110306
H	 3.4819187938	 1.3987347041	-1.6269268837	 0.112332
H	 1.9384592302	 2.0629359977	-1.080355279	 0.112371
H	 2.78213003	 0.8523389549	-0.1034019271	 0.115966
71.9679	131.05	179.1424	201.7469	228.9398	247.0449	275.8889	286.612	341.069	371.0641	405.4777	437.1592	499.7383	626.4348	693.5716	707.6326	781.9258	805.3813	895.496	925.4058	946.7956	947.1646	966.3468	987.5842	991.907	1016.0534	1038.4432	1056.1544	1104.8364	1112.1934	1151.6412	1187.4084	1198.4464	1227.7482	1230.9397	1264.2101	1285.2506	1296.7441	1314.8911	1356.85	1407.2987	1409.0148	1425.6334	1436.2592	1473.9929	1482.7588	1488.9966	1495.4419	1499.1037	1505.833	1509.6318	1513.9621	1516.3348	3011.2414	3022.2336	3027.0942	3031.5581	3041.6835	3048.8878	3067.7014	3074.8633	3080.4165	3084.3796	3101.1023	3102.3507	3104.5503	3111.344	3127.8747	3154.7228
CCC12CCC1C2(C)C	CC[C@]12CC[C@H]1C2(C)C	
InChI=1S/C9H16/c1-4-9-6-5-7(9)8(9,2)3/h7H,4-6H2,1-3H3	InChI=1S/C9H16/c1-4-9-6-5-7(9)8(9,2)3/h7H,4-6H2,1-3H3/t7-,9-/m0/s1
