20
gdb 108120	3.00179	1.52551	1.38463	1.242	77.69	-0.23	0.0771	0.3071	1041.0549	0.17295	-403.103123	-403.095638	-403.094694	-403.135023	30.325	
C	-0.0716910021	 1.5675537329	-0.0700234491	-0.383774
C	-0.0401993033	 0.0336148881	-0.0518456827	-0.313741
C	 0.687677175	-0.5393044225	-1.2304174179	 0.506669
O	 0.1275008316	-0.287681684	-2.5252934941	-0.332726
C	 1.0428962628	-1.3173032767	-2.9984510409	 0.047906
C	 2.3905736702	-0.5833956772	-2.8942931764	-0.219166
C	 2.2994234665	-0.4766551124	-1.3558146333	-0.100393
N	 2.309743254	-1.8906776406	-0.8857193842	-0.312761
C	 1.0124375942	-2.0099311471	-1.5546247176	-0.122235
H	 0.9389865497	 1.9860254717	-0.020688401	 0.116263
H	-0.5416556457	 1.9338874406	-0.9870064482	 0.136392
H	-0.636494402	 1.9558107646	 0.7823391635	 0.112549
H	 0.449514214	-0.33291406	 0.8572724891	 0.118906
H	-1.0639057342	-0.3593961189	-0.0475775182	 0.105738
H	 0.730393105	-1.7944366587	-3.9254605827	 0.078146
H	 3.2652433369	-1.1579056442	-3.2154006608	 0.089482
H	 2.3522581622	 0.3681929535	-3.42855084	 0.110956
H	 2.9254906316	 0.236797584	-0.8214951465	 0.072327
H	 3.0611711404	-2.4528781703	-1.2853878395	 0.208955
H	 0.3698026631	-2.870635223	-1.3722692594	 0.080505
93.156	152.228	205.7577	300.2795	338.4154	459.8984	517.0257	542.0406	605.3035	703.4651	742.7934	771.9138	817.7646	828.8531	887.8554	916.1556	935.9905	950.9257	966.387	978.8615	981.4126	999.6213	1034.6425	1038.5769	1089.631	1116.8857	1131.6216	1157.9421	1175.1681	1223.0171	1237.7909	1254.7951	1272.9223	1313.5145	1317.9215	1334.8513	1339.415	1406.4083	1413.2025	1476.6138	1477.2483	1499.6493	1509.1925	3034.509	3040.5576	3055.9957	3075.5135	3108.136	3119.7301	3120.7212	3124.3293	3128.8785	3142.456	3448.3668
CCC12OC3CC1NC23	CC[C@@]12O[C@H]3C[C@@H]1N[C@@H]23	
InChI=1S/C7H11NO/c1-2-7-5-3-4(9-7)6(7)8-5/h4-6,8H,2-3H2,1H3	InChI=1S/C7H11NO/c1-2-7-5-3-4(9-7)6(7)8-5/h4-6,8H,2-3H2,1H3/t4-,5-,6+,7+/m0/s1
