20
gdb 39419	2.37468	2.0411	1.4043	1.3849	78.16	-0.211	0.0843	0.2954	983.4938	0.173527	-403.093504	-403.08623	-403.085285	-403.124699	30.189	
C	 0.1318471388	 1.4985979825	-0.2903122595	-0.330253
C	 1.3303684206	 0.5995298898	-0.1663202522	 0.084877
O	 2.1721605169	 0.8844263973	 0.9068478708	-0.250235
C	 2.7286939266	-0.2439740582	 1.5725511501	-0.072333
C	 1.7590447765	-1.4093067285	 1.8229923767	-0.249851
C	 0.3553895804	-1.0680584514	 2.2970432537	 0.0064
C	-0.0860130369	 0.3163224001	 2.6450659762	-0.26665
N	-0.5549913085	-0.3218464748	 1.4154468475	-0.097436
C	-0.0649961296	 0.0606030628	 0.1168767747	-0.00108
H	 0.0311507202	 2.246227627	 0.4891604618	 0.128516
H	-0.1968978246	 1.817249217	-1.2729994949	 0.114245
H	 1.8372986406	 0.2668523214	-1.0737656951	 0.083143
H	 3.5998749173	-0.6232191317	 1.0155003328	 0.094657
H	 3.0954910353	 0.1537582591	 2.524283391	 0.111112
H	 1.6673727997	-2.0110064728	 0.9097243372	 0.11391
H	 2.2336560845	-2.0649998179	 2.5631716554	 0.105458
H	-0.1348728012	-1.8948780286	 2.8099316448	 0.087536
H	-0.8589813396	 0.456237393	 3.3976778107	 0.106627
H	 0.6408628288	 1.1174133969	 2.5827297486	 0.136931
H	-0.4662216959	-0.5959667629	-0.6514938004	 0.094427
183.5769	216.944	253.693	297.9411	319.2654	413.7644	458.3632	491.0567	622.1753	681.6305	731.7595	761.9257	778.8739	801.7289	865.6649	889.7945	913.7126	968.7007	1008.2816	1019.006	1047.2203	1072.2501	1096.7796	1122.5457	1129.9935	1134.8437	1147.7381	1162.2043	1168.2624	1174.2202	1238.8754	1279.9958	1284.7006	1345.3523	1364.2162	1379.8693	1393.1021	1407.715	1433.6456	1473.4811	1479.6495	1504.2728	1511.4723	2982.3442	3027.1196	3054.4657	3077.9713	3080.3186	3102.3757	3109.4494	3129.1181	3137.3127	3212.4438	3226.3596
C1C2OCCC3CN3C12	C1[C@H]2OCC[C@H]3CN3[C@@H]12	
InChI=1S/C7H11NO/c1-2-9-7-3-6(7)8-4-5(1)8/h5-7H,1-4H2	InChI=1S/C7H11NO/c1-2-9-7-3-6(7)8-4-5(1)8/h5-7H,1-4H2/t5-,6-,7+,8?/m0/s1
