16
gdb 52068	2.69817	1.12504	0.88985	4.4878	72.74	-0.2634	0.0033	0.2667	1287.7596	0.121994	-437.834451	-437.825368	-437.824424	-437.869254	32.322	
O	 0.5611823788	-0.0461299409	-0.079784386	-0.270286
C	 0.6804721471	 1.0836960897	-0.4406207889	 0.182407
O	 0.7356924157	 2.1201125182	 0.42651921	-0.17865
C	 0.9268378212	 3.4306397351	-0.1102164697	-0.170279
C	 2.3737350602	 3.8713527908	 0.0151842155	 0.096477
C	 2.6218470545	 5.2975976786	 0.4003263096	-0.267316
N	 2.8888064796	 4.2254563506	 1.3562592518	-0.318377
C	 3.2901374972	 3.1717651557	-0.8513053977	 0.319193
C	 4.0089432953	 2.5735573535	-1.606366847	-0.435233
H	 0.7432078941	 1.4065601081	-1.4968278873	 0.086197
H	 0.6089953094	 3.4617083674	-1.1596583315	 0.126593
H	 0.2789855285	 4.0952246616	 0.4687904897	 0.118558
H	 3.5036051707	 5.7971857236	 0.0126433	 0.139322
H	 1.7534249899	 5.9378725673	 0.5386089031	 0.119817
H	 2.1394099197	 4.1446702527	 2.0403036581	 0.245641
H	 4.663226578	 2.0461485179	-2.2561690398	 0.205935
52.3125	61.9284	152.1808	162.1892	211.4307	268.9703	294.1135	392.9612	427.879	541.6552	555.7277	626.3159	670.3584	679.1119	719.2288	853.872	907.5202	922.9565	974.7487	1015.9513	1035.6811	1060.0718	1091.4268	1142.354	1154.5781	1246.6789	1290.1765	1306.9591	1380.7083	1403.0915	1431.1955	1489.9195	1509.4563	1872.7457	2241.0207	2964.3507	3031.7249	3093.4851	3110.0657	3205.3334	3496.5883	3500.371
O=COCC1(CN1)C#C	O=COC[C@]1(CN1)C#C	
InChI=1S/C6H7NO2/c1-2-6(3-7-6)4-9-5-8/h1,5,7H,3-4H2	InChI=1S/C6H7NO2/c1-2-6(3-7-6)4-9-5-8/h1,5,7H,3-4H2/t6-/m1/s1
