16
gdb 73071	3.46808	1.13173	1.00498	4.1259	65.96	-0.2363	0.0154	0.2517	1173.1483	0.123181	-474.975804	-474.967437	-474.966493	-475.009038	30.696	
O	-0.0813735227	 1.4596547734	-0.361107299	-0.457193
C	 0.0109084792	 0.1248426166	-0.0321670861	 0.320037
C	 0.6855320521	-0.9412783385	-0.9066860247	-0.237506
N	-0.3400729081	-1.961746694	-0.48799938	-0.322969
C	-1.0753149696	-0.9220866065	 0.2495037083	-0.140367
C	-0.1873739115	-0.40364741	 1.3535283625	 0.031904
O	 0.8149475975	-1.1689124863	 1.9807595545	-0.198249
C	 0.4734153788	-2.4121164988	 2.4065431385	 0.190562
O	 1.2571021046	-3.1294722881	 2.948686396	-0.279279
H	 0.5883594547	 1.9476946443	 0.1320926998	 0.29452
H	 0.6106764479	-0.6781024093	-1.9646922718	 0.120289
H	 1.7133377793	-1.2196941721	-0.6574999336	 0.126147
H	-0.8746593477	-2.2753499415	-1.2909856142	 0.233639
H	-2.1572971753	-0.8825764354	 0.2936835012	 0.111495
H	-0.6766857316	 0.3016816501	 2.0216820139	 0.115639
H	-0.5828333877	-2.655474634	 2.2068456345	 0.091332
79.6538	129.1694	185.2676	216.6957	239.9009	293.7468	319.7609	374.2104	482.1873	535.8534	633.8159	744.0698	779.9971	824.3768	858.3806	931.3586	957.2774	994.5712	1013.6541	1029.8288	1034.0851	1071.7224	1132.9125	1151.4467	1153.3913	1226.0758	1259.3412	1278.0828	1332.5495	1341.2741	1368.1686	1418.19	1478.7524	1503.3216	1867.7037	3009.8721	3058.1881	3116.5628	3141.3644	3187.4926	3530.659	3785.3875
OC12CNC1C2OC=O	O[C@]12CN[C@H]1[C@H]2OC=O	
InChI=1S/C5H7NO3/c7-2-9-4-3-5(4,8)1-6-3/h2-4,6,8H,1H2	InChI=1S/C5H7NO3/c7-2-9-4-3-5(4,8)1-6-3/h2-4,6,8H,1H2/t3-,4+,5+/m0/s1
