14
gdb 30579	7.17517	0.64146	0.61392	2.8774	80.5	-0.2324	-0.0352	0.1972	1733.9903	0.101069	-436.676376	-436.668047	-436.667103	-436.711073	28.578	
O	 0.2021834051	 0.9648013772	-0.9169430014	-0.406479
C	-0.0462292024	 0.1040958843	 0.1866748839	-0.233072
C	-1.4127477718	-0.3924683536	 0.1297427292	 0.298428
C	-2.5403852106	-0.8217180249	 0.1058423531	-0.115387
C	-3.8580061526	-1.2956539963	 0.0874106201	 0.186236
C	-5.0487997721	-0.8165709621	 0.5529652053	-0.210726
N	-6.0604796173	-1.7093933761	 0.2558096236	-0.245834
C	-5.4553953425	-2.6726685973	-0.3642325323	 0.064385
O	-4.1272442173	-2.5110895553	-0.5125217802	-0.16922
H	 1.1128712641	 1.2691244924	-0.844592758	 0.292439
H	 0.6402196138	-0.758341793	 0.187645332	 0.125817
H	 0.0993272367	 0.6277619884	 1.1457432441	 0.124317
H	-5.2328375728	 0.1076653128	 1.0762890315	 0.135502
H	-5.8819408002	-3.5766840965	-0.770350791	 0.153593
32.7514	80.2286	94.9758	198.414	220.8512	315.7269	393.0382	472.5499	524.4044	606.7878	658.6736	694.3319	847.2715	874.9961	917.9289	951.325	994.4823	1020.7847	1062.5841	1136.0797	1153.0676	1233.1573	1247.2497	1251.5288	1290.8637	1338.8696	1454.6017	1495.5059	1523.9443	1613.455	2350.8825	2964.6873	2984.8992	3271.8633	3275.7709	3815.6159
OCC#CC1=CN=CO1	OCC#Cc1cnco1	
InChI=1S/C6H5NO2/c8-3-1-2-6-4-7-5-9-6/h4-5,8H,3H2	InChI=1S/C6H5NO2/c8-3-1-2-6-4-7-5-9-6/h4-5,8H,3H2
