16
gdb 23415	3.73287	1.2559	0.99406	2.1876	74.09	-0.2349	-0.0054	0.2295	1142.4465	0.125876	-433.994638	-433.987127	-433.986183	-434.026742	28.924	
O	-0.2505159811	 1.4359032855	-0.010168143	-0.387433
N	 0.0343628956	 0.0602376831	 0.0048081318	-0.218806
C	-1.0317337442	-0.6285909772	 0.0189618997	 0.350203
C	-2.5036396224	-0.162280923	-0.0397878172	-0.246651
N	-3.2754201524	-1.3260149907	-0.549129018	-0.310968
C	-2.4938983844	-2.314929568	-0.4008849137	 0.361809
N	-2.2604732218	-3.5591444221	-0.9877022497	-0.355043
C	-0.7868926737	-3.2281629454	-0.9948766773	-0.201062
C	-1.0879864777	-2.1327654141	 0.0924177342	-0.191868
H	 0.6286973473	 1.8262843002	-0.0586790647	 0.308989
H	-2.855775298	 0.1797014409	 0.9430063278	 0.127572
H	-2.6161178723	 0.682489024	-0.725457091	 0.140114
H	-2.7408736405	-3.7885871595	-1.8511049904	 0.244866
H	-0.1494957393	-4.0576834838	-0.6852146572	 0.125509
H	-0.4460100582	-2.8079668241	-1.9454197734	 0.128754
H	-0.8801014368	-2.5106716858	 1.096650372	 0.124015
85.0184	187.2565	220.1619	276.2354	334.9663	402.2056	418.5373	504.9502	529.2326	659.4332	675.8317	740.8451	771.6367	837.3609	897.0113	922.8647	956.8586	981.0776	985.6446	1029.8907	1039.8323	1128.1691	1164.5621	1173.1534	1201.534	1207.6768	1281.5055	1306.8392	1322.3607	1359.9244	1406.5262	1477.9202	1505.1937	1754.0445	1768.3418	3020.0325	3059.2465	3079.4541	3087.913	3130.1914	3544.1362	3817.5211
ON=C1CN=C2NCC12	ON=C1C[N][C]2NC[C@@H]12	
InChI=1S/C5H7N3O/c9-8-4-2-7-5-3(4)1-6-5/h3,9H,1-2H2,(H,6,7)	InChI=1S/C5H7N3O/c9-8-4-2-7-5-3(4)1-6-5/h3,9H,1-2H2,(H,6,7)/t3-/m0/s1
