24
gdb 122340	3.33096	0.68225	0.64177	2.6206	86.66	-0.2113	0.0773	0.2886	1857.6571	0.215252	-405.511678	-405.500425	-405.49948	-405.548825	40.059	
C	 0.027926158	 1.5408685819	 0.7368394445	-0.414004
C	 0.0618377737	 0.0876853736	 0.3100697648	-0.013376
C	 0.280709222	-0.3511115659	-1.1048357058	-0.003921
C	 0.4823454886	 0.6108464195	-2.2608589597	-0.224251
C	 1.2100713746	-0.0432454372	-3.4433606818	-0.162022
C	 1.3583940604	 0.8915034204	-4.6360056418	-0.075761
O	 2.0358118748	 0.1860327493	-5.6648781269	-0.421011
N	 1.28773886	-0.6201261379	-0.0711499796	-0.10238
C	 2.5678656758	 0.0689816995	-0.0709197702	-0.314487
H	 0.6228925877	 2.1982145558	 0.1007679392	 0.118394
H	-1.0038959759	 1.9082412403	 0.7167144197	 0.121243
H	 0.3929204756	 1.6502904454	 1.7643158991	 0.121777
H	-0.5990069972	-0.5345622384	 0.9153501276	 0.082824
H	-0.2347626342	-1.2608174626	-1.4191182438	 0.081527
H	-0.5068014605	 0.9583604227	-2.5909509696	 0.098425
H	 1.0259987501	 1.5071624434	-1.9468966259	 0.095514
H	 2.2071193234	-0.3790224686	-3.1361230258	 0.112765
H	 0.6675164418	-0.9393160808	-3.7682472849	 0.107874
H	 0.3626149304	 1.2271431299	-4.9711335336	 0.082396
H	 1.9184788157	 1.7928576783	-4.3353045445	 0.081755
H	 2.1314266442	 0.773389143	-6.4200693717	 0.284887
H	 2.5576168023	 1.1141697545	-0.4121495413	 0.096237
H	 2.970343392	 0.0579389218	 0.9475930109	 0.120611
H	 3.2656326566	-0.4840370676	-0.7084319588	 0.124982
51.3208	74.7387	97.4866	130.401	151.8293	164.6413	210.3975	245.6624	263.4968	282.6199	326.874	406.3764	479.177	527.3632	557.8329	720.8215	754.3971	774.0157	835.6143	898.8913	981.3466	1018.076	1041.2953	1054.7034	1069.5988	1090.6788	1099.1333	1138.1492	1159.6587	1169.9786	1186.4627	1200.3502	1224.0766	1233.59	1298.7095	1305.5889	1317.99	1352.8253	1369.3969	1398.1701	1412.2535	1437.4365	1460.8672	1464.3316	1477.0289	1486.958	1495.9696	1500.3939	1508.4627	1510.3512	1528.5789	2953.7422	2977.8456	2991.286	3012.8066	3036.4212	3036.5816	3061.1682	3066.3205	3074.7858	3085.4399	3089.1232	3091.8866	3094.2053	3136.0481	3830.5596
CC1C(CCCO)N1C	C[C@H]1[C@@H](CCCO)N1C	
InChI=1S/C7H15NO/c1-6-7(8(6)2)4-3-5-9/h6-7,9H,3-5H2,1-2H3	InChI=1S/C7H15NO/c1-6-7(8(6)2)4-3-5-9/h6-7,9H,3-5H2,1-2H3/t6-,7+,8?/m0/s1
