17
gdb 28582	4.00373	1.15178	0.96732	2.7007	77.32	-0.2209	0.0081	0.229	1230.4413	0.13644	-418.014906	-418.006767	-418.005823	-418.048394	29.719	
C	 0.1250265451	 1.444899898	 0.0887541535	-0.488023
C	 0.0168039107	-0.0286384671	-0.0677035751	 0.386437
N	-0.3110140014	-0.7059159479	-1.120938078	-0.300714
C	-0.2550961632	-2.0367072775	-0.719893134	-0.188933
C	 0.1106377344	-2.1030659025	 0.5807292163	 0.366608
O	 0.2915161639	-0.8020353818	 1.0203893812	-0.216912
N	 0.3077957393	-3.1732001235	 1.4399976897	-0.195054
C	 1.3714085336	-3.0830769565	 2.4534641091	-0.22651
C	-0.0563590642	-3.0212602819	 2.8580296132	-0.226512
H	 1.1388696413	 1.7402112404	 0.3792934973	 0.1421
H	-0.1239269528	 1.9170993645	-0.8618723582	 0.157645
H	-0.5589790471	 1.8137784447	 0.8604866367	 0.142101
H	-0.4797627634	-2.8516190421	-1.3880231548	 0.124052
H	 1.9423625426	-3.9960163257	 2.5925356298	 0.127595
H	 1.9430297836	-2.1610102645	 2.4984038282	 0.134262
H	-0.4438668011	-2.057668424	 3.1747418216	 0.134263
H	-0.5408408112	-3.8885039826	 3.2961544835	 0.127594
52.9253	115.3584	148.9591	159.5999	259.2035	331.2568	444.0927	470.603	581.4179	689.3004	706.9915	709.0291	820.6985	835.5013	866.992	900.3843	957.9412	976.6299	1032.0697	1038.9173	1065.1078	1104.961	1132.1964	1136.5047	1159.3562	1182.6844	1206.0567	1239.4241	1336.337	1347.4204	1411.923	1475.5612	1481.6348	1486.0868	1512.4322	1621.3809	1665.0596	3040.8484	3093.6364	3117.7793	3121.0687	3156.3235	3204.3669	3219.1435	3275.0151
CC1=NC=C(O1)N1CC1	Cc1ncc(o1)N1CC1	
InChI=1S/C6H8N2O/c1-5-7-4-6(9-5)8-2-3-8/h4H,2-3H2,1H3	InChI=1S/C6H8N2O/c1-5-7-4-6(9-5)8-2-3-8/h4H,2-3H2,1H3
