21
gdb 62884	3.07401	1.47327	1.14875	1.8246	83.66	-0.2318	0.0834	0.3152	1139.7138	0.180637	-387.000347	-386.991678	-386.990734	-387.032862	34.747	
C	-0.0121717562	 1.5485941114	-0.0403166248	-0.464399
C	-0.0752473627	 0.0234381409	-0.0137942145	 0.361002
C	-1.4710616347	-0.463313282	-0.3929238221	-0.479551
C	 1.1938872233	-0.7197648275	-0.5693758365	-0.106619
O	 1.9742735125	-0.1720010143	 0.5693543228	-0.309052
C	 0.706250125	-0.6695015223	 1.1612901672	-0.10659
C	 0.8899527581	-1.9370911987	 0.3151080446	 0.472845
C	 0.2178730443	-3.2590410075	 0.1642674609	-0.360617
C	 1.6830947881	-3.1658760929	 0.574391329	-0.363405
H	 0.9803696074	 1.9081025613	 0.229103617	 0.138724
H	-0.2649804385	 1.9239500798	-1.0387044761	 0.108721
H	-0.7432456492	 1.9732284034	 0.6573921766	 0.108717
H	-1.7361666121	-0.1014738866	-1.3930357923	 0.116347
H	-1.5694319215	-1.5482076905	-0.3895468438	 0.129175
H	-2.2133304587	-0.0529286452	 0.3013783807	 0.11635
H	 1.6509693333	-0.6742186228	-1.560043388	 0.085833
H	 0.5800379434	-0.563829658	 2.240792555	 0.085834
H	-0.5031612631	-3.5648763193	 0.9162739779	 0.116477
H	-0.0094649429	-3.6159537374	-0.835669163	 0.116475
H	 2.4330305978	-3.4610805595	-0.1523021238	 0.116867
H	 1.9392690567	-3.4099629423	 1.6002709231	 0.116868
158.2216	174.6192	182.5958	209.1153	247.5903	320.4711	346.1672	380.4849	399.4867	476.914	601.3028	639.4347	728.743	738.6294	756.6396	780.0868	867.3577	870.4559	916.6335	940.0844	946.9453	970.7586	1008.1207	1011.2957	1054.5781	1081.1661	1104.5492	1114.336	1140.7858	1160.4657	1168.282	1183.08	1214.7504	1230.3226	1254.0879	1314.5342	1392.1759	1414.2547	1421.6362	1462.8434	1482.6368	1491.9774	1502.1981	1516.1283	1520.0754	3028.8051	3035.5171	3080.889	3086.613	3095.574	3101.9674	3120.3438	3127.7365	3151.593	3152.6443	3197.9027	3213.7936
CC1(C)C2OC1C21CC1	CC1(C)[C@H]2O[C@@H]1C12CC1	
InChI=1S/C8H12O/c1-7(2)5-8(3-4-8)6(7)9-5/h5-6H,3-4H2,1-2H3	InChI=1S/C8H12O/c1-7(2)5-8(3-4-8)6(7)9-5/h5-6H,3-4H2,1-2H3/t5-,6+
