17
gdb 114580	2.11141	1.6346	1.09689	2.5191	75.13	-0.2518	0.0053	0.2571	1126.4266	0.135726	-417.96136	-417.952813	-417.951869	-417.99497	31.099	
C	-0.5586164888	 0.9961898353	-0.2253977395	-0.247874
O	 0.5620597331	 0.1789099088	 0.055378188	-0.224319
C	 1.0142030305	-0.5408406723	-1.0395000873	 0.076755
C	 2.1942897963	-1.511253388	-0.728789095	-0.257808
C	 1.3535823144	-2.6660679678	-1.2793817705	-0.111076
N	 0.1596969741	-2.7546624885	-0.430534801	-0.349128
C	 0.1803121596	-1.7584873888	-1.5372355818	 0.201506
C	-0.7705552	-1.7897026642	-2.594816189	 0.171276
N	-1.5446245159	-1.7871117652	-3.4569553549	-0.346351
H	-0.3402212785	 1.7180549557	-1.0268122534	 0.112017
H	-1.4321109155	 0.399119834	-0.5217238991	 0.127143
H	-0.7957727142	 1.5399240998	 0.6909591196	 0.135911
H	 1.2370468251	 0.1146865536	-1.8947623455	 0.086879
H	 3.0902805256	-1.2880831169	-1.3089041749	 0.118026
H	 2.4350672633	-1.5968936747	 0.3315547945	 0.133369
H	 1.6809033071	-3.5023545666	-1.8835057084	 0.123873
H	-0.3994900763	-3.5457840139	-0.7509775918	 0.249801
77.5184	99.057	166.4996	167.7024	229.3174	261.5157	408.5786	415.4949	489.1143	544.9156	568.6231	666.6889	692.2574	806.8496	870.3257	903.4502	971.8399	998.7693	1021.3167	1042.1913	1063.8322	1121.7607	1158.4739	1172.1337	1179.8586	1229.6329	1240.3317	1260.2359	1287.8787	1317.4737	1380.6918	1398.8347	1468.7688	1485.0767	1491.3587	1505.049	2336.5046	2986.3179	2994.8913	3043.8263	3088.4016	3129.2485	3151.5639	3207.2593	3475.58
COC1CC2NC12C#N	CO[C@H]1C[C@H]2N[C@@]12C#N	
InChI=1S/C6H8N2O/c1-9-5-2-4-6(5,3-7)8-4/h4-5,8H,2H2,1H3	InChI=1S/C6H8N2O/c1-9-5-2-4-6(5,3-7)8-4/h4-5,8H,2H2,1H3/t4-,5+,6-/m1/s1
