19
gdb 69344	2.69539	1.39238	1.11969	4.7861	80.1	-0.2458	0.0297	0.2755	1156.554	0.158513	-382.049605	-382.040706	-382.039762	-382.082649	34.22	
C	 0.0421414776	 1.5374323263	 0.0118039902	-0.478359
C	 0.0395470117	 0.0392870328	 0.0360710947	 0.382477
C	-0.9039361359	-0.81496652	 0.8340880271	-0.353366
C	 0.585208466	-0.9691249677	 1.0406167917	-0.156475
C	 1.2095183553	-1.7329096924	-0.145250624	 0.14149
C	 0.8169133775	-3.1921741671	-0.3816108578	-0.454612
N	 0.6407604497	-0.7102387539	-1.083397569	-0.385078
C	 2.6796379745	-1.6206848768	-0.1298407813	 0.295294
N	 3.8323257342	-1.5508668724	-0.087165639	-0.34457
H	 1.0349426537	 1.9182571451	-0.2441876105	 0.139331
H	-0.6675427063	 1.916187019	-0.733317191	 0.12337
H	-0.2507990012	 1.9427917287	 0.9849298335	 0.121273
H	-1.4077366898	-0.3128928843	 1.6549199005	 0.12073
H	-1.4973406767	-1.5934773812	 0.3612439081	 0.105665
H	 1.0723888927	-0.8062182343	 1.9927794877	 0.113843
H	-0.2677716981	-3.3126979482	-0.3339176361	 0.124313
H	 1.1636142118	-3.5257273131	-1.3646375816	 0.141507
H	 1.2723311127	-3.8386456382	 0.3736003514	 0.144907
H	-0.0317032593	-1.0991784924	-1.7411979945	 0.218261
107.0066	158.7123	200.3138	221.0146	228.0447	248.5548	337.9928	363.278	442.2482	464.1618	501.8457	564.1466	617.7101	685.8024	766.7388	825.3787	832.6868	888.3089	944.3194	953.1941	973.1733	1001.7274	1021.855	1065.754	1089.8865	1098.3329	1131.9223	1166.7724	1200.9842	1258.7216	1299.9739	1363.5754	1383.3224	1408.9505	1427.9188	1478.7778	1484.9824	1487.1564	1497.1561	1501.3534	2355.6807	3031.1141	3046.7648	3094.5915	3109.569	3118.0297	3118.4813	3132.4814	3194.8376	3206.7159	3477.188
CC12CC1C(C)(N2)C#N	C[C@]12C[C@H]1[C@@](C)(N2)C#N	
InChI=1S/C7H10N2/c1-6-3-5(6)7(2,4-8)9-6/h5,9H,3H2,1-2H3	InChI=1S/C7H10N2/c1-6-3-5(6)7(2,4-8)9-6/h5,9H,3H2,1-2H3/t5-,6+,7+/m1/s1
