18
gdb 60299	3.35983	0.65355	0.61115	4.4536	86.39	-0.2821	-0.0508	0.2313	1842.1763	0.144986	-401.931746	-401.921537	-401.920593	-401.968771	35.479	
C	-0.6545622503	 1.3874443466	 0.3222435581	-0.38793
C	-0.5690137341	-0.0968247395	-0.0084703027	 0.139375
C	 0.8520350997	-0.5346519555	-0.3658258906	-0.392036
O	-1.047900866	-0.7872913197	 1.1589076589	-0.238924
C	-1.4644020136	-2.1145956665	 0.9555810809	-0.243042
C	-2.7046844344	-2.2274958179	 0.1791555128	 0.150749
C	-3.7293328712	-2.309982866	-0.4561608991	-0.028306
C	-4.8854270994	-2.407993653	-1.1760303713	 0.216986
N	-5.8675917111	-2.4918870446	-1.7906205265	-0.333556
H	-0.3207565653	 1.9892348654	-0.5278942402	 0.118833
H	-1.6821529771	 1.6664828951	 0.5675788154	 0.128496
H	-0.0194566756	 1.6211961742	 1.1825461293	 0.126751
H	-1.2435217728	-0.3178950427	-0.8489907382	 0.084489
H	 1.2031565578	 0.0076035963	-1.2491644237	 0.123826
H	 1.5334534357	-0.3241523465	 0.4643034687	 0.127457
H	 0.9095507834	-1.6029158993	-0.5959368803	 0.115759
H	-0.6907378267	-2.729858869	 0.4704010172	 0.134681
H	-1.630664359	-2.5416830375	 1.9511933812	 0.156392
19.0019	52.3736	117.4223	153.6292	206.9182	231.4764	244.1823	298.6938	346.6045	359.2202	436.3507	445.0708	551.7593	576.6427	591.0291	737.5485	796.6346	909.3954	929.1149	943.1776	1019.1362	1100.2464	1138.4567	1146.2596	1154.2507	1201.6047	1283.655	1365.4164	1373.5126	1393.1709	1403.0365	1417.7023	1464.4628	1481.0472	1483.8824	1497.9843	1509.1205	2261.9366	2399.8927	2986.5012	2997.6921	3038.0334	3045.2568	3064.042	3106.7799	3113.1705	3120.7652	3128.0318
CC(C)OCC#CC#N	CC(C)OCC#CC#N	
InChI=1S/C7H9NO/c1-7(2)9-6-4-3-5-8/h7H,6H2,1-2H3	InChI=1S/C7H9NO/c1-7(2)9-6-4-3-5-8/h7H,6H2,1-2H3
