17
gdb 12357	3.10427	2.1421	1.32213	5.0692	72.15	-0.2157	-0.0257	0.19	914.0554	0.144071	-363.906277	-363.898799	-363.897855	-363.937819	28.498	
C	-0.1331920426	 1.5298074459	-0.0121018777	-0.395608
C	 0.0499529284	 0.0137593583	 0.0180887887	-0.09814
C	 0.7532007511	-0.5070057427	-1.2399565551	-0.17681
N	 0.9537046359	-1.9492095271	-1.1530726026	-0.293912
C	 1.4356144078	-2.4482129292	 0.0198888041	 0.025209
C	 1.4204841946	-1.7631603056	 1.1910568831	-0.223789
C	 0.78912176	-0.4556830011	 1.2914431289	 0.370901
O	 0.7654783275	 0.2088385476	 2.3139418741	-0.36457
H	 0.8267149994	 2.0367903755	-0.1607921894	 0.11711
H	-0.8077564337	 1.8321107726	-0.8193621977	 0.103015
H	-0.5392463162	 1.8718046406	 0.9408646587	 0.145415
H	-0.9388615689	-0.4685665712	 0.0687379031	 0.104036
H	 0.1620317272	-0.2844895014	-2.1332255356	 0.112631
H	 1.7252996816	 0.0054405114	-1.3440913249	 0.106279
H	 1.2339248673	-2.4209370572	-1.9977091638	 0.250181
H	 1.8278723708	-3.4599128362	-0.0363888964	 0.12
H	 1.8209875899	-2.2072986802	 2.0930990125	 0.098053
103.0985	187.2409	201.925	286.8503	324.457	404.8532	431.1682	480.5899	532.291	548.139	678.1211	747.5323	818.8014	835.606	895.4293	959.2878	980.7458	1003.0891	1092.353	1097.2315	1120.0431	1151.8735	1214.1443	1232.1739	1280.8591	1303.0449	1348.0551	1380.4946	1406.4843	1429.487	1489.0797	1493.8847	1499.9631	1530.6838	1664.0536	1753.9654	2957.575	2993.4053	3038.0402	3077.4327	3099.9948	3143.1558	3171.5588	3218.7565	3632.8796
CC1CNC=CC1=O	C[C@H]1CNC=CC1=O	
InChI=1S/C6H9NO/c1-5-4-7-3-2-6(5)8/h2-3,5,7H,4H2,1H3	InChI=1S/C6H9NO/c1-5-4-7-3-2-6(5)8/h2-3,5,7H,4H2,1H3/t5-/m0/s1
