23
gdb 100721	2.10929	1.08877	0.94889	2.7269	82.15	-0.2625	-0.0256	0.237	1429.4051	0.202213	-425.459268	-425.448035	-425.447091	-425.495899	40.443	
C	-0.6080595397	 1.7608107018	 0.4822814551	-0.394167
C	-0.3790139266	 0.2507739877	 0.3671824835	-0.170611
C	-1.6397289492	-0.5656118623	 0.0226749909	 0.01009
C	-2.2321646307	-0.19542017	-1.3443590297	-0.400087
C	-1.3366695051	-2.0863623146	 0.0503562459	 0.035853
O	-0.3679939166	-2.4239820933	-0.9075604502	-0.440272
C	-0.8885202745	-2.5844535402	 1.4270237161	 0.364979
C	-1.8068437976	-2.3836810755	 2.6102907441	-0.481742
O	 0.186580938	-3.1394325878	 1.5298813313	-0.326009
H	 0.3087449009	 2.2676661126	 0.7990877801	 0.115108
H	-0.9123467933	 2.2034285235	-0.4706347047	 0.12212
H	-1.3858099687	 1.9930511157	 1.2193428693	 0.108514
H	 0.3834940715	 0.0420751295	-0.3908899669	 0.11664
H	 0.0363868223	-0.112344131	 1.3168441148	 0.092917
H	-2.4039431222	-0.3722079438	 0.7892234355	 0.066322
H	-1.5100576297	-0.3998273027	-2.1400097432	 0.13968
H	-3.1338054157	-0.7819367176	-1.5508489248	 0.108083
H	-2.5086532022	 0.8611297566	-1.3900614328	 0.113163
H	-2.281113187	-2.6166173589	-0.1724563472	 0.081514
H	 0.3342274548	-2.8711864927	-0.4062916612	 0.291985
H	-2.8504736988	-2.5760094302	 2.344519762	 0.14061
H	-1.4980908601	-3.0353858856	 3.4287013244	 0.148913
H	-1.7455865899	-1.342962521	 2.9487444178	 0.156396
69.5743	78.04	83.9134	119.526	162.6305	203.3792	213.1649	256.6568	296.3653	313.4391	359.8642	407.0554	423.2244	497.9049	533.0216	606.4994	687.9931	758.5444	791.0152	845.3393	943.6445	966.6887	974.3131	990.3073	1019.4893	1039.6183	1065.439	1138.7022	1160.8939	1192.7156	1213.6483	1266.7513	1287.9574	1313.4887	1343.5995	1370.2979	1385.4391	1388.023	1405.4991	1415.0386	1441.0803	1463.4113	1475.3959	1487.1638	1493.4394	1502.6022	1507.7515	1513.1286	1789.7804	2933.7399	3004.5447	3018.7614	3031.4495	3039.4835	3042.6885	3071.0162	3097.6059	3103.2036	3106.768	3111.2307	3123.8056	3151.8626	3662.7179
CCC(C)C(O)C(C)=O	CC[C@@H](C)[C@@H](O)C(=O)C	
InChI=1S/C7H14O2/c1-4-5(2)7(9)6(3)8/h5,7,9H,4H2,1-3H3	InChI=1S/C7H14O2/c1-4-5(2)7(9)6(3)8/h5,7,9H,4H2,1-3H3/t5-,7-/m1/s1
