14
gdb 66758	2.96334	2.06787	1.53003	2.2516	63.82	-0.2333	-0.0307	0.2026	836.0567	0.101163	-436.595608	-436.589109	-436.588165	-436.626334	25.973	
O	 0.1072772102	 1.3822975197	 0.0868177434	-0.473053
C	 0.0306296651	 0.0194342006	 0.0258561516	 0.273039
C	 0.4607121837	-0.807410823	 1.2418603571	-0.086428
C	-0.8442025732	-1.4703157192	 1.440789982	-0.048318
C	-1.3020839987	-0.9297286645	 0.058871439	-0.153081
C	-0.3461584809	-1.9712996681	-0.6126808717	-0.150177
N	 0.2436478269	-2.2346870939	 0.7600093179	-0.146426
C	 0.4244143082	-0.7887246001	-1.2120839992	 0.382462
O	 0.8205985913	-0.464764427	-2.2957466036	-0.329047
H	 0.1472739729	 1.7144991009	-0.8199159066	 0.302419
H	 1.2856554615	-0.6238489247	 1.9183029051	 0.114517
H	-1.3579382834	-1.8259499348	 2.3248434841	 0.111092
H	-2.2728788183	-0.611158711	-0.3066361915	 0.098868
H	-0.6288799951	-2.859551735	-1.1689243777	 0.104134
136.9477	195.5162	325.3979	367.3685	408.5507	547.1697	589.0941	686.0281	697.4065	740.5076	775.5098	797.7877	863.9218	875.2169	885.6929	919.7435	950.9304	981.3709	1007.6372	1030.6636	1056.6791	1117.0559	1140.1532	1167.6899	1198.4683	1218.0683	1248.2292	1314.105	1351.06	1427.2883	1874.9988	3170.0929	3176.7113	3192.5906	3206.1074	3763.5079
OC12C3C4C1C(N34)C2=O	O[C@@]12[C@H]3[C@H]4[C@@H]1[C@H](N34)C2=O	
InChI=1S/C6H5NO2/c8-5-3-1-2-4(7(2)3)6(1,5)9/h1-4,9H	InChI=1S/C6H5NO2/c8-5-3-1-2-4(7(2)3)6(1,5)9/h1-4,9H/t1-,2-,3+,4-,6-,7?/m1/s1
