18
gdb 121332	3.30642	1.00916	0.80622	0.9601	70.59	-0.2582	0.0173	0.2755	1411.1936	0.147234	-476.218311	-476.209343	-476.208399	-476.252967	31.456	
C	-0.0044642498	 1.3853788334	 0.0560355343	-0.2282
O	-0.0033241587	-0.0214426353	-0.0060362566	-0.235703
C	 0.6054452573	-0.5130404611	-1.1753906766	-0.071291
C	 0.5374834837	-2.0257159375	-1.1514886938	 0.001908
O	-0.782076572	-2.4912188571	-1.4323159788	-0.246874
C	-0.6250550564	-3.7347741408	-2.0472011656	 0.016503
O	 0.6076810309	-3.6845334787	-2.7764051678	-0.237719
C	 1.3662291285	-2.6894591767	-2.237821528	 0.390048
N	 2.5356825221	-2.3665335337	-2.5774450037	-0.536074
H	 1.0175169637	 1.7959249127	 0.038856797	 0.107127
H	-0.5668562645	 1.8303601386	-0.7797922128	 0.107247
H	-0.4845728843	 1.6693417603	 0.995331435	 0.129617
H	 0.0964074201	-0.1414545987	-2.0792256208	 0.098294
H	 1.6649523006	-0.2203833889	-1.2364007857	 0.121927
H	 0.8673582615	-2.380081559	-0.1620148637	 0.113918
H	-0.5603144113	-4.5560426038	-1.315306931	 0.106381
H	-1.4474078458	-3.9059365717	-2.7460835083	 0.13301
H	 2.8840498646	-2.969528422	-3.3238964531	 0.229881
67.3177	99.7291	103.8257	150.9125	204.4064	230.1328	297.7612	339.7353	436.0409	502.551	615.2688	688.1867	754.369	879.3603	891.9377	919.5722	985.9217	1008.5369	1045.2326	1087.5014	1122.0048	1138.9062	1168.9555	1182.6783	1186.9981	1226.6526	1228.3202	1263.6821	1270.9652	1327.4049	1353.5378	1429.8072	1444.4921	1478.4614	1485.1585	1497.8582	1520.4717	1542.9862	1793.7063	2968.4092	2976.6599	2979.7646	2990.7686	3016.2696	3022.8588	3102.3272	3117.8657	3482.017
COCC1OCOC1=N	COC[C@H]1OCO[C]1[NH]	
InChI=1S/C5H9NO3/c1-7-2-4-5(6)9-3-8-4/h4,6H,2-3H2,1H3	InChI=1S/C5H9NO3/c1-7-2-4-5(6)9-3-8-4/h4,6H,2-3H2,1H3/t4-/m1/s1
