19
gdb 111738	2.30897	1.38017	1.08562	2.5636	78.36	-0.2428	-0.0199	0.2229	1188.1348	0.157984	-422.998867	-422.98992	-422.988976	-423.032808	32.602	
C	-0.4533038297	 0.9564207008	-0.2021794482	-0.242037
O	 0.570218014	 0.0148215692	 0.070849764	-0.23088
C	 1.0036253579	-0.6577672694	-1.0596749179	 0.075499
C	 1.6542581157	-1.9721270473	-0.9360617225	-0.167458
C	 1.0353759878	-2.8137407719	 0.1867811608	-0.218998
C	-0.3760024273	-2.6699060852	-0.4611510325	-0.295181
C	 0.225285978	-1.8504528815	-1.6052277371	 0.212264
C	-0.1129827935	-1.9763488388	-3.0223264189	 0.051582
O	-1.022207989	-2.647561024	-3.4560277264	-0.275085
H	-0.1030719417	 1.740721039	-0.8891458476	 0.11256
H	-1.3366065066	 0.4746530208	-0.6430474575	 0.122086
H	-0.7279810953	 1.4144762853	 0.7499653615	 0.134383
H	 1.4097165093	-0.010983108	-1.8417609147	 0.09284
H	 2.591114852	-2.1843963322	-1.4383990066	 0.104216
H	 1.3958294342	-3.8434137156	 0.1760904914	 0.111071
H	 1.1557866233	-2.4000301766	 1.1900630554	 0.119303
H	-0.7842562766	-3.6152642293	-0.8199377616	 0.128367
H	-1.1329779937	-2.1580180939	 0.1374515249	 0.107967
H	 0.5500846611	-1.3953378916	-3.7069606366	 0.057502
83.3599	108.0115	164.8029	173.6309	207.5773	215.6075	272.6883	355.5647	438.9265	524.7931	566.9678	705.1714	746.3566	790.9803	804.8822	890.3666	952.479	957.433	1006.8717	1013.9997	1041.5683	1071.7096	1107.4411	1125.6175	1161.5756	1180.7422	1210.9366	1225.7371	1245.5685	1254.2205	1268.4948	1330.3265	1344.4806	1421.5725	1445.0367	1474.4842	1484.688	1486.0374	1501.7283	1511.1024	1792.1708	2842.5763	2991.1504	3047.1526	3072.7517	3075.3004	3077.9205	3123.5788	3129.2824	3140.6934	3180.7329
COC1C2CCC12C=O	CO[C@H]1[C@H]2CC[C@@]12C=O	
InChI=1S/C7H10O2/c1-9-6-5-2-3-7(5,6)4-8/h4-6H,2-3H2,1H3	InChI=1S/C7H10O2/c1-9-6-5-2-3-7(5,6)4-8/h4-6H,2-3H2,1H3/t5-,6+,7+/m1/s1
