14
gdb 117030	4.41164	0.77889	0.66742	3.8465	64.43	-0.2842	-0.1341	0.1501	1553.121	0.097297	-473.836993	-473.827238	-473.826294	-473.873252	32.158	
O	-0.1375889057	 1.457502606	 0.0109535544	-0.419021
C	 0.0361686063	 0.0520262811	 0.0024342602	-0.084482
C	-1.3582093009	-0.558572127	 0.0118796789	-0.290181
C	-1.3407469306	-2.0605893623	 0.0042557158	 0.2852
O	-0.3534672048	-2.7545669638	-0.0082813957	-0.264262
C	-2.7216891457	-2.7512848899	 0.0132239182	 0.205235
O	-3.764140241	-2.1512803364	 0.0253948618	-0.239965
C	-2.6699212722	-4.2241925574	 0.004726374	 0.268997
N	-2.684392229	-5.3800702052	-0.0014564248	-0.289748
H	 0.7315495313	 1.8690733605	 0.0053240244	 0.293632
H	 0.5827062537	-0.290010405	-0.8884367261	 0.10871
H	 0.598518819	-0.2987741417	 0.8799574923	 0.108699
H	-1.9260978081	-0.2167959949	 0.8869598169	 0.158585
H	-1.9416065223	-0.208185574	-0.8494918703	 0.1586
38.0242	65.1445	98.5671	102.4603	179.0091	254.5515	262.8172	266.9492	360.5413	404.8152	420.2583	500.1745	675.2989	685.9776	781.6744	820.1835	941.4973	1038.6464	1068.8146	1089.6555	1196.7378	1203.8503	1261.2011	1296.6383	1361.1692	1435.0452	1472.041	1524.1467	1792.5189	1810.097	2342.5255	2992.7919	3021.643	3040.294	3070.2088	3832.4988
OCCC(=O)C(=O)C#N	OCCC(=O)C(=O)C#N	
InChI=1S/C5H5NO3/c6-3-5(9)4(8)1-2-7/h7H,1-2H2	InChI=1S/C5H5NO3/c6-3-5(9)4(8)1-2-7/h7H,1-2H2
