20
gdb 98074	3.18509	1.00048	0.81551	2.4135	78.78	-0.2335	-0.0467	0.1868	1473.6417	0.167715	-440.331445	-440.320381	-440.319436	-440.368828	37.448	
C	 0.0952761559	 1.5316943825	 0.2070351041	-0.385646
C	 0.4504488752	 0.0566201525	 0.0491563821	-0.271829
C	 0.4836548661	-0.4008483491	-1.3936907072	 0.276379
O	 0.2544045774	 0.3297290388	-2.3311558788	-0.308459
C	 0.7203868907	-1.9190005308	-1.5710618681	 0.356547
O	 0.1969048356	-2.6586295526	-0.7472653036	-0.383139
N	 1.4446963728	-2.3628320192	-2.6335044265	-0.100332
C	 1.566124991	-3.7992717193	-2.8379641634	-0.346854
C	 2.1272618798	-1.5352260162	-3.6156752727	-0.334494
H	 0.8057623853	 2.1693697752	-0.3260918753	 0.125878
H	-0.8970825938	 1.740427169	-0.2011091087	 0.132469
H	 0.1003718421	 1.8159832478	 1.2626897909	 0.113703
H	 1.4335995069	-0.1727156177	 0.4859177914	 0.124919
H	-0.2434599428	-0.6035180072	 0.5801248115	 0.158093
H	 1.1424621003	-4.0822014366	-3.8093846683	 0.128687
H	 2.6210776605	-4.0983133613	-2.8237493036	 0.125108
H	 1.0286972783	-4.3107196306	-2.0416523989	 0.171456
H	 2.1005751328	-0.4871933166	-3.3353653613	 0.164314
H	 3.1704566508	-1.8625300449	-3.7032068615	 0.121012
H	 1.6559611254	-1.6364457135	-4.6013070521	 0.132188
44.1739	62.512	75.9433	101.8029	139.9413	186.5851	198.2942	232.6177	287.3979	321.314	358.6665	390.4317	423.4903	553.1527	661.2221	692.5742	744.3909	820.21	897.1496	995.686	1035.406	1080.5398	1082.0778	1111.7355	1129.6637	1179.7652	1210.0178	1261.8958	1279.0761	1367.4023	1415.5915	1430.6945	1437.6303	1443.4097	1473.8113	1481.4994	1494.6203	1498.5891	1499.1685	1502.8758	1543.5306	1727.9058	1795.5517	3016.3423	3018.8964	3023.4906	3050.6924	3063.9489	3070.4248	3082.2584	3122.2638	3124.5922	3172.9561	3202.5274
CCC(=O)C(=O)N(C)C	CCC(=O)C(=O)N(C)C	
InChI=1S/C6H11NO2/c1-4-5(8)6(9)7(2)3/h4H2,1-3H3	InChI=1S/C6H11NO2/c1-4-5(8)6(9)7(2)3/h4H2,1-3H3
