21
gdb 59281	2.43059	1.42233	0.96119	2.434	84.46	-0.2368	-0.0172	0.2196	1270.7182	0.181632	-387.130253	-387.120992	-387.120048	-387.164696	34.994	
C	 0.0337545204	 1.5193854691	 0.1488860321	-0.397839
C	-0.0934220936	-0.0034058112	-0.0008938353	 0.041998
C	-1.5705984311	-0.4168606824	-0.0490705544	-0.397608
C	 0.6780991028	-0.5213699735	-1.2528607407	-0.148572
C	 2.1075117918	-0.0522914486	-1.3784513374	-0.080693
C	 2.99528815	-1.0479623317	-1.3609334056	-0.085362
C	 2.3433919304	-2.396111332	-1.2417317867	-0.362847
C	 0.8435794989	-2.0581276206	-1.2418843435	 0.387082
O	-0.0464641917	-2.869888453	-1.2354926408	-0.310722
H	 1.0688139725	 1.8355933391	 0.3051386482	 0.113838
H	-0.3477790821	 2.0348666942	-0.7409142897	 0.112146
H	-0.5521236548	 1.8657345124	 1.0064610304	 0.114021
H	 0.369164792	-0.4666296315	 0.88200921	 0.074968
H	-2.080190443	 0.0792714458	-0.8843867332	 0.106923
H	-1.6824897223	-1.4939796293	-0.1817924064	 0.149268
H	-2.0802887192	-0.1194983866	 0.8733074579	 0.105098
H	 0.0851677953	-0.2412397339	-2.1367696127	 0.100147
H	 2.3651651396	 0.9950940739	-1.4797555747	 0.103968
H	 4.069149057	-0.9223538639	-1.4392125243	 0.100919
H	 2.5721131996	-3.0779233573	-2.0705611143	 0.136442
H	 2.6057316976	-2.9381672992	-0.3233858689	 0.136825
47.8644	70.1212	189.0616	212.9476	243.0499	257.5452	336.3723	349.7658	413.39	446.9009	509.2367	574.6331	628.037	717.678	772.8211	777.3578	852.6931	930.3268	935.6219	954.8301	966.5194	977.1255	991.0314	1035.1263	1105.1697	1125.8321	1139.5404	1141.2386	1165.452	1190.3691	1256.0332	1274.047	1288.2492	1347.0599	1361.412	1382.2541	1399.9761	1421.2404	1442.8165	1489.1699	1494.2752	1503.6329	1516.8055	1681.1174	1838.8438	2991.3191	3007.8683	3025.5778	3025.7178	3030.8573	3054.3438	3088.401	3095.4496	3108.6967	3142.7968	3188.741	3212.9352
CC(C)C1C=CCC1=O	CC(C)[C@H]1C=CCC1=O	
InChI=1S/C8H12O/c1-6(2)7-4-3-5-8(7)9/h3-4,6-7H,5H2,1-2H3	InChI=1S/C8H12O/c1-6(2)7-4-3-5-8(7)9/h3-4,6-7H,5H2,1-2H3/t7-/m1/s1
