18
gdb 26322	3.91043	1.02814	0.86199	2.3928	73.72	-0.2205	0.0263	0.2468	1346.7358	0.147182	-439.130752	-439.121874	-439.12093	-439.164473	33.052	
C	 0.1328648405	 1.4931325316	 0.0869340275	-0.384027
C	-0.0537606699	-0.0294437907	-0.048721698	-0.074812
C	-1.5354444345	-0.4223109022	-0.0163515735	-0.398724
C	 0.6378882568	-0.5385639588	-1.2777380718	 0.273513
C	 0.1394994096	-1.1761921521	-2.3607273926	-0.149039
O	 1.1942332705	-1.4312047915	-3.2294627049	-0.205823
C	 2.2606046575	-0.9158173884	-2.5842397535	 0.467842
O	 3.4434945868	-1.0154295247	-3.1882118579	-0.402143
N	 2.0228956273	-0.376954281	-1.4400980568	-0.389385
H	 1.1924076854	 1.7564952787	 0.0502947823	 0.140611
H	-0.3773544262	 2.0194137667	-0.7274763638	 0.11178
H	-0.2835195114	 1.848299522	 1.0350711109	 0.107399
H	 0.4470650171	-0.4968222773	 0.8106416356	 0.09529
H	-2.0803175704	 0.0297279933	-0.8531007276	 0.115859
H	-1.6654418702	-1.5076818261	-0.0725285004	 0.11562
H	-2.0036020363	-0.0737313522	 0.9087846879	 0.115191
H	-0.8282609682	-1.5151524214	-2.6817973047	 0.143656
H	 3.3188896256	-1.4690121757	-4.0305388488	 0.317191
55.8674	136.7943	176.4354	235.2282	260.8725	292.1088	322.1303	340.9758	395.0894	444.9721	514.3135	609.2524	673.2302	720.7763	751.3839	761.0047	884.3049	931.5266	967.8592	981.4457	1003.1973	1088.8996	1111.3287	1129.0432	1171.6211	1214.1487	1249.6326	1263.4787	1335.6381	1372.0825	1395.094	1416.8936	1432.6208	1488.8126	1492.749	1501.323	1514.3347	1635.3588	1702.9657	3007.7397	3029.783	3034.4258	3095.6705	3100.9914	3108.998	3127.3815	3308.9216	3816.8275
CC(C)C1=COC(O)=N1	CC(C)c1coc(O)n1	
InChI=1S/C6H9NO2/c1-4(2)5-3-9-6(8)7-5/h3-4H,1-2H3,(H,7,8)	InChI=1S/C6H9NO2/c1-4(2)5-3-9-6(8)7-5/h3-4H,1-2H3,(H,7,8)
