19
gdb 8916	3.52556	1.25088	0.98048	4.9869	72.17	-0.2835	0.0346	0.3181	1208.0952	0.163458	-365.084496	-365.074728	-365.073784	-365.119135	34.632	
C	 0.074916858	 1.5963923236	 0.1004816374	-0.382708
C	 0.0033653008	 0.069270409	 0.0130872279	-0.205043
C	 0.6689889964	-0.4796498045	-1.2552623036	 0.147316
O	 2.0179665568	-0.0550588957	-1.3633924095	-0.417071
C	 0.5752707943	-2.0283324095	-1.3577185045	-0.177476
C	-0.8681013713	-2.5652737882	-1.4409624296	-0.402053
C	 1.3449973553	-2.4995139837	-2.5154172538	 0.283059
N	 1.9193203296	-2.9017420022	-3.4338488315	-0.324494
H	 1.11017494	 1.9410809642	 0.0468903549	 0.131881
H	-0.4720177801	 2.0616522591	-0.7265610019	 0.120956
H	-0.3636333921	 1.9552802623	 1.0359065245	 0.114646
H	 0.4942432553	-0.3812095599	 0.8891559484	 0.089126
H	-1.0428648219	-0.2522578051	 0.0490703658	 0.107222
H	 0.1752358964	-0.0535859512	-2.1374704671	 0.105544
H	 2.5000593313	-0.374519036	-0.591671983	 0.281774
H	 1.055652444	-2.4493474309	-0.4624136432	 0.114141
H	-0.8659918309	-3.6466352401	-1.5953789197	 0.143129
H	-1.4138366085	-2.3542222901	-0.5191890654	 0.130429
H	-1.4035171033	-2.1060698911	-2.277175916	 0.139622
53.6509	96.2798	134.6819	194.1833	211.3136	240.4653	267.0892	286.8481	299.6334	392.8672	412.5728	469.5225	566.492	594.5246	781.6034	838.9374	867.9489	946.8164	994.5329	1026.1741	1066.2725	1094.1125	1101.7415	1142.3588	1144.8175	1249.477	1269.6219	1317.3452	1341.4576	1362.432	1385.5943	1406.6436	1414.5438	1421.6006	1481.658	1494.6662	1496.4884	1502.2037	1508.9485	2359.6789	2998.2525	3006.2441	3042.4295	3045.7471	3053.1956	3072.7095	3107.9029	3126.885	3129.3955	3138.0864	3791.3144
CCC(O)C(C)C#N	CC[C@@H](O)[C@@H](C)C#N	
InChI=1S/C6H11NO/c1-3-6(8)5(2)4-7/h5-6,8H,3H2,1-2H3	InChI=1S/C6H11NO/c1-3-6(8)5(2)4-7/h5-6,8H,3H2,1-2H3/t5-,6+/m0/s1
