18
gdb 19356	4.14817	1.62472	1.45268	1.9395	70.66	-0.2257	0.0648	0.2906	933.4171	0.152991	-347.728005	-347.720603	-347.719659	-347.759589	28.885	
C	-0.2239595827	 1.5167592199	-0.013971494	-0.371747
C	 0.095130758	 0.0161925528	 0.0477514575	-0.294797
C	 0.7769083384	-0.4883310479	-1.1931792807	 0.339339
C	 0.0779485866	-0.9194476944	-2.4555140913	-0.330467
C	 0.9480341515	-1.9096398633	-1.7192659479	-0.17578
C	 2.4618846601	-1.6137402163	-1.9562379506	 0.024742
O	 2.6025339438	-0.5018668656	-2.854031929	-0.239854
C	 2.3055140523	-0.2480725483	-1.4738806235	-0.038005
H	 0.685033951	 2.1096702094	-0.1621744955	 0.117347
H	-0.9007950777	 1.7383079338	-0.8451086216	 0.122003
H	-0.6973183428	 1.858425205	 0.911728369	 0.110936
H	 0.7267722085	-0.1883656437	 0.923406577	 0.096078
H	-0.830125436	-0.5525239757	 0.2024597	 0.099473
H	-0.9886693627	-1.0896454548	-2.3423674094	 0.107875
H	 0.3865646998	-0.5394644333	-3.4212084902	 0.133791
H	 0.5745168298	-2.8327342474	-1.2952159273	 0.090905
H	 3.2867043414	-2.3128429875	-1.8925749285	 0.106505
H	 2.9716118806	 0.4098002873	-0.927358774	 0.101657
89.3217	148.3312	197.8583	305.1212	344.1219	413.7726	440.1706	555.1746	653.5784	751.7188	779.6107	800.8307	808.8641	842.0837	880.1055	917.2955	948.2228	968.5343	980.0766	994.8408	1021.9243	1047.8144	1086.0774	1096.5589	1117.9867	1193.6708	1212.9843	1250.4633	1264.7063	1316.499	1340.9137	1375.2143	1402.7824	1411.2867	1472.088	1483.5327	1497.5827	1506.7307	3009.4683	3034.3361	3047.9851	3101.6795	3109.0437	3134.2853	3177.3582	3192.879	3201.9557	3227.9541
CCC12CC1C1OC21	CC[C@]12C[C@H]1[C@H]1O[C@@H]21	
InChI=1S/C7H10O/c1-2-7-3-4(7)5-6(7)8-5/h4-6H,2-3H2,1H3	InChI=1S/C7H10O/c1-2-7-3-4(7)5-6(7)8-5/h4-6H,2-3H2,1H3/t4-,5+,6+,7-/m0/s1
