19
gdb 120616	4.35191	0.72952	0.6999	3.0935	74.93	-0.2565	-0.0364	0.2202	1657.2797	0.154813	-460.140706	-460.130312	-460.129368	-460.177174	35.51	
C	-0.0418888961	 1.3427046665	 0.0509108974	-0.227453
O	-0.0456967257	-0.0628942655	-0.0477668531	-0.234069
C	 0.7968280548	-0.5416210601	-1.0705487911	-0.09087
C	 0.7096805927	-2.0470078987	-1.0595069358	-0.001417
O	-0.2092238261	-2.6847742643	-1.9349885519	-0.277598
C	 1.1968972397	-2.8918027762	-2.1774622014	 0.268199
C	 1.7967744801	-2.3532334514	-3.4517775751	-0.472792
C	 1.6304278669	-4.2736637765	-1.7762516131	 0.126861
O	 2.5566607539	-4.8628122	-2.2702747598	-0.251871
H	 0.9644532949	 1.7329518331	 0.271229896	 0.106395
H	-0.3997334225	 1.8177213446	-0.8757271999	 0.109558
H	-0.7135161078	 1.6122323416	 0.8689183834	 0.134109
H	 0.4897162643	-0.1493699781	-2.0509619663	 0.10384
H	 1.841065341	-0.2285181485	-0.8921537594	 0.096975
H	 0.7291632819	-2.4652063478	-0.0509330253	 0.105556
H	 1.4319404141	-1.3511794383	-3.6784846687	 0.128051
H	 2.8867333228	-2.331254959	-3.3692104093	 0.14436
H	 1.546527405	-3.0121941839	-4.2880432215	 0.143237
H	 1.0003930661	-4.7147593577	-0.9722474453	 0.088929
52.1735	82.2563	89.7738	112.1797	126.1941	231.0189	248.7002	254.1167	292.0174	328.2365	411.8239	461.3135	525.9966	585.0764	749.5702	832.8737	886.0945	953.84	985.2214	1006.7461	1062.6714	1106.8464	1117.727	1131.6878	1164.2617	1185.0389	1227.0974	1267.172	1277.062	1329.6964	1381.9173	1409.937	1420.2224	1464.9011	1475.4855	1482.6292	1485.8717	1496.6534	1502.5785	1521.5929	1828.2852	2895.3262	2949.4439	2973.151	3014.9533	3019.323	3057.7851	3096.1258	3121.4119	3121.7596	3151.3749
COCC1OC1(C)C=O	COC[C@H]1O[C@]1(C)C=O	
InChI=1S/C6H10O3/c1-6(4-7)5(9-6)3-8-2/h4-5H,3H2,1-2H3	InChI=1S/C6H10O3/c1-6(4-7)5(9-6)3-8-2/h4-5H,3H2,1-2H3/t5-,6-/m1/s1
