14
gdb 52018	2.81888	0.8686	0.68818	3.4991	69.49	-0.2727	-0.0435	0.2292	1524.2607	0.096196	-436.636982	-436.627297	-436.626353	-436.673151	32.259	
O	-0.1975050634	 0.2743517096	 0.656957016	-0.229592
C	 0.0925091514	 1.0892570964	-0.1754748518	 0.143626
C	 1.2880968842	 2.0191808063	-0.0434335383	-0.161056
O	 1.4277444812	 2.7118694956	-1.2720702115	-0.244414
C	 2.5197042493	 3.6069922455	-1.3121092956	-0.172983
C	 2.6976906116	 4.0904272651	-2.678404227	 0.297589
C	 2.8730629342	 4.486081482	-3.7965366545	-0.368307
C	 2.3182645785	 4.742638631	-0.3736258252	 0.28266
N	 2.1530124473	 5.5941163843	 0.3887714946	-0.315244
H	-0.4920923323	 1.2373997098	-1.1086842936	 0.108331
H	 1.1084280834	 2.7103407411	 0.7944026905	 0.155181
H	 2.1849296203	 1.4273432217	 0.1950813658	 0.134632
H	 3.4418221691	 3.0925089473	-0.9906327017	 0.150605
H	 3.0195464352	 4.8388191443	-4.7884100876	 0.218973
51.7321	63.3196	103.6647	107.883	125.8436	231.0705	239.7937	348.8481	363.0256	449.456	551.0978	573.3672	649.818	659.783	700.0159	748.0723	885.7748	1000.8043	1032.9135	1076.644	1112.6569	1137.0076	1241.0643	1318.0856	1328.0328	1372.2334	1413.436	1480.7619	1848.4586	2258.1796	2360.2138	2913.2792	2960.9121	2988.7216	3029.2998	3499.7472
O=CCOC(C#C)C#N	O=CCO[C@@H](C#C)C#N	
InChI=1S/C6H5NO2/c1-2-6(5-7)9-4-3-8/h1,3,6H,4H2	InChI=1S/C6H5NO2/c1-2-6(5-7)9-4-3-8/h1,3,6H,4H2/t6-/m0/s1
