19
gdb 35966	2.17069	1.56691	1.30814	1.2721	76.73	-0.2464	0.0498	0.2962	1081.2159	0.159338	-422.974727	-422.966078	-422.965133	-423.008296	32.546	
C	 0.0326577455	-1.2594937919	 0.1083717458	-0.478306
C	 0.0198875005	-0.0579604372	 0.0868996988	 0.361614
C	 0.008596767	 1.4006007837	 0.0535032256	-0.228776
C	-0.8476011308	 2.0154304569	 1.188860421	-0.071893
O	-0.6267674891	 1.5259628393	 2.4886743833	-0.253579
C	 0.7011583001	 1.3994587898	 2.9836633471	-0.059042
C	 1.7880720681	 2.2491280363	 2.3312398147	-0.105085
O	 2.2500657994	 1.72642514	 1.0986014583	-0.231843
C	 1.4305565018	 2.0077956678	-0.0089914264	-0.082632
H	 0.0412956919	-2.3210643191	 0.1291664432	 0.19763
H	-0.4788501857	 1.7228412387	-0.879607623	 0.110914
H	-0.7210492421	 3.1101283439	 1.1420649045	 0.086035
H	-1.9022560379	 1.8026121734	 0.9906569824	 0.118931
H	 0.6497004235	 1.6614772796	 4.0479784658	 0.10315
H	 1.0167561574	 0.3497928644	 2.9067996807	 0.117111
H	 1.4660519928	 3.2970753448	 2.2198946918	 0.095871
H	 2.6555650267	 2.2399963022	 2.9999989598	 0.113823
H	 1.9591239536	 1.6100076088	-0.8795007818	 0.119229
H	 1.3210394876	 3.0983669287	-0.1406210213	 0.086847
57.7954	121.6338	128.2886	224.1694	299.4946	327.0174	354.2273	396.8309	451.9377	521.3211	610.3328	625.8156	636.9349	732.6442	756.6757	830.8959	868.6546	927.6201	977.9743	1001.0393	1025.8334	1066.7717	1095.6471	1124.0165	1170.5708	1208.3487	1256.8966	1267.4313	1284.5929	1317.0862	1337.4535	1364.9511	1383.1494	1411.4276	1417.6988	1433.2679	1479.2793	1491.1198	1494.9515	1510.611	2236.9789	2954.0287	2961.5578	2984.0817	2995.9868	3010.6291	3054.177	3073.0179	3080.2798	3093.4509	3504.4898
C#CC1COCCOC1	C#CC1COCCOC1	
InChI=1S/C7H10O2/c1-2-7-5-8-3-4-9-6-7/h1,7H,3-6H2	InChI=1S/C7H10O2/c1-2-7-5-8-3-4-9-6-7/h1,7H,3-6H2
