19
gdb 30092	3.62005	1.14437	1.05247	0.4377	83.79	-0.2031	0.021	0.2241	1219.9638	0.160283	-385.912489	-385.904324	-385.903379	-385.945635	31.361	
C	-0.0980561902	 1.5558365398	-0.1653681322	-0.416562
C	 0.0245220472	 0.056186773	-0.0205123594	 0.008679
C	 1.3474184349	-0.6435751173	-0.1638916852	-0.303579
C	 0.6777008696	-0.5993708067	 1.195165107	-0.129343
C	 1.2539727039	 0.1497419221	 2.3188513487	 0.39012
C	 1.0735165454	 0.055863266	 3.667199272	-0.290413
C	 1.9201128796	 1.0446474156	 4.2673695127	-0.169102
C	 2.5535593061	 1.668030439	 3.243438126	-0.027047
O	 2.1632906308	 1.1346076326	 2.0502595707	-0.185256
H	 0.7834105174	 2.0690684348	 0.224835844	 0.136281
H	-0.2118565773	 1.8321124418	-1.2195716985	 0.113951
H	-0.9728170928	 1.9352382452	 0.3743640064	 0.116788
H	-0.8338676444	-0.4961894485	-0.3955984456	 0.085609
H	 1.3945898581	-1.5963512261	-0.6798463543	 0.110669
H	 2.2276648087	-0.0212504433	-0.2847593242	 0.126657
H	 0.2033790977	-1.5169806872	 1.5278596039	 0.09205
H	 0.4170049153	-0.6357248177	 4.171793598	 0.103268
H	 2.0381424532	 1.2558470273	 5.3186838165	 0.108332
H	 3.2757016368	 2.4649963498	 3.1829665233	 0.128897
55.6112	124.2294	172.2072	211.1548	267.8482	347.7303	433.6413	474.5583	611.7091	645.8251	711.9918	735.5059	760.8834	798.3103	842.7156	851.0812	877.6412	901.0362	932.9807	945.751	1013.4689	1030.375	1070.4679	1074.5879	1101.53	1115.7932	1145.5855	1183.2683	1201.6877	1214.1452	1239.2497	1283.1539	1372.0152	1397.6262	1420.3126	1425.3878	1485.376	1499.857	1503.1852	1548.4905	1634.2065	3033.0389	3087.8641	3121.5511	3132.75	3138.8409	3160.7989	3221.1377	3249.2716	3261.0896	3287.461
CC1CC1C1=CC=CO1	C[C@H]1C[C@H]1c1ccco1	
InChI=1S/C8H10O/c1-6-5-7(6)8-3-2-4-9-8/h2-4,6-7H,5H2,1H3	InChI=1S/C8H10O/c1-6-5-7(6)8-3-2-4-9-8/h2-4,6-7H,5H2,1H3/t6-,7+/m0/s1
