19
gdb 37094	2.19577	1.98621	1.31376	3.074	80.15	-0.2348	0.081	0.3158	1025.8179	0.160596	-381.976656	-381.969021	-381.968077	-382.008568	30.746	
N	-0.0817813471	 1.4357510894	 0.0018957926	-0.353765
C	 1.2530450883	 0.7997453468	 0.0169835112	-0.321256
C	 0.0237523189	-0.0180721464	 0.0050564641	 0.316078
C	-0.4334491215	-0.9846499004	 1.0797452705	-0.160396
C	-1.9109003599	-1.2469277678	 0.9402457324	-0.300427
C	-0.9633152435	-1.9358701496	-0.0076199175	-0.160334
C	-0.5034529617	-0.9636705429	-1.0760358979	 0.316052
N	-1.2018058517	-0.5728844144	-2.2943979241	-0.353786
C	 0.0797076769	-1.3045156626	-2.3889809202	-0.321288
H	-0.3248129883	 1.7692566731	 0.9323827271	 0.228406
H	 1.8316708831	 0.9360209595	-0.8929731665	 0.119586
H	 1.8399090912	 0.8234545115	 0.9328019354	 0.108749
H	 0.1206187853	-1.2397993656	 1.9746746698	 0.093042
H	-2.3420398828	-1.8831807772	 1.7067771513	 0.113654
H	-2.5731761819	-0.4649962183	 0.5789274117	 0.125903
H	-0.8674683138	-3.013706698	-0.0531691826	 0.093045
H	-1.9821739224	-1.203507575	-2.4659633944	 0.228409
H	 0.9059040487	-0.723889589	-2.7910641764	 0.119583
H	 0.0713256721	-2.348781383	-2.6941583866	 0.108746
101.1576	192.8219	211.7636	247.9115	291.2023	403.0845	500.3919	522.0376	593.1468	593.2924	777.233	795.6329	842.9765	878.7075	889.0933	915.528	924.3104	956.3832	958.4793	959.0389	974.2791	984.7831	993.7911	1058.1375	1080.4948	1088.5367	1094.6061	1127.5111	1131.6057	1190.4031	1212.0559	1254.7417	1255.854	1278.3225	1291.3585	1311.6386	1405.4532	1455.1024	1485.5837	1508.7009	1525.5768	3096.7812	3098.4611	3117.0604	3179.9189	3182.8916	3183.233	3190.1067	3207.4852	3487.2057	3487.5563
N1CC11C2CC2C11NC1	N1C[C@]21[C@H]1C[C@H]1[C@]12NC1	
InChI=1S/C7H10N2/c1-4-5(1)7(3-9-7)6(4)2-8-6/h4-5,8-9H,1-3H2	InChI=1S/C7H10N2/c1-4-5(1)7(3-9-7)6(4)2-8-6/h4-5,8-9H,1-3H2/t4-,5+,6-,7+
