21
gdb 40720	3.9923	1.11599	1.04568	1.5514	81.9	-0.2396	0.0915	0.3311	1236.2024	0.184763	-387.056044	-387.048439	-387.047495	-387.088399	30.71	
C	-0.1976797183	 1.3394853466	-0.2315645556	-0.277867
C	 1.2431418434	 1.1048252579	 0.1537985643	-0.278836
C	 0.2820044098	-0.0557708657	 0.0783630653	 0.025861
C	-0.1675202257	-0.7641018941	 1.3326642667	 0.016142
C	-1.5105935837	-1.5633333542	 1.1846447532	-0.249041
C	-0.9481285874	-2.9639227332	 1.4977663596	 0.086662
C	-0.0899871448	-2.7423678193	 2.7630820801	-0.236073
C	 0.7228983853	-1.9800894334	 1.696483597	 0.067658
O	 0.2901679154	-2.9779821877	 0.7150987604	-0.302052
H	-0.8406227459	 1.8275135604	 0.4942000169	 0.106516
H	-0.4215262173	 1.5939869649	-1.2616834458	 0.110034
H	 2.0041688218	 1.1975310761	-0.6131150226	 0.111092
H	 1.5631918501	 1.4380658141	 1.1361959282	 0.105846
H	 0.4009090338	-0.7231148446	-0.7704995494	 0.094603
H	-0.2110020103	-0.0492483962	 2.1624362368	 0.061143
H	-2.2877086145	-1.2471358733	 1.885685262	 0.095144
H	-1.9114506009	-1.5074448527	 0.1700947136	 0.108522
H	-1.5803173633	-3.8384041328	 1.3437618722	 0.076905
H	-0.513246286	-2.1935289609	 3.6090480895	 0.090743
H	 0.4105221926	-3.6561732162	 3.0844462805	 0.109434
H	 1.8029233159	-1.8389582256	 1.7414235871	 0.077564
81.7681	128.0437	167.3892	296.9763	373.7743	420.8651	447.7398	576.5445	716.1012	765.285	816.226	827.3975	835.5409	845.5433	867.993	874.6522	910.2257	938.265	943.7254	967.5244	985.4799	1013.4479	1041.5424	1054.6002	1062.6662	1077.817	1098.0964	1127.411	1151.8892	1194.4116	1201.0637	1216.3038	1225.873	1227.6525	1239.7911	1265.4301	1289.3957	1291.903	1322.4863	1336.6729	1427.7704	1469.9994	1480.502	1495.0916	1506.0998	3037.4464	3060.5169	3065.603	3114.6057	3120.4966	3123.5062	3125.9179	3130.8346	3142.5398	3152.2044	3203.6783	3219.1418
C1CC1C1CC2CC1O2	C1CC1[C@H]1C[C@@H]2C[C@H]1O2	
InChI=1S/C8H12O/c1-2-5(1)7-3-6-4-8(7)9-6/h5-8H,1-4H2	InChI=1S/C8H12O/c1-2-5(1)7-3-6-4-8(7)9-6/h5-8H,1-4H2/t6-,7-,8-/m1/s1
