16
gdb 19863	4.15421	2.23692	1.94254	1.3635	62.63	-0.2551	0.0815	0.3366	733.6	0.132917	-383.702353	-383.69639	-383.695446	-383.732342	23.759	
C	 0.0043695865	 1.4867333697	-0.082744212	-0.289823
C	 1.3218615421	 0.7836652484	 0.043577108	-0.070023
C	-0.0047786018	-0.0058594998	 0.0518768039	-0.070023
C	 0.3788246253	-0.6680902998	-1.2789775577	 0.073661
O	-0.3123896978	-0.2417667709	-2.4443962071	-0.263395
C	 0.6770225467	 0.3228512511	-3.2845784689	 0.019413
O	 1.6528797081	 0.9277837803	-2.4566887461	-0.263397
C	 1.7087012137	 0.1233498983	-1.2872886665	 0.073667
H	-0.3112599371	 2.0264112482	 0.803729601	 0.114817
H	-0.2785024839	 1.9521769044	-1.0206425172	 0.129926
H	 2.0071735313	 0.9679104056	 0.8606499789	 0.089593
H	-0.4859651029	-0.5158513496	 0.8762398455	 0.089594
H	 0.4610374248	-1.7585119619	-1.2372955473	 0.079309
H	 1.1383730104	-0.4589958967	-3.9138462957	 0.087321
H	 0.2165444965	 1.090005044	-3.9137414551	 0.120052
H	 2.6282740982	-0.4687415913	-1.2508221238	 0.079309
152.0342	188.2714	310.2566	445.8851	583.7367	625.4365	714.9916	768.0154	773.1353	831.7425	872.532	929.1673	963.9604	982.9648	983.6794	996.4036	1022.0652	1051.5149	1058.3397	1085.2333	1097.0145	1109.8891	1167.5646	1194.513	1226.3574	1238.4224	1259.3281	1304.4697	1336.7231	1343.0574	1370.1349	1425.1846	1491.5442	1540.2483	2942.6358	3052.7161	3064.8158	3087.6198	3137.237	3191.9703	3200.8587	3222.2396
C1C2C1C1OCOC21	C1[C@H]2[C@@H]1[C@H]1OCO[C@@H]21	
InChI=1S/C6H8O2/c1-3-4(1)6-5(3)7-2-8-6/h3-6H,1-2H2	InChI=1S/C6H8O2/c1-3-4(1)6-5(3)7-2-8-6/h3-6H,1-2H2/t3-,4+,5-,6+
