19
gdb 52697	3.39098	0.7212	0.64299	3.74	82.3	-0.2388	0.0474	0.2862	1780.5829	0.157236	-419.229713	-419.218645	-419.217701	-419.26823	38.177	
C	-0.0111662903	 1.4789999934	 0.0251035538	-0.499604
C	-0.0049689922	 0.0233276905	-0.0081155332	 0.110189
C	 0.0107648167	-1.1804828851	-0.0211549808	 0.024232
C	-0.0115125092	-2.6436917562	-0.0545928783	-0.121799
C	-1.4512835271	-3.1933087116	-0.0740276192	-0.386061
N	 0.7837427239	-3.1214521609	-1.1875008304	-0.33788
C	 1.3112940592	-4.3909997099	-1.1688909037	 0.465429
N	 1.8954576334	-4.7786902477	-2.3713137639	-0.569734
O	 1.258451922	-5.123076905	-0.1962631137	-0.398285
H	 0.8018340754	 1.8930885509	-0.5814296234	 0.148361
H	-0.9529678527	 1.8852098647	-0.3599083853	 0.147924
H	 0.1175721788	 1.8515959635	 1.0472663911	 0.151687
H	 0.4871252222	-3.0412174485	 0.8356219096	 0.140393
H	-2.004164546	-2.8422880638	 0.8017848712	 0.12351
H	-1.9808863198	-2.8576413958	-0.9708689495	 0.111412
H	-1.4189712155	-4.2850860578	-0.059712177	 0.143124
H	 0.6109065622	-2.6781664553	-2.0761707836	 0.240718
H	 2.3319077196	-4.0575181161	-2.9267424984	 0.246986
H	 2.4633386993	-5.6060579795	-2.2647424654	 0.259399
15.8728	41.8566	67.463	112.5591	133.8729	210.0092	260.9925	291.1709	318.3932	357.0381	395.1039	417.8536	443.6787	535.7496	561.9417	572.5919	627.5326	765.28	780.3896	897.5017	1015.1078	1040.2698	1052.5881	1054.9744	1087.502	1097.5039	1151.4901	1193.0169	1285.1566	1343.637	1378.3248	1396.2259	1414.6196	1477.6691	1479.1715	1486.9257	1496.2975	1525.2551	1626.338	1793.0592	2374.0794	3027.6943	3042.6717	3062.4736	3088.4461	3089.2532	3118.2243	3136.0287	3569.455	3625.623	3682.6847
CC#CC(C)NC(N)=O	CC#C[C@@H](C)NC(=O)N	
InChI=1S/C6H10N2O/c1-3-4-5(2)8-6(7)9/h5H,1-2H3,(H3,7,8,9)	InChI=1S/C6H10N2O/c1-3-4-5(2)8-6(7)9/h5H,1-2H3,(H3,7,8,9)/t5-/m1/s1
