13
gdb 5171	6.27944	1.23691	1.12039	2.2108	60.71	-0.247	-0.0363	0.2106	1007.06	0.095514	-398.638394	-398.631367	-398.630423	-398.671434	24.057	
O	-0.0546080907	-0.1529332601	-0.2487578727	-0.22452
C	 0.016895383	 1.0452224514	-0.2386075918	 0.157261
C	 1.3331776255	 1.8222047313	-0.2191488165	-0.371153
C	 1.3350020192	 2.9556462723	-1.1835265569	 0.363068
N	 1.1735595248	 4.2196029984	-0.945953202	-0.295836
C	 1.2188556123	 4.8190606991	-2.1989436981	-0.111282
C	 1.4047793405	 3.8645877495	-3.1388848667	-0.037909
O	 1.477427209	 2.6575555374	-2.5021750376	-0.165998
H	-0.8904987747	 1.6885414677	-0.2265264859	 0.096408
H	 1.4506454984	 2.2489693765	 0.7832644769	 0.161577
H	 2.1506021951	 1.1222698778	-0.4088584823	 0.14699
H	 1.1182154846	 5.8852065884	-2.3235495706	 0.130026
H	 1.5060203228	 3.8513874003	-4.2101403657	 0.151369
31.0176	62.3704	150.0239	329.2263	360.8186	450.5926	633.0984	687.2464	741.5071	772.9061	826.1367	869.6651	934.0407	950.608	1017.6246	1042.4918	1111.1512	1138.4568	1164.4462	1190.8687	1264.7411	1298.4855	1390.7293	1417.4522	1440.6625	1551.0525	1613.0643	1841.9612	2893.2659	3057.1434	3122.1258	3267.4513	3303.345
O=CCC1=NC=CO1	O=CCc1ncco1	
InChI=1S/C5H5NO2/c7-3-1-5-6-2-4-8-5/h2-4H,1H2	InChI=1S/C5H5NO2/c7-3-1-5-6-2-4-8-5/h2-4H,1H2
