19
gdb 112008	2.55243	1.44204	1.09903	0.8488	75.71	-0.2419	0.0037	0.2456	1150.4937	0.158315	-423.01228	-423.003495	-423.00255	-423.045585	33.244	
C	-0.1090920288	 1.4678209005	 0.0078057434	-0.489455
C	 0.116499463	-0.0191685724	 0.0059470952	 0.386853
O	-0.7091893681	-0.7899271647	 0.8935045482	-0.303905
C	 0.7281342793	-0.7903951912	 1.1040951466	-0.070066
C	 1.4131713361	-1.9673423647	 0.4940936052	-0.093068
C	 1.2341094419	-1.9649523164	-0.8291621353	-0.079288
C	 0.4399730776	-0.7613641336	-1.301441568	-0.101075
C	-0.810578245	-1.137849705	-2.0982567282	-0.08338
O	-0.3842924831	-1.8043696128	-3.2789405372	-0.425404
H	 0.7553906158	 1.9935149505	-0.4111243404	 0.123935
H	-0.985596278	 1.7322485364	-0.5948359533	 0.126498
H	-0.2801309772	 1.8269455865	 1.0256674284	 0.13019
H	 1.0472833267	-0.3454251943	 2.0422841992	 0.092224
H	 1.9424825451	-2.7177717861	 1.068269255	 0.100865
H	 1.5601184192	-2.7321283567	-1.5205111264	 0.11469
H	 1.0606725064	-0.1248453814	-1.9476581297	 0.088114
H	-1.4486571754	-1.7777190967	-1.4747448433	 0.109855
H	-1.3803674117	-0.2268372615	-2.3432015723	 0.084264
H	-1.1629492137	-2.1434293163	-3.729592477	 0.288155
94.9337	137.5781	173.4165	190.5265	247.2134	273.2953	296.7316	351.3377	476.0191	503.904	573.3365	603.3491	724.0914	770.2006	818.1033	854.1435	866.0002	933.614	963.8381	971.7656	1004.9437	1029.2684	1065.6334	1079.8957	1100.3855	1112.5281	1139.4365	1208.0259	1235.7349	1248.6594	1277.2503	1318.4615	1330.0508	1368.9696	1408.3742	1438.873	1454.2172	1484.5058	1495.139	1525.7417	1660.4958	2968.4308	3010.709	3032.2283	3039.8696	3093.2379	3122.7594	3155.7916	3200.8133	3225.079	3833.2808
CC12OC1C=CC2CO	C[C@]12O[C@H]1C=C[C@H]2CO	
InChI=1S/C7H10O2/c1-7-5(4-8)2-3-6(7)9-7/h2-3,5-6,8H,4H2,1H3	InChI=1S/C7H10O2/c1-7-5(4-8)2-3-6(7)9-7/h2-3,5-6,8H,4H2,1H3/t5-,6-,7+/m0/s1
