20
gdb 110551	3.36252	1.3267	1.27256	2.918	76.72	-0.2323	0.0732	0.3055	1078.506	0.174408	-403.136267	-403.128905	-403.127961	-403.168079	29.768	
O	 0.5111043983	-0.2719088087	-1.3965555266	-0.423794
C	 0.0611382762	 0.0382316648	-0.0826840191	-0.116619
C	-1.342840832	-0.5331819865	 0.0534845444	 0.037524
C	-1.418631731	-2.0586327148	 0.0350357463	-0.031505
C	-1.3777353973	-2.5362185802	 1.447907492	-0.030869
C	-1.2781263956	-1.3128391395	 2.3516110562	-0.240376
C	-2.0557818314	-0.3561739374	 1.4183684741	-0.093789
C	-3.3059528987	-1.2198760236	 1.1582397715	-0.159285
N	-2.6698921375	-2.4871351438	 0.7129378404	-0.133332
H	 1.4149265128	 0.0431764272	-1.4877246868	 0.287286
H	 0.7346345868	-0.3928057588	 0.6721840289	 0.087135
H	 0.0347211563	 1.1281468584	 0.0793519439	 0.084576
H	-1.9478107704	-0.1041796094	-0.7545988552	 0.081479
H	-1.082888115	-2.6442533756	-0.8104180853	 0.097653
H	-1.0154310107	-3.5147999677	 1.7381789395	 0.087476
H	-1.7816099375	-1.4541134735	 3.3135568144	 0.100488
H	-0.2468628667	-1.0083067804	 2.5478399653	 0.099807
H	-2.2131700517	 0.6632538576	 1.7683645198	 0.065345
H	-3.9090660199	-1.3978379981	 2.0538724045	 0.098717
H	-3.952543255	-0.8284094699	 0.3672961617	 0.102084
96.0408	182.7651	206.2639	273.3684	377.0806	445.308	473.4029	532.5354	668.5306	703.2492	790.3613	817.4891	849.7788	863.9345	912.4103	929.4307	939.1323	954.373	960.9513	1014.4816	1033.6628	1042.3914	1076.7998	1079.114	1092.7161	1123.9826	1147.2484	1187.3879	1191.5645	1206.572	1236.6353	1253.5803	1262.0142	1282.0676	1292.8152	1301.7079	1330.8355	1381.319	1385.8872	1457.4064	1493.7385	1512.8542	1520.4201	2966.1955	3006.7213	3039.337	3050.5207	3056.2966	3098.4266	3102.226	3128.2655	3186.5372	3206.8	3831.4445
OCC1C2C3CC1CN23	OC[C@H]1[C@H]2[C@H]3C[C@@H]1CN23	
InChI=1S/C7H11NO/c9-3-5-4-1-6-7(5)8(6)2-4/h4-7,9H,1-3H2	InChI=1S/C7H11NO/c9-3-5-4-1-6-7(5)8(6)2-4/h4-7,9H,1-3H2/t4-,5-,6-,7+,8?/m1/s1
