20
gdb 82214	2.42164	1.81405	1.34886	2.1348	77.15	-0.2214	0.0701	0.2915	1022.5901	0.171469	-403.106887	-403.098773	-403.097829	-403.138837	32.977	
C	-0.0531489694	 1.5978771554	 0.0114539509	-0.39934
C	 0.0476505711	 0.074833112	 0.0126479868	-0.030381
N	 0.6865415465	-0.4688037883	-1.2104230242	-0.102928
C	 2.0924444824	-0.1236696138	-1.4649712128	-0.259981
C	 1.7561265195	-1.4023938533	-0.7874593224	-0.026118
C	 1.7924907039	-1.4919047837	 0.7201886005	-0.09583
C	 2.1771687855	-0.2697101096	 1.541452694	-0.373152
C	 0.7323863847	-0.5583420456	 1.2422180504	 0.387093
O	-0.1048933156	-0.9598548855	 2.2861502726	-0.464602
H	 0.9314340512	 2.0732412823	 0.0583718863	 0.111725
H	-0.5570227588	 1.9478985179	-0.8938310442	 0.128974
H	-0.6320928788	 1.9408287823	 0.8755164753	 0.109737
H	-0.9686314602	-0.3372583441	 0.0215842521	 0.095897
H	 2.3599882423	-0.1236188829	-2.5187772777	 0.112923
H	 2.5778384621	 0.6623314962	-0.8951022841	 0.108591
H	 1.8288344434	-2.339116375	-1.3332522404	 0.089861
H	 1.9373445789	-2.4658049293	 1.1715652384	 0.097587
H	 2.4894409176	-0.4794365008	 2.5598891288	 0.113663
H	 2.6927825877	 0.5664103461	 1.0842765024	 0.112751
H	-0.2044225439	-0.2182508903	 2.8925275675	 0.283531
142.3974	218.2212	228.7254	243.5254	275.1846	320.4669	401.1584	422.8304	492.1097	552.1296	596.3487	678.2489	683.1077	744.6863	809.6724	840.1449	888.1221	923.9473	928.97	962.0459	1001.8147	1041.4479	1051.5291	1063.966	1076.7081	1101.8904	1114.3868	1126.4922	1127.8358	1156.681	1217.3681	1266.3101	1284.0378	1325.6087	1333.3127	1368.0615	1375.8435	1404.5675	1407.7031	1483.0864	1491.5472	1498.5805	1521.6288	3032.5094	3037.8673	3103.547	3110.0853	3116.1616	3132.6568	3141.6111	3189.5387	3190.0709	3219.7246	3799.7615
CC1N2CC2C2CC12O	C[C@H]1N2C[C@H]2[C@H]2C[C@@]12O	
InChI=1S/C7H11NO/c1-4-7(9)2-5(7)6-3-8(4)6/h4-6,9H,2-3H2,1H3	InChI=1S/C7H11NO/c1-4-7(9)2-5(7)6-3-8(4)6/h4-6,9H,2-3H2,1H3/t4-,5-,6+,7-,8?/m1/s1
