25
gdb 64465	2.38741	1.35199	1.10501	0.2887	94.26	-0.2347	0.0253	0.26	1277.4076	0.230196	-352.378212	-352.36872	-352.367775	-352.412061	37.876	
C	-0.3152142136	 1.5641051852	-0.0179423895	-0.399444
C	-0.0492077503	 0.0398112055	-0.0013473857	 0.221966
C	-1.4121624747	-0.6854858374	 0.0301325035	-0.414916
C	 0.6724523331	-0.4058389875	-1.2977134658	-0.190368
C	 2.0495944465	 0.1899253797	-1.6163560074	-0.210509
C	 3.1913878846	-0.296536465	-0.7181677944	-0.179633
C	 3.1512956492	 0.2294453961	 0.7230116057	-0.24651
C	 1.9930743513	-0.225417028	 1.5786943302	-0.083697
C	 0.6959988358	-0.311316897	 1.2781238925	-0.045551
H	 0.6132834521	 2.1406889828	-0.0093628123	 0.116107
H	-0.8859331359	 1.8487971308	-0.90999007	 0.104902
H	-0.8942472583	 1.863827338	 0.8614764748	 0.110038
H	-2.0084011355	-0.4400778733	-0.8550964345	 0.10601
H	-1.2797491061	-1.7725384009	 0.0571354541	 0.111916
H	-1.99134822	-0.3967599592	 0.913997304	 0.107619
H	 0.7636962067	-1.5000931186	-1.2784312413	 0.088702
H	-0.000588387	-0.1725373097	-2.1334111009	 0.084379
H	 2.2909085814	-0.0738113461	-2.653613081	 0.089972
H	 2.0073367636	 1.286729772	-1.5925387693	 0.091894
H	 3.1965411197	-1.3944243027	-0.7008085983	 0.093326
H	 4.1453855081	 0.0109752792	-1.1640021144	 0.087573
H	 4.0813205761	-0.0625581705	 1.224055298	 0.095851
H	 3.1721154962	 1.3302742806	 0.6970655318	 0.106495
H	 2.2656622731	-0.4887339987	 2.599617976	 0.08059
H	 0.0400701639	-0.6334848253	 2.086647804	 0.073287
46.458	165.0016	221.6884	255.2833	266.8702	278.8547	307.0265	332.5586	384.5575	399.1084	416.6919	487.6372	548.2803	642.4568	702.4511	755.2978	797.0269	848.7919	871.1633	898.557	937.2857	939.6736	964.6584	984.8104	1009.4938	1022.8216	1053.0701	1079.9167	1111.022	1138.0598	1177.8189	1222.9042	1227.9918	1256.2598	1283.1389	1315.7786	1327.7159	1375.2372	1379.2893	1388.8965	1393.1495	1400.4078	1414.8234	1440.947	1473.2541	1476.0475	1482.6753	1485.7688	1491.1828	1495.578	1502.6187	1512.2376	1724.4771	2987.43	3005.1526	3012.921	3018.0575	3023.3681	3028.4895	3043.4227	3049.1624	3052.6888	3060.2474	3090.6432	3095.1262	3098.2771	3111.6764	3113.1995	3139.796
CC1(C)CCCCC=C1	CC1(C)CCCCC=C1	
InChI=1S/C9H16/c1-9(2)7-5-3-4-6-8-9/h5,7H,3-4,6,8H2,1-2H3	InChI=1S/C9H16/c1-9(2)7-5-3-4-6-8-9/h5,7H,3-4,6,8H2,1-2H3
