18
gdb 77245	2.45034	1.14738	0.98713	2.576	70.6	-0.2395	0.0107	0.2502	1266.2169	0.144057	-476.18714	-476.177045	-476.1761	-476.222365	36.117	
C	-0.0134644514	 1.4230518323	 0.4450059289	-0.445404
C	 0.127717967	-0.0428554632	 0.1203609083	 0.28506
O	-1.0476778563	-0.7053408532	-0.2678587097	-0.455076
C	 1.4257304649	-0.5726110603	-0.4744292287	 0.020691
O	 2.5112039642	 0.2804095678	-0.647859465	-0.426131
C	 1.0264823125	-0.9525641569	 0.9310510597	-0.010774
O	 1.8770966953	-0.4143840756	 1.9107692693	-0.203432
C	 1.3382374918	-0.1931272443	 3.1363170529	 0.130525
N	 2.0610596814	 0.2800016139	 4.052408812	-0.435324
H	 0.9462378271	 1.8625744485	 0.7200505269	 0.141923
H	-0.3850742038	 1.9643302219	-0.4326579228	 0.117066
H	-0.7256819634	 1.5743550952	 1.2622442134	 0.121479
H	-1.2743307138	-0.4079794103	-1.1569017988	 0.285972
H	 1.3385739118	-1.3421378633	-1.2385940941	 0.105199
H	 3.0157342049	 0.2808102839	 0.1755355758	 0.307657
H	 0.6765658867	-1.9622961759	 1.1283200206	 0.11933
H	 0.2788678011	-0.4704250275	 3.195979152	 0.10591
H	 1.5192471503	 0.382910447	 4.9078416992	 0.235329
66.2014	107.4447	113.9886	154.5298	179.8175	236.4555	264.5298	302.4751	321.7551	360.1842	397.4476	474.1529	506.9833	589.1225	684.0877	738.6506	824.722	867.9515	886.149	971.8843	1023.1972	1035.9457	1049.1337	1076.829	1110.6195	1168.0219	1181.5098	1227.8179	1280.7959	1301.2516	1324.0832	1334.0337	1376.3521	1412.0924	1414.0413	1446.9223	1482.6607	1503.7126	1747.7519	3036.1958	3052.0337	3096.1474	3129.5882	3145.1738	3147.2971	3522.4155	3774.4558	3784.9621
CC1(O)C(O)C1OC=N	C[C@@]1(O)[C@@H](O)[C@H]1O[CH][NH]	
InChI=1S/C5H9NO3/c1-5(8)3(7)4(5)9-2-6/h2-4,6-8H,1H3	InChI=1S/C5H9NO3/c1-5(8)3(7)4(5)9-2-6/h2-4,6-8H,1H3/t3-,4+,5+/m0/s1
