19
gdb 31546	3.1874	1.14752	0.85896	1.5753	81.56	-0.1867	0.0406	0.2273	1377.5863	0.158719	-419.25945	-419.249662	-419.248718	-419.294101	34.753	
C	 0.0937533042	 1.3605369335	 0.1303931271	-0.3183
N	-0.0517992127	-0.0674515905	-0.1001518495	-0.388274
C	 0.6176012985	-0.6299457754	-1.148922089	 0.477595
N	 1.171801823	-0.0339299641	-2.1584626139	-0.403208
C	 1.6394059216	-1.0906075072	-2.9541928287	 0.178759
C	 2.3481589943	-0.8197995259	-4.2378397933	-0.494083
C	 1.3445163077	-2.2712623458	-2.3627992622	 0.245011
C	 1.5633602083	-3.7050035345	-2.6706624307	-0.496762
O	 0.6726136667	-1.9804817432	-1.1744447129	-0.240278
H	 1.1109811194	 1.6476766059	 0.4306971081	 0.122549
H	-0.1456146049	 1.89385855	-0.7915191321	 0.160152
H	-0.6095859154	 1.6652704796	 0.908449905	 0.123019
H	-0.1011792305	-0.6546320448	 0.7182838818	 0.249868
H	 3.24281874	-0.2105077331	-4.068074374	 0.132977
H	 2.6536652532	-1.7461290768	-4.7310562188	 0.116761
H	 1.7060780781	-0.2604680551	-4.9272966138	 0.133701
H	 2.1572526283	-4.2040034446	-1.8950205147	 0.131694
H	 0.6175424724	-4.2531923512	-2.760288306	 0.133449
H	 2.0990027778	-3.8022989367	-3.6179006025	 0.13537
96.2136	127.5374	130.3764	154.6928	178.6127	210.9045	221.7097	254.744	341.841	370.2143	480.3754	523.9376	635.4992	649.142	684.1918	752.7978	803.4787	964.7488	986.2099	1018.1572	1063.2141	1067.6815	1116.0623	1148.2825	1158.7907	1182.4127	1237.9474	1309.1486	1344.208	1417.9021	1423.6769	1454.3496	1469.4614	1473.5134	1483.8226	1492.3493	1493.2276	1509.1876	1541.2001	1669.1485	1712.6588	3009.0753	3019.8726	3032.7562	3064.5252	3084.628	3098.3004	3117.4368	3124.2717	3142.2105	3622.7209
CNC1=NC(C)=C(C)O1	CNc1nc(C)c(C)o1	
InChI=1S/C6H10N2O/c1-4-5(2)9-6(7-3)8-4/h1-3H3,(H,7,8)	InChI=1S/C6H10N2O/c1-4-5(2)9-6(7-3)8-4/h1-3H3,(H,7,8)
