14
gdb 127279	7.31842	0.84152	0.76678	5.9527	67.41	-0.2569	-0.0197	0.2371	1400.1153	0.100687	-470.017994	-470.009816	-470.008872	-470.051803	27.905	
C	 0.0721702186	 1.4298910215	 0.0199649409	-0.331529
N	-0.052541756	-0.0124275197	-0.0661347336	 0.086026
C	 0.0145254707	-0.8092177449	-1.1612394598	-0.209016
C	-0.1880926491	-2.0671702638	-0.6441941879	 0.397035
O	-0.2546143982	-3.22854359	-1.3492979737	-0.224066
C	 0.1786537507	-4.3799131557	-0.738270764	 0.160125
O	 0.0768614423	-5.4336989694	-1.279849802	-0.254669
N	-0.3649836916	-1.9891362791	 0.6930237594	-0.265027
N	-0.2739960721	-0.7315690235	 1.0449625525	-0.138237
H	 1.049940959	 1.7520262446	-0.3472810452	 0.154478
H	-0.7137299363	 1.9176344499	-0.5624796441	 0.155708
H	-0.0312225826	 1.6972559813	 1.0712520115	 0.177201
H	 0.1867072179	-0.4445209153	-2.1582916975	 0.160307
H	 0.6073723467	-4.1913300459	 0.2563660235	 0.131664
60.3815	97.8804	120.4422	152.1708	212.494	320.2576	400.0884	450.9947	518.8397	670.0372	706.1665	720.7339	776.7003	852.6078	1035.6638	1043.2429	1055.6028	1067.8218	1094.7255	1152.5415	1182.0432	1282.1826	1310.1844	1392.937	1414.0334	1443.5264	1484.1235	1490.5083	1516.3894	1598.785	1878.827	3051.2116	3054.786	3123.4334	3168.4475	3295.7621
CN1C=C(OC=O)N=N1	Cn1cc(OC=O)nn1	
InChI=1S/C4H5N3O2/c1-7-2-4(5-6-7)9-3-8/h2-3H,1H3	InChI=1S/C4H5N3O2/c1-7-2-4(5-6-7)9-3-8/h2-3H,1H3
