15
gdb 87949	3.82239	1.15888	1.05417	5.942	62.03	-0.2753	0.0401	0.3154	1125.2259	0.112149	-494.924534	-494.91673	-494.915786	-494.95743	28.801	
O	-0.0576271206	 1.3330778494	-0.1949077889	-0.416526
C	-0.0343896721	-0.0543856988	-0.0664291295	 0.023528
C	-0.440888104	-0.699710329	 1.2521783789	-0.39678
C	-1.3686102756	-0.7117477066	 0.0792527949	 0.385586
C	-2.6818033061	 0.0458153386	-0.0108837304	-0.171409
O	-3.4127840364	-0.7016402439	-0.9901855064	-0.242253
C	-2.7797780515	-1.868122969	-1.2646035941	 0.488288
O	-3.1938966031	-2.7176814622	-1.9841633686	-0.368895
O	-1.5947568854	-1.934127428	-0.5933899212	-0.270481
H	 0.6899270053	 1.6978875405	 0.2905804816	 0.298515
H	 0.705728053	-0.5823300276	-0.6663906869	 0.115966
H	 0.0368320766	-1.6341270878	 1.5249736936	 0.142031
H	-0.6962197024	-0.0433023754	 2.0786292566	 0.12874
H	-3.243816803	 0.0422860989	 0.9289883743	 0.127407
H	-2.5485904048	 1.0713974807	-0.358283914	 0.156282
56.7288	142.5245	200.954	222.6319	286.3293	358.3124	446.992	478.0394	529.4798	574.8635	730.2806	770.2399	817.7877	839.2321	893.7278	924.6205	963.7298	1000.362	1038.7214	1087.6092	1094.9385	1109.0299	1144.4845	1177.2824	1217.0127	1254.3933	1290.3603	1344.7509	1400.5413	1417.6732	1494.714	1528.3122	1932.0645	3049.3649	3119.5329	3126.1201	3129.8464	3227.2557	3806.6858
OC1CC11COC(=O)O1	O[C@H]1C[C@]21COC(=O)O2	
InChI=1S/C5H6O4/c6-3-1-5(3)2-8-4(7)9-5/h3,6H,1-2H2	InChI=1S/C5H6O4/c6-3-1-5(3)2-8-4(7)9-5/h3,6H,1-2H2/t3-,5+/m0/s1
