15
gdb 77364	3.02289	1.2749	0.95339	1.5437	61.76	-0.2729	-0.0456	0.2273	1153.5827	0.111731	-494.944069	-494.935765	-494.934821	-494.97785	29.366	
O	 0.5596194938	 0.9490146497	 0.6565018643	-0.433517
C	 0.1682102641	-0.2280733513	 0.0123353963	-0.016253
C	-1.3550859826	-0.449628695	-0.0457838899	-0.134198
C	-1.4961042678	-1.2744557335	-1.3342464141	-0.104682
O	-0.3993182352	-0.8678385094	-2.1884605211	-0.214349
C	 0.5329289123	-0.2132340693	-1.4739475919	 0.419569
O	 1.4960171587	 0.3278861891	-1.9394784158	-0.351843
C	-1.9174456437	-1.1160464335	 1.1892165968	 0.129661
O	-2.3810230752	-2.22818353	 1.2049548723	-0.237489
H	 1.3180054816	 1.2883168524	 0.1584984954	 0.302811
H	 0.6543097743	-1.1134581333	 0.459650885	 0.115462
H	-1.8140764316	 0.541672995	-0.1484911279	 0.122899
H	-1.4188039528	-2.3452709611	-1.13041215	 0.14872
H	-2.4215405626	-1.08173647	-1.8773949386	 0.143168
H	-1.8572245933	-0.4997576998	 2.111139949	 0.11004
60.6876	81.517	169.7795	198.5852	258.3649	303.8432	361.2249	385.4767	520.1078	551.2397	651.2153	696.3107	730.7124	854.289	886.1591	954.1974	1023.3453	1043.2161	1098.2968	1105.7186	1142.1384	1201.4756	1216.7207	1246.9794	1268.7919	1340.6786	1367.8351	1396.3094	1416.6385	1426.5666	1521.8716	1822.6476	1875.7433	2914.9839	2949.3554	3045.4643	3082.5793	3139.8611	3733.4931
OC1C(COC1=O)C=O	O[C@H]1[C@@H](COC1=O)C=O	
InChI=1S/C5H6O4/c6-1-3-2-9-5(8)4(3)7/h1,3-4,7H,2H2	InChI=1S/C5H6O4/c6-1-3-2-9-5(8)4(3)7/h1,3-4,7H,2H2/t3-,4+/m1/s1
