19
gdb 106288	3.49335	1.25767	1.17414	2.3248	75.45	-0.2365	0.0003	0.2367	1132.1983	0.157991	-422.982919	-422.974461	-422.973517	-423.015694	33.268	
C	 0.1046095978	 1.4385630644	 0.2586337477	-0.509417
C	 0.011079408	-0.0383001525	 0.0018010869	 0.367642
C	 0.626217408	-0.7707502712	-1.2371615728	-0.311396
C	 0.571141087	-1.9069616423	-0.1736923598	 0.346896
C	 1.4795899851	-3.1035055522	-0.0993390397	-0.180908
O	 1.3421868141	-3.7576484645	 1.150046002	-0.419556
O	 0.8875780086	-0.8817993385	 0.8392837847	-0.364657
C	-0.9535150282	-2.0598584776	 0.0290226742	-0.118308
C	-1.335369255	-0.7887713721	 0.1429086671	-0.125676
H	 1.1310347052	 1.791569774	 0.1297243979	 0.129474
H	-0.5415504873	 1.9864574835	-0.4347764248	 0.124706
H	-0.2147788784	 1.6706434065	 1.279595041	 0.133838
H	 0.0231869564	-0.8694581663	-2.1416954292	 0.097397
H	 1.6468739689	-0.442150064	-1.453214627	 0.101254
H	 1.2104123896	-3.8310325618	-0.8731157709	 0.110454
H	 2.5178038554	-2.7858885387	-0.2807274061	 0.095011
H	 1.4159738733	-3.0722079193	 1.8249270572	 0.296613
H	-1.5120824953	-2.9835550191	 0.0584817917	 0.117907
H	-2.3106641535	-0.3461368784	 0.2875460198	 0.108726
81.7098	147.4151	190.8919	238.2798	280.6381	347.3374	390.4655	419.4155	485.4833	545.0097	604.0377	623.428	671.1396	707.0467	748.6711	808.8535	833.8755	868.2539	898.0413	910.918	1003.7413	1021.9879	1030.2949	1044.7038	1063.6021	1120.7412	1136.252	1179.9781	1186.6572	1236.8264	1238.5633	1328.7197	1348.0432	1377.4967	1415.5941	1441.1565	1478.8918	1487.0898	1493.593	1497.0327	1624.4399	2989.9841	3040.4461	3056.2224	3070.261	3109.7691	3121.167	3131.1142	3225.9662	3256.4947	3792.45
CC12CC(CO)(O1)C=C2	C[C@@]12C[C@@](CO)(O1)C=C2	
InChI=1S/C7H10O2/c1-6-2-3-7(4-6,5-8)9-6/h2-3,8H,4-5H2,1H3	InChI=1S/C7H10O2/c1-6-2-3-7(4-6,5-8)9-6/h2-3,8H,4-5H2,1H3/t6-,7+/m1/s1
