14
gdb 21945	7.22144	1.06118	0.97696	3.5617	60.05	-0.2718	-0.0376	0.2342	1127.9914	0.106676	-415.832124	-415.824528	-415.823584	-415.865066	26.24	
O	-0.0795755681	 1.4590370267	-0.0790832708	-0.41565
C	 0.0552548936	 0.0507745951	-0.1088556952	-0.071144
C	-1.3421428772	-0.5276776587	 0.141674834	-0.298192
C	-1.3585673296	-2.0155115992	 0.1435758994	 0.402745
C	-1.6715692906	-2.949696684	 1.0838238036	-0.210338
N	-1.4919424901	-4.1833487477	 0.5063973071	-0.106422
N	-1.1020027909	-4.068835072	-0.680529147	-0.010154
O	-0.9982956117	-2.6598725472	-0.9681233315	-0.218638
H	 0.7814422475	 1.8499881975	-0.2537182569	 0.293285
H	 0.429148872	-0.3058456805	-1.0792990527	 0.113845
H	 0.7473509423	-0.3099881119	 0.667808489	 0.099839
H	-1.7147756066	-0.1632250163	 1.1027780822	 0.134726
H	-2.0158062534	-0.149086598	-0.635211194	 0.145423
H	-2.0050425773	-2.8346204238	 2.1006716128	 0.140675
56.0024	89.8401	122.4136	247.8816	307.6755	349.1196	371.3195	626.7698	676.4708	703.7841	775.3759	802.6451	826.3961	988.728	1004.2409	1049.5431	1065.4474	1088.9842	1126.1259	1213.8272	1238.9209	1247.9489	1303.6446	1330.3656	1379.1903	1458.3771	1460.5598	1482.8952	1530.7878	1610.3954	2981.5806	3020.6232	3052.454	3107.919	3292.4331	3834.5889
OCCC1=CN=NO1	OCCc1cnno1	
InChI=1S/C4H6N2O2/c7-2-1-4-3-5-6-8-4/h3,7H,1-2H2	InChI=1S/C4H6N2O2/c7-2-1-4-3-5-6-8-4/h3,7H,1-2H2
