20
gdb 37738	3.27774	1.91121	1.45937	1.5059	82.06	-0.2025	0.0858	0.2884	942.1647	0.174358	-365.924608	-365.918141	-365.917197	-365.954963	28.041	
C	-0.0814017279	 1.6071548063	 0.0009022913	-0.356159
C	 1.4343181463	 1.2598643289	 0.0148303817	-0.080091
C	 1.1982292277	-0.0017399326	 0.8853528352	-0.018783
N	 1.9508198728	-0.9244099147	-0.0256931786	-0.142263
C	 1.308924931	-2.2647255888	-0.0244027766	-0.158522
C	-0.1562311646	-2.3085967935	-0.5367039197	-0.204599
C	-1.011997719	-1.0960423827	-0.0787900207	-0.347441
C	-0.0582179232	 0.0650792692	-0.0421938381	 0.346675
C	 1.2387479906	 0.0470731171	-0.9338917579	-0.043626
H	-0.4825302983	 2.0712785307	 0.9077498558	 0.094987
H	-0.4588696972	 2.1233124129	-0.8877660917	 0.09417
H	 2.2982305904	 1.922964312	 0.049633441	 0.07868
H	 1.2227136139	-0.0941080555	 1.974216212	 0.069404
H	 1.9171507665	-2.9392041905	-0.6375350409	 0.099525
H	 1.3690666961	-2.6417905482	 1.0049626982	 0.098095
H	-0.1320084436	-2.3035858774	-1.6325126975	 0.104321
H	-0.621818069	-3.2551080485	-0.2437500015	 0.094176
H	-1.8449005192	-0.9393136311	-0.7740525788	 0.099266
H	-1.4510588695	-1.2628051261	 0.9128021975	 0.098679
H	 1.3164466962	 0.0246324827	-2.0228229709	 0.073505
204.122	237.9532	353.2489	391.4396	424.0737	482.4749	583.9162	686.2517	747.1738	759.4932	826.2781	837.2455	853.5846	869.4277	882.772	903.8462	916.9443	923.4087	1004.2906	1010.716	1033.8895	1053.4208	1065.0531	1077.4388	1112.8619	1149.2082	1155.4401	1170.303	1179.807	1196.9288	1228.2199	1239.8853	1250.1897	1287.5425	1296.5783	1334.1858	1358.2663	1374.5696	1380.84	1482.8816	1491.1566	1501.8797	1514.1429	3020.1455	3022.0139	3032.1523	3037.607	3058.8069	3059.7582	3079.572	3082.8321	3091.7542	3093.167	3123.176
C1C2C3N4CCCC13C24	C1[C@H]2[C@@H]3N4CCC[C@@]13[C@@H]24	
InChI=1S/C8H11N/c1-2-8-4-5-6(8)9(3-1)7(5)8/h5-7H,1-4H2	InChI=1S/C8H11N/c1-2-8-4-5-6(8)9(3-1)7(5)8/h5-7H,1-4H2/t5-,6-,7+,8+
