18
gdb 32799	3.32225	1.02328	0.80204	2.0144	76.78	-0.1874	0.0148	0.2022	1425.0989	0.148877	-435.290115	-435.281059	-435.280115	-435.324579	32.887	
C	-0.1641026242	 1.4684619945	-0.0886709545	-0.389378
C	 0.296757349	 0.0147543396	-0.0924436559	-0.118368
N	 0.5116348549	-0.4581566852	 1.2738434776	-0.405358
C	 0.7333564044	-1.805948645	 1.4879793764	 0.329774
C	 1.5051843103	-2.3948244143	 2.4454119098	 0.15659
N	 2.32636198	-1.8633661346	 3.431183865	-0.607202
O	 1.325603151	-3.7770641235	 2.3098630992	-0.16945
C	 0.4865580272	-3.8986115873	 1.2733982695	 0.076006
N	 0.0918182555	-2.7852904251	 0.7405784554	-0.321451
H	 0.5911090051	 2.1244988007	 0.360294995	 0.109883
H	-0.3388773859	 1.8179498902	-1.1105092458	 0.116767
H	-1.0899459334	 1.5798949825	 0.4828927059	 0.127321
H	-0.4646293582	-0.6272546076	-0.5414991821	 0.139526
H	 1.2033583428	-0.0902245758	-0.7122864703	 0.086815
H	 1.1669227803	 0.106820605	 1.7997791107	 0.233801
H	 1.9828778547	-2.0135763454	 4.3749826289	 0.246732
H	 3.2839869607	-2.1956941141	 3.3811529293	 0.245977
H	 0.2184781459	-4.8999580547	 0.9717353558	 0.142014
60.7161	74.929	132.0462	221.778	249.7857	280.9291	290.0697	339.8936	352.285	508.2468	628.3416	648.4619	693.072	747.8711	760.0453	800.3103	831.6659	836.5173	921.3383	956.5384	1028.2555	1080.7336	1140.0676	1152.9693	1195.8116	1212.3733	1233.2267	1298.3054	1323.6707	1380.9105	1413.8193	1434.4618	1483.2637	1497.6849	1501.3008	1523.0072	1556.1515	1656.1083	1731.7411	2956.9347	3032.3059	3089.3635	3110.7443	3119.9703	3260.2004	3486.6626	3551.0716	3563.6856
CCNC1=C(N)OC=N1	CCNc1c(N)ocn1	
InChI=1S/C5H9N3O/c1-2-7-5-4(6)9-3-8-5/h3,7H,2,6H2,1H3	InChI=1S/C5H9N3O/c1-2-7-5-4(6)9-3-8-5/h3,7H,2,6H2,1H3
