16
gdb 39252	2.9238	2.01467	1.44768	1.2189	68.33	-0.2414	0.01	0.2515	890.1394	0.127139	-437.88972	-437.883218	-437.882274	-437.9206	25.845	
C	-0.0620552889	 1.4297634463	 0.0308377656	-0.372753
C	 1.3296876104	 0.8315308932	 0.004418107	-0.102662
C	 2.0594751256	 0.4900938351	 1.2853567578	-0.1042
O	 1.1903700718	-0.3777436008	 2.047700984	-0.258544
C	 0.1288794929	-0.8223672331	 1.2819462483	 0.179636
O	 0.2440825522	-2.1946920042	 0.780975551	-0.250947
C	-0.0356219264	-2.1105937072	-0.5442569663	 0.09053
N	-0.1854558335	-0.9686058771	-1.092292226	-0.324549
C	 0.0969890118	-0.0509032812	-0.0242206381	 0.298669
H	-0.4427744751	 1.8648192676	 0.9515223838	 0.122054
H	-0.382210579	 1.9298908646	-0.8763762291	 0.13446
H	 1.9096282172	 0.9479068708	-0.9023922815	 0.113349
H	 2.9991813513	-0.0289473125	 1.0602185878	 0.117063
H	 2.2834466485	 1.3480883774	 1.9282556658	 0.116548
H	-0.7662844647	-0.8139483813	 1.9132331157	 0.10034
H	-0.1062549642	-3.0641694576	-1.0551668559	 0.141003
125.4731	193.6204	288.0578	371.3524	423.3492	544.1773	571.5087	624.4654	728.0006	810.3253	829.3109	878.6486	890.7534	919.4948	943.1506	946.7966	957.4742	986.2415	1043.1695	1065.7117	1078.6905	1101.6829	1126.2462	1164.2117	1227.1345	1237.4447	1287.0422	1336.9785	1341.8581	1382.0224	1396.6769	1417.2663	1484.9842	1520.1158	1660.1504	3028.1353	3054.3013	3071.1768	3118.9406	3197.1401	3216.7578	3217.3232
C1C2COC3OC=NC123	C1[C@H]2CO[C@@H]3O[CH][N][C@]123	
InChI=1S/C6H7NO2/c1-4-2-8-5-6(1,4)7-3-9-5/h3-5H,1-2H2	InChI=1S/C6H7NO2/c1-4-2-8-5-6(1,4)7-3-9-5/h3-5H,1-2H2/t4-,5+,6+/m0/s1
