13
gdb 49362	1.89752	1.81944	1.39173	6.4645	65.31	-0.2767	-0.0766	0.2001	972.5664	0.087039	-452.740512	-452.732095	-452.73115	-452.774208	28.626	
O	 0.1833623071	 0.1450878103	 0.7495744092	-0.228633
C	 0.1554729948	 1.0786776812	-0.0083537396	 0.153523
C	 1.2632519524	 2.0888481714	-0.1167289186	-0.128977
C	 1.5828439925	 2.9511628304	 1.1151412232	-0.173389
C	 0.8156025891	 2.793770065	 2.3303567366	 0.339787
N	 0.1795829209	 2.745750726	 3.2935088542	-0.317513
N	 2.4713398922	 1.9270643861	 0.6433545297	-0.078748
C	 2.8879430888	 0.800285812	 1.375445132	 0.173485
O	 3.214912035	 0.8500225662	 2.5274881371	-0.26706
H	-0.6999467071	 1.2620266087	-0.6899725307	 0.114736
H	 1.3605673127	 2.5728488164	-1.0872317143	 0.135012
H	 1.9060240132	 3.9731135863	 0.9323732754	 0.161452
H	 2.9748524685	-0.0889727201	 0.7311770758	 0.116324
82.2821	107.6249	114.8245	150.2512	238.841	266.4718	310.8317	381.6801	518.6203	553.107	630.1717	761.4001	809.4886	872.5318	899.8688	983.4139	1022.0365	1041.8064	1073.4235	1084.3298	1128.5348	1343.9825	1353.7544	1405.3379	1410.3853	1426.5923	1813.9119	1830.7105	2366.248	2931.7413	3014.0054	3130.3342	3147.2385
O=CC1C(C#N)N1C=O	O=C[C@H]1[C@@H](C#N)N1C=O	
InChI=1S/C5H4N2O2/c6-1-4-5(2-8)7(4)3-9/h2-5H	InChI=1S/C5H4N2O2/c6-1-4-5(2-8)7(4)3-9/h2-5H/t4-,5+,7?/m1/s1
