13
gdb 9574	4.42661	1.32741	1.2691	2.4732	64.66	-0.2901	-0.0142	0.2759	953.0072	0.095903	-357.648493	-357.640789	-357.639845	-357.680486	27.748	
N	-0.0299282548	 1.4504414698	 0.0387369234	-0.542861
C	 0.0099020547	 0.0191825767	 0.0180224298	 0.150316
C	-0.4483912727	-0.6806148412	 1.2769335817	-0.293207
C	-1.3465261805	-0.7070210024	 0.0621816351	-0.204358
C	-2.5511316227	 0.0729673665	 0.0178201137	 0.3101
N	-3.5379723919	 0.6724795875	-0.038850447	-0.324068
C	 1.0373365987	-0.6265616166	-0.7778350234	 0.241358
N	 1.8728069459	-1.0999908258	-1.4230857251	-0.329347
H	 0.8255686346	 1.8324575382	 0.4284940492	 0.254667
H	-0.152479688	 1.8333468424	-0.893220306	 0.258324
H	 0.030000551	-1.6106973342	 1.5567173891	 0.154644
H	-0.7333839829	-0.0217418168	 2.0872252421	 0.162677
H	-1.3983377913	-1.6417119741	-0.4850819826	 0.161753
108.7099	130.2371	188.0349	242.9545	283.9476	357.1509	381.5951	496.4667	549.9886	576.0668	612.7419	711.8484	798.9072	815.9512	873.2161	936.943	1006.8998	1063.639	1095.2104	1131.7016	1218.2271	1272.864	1315.6243	1389.4568	1466.8806	1662.9854	2344.1279	2363.7334	3159.4125	3181.0666	3261.325	3508.5151	3590.1759
NC1(CC1C#N)C#N	N[C@]1(C[C@H]1C#N)C#N	
InChI=1S/C5H5N3/c6-2-4-1-5(4,8)3-7/h4H,1,8H2	InChI=1S/C5H5N3/c6-2-4-1-5(4,8)3-7/h4H,1,8H2/t4-,5+/m0/s1
