19
gdb 69414	4.6568	0.90473	0.83005	1.9149	81.54	-0.245	0.0576	0.3026	1415.2257	0.156789	-385.827332	-385.818246	-385.817302	-385.861258	34.323	
C	 0.0630098757	 1.5350578204	-0.0797321651	-0.499933
C	-0.0997700096	 0.063788745	 0.116800015	 0.423205
C	-1.3978237791	-0.7616601309	 0.1790735974	-0.30597
C	-0.6464397736	-1.7939372271	 1.0964687004	 0.000907
C	-0.5171775862	-3.2399478299	 0.6008703605	-0.362018
C	-1.7983065861	-3.9333111172	 0.5434713189	 0.298135
C	-2.8699558461	-4.4771904631	 0.5065742476	-0.452806
C	 0.6089503328	-0.9147937699	 0.9624208439	-0.072935
O	 0.9006403138	-0.8101663047	-0.4391165414	-0.287446
H	 1.1041522354	 1.8290009259	 0.077555897	 0.134252
H	-0.2232804782	 1.8245124684	-1.0972790473	 0.132255
H	-0.5706674392	 2.0923082848	 0.6177785808	 0.1247
H	-2.2152244216	-0.2562966408	 0.6984115598	 0.106806
H	-1.7542375759	-1.1361216572	-0.783593901	 0.113252
H	-1.0458086121	-1.7736512021	 2.1140600333	 0.086748
H	-0.0546870572	-3.2230973192	-0.3928356174	 0.146476
H	 0.1697231723	-3.791267967	 1.2568620903	 0.125421
H	-3.8087068662	-4.9713316075	 0.4673295507	 0.19287
H	 1.4416690113	-0.7987333981	 1.6484957065	 0.096082
64.3169	100.09	152.1011	198.4906	229.2366	312.6364	349.2773	362.1513	410.3801	500.4909	546.5648	615.456	632.9612	657.9437	724.207	817.4075	847.2489	885.7777	909.907	942.4284	962.6653	996.5195	1015.4344	1053.5926	1064.5213	1118.6156	1156.2361	1203.9079	1214.1769	1240.7592	1262.1254	1267.5362	1325.2251	1366.5437	1404.36	1455.4212	1473.4706	1479.5975	1485.9787	1497.4458	2236.7825	3019.7311	3033.9554	3060.7327	3067.3674	3079.9637	3095.9102	3121.0805	3124.909	3171.6249	3507.0462
CC12CC(CC#C)C1O2	C[C@]12C[C@@H](CC#C)[C@H]1O2	
InChI=1S/C8H10O/c1-3-4-6-5-8(2)7(6)9-8/h1,6-7H,4-5H2,2H3	InChI=1S/C8H10O/c1-3-4-6-5-8(2)7(6)9-8/h1,6-7H,4-5H2,2H3/t6-,7-,8+/m1/s1
