19
gdb 63139	2.41249	2.03303	1.60534	0.9811	74.18	-0.2307	0.0121	0.2427	925.5296	0.159862	-423.016689	-423.008965	-423.008021	-423.048084	31.754	
C	-0.0857665378	 1.5282970108	 0.0550984456	-0.472412
C	 0.0109837231	 0.0045591274	 0.0202389453	 0.425813
O	-1.269057893	-0.5519311203	-0.2144739527	-0.486482
C	 1.0257811088	-0.6181488914	-0.9900801111	-0.133629
C	 2.344342289	-0.0369054647	-0.4093966577	-0.086262
O	 2.1201294785	-0.0255801811	 1.010179652	-0.277485
C	 0.8061636508	-0.6204115083	 1.2104975601	-0.004668
C	 0.887582695	-2.0740159429	 0.7922078025	-0.068041
C	 1.0113229114	-2.0695027532	-0.5385884485	-0.072858
H	 0.8538490751	 2.0008030664	 0.3418299411	 0.142843
H	-0.4027917485	 1.9120511773	-0.9196514036	 0.122996
H	-0.839958258	 1.8327050481	 0.7922025182	 0.103756
H	-1.8889478459	-0.1264113343	 0.3865010505	 0.274759
H	 0.8522521888	-0.4162392686	-2.0466579637	 0.071908
H	 3.2125078842	-0.6604205158	-0.6510864021	 0.100315
H	 2.5382131222	 0.9854504112	-0.7547530561	 0.097923
H	 0.4875379656	-0.3876072791	 2.2265413605	 0.064789
H	 0.9244182278	-2.9204571138	 1.4647536123	 0.098724
H	 1.1748077627	-2.9155286578	-1.1938074527	 0.098013
190.3744	225.33	242.3576	266.4875	319.7655	370.5821	385.0263	436.1795	521.484	546.3837	623.8511	715.077	746.435	779.0179	856.1015	886.9437	900.3865	935.7608	953.217	958.7373	963.3521	973.3864	1003.9183	1058.0769	1096.5186	1124.8451	1153.1425	1183.6259	1206.2107	1222.3669	1264.8468	1279.6212	1290.3189	1344.6057	1356.2813	1390.6516	1403.054	1486.0765	1501.1406	1527.3992	1640.509	3022.1375	3026.1735	3060.7458	3090.8279	3121.1798	3124.6658	3149.2584	3203.9285	3229.9351	3813.1139
CC1(O)C2COC1C=C2	C[C@@]1(O)[C@H]2CO[C@@H]1C=C2	
InChI=1S/C7H10O2/c1-7(8)5-2-3-6(7)9-4-5/h2-3,5-6,8H,4H2,1H3	InChI=1S/C7H10O2/c1-7(8)5-2-3-6(7)9-4-5/h2-3,5-6,8H,4H2,1H3/t5-,6-,7-/m1/s1
