20
gdb 107412	2.87758	1.22977	1.03032	1.9864	75.79	-0.2031	0.0611	0.2642	1237.4086	0.170125	-440.254093	-440.245012	-440.244067	-440.287977	33.756	
C	-0.1276199959	 1.4598841341	 0.1736771647	-0.311196
N	-0.0767431248	 0.0174230987	 0.1933597375	-0.064373
C	-1.351474766	-0.6606939708	-0.0337745566	-0.186637
C	-1.1249726013	-2.0497293759	 0.5199571858	-0.024111
O	 0.1104774718	-2.6533401348	 0.108266686	-0.299781
C	 0.057868859	-2.0025879786	 1.3850886813	 0.421933
C	 0.2870521778	-2.8903635219	 2.5773315166	-0.191637
O	-0.274663398	-2.2538089764	 3.7168242246	-0.41863
C	 0.5733766612	-0.5758047634	 1.3615846049	-0.232903
H	 0.884632648	 1.8696289848	 0.2579864643	 0.118211
H	-0.5487052432	 1.804437323	-0.777040161	 0.11775
H	-0.7374848721	 1.8932007195	 0.9912510342	 0.08806
H	-2.1974504112	-0.2082865227	 0.5210365703	 0.082941
H	-1.6090948119	-0.6480496814	-1.1002231895	 0.109503
H	-1.9584625644	-2.7284657231	 0.6774546525	 0.095787
H	-0.1761102832	-3.8673354974	 2.3763322684	 0.101347
H	 1.3686054651	-3.0567192801	 2.7049687187	 0.095849
H	-0.0021890892	-2.743340208	 4.4981783215	 0.293072
H	 1.6651501	-0.5143204086	 1.2645978994	 0.102471
H	 0.2888723083	-0.0998374769	 2.3171023464	 0.102345
71.8304	103.3367	184.0908	223.9173	238.6906	262.7531	309.1784	315.4486	379.3845	414.5915	496.4057	571.6158	664.7341	740.2858	867.9235	896.5992	902.7617	956.6201	982.4602	1029.583	1060.1511	1077.3125	1079.517	1105.7386	1153.7814	1189.8781	1197.1746	1210.1376	1224.0985	1246.4479	1262.5248	1294.02	1314.4965	1372.102	1384.1655	1442.801	1460.2116	1485.2251	1496.0753	1498.1021	1506.7439	1517.6525	1520.3907	2905.6861	2912.1639	2950.7632	2975.6022	3016.3379	3030.6996	3036.9818	3050.6957	3094.5587	3157.1992	3834.3939
CN1CC2OC2(CO)C1	CN1C[C@H]2O[C@@]2(CO)C1	
InChI=1S/C6H11NO2/c1-7-2-5-6(3-7,4-8)9-5/h5,8H,2-4H2,1H3	InChI=1S/C6H11NO2/c1-7-2-5-6(3-7,4-8)9-5/h5,8H,2-4H2,1H3/t5-,6-/m1/s1
