21
gdb 92648	2.95784	1.45868	1.16867	1.7437	78.29	-0.2523	0.0819	0.3342	1127.4828	0.184671	-424.221364	-424.213381	-424.212437	-424.253675	31.573	
C	-0.053550984	 1.6068448113	-0.0248292143	-0.410445
C	 0.0864330196	 0.0944882754	 0.0173902036	 0.030223
C	 1.0941225822	-0.6194785225	-0.9299657505	-0.258719
C	 1.3878799134	-1.6260670866	 0.2164606753	-0.015541
C	 2.8084876556	-2.0889935437	 0.5010518269	-0.121024
O	 3.6201691136	-1.0135690144	 0.9611547822	-0.229029
C	 3.0152258038	-0.369842848	 2.0480448027	 0.018024
O	 1.8370996035	 0.3018045961	 1.6877084242	-0.254563
C	 0.8179592707	-0.5723295556	 1.2137122312	 0.087601
H	 0.9127791241	 2.0887860752	 0.1410181833	 0.132238
H	-0.4392003773	 1.9296822337	-0.9980357838	 0.109513
H	-0.7460143413	 1.9666197451	 0.7441954529	 0.111726
H	-0.896200076	-0.3818628232	-0.0814163916	 0.070813
H	 0.7132534128	-1.0224303709	-1.8711849063	 0.092342
H	 1.9644316118	 0.0101034531	-1.1332864324	 0.117466
H	 0.7182118535	-2.4896069253	 0.1558804848	 0.075135
H	 2.7985813988	-2.8888436188	 1.2613903446	 0.088173
H	 3.2934210802	-2.4828096123	-0.3975827432	 0.111456
H	 2.8084603498	-1.1030294872	 2.8519029969	 0.070857
H	 3.7135893928	 0.3905610545	 2.4032272246	 0.115756
H	 0.2167559526	-0.932365866	 2.0599964989	 0.057997
110.7024	167.3927	199.7596	224.4114	320.7875	339.2392	407.2241	439.3382	515.0024	559.4206	641.319	736.14	776.8975	846.0413	881.5886	898.591	938.4515	952.2838	966.8897	1017.7237	1027.1496	1057.7223	1114.7777	1135.8733	1136.542	1160.6706	1181.8491	1200.7626	1239.2286	1250.417	1274.0564	1285.8203	1292.7125	1334.5462	1350.3645	1361.8439	1382.3467	1402.2998	1410.722	1445.3598	1486.0917	1488.7106	1491.459	1503.3751	1509.5008	2914.6201	2959.1047	3000.7934	3031.7583	3039.0738	3062.8309	3063.0705	3077.2471	3092.5731	3111.2627	3119.2787	3126.3432
CC1CC2COCOC12	C[C@H]1C[C@H]2COCO[C@@H]12	
InChI=1S/C7H12O2/c1-5-2-6-3-8-4-9-7(5)6/h5-7H,2-4H2,1H3	InChI=1S/C7H12O2/c1-5-2-6-3-8-4-9-7(5)6/h5-7H,2-4H2,1H3/t5-,6-,7-/m0/s1
