21
gdb 48986	3.04129	1.40021	1.2343	2.8764	81.64	-0.2452	-0.0177	0.2275	1096.8762	0.185462	-387.129918	-387.122202	-387.121257	-387.162146	30.931	
O	-0.0794344151	 0.0056011326	-0.0576517646	-0.256158
C	 0.0386770424	 1.2024936502	 0.0329529115	 0.065718
C	 1.3359626997	 1.9542360915	 0.0264545668	 0.252014
C	 1.4709812574	 2.9637505342	 1.1992309123	-0.25902
C	 2.5518450163	 3.9676554216	 0.6831983676	-0.211948
C	 2.8930555067	 3.4262164753	-0.7217846573	-0.003271
C	 3.6884726307	 2.1089677625	-0.571108689	-0.219693
C	 2.6178282034	 1.0997974181	-0.045081616	-0.247373
C	 1.5191702284	 2.9069483124	-1.193377787	-0.26049
H	-0.8623795503	 1.8566428362	 0.1210888685	 0.064403
H	 0.5176615194	 3.4692146459	 1.3885445199	 0.099249
H	 1.7609462278	 2.4612063967	 2.1258991873	 0.107397
H	 2.1474024161	 4.9825222357	 0.6243234342	 0.098424
H	 3.4300483855	 4.0054879019	 1.3340185568	 0.09922
H	 3.3715329017	 4.1603988931	-1.3733495519	 0.060346
H	 4.090133061	 1.7859226337	-1.5362951133	 0.098633
H	 4.537039318	 2.2194859354	 0.1103236911	 0.095543
H	 2.8731288858	 0.6766984583	 0.9300918516	 0.100981
H	 2.4724522099	 0.2601935195	-0.7286674855	 0.115662
H	 1.5559402871	 2.369947974	-2.1459369127	 0.104371
H	 0.7517161181	 3.6852964713	-1.2506966303	 0.095993
80.1594	149.1875	214.1054	282.8858	356.1171	398.7077	424.5625	466.32	550.7042	706.7256	761.067	785.9456	802.0541	821.7616	862.8232	901.0884	926.3473	954.6549	963.0958	967.1626	984.1596	1011.8639	1048.9816	1054.6504	1104.85	1133.0091	1163.0766	1179.6838	1227.4753	1241.1573	1259.1092	1262.1835	1278.1612	1303.0883	1317.3015	1331.4077	1340.7359	1360.6989	1429.4248	1485.0855	1492.3191	1498.2963	1501.5106	1526.7565	1820.8641	2839.2932	3039.2898	3048.4427	3049.5569	3054.3101	3067.1771	3081.7097	3086.2886	3093.1971	3100.1306	3104.1119	3113.6498
O=CC12CCC(CC1)C2	O=C[C@@]12CC[C@@H](CC1)C2	
InChI=1S/C8H12O/c9-6-8-3-1-7(5-8)2-4-8/h6-7H,1-5H2	InChI=1S/C8H12O/c9-6-8-3-1-7(5-8)2-4-8/h6-7H,1-5H2/t7-,8-
