23
gdb 104146	2.46149	1.15058	1.0138	1.9466	88.3	-0.2297	0.0204	0.2501	1345.7794	0.205056	-388.31307	-388.303116	-388.302172	-388.347443	38.019	
C	 0.029958019	 1.4946694706	-0.0336910806	-0.490042
C	 0.0346717099	-0.0013304311	-0.0482927561	 0.321426
C	-0.3459570725	-0.8055760901	-1.0433730823	-0.225541
C	-0.1689604713	-2.2822892237	-0.7352175201	 0.266488
C	-1.4016769634	-3.1170570448	-1.1113377044	-0.43832
C	 1.0709207047	-2.834918497	-1.4779004601	-0.092248
O	 0.9823191708	-2.7225869144	-2.8901796038	-0.425479
C	 0.1026411574	-2.2546453677	 0.7982669167	-0.267293
C	 0.5289325863	-0.8058420273	 1.1376345241	-0.301923
H	 1.0398225452	 1.8922818018	 0.1316098209	 0.124876
H	-0.3487677854	 1.9092494423	-0.9719295781	 0.121768
H	-0.5905642358	 1.8801751315	 0.7854643526	 0.125654
H	-0.7373011433	-0.4575770778	-1.9955426824	 0.08063
H	-1.5218618642	-3.1546165667	-2.1978110486	 0.12487
H	-1.298380367	-4.1475533038	-0.7515586072	 0.10766
H	-2.3118951868	-2.6954590364	-0.6733533662	 0.106628
H	 1.976401238	-2.3354109213	-1.0991427276	 0.080346
H	 1.1744494509	-3.906870718	-1.2724947406	 0.102969
H	 1.0031715246	-1.7840831361	-3.1038134548	 0.281862
H	-0.822726246	-2.4998699238	 1.3289745004	 0.099796
H	 0.84798343	-2.9979448598	 1.1002295814	 0.09304
H	 1.618511717	-0.7040628601	 1.2433110396	 0.103195
H	 0.103142842	-0.4539061163	 2.0853431772	 0.09964
81.2744	130.4936	141.9319	189.3508	234.9907	252.0913	283.2917	323.6596	336.4616	376.1496	392.5119	446.4758	526.7906	576.0578	638.753	769.1276	833.0407	873.4072	887.0355	905.0559	940.9838	953.5845	994.7618	997.9339	1026.0315	1051.7797	1069.9699	1128.3208	1137.0055	1158.7324	1215.9281	1229.2766	1242.2199	1271.1429	1301.8629	1329.7685	1363.3239	1382.5757	1403.6808	1412.6239	1419.5226	1479.4226	1481.9211	1488.3096	1489.885	1499.2786	1502.7435	1505.9194	1719.9361	2978.4899	3005.472	3016.0707	3028.0089	3038.1848	3047.5944	3059.0817	3060.6893	3084.477	3094.0958	3109.3861	3114.988	3164.037	3812.111
CC1=CC(C)(CO)CC1	CC1=C[C@@](C)(CO)CC1	
InChI=1S/C8H14O/c1-7-3-4-8(2,5-7)6-9/h5,9H,3-4,6H2,1-2H3	InChI=1S/C8H14O/c1-7-3-4-8(2,5-7)6-9/h5,9H,3-4,6H2,1-2H3/t8-/m0/s1
