19
gdb 7160	5.97173	0.79309	0.73726	3.9757	72.34	-0.275	0.0325	0.3075	1494.9201	0.163948	-365.080363	-365.070625	-365.069681	-365.115478	33.845	
C	-0.0285357405	 1.6151244346	-0.0612644561	-0.401409
C	 0.0199446132	 0.0828866249	 0.0011217593	 0.015408
C	 0.7874558621	-0.4470664316	 1.2227607513	-0.170967
C	 2.2665683899	-0.0762625129	 1.2489361586	-0.089864
O	 2.8481377448	-0.7524859653	 2.3529411064	-0.419034
C	-1.4086378348	-0.5170307103	 0.0117783133	-0.345334
C	-2.1803913474	-0.1874809706	-1.1844853915	 0.263082
N	-2.7732946261	 0.0801874276	-2.1398896189	-0.3139
H	 0.972065911	 2.0426239076	-0.16523562	 0.123168
H	-0.623529793	 1.9553295771	-0.9136867982	 0.1434
H	-0.4762838654	 2.0288786109	 0.8503049413	 0.117829
H	 0.517263561	-0.2853912255	-0.9059796412	 0.095658
H	 0.3177156495	-0.0844636623	 2.1464239651	 0.106446
H	 0.7266074257	-1.5418510691	 1.2511837845	 0.108173
H	 2.7402785927	-0.3783174767	 0.2997919881	 0.087837
H	 2.3908789965	 1.0127210931	 1.3440531062	 0.092088
H	 3.7739160516	-0.4987091904	 2.4087650934	 0.288108
H	-1.358186621	-1.6082943091	 0.0978628992	 0.149896
H	-1.9583285399	-0.1568869221	 0.8903716793	 0.149417
60.5483	77.939	113.7192	115.9569	207.6063	238.3176	264.5616	308.7466	363.7462	396.8857	404.0655	456.032	591.5742	793.7586	845.0411	891.3942	919.5437	969.0857	984.296	1031.964	1065.6885	1115.0327	1130.9064	1173.1613	1220.5193	1243.4293	1261.9118	1297.0032	1317.2592	1344.2248	1374.2638	1379.4492	1420.8931	1462.5233	1463.7738	1488.5434	1499.014	1507.1748	1529.4212	2359.4652	2961.6773	3000.7916	3017.1404	3023.9425	3033.1347	3039.2287	3066.8524	3079.3205	3103.6375	3118.7339	3831.9568
CC(CCO)CC#N	C[C@@H](CCO)CC#N	
InChI=1S/C6H11NO/c1-6(2-4-7)3-5-8/h6,8H,2-3,5H2,1H3	InChI=1S/C6H11NO/c1-6(2-4-7)3-5-8/h6,8H,2-3,5H2,1H3/t6-/m1/s1
