23
gdb 75484	2.44802	1.4672	1.10192	0.3065	92.07	-0.2131	0.0302	0.2433	1231.6934	0.20677	-351.176571	-351.16766	-351.166716	-351.209376	35.728	
C	 0.1118798058	 1.4916913543	 0.0854392254	-0.487256
C	 0.001903077	-0.0056115249	-0.0168289415	 0.35139
C	-0.0528699371	-0.6478819598	-1.1885772949	-0.173051
C	-0.1595548694	-2.1475018202	-1.2961991081	-0.281774
C	-0.8819048924	-2.7730915622	-0.0888354975	-0.258639
C	-0.4543580069	-2.2143757184	 1.2597378678	 0.34267
C	-1.2724137809	-2.7198642718	 2.4313153357	-0.462204
C	 0.9880026009	-1.8693938165	 1.5157809302	-0.331295
C	-0.0285100938	-0.7576323161	 1.2692761936	-0.150694
H	 1.0193205926	 1.7867430806	 0.6279746088	 0.122836
H	 0.1356418437	 1.9625813017	-0.9009893691	 0.117064
H	-0.734030445	 1.9138023096	 0.6437796261	 0.120088
H	 0.0008663988	-0.0801973083	-2.1142811227	 0.072557
H	-0.6927097496	-2.4219826518	-2.2138921734	 0.097889
H	 0.8412322288	-2.5905978271	-1.4030506841	 0.107166
H	-1.9596926487	-2.5890134922	-0.1942242605	 0.09709
H	-0.7521351856	-3.8625343021	-0.1020169177	 0.091742
H	-1.163710661	-3.8047947914	 2.5503040298	 0.113095
H	-0.9595974389	-2.2505145345	 3.3694591136	 0.110167
H	-2.3387928912	-2.507518794	 2.2898229737	 0.113831
H	 1.3668990104	-1.9942756208	 2.5251732328	 0.103644
H	 1.7253108876	-2.0419761997	 0.7396846801	 0.113294
H	-0.3085763654	-0.1726954843	 2.1415321421	 0.070391
129.4958	168.5641	199.5265	233.0408	266.6148	284.3609	332.2123	372.6069	381.8781	455.82	488.2847	575.7082	629.6706	697.3991	775.3161	823.7653	848.9684	889.2194	901.1003	937.495	948.7856	998.7398	1020.9053	1043.4821	1055.6845	1060.0959	1074.4216	1083.7776	1115.0584	1129.8237	1175.5049	1211.5539	1246.5768	1262.7008	1321.6522	1338.3436	1367.3446	1389.1415	1411.8138	1416.0966	1431.6297	1478.3275	1480.1911	1483.6648	1490.6572	1492.3595	1498.2046	1509.8585	1728.2441	2995.7023	3009.9186	3012.6954	3019.3132	3045.5916	3051.6711	3058.3265	3077.8877	3095.7072	3108.8713	3127.1185	3136.2039	3152.4565	3214.2132
CC1=CCCC2(C)CC12	CC1=CCC[C@@]2(C)C[C@@H]12	
InChI=1S/C9H14/c1-7-4-3-5-9(2)6-8(7)9/h4,8H,3,5-6H2,1-2H3	InChI=1S/C9H14/c1-7-4-3-5-9(2)6-8(7)9/h4,8H,3,5-6H2,1-2H3/t8-,9-/m0/s1
