19
gdb 116286	1.91196	1.52288	0.94773	1.2652	71.85	-0.2477	-0.0267	0.2209	1240.0849	0.158723	-460.162383	-460.153165	-460.15222	-460.197496	32.74	
O	-0.2025973995	 1.4693441342	 0.1485231002	-0.427498
C	-0.0362872141	 0.0638503027	 0.254417636	-0.110853
C	-1.4073648919	-0.5580054232	 0.0143002973	-0.002981
C	-1.9469619642	-0.3330830864	-1.4245675975	-0.08626
O	-2.1322374984	-1.6222514972	-2.001712872	-0.244191
C	-2.4442088385	-2.5021913016	-0.9396792939	-0.114525
C	-1.4683182731	-2.1111136822	 0.1850265272	-0.122685
C	-0.1265826371	-2.7790683579	-0.0440782052	 0.156011
O	 0.605883425	-3.1554273417	 0.8360762855	-0.263858
H	 0.6554125277	 1.8862436579	 0.2702383989	 0.290925
H	 0.6850697714	-0.3070025145	-0.4920186554	 0.094201
H	 0.3408484855	-0.2283486018	 1.2458198227	 0.109979
H	-2.0917385314	-0.1036736088	 0.7367731067	 0.09819
H	-2.8996401526	 0.2140854269	-1.3989825158	 0.099779
H	-1.250951482	 0.2244901409	-2.05620938	 0.120345
H	-3.4865387036	-2.38295085	-0.6019571649	 0.098317
H	-2.3150052292	-3.5264823046	-1.3029029702	 0.116652
H	-1.812294386	-2.3870501782	 1.1843352657	 0.097497
H	 0.146391892	-2.9085683747	-1.1162717653	 0.090955
45.0712	67.3939	126.076	180.1756	189.329	269.4424	296.9316	347.8905	394.238	440.1101	466.848	689.138	746.316	833.311	915.8647	939.5686	955.3918	964.7611	982.1924	1031.2584	1057.1943	1084.4391	1118.3276	1138.4522	1163.4628	1212.649	1229.5838	1245.6998	1260.046	1279.6228	1294.6391	1325.474	1346.9024	1372.4241	1394.3341	1426.3492	1461.8705	1508.4217	1517.1802	1527.0884	1823.5508	2875.95	2967.6579	2974.6535	3004.2953	3009.537	3064.0619	3081.2513	3095.5364	3097.8184	3831.6558
OCC1COCC1C=O	OC[C@H]1COC[C@H]1C=O	
InChI=1S/C6H10O3/c7-1-5-3-9-4-6(5)2-8/h1,5-6,8H,2-4H2	InChI=1S/C6H10O3/c7-1-5-3-9-4-6(5)2-8/h1,5-6,8H,2-4H2/t5-,6+/m1/s1
