17
gdb 113649	3.43035	0.87522	0.82002	0.9389	71.45	-0.2502	-0.0948	0.1554	1418.2972	0.133476	-458.960177	-458.950658	-458.949714	-458.995603	33.073	
O	-0.1769310672	 1.4202166853	-0.3482073322	-0.422532
C	 0.1050088148	 0.0631737123	-0.0262156051	-0.116753
C	-1.2203195575	-0.5934612872	 0.2684276619	 0.018469
C	-2.0524136581	-1.1776828802	-0.8136309307	-0.276651
C	-1.4113313816	-2.1162148001	 0.2060117358	-0.157269
C	-0.3296985263	-3.0138766653	-0.2391670567	 0.283945
O	 0.4463216009	-2.8165122768	-1.1541905352	-0.313152
C	-0.1820378057	-4.3408337043	 0.5241482804	 0.096467
O	-0.8871003251	-4.6794041189	 1.4373676087	-0.218342
H	 0.6538888179	 1.8482969538	-0.5749488383	 0.288608
H	 0.6066616111	-0.4558954732	-0.8512821255	 0.12172
H	 0.756009918	-0.005473518	 0.8603313092	 0.08739
H	-1.7549523124	-0.1314880636	 1.0936230403	 0.1104
H	-3.1305529305	-1.0747808125	-0.7760960264	 0.127785
H	-1.6197571294	-1.2130851745	-1.8080497228	 0.141619
H	-2.0442873985	-2.5449789745	 0.9728030772	 0.120608
H	 0.6532564996	-4.9585364522	 0.1318468194	 0.107687
43.3303	87.0824	125.5145	146.2095	180.0171	229.4234	235.3294	279.6355	395.3276	448.0526	524.6041	626.474	652.9408	762.3833	803.3983	875.8583	899.0575	953.6161	995.0043	1034.4076	1070.5176	1077.174	1118.1296	1143.7756	1156.0029	1181.0822	1220.416	1264.9018	1284.9431	1362.0231	1388.3019	1426.7841	1469.4492	1490.3603	1531.7966	1773.1866	1825.2874	2925.9719	2971.9102	3056.2301	3138.3531	3154.179	3198.2644	3232.4592	3830.0391
OCC1CC1C(=O)C=O	OC[C@H]1C[C@H]1C(=O)C=O	
InChI=1S/C6H8O3/c7-2-4-1-5(4)6(9)3-8/h3-5,7H,1-2H2	InChI=1S/C6H8O3/c7-2-4-1-5(4)6(9)3-8/h3-5,7H,1-2H2/t4-,5-/m1/s1
