17
gdb 52148	6.04409	0.7242	0.71442	1.0589	69.88	-0.2486	-0.0352	0.2134	1550.6559	0.133286	-458.878051	-458.869604	-458.86866	-458.912905	29.921	
O	-0.1256274148	 0.0277708191	 0.3915185876	-0.233844
C	 0.0217722959	 1.1499483794	-0.0111225789	 0.139731
C	 1.379244884	 1.7610547621	-0.3152746712	-0.156223
O	 1.169613614	 3.0238674954	-0.9055810944	-0.263765
C	 2.3374444777	 3.7653561279	-1.0923197158	 0.165157
C	 3.2088789683	 3.6101482497	-2.3826363092	 0.007381
C	 2.0569758129	 4.213781378	-3.2200164816	-0.223757
C	 2.2320163453	 5.0557814002	-1.9329442829	-0.000513
O	 3.7008130304	 4.9767918588	-2.106359902	-0.305922
H	-0.8287727814	 1.8440377763	-0.1894788768	 0.099269
H	 1.9441394919	 1.8441389399	 0.6284163069	 0.129694
H	 1.9416195197	 1.0795647693	-0.971694101	 0.130081
H	 2.9267561643	 3.8679340112	-0.1732005548	 0.089147
H	 3.949392924	 2.8561567248	-2.649246399	 0.097386
H	 2.3692440681	 4.71006599	-4.1391641132	 0.111744
H	 1.1404644302	 3.6320174716	-3.3237258833	 0.113377
H	 1.8052636594	 6.0211377065	-1.6624777005	 0.101059
46.7221	59.1889	90.1041	120.7444	298.1109	305.0516	370.4606	521.0729	565.7255	645.3424	740.1497	745.892	829.7703	873.7964	896.0192	927.8802	944.465	1015.7669	1033.4652	1056.8694	1091.2367	1112.2997	1116.6935	1133.6599	1175.3993	1185.709	1204.1098	1229.2703	1239.0291	1262.4865	1292.101	1336.3616	1382.4921	1413.071	1475.5417	1485.7017	1846.8735	2901.4421	2972.9223	3013.4571	3048.5837	3084.5138	3121.2823	3130.1382	3164.8561
O=CCOC1C2CC1O2	O=CCO[C@H]1[C@H]2C[C@@H]1O2	
InChI=1S/C6H8O3/c7-1-2-8-6-4-3-5(6)9-4/h1,4-6H,2-3H2	InChI=1S/C6H8O3/c7-1-2-8-6-4-3-5(6)9-4/h1,4-6H,2-3H2/t4-,5+,6+
