21
gdb 96469	2.22557	1.81243	1.28977	2.0312	77.71	-0.2482	0.0791	0.3273	1060.9407	0.185264	-424.213856	-424.20599	-424.205046	-424.245715	32.274	
O	 0.2510455954	 1.3047530993	-0.3108916462	-0.438609
C	 0.0236734587	-0.0728439215	-0.0589437821	 0.097299
C	 0.7417268167	-0.4670885713	 1.2470737379	-0.111024
O	 0.5560427913	 0.5186520909	 2.2543757906	-0.26155
C	-0.699704646	 0.5172558244	 2.9308971749	-0.064562
C	-1.8567980595	 1.0867672166	 2.0993024739	-0.240503
C	-2.3782969752	 0.1253048909	 1.0428647847	-0.011861
C	-2.5353145914	 0.5246080079	-0.4059823186	-0.31087
C	-1.4570563652	-0.4471749719	-0.0111947728	-0.024313
H	 0.4709294188	 1.6939717341	 0.5466705739	 0.288111
H	 0.4839753275	-0.6312165404	-0.8859919282	 0.076656
H	 0.4028455034	-1.4541799468	 1.5938478111	 0.094664
H	 1.8234336253	-0.5059029566	 1.0818457066	 0.110771
H	-0.9365166977	-0.5038802679	 3.2686640733	 0.091639
H	-0.5375048471	 1.1356368321	 3.8200239026	 0.106068
H	-2.6724879813	 1.3538363516	 2.7833797642	 0.097701
H	-1.5211904365	 2.0245408412	 1.6437395759	 0.107953
H	-3.1219915547	-0.5721283048	 1.4210096162	 0.079358
H	-3.3933226076	 0.1597145018	-0.960006132	 0.105362
H	-2.1975987498	 1.5171232132	-0.6823662827	 0.130142
H	-1.6266301952	-1.4919728029	-0.2609508933	 0.07757
138.8431	194.6637	236.0635	290.2092	327.4746	383.0495	389.269	462.5381	488.9636	514.9043	599.9925	722.2121	730.2701	785.1364	833.3258	860.9367	886.8535	941.4758	970.6491	989.1089	1003.0732	1046.974	1061.7806	1075.4168	1105.9769	1123.4079	1137.7553	1153.8229	1176.5008	1235.188	1245.5052	1257.2098	1295.0211	1323.6515	1351.3267	1379.0854	1383.5682	1400.2669	1410.8432	1420.6196	1436.6618	1474.6865	1484.6426	1489.5831	1496.6655	2985.5248	2999.5842	3009.6953	3026.534	3071.0781	3075.9303	3078.7523	3123.7065	3131.7705	3138.2176	3225.8381	3739.5375
OC1COCCC2CC12	O[C@H]1COCC[C@H]2C[C@@H]12	
InChI=1S/C7H12O2/c8-7-4-9-2-1-5-3-6(5)7/h5-8H,1-4H2	InChI=1S/C7H12O2/c8-7-4-9-2-1-5-3-6(5)7/h5-8H,1-4H2/t5-,6+,7-/m0/s1
