15
gdb 37507	3.92004	2.10244	1.83021	1.1983	65.17	-0.2411	-0.0167	0.2244	754.0956	0.116784	-416.743653	-416.738546	-416.737602	-416.772865	22.348	
O	-0.1026990683	 1.4509354913	-0.0454643895	-0.293436
C	 1.3279715265	 1.4892981818	 0.0299465138	 0.087342
C	 1.4256579286	 0.1711031964	 0.8008892855	-0.063921
C	 0.0550612177	 0.0070721417	 0.0144077736	 0.065518
C	 0.6713781295	-0.3380336704	-1.3723191828	-0.010732
N	 1.1915484603	-1.7210286326	-1.3363123791	-0.19757
C	 2.2044641964	-1.6493080362	-0.5701016566	 0.022949
N	 2.5427194985	-0.3295424422	-0.0886976159	-0.166544
C	 1.8987858709	 0.577723505	-1.1195915275	-0.056286
H	 1.7744073886	 2.4474509244	 0.280898433	 0.103999
H	 1.4919023462	 0.0245370681	 1.875539303	 0.097562
H	-0.8163442526	-0.5371776577	 0.3697393489	 0.099111
H	 0.0218186378	-0.1377529845	-2.2205660617	 0.093342
H	 2.7842458815	-2.5076388381	-0.2446536165	 0.130226
H	 2.5202128786	 0.9170370329	-1.9463786979	 0.088442
346.4405	391.6304	478.2681	559.2944	664.8455	719.5723	782.479	818.4868	828.9396	850.3204	874.5733	886.1456	910.9799	926.366	959.3032	966.2236	982.6115	992.9854	1020.9807	1053.5631	1063.0565	1124.3839	1146.5151	1173.2184	1192.6044	1215.1804	1243.6435	1249.8108	1273.3677	1290.5549	1314.6743	1329.5686	1660.8873	3136.6909	3153.4402	3156.5998	3162.4648	3170.5263	3191.1203
O1C2C3C1C1N=CN3C21	O1[C@H]2[C@H]3[C@@H]1[C@@H]1[N][CH]N3[C@H]21	
InChI=1S/C6H6N2O/c1-7-2-3-6-4(8(1)3)5(2)9-6/h1-6H	InChI=1S/C6H6N2O/c1-7-2-3-6-4(8(1)3)5(2)9-6/h1-6H/t2-,3+,4-,5+,6-/m1/s1
