18
gdb 53604	3.57259	0.84253	0.70993	3.1973	81.64	-0.2361	0.0352	0.2713	1592.8804	0.146297	-401.947533	-401.937613	-401.936669	-401.98458	33.813	
C	-0.0109652701	 1.4939177261	 0.0983685856	-0.497647
C	 0.0132541023	 0.0427984175	-0.0126104171	 0.093821
C	 0.0318226479	-1.1580753751	-0.0881525495	 0.059215
C	 0.0275687988	-2.6127399213	-0.1886718205	-0.374677
C	-1.3749128712	-3.2203513425	-0.043152902	-0.132676
C	-1.4639330667	-4.7762236654	 0.0094269056	-0.187938
N	-2.0259131676	-4.6326262087	 1.3530813077	-0.318156
C	-1.9719567422	-3.2587420664	 1.3935556843	 0.422071
O	-2.2731131067	-2.4552646309	 2.2328410591	-0.3523
H	 0.9386506499	 1.8788127688	 0.4863907155	 0.146296
H	-0.1877577636	 1.9680337874	-0.873511425	 0.14342
H	-0.8042186916	 1.8230195485	 0.7784604092	 0.154731
H	 0.4429001193	-2.9185823213	-1.1585818438	 0.127927
H	 0.6882180376	-3.0453087921	 0.5749328139	 0.130163
H	-2.0625715059	-2.7685964389	-0.7617715204	 0.111818
H	-2.1420033464	-5.2323959371	-0.7188005304	 0.112771
H	-0.4969142738	-5.2908680586	-0.0195561504	 0.110714
H	-2.3452822599	-5.3100570399	 2.0292902783	 0.250447
25.9595	46.1402	67.9004	113.9832	175.376	232.4282	249.9072	307.6597	381.1969	438.7439	476.3844	488.3209	708.0239	748.2171	781.6815	811.2346	885.1051	980.6843	995.9617	1051.8006	1054.9189	1065.5981	1120.1434	1161.4354	1163.625	1172.1044	1179.7246	1242.0184	1285.4577	1327.4027	1366.3526	1395.6791	1414.5729	1473.7751	1478.1732	1479.3071	1528.3264	1897.0873	2378.5907	3006.8653	3026.7855	3033.3126	3036.0613	3077.2114	3086.0399	3089.6747	3097.038	3612.8018
CC#CCC1CNC1=O	CC#CC[C@H]1CNC1=O	
InChI=1S/C7H9NO/c1-2-3-4-6-5-8-7(6)9/h6H,4-5H2,1H3,(H,8,9)	InChI=1S/C7H9NO/c1-2-3-4-6-5-8-7(6)9/h6H,4-5H2,1H3,(H,8,9)/t6-/m0/s1
