21
gdb 65478	3.07682	1.1156	1.00235	2.3331	78.21	-0.236	0.0596	0.2956	1282.5598	0.180829	-424.192739	-424.183424	-424.18248	-424.226894	36.596	
O	 0.1260699003	 1.36408956	 0.5549496564	-0.479795
C	-0.0122656297	 0.035122416	 0.1262239166	 0.443306
C	-1.4403034137	-0.4794341731	 0.1953887181	-0.347813
C	-2.3242831199	 0.0700918809	-0.9175689862	 0.41895
O	-2.1277473742	 1.4523779128	-1.17964978	-0.472075
C	-2.7147227276	-0.7843838158	-2.0942663873	-0.318633
C	-3.7417089331	-0.3963589089	-1.0464714929	-0.300116
C	 0.9182749432	-0.4442270048	-0.9694862176	-0.32941
C	 1.142626468	-0.8441448904	 0.4794306915	-0.319487
H	-0.59051149	 1.8545385847	 0.1290856158	 0.28017
H	-1.4578476217	-1.5735892492	 0.1565760396	 0.098621
H	-1.8497266981	-0.184090703	 1.1698267037	 0.112953
H	-1.4743496123	 1.5173171853	-1.8850022924	 0.29293
H	-2.7912116259	-0.2997741064	-3.0621090359	 0.113182
H	-2.366931852	-1.8111566528	-2.1290044418	 0.116081
H	-4.0972825672	-1.1576653598	-0.3603334359	 0.116281
H	-4.4760285314	 0.3503695322	-1.3244553959	 0.124928
H	 0.5745146865	-1.2009674395	-1.6673537271	 0.105836
H	 1.5984873417	 0.2898053712	-1.3866503894	 0.112768
H	 1.9637479686	-0.368051978	 1.002974989	 0.123214
H	 0.9497046684	-1.8711336312	 0.7703458719	 0.108108
47.3042	90.0794	173.1517	279.5729	293.3743	306.1525	316.8402	363.9524	403.5069	438.0336	456.728	520.8128	617.1708	732.7486	745.9316	772.9651	782.4044	882.4898	894.6497	909.0425	924.1125	935.6664	955.0988	977.1494	982.4998	1025.1413	1041.9103	1054.4509	1075.7969	1079.3523	1160.7619	1186.8353	1189.5656	1251.0676	1283.52	1294.2999	1329.7341	1339.5094	1376.9309	1432.8996	1453.1355	1453.9234	1469.6506	1496.369	1513.5247	3026.9017	3078.6159	3127.4258	3129.1335	3135.0475	3138.4171	3213.2976	3214.5166	3229.4256	3232.0964	3738.3834	3801.7708
OC1(CC2(O)CC2)CC1	OC1(CC2(O)CC2)CC1	
InChI=1S/C7H12O2/c8-6(1-2-6)5-7(9)3-4-7/h8-9H,1-5H2	InChI=1S/C7H12O2/c8-6(1-2-6)5-7(9)3-4-7/h8-9H,1-5H2
