15
gdb 10424	2.51056	2.10973	1.45758	5.0898	61.31	-0.2772	-0.0009	0.2763	888.1967	0.118521	-399.7825	-399.774611	-399.773667	-399.815192	28.031	
O	 0.0233369826	 1.3161279969	 0.2949523133	-0.408025
C	-0.0131120933	-0.048486828	-0.0348328339	-0.093569
C	-1.4597626281	-0.5355160309	-0.1647725356	 0.232053
C	-1.6997218989	-2.0635031772	-0.029305351	-0.340719
C	-2.4106606141	-1.6946359011	 1.2874769515	-0.066365
O	-2.1600859169	-0.2796695839	 1.0799877436	-0.313761
C	-2.1439893555	 0.1037924548	-1.297559376	 0.27788
N	-2.6842641525	 0.5674887298	-2.207463799	-0.330491
H	-0.5270158198	 1.4246246906	 1.0810709183	 0.299945
H	 0.5199760428	-0.1749562701	-0.9825378995	 0.130165
H	 0.4797029969	-0.6742552667	 0.7263762967	 0.093051
H	-2.3328993706	-2.4992983773	-0.8003865324	 0.143447
H	-0.7837944518	-2.6479669527	 0.0692291751	 0.128345
H	-3.4835034939	-1.9072453305	 1.322775964	 0.12803
H	-1.938591717	-2.0561895735	 2.2064755049	 0.120014
73.1087	105.3971	168.9423	195.0193	242.0469	372.8166	430.0908	468.6458	538.1055	572.7949	692.5415	786.047	853.3621	885.6793	963.1039	991.8142	1006.0679	1050.8566	1092.5398	1156.7956	1160.475	1195.514	1219.7393	1262.6182	1277.1216	1347.3783	1385.9116	1424.5778	1490.4332	1492.7112	1530.1161	2356.7191	2979.4357	3044.3379	3085.7397	3090.8727	3095.5468	3159.1639	3780.4199
OCC1(CCO1)C#N	OC[C@]1(CCO1)C#N	
InChI=1S/C5H7NO2/c6-3-5(4-7)1-2-8-5/h7H,1-2,4H2	InChI=1S/C5H7NO2/c6-3-5(4-7)1-2-8-5/h7H,1-2,4H2/t5-/m0/s1
