18
gdb 107446	2.79289	1.48441	1.36435	0.8192	70.02	-0.231	0.0625	0.2935	1019.4425	0.148577	-439.034831	-439.027185	-439.026241	-439.067121	30.013	
O	-0.0446573496	 1.396533329	 0.3592602517	-0.419886
C	-0.0208147187	 0.0613964161	-0.1214535533	-0.157932
C	-1.3812611286	-0.5833852648	-0.0289145745	 0.265654
C	-1.9259986787	-1.4853706597	-1.0762186361	-0.289322
N	-2.4102458457	-0.0987472521	-0.9929185272	-0.158342
C	-3.6793856798	 0.1055156949	-0.2530262691	-0.202377
C	-3.4348394263	-0.2493367534	 1.2057244292	 0.038214
O	-3.0991056584	-1.6260839351	 1.4247404465	-0.255329
C	-2.032947105	-0.6698151645	 1.3354307321	-0.013965
H	-0.6812887516	 1.867364421	-0.1911107151	 0.289606
H	 0.3351260082	 0.010788775	-1.1604017699	 0.097133
H	 0.7004393678	-0.4753912784	 0.5049461106	 0.112208
H	-1.33455183	-1.699153415	-1.9632995924	 0.111725
H	-2.5798918333	-2.2850358544	-0.7446372578	 0.136743
H	-3.9543566493	 1.1636433399	-0.3322333762	 0.112087
H	-4.4882390295	-0.4839313614	-0.6970031342	 0.123329
H	-4.0040786783	 0.2288199093	 2.0002850799	 0.10284
H	-1.4379995834	-0.5291990166	 2.2324942259	 0.107614
69.3657	142.7346	245.3013	303.9382	320.1345	407.1018	449.4761	457.7303	583.4973	603.5111	724.1536	754.1426	795.4325	818.8921	868.554	898.1369	942.7952	959.3748	972.3152	985.5046	1047.3488	1065.5689	1079.2885	1109.6701	1138.9478	1157.3161	1197.1454	1232.4639	1250.5206	1273.0063	1314.2901	1344.2916	1356.3137	1400.0145	1421.4201	1433.8153	1483.4764	1495.5594	1501.9107	3003.1523	3038.9146	3071.0079	3083.4542	3108.4556	3135.5181	3169.5521	3207.1021	3796.0678
OCC12CN1CC1OC21	OC[C@]12CN1C[C@H]1O[C@@H]21	
InChI=1S/C6H9NO2/c8-3-6-2-7(6)1-4-5(6)9-4/h4-5,8H,1-3H2	InChI=1S/C6H9NO2/c8-3-6-2-7(6)1-4-5(6)9-4/h4-5,8H,1-3H2/t4-,5-,6+,7?/m1/s1
