21
gdb 108047	3.6023	1.38142	1.23401	0.8975	81.72	-0.2348	0.0881	0.3229	1100.0615	0.183495	-387.042973	-387.035123	-387.034179	-387.075072	31.579	
C	 0.0308924987	 1.4167208728	-0.0133659763	-0.264581
O	-0.0007760078	 0.0042175787	-0.0225368054	-0.294839
C	 0.6319925319	-0.5607101819	-1.1291001994	 0.459912
C	-0.0545527011	-0.4370022962	-2.517258423	-0.294149
C	 0.3119383341	-1.914983364	-2.8173505124	-0.035481
C	 1.8012392864	-2.1119208573	-3.196578755	-0.223773
C	 2.206851276	-1.9645642553	-1.7084974236	-0.035483
C	 2.1821841491	-0.4955328667	-1.2083534613	-0.294149
C	 0.6940716725	-2.1135637	-1.3046164908	-0.121626
H	 1.0600991096	 1.8045279251	 0.0109862395	 0.108682
H	-0.4784449479	 1.8448694437	-0.8894472941	 0.108682
H	-0.4889703816	 1.7449460798	 0.8896109505	 0.125454
H	-1.1345323725	-0.3314252268	-2.3745820814	 0.103673
H	 0.2962873182	 0.3304770111	-3.2150807814	 0.085495
H	-0.42940751	-2.511052069	-3.3495293197	 0.065652
H	 1.9779686423	-3.1343137022	-3.5443085909	 0.098583
H	 2.2425585897	-1.4166419701	-3.9196598718	 0.086548
H	 3.0099272503	-2.6010462173	-1.3369253295	 0.065652
H	 2.6485673601	 0.268931423	-1.838551013	 0.085496
H	 2.5901609274	-0.4289040782	-0.1949553127	 0.103674
H	 0.2708341145	-2.8378437993	-0.6137340181	 0.066578
96.448	176.3833	192.4427	280.2175	305.519	368.7853	415.8086	423.6168	607.1441	610.1564	706.7443	794.7046	822.7055	847.2464	865.3338	909.13	915.4899	937.49	937.5952	987.3979	1022.5344	1048.4226	1054.8957	1096.848	1116.8241	1126.0054	1146.736	1177.0988	1182.402	1184.1653	1197.323	1227.9339	1233.3554	1245.7041	1253.8105	1287.0854	1301.5192	1307.7378	1343.413	1470.7707	1473.4923	1483.5016	1490.4435	1493.8621	1508.2444	2982.9135	3029.3973	3032.9774	3036.4095	3039.6713	3085.4047	3092.5405	3094.6776	3101.6493	3105.4026	3116.2162	3153.2774
COC12CC3CC(C1)C23	CO[C@@]12C[C@H]3C[C@@H](C1)[C@@H]23	
InChI=1S/C8H12O/c1-9-8-3-5-2-6(4-8)7(5)8/h5-7H,2-4H2,1H3	InChI=1S/C8H12O/c1-9-8-3-5-2-6(4-8)7(5)8/h5-7H,2-4H2,1H3/t5-,6+,7+,8+
