17
gdb 108108	3.67323	1.40991	1.38095	1.9715	65.72	-0.2296	0.0808	0.3104	989.0258	0.136752	-458.926707	-458.919575	-458.918631	-458.958433	27.968	
C	-0.2646881363	 1.3021157023	-0.0536264128	-0.257749
O	 0.2667570472	-0.0096870692	 0.0589014384	-0.290058
C	 0.8279139039	-0.4887525797	-1.1017974164	 0.33594
C	 2.1328838629	 0.0040239383	-1.7273295142	-0.317276
C	 2.0988623207	-1.049250783	-2.853727617	 0.152243
O	 1.9789612456	-2.2830703801	-2.1506974374	-0.250598
C	 0.8087817785	-1.9730004051	-1.4172029998	-0.025413
C	 0.0274913025	-1.0155623288	-2.2985975678	-0.040223
O	 0.8216586611	-0.8507165528	-3.459610545	-0.248666
H	 0.521892956	 2.0435484437	-0.2481262216	 0.116976
H	-1.012212807	 1.3643953982	-0.8559533337	 0.114887
H	-0.7398768506	 1.5317438261	 0.9022140834	 0.132074
H	 2.0840865633	 1.0219208752	-2.1192706267	 0.112886
H	 2.9957545063	-0.1196594941	-1.0701582958	 0.120018
H	 2.887730821	-1.0916743666	-3.5993484387	 0.103568
H	 0.4118070502	-2.7561509178	-0.7890492824	 0.123652
H	-1.0423713752	-0.9873546466	-2.4410418325	 0.117739
91.6969	166.389	181.7505	351.9868	372.3414	458.2278	548.8401	592.9654	621.1893	715.3238	740.0378	823.1361	852.7733	874.899	927.0962	932.3231	984.0221	1002.6795	1014.3243	1041.8172	1046.3258	1064.0684	1081.832	1150.3561	1173.5562	1179.9384	1206.8369	1217.6307	1248.0322	1295.0552	1302.8511	1343.0442	1410.5006	1473.2699	1485.6418	1492.9185	1506.6132	2999.6913	3055.0508	3077.8092	3127.4012	3138.9544	3177.8573	3234.9929	3243.3078
COC12CC3OC1C2O3	CO[C@@]12C[C@H]3O[C@@H]1[C@@H]2O3	
InChI=1S/C6H8O3/c1-7-6-2-3-8-4(6)5(6)9-3/h3-5H,2H2,1H3	InChI=1S/C6H8O3/c1-7-6-2-3-8-4(6)5(6)9-3/h3-5H,2H2,1H3/t3-,4+,5-,6-
