19
gdb 36611	5.49535	0.7577	0.72713	1.8487	82.14	-0.2496	0.0555	0.3051	1575.4382	0.157391	-385.822927	-385.813942	-385.812997	-385.857335	33.555	
C	-0.0023426798	-1.2449762345	 0.1943702058	-0.438381
C	 0.00418166	-0.042997353	 0.1854894263	 0.294298
C	 0.0476615365	 1.4128555927	 0.163078579	-0.353639
C	 1.4306528617	 1.9633737485	-0.2590301501	-0.319771
C	 1.4482201668	 3.4587786919	-0.2849761544	 0.44634
C	 0.8112262399	 4.4221711967	-1.3092512118	-0.292117
C	 1.9238469988	 5.4684732548	-0.9481350774	-0.236478
C	 2.4822145395	 4.4533992241	 0.0572162653	-0.055382
O	 1.4244954004	 4.1491313438	 0.9774386502	-0.294988
H	-0.0229849478	-2.3063297287	 0.2091725203	 0.193634
H	-0.721865522	 1.791888468	-0.5216937034	 0.132648
H	-0.2004656567	 1.8099423896	 1.1545333482	 0.150456
H	 2.1899995492	 1.6055106785	 0.4429521062	 0.122771
H	 1.6898570043	 1.5732104199	-1.2494443605	 0.114298
H	 0.8885474926	 4.0692029526	-2.3407451677	 0.106413
H	-0.2215244494	 4.7083690021	-1.0972054728	 0.109199
H	 2.5989276427	 5.6671671426	-1.7838356848	 0.106497
H	 1.5916306697	 6.4137896561	-0.5132001411	 0.112926
H	 3.4975771236	 4.3273092842	 0.4173471726	 0.101276
57.8373	79.1862	97.7631	187.5758	250.5447	312.7916	360.9451	395.0502	487.3266	496.3261	617.288	639.6967	710.1122	727.4539	766.2082	776.0287	874.3023	913.6411	921.4375	954.5853	974.9985	980.6509	1012.7547	1044.1598	1068.2712	1136.9636	1163.43	1211.8557	1217.8768	1227.8616	1255.1816	1280.9702	1292.7848	1325.1773	1371.091	1450.2187	1463.8442	1471.1922	1484.2535	1493.9462	2239.6362	3024.694	3046.6725	3060.8727	3062.5821	3070.7333	3097.6349	3113.9278	3130.701	3178.3013	3507.4757
C#CCCC12CCC1O2	C#CCC[C@]12CC[C@H]1O2	
InChI=1S/C8H10O/c1-2-3-5-8-6-4-7(8)9-8/h1,7H,3-6H2	InChI=1S/C8H10O/c1-2-3-5-8-6-4-7(8)9-8/h1,7H,3-6H2/t7-,8+/m1/s1
