14
gdb 10292	2.63286	1.76794	1.10826	1.8551	58.64	-0.2713	0.004	0.2753	1001.9421	0.106337	-415.899787	-415.891063	-415.890119	-415.933796	30.231	
N	 0.0281361791	 1.1640263378	 0.4423462264	-0.540049
C	-0.0244234623	 0.0380329608	-0.3079513644	 0.438555
O	 0.8590028466	-0.324369113	-1.0565394385	-0.357824
C	-1.3044173658	-0.8235590946	-0.1768778376	-0.288953
C	-0.9140779086	-2.3001329692	 0.1203716346	-0.063647
O	-2.0209052351	-3.1639411088	 0.0599473404	-0.415451
C	-2.258947085	-0.3388178089	 0.8147899581	 0.270661
N	-2.9893048714	 0.0385154685	 1.629066134	-0.333834
H	 0.8506012515	 1.7410114319	 0.3724435784	 0.272105
H	-0.7164718033	 1.4392117629	 1.0604250733	 0.28516
H	-1.7914239553	-0.8115902267	-1.1584372836	 0.166939
H	-0.2129145488	-2.6037347771	-0.6579606103	 0.154673
H	-0.397111259	-2.3487870278	 1.0889174136	 0.112436
H	-2.5785581827	-3.0057347757	 0.8296232955	 0.299228
38.1855	102.0836	151.8698	186.8425	227.2341	302.204	358.2323	370.6693	407.9292	508.6103	530.99	590.8	615.2143	716.5839	837.0851	916.3008	1033.5461	1051.5727	1091.4686	1113.3603	1185.8639	1240.1594	1328.4639	1351.2076	1393.4056	1405.7142	1506.8037	1621.2251	1805.9055	2343.6327	3011.5749	3065.1814	3135.2821	3596.2949	3728.9591	3806.2915
NC(=O)C(CO)C#N	NC(=O)[C@@H](CO)C#N	
InChI=1S/C4H6N2O2/c5-1-3(2-7)4(6)8/h3,7H,2H2,(H2,6,8)	InChI=1S/C4H6N2O2/c5-1-3(2-7)4(6)8/h3,7H,2H2,(H2,6,8)/t3-/m1/s1
