18
gdb 86494	2.43626	1.28407	0.9731	2.9481	74.05	-0.235	-0.0398	0.1952	1241.3878	0.144755	-439.069896	-439.060405	-439.059461	-439.105492	32.944	
C	-0.4386080593	 1.5407726574	 0.2102307527	-0.325917
N	-0.1839787953	 0.1183469513	 0.1361457012	-0.067431
C	-1.253557884	-0.8151997981	 0.5281408282	-0.221488
C	-0.1882483526	-1.7531058239	 1.1648002742	 0.084669
C	 0.7418265674	-0.4818228784	 1.1039660907	-0.212737
C	-0.4650028601	-2.2811959211	 2.5550602081	 0.089878
O	-1.3156974758	-1.8297934196	 3.2804764677	-0.25695
C	 0.2995269359	-2.8183806887	 0.2122234569	 0.125062
O	 0.4538990405	-3.9780596901	 0.5015093634	-0.257808
H	 0.4740728912	 2.0932399452	-0.0362293484	 0.126731
H	-1.204156251	 1.8143867205	-0.5229705664	 0.129349
H	-0.7837098788	 1.8678872519	 1.2082573406	 0.102619
H	-1.9234813636	-0.4373747363	 1.3138242935	 0.125797
H	-1.8459730178	-1.2148737719	-0.3020876778	 0.113865
H	 1.7668532075	-0.6289334981	 0.7451205525	 0.118428
H	 0.7684684655	 0.0276880248	 2.0803394124	 0.112885
H	 0.1948297031	-3.1089224704	 2.8800459429	 0.111377
H	 0.5146095172	-2.4377913247	-0.8107054523	 0.10167
38.7963	62.4437	83.1948	205.2837	221.6459	263.3541	275.3833	291.0064	354.407	394.8261	419.0468	650.5127	667.7298	772.2147	868.6294	880.7995	945.8952	966.9418	1006.8506	1042.0233	1100.3469	1116.7389	1135.9601	1158.2465	1192.6678	1238.6954	1249.894	1289.7022	1298.2991	1343.3627	1417.0781	1427.4394	1452.9676	1486.7802	1498.6077	1499.9675	1527.7438	1816.7776	1823.1642	2894.0939	2942.3178	2949.3747	2977.2871	3005.157	3053.9212	3063.0241	3065.2796	3104.2603
CN1CC(C1)(C=O)C=O	CN1CC(C1)(C=O)C=O	
InChI=1S/C6H9NO2/c1-7-2-6(3-7,4-8)5-9/h4-5H,2-3H2,1H3	InChI=1S/C6H9NO2/c1-7-2-6(3-7,4-8)5-9/h4-5H,2-3H2,1H3
