19
gdb 108132	2.99659	1.54072	1.39499	1.9688	73.79	-0.2448	0.0692	0.314	1005.5043	0.161198	-422.981537	-422.974248	-422.973304	-423.013361	29.546	
O	-0.057100437	 1.4611535152	 0.075264853	-0.417771
C	 0.0224401449	 0.0444629563	 0.0952638443	-0.193495
C	-1.3452222032	-0.5652589411	 0.0080990755	 0.467138
O	-2.1926822563	-0.2747080553	 1.1345425725	-0.347451
C	-3.0448721491	-1.3248147154	 0.5792802465	 0.066449
C	-3.6140749256	-0.6096955091	-0.6606924397	-0.207892
C	-2.2317653584	-0.4856407957	-1.3347670969	-0.119196
C	-1.8766992626	-1.9772255006	-1.5762801855	-0.250488
C	-1.7831488125	-2.0479493863	-0.043022183	-0.140135
H	-0.6733803685	 1.7104889742	 0.7735965134	 0.295476
H	 0.6272820991	-0.251369406	-0.7681288714	 0.112913
H	 0.5282357402	-0.3181354839	 1.0035657891	 0.095565
H	-3.7066130599	-1.7843558153	 1.3116215049	 0.081229
H	-4.3212667859	-1.2002399942	-1.2499095214	 0.09609
H	-4.0723023718	 0.3391099326	-0.375442555	 0.106726
H	-2.0737261357	 0.2823182858	-2.0885719766	 0.079139
H	-2.6132074118	-2.5938924476	-2.0990424413	 0.095439
H	-0.8929971219	-2.1160117134	-2.0333029327	 0.103536
H	-1.3080380541	-2.8446817903	 0.5273184142	 0.076728
79.9344	142.4767	274.3696	326.7912	408.7478	453.2775	474.3732	543.0219	626.4691	695.0086	732.708	799.2889	832.3933	875.2315	896.5496	916.3194	943.9612	957.5506	976.4914	988.0264	1017.6075	1031.0702	1058.5099	1083.8554	1096.5953	1105.2227	1140.2807	1178.6913	1215.3404	1226.1256	1232.8795	1249.8694	1284.8174	1303.0719	1318.4116	1341.9205	1382.9724	1439.0746	1481.8981	1494.6868	1505.7438	2987.1517	3052.998	3064.0721	3078.0695	3106.5841	3122.7632	3128.1559	3139.0283	3146.2595	3801.2255
OCC12OC3CC1CC23	OC[C@@]12O[C@H]3C[C@@H]1C[C@@H]23	
InChI=1S/C7H10O2/c8-3-7-4-1-5(7)6(2-4)9-7/h4-6,8H,1-3H2	InChI=1S/C7H10O2/c8-3-7-4-1-5(7)6(2-4)9-7/h4-6,8H,1-3H2/t4-,5+,6-,7+/m0/s1
