15
gdb 131229	2.94951	1.31371	1.04965	2.804	72.65	-0.219	0.0274	0.2464	1132.9131	0.112412	-416.781864	-416.77345	-416.772506	-416.815786	30.682	
O	 0.1127999223	 1.3448388923	 0.1795156521	-0.431043
C	 0.0707135662	 0.0108331431	-0.030270313	 0.453683
C	 0.0558131812	-0.7814465451	-1.1600773199	-0.378951
C	 0.0021434987	-2.0947198814	-0.6400216193	 0.021002
N	-0.0149041623	-2.1198155698	 0.6850875747	-0.274731
N	 0.0199659428	-0.8069897029	 1.0473583021	-0.008622
C	 0.071177314	-0.4291276016	 2.448874807	-0.307388
C	 1.4279877036	-0.2265291431	 2.9560355699	 0.330232
C	 2.5363824886	-0.052578824	 3.3832659778	-0.456785
H	 0.1287182622	 1.7924752689	-0.6718250785	 0.314857
H	 0.0736486565	-0.4604817506	-2.1887529365	 0.099533
H	-0.0311882086	-3.0240743997	-1.1902217477	 0.112406
H	-0.5161430949	 0.485522894	 2.5798042853	 0.157251
H	-0.4256366437	-1.2321301492	 2.9998956121	 0.164177
H	 3.5192410333	 0.094325989	 3.7577140938	 0.20438
33.4974	83.826	217.5267	249.0505	260.6587	310.6253	319.7432	438.7423	503.2172	619.8724	656.5202	670.122	680.0471	698.6845	737.5306	793.8771	881.7128	936.8097	948.4073	954.848	1062.9196	1104.8589	1185.3878	1248.87	1285.6801	1334.5368	1374.4856	1384.7852	1447.6394	1463.9872	1583.2127	1604.2307	2245.8093	3057.3513	3106.4621	3239.8975	3265.2485	3505.8574	3846.6363
OC1=CC=NN1CC#C	Oc1ccnn1CC#C	
InChI=1S/C6H6N2O/c1-2-5-8-6(9)3-4-7-8/h1,3-4,9H,5H2	InChI=1S/C6H6N2O/c1-2-5-8-6(9)3-4-7-8/h1,3-4,9H,5H2
