20
gdb 56316	4.75966	0.53427	0.51572	3.1168	78.15	-0.248	-0.0146	0.2333	2125.7542	0.16827	-440.337989	-440.327139	-440.326194	-440.376717	36.465	
C	 0.2307769217	 1.4734475576	-0.0242159474	-0.473539
C	 0.081307285	-0.0345320994	 0.0709306889	 0.378058
O	 0.1164833184	-0.6164241067	 1.1306206012	-0.28948
C	-0.1184594029	-0.7746458783	-1.2479368081	-0.301007
C	-0.0656507462	-2.2951712489	-1.1094293073	-0.179921
C	-0.3863626875	-3.0073700302	-2.4269932291	-0.16724
N	-0.3243815149	-4.4553103428	-2.3100880487	-0.275547
C	 0.5872651865	-5.2175331168	-2.9721025149	 0.154036
O	 1.4150730725	-4.8022841323	-3.7553780465	-0.322488
H	 1.1683540399	 1.720649895	-0.5359571404	 0.143966
H	-0.578813239	 1.9113994136	-0.6179884766	 0.134998
H	 0.2399109291	 1.9103283992	 0.9749558297	 0.144326
H	-1.0879824132	-0.4521479415	-1.6573971418	 0.122153
H	 0.6265672975	-0.4143609072	-1.970384635	 0.123878
H	 0.9272344029	-2.6013029515	-0.7638809613	 0.122913
H	-0.7677727399	-2.6060798851	-0.3277021037	 0.110826
H	-1.3814087255	-2.7090262715	-2.7844040934	 0.10496
H	 0.3356471834	-2.7399502271	-3.2025217917	 0.149013
H	-0.9412653768	-4.9158615714	-1.659533733	 0.246532
H	 0.484754609	-6.2907770247	-2.7152134707	 0.073565
23.6803	39.3011	78.2906	92.9463	106.2089	123.2924	216.787	248.9052	336.4398	343.0076	471.6137	482.691	536.3815	596.8026	723.3142	758.9012	814.0544	847.9567	942.5353	963.5987	999.3725	1030.7485	1056.2749	1085.7235	1132.038	1175.5701	1197.083	1219.7883	1288.7833	1305.8413	1325.7722	1377.4522	1387.5036	1407.735	1431.7251	1451.543	1464.8638	1476.9498	1483.8308	1500.5598	1536.3169	1806.3569	1813.5313	2934.8455	3005.067	3012.5618	3036.2309	3040.1917	3048.6208	3087.524	3097.105	3115.1012	3152.3973	3630.3678
CC(=O)CCCNC=O	CC(=O)CCCNC=O	
InChI=1S/C6H11NO2/c1-6(9)3-2-4-7-5-8/h5H,2-4H2,1H3,(H,7,8)	InChI=1S/C6H11NO2/c1-6(9)3-2-4-7-5-8/h5H,2-4H2,1H3,(H,7,8)
