19
gdb 45584	2.58705	1.60825	1.2649	3.1746	74.65	-0.2275	-0.0222	0.2054	1051.511	0.161037	-423.03902	-423.031449	-423.030504	-423.071143	29.922	
O	-0.1105678226	-0.0548288902	 0.1266640637	-0.297853
C	-0.0926788191	 1.1383123222	 0.0557582854	 0.348033
C	-1.1755540736	 2.2402574665	 0.139562411	-0.357946
C	-0.0685049518	 3.1674796025	 0.7257112349	-0.065195
C	 0.0063415869	 3.1356849156	 2.2621452426	-0.217882
C	 1.4634494676	 3.1145163545	 2.7476024539	-0.206456
C	 2.2023100896	 1.9329010303	 2.1200746151	-0.077364
O	 2.2551353122	 2.0420263856	 0.6980657633	-0.252833
C	 1.0153974591	 2.2239418681	 0.096004959	 0.04608
H	-1.517530814	 2.5486376426	-0.8530876859	 0.127716
H	-2.0426164013	 2.0179235995	 0.7645654399	 0.12848
H	-0.0480959501	 4.190161407	 0.3457541304	 0.079169
H	-0.5446467464	 3.9806953959	 2.6869303609	 0.103507
H	-0.4889175774	 2.2277561072	 2.6328418673	 0.106225
H	 1.9775384127	 4.0435064059	 2.4716210136	 0.105811
H	 1.5022287912	 3.0305535994	 3.8392243547	 0.101149
H	 3.2449256147	 1.8930411755	 2.4451069706	 0.110879
H	 1.7189531535	 0.9863755613	 2.4085029475	 0.107652
H	 1.2101169588	 2.5280285407	-0.9403550879	 0.110828
89.6094	131.626	232.115	332.2518	358.082	403.0866	428.9538	470.963	568.7241	645.8569	701.2426	727.9858	789.8616	852.9569	870.8396	895.8844	929.3016	951.3901	1003.4729	1031.2436	1037.6877	1061.4683	1097.4769	1129.2524	1176.6763	1190.3136	1205.5445	1225.1462	1258.8797	1269.2066	1307.1864	1342.4922	1365.1549	1377.7561	1387.2825	1416.0182	1449.7783	1478.0938	1491.9992	1506.6617	1889.9856	2990.1442	3016.0702	3032.1018	3034.8543	3063.3293	3070.2751	3079.7184	3096.4035	3098.5445	3126.2997
O=C1CC2CCCOC12	O=C1C[C@H]2CCCO[C@@H]12	
InChI=1S/C7H10O2/c8-6-4-5-2-1-3-9-7(5)6/h5,7H,1-4H2	InChI=1S/C7H10O2/c8-6-4-5-2-1-3-9-7(5)6/h5,7H,1-4H2/t5-,7-/m1/s1
