16
gdb 42879	2.39867	1.83771	1.59212	2.7819	69.33	-0.2473	-0.0413	0.206	913.953	0.126015	-437.889039	-437.882004	-437.88106	-437.920488	27.306	
O	 0.1812378861	 0.1736798154	-0.4440703952	-0.291954
C	 0.0518576756	 1.3262599122	-0.1626605625	 0.396952
C	-1.1350849649	 2.2563155716	 0.130048664	-0.164735
C	-0.14735671	 3.1310326567	 0.9589734698	-0.270851
C	 1.0479914347	 2.4666375269	 0.2221901379	 0.008445
O	 1.5278482599	 3.1966400748	-0.899504411	-0.228861
C	 0.6679876945	 3.6407693644	-1.8599744016	 0.126765
N	-0.5809312975	 3.5706447656	-2.016497772	-0.257644
C	-1.5784842247	 2.9650581035	-1.1619922062	-0.166959
H	-1.9985265998	 1.8160486961	 0.6347094826	 0.097343
H	-0.2314029441	 4.2125696704	 0.838336184	 0.124827
H	-0.1463470447	 2.8788861142	 2.0217177613	 0.121697
H	 1.9327880666	 2.1926074063	 0.7975284735	 0.113115
H	 1.2668464568	 4.1537483834	-2.6118586078	 0.130131
H	-2.1432369373	 2.2547978575	-1.7783269877	 0.135426
H	-2.2878946212	 3.7576772009	-0.8886743191	 0.1263
109.0761	182.3905	236.5583	320.2587	382.8105	442.5152	463.9638	509.3973	639.5912	747.0491	769.66	825.0005	836.2329	877.5724	926.6564	950.1486	958.5849	1004.2532	1054.6029	1068.815	1088.2254	1120.9846	1141.8363	1189.5312	1220.4064	1249.8828	1276.2012	1307.2286	1360.0421	1380.5079	1437.2884	1467.4243	1477.1114	1755.9802	1899.5298	3019.5591	3053.8123	3074.993	3089.2097	3116.4171	3136.0736	3146.8256
O=C1C2CC1OC=NC2	O=C1[C@H]2C[C@@H]1OC=NC2	
InChI=1S/C6H7NO2/c8-6-4-1-5(6)9-3-7-2-4/h3-5H,1-2H2	InChI=1S/C6H7NO2/c8-6-4-1-5(6)9-3-7-2-4/h3-5H,1-2H2/t4-,5-/m0/s1
