18
gdb 55070	3.04002	1.0321	0.82514	4.9218	74.57	-0.2437	-0.022	0.2217	1380.7106	0.144667	-439.096533	-439.086775	-439.085831	-439.132416	33.601	
C	 0.0727779909	 1.1536166513	-0.0926402373	-0.472321
C	-0.0888423458	-0.3523176201	-0.0190505505	 0.371573
O	 0.7832674332	-1.1331597629	-0.3391700395	-0.339506
N	-1.2969068058	-0.769809128	 0.5242437592	-0.071941
C	-2.636052725	-0.4521496316	 0.0806675812	-0.268538
C	-2.1306108605	-1.872293764	 0.1045556229	-0.010241
C	-1.8779547389	-2.6304343952	-1.1866117598	-0.295619
C	-0.8954398275	-3.7811810365	-1.0004200523	 0.140616
O	-1.1719067524	-4.9292704531	-1.2393787625	-0.240531
H	 1.1274867519	 1.3916334733	-0.2291402642	 0.152222
H	-0.4891511932	 1.5489181333	-0.9465389752	 0.140857
H	-0.3129999436	 1.6375403747	 0.8081683942	 0.144703
H	-3.331602401	-0.1047850671	 0.8404983099	 0.131154
H	-2.7520049727	 0.0138696444	-0.8960169163	 0.128246
H	-2.4718858573	-2.4965081787	 0.929623112	 0.117025
H	-2.8180144041	-3.0472899342	-1.5612861342	 0.125395
H	-1.4688350444	-1.948372628	-1.9419998397	 0.123892
H	 0.0991389762	-3.4759136078	-0.6219774578	 0.123012
53.3702	77.681	99.5999	105.7355	140.0882	189.5013	243.8796	341.3864	398.9746	457.7433	499.8099	592.3878	630.8233	685.3406	799.9588	860.8832	928.1718	971.4377	1015.8385	1045.839	1052.2921	1061.6375	1104.487	1129.1583	1146.8664	1167.944	1207.1666	1238.8016	1291.4012	1378.2163	1395.6686	1414.1958	1435.199	1450.9411	1468.4952	1479.9768	1512.8754	1779.7529	1826.6933	2964.4343	3036.821	3045.4889	3096.509	3097.5113	3113.177	3118.9341	3163.3075	3185.2375
CC(=O)N1CC1CC=O	CC(=O)N1C[C@H]1CC=O	
InChI=1S/C6H9NO2/c1-5(9)7-4-6(7)2-3-8/h3,6H,2,4H2,1H3	InChI=1S/C6H9NO2/c1-5(9)7-4-6(7)2-3-8/h3,6H,2,4H2,1H3/t6-,7?/m1/s1
