19
gdb 47512	2.84142	1.43193	1.07686	4.1258	76.52	-0.2248	0.0681	0.2929	1142.1339	0.161848	-419.248915	-419.240721	-419.239777	-419.281789	31.984	
O	 0.0443786167	-0.0433981358	-0.0932461151	-0.418347
C	-0.0033762397	 1.1706963903	 0.0093127204	 0.426862
N	-1.1931749562	 1.8646840257	 0.0692967768	-0.339915
C	-1.3180043296	 3.308966096	-0.0329642138	-0.160618
C	-0.1092347707	 3.9670386858	 0.6369934741	-0.261509
C	 1.1585530655	 3.3799630782	 0.0546129775	 0.395578
C	 1.8158409244	 4.0471084602	-1.1378527367	-0.306973
C	 2.4784067646	 4.0674747816	 0.2270046772	-0.339107
N	 1.1314864029	 1.9449823256	 0.13793275	-0.395359
H	-1.9926828706	 1.2866294744	-0.1324172467	 0.249378
H	-1.3806397546	 3.6404095411	-1.0814218425	 0.10499
H	-2.2442020868	 3.6192505024	 0.4621284659	 0.109278
H	-0.1365287331	 5.0483824037	 0.4793326175	 0.103737
H	-0.140192892	 3.7768207794	 1.7158662715	 0.117295
H	 2.2467331639	 3.4034093052	-1.8967168735	 0.117953
H	 1.392687132	 4.9713457182	-1.5184474003	 0.113687
H	 2.5032315333	 5.0009275612	 0.7793121615	 0.120425
H	 3.3568696842	 3.4465362974	 0.3732623593	 0.116803
H	 1.9866605859	 1.4216671694	 0.0403901671	 0.245844
75.1392	102.2662	207.8847	265.6526	350.2643	395.1185	406.2177	469.9897	478.6879	516.9443	536.1843	654.8624	745.9275	756.7562	771.6288	876.3185	891.8444	908.5664	943.5633	981.1608	1007.6107	1024.4982	1053.8126	1077.5685	1106.4658	1139.383	1187.1309	1200.9545	1253.8079	1286.9918	1323.4387	1362.2439	1378.5305	1424.7561	1453.8402	1466.8813	1475.1389	1483.2429	1507.7837	1528.6205	1803.2581	2976.4884	3042.6085	3063.3818	3102.7518	3125.2183	3129.4424	3205.6628	3221.9534	3644.4314	3650.0577
O=C1NCCC2(CC2)N1	O=C1NCCC2(CC2)N1	
InChI=1S/C6H10N2O/c9-5-7-4-3-6(8-5)1-2-6/h1-4H2,(H2,7,8,9)	InChI=1S/C6H10N2O/c9-5-7-4-3-6(8-5)1-2-6/h1-4H2,(H2,7,8,9)
