19
gdb 80612	2.16114	1.93152	1.48917	0.8432	69.75	-0.2366	0.0735	0.3101	975.3371	0.158971	-460.137728	-460.129516	-460.128572	-460.16976	33.132	
C	-0.084338138	 1.5233257806	 0.0318901086	-0.47035
C	 0.0291326479	 0.0050411666	 0.0168065151	 0.355262
O	-1.2399106607	-0.6077913189	-0.1846086064	-0.482146
C	 0.992586602	-0.5293835413	-1.0702558564	 0.057403
C	 1.1432890623	-2.0223493628	-0.7204666407	-0.24603
C	 1.8832876255	-1.3625475186	 0.4561177652	 0.021612
O	 2.3026833153	-0.2821123268	-0.4551577204	-0.323722
C	 0.8042130707	-0.6107653756	 1.2565561344	 0.105359
O	 1.3622690363	 0.3237005508	 2.1518057908	-0.439479
H	 0.899842378	 1.9948100472	-0.0244941707	 0.126136
H	-0.6752770302	 1.8518587469	-0.8285857655	 0.11984
H	-0.5670559473	 1.8740394557	 0.9497848188	 0.122392
H	-1.8581025016	-0.2220166065	 0.4447359681	 0.281066
H	 0.8942720602	-0.1425095656	-2.0844275891	 0.083596
H	 0.2426599311	-2.6049548104	-0.5286176312	 0.121477
H	 1.8311909636	-2.5331670243	-1.3946837212	 0.111846
H	 2.7015173465	-1.8250697714	 1.0083191334	 0.085204
H	 0.145677494	-1.2610159626	 1.8381981575	 0.084649
H	 2.0580271144	 0.7804755368	 1.6616477698	 0.285884
131.6292	224.3306	246.3664	270.4115	277.6888	323.7341	357.6853	425.043	472.0133	491.7133	545.066	569.2761	656.4376	779.1398	818.2597	867.057	881.5546	890.8521	923.1677	954.3453	968.2461	1020.6028	1049.7792	1071.7462	1113.5285	1125.8564	1165.2377	1179.2637	1197.5909	1227.3742	1245.3932	1266.7148	1282.1368	1305.22	1322.6795	1389.2742	1404.4262	1427.5946	1480.7371	1485.5407	1499.0431	3039.4142	3084.7666	3090.8288	3109.3942	3123.288	3123.7342	3126.8432	3162.2292	3772.7828	3812.9621
CC1(O)C2CC(O2)C1O	C[C@@]1(O)[C@@H]2C[C@@H](O2)[C@H]1O	
InChI=1S/C6H10O3/c1-6(8)4-2-3(9-4)5(6)7/h3-5,7-8H,2H2,1H3	InChI=1S/C6H10O3/c1-6(8)4-2-3(9-4)5(6)7/h3-5,7-8H,2H2,1H3/t3-,4+,5-,6-/m1/s1
