15
gdb 32316	2.66996	1.50235	0.96713	0.7121	70.75	-0.2365	-0.0405	0.1961	1134.5878	0.114733	-454.00818	-454.000322	-453.999378	-454.040992	28.684	
O	-0.0050985845	 1.4428518664	 0.0070192175	-0.422477
C	-0.000504783	 0.0280178225	 0.0019265166	-0.15262
C	-1.4141400875	-0.4748104016	 0.0126860976	 0.081734
C	-2.5114587163	 0.331555267	 0.0241608743	-0.060558
N	-3.8140287427	-0.1143748994	 0.0339273979	-0.285064
C	-3.969205945	-1.3989116479	 0.031709105	 0.108113
N	-2.9423789533	-2.2873486853	 0.0206903981	-0.340948
C	-1.5843915349	-1.9155973217	 0.0103811821	 0.387
O	-0.7033956208	-2.7586931392	 0.000220777	-0.390705
H	 0.9073583475	 1.7436661627	 0.0005450053	 0.294975
H	 0.5129947669	-0.379619319	-0.8838519168	 0.116921
H	 0.5286224233	-0.3860284726	 0.8754205453	 0.116942
H	-2.3837147079	 1.4079818607	 0.0260317877	 0.141164
H	-4.9683686642	-1.8275008196	 0.0388772621	 0.13772
H	-3.1200403877	-3.2835624531	 0.0194129402	 0.267805
74.2929	154.716	195.1625	211.778	252.6277	344.0298	397.5068	527.7565	556.3333	564.6278	608.0872	734.6325	780.2051	795.3927	906.056	937.8264	980.9915	1050.0504	1066.279	1092.5119	1140.5481	1196.553	1230.1552	1240.1044	1260.2084	1392.7684	1420.5332	1458.7781	1475.2053	1501.0584	1598.9966	1659.8868	1782.1034	2971.8349	2989.6616	3167.316	3206.7703	3591.2225	3847.2845
OCC1=CN=CNC1=O	OCc1cnc[nH]c1=O	
InChI=1S/C5H6N2O2/c8-2-4-1-6-3-7-5(4)9/h1,3,8H,2H2,(H,6,7,9)	InChI=1S/C5H6N2O2/c8-2-4-1-6-3-7-5(4)9/h1,3,8H,2H2,(H,6,7,9)
