17
gdb 52556	4.44134	0.66032	0.60959	4.3536	80.37	-0.2584	-0.0502	0.2082	1831.4533	0.132413	-421.792766	-421.782704	-421.781759	-421.830769	33.497	
C	 0.1225956672	 1.4105676917	 0.1939729255	-0.505198
C	 0.0419582628	-0.0363716534	 0.0970441136	 0.168392
C	-0.0467914985	-1.2378754303	 0.0213092224	-0.026953
C	-0.131252537	-2.6803620626	-0.0652426877	 0.214038
O	-1.1827324382	-3.2751119439	 0.0414423857	-0.292515
C	 1.1927096564	-3.3933850817	-0.333580269	-0.340109
C	 1.1151161933	-4.8837172456	-0.1154765228	 0.103738
C	 2.3220683435	-5.6822341827	 0.1253599316	-0.191951
O	 1.4403094959	-5.3475941092	 1.197183246	-0.230555
H	 1.154440905	 1.7641757688	 0.1004084629	 0.157873
H	-0.4728506858	 1.8851556697	-0.5935210377	 0.164718
H	-0.2694005252	 1.755100794	 1.1570460955	 0.166398
H	 1.4683296447	-3.1703003531	-1.3748371313	 0.137307
H	 1.9779497428	-2.9570395816	 0.2927109675	 0.134425
H	 0.2460484596	-5.369281978	-0.5548047552	 0.114304
H	 2.3409446634	-6.7335327269	-0.1585910468	 0.116642
H	 3.2959282202	-5.1935080153	 0.1506681499	 0.109448
23.0264	32.0732	69.1315	77.1946	143.3209	185.7178	291.9997	360.8286	371.7883	379.4627	447.305	569.2422	585.8951	772.6887	809.0182	861.644	945.3032	962.7004	983.1304	1043.9027	1054.8301	1089.9844	1112.1405	1158.4893	1165.3327	1188.5757	1227.4484	1298.3934	1332.1055	1409.8569	1425.9878	1451.7763	1469.8963	1473.1781	1532.9225	1763.6651	2338.982	3016.943	3032.9211	3079.1707	3082.5213	3096.9075	3100.4389	3139.517	3165.4464
CC#CC(=O)CC1CO1	CC#CC(=O)C[C@H]1CO1	
InChI=1S/C7H8O2/c1-2-3-6(8)4-7-5-9-7/h7H,4-5H2,1H3	InChI=1S/C7H8O2/c1-2-3-6(8)4-7-5-9-7/h7H,4-5H2,1H3/t7-/m0/s1
