19
gdb 117143	4.1338	0.75984	0.65122	4.7073	75.43	-0.2466	-0.0155	0.2311	1658.3801	0.157935	-456.363549	-456.353215	-456.352271	-456.400377	35.783	
C	-0.0957833891	 1.4389705818	-0.0751514129	-0.35739
N	-0.0133737759	-0.018035754	-0.0274848638	-0.129596
C	 0.1017239339	-0.6139563052	 1.2258225099	 0.169607
O	 0.1202421018	 0.0064874978	 2.2647431246	-0.329085
C	-0.0524264641	-0.815752232	-1.1902505992	 0.370752
N	-0.1417067334	-2.0822699412	-1.0670271378	-0.50923
C	 0.0268443464	-0.0415553875	-2.4915066183	-0.269645
C	 0.005058513	-0.9018915532	-3.7484225876	-0.1101
O	 0.0771331448	-0.0106286661	-4.8477241853	-0.421516
H	 0.7428124193	 1.8752435674	-0.625020419	 0.133916
H	-1.0318880307	 1.7720048071	-0.5327226873	 0.134858
H	-0.0621614321	 1.7844895386	 0.9573287159	 0.174812
H	 0.1784169712	-1.7048058375	 1.1533483559	 0.141609
H	-0.1296267601	-2.546855026	-1.9698253708	 0.226839
H	-0.8031478483	 0.6715161525	-2.5518161823	 0.139201
H	 0.9394813043	 0.5657484314	-2.5035702166	 0.139688
H	 0.8564640885	-1.6004890201	-3.741675107	 0.101404
H	-0.9182208416	-1.5015551989	-3.7775794231	 0.102021
H	 0.0657431821	-0.5282465949	-5.6580306052	 0.291857
21.358	72.928	118.9124	141.8817	166.1451	195.0018	267.0315	300.6282	320.2961	327.4789	389.0888	435.3317	548.3886	559.4917	722.2296	802.7445	833.3867	853.5248	966.7007	1045.7124	1057.9391	1074.372	1086.9135	1097.6172	1152.9897	1226.1022	1233.2636	1241.9608	1295.1119	1313.3496	1330.2633	1410.9126	1419.9136	1452.69	1461.921	1470.9078	1509.388	1510.8895	1536.1879	1701.3727	1794.1626	2969.3682	2999.6377	3039.394	3047.0322	3079.6874	3084.6081	3104.1505	3162.7443	3538.8947	3833.3443
CN(C=O)C(=N)CCO	CN(C=O)C(=N)CCO	
InChI=1S/C5H10N2O2/c1-7(4-9)5(6)2-3-8/h4,6,8H,2-3H2,1H3	InChI=1S/C5H10N2O2/c1-7(4-9)5(6)2-3-8/h4,6,8H,2-3H2,1H3
