15
gdb 131150	3.7894	1.25216	1.03007	3.2654	66.96	-0.2725	-0.0457	0.2268	1114.355	0.112209	-453.8853	-453.877718	-453.876774	-453.918011	28.526	
O	 0.1864158104	 1.3318663983	 0.4086575888	-0.453512
C	 0.0158651307	-0.0285803263	 0.1183570871	 0.28513
C	-0.5243402917	-0.863375798	 1.2537138567	-0.279385
C	-1.3847052823	-0.5900633444	 0.0465997956	-0.322032
C	 1.0826002918	-0.5865865636	-0.743720357	 0.28814
N	 1.0058282463	-1.7330732998	-1.3682290843	-0.176055
O	 2.1964263509	-1.8814429506	-2.0288480039	-0.148904
N	 3.0162737907	-0.8115492321	-1.8208141384	-0.063283
C	 2.3536849216	-0.0095692647	-1.0359072431	-0.120916
H	-0.1185755251	 1.8409783166	-0.3512421476	 0.29051
H	-0.1142932847	-1.8580571153	 1.3814085242	 0.138135
H	-0.7457088444	-0.3216234093	 2.1657121947	 0.134836
H	-2.189279767	 0.1278863347	 0.1593121359	 0.123138
H	-1.5655000393	-1.3953280923	-0.65572023	 0.147308
H	 2.7691377221	 0.9259993068	-0.6990146987	 0.156889
46.1894	160.6934	182.7614	317.6821	331.5521	367.1211	448.6708	501.9322	544.8665	645.5946	738.0865	777.9138	867.4758	897.5874	897.998	917.4478	931.5083	940.722	996.9306	1018.6422	1051.8748	1064.0496	1087.1415	1148.5571	1197.0549	1264.6707	1276.2722	1351.2461	1426.4744	1448.1323	1471.2775	1487.7699	1608.9225	3140.6444	3146.1916	3232.3075	3246.5786	3284.1968	3789.3416
OC1(CC1)C1=NON=C1	OC1(CC1)c1nonc1	
InChI=1S/C5H6N2O2/c8-5(1-2-5)4-3-6-9-7-4/h3,8H,1-2H2	InChI=1S/C5H6N2O2/c8-5(1-2-5)4-3-6-9-7-4/h3,8H,1-2H2
