19
gdb 67426	2.63214	1.49288	1.24185	3.6329	81.96	-0.2387	-0.0152	0.2236	1086.9221	0.159141	-385.861795	-385.853698	-385.852754	-385.89431	31.239	
C	-0.1798149527	 1.5119671634	-0.0440391135	-0.528501
C	-0.0070511201	 0.0290925547	-0.0089784471	 0.302421
C	 0.0193469397	-1.0393739331	-1.0496577815	-0.164978
C	 1.2969420727	-1.6535533951	-0.4855577939	-0.232682
C	 0.9210956272	-0.941288387	 0.8451110978	-0.112131
C	-0.3458056052	-1.6963021049	 1.3258919607	-0.293469
C	-1.0373187058	-1.1170817279	 0.0999489155	 0.231275
C	-2.4666457299	-1.0264441495	-0.1818875648	 0.039148
O	-3.3354019618	-1.5037515719	 0.5133876321	-0.275378
H	 0.7557686814	 2.0075681764	-0.3283552869	 0.128517
H	-0.9427378297	 1.8034047586	-0.7729495991	 0.130764
H	-0.4819613786	 1.9058427299	 0.9325338931	 0.132029
H	-0.3120351824	-0.9788533414	-2.0795265847	 0.094778
H	 1.3963352365	-2.7439318028	-0.4613955951	 0.097754
H	 2.1809975989	-1.2104732737	-0.9520234779	 0.105594
H	 1.6895094291	-0.6262825031	 1.5482983326	 0.076676
H	-0.2742062772	-2.7845342343	 1.4246869582	 0.099174
H	-0.7651487037	-1.2727569287	 2.2414285986	 0.113265
H	-2.7224761586	-0.4599192596	-1.1089978042	 0.055745
96.4199	166.6084	208.4718	213.6002	234.4141	311.4349	422.4669	458.4027	482.0133	609.4381	669.9076	697.2391	787.8409	818.2013	898.4037	906.2282	931.0584	955.1507	983.1283	993.7019	1040.8753	1061.7605	1084.3159	1096.982	1125.7172	1140.7158	1165.8391	1182.7276	1220.7818	1234.5018	1263.6082	1284.0619	1364.9108	1409.6367	1420.5609	1459.8545	1482.8405	1491.3995	1496.906	1510.8222	1794.1076	2840.7576	3025.7146	3040.5678	3048.0384	3084.9171	3100.5574	3101.1568	3111.3166	3136.2785	3188.2928
CC12C3CC1CC23C=O	C[C@@]12[C@H]3C[C@@H]1C[C@@]23C=O	
InChI=1S/C8H10O/c1-7-5-2-6(7)8(7,3-5)4-9/h4-6H,2-3H2,1H3	InChI=1S/C8H10O/c1-7-5-2-6(7)8(7,3-5)4-9/h4-6H,2-3H2,1H3/t5-,6-,7+,8+/m1/s1
