22
gdb 78118	2.64414	1.33851	1.08918	0.6305	83.77	-0.2087	0.0802	0.289	1233.2001	0.191243	-404.307052	-404.297127	-404.296183	-404.340776	38.436	
C	-0.2043641904	 1.2940505857	-0.1019874745	-0.321959
N	 0.0775574872	-0.1234611712	 0.0983607678	-0.146285
C	 1.4988259161	-0.4770585646	-0.0929384694	-0.125371
C	 0.9032749225	-0.4723955975	 1.2787505138	 0.360574
C	 1.0899735108	 0.4044273237	 2.4793681279	-0.514283
C	 0.8945568855	-2.0121828936	 1.3041501339	-0.340429
C	 1.5766520316	-2.0090487673	-0.1206012735	 0.409567
C	 0.8629638567	-2.7337043004	-1.2495994205	-0.455033
O	 2.951686533	-2.3583345249	-0.0515268109	-0.486978
H	 0.629179967	 1.9734598168	 0.1369583092	 0.101349
H	-0.4678346795	 1.4488696644	-1.1532268777	 0.12336
H	-1.0656357232	 1.5840205441	 0.5086048952	 0.120923
H	 2.1846784765	 0.21300888	-0.572172362	 0.085193
H	 1.2091019829	 1.4579206897	 2.2161449068	 0.123973
H	 0.2321350633	 0.3213675798	 3.1584071018	 0.122878
H	 1.981782306	 0.0981181833	 3.0356282405	 0.128542
H	 1.5775426268	-2.4321883318	 2.04662415	 0.095966
H	-0.0941989088	-2.4714226633	 1.3866010929	 0.091182
H	-0.1608882249	-2.3652213573	-1.3450241132	 0.137829
H	 1.3911136717	-2.5777729714	-2.195810507	 0.11594
H	 0.8218464668	-3.8131983614	-1.0553238081	 0.09982
H	 3.0055619525	-3.3170181026	 0.0267073969	 0.273242
122.2759	168.3418	171.8885	209.4966	234.755	268.1279	283.1509	298.4761	330.8406	355.6359	371.4696	444.5652	476.2096	520.3578	602.1038	680.0822	759.749	837.7861	868.8826	911.4953	931.4021	952.7375	975.6692	1009.3058	1030.8888	1095.5408	1114.0437	1146.7648	1151.9961	1166.8564	1172.611	1223.2746	1242.5261	1249.3884	1290.7124	1388.4666	1397.8428	1402.9564	1433.7744	1451.0567	1466.5349	1483.2233	1487.3799	1488.866	1498.703	1499.9666	1509.777	2971.9095	3022.9857	3027.0488	3054.5738	3064.4612	3086.8912	3089.3636	3098.9576	3119.7238	3121.2546	3130.8517	3177.4789	3802.4946
CN1C2C1(C)CC2(C)O	CN1[C@H]2[C@]1(C)C[C@]2(C)O	
InChI=1S/C7H13NO/c1-6-4-7(2,9)5(6)8(6)3/h5,9H,4H2,1-3H3	InChI=1S/C7H13NO/c1-6-4-7(2,9)5(6)8(6)3/h5,9H,4H2,1-3H3/t5-,6-,7-,8?/m0/s1
