17
gdb 20860	3.04886	1.85383	1.26342	3.1752	69.83	-0.2494	-0.0011	0.2483	984.6746	0.141988	-363.873781	-363.865653	-363.864709	-363.90672	29.111	
C	-0.1555848719	 1.5417007494	 0.0585497422	-0.379392
C	 0.104827102	 0.0278538758	-0.0233718563	-0.290535
C	 0.7504041018	-0.5241182832	 1.2126836541	 0.321334
N	 2.0285220758	-0.8220773047	 1.2063039772	-0.206179
O	 2.3213310173	-1.2868703376	 2.4852110381	-0.170934
C	 1.1979644964	-1.2548175596	 3.2172702662	 0.000477
C	 0.1522143974	-0.783844765	 2.4912103789	 0.079852
C	-1.27190454	-0.5968303152	 2.9096484198	-0.513972
H	 0.7817148089	 2.0866963445	 0.2021174784	 0.134463
H	-0.6229950318	 1.9009283829	-0.8630890472	 0.118945
H	-0.82070927	 1.7924867776	 0.8907317743	 0.12053
H	-0.840874705	-0.4985625307	-0.2009090479	 0.108711
H	 0.7576091827	-0.1895737853	-0.8734890692	 0.129861
H	 1.2891956607	-1.601210302	 4.2358724663	 0.144241
H	-1.5577042857	 0.4608573281	 2.9286252734	 0.137346
H	-1.9612605705	-1.1038205223	 2.2252660909	 0.134591
H	-1.442739978	-1.0015839626	 3.9107368807	 0.130661
61.0795	124.5113	158.6679	191.5766	256.6881	265.1246	398.5119	410.675	614.3808	620.3512	685.6024	742.3128	792.9828	837.9378	913.8625	940.8799	979.916	1016.4075	1064.6141	1079.142	1095.5195	1155.6705	1205.4693	1280.9166	1297.2022	1353.3682	1405.4793	1423.5919	1430.8674	1478.7583	1485.112	1497.1158	1498.679	1502.8189	1520.4286	1657.3026	3031.3501	3035.9869	3040.9647	3081.6811	3089.4786	3112.0268	3113.6355	3120.3351	3256.4193
CCC1=NOC=C1C	CCc1nocc1C	
InChI=1S/C6H9NO/c1-3-6-5(2)4-8-7-6/h4H,3H2,1-2H3	InChI=1S/C6H9NO/c1-3-6-5(2)4-8-7-6/h4H,3H2,1-2H3
