20
gdb 124560	4.07745	0.88336	0.83797	4.8964	80.94	-0.2491	0.002	0.251	1452.7031	0.171741	-399.343135	-399.334011	-399.333067	-399.377916	33.394	
C	 0.2278637531	 1.4936129785	-0.0443335143	-0.386365
C	 0.0327812191	-0.0244089338	 0.0446368827	 0.045633
C	 0.724948635	-0.6022881831	 1.284867621	-0.391818
C	-1.4679387029	-0.4103033596	 0.0446439011	-0.324235
C	-2.2056258971	-0.0479543179	-1.2033110466	 0.345567
C	-3.1550880932	 0.9045854518	-1.5010357164	-0.154392
N	-3.4951576607	 0.8121882004	-2.817737076	-0.186284
N	-2.8109030314	-0.1479901077	-3.3659032032	-0.118567
N	-2.0297397379	-0.6713792125	-2.3976077855	-0.232699
H	 1.2912094238	 1.7478632634	-0.0932568724	 0.116398
H	-0.2615887426	 1.9128274744	-0.9278290292	 0.130076
H	-0.1922639312	 1.9905475634	 0.8385629788	 0.113514
H	 0.4931551328	-0.4794500413	-0.8442762839	 0.070585
H	 0.2905701477	-0.1883364603	 2.2025702047	 0.117618
H	 0.625542066	-1.6920329903	 1.3312969473	 0.110933
H	 1.7925259414	-0.3615607547	 1.2864217393	 0.117297
H	-1.5575574291	-1.4899876986	 0.2224300205	 0.110534
H	-1.963049458	 0.0810418747	 0.8899382311	 0.120175
H	-3.6062146685	 1.6354688555	-0.8491110721	 0.119771
H	-1.4207452663	-1.4418813824	-2.623342097	 0.276258
43.3296	73.0626	109.8216	220.9034	246.6213	286.1302	315.5953	331.4593	417.264	422.1226	580.2265	677.1896	729.8431	759.064	819.7338	853.5811	882.4006	930.776	950.9257	968.4393	995.7969	1062.8417	1072.488	1102.0292	1136.6188	1139.6456	1191.5191	1227.0488	1254.5695	1307.2036	1337.6411	1362.2626	1371.8618	1384.4662	1403.1615	1424.0401	1438.6667	1478.1406	1487.2407	1494.7901	1503.8107	1509.7888	1607.2218	2998.0506	3019.4485	3026.3196	3031.4943	3070.2782	3091.836	3097.4253	3103.9493	3114.5004	3267.5321	3653.4996
CC(C)CC1=CN=NN1	CC(C)Cc1cnn[nH]1	
InChI=1S/C6H11N3/c1-5(2)3-6-4-7-9-8-6/h4-5H,3H2,1-2H3,(H,7,8,9)	InChI=1S/C6H11N3/c1-5(2)3-6-4-7-9-8-6/h4-5H,3H2,1-2H3,(H,7,8,9)
