16
gdb 127858	3.82913	1.18176	0.90898	3.6241	80.58	-0.2148	-0.046	0.1688	1241.3152	0.125713	-430.253529	-430.245106	-430.244161	-430.286723	31.102	
C	-0.081176042	 1.445541697	-0.0714348017	-0.325822
N	-0.0014427181	-0.0052298712	-0.0413011478	-0.333135
C	 0.5842213299	-0.5653103703	 0.9435081949	 0.37763
C	 1.242547363	-0.0081083767	 2.1207970207	-0.074956
N	 1.8095311332	-0.7105510427	 3.0507118609	-0.171017
N	 1.8107189984	-2.0785797143	 3.0031182254	-0.321191
C	 1.2545155532	-2.6483855031	 1.9598551063	 0.52891
N	 1.3176252661	-4.0138300249	 1.8483820036	-0.561599
N	 0.6587305537	-1.9652960649	 0.9516173558	-0.395904
H	 0.2879333612	-2.4314723906	 0.1340618213	 0.259854
H	 0.9083597548	 1.9236953775	-0.1116111806	 0.117903
H	-0.6272416661	 1.7491797648	-0.9682271695	 0.122951
H	-0.6146605361	 1.8614465838	 0.7956150575	 0.116864
H	 1.2785382061	 1.0689662007	 2.2390276747	 0.12181
H	 1.6329658984	-4.4526641224	 2.7017860909	 0.277123
H	 0.5427977042	-4.4818410828	 1.4026031975	 0.260579
81.7733	103.4915	200.54	208.4498	261.3115	332.7011	361.3411	409.4642	490.2727	562.3632	587.2704	592.5292	638.0459	721.8023	746.4773	772.7593	901.0819	964.8834	998.1593	1039.1187	1102.6427	1111.0256	1152.3396	1164.5481	1306.8625	1332.4149	1380.0938	1444.3579	1486.525	1508.5659	1515.4361	1576.9682	1596.4392	1649.3728	1731.1741	2984.1133	3032.9473	3098.3104	3195.6226	3570.9656	3585.7548	3681.3528
CN=C1C=N[N-]C(N)=[NH+]1	C[N]c1cnnc(N)[nH]1	
InChI=1S/C4H6N5/c1-6-3-2-7-9-4(5)8-3/h2H,1H3,(H2-,5,6,8,9)/q-1/p+1	InChI=1S/C4H12N5/c1-6-3-2-7-9-4(5)8-3/h3-4,7-9H,2,5H2,1H3
