14
gdb 129251	3.41469	1.65741	1.12372	1.7789	71.18	-0.2462	-0.0305	0.2157	991.5884	0.105463	-432.893621	-432.887167	-432.886223	-432.924535	24.978	
N	-0.0840727041	 1.3092422728	 0.0111333653	-0.566525
C	-0.054628563	 0.0452225745	 0.0038843195	 0.365485
O	 1.0826675256	-0.7378968351	-0.0068543006	-0.272464
C	 0.7683603401	-2.1571739939	-0.0130378417	-0.206409
C	-0.7265098244	-2.1891472863	-0.0048790413	 0.179259
C	-1.1657933499	-0.8910791913	 0.0048377851	 0.292418
N	-2.5129851446	-0.9147571161	 0.0122770581	-0.345142
N	-2.9822139883	-2.1800887198	 0.0078318687	-0.20508
C	-1.8993982257	-2.9663491596	-0.0026229535	-0.161728
H	 0.8610719641	 1.6946660709	 0.0080245	 0.22964
H	 1.2227012683	-2.5996989826	-0.9065515119	 0.137697
H	 1.2326002842	-2.6096379717	 0.8703527096	 0.137698
H	-3.1586004499	-0.1427988476	 0.0201974168	 0.290354
H	-2.0272991524	-4.0380475843	-0.007891014	 0.124799
161.2051	199.7671	256.5773	291.7854	536.7886	538.3883	609.5076	625.4955	645.8248	686.7196	757.9574	790.9789	867.083	876.1626	953.813	987.3537	1030.4045	1036.5919	1110.3272	1126.3344	1192.6001	1239.2488	1243.4389	1334.2447	1350.1422	1411.9108	1468.5875	1507.4246	1559.3973	1592.8437	1778.1635	3036.4217	3071.7354	3255.8104	3488.1895	3673.8724
N=C1OCC2=C1NN=C2	[NH][C]1OCc2c1[nH]nc2	
InChI=1S/C5H5N3O/c6-5-4-3(2-9-5)1-7-8-4/h1,6H,2H2,(H,7,8)	InChI=1S/C5H5N3O/c6-5-4-3(2-9-5)1-7-8-4/h1,6H,2H2,(H,7,8)
