19
gdb 78488	3.16451	1.34115	1.33241	1.7035	73.87	-0.2278	0.0762	0.3039	1052.7007	0.161093	-422.984629	-422.977208	-422.976264	-423.016248	29.906	
O	-0.105564381	 1.3810522957	-0.0309765024	-0.436766
C	-0.0219223198	-0.0185737106	 0.0042843915	 0.076826
C	-0.4861752288	-0.6533850104	 1.2950711786	-0.12022
C	-1.3770856465	-0.6547570988	 0.041779888	-0.080057
C	-1.3146019308	-2.1924707947	-0.0186987381	-0.053575
C	-0.4528001199	-2.8825758477	-1.0797389	-0.106927
O	 0.8951241668	-2.7952540144	-0.6107570315	-0.251329
C	 0.8756663494	-2.8862602881	 0.8154181157	-0.105397
C	-0.4120858566	-2.1917487859	 1.2644395422	-0.051209
H	 0.6546535434	 1.7322537101	 0.4441368338	 0.286124
H	 0.7898338615	-0.4469745065	-0.5779422231	 0.110776
H	-0.5832168833	-0.0477867754	 2.1885174124	 0.084179
H	-2.252974506	-0.0526096191	-0.1655753183	 0.094636
H	-2.2916542908	-2.6606586731	 0.1069457292	 0.078149
H	-0.7507358273	-3.9383415602	-1.1880056998	 0.088258
H	-0.4867842944	-2.4084545108	-2.0646383011	 0.113629
H	 0.8720726939	-3.9428229283	 1.1304100535	 0.087731
H	 1.7924184983	-2.4174874926	 1.1847080795	 0.107799
H	-0.862533468	-2.6560198792	 2.1429875697	 0.077371
147.3918	183.1312	240.6637	287.5674	292.7085	363.1384	431.4521	518.5257	623.5551	719.3215	740.6619	812.4997	834.8305	877.1332	901.0061	909.1677	929.4976	934.0508	1001.9802	1012.6073	1051.6269	1070.0693	1076.0067	1101.762	1124.7491	1129.1362	1166.4012	1170.2852	1207.9529	1232.2431	1262.2058	1267.7474	1291.7245	1300.6873	1328.1498	1348.2811	1349.8847	1396.8088	1443.5817	1500.3387	1510.8276	2964.6177	2971.8342	3083.2615	3088.2223	3094.332	3105.6941	3135.5465	3177.1873	3192.344	3807.066
OC1C2C1C1COCC21	O[C@H]1[C@H]2[C@@H]1[C@H]1COC[C@@H]21	
InChI=1S/C7H10O2/c8-7-5-3-1-9-2-4(3)6(5)7/h3-8H,1-2H2	InChI=1S/C7H10O2/c8-7-5-3-1-9-2-4(3)6(5)7/h3-8H,1-2H2/t3-,4+,5-,6+,7+
