20
gdb 30694	3.6714	1.02155	0.85014	0.9469	82.29	-0.1983	0.0523	0.2507	1393.7704	0.170981	-403.175233	-403.165844	-403.1649	-403.210202	34.482	
C	-0.3596981021	 1.2610674845	-0.0228085103	-0.230786
O	-0.1048833154	-0.1211848446	 0.0163949717	-0.243821
C	 0.7447345818	-0.5420135199	 1.0797571115	 0.012925
C	-0.0105444935	-0.5933746544	 2.4158703173	-0.392366
C	 1.3067870509	-1.8821888189	 0.6961635915	 0.27216
C	 1.0490761207	-2.5583397462	-0.4744140704	-0.166181
N	 1.7518810177	-3.7367518741	-0.4454712637	-0.246517
C	 2.459263418	-3.8283751003	 0.7252545181	-0.070485
C	 2.2039871582	-2.6922157927	 1.4560217097	-0.265071
H	 0.5724653163	 1.8466239657	-0.0702902955	 0.101943
H	-0.9412513143	 1.4551980053	-0.9280541513	 0.122442
H	-0.9408587034	 1.613580137	 0.8421600436	 0.104253
H	 1.5709983944	 0.1850620036	 1.1764242247	 0.066272
H	-0.8548918683	-1.2839144784	 2.3371875528	 0.124438
H	 0.6499984521	-0.9448907149	 3.2138459134	 0.117287
H	-0.3851629164	 0.3935910783	 2.7038804722	 0.107149
H	 0.4269766416	-2.2874229137	-1.309611355	 0.126968
H	 1.7431464269	-4.4299721636	-1.1722039599	 0.258496
H	 3.079614361	-4.6842360985	 0.9374393036	 0.114863
H	 2.6188592539	-2.4627653441	 2.426100166	 0.086031
40.1249	69.6983	152.0866	166.7372	204.1467	250.5473	328.3335	371.0323	422.3613	465.8993	482.2494	638.5916	655.9377	687.3492	726.2862	786.2826	821.8877	858.2075	906.3398	954.8323	1029.3136	1066.0038	1089.5557	1096.0575	1110.5704	1155.0287	1161.5882	1183.1342	1218.5455	1260.5319	1284.2201	1358.0192	1376.7853	1397.5069	1416.9606	1467.2746	1477.5262	1480.7929	1490.7926	1501.7517	1512.1603	1521.5865	1611.9041	2934.1494	2973.071	3020.2735	3041.8811	3105.2497	3111.6142	3123.5348	3239.3505	3267.9074	3289.6554	3688.5631
COC(C)C1=CNC=C1	CO[C@@H](C)c1c[nH]cc1	
InChI=1S/C7H11NO/c1-6(9-2)7-3-4-8-5-7/h3-6,8H,1-2H3	InChI=1S/C7H11NO/c1-6(9-2)7-3-4-8-5-7/h3-6,8H,1-2H3/t6-/m0/s1
