18
gdb 17288	3.04012	2.45144	1.8835	1.7548	70.33	-0.2505	0.0762	0.3266	794.7796	0.153813	-347.747252	-347.740329	-347.739385	-347.777832	27.895	
C	-0.0217236278	 1.5497917902	-0.0136381286	-0.495729
C	 0.0080152582	 0.0392525323	 0.0208757405	 0.333463
C	-1.3090118657	-0.7564790329	 0.2830125241	-0.275241
C	-0.6128869929	-1.5412313934	 1.4393025227	-0.221053
C	 0.708827331	-0.7642501281	 1.1751206319	-0.109964
C	 1.6676279229	-1.3636434219	 0.11987344	 0.017863
O	 0.8793860446	-2.0506216832	-0.8617240991	-0.239495
C	 1.0021804901	-0.6291393743	-0.9709395533	-0.029181
H	 0.9911876286	 1.9697249387	-0.0285491854	 0.115253
H	-0.5439371627	 1.9136882467	-0.9074139058	 0.118426
H	-0.5384592366	 1.9564839761	 0.862086134	 0.117864
H	-2.130516364	-0.1166527019	 0.6167956203	 0.092643
H	-1.6528466148	-1.3691092139	-0.5522075137	 0.107559
H	-1.0376745523	-1.3389977217	 2.4252457745	 0.09508
H	-0.5490958845	-2.6208935014	 1.295219119	 0.110574
H	 1.1952755046	-0.2465356804	 2.0030273483	 0.067804
H	 2.692935253	-1.6976833858	 0.2371651617	 0.099758
H	 1.3764901483	-0.2407930051	-1.9135153311	 0.094377
168.4821	226.2891	247.4234	282.9359	312.056	430.2157	536.7865	632.6723	701.5142	735.3317	804.378	821.299	844.6094	868.7048	883.5873	915.279	947.5991	976.2996	993.7182	1010.4372	1051.4201	1098.413	1120.6976	1161.4086	1198.604	1217.9506	1227.759	1239.215	1251.1819	1274.4783	1296.5816	1328.657	1377.2243	1410.4836	1460.9901	1481.4061	1491.6841	1492.311	3016.1687	3058.967	3069.6351	3077.0941	3091.2606	3102.6951	3115.1748	3132.3461	3155.9592	3176.625
CC12CCC1C1OC21	C[C@]12CC[C@H]1[C@H]1O[C@@H]21	
InChI=1S/C7H10O/c1-7-3-2-4(7)5-6(7)8-5/h4-6H,2-3H2,1H3	InChI=1S/C7H10O/c1-7-3-2-4(7)5-6(7)8-5/h4-6H,2-3H2,1H3/t4-,5+,6+,7-/m0/s1
