20
gdb 69001	2.91123	1.40171	1.11238	1.9338	79.63	-0.2367	0.0782	0.3149	1159.2761	0.170725	-403.09486	-403.086247	-403.085303	-403.128025	33.025	
C	 0.3836843134	 1.3751088898	-0.0399188766	-0.502665
C	-0.00050505	-0.0486396196	 0.1986069954	 0.337698
C	-1.3581913396	-0.7295276542	-0.049534848	-0.278061
C	-0.99993992	-1.7607963365	 1.0757315422	-0.29477
C	 0.3455937012	-1.0353268735	 1.2496838291	 0.362178
O	 0.9956563768	-1.0723646161	-0.0329686415	-0.329978
C	 1.2137703032	-0.9671996547	 2.4505474474	-0.139251
C	 2.3690695105	-1.8956637141	 2.5748735857	-0.237656
N	 2.5884050517	-0.4608215283	 2.3250653586	-0.323288
H	 1.3380258648	 1.6092996143	 0.4381109132	 0.141175
H	 0.4761547031	 1.5771854665	-1.1132744439	 0.131766
H	-0.379115516	 2.0489925415	 0.3631346331	 0.12638
H	-2.2119571279	-0.0988094657	 0.2105948093	 0.104773
H	-1.493751715	-1.1297301799	-1.0570681684	 0.109307
H	-1.6516125177	-1.6736485983	 1.9487080623	 0.107135
H	-0.9221305	-2.8102235418	 0.7820016172	 0.109525
H	 0.7017401264	-0.6538264954	 3.3581852211	 0.093348
H	 2.6764507136	-2.2462638493	 3.5557275139	 0.117903
H	 2.5423573918	-2.5908144865	 1.7582215455	 0.123153
H	 2.7793620696	-0.3438626681	 1.3310059743	 0.241328
87.6142	132.1373	173.3903	193.3461	239.3321	286.5568	341.0918	390.0361	512.3149	525.6714	633.7892	691.0477	728.8982	774.9779	846.8282	878.8888	882.0435	909.7848	936.6644	975.1319	993.574	1017.3264	1062.4982	1074.1843	1109.962	1144.2287	1156.481	1176.8065	1200.2478	1214.0671	1225.0885	1227.4474	1279.0351	1305.7755	1314.7149	1398.0666	1420.3626	1463.6779	1468.007	1482.1367	1488.7038	1503.5013	1521.6163	3034.1851	3061.2362	3068.6235	3096.3114	3112.282	3113.0514	3123.937	3126.4638	3129.2879	3202.4067	3484.9217
CC12CCC1(O2)C1CN1	C[C@]12CC[C@]1(O2)[C@H]1CN1	
InChI=1S/C7H11NO/c1-6-2-3-7(6,9-6)5-4-8-5/h5,8H,2-4H2,1H3	InChI=1S/C7H11NO/c1-6-2-3-7(6,9-6)5-4-8-5/h5,8H,2-4H2,1H3/t5-,6+,7+/m1/s1
