14
gdb 42240	4.20124	0.92596	0.8212	1.594	68.95	-0.2676	-0.099	0.1686	1311.7878	0.098689	-436.709154	-436.700703	-436.699758	-436.743824	29.445	
O	 0.4602251658	 0.0517723753	 0.5741279052	-0.264694
C	 0.129867413	 1.1723599783	 0.2764512156	 0.288168
C	 1.1549758112	 2.1863804527	-0.0546924972	 0.229452
N	 1.9400594885	 2.9944748772	-0.3150510496	-0.292229
C	-1.2899231106	 1.6562380264	 0.1586395723	-0.113917
C	-1.8728374611	 1.5801384688	-1.3070639366	-0.359606
C	-3.0684645406	 0.8111672784	-0.7076744706	 0.410987
O	-4.1387809292	 0.5071993643	-1.1379575478	-0.270308
C	-2.3877932566	 0.6777332881	 0.6604522607	-0.370392
H	-1.3715007814	 2.6681423846	 0.5611589524	 0.122779
H	-2.1019060615	 2.5258925839	-1.8014599174	 0.153779
H	-1.280066497	 0.958095395	-1.9854591788	 0.154797
H	-1.987509891	-0.3277624663	 0.8264227112	 0.166667
H	-2.9753480594	 0.9782771032	 1.5301353505	 0.144518
34.4207	56.3674	130.9251	194.1663	257.2538	303.6626	409.8784	441.8425	486.9373	566.7285	645.7945	686.3631	726.6366	754.5257	864.1671	929.087	965.6918	997.7197	1064.9097	1083.024	1115.3846	1179.7242	1200.8281	1231.8155	1233.9392	1362.6796	1425.6911	1442.6381	1791.9375	1908.4039	2337.1585	3063.3753	3068.0961	3092.9346	3131.0455	3133.676
O=C(C#N)C1CC(=O)C1	O=C(C#N)C1CC(=O)C1	
InChI=1S/C6H5NO2/c7-3-6(9)4-1-5(8)2-4/h4H,1-2H2	InChI=1S/C6H5NO2/c7-3-6(9)4-1-5(8)2-4/h4H,1-2H2
