14
gdb 124805	4.09137	1.08194	0.91193	3.3933	59.68	-0.2917	-0.0229	0.2688	1215.425	0.099187	-510.975405	-510.967136	-510.966192	-511.008891	29.364	
C	 0.0675329084	 1.2038691699	-0.5970015754	-0.408157
C	 0.0374080806	-0.0415675875	 0.3020614032	 0.016927
O	 0.5131576238	 0.203912059	 1.6024256848	-0.407154
C	-1.3457973208	-0.6259266833	 0.3460083784	 0.428918
N	-2.094250497	-0.6857218117	 1.3837274511	-0.189547
O	-3.3055031461	-1.2567315301	 0.9104352435	-0.227167
C	-3.1905765529	-1.5098507199	-0.4172256622	 0.512603
O	-4.0002245806	-1.9855517687	-1.1371760019	-0.35072
O	-1.9154416396	-1.0974999848	-0.7865456691	-0.230266
H	 1.0883713514	 1.5902003712	-0.6299350246	 0.144619
H	-0.2568796833	 0.9653606945	-1.613737644	 0.143345
H	-0.5891959122	 1.9822739201	-0.1952668484	 0.129562
H	 0.7012496964	-0.8036254141	-0.1247100744	 0.135117
H	-0.1643073579	 0.6835764355	 2.0943930589	 0.30192
58.9843	124.9853	159.9794	233.4148	248.1326	281.1046	344.6965	403.686	468.4439	559.7794	661.1258	720.6615	767.0817	778.3319	876.7883	905.993	958.5393	989.3601	1044.692	1085.7919	1132.3392	1160.9527	1272.5732	1328.6296	1363.303	1403.174	1434.0666	1489.8096	1496.5194	1682.9397	1956.9003	3042.7131	3047.7892	3121.1527	3139.6665	3793.8874
CC(O)C1=NOC(=O)O1	C[C@@H](O)c1noc(=O)o1	
InChI=1S/C4H5NO4/c1-2(6)3-5-9-4(7)8-3/h2,6H,1H3	InChI=1S/C4H5NO4/c1-2(6)3-5-9-4(7)8-3/h2,6H,1H3/t2-/m1/s1
