20
gdb 97656	3.35031	0.69745	0.65292	1.2052	87.21	-0.2343	0.0233	0.2576	1804.8203	0.168519	-403.095127	-403.084379	-403.083435	-403.132163	37.83	
C	-0.1971121679	 1.5136823365	 0.119627542	-0.40204
C	-0.1308359777	 0.0107918484	 0.2447039598	-0.022116
N	 1.0732542715	-0.6647296833	-0.2500533843	-0.365471
C	 0.7691051205	-0.7196239095	 1.2062142706	 0.137458
C	 1.7536236247	-0.0004914228	 2.1107957985	-0.456925
C	 0.2594157422	-1.9638467941	 1.7290246546	-0.004564
C	-0.1399769795	-3.0175626575	 2.1615228353	 0.083038
C	-0.6703203604	-4.2607707171	 2.7183608706	-0.19636
O	-2.0768385181	-4.2401565442	 2.9260499454	-0.401776
H	 0.7806362473	 1.9758456983	 0.2667131407	 0.129408
H	-0.5460060132	 1.7894552718	-0.8814388657	 0.125186
H	-0.8985354636	 1.9350861893	 0.8475588316	 0.119879
H	-1.0792514945	-0.4913173861	 0.0603066602	 0.09245
H	 0.832192808	-1.5528991635	-0.6824124707	 0.236643
H	 2.1454772533	 0.8945920278	 1.6258536527	 0.129533
H	 1.2770744873	 0.2842858932	 3.053980406	 0.121185
H	 2.5980873938	-0.6566217033	 2.3420137147	 0.129311
H	-0.4857522099	-5.0926921126	 2.0292854754	 0.139957
H	-0.1313627773	-4.4980504445	 3.6497743131	 0.118783
H	-2.2791599065	-3.4482617567	 3.4351012495	 0.286422
27.6291	71.4388	98.5961	156.805	163.7081	174.693	254.9865	272.4296	305.5196	340.286	352.0536	462.9128	504.2977	559.1246	566.9616	646.0778	759.104	821.3903	903.0471	973.45	983.7915	1023.8172	1035.97	1067.2187	1088.2907	1097.1141	1110.2096	1154.846	1214.4314	1246.0338	1304.0153	1337.0287	1356.9483	1403.569	1416.3786	1419.0249	1448.5116	1478.3217	1487.0717	1490.53	1494.3551	1507.5892	2344.8467	2975.3844	3038.0543	3046.2445	3059.8524	3097.5423	3109.7155	3115.5973	3135.2129	3145.6452	3506.962	3816.6162
CC1NC1(C)C#CCO	C[C@H]1N[C@]1(C)C#CCO	
InChI=1S/C7H11NO/c1-6-7(2,8-6)4-3-5-9/h6,8-9H,5H2,1-2H3	InChI=1S/C7H11NO/c1-6-7(2,8-6)4-3-5-9/h6,8-9H,5H2,1-2H3/t6-,7-/m1/s1
