21
gdb 100770	2.88175	1.00819	0.79144	4.0257	74.94	-0.2515	0.0727	0.3242	1452.632	0.180906	-461.334737	-461.324744	-461.3238	-461.369817	36.983	
C	 0.1350494013	 1.8029508671	-0.0272016135	-0.418395
C	 0.0326400954	 0.2710213856	 0.0321671805	-0.05306
C	 0.5746927073	-0.4332897585	-1.2292266709	 0.118732
O	 0.2317649921	-1.8149705604	-1.2228479798	-0.466621
C	-0.0019317065	 0.1010197767	-2.5419527664	-0.057648
O	 0.432441272	-0.6813682826	-3.6327253026	-0.429589
C	 0.7747566577	-0.2246729577	 1.2620562657	 0.088689
C	 0.0916247758	-0.7777172872	 2.4378898777	-0.185186
O	 0.7660171159	-1.6430721787	 1.5161071148	-0.256255
H	 1.1622877651	 2.1237336827	-0.2344345445	 0.124993
H	-0.5100161888	 2.2178299622	-0.804878981	 0.133919
H	-0.1658130915	 2.2488197478	 0.9263556478	 0.119559
H	-1.0215954101	-0.0201065627	 0.1223234296	 0.084333
H	 1.672334109	-0.3154725933	-1.2647770575	 0.067597
H	 0.4087373804	-2.1642654529	-0.3393928642	 0.30126
H	-1.1032978163	 0.1131187604	-2.4654392337	 0.080846
H	 0.3368336909	 1.1245913889	-2.7266045935	 0.10139
H	 0.333640947	-1.5977537878	-3.3446392169	 0.294129
H	 1.7585265696	 0.2233457896	 1.4146087298	 0.101693
H	 0.5538069354	-0.7126220988	 3.420938927	 0.124995
H	-0.9944910317	-0.8523796603	 2.4361687714	 0.124619
68.3542	83.6222	135.8093	168.3673	222.4419	254.8106	266.6777	322.6316	352.34	397.9395	443.5204	479.0861	490.0658	528.6373	575.7635	814.0532	853.5338	862.1314	920.9341	950.662	980.6874	1039.4842	1071.1003	1091.1519	1097.6332	1123.9432	1149.84	1159.1164	1167.4601	1196.4933	1223.0729	1277.3311	1296.0837	1311.1346	1323.3302	1364.5062	1380.8711	1409.6423	1440.5735	1444.2333	1461.1291	1498.6784	1501.1835	1507.9131	1526.0004	2943.1959	2959.0094	3030.1265	3035.6102	3085.1449	3091.3262	3096.0669	3099.5727	3124.2497	3182.1763	3749.5182	3778.5663
CC(C(O)CO)C1CO1	C[C@@H]([C@@H](O)CO)[C@H]1CO1	
InChI=1S/C6H12O3/c1-4(5(8)2-7)6-3-9-6/h4-8H,2-3H2,1H3	InChI=1S/C6H12O3/c1-4(5(8)2-7)6-3-9-6/h4-8H,2-3H2,1H3/t4-,5-,6+/m0/s1
