14
gdb 48470	2.18738	1.68092	1.23859	1.6924	68.85	-0.2569	-0.045	0.2118	1019.0152	0.099379	-436.661846	-436.653656	-436.652712	-436.695257	29.27	
O	-0.4296906273	 0.6640309439	 0.6788008478	-0.241431
C	 0.3472581072	 0.9157826069	-0.1996545283	 0.149632
C	 1.4566834787	 1.9926541939	-0.0926076375	-0.006419
C	 1.5227358803	 2.6317629604	 1.3219933803	-0.159933
O	 2.7782300162	 2.1501217863	 1.8601503691	-0.210401
C	 3.332497636	 1.4066730287	 0.8875706609	 0.132613
N	 2.741209	 1.2505802888	-0.2271831991	-0.298755
C	 1.2570211992	 2.949017132	-1.173890176	 0.294183
C	 1.0306477928	 3.7227271259	-2.0651440661	-0.437255
H	 0.3581375541	 0.3799432574	-1.1681005386	 0.1193
H	 1.5511657071	 3.7213632144	 1.29774481	 0.137111
H	 0.7071855465	 2.2780602411	 1.9553838687	 0.156531
H	 4.2946706657	 0.9751021488	 1.1407769894	 0.155627
H	 0.8528357035	 4.4137567715	-2.8523730906	 0.209198
75.1588	78.7791	160.0939	174.3827	265.86	330.475	465.9275	481.3965	524.2195	564.8516	640.9258	657.6389	660.6654	809.1105	890.4867	921.085	949.8458	967.5268	977.7262	1055.9566	1121.8667	1156.4142	1200.4939	1239.2568	1317.2496	1365.1755	1401.5962	1508.6491	1682.1139	1837.1071	2235.2938	2957.1296	3084.5313	3146.4109	3218.583	3498.5177
O=CC1(COC=N1)C#C	O=C[C@]1(COC=N1)C#C	
InChI=1S/C6H5NO2/c1-2-6(3-8)4-9-5-7-6/h1,3,5H,4H2	InChI=1S/C6H5NO2/c1-2-6(3-8)4-9-5-7-6/h1,3,5H,4H2/t6-/m0/s1
