18
gdb 128137	1.91656	1.80824	0.99305	3.5274	75.94	-0.2039	0.0218	0.2257	1199.9653	0.147463	-435.258488	-435.249009	-435.248065	-435.292907	34.316	
C	 0.3662806727	 1.4117693704	 0.3900394919	-0.327852
N	-0.1847635054	 0.1829725525	-0.1917050195	-0.402543
C	 0.5789771146	-0.4025341131	-1.2305295903	-0.073556
C	 0.269018722	-0.3225268326	-2.5638514539	 0.469191
N	-0.7388913383	 0.3464507044	-3.208386717	-0.592949
O	 1.1661341344	-0.975820229	-3.3007913106	-0.225168
N	 2.1368272072	-1.5505780817	-2.4311808566	-0.239976
C	 1.7735436649	-1.1872320245	-1.223973748	 0.368602
C	 2.5818980228	-1.6311403003	-0.0467735851	-0.501567
H	 1.3615317793	 1.2900510679	 0.8457950472	 0.105895
H	 0.4484184388	 2.1723189774	-0.3916926696	 0.134082
H	-0.3196145862	 1.7849283801	 1.1570461201	 0.116119
H	-0.3883529604	-0.4882482529	 0.5400581229	 0.226074
H	-1.5085674969	 0.5592814638	-2.5872977309	 0.264759
H	-1.0292313558	-0.0640489941	-4.0846495398	 0.263598
H	 3.0163112776	-0.7750858237	 0.4801455235	 0.137233
H	 1.9628416405	-2.1782142411	 0.6728072845	 0.126994
H	 3.3920740681	-2.2850319634	-0.3751451387	 0.151066
64.8981	116.8742	150.7554	173.8992	184.4654	251.8503	255.2691	346.7205	367.1752	427.067	523.9642	575.4092	620.2288	666.9317	671.781	736.5592	786.2362	807.3635	893.4759	1019.2673	1041.7831	1053.3158	1063.897	1099.6907	1155.8839	1174.1026	1313.6846	1371.2777	1411.9485	1451.5241	1453.3595	1473.3059	1479.9171	1490.8762	1499.5835	1520.9796	1554.5133	1619.882	1695.2857	2979.6819	3037.532	3070.1741	3091.477	3112.6229	3136.8612	3525.672	3550.3761	3659.2504
CNC1=C(N)ON=C1C	CNc1c(N)onc1C	
InChI=1S/C5H9N3O/c1-3-4(7-2)5(6)9-8-3/h7H,6H2,1-2H3	InChI=1S/C5H9N3O/c1-3-4(7-2)5(6)9-8-3/h7H,6H2,1-2H3
