19
gdb 107286	3.5393	1.2528	1.16132	3.1113	74.35	-0.2405	0.0566	0.2971	1140.5082	0.158702	-422.957109	-422.949121	-422.948177	-422.98981	30.853	
C	-0.1875714427	 1.5467198234	 0.1756367837	-0.385
C	 0.1349507221	 0.0529571339	 0.0454660212	-0.304748
C	 0.7535681928	-0.313458452	-1.2691962335	 0.412292
O	 1.505686759	-1.5261041924	-1.35023296	-0.272522
C	 2.1583242383	-0.3169423491	-1.7519110885	-0.076215
C	 1.6884555715	 0.0069618496	-3.1990843893	 0.100131
O	 1.4847573554	-1.117718639	-4.065653844	-0.28487
C	 0.0932646728	-1.2285000292	-3.6629306531	-0.084634
C	 0.2247885026	-0.0203654662	-2.7068861534	-0.179551
H	 0.7142145901	 2.156454575	 0.0596688011	 0.120865
H	-0.9104956862	 1.8707477079	-0.5797563325	 0.122135
H	-0.6175113697	 1.7636898383	 1.1574706557	 0.121361
H	 0.8259678057	-0.2592302702	 0.8361564603	 0.117819
H	-0.780610326	-0.5381021882	 0.1826471604	 0.110874
H	 3.0953397525	-0.0802616949	-1.2581083687	 0.100954
H	 2.1650763037	 0.8645435476	-3.6808814134	 0.080087
H	-0.5743925014	-1.0578961978	-4.5153070032	 0.097962
H	-0.1229302562	-2.194578668	-3.1986318857	 0.116193
H	-0.4463852444	 0.8274339715	-2.827146327	 0.086865
73.5375	137.2078	195.185	228.7791	284.786	305.4172	422.1921	521.5968	549.1369	655.9046	725.488	769.8976	815.5398	830.4569	870.6355	891.8748	926.2859	948.3202	962.9313	994.367	1016.3645	1024.7416	1051.7124	1081.0747	1111.132	1159.9426	1166.6691	1177.0549	1224.0528	1245.1799	1274.314	1287.6492	1311.4341	1347.5505	1355.4874	1410.7119	1453.3326	1480.0806	1499.4615	1503.4675	1509.2245	3021.1161	3029.9439	3039.2821	3070.0289	3079.41	3093.9497	3108.5987	3113.4738	3138.1171	3168.0773
CCC12OC1C1OCC21	CC[C@]12O[C@H]1[C@H]1OC[C@@H]21	
InChI=1S/C7H10O2/c1-2-7-4-3-8-5(4)6(7)9-7/h4-6H,2-3H2,1H3	InChI=1S/C7H10O2/c1-2-7-4-3-8-5(4)6(7)9-7/h4-6H,2-3H2,1H3/t4-,5+,6+,7-/m1/s1
