19
gdb 100244	2.06514	1.31203	1.0065	1.5747	77.74	-0.2463	-0.0304	0.2159	1268.7206	0.154593	-423.004739	-422.994242	-422.993297	-423.040424	37.914	
C	 0.6389072416	-0.6733349667	 1.3965662185	-0.401765
C	 0.1007108761	 0.0142798824	 0.1381562329	-0.199024
C	 0.8090352848	-0.4028242085	-1.1689537068	 0.255335
O	 2.1949344206	-0.1755657752	-0.9871956416	-0.462978
C	 0.4983834024	-1.8690489981	-1.5634304693	-0.394135
C	 1.3977256189	-2.3366166755	-2.6113329494	 0.260198
C	 2.1900253574	-2.6657459299	-3.454933789	-0.417623
C	 0.2931863689	 0.5472572596	-2.2613246843	 0.134755
O	-0.6731062129	 0.3492301861	-2.9494157926	-0.255756
H	 0.4482807565	-1.7510025631	 1.3921926113	 0.118068
H	 1.7159482075	-0.5188379925	 1.4861725725	 0.144251
H	 0.1534270596	-0.2599953187	 2.2854467934	 0.117698
H	-0.9724583063	-0.1697477495	 0.0159964133	 0.114712
H	 0.2219363043	 1.0992579728	 0.2473164098	 0.109375
H	 2.6625863541	-0.6447415411	-1.6915727218	 0.287708
H	 0.5905470952	-2.5171735929	-0.6867617284	 0.136664
H	-0.5388393943	-1.9123412779	-1.9114259057	 0.156919
H	 2.8585582134	-2.98653714	-4.2155597928	 0.20476
H	 0.9029971325	 1.4758480789	-2.3387666201	 0.090839
61.0452	74.8959	103.1632	137.802	218.7644	234.2845	259.5423	329.3624	331.2987	344.7906	396.8595	431.832	455.7472	542.1487	625.6248	632.3591	665.8095	781.1038	794.2224	880.9912	913.5333	964.9582	999.8742	1038.0922	1054.1741	1089.874	1154.2156	1200.586	1263.8874	1295.5322	1330.4866	1367.9116	1387.3272	1398.2088	1409.1477	1455.7047	1478.9271	1499.3507	1507.9261	1832.0701	2230.0058	2884.8846	3029.8474	3046.5309	3054.4373	3074.9582	3098.0845	3108.8188	3138.6897	3502.9734	3745.765
CCC(O)(CC#C)C=O	CC[C@@](O)(CC#C)C=O	
InChI=1S/C7H10O2/c1-3-5-7(9,4-2)6-8/h1,6,9H,4-5H2,2H3	InChI=1S/C7H10O2/c1-3-5-7(9,4-2)6-8/h1,6,9H,4-5H2,2H3/t7-/m1/s1
