18
gdb 10562	3.60629	1.29675	1.08161	3.4653	69.89	-0.2468	-0.0198	0.2271	1137.1801	0.151509	-384.927489	-384.918543	-384.917599	-384.961585	31.223	
C	-0.4459443735	 1.4566100478	-0.2463988659	-0.224395
O	-0.3615161032	 0.0508163097	-0.2680597982	-0.236627
C	 0.7253456923	-0.4249638049	-1.0353857569	-0.167799
C	 0.7724379847	-1.9251126173	-0.9141432687	 0.254057
C	-0.1767881332	-2.77100505	-1.7529883858	-0.273096
C	 1.2723336193	-2.7583867803	-2.091246807	-0.302591
C	 1.0934345276	-2.457977199	 0.439630834	 0.100238
O	 1.1484734753	-3.6332804517	 0.7155305302	-0.275899
H	 0.4590954979	 1.9145197817	 0.1833103695	 0.105766
H	-0.5927577717	 1.8722544678	-1.2559145622	 0.10503
H	-1.3053138833	 1.722658427	 0.37329033	 0.131755
H	 0.6179623485	-0.1281842261	-2.0920122214	 0.087977
H	 1.6688081361	 0.020331109	-0.6714292401	 0.090057
H	-0.5719613814	-3.654283699	-1.2650698723	 0.1415
H	-0.8711304719	-2.2322599183	-2.3877349258	 0.124365
H	 1.6036644025	-2.2173998315	-2.9709081181	 0.119703
H	 1.8595965873	-3.6306577012	-1.8288140476	 0.140709
H	 1.2900660167	-1.6792439938	 1.2084302362	 0.07925
71.747	92.9578	104.7167	157.9057	226.2963	247.1649	301.7486	335.5953	364.127	443.9829	659.4921	758.4128	796.2222	836.629	928.0632	953.429	966.4487	1017.5538	1053.3758	1067.1771	1072.3336	1102.1547	1153.1395	1183.1392	1204.1243	1225.5834	1250.0565	1307.6512	1346.19	1421.8767	1438.4279	1454.9012	1481.0265	1485.8988	1487.0805	1503.0649	1523.6278	1809.143	2894.8219	2942.8137	2971.0138	2979.0718	3015.0694	3118.2344	3138.7666	3142.896	3227.743	3241.8821
COCC1(CC1)C=O	COCC1(CC1)C=O	
InChI=1S/C6H10O2/c1-8-5-6(4-7)2-3-6/h4H,2-3,5H2,1H3	InChI=1S/C6H10O2/c1-8-5-6(4-7)2-3-6/h4H,2-3,5H2,1H3
