27
gdb 100292	1.5853	1.39449	1.07262	1.3529	91.7	-0.2611	0.0698	0.3309	1404.5153	0.249325	-390.701251	-390.689284	-390.68834	-390.737479	45.068	
C	-1.6704453106	-0.4886518812	 0.0218264044	-0.404475
C	-0.1466408122	-0.3148364078	 0.0251966474	-0.182672
C	 0.598498671	-0.6863941614	 1.3391034474	 0.274398
C	 0.5346899512	-2.210101116	 1.5633485512	-0.437226
C	 2.0752966134	-0.2171117174	 1.2409398626	-0.194197
C	 2.8631503176	-0.6812314386	 0.0089678768	-0.403216
C	-0.0926415012	 0.0284696741	 2.5343818432	 0.131602
C	 0.5711221047	-0.1494562406	 3.9028527528	-0.429313
O	-0.1709613311	 1.416846096	 2.2010779621	-0.446209
H	-2.1543092819	 0.2167108416	 0.7026995638	 0.124792
H	-2.0664515458	-0.2968612422	-0.9807410367	 0.106389
H	-1.9769327343	-1.5020061569	 0.30180492	 0.108587
H	 0.2751068783	-0.9238375468	-0.7822183492	 0.087387
H	 0.082149496	 0.7273964174	-0.218296439	 0.107272
H	 0.8889847403	-2.7491355921	 0.6796772648	 0.114518
H	 1.1565874703	-2.5231039993	 2.4077726978	 0.10963
H	-0.4873346679	-2.5488788328	 1.7623938159	 0.110621
H	 2.082236955	 0.8774914283	 1.2792767428	 0.109003
H	 2.6108036231	-0.5613231706	 2.1338656464	 0.084813
H	 2.8773848417	-1.771941917	-0.0861668898	 0.111634
H	 2.4572789207	-0.2708554657	-0.9198147387	 0.119314
H	 3.9036245245	-0.3486375027	 0.0833092031	 0.108273
H	-1.1113486315	-0.3846326103	 2.6071740221	 0.060595
H	-0.0304963389	 0.3513399764	 4.6714993834	 0.101051
H	 0.6422323635	-1.2023491056	 4.1890565275	 0.120474
H	 1.5716413117	 0.2894438983	 3.9251777929	 0.127889
H	-0.5358104375	 1.8828999628	 2.9593346949	 0.279063
82.5432	95.5832	109.6845	192.477	211.5622	219.6523	241.1243	251.6538	260.8144	275.2077	293.6143	329.2965	355.8139	364.7326	437.7066	457.9734	513.4482	575.8857	674.8952	782.0145	790.3976	859.5499	882.2047	926.6693	972.0854	1013.0013	1017.314	1041.2666	1049.5193	1055.8883	1079.708	1120.5532	1129.6535	1185.957	1219.0541	1226.6072	1289.3096	1313.6555	1346.8893	1368.4938	1377.2576	1385.0564	1402.1229	1406.1306	1409.8142	1411.505	1423.0284	1480.3224	1487.1064	1493.8794	1497.5581	1502.3811	1504.323	1506.9636	1507.9289	1512.3551	1516.1301	2966.7579	3027.5027	3029.7855	3034.407	3035.7	3037.6764	3042.2668	3071.592	3078.8197	3091.9852	3095.9162	3098.6214	3102.1895	3107.1992	3113.5667	3116.5803	3129.1666	3824.0828
CCC(C)(CC)C(C)O	CCC(C)(CC)[C@@H](C)O	
InChI=1S/C8H18O/c1-5-8(4,6-2)7(3)9/h7,9H,5-6H2,1-4H3	InChI=1S/C8H18O/c1-5-8(4,6-2)7(3)9/h7,9H,5-6H2,1-4H3/t7-/m1/s1
