13
gdb 13039	4.95079	1.24495	1.04285	3.2468	59.51	-0.2809	-0.0563	0.2247	1043.6411	0.094185	-398.602212	-398.594705	-398.593761	-398.635011	25.795	
O	-0.0835266461	-0.0273408085	-0.0417612236	-0.260388
C	-0.0552097931	 1.1614008352	 0.0136600574	 0.33528
C	-1.0545919369	 2.3010526476	 0.2417562184	-0.188248
O	 0.0422567606	 3.2418829511	 0.2326608295	-0.280185
C	 1.0409099993	 2.2433253432	-0.0539794006	 0.014184
C	 2.1495365987	 2.1463315872	 0.9993551834	-0.353456
C	 3.0549787118	 3.2920716716	 0.9655754922	 0.267191
N	 3.7712224158	 4.1974063348	 0.9260075245	-0.293097
H	-1.7645161434	 2.4633609486	-0.5788014442	 0.145215
H	-1.5957926016	 2.280402227	 1.1951479197	 0.145654
H	 1.4733593284	 2.3735631435	-1.0548463141	 0.132344
H	 1.7056505445	 2.0672012206	 1.9971580349	 0.16228
H	 2.7216978521	 1.228941798	 0.8180585326	 0.173225
57.2786	113.0594	120.4745	205.6293	358.9733	389.2716	419.4986	534.1691	568.7008	691.8854	814.9383	856.9519	917.2946	985.9489	1006.3602	1041.9917	1080.4943	1095.8007	1137.6248	1219.9592	1238.712	1287.6547	1327.8589	1368.5791	1449.1667	1481.4954	1929.6094	2367.4731	3023.0863	3031.6737	3049.4766	3075.7085	3095.6239
O=C1COC1CC#N	O=C1CO[C@H]1CC#N	
InChI=1S/C5H5NO2/c6-2-1-5-4(7)3-8-5/h5H,1,3H2	InChI=1S/C5H5NO2/c6-2-1-5-4(7)3-8-5/h5H,1,3H2/t5-/m0/s1
