12
gdb 125557	5.71029	1.38792	1.12437	6.3961	61.96	-0.296	-0.0511	0.2449	986.4528	0.078945	-464.94226	-464.935784	-464.93484	-464.973351	23.615	
C	-0.016181026	 1.4200177222	 0.0423537392	-0.494711
C	-0.012536383	-0.0554379609	-0.0508789136	 0.40903
N	-0.2026021548	-0.7795903625	-1.1103546307	-0.264044
N	-0.0890841644	-2.0524496698	-0.607433067	 0.102645
N	-0.1538530339	-3.3253714396	-1.045332222	-0.143829
N	 0.0594457466	-4.0343418826	 0.0283850281	-0.091846
N	 0.2631510553	-3.2758088881	 1.1620875013	-0.345266
C	 0.1591859922	-2.0578078202	 0.7042983222	 0.524107
O	 0.2182422356	-0.7737929393	 1.1139248707	-0.219673
H	 0.9487508435	 1.7820924456	 0.4098686684	 0.172074
H	-0.2095175838	 1.8383151301	-0.9453832828	 0.179441
H	-0.7893879773	 1.7569561251	 0.7394142764	 0.172072
129.4578	145.5402	284.0079	313.7303	360.7328	510.6037	593.4514	663.2278	696.4105	763.9342	806.6968	838.6244	925.1002	958.8519	1033.3578	1067.2134	1090.6116	1135.6379	1256.5962	1285.516	1370.8846	1421.1194	1467.3312	1471.6781	1478.378	1602.2747	1644.8161	3054.3898	3115.9792	3166.6838
CC1=NN2N=NN=C2O1	Cc1nn2nnnc2o1	
InChI=1S/C3H3N5O/c1-2-5-8-3(9-2)4-6-7-8/h1H3	InChI=1S/C3H3N5O/c1-2-5-8-3(9-2)4-6-7-8/h1H3
