19
gdb 53728	3.24379	0.71874	0.67755	3.4148	83.89	-0.2552	-0.0461	0.209	1750.938	0.15403	-423.020365	-423.009221	-423.008277	-423.0578	38.899	
C	 0.6585916289	 1.2702079939	 0.1168857403	-0.476548
C	-0.2270308774	 0.0465804429	 0.0010024512	 0.244831
O	-0.9575370659	-0.3285990372	 0.8937719911	-0.278676
C	-0.1468039409	-0.6606894418	-1.2635263157	-0.017879
C	-0.0701613414	-1.2389788094	-2.3200228174	 0.171669
C	-0.0273871298	-1.9906216633	-3.5783085388	 0.137995
C	 0.4483568593	-3.4301782224	-3.2985365403	-0.405765
C	-1.4263159733	-1.9837249535	-4.2262812308	-0.405784
O	 0.9115629657	-1.314828755	-4.4220181918	-0.452755
H	 1.7074749944	 0.9899091986	-0.028066282	 0.148489
H	 0.4104001634	 1.9897062937	-0.6707911348	 0.148464
H	 0.5240967998	 1.7266974823	 1.0985673602	 0.141528
H	-0.2269111634	-3.9434958298	-2.6091919972	 0.135033
H	 0.4765623459	-3.9951791881	-4.2373265509	 0.108926
H	 1.451580062	-3.4159738109	-2.8675149912	 0.137858
H	-1.73328066	-0.9585883625	-4.4437847358	 0.137856
H	-1.3976308485	-2.5492025395	-5.1647685427	 0.10893
H	-2.168935374	-2.4450072961	-3.5702253478	 0.135039
H	 0.9460552852	-1.8025733918	-5.2527230954	 0.28079
26.1	73.0662	86.2545	122.148	185.8546	226.933	237.81	249.3562	269.9728	298.9925	346.7519	406.0609	447.7156	556.1818	564.296	585.1464	612.5967	650.6545	808.0849	920.6193	935.2954	962.7832	999.4159	1017.8894	1043.1209	1154.4052	1177.151	1192.3537	1232.815	1380.1679	1387.6137	1390.8934	1411.9413	1460.3101	1467.9512	1476.1527	1478.9173	1493.1278	1507.7908	1766.9906	2330.9625	3033.6062	3038.3997	3039.915	3104.1774	3108.1806	3114.1821	3137.1692	3139.4767	3151.9754	3801.6627
CC(=O)C#CC(C)(C)O	CC(=O)C#CC(C)(C)O	
InChI=1S/C7H10O2/c1-6(8)4-5-7(2,3)9/h9H,1-3H3	InChI=1S/C7H10O2/c1-6(8)4-5-7(2,3)9/h9H,1-3H3
