19
gdb 41967	2.22619	2.08675	1.7966	2.5583	74.36	-0.2458	0.0008	0.2466	903.6267	0.163082	-423.029695	-423.022826	-423.021882	-423.060662	28.432	
C	 0.0107264826	 1.5305945295	 0.0112920986	-0.056237
O	 1.3253802902	 2.074643322	 0.0423214463	-0.259274
C	 2.3882603893	 1.1548515674	-0.119488556	 0.173552
O	 2.7192110112	 0.5428372228	 1.1191218167	-0.262876
C	 2.0345572147	-0.6577453082	 1.4536666065	-0.062127
C	 0.5055960122	-0.5747071057	 1.3590747194	-0.21943
C	-0.0024778986	-0.0084382138	 0.0031964711	-0.091738
C	 0.8812104969	-0.4362350263	-1.1494990032	-0.087325
C	 2.0731017451	 0.155007226	-1.2122612315	-0.097703
H	-0.5273288301	 1.9095326347	 0.889441323	 0.101286
H	-0.5011319433	 1.9024452094	-0.8873003061	 0.094846
H	 3.2551403231	 1.7740395791	-0.3590704935	 0.090328
H	 2.389141162	-1.4811357205	 0.819443043	 0.094613
H	 2.3349815866	-0.8810714944	 2.4815420343	 0.10612
H	 0.1130415594	-1.5870834876	 1.5138341598	 0.098058
H	 0.1096810909	 0.0490636187	 2.1690652715	 0.106403
H	-1.037585354	-0.3291590046	-0.1497336774	 0.073167
H	 0.5428533339	-1.1682884745	-1.875557879	 0.096315
H	 2.8102911478	-0.0431516742	-1.9819269233	 0.102024
116.5026	280.0705	318.6147	346.9529	352.8186	455.8721	507.4257	570.8801	635.1563	683.0724	731.6906	776.1431	816.7223	860.4212	909.2404	950.0873	964.335	975.153	994.4129	1001.2779	1035.4502	1063.0229	1094.7915	1111.4789	1129.5693	1178.2848	1237.6954	1238.968	1279.0548	1323.1378	1335.2575	1347.7449	1368.8831	1390.4326	1400.4501	1416.746	1422.8901	1480.0631	1503.4806	1515.8691	1694.2186	3001.1532	3014.3567	3026.6706	3042.0074	3060.4277	3070.7183	3086.3723	3094.9586	3173.4769	3200.3473
C1OC2OCCC1C=C2	C1O[C@H]2OCC[C@@H]1C=C2	
InChI=1S/C7H10O2/c1-2-7-8-4-3-6(1)5-9-7/h1-2,6-7H,3-5H2	InChI=1S/C7H10O2/c1-2-7-8-4-3-6(1)5-9-7/h1-2,6-7H,3-5H2/t6-,7+/m0/s1
