18
gdb 6257	4.52851	1.05807	0.97042	2.6295	74.2	-0.2439	-0.0598	0.1842	1246.5071	0.151716	-381.146077	-381.136664	-381.13572	-381.180209	33.792	
C	 0.2247802172	 1.6271595122	-0.1256054675	-0.376459
C	 0.0090729776	 0.118532677	 0.0895479088	 0.044511
C	-1.4672074263	-0.2008631232	 0.3409681158	-0.377017
N	 0.4497446566	-0.6154523403	-1.0914676767	-0.267782
C	 1.6734462253	-0.9791285403	-1.186744972	 0.262649
N	 2.7171734468	-0.8286519169	-0.3125172499	-0.557629
C	 2.0374664608	-1.7250371432	-2.4362389572	 0.141225
O	 3.1625037573	-2.0879312196	-2.685012779	-0.270947
H	 1.2817248363	 1.8649966926	-0.2842957722	 0.105625
H	-0.3286017592	 1.9625652459	-1.0079479115	 0.130203
H	-0.1269547378	 2.1947968374	 0.7416491472	 0.115936
H	 0.580819776	-0.1911357953	 0.9816503996	 0.062921
H	-2.0700598447	 0.0994695004	-0.5216509671	 0.122609
H	-1.6087521041	-1.2744945296	 0.4928611986	 0.117914
H	-1.8358022265	 0.3257856962	 1.2272008859	 0.105351
H	 2.6956084681	-0.1034770405	 0.3822335538	 0.26352
H	 3.6210421177	-1.0823410311	-0.6842586177	 0.269678
H	 1.174322729	-1.8997770716	-3.104742899	 0.107693
60.009	90.9229	158.0431	218.5022	222.1155	262.4266	280.5207	330.7522	350.1013	420.6946	455.0072	495.21	533.1415	655.1186	701.7189	833.9828	909.7048	930.4424	954.2317	965.9662	1031.6988	1115.5615	1139.1403	1156.6661	1197.8962	1337.2985	1358.3083	1372.8678	1389.1958	1399.4038	1416.4944	1481.3162	1486.1523	1496.1208	1509.6861	1608.801	1722.0845	1805.3393	2942.7334	2977.7291	3033.662	3038.4126	3103.1887	3109.4502	3115.043	3117.467	3584.1051	3721.1741
CC(C)N=C(N)C=O	CC(C)N=C(N)C=O	
InChI=1S/C5H10N2O/c1-4(2)7-5(6)3-8/h3-4H,1-2H3,(H2,6,7)	InChI=1S/C5H10N2O/c1-4(2)7-5(6)3-8/h3-4H,1-2H3,(H2,6,7)
