14
gdb 128008	4.0672	1.22939	0.94961	3.6203	72.94	-0.2391	-0.0925	0.1466	1171.3903	0.099101	-466.144034	-466.135175	-466.134231	-466.178983	30.524	
C	 0.0169511442	 1.4469185795	-0.0450410805	-0.319232
N	-0.0068199583	-0.0049345227	 0.0156430066	-0.3094
C	 0.5207595833	-0.6772547369	-0.9064221408	 0.468917
O	 1.133161135	 0.0002719386	-1.9962193843	-0.269573
N	 1.7345807809	-0.6971019769	-3.0466768636	 0.071425
N	 1.7351617793	-1.9316459277	-3.0311526121	-0.171412
C	 1.1186228319	-2.6101425952	-1.9357626618	 0.479101
N	 1.2065032954	-3.9446403226	-2.073670426	-0.546656
N	 0.5444538247	-2.0508922773	-0.9306108454	-0.346741
H	 1.0403170743	 1.8437405095	-0.0682847848	 0.124467
H	-0.4982361937	 1.8323388977	-0.9346168584	 0.124495
H	-0.4848189982	 1.8430873278	 0.8405897316	 0.122667
H	 1.6659118045	-4.3330634193	-2.8778613562	 0.285934
H	 0.8107499766	-4.5413833545	-1.3679682642	 0.286007
27.3583	87.0646	105.951	153.9086	200.0392	292.1766	368.8222	407.9064	511.4825	545.6086	566.8639	570.0245	712.7831	729.9928	753.027	787.4843	899.8402	977.292	1040.7348	1079.4175	1111.931	1156.8653	1293.8544	1398.8397	1440.178	1485.4087	1501.3098	1587.6035	1625.0103	1729.8432	1791.1038	3005.6864	3056.7999	3109.3068	3625.0756	3763.5139
CN=C1ON=NC(N)=N1	C[N]C1=NC(=N[N]O1)N	
InChI=1S/C3H5N5O/c1-5-3-6-2(4)7-8-9-3/h1H3,(H2,4,5,6)	InChI=1S/C3H5N5O/c1-5-3-6-2(4)7-8-9-3/h1H3,(H2,4,5,6)
