17
gdb 34419	2.39897	1.68693	1.28941	3.7589	71.68	-0.257	0.0175	0.2745	1018.4286	0.138247	-417.996242	-417.988592	-417.987648	-418.028702	28.93	
N	-0.0107408973	-1.1505240013	-0.0247904663	-0.339382
C	-0.0413628374	 0.0037187845	 0.0267643062	 0.275733
C	-0.0467154896	 1.4634800693	 0.0697376025	 0.080398
C	-0.2819946701	 2.2189664701	-1.2577767293	-0.128347
O	 0.8707979374	 3.0478277166	-1.036864202	-0.285509
C	 1.3326350534	 2.210247225	 0.0520485994	 0.105283
C	 1.4558998589	 2.9307257823	 1.3965279532	-0.249439
C	 0.2394647074	 2.4043347809	 2.2036827382	-0.18024
N	-0.7791625804	 1.9845810708	 1.2243522828	-0.334932
H	-0.1749235524	 1.5886765751	-2.1478562319	 0.125779
H	-1.2157093095	 2.7899327972	-1.3223099452	 0.116449
H	 2.2077311055	 1.6234652049	-0.2418465074	 0.096928
H	 2.4078520371	 2.7292043123	 1.8941186227	 0.113662
H	 1.38267088	 4.0073274252	 1.2191232561	 0.12466
H	 0.5327625953	 1.5328476471	 2.8000040091	 0.128671
H	-0.1850324211	 3.1400879203	 2.8900056474	 0.117044
H	-1.3276300673	 2.7860975296	 0.9335884646	 0.233242
88.5292	130.602	157.3723	214.7439	368.7186	375.7224	516.9424	553.4036	577.2031	611.0672	667.0542	752.1413	831.2124	867.646	904.3665	922.0724	937.3767	1014.5992	1030.2844	1037.0602	1057.1681	1099.5575	1144.283	1152.7707	1194.1715	1214.2336	1235.5039	1288.7589	1313.4183	1330.4338	1358.9579	1368.252	1461.355	1479.5555	1506.0967	1521.1918	2356.1727	3023.8335	3044.1484	3062.283	3071.2435	3076.0292	3108.2246	3120.683	3536.8849
N#CC12COC1CCN2	N#C[C@]12CO[C@H]1CCN2	
InChI=1S/C6H8N2O/c7-3-6-4-9-5(6)1-2-8-6/h5,8H,1-2,4H2	InChI=1S/C6H8N2O/c7-3-6-4-9-5(6)1-2-8-6/h5,8H,1-2,4H2/t5-,6-/m0/s1
