20
gdb 38394	3.88706	1.28267	1.26443	1.5449	82.53	-0.2225	0.0855	0.308	1086.4944	0.172744	-365.931488	-365.924204	-365.923259	-365.963029	30.147	
C	 0.0213994016	 1.4485352779	 0.1150602703	-0.285804
C	 1.3415425271	 0.7519181033	-0.0441835817	-0.035627
C	 1.7594107638	 0.1130703921	 1.2864351047	-0.306505
C	 0.4381506399	-0.7158264604	 1.2828690828	 0.416322
C	 0.4791264456	-2.2859664517	 1.3103972281	-0.317372
C	-0.5057964171	-2.2512593017	 2.4814334321	-0.033356
N	 0.1625075393	-1.4762824854	 3.5563814368	-0.339473
C	-0.5436420559	-0.7646035767	 2.4584363243	-0.14044
C	 0.0375022366	-0.0502841991	-0.0359717379	-0.133401
H	-0.2459101196	 1.9071786775	 1.0652058885	 0.102434
H	-0.3306469629	 1.994714761	-0.7544393239	 0.10827
H	 2.000201518	 0.9622425249	-0.8778374889	 0.08263
H	 2.6373205333	-0.5315158607	 1.2016142675	 0.104039
H	 1.9081823317	 0.7964472757	 2.1288279061	 0.097248
H	 0.0555623268	-2.7205092331	 0.4009025413	 0.100938
H	 1.4465340819	-2.7479810545	 1.5253612379	 0.102572
H	-1.2853626905	-2.9650532735	 2.7173067102	 0.089274
H	-0.4671955739	-1.4777240912	 4.3592706041	 0.224483
H	-1.3558237174	-0.0790032476	 2.6706283333	 0.084505
H	-0.4706375283	-0.5467079367	-0.8553039657	 0.079264
130.1315	132.4921	222.6213	371.1488	398.3221	417.866	482.2771	539.7879	735.0754	761.0298	787.4399	814.5697	823.0684	837.491	888.4268	893.7059	929.6964	937.1523	969.2095	977.6714	982.0166	1005.4204	1034.6883	1060.1634	1079.6846	1083.6004	1102.2343	1119.7266	1142.1395	1154.2259	1181.6837	1196.8837	1219.5629	1243.5519	1247.554	1300.8263	1306.2815	1334.9726	1358.9851	1381.3601	1469.214	1478.9938	1495.2482	3048.016	3054.2844	3100.162	3104.5802	3111.8124	3166.2785	3176.1351	3182.5131	3192.5218	3197.7846	3463.4106
C1C2CC3(CC4NC34)C12	C1[C@H]2C[C@]3(C[C@H]4N[C@@H]34)[C@@H]12	
InChI=1S/C8H11N/c1-4-2-8(5(1)4)3-6-7(8)9-6/h4-7,9H,1-3H2	InChI=1S/C8H11N/c1-4-2-8(5(1)4)3-6-7(8)9-6/h4-7,9H,1-3H2/t4-,5-,6+,7+,8-/m0/s1
