20
gdb 78869	2.82965	1.77268	1.36625	0.8009	82.68	-0.2035	0.0884	0.2919	1008.8825	0.171364	-365.917904	-365.910338	-365.909393	-365.949412	31.177	
C	-0.0148441966	 1.5380284192	 0.0493232453	-0.328998
N	 0.0986490029	 0.0847236659	 0.0533541935	-0.078666
C	 1.1301220944	-0.5445483541	-0.7634634598	-0.029241
C	 1.3537850088	-1.6420638532	 0.2163732982	-0.090948
C	 2.4616027226	-0.6124485565	 0.0470251665	-0.19451
C	 2.1397291262	-0.0219473965	 1.4006987562	 0.429336
C	 2.972604796	-0.1917767078	 2.6328627851	-0.345435
C	 2.624966576	 1.1968070782	 2.1214818656	-0.341544
C	 0.7211858791	-0.6026195876	 1.2260141181	-0.138024
H	 0.9388394447	 2.0712442712	 0.1721062711	 0.110182
H	-0.4634226907	 1.8510979469	-0.8999178291	 0.11502
H	-0.6914445479	 1.8474674107	 0.8533464865	 0.113051
H	 1.1004450622	-0.5673381808	-1.8465347901	 0.09213
H	 1.325913307	-2.7185058397	 0.1421201055	 0.096504
H	 3.4288767174	-0.7436886408	-0.4219155751	 0.082875
H	 2.4882004232	-0.5332499684	 3.5433064812	 0.108387
H	 3.997286238	-0.5324948082	 2.5234320942	 0.11017
H	 3.4170259632	 1.7834211504	 1.6658287121	 0.110197
H	 1.9142015969	 1.7841998528	 2.6942896561	 0.110462
H	 0.0775970368	-0.7988398817	 2.0837180489	 0.069052
158.9616	189.8319	215.1528	268.3035	289.6435	339.8833	486.5806	601.8936	639.6584	676.6352	750.2611	778.3551	789.9572	797.5919	862.7635	868.7891	896.2066	935.6746	947.5896	970.9396	973.0343	1009.7993	1045.3198	1048.6363	1062.481	1067.294	1076.9609	1138.8031	1158.0581	1165.2067	1175.6308	1184.2645	1201.6398	1232.2497	1255.2891	1278.7433	1353.2139	1407.0767	1444.1948	1463.5465	1483.9675	1505.4245	1510.3813	2996.3272	3064.6714	3093.2979	3114.1879	3116.0717	3121.3896	3181.7533	3193.2706	3194.1447	3208.3814	3230.9046
CN1C2C3C2C2(CC2)C13	CN1[C@@H]2[C@H]3[C@@H]2C2(CC2)[C@@H]13	
InChI=1S/C8H11N/c1-9-6-4-5(6)8(2-3-8)7(4)9/h4-7H,2-3H2,1H3	InChI=1S/C8H11N/c1-9-6-4-5(6)8(2-3-8)7(4)9/h4-7H,2-3H2,1H3/t4-,5+,6-,7+/m1/s1
