22
gdb 22559	2.11253	1.216	1.04639	0.5641	85.46	-0.2354	0.0152	0.2507	1320.3424	0.191401	-404.306852	-404.296265	-404.295321	-404.342789	38.911	
C	-1.834625077	 0.0686591208	-0.5936728516	-0.376545
C	-0.3663014835	 0.079948721	-0.1529829296	-0.263748
C	 0.5704491717	-0.5781357766	-1.1614935047	 0.308515
C	 1.8362858568	-1.2311948215	-0.6323803309	-0.31281
C	 0.6927102081	-2.0787430427	-1.132417397	-0.30113
C	 0.6912225992	 0.1310174924	-2.4764781799	 0.282644
C	 1.1007270828	 1.5821824204	-2.4806735175	-0.484126
N	 0.4551872865	-0.5466582895	-3.5356164728	-0.176964
O	 0.6194430397	 0.219214015	-4.7038341269	-0.400027
H	-1.9715904106	 0.604120352	-1.5386932202	 0.122871
H	-2.1904663525	-0.9554779126	-0.7446665377	 0.121407
H	-2.4741453346	 0.5433654562	 0.156936691	 0.109219
H	-0.0457647882	 1.1123985828	 0.0354936422	 0.09632
H	-0.2658628775	-0.4460637943	 0.803837967	 0.095118
H	 2.7286709774	-1.177710813	-1.2467732022	 0.114992
H	 2.0222171206	-1.1830211506	 0.4359265178	 0.107216
H	 0.0959476127	-2.6105601271	-0.3986145298	 0.106049
H	 0.812186721	-2.5924136662	-2.0771668019	 0.130303
H	 1.7267724245	 1.7958891	-3.3489644324	 0.149525
H	 0.2235142236	 2.2362942949	-2.5492983435	 0.141422
H	 1.6418637189	 1.8361062211	-1.5665759323	 0.125972
H	 0.4477686203	-0.4313735526	-5.3923392169	 0.303778
46.3043	82.2281	96.6204	155.2651	194.5241	221.3575	234.6889	319.0282	339.847	352.1814	397.3398	439.9184	507.6995	523.4091	594.7983	728.1594	781.302	789.1238	855.9889	916.4991	932.2303	939.0792	966.7941	1012.1509	1026.3146	1050.3512	1055.0265	1079.5583	1086.5894	1117.1777	1178.9269	1189.8228	1276.7058	1291.3238	1354.3744	1369.3751	1396.5371	1411.7563	1416.624	1464.2282	1474.9426	1485.5318	1489.5182	1495.2622	1499.6008	1505.7987	1716.0726	3023.4662	3036.1957	3040.9892	3056.3305	3105.1785	3105.8637	3107.4634	3125.6466	3141.2119	3142.3118	3210.7478	3238.4162	3823.478
CCC1(CC1)C(C)=NO	CCC1(CC1)C(=NO)C	
InChI=1S/C7H13NO/c1-3-7(4-5-7)6(2)8-9/h9H,3-5H2,1-2H3	InChI=1S/C7H13NO/c1-3-7(4-5-7)6(2)8-9/h9H,3-5H2,1-2H3
