22
gdb 87182	3.51806	0.88555	0.86075	3.756	82.89	-0.2349	0.0339	0.2688	1467.7751	0.192467	-404.381931	-404.37136	-404.370415	-404.417634	39.074	
C	-0.0593497549	 1.5368288479	 0.0089085459	-0.417145
C	-0.2112353375	 0.0478025998	 0.234512898	-0.039523
C	 0.6924830234	-0.9509560161	-0.4519340509	-0.343496
C	 0.7505387096	-0.7820529355	 1.0602512284	 0.327278
C	 1.9745150474	-0.1276357477	 1.6786125443	-0.461843
C	 0.1282147345	-1.8702583152	 1.9261881243	-0.357158
C	 1.0154363849	-3.0720944598	 2.2719818077	 0.372628
N	 1.8011034667	-3.5331483762	 1.2530473731	-0.508202
O	 0.9803611273	-3.6098784254	 3.361161427	-0.360518
H	 0.9814227009	 1.8279057462	-0.1559607067	 0.116895
H	-0.6273248082	 1.8491502707	-0.8742722875	 0.1206
H	-0.434432747	 2.1104935166	 0.8637985614	 0.120967
H	-1.2495991521	-0.2654438461	 0.318883441	 0.084786
H	 0.2465364053	-1.8489497153	-0.8696710828	 0.110347
H	 1.5189386959	-0.5550663167	-1.0352728844	 0.108871
H	 2.4183966591	 0.6233383477	 1.0212515312	 0.114681
H	 1.7183524123	 0.3642778062	 2.6241468263	 0.123507
H	 2.7477746251	-0.8722062755	 1.896147016	 0.122882
H	-0.1976500146	-1.4591333091	 2.8864279066	 0.125501
H	-0.7680987474	-2.267783612	 1.4330755207	 0.117411
H	 1.9154012155	-3.0111625501	 0.4018027077	 0.264716
H	 2.4327712938	-4.2911788643	 1.4530809428	 0.256816
42.3624	92.268	132.3771	175.6448	186.4952	230.7364	251.882	271.3699	323.5929	356.6358	387.9352	439.3366	501.7143	540.1164	573.504	672.6247	733.0135	788.8702	859.2365	897.2539	904.7019	919.9064	961.1266	997.523	1026.363	1057.4553	1086.1054	1109.3689	1129.0747	1137.9033	1194.1787	1209.589	1268.6715	1324.2558	1342.773	1364.0913	1408.7991	1425.5788	1427.2241	1460.7217	1487.7641	1491.93	1494.856	1502.3474	1516.1039	1607.6599	1800.001	3030.1545	3032.0694	3034.8133	3089.0461	3089.9753	3091.3735	3105.5424	3113.097	3120.7951	3131.4478	3197.0906	3598.6967	3736.2515
CC1CC1(C)CC(N)=O	C[C@H]1C[C@]1(C)CC(=O)N	
InChI=1S/C7H13NO/c1-5-3-7(5,2)4-6(8)9/h5H,3-4H2,1-2H3,(H2,8,9)	InChI=1S/C7H13NO/c1-5-3-7(5,2)4-6(8)9/h5H,3-4H2,1-2H3,(H2,8,9)/t5-,7+/m0/s1
