20
gdb 113730	2.59896	1.13227	0.88813	4.1599	79.64	-0.2747	0.0331	0.3078	1384.0492	0.168995	-403.148885	-403.13876	-403.137816	-403.185137	35.8	
C	 0.4642525224	 1.5784626588	 0.0277006977	-0.375563
C	-0.2826153963	 0.2479560185	-0.1362536624	-0.243088
C	 0.2165617984	-0.5171431726	-1.3375453164	 0.067716
O	 1.4921725211	-1.183068383	-1.2537926092	-0.250365
C	 0.3365300737	-1.9763251329	-1.489806101	 0.060107
C	-0.0194211524	-3.0755124041	-0.4879189047	-0.188725
C	 0.6855061541	-4.3958001197	-0.8787460745	-0.392089
C	 0.3045084604	-2.7554002953	 0.9049084106	 0.298178
N	 0.5546550484	-2.5697756156	 2.0176675281	-0.334896
H	 1.5322104408	 1.4016832475	 0.1849652243	 0.138567
H	 0.354016532	 2.2106243549	-0.8603782917	 0.112879
H	 0.0818362036	 2.1364874164	 0.8868072791	 0.119184
H	-0.1804262358	-0.3463003107	 0.7725606388	 0.144378
H	-1.3544983959	 0.4373979046	-0.2819715525	 0.100913
H	 0.0990170101	 0.0310341131	-2.2771268566	 0.091645
H	 0.2625065302	-2.3609439835	-2.510928362	 0.093694
H	-1.1054023343	-3.2325799746	-0.5413359433	 0.135179
H	 1.7704716157	-4.2661192978	-0.8610201092	 0.154819
H	 0.4195282379	-5.1983850252	-0.1875190195	 0.140636
H	 0.384637936	-4.6903669689	-1.8878445054	 0.12683
28.2556	56.583	137.4875	165.224	194.07	220.0933	226.9594	264.4112	297.165	381.3347	453.7739	536.1209	589.9593	670.3385	732.7818	758.7599	838.4436	854.7913	948.7736	965.0665	1008.8921	1041.2769	1050.8581	1079.7797	1112.207	1148.0732	1171.9992	1194.5005	1290.8305	1297.3712	1307.4698	1346.1966	1353.1397	1403.3859	1408.3061	1422.1794	1477.9998	1491.6354	1493.2786	1498.3183	1500.2938	1508.9033	2360.0808	3024.0047	3027.994	3036.6187	3050.5778	3058.4651	3072.1957	3100.6496	3119.5927	3128.8203	3135.6568	3138.1432
CCC1OC1C(C)C#N	CC[C@H]1O[C@H]1[C@@H](C)C#N	
InChI=1S/C7H11NO/c1-3-6-7(9-6)5(2)4-8/h5-7H,3H2,1-2H3	InChI=1S/C7H11NO/c1-3-6-7(9-6)5(2)4-8/h5-7H,3H2,1-2H3/t5-,6+,7-/m0/s1
