17
gdb 65975	2.51851	1.43197	1.28674	0.6606	69.28	-0.2414	-0.0461	0.1953	1058.8	0.133642	-458.931597	-458.923154	-458.92221	-458.964769	31.769	
O	-0.0599372282	 1.3896142227	-0.3430073342	-0.468529
C	-0.0072370763	 0.036639999	-0.0560506706	 0.174591
C	 0.0295517669	-0.4065083621	 1.436605863	-0.134006
O	-1.0477984537	-1.3425763641	 1.2180658637	-0.304712
C	-1.3236063979	-0.7636959428	-0.0563542841	 0.402508
C	-2.665322502	-0.2492138415	-0.4505633442	-0.325504
C	-2.0662619422	-1.4702661569	-1.1379885726	-0.353091
C	 1.0593769059	-0.6454449033	-0.8819016611	 0.126115
O	 1.7235901979	-0.036374239	-1.6858111418	-0.282691
H	 0.6195271165	 1.5424297877	-1.0206414614	 0.295892
H	 0.9325487549	-0.8999255475	 1.8107957922	 0.111664
H	-0.2547281568	 0.4198338399	 2.0980946441	 0.124994
H	-3.4786278302	-0.4189221636	 0.2465402037	 0.128766
H	-2.7021981326	 0.6898224522	-0.9919546917	 0.134168
H	-1.7184762298	-1.3748872468	-2.1620008378	 0.123148
H	-2.4863843101	-2.439409981	-0.8908413245	 0.131259
H	 1.1877165177	-1.7316152031	-0.7091516627	 0.115425
79.8967	105.4257	181.7196	220.3175	293.1508	309.8743	356.8243	420.9852	492.7854	519.1325	551.742	602.1818	758.383	831.7828	855.9131	866.0262	900.5601	919.2924	979.5043	989.513	1015.8887	1050.1169	1072.3893	1084.4344	1118.3967	1155.8811	1187.8561	1213.2369	1277.5744	1345.11	1362.4527	1383.4252	1446.1075	1448.503	1488.7729	1517.2334	1809.757	2955.1548	3029.5164	3087.4083	3126.9173	3135.6913	3212.6421	3231.0166	3671.4615
OC1(COC11CC1)C=O	O[C@]1(COC21CC2)C=O	
InChI=1S/C6H8O3/c7-3-5(8)4-9-6(5)1-2-6/h3,8H,1-2,4H2	InChI=1S/C6H8O3/c7-3-5(8)4-9-6(5)1-2-6/h3,8H,1-2,4H2/t5-/m0/s1
