15
gdb 29735	3.43651	1.33803	0.97043	5.2475	77.24	-0.2176	-0.0191	0.1985	1136.7409	0.114808	-413.047798	-413.039364	-413.03842	-413.081034	30.243	
C	-0.0418835584	 1.4328184777	 0.0314138035	-0.364032
N	-0.0027579125	-0.0168238667	 0.0174123805	-0.11269
C	-0.0069703312	-0.8223331509	-1.0759319469	 0.409476
N	-0.0890233651	-0.3172063648	-2.3597073683	-0.600041
N	-0.0087099834	-2.1098264507	-0.7661501506	-0.319619
C	-0.0029427034	-2.147913202	 0.5963923839	-0.165329
C	 0.0123162193	-0.876275049	 1.1256891596	 0.167878
C	 0.0337225685	-0.4056803823	 2.4491564385	 0.203274
N	 0.0477993589	 0.0065804004	 3.5343709756	-0.365609
H	 0.9461810725	 1.8649270236	-0.1640210998	 0.144372
H	-0.7452823823	 1.7850091329	-0.7277415098	 0.157579
H	-0.3771620725	 1.7711115733	 1.0126743381	 0.17722
H	 0.536791397	 0.4508804518	-2.563453212	 0.259115
H	 0.0033834435	-1.0586176408	-3.0413588012	 0.272063
H	-0.001598101	-3.0789411224	 1.1418284488	 0.136343
91.1709	116.2378	143.739	188.2767	280.1807	296.8773	305.4166	427.9158	518.6415	534.5451	603.3755	649.7257	672.1543	711.1172	764.3554	792.1509	870.3854	986.249	1095.1495	1152.5861	1183.0948	1217.3341	1265.782	1320.1765	1375.4126	1446.3869	1487.1315	1508.4273	1512.6002	1571.8874	1582.3909	1652.4789	2324.1652	3034.4698	3104.602	3150.389	3260.4398	3549.2292	3648.2886
CN1C(N)=NC=C1C#N	Cn1c(N)ncc1C#N	
InChI=1S/C5H6N4/c1-9-4(2-6)3-8-5(9)7/h3H,1H3,(H2,7,8)	InChI=1S/C5H6N4/c1-9-4(2-6)3-8-5(9)7/h3H,1H3,(H2,7,8)
