18
gdb 58726	3.45848	1.40362	1.30303	2.0985	73.8	-0.2199	0.0583	0.2782	1035.576	0.146525	-401.821914	-401.813946	-401.813001	-401.854622	30.923	
C	 0.0167081081	 1.4688524162	-0.1679954309	-0.402215
C	-0.0181888192	-0.0385113574	 0.103750609	-0.035619
O	 0.5210484903	-0.3475864761	 1.3855218506	-0.429515
C	-1.4030211089	-0.5904372215	-0.0039224476	 0.436383
C	-2.3961226117	-0.8280883275	-1.1133133671	-0.193322
C	-3.5115793901	-0.4394030859	-0.1111177544	-0.052012
C	-3.1135929908	-1.5441165423	 0.7996526086	-0.046787
C	-1.9830348094	-1.9713499297	-0.1670970359	-0.188433
N	-2.5072450202	-0.1771795502	 0.982415086	-0.231092
H	 1.0271496324	 1.8516616626	-0.0040124342	 0.121612
H	-0.2842019706	 1.69032511	-1.1969427423	 0.112783
H	-0.6692577705	 1.9914863858	 0.5069906695	 0.129074
H	 0.6240131225	-0.5586600881	-0.6183769706	 0.091384
H	-0.1222953191	-0.0383008738	 2.0354616761	 0.290168
H	-2.2956128292	-0.7592127744	-2.1871442918	 0.098256
H	-4.4299405442	 0.1285096145	-0.2009338379	 0.099213
H	-3.6458948674	-2.0494529278	 1.5964660662	 0.099518
H	-1.5087332319	-2.9137908645	-0.4001368932	 0.100603
59.5824	135.639	164.8003	244.4551	327.9546	349.3347	417.7758	487.3875	620.2831	675.3513	761.4402	780.3487	791.1374	837.1302	852.226	866.2823	889.1493	910.7149	939.4151	960.9701	989.6993	1001.0135	1017.009	1046.8881	1072.41	1086.6663	1109.9285	1168.1261	1191.3671	1210.1868	1268.4723	1285.9698	1321.5022	1331.0226	1397.7374	1406.3425	1459.534	1490.0531	1501.2894	3034.6836	3037.1005	3108.7907	3124.2469	3175.4216	3189.842	3214.7948	3225.1005	3780.56
CC(O)C12C3C4C(C13)N24	C[C@@H](O)[C@@]12[C@@H]3[C@H]4[C@@H]([C@H]13)N24	
InChI=1S/C7H9NO/c1-2(9)7-3-4(7)6-5(3)8(6)7/h2-6,9H,1H3	InChI=1S/C7H9NO/c1-2(9)7-3-4(7)6-5(3)8(6)7/h2-6,9H,1H3/t2-,3-,4+,5-,6+,7+,8?/m1/s1
