19
gdb 13869	4.02615	1.49691	1.20688	1.237	72.61	-0.2396	0.0312	0.2708	1058.4422	0.165842	-365.094397	-365.085822	-365.084878	-365.128125	30.556	
C	 0.1794238716	 1.1827969709	-0.5264852992	-0.389235
C	 0.0130908597	-0.1658322569	 0.2019083325	-0.06965
C	 0.545546331	-0.113953891	 1.6361869482	-0.378537
C	-1.4234108262	-0.603469665	 0.1593804907	 0.426692
N	-2.2077017715	-0.7566226221	 1.1466449947	-0.316869
C	-3.5033732548	-1.1817093062	 0.5989496318	-0.185765
C	-3.2865109588	-1.2232117197	-0.9364533784	-0.111463
O	-1.9032373912	-0.8448016253	-1.0976189589	-0.263892
H	 1.2362849206	 1.4629962288	-0.5640943137	 0.115325
H	-0.2018157806	 1.1291575211	-1.5488086086	 0.130844
H	-0.3618804292	 1.9750709758	 0.001562392	 0.122192
H	 0.5774292198	-0.9179418101	-0.3663011625	 0.097888
H	-0.0100887779	 0.6176288826	 2.2290048123	 0.130788
H	 0.4446887797	-1.0819634761	 2.1324591051	 0.124619
H	 1.6023954011	 0.1702242881	 1.6342628531	 0.104666
H	-3.7812119309	-2.1581774628	 1.010353559	 0.114829
H	-4.285598836	-0.4737445465	 0.8928422837	 0.114812
H	-3.4248097529	-2.2163366704	-1.3732581141	 0.116656
H	-3.9063270335	-0.5078916451	-1.4851155977	 0.1161
45.7509	86.8514	156.2859	202.2725	211.7419	251.8988	313.9889	379.7296	463.1631	618.3166	721.0978	759.5432	830.6682	879.2616	923.5886	934.6793	967.2765	976.3994	1007.4924	1013.6332	1109.8376	1126.9023	1140.1193	1170.169	1215.6864	1221.9742	1246.2617	1324.045	1330.8736	1364.3192	1391.3271	1406.6821	1421.8442	1485.0295	1488.2938	1498.7124	1503.674	1513.3675	1527.5324	1736.301	3016.4002	3037.4435	3038.4563	3045.69	3051.4984	3064.2666	3097.9122	3106.6547	3116.9177	3126.6767	3127.6202
CC(C)C1=NCCO1	CC(C)C1=NCCO1	
InChI=1S/C6H11NO/c1-5(2)6-7-3-4-8-6/h5H,3-4H2,1-2H3	InChI=1S/C6H11NO/c1-5(2)6-7-3-4-8-6/h5H,3-4H2,1-2H3
