17
gdb 11340	5.29014	1.22257	1.07157	4.6914	72.06	-0.2375	-0.0205	0.217	1113.8844	0.142899	-363.921342	-363.913233	-363.912288	-363.954546	29.139	
C	-0.2278010152	 1.5248046	-0.0558940501	-0.377772
C	 0.1008136863	 0.0215695001	 0.0085195442	-0.287924
C	 0.806068794	-0.4905675545	-1.2093483411	 0.336202
C	 2.0476851844	-0.9767352824	-1.316267262	-0.330329
C	 2.3352528211	-1.3731071899	-2.724561817	 0.429757
O	 3.3567303894	-1.822405231	-3.2003692532	-0.39083
N	 1.1602584927	-1.1169505323	-3.4048711504	-0.342888
C	 0.1406409122	-0.5287925527	-2.5720041997	-0.247384
H	 0.6829879197	 2.1182856546	-0.1795591024	 0.129467
H	-0.8960775261	 1.7565569168	-0.8909846727	 0.121154
H	-0.7228730049	 1.8477979788	 0.8644096722	 0.122185
H	 0.7203062337	-0.1801841585	 0.888335482	 0.115598
H	-0.8332946403	-0.5397668305	 0.1480680008	 0.111963
H	 2.7801629427	-1.0909248715	-0.5291549858	 0.113995
H	 1.0959064738	-1.2156675789	-4.4032898457	 0.251653
H	-0.7796723271	-1.1316541245	-2.5444286485	 0.121572
H	-0.1453845765	 0.4782441463	-2.9093677505	 0.123581
51.8671	88.2924	144.0927	210.8696	279.5922	325.5596	409.8898	477.4818	520.3172	594.6122	705.1918	739.539	788.9201	880.2722	895.2988	932.6111	962.3993	997.0372	1058.5424	1085.2834	1097.2047	1161.4294	1192.7963	1212.6492	1275.5766	1328.0033	1349.0309	1351.6903	1409.5854	1424.2898	1482.3176	1498.3669	1500.0084	1507.795	1689.9695	1822.4306	2991.6339	3012.6368	3017.1738	3041.2123	3072.9662	3113.1011	3116.5565	3235.143	3674.3365
CCC1=CC(=O)NC1	CCC1=CC(=O)NC1	
InChI=1S/C6H9NO/c1-2-5-3-6(8)7-4-5/h3H,2,4H2,1H3,(H,7,8)	InChI=1S/C6H9NO/c1-2-5-3-6(8)7-4-5/h3H,2,4H2,1H3,(H,7,8)
