17
gdb 66461	2.98184	1.70055	1.51293	2.322	70.95	-0.2272	0.0625	0.2897	922.5851	0.13548	-421.741274	-421.734056	-421.733112	-421.772275	29.991	
O	-0.0784421114	 1.288156156	 0.1052838235	-0.46687
C	 0.0680917134	-0.0804161159	 0.06532273	 0.419724
C	-0.1300957994	-0.9442782287	-1.186234971	-0.14811
C	-1.0411027704	-1.0934597159	 0.0277178294	-0.216568
C	 0.0001111498	-2.1158353486	 0.5524968316	 0.429284
O	-0.3461055821	-3.1697096691	 1.3636992776	-0.476391
C	 0.7679458391	-2.1547616948	-0.8423172248	-0.133206
C	 2.0399521288	-1.588418473	-0.1615177945	-0.261984
C	 1.058258035	-0.968541002	 0.8637257483	-0.213915
H	 0.6222410489	 1.6864730088	-0.423951315	 0.283317
H	-0.3793722414	-0.5220361203	-2.1510669963	 0.087004
H	-2.1134050689	-1.0029276346	 0.1290402364	 0.099588
H	 0.455675107	-3.6314282429	 1.6352186508	 0.284806
H	 0.7814276434	-3.0113182841	-1.5164854979	 0.066746
H	 2.6551064967	-2.379812614	 0.280664364	 0.088277
H	 2.680157304	-0.913773079	-0.739645854	 0.087516
H	 1.3358739073	-0.657037222	 1.8703554918	 0.070783
205.3746	234.8432	277.6685	291.9439	326.8992	390.6983	461.371	547.214	573.0728	625.7705	726.8072	759.4852	778.3539	825.8183	869.2585	903.217	917.9083	927.7912	933.7117	968.4825	984.6406	1000.84	1046.1528	1061.884	1110.2044	1121.6019	1128.9147	1174.0064	1195.8772	1231.998	1247.2463	1280.5336	1301.7483	1329.1866	1400.4857	1460.8853	1489.7996	3035.6287	3087.421	3115.293	3125.9568	3198.5292	3219.4657	3781.6267	3793.1121
OC12C3C1C1(O)C3CC21	O[C@]12[C@@H]3[C@H]1[C@@]1(O)[C@@H]3C[C@@H]21	
InChI=1S/C7H8O2/c8-6-2-1-3(6)7(9)4(2)5(6)7/h2-5,8-9H,1H2	InChI=1S/C7H8O2/c8-6-2-1-3(6)7(9)4(2)5(6)7/h2-5,8-9H,1H2/t2-,3-,4+,5+,6-,7-/m1/s1
