23
gdb 101166	2.41217	1.07416	0.89247	2.0313	81.91	-0.2298	0.0511	0.2809	1435.8979	0.203547	-425.406565	-425.395808	-425.394864	-425.442771	39.716	
C	-0.0707065908	 1.5505014902	 0.2014589769	-0.391244
C	-0.1746330335	 0.0220725737	 0.2002536473	-0.170586
C	-1.5569505708	-0.5269744279	-0.2046146755	 0.041853
C	-1.9592109307	-0.1629395159	-1.6419699066	-0.401763
C	-1.5944088545	-2.0371242406	-0.0328922921	-0.086775
C	-1.8407658176	-2.6935631272	 1.3050678557	 0.002177
O	-2.1410460457	-1.8245835124	 2.373966912	-0.424817
C	-2.8956247584	-2.7771104235	 0.2250317218	 0.070746
O	-4.0771583599	-2.0601229745	 0.4267161103	-0.431101
H	 0.9095579175	 1.8742062916	 0.565789793	 0.108648
H	-0.2031508501	 1.9733149694	-0.7990716666	 0.116286
H	-0.8298079317	 1.9967268923	 0.8540894276	 0.113212
H	 0.5883291884	-0.3967959285	-0.4712084109	 0.084663
H	 0.0592753019	-0.3528987533	 1.2033309764	 0.10471
H	-2.297318828	-0.0861128377	 0.4719356389	 0.072792
H	-2.9503219031	-0.564480348	-1.8703770105	 0.129363
H	-1.9926722735	 0.9200282348	-1.7916637528	 0.109652
H	-1.248002743	-0.5784008897	-2.3665438212	 0.103829
H	-0.8811671842	-2.5686360937	-0.6611476039	 0.082162
H	-1.2560571184	-3.5682864047	 1.5826025702	 0.089414
H	-2.544876462	-2.3503383437	 3.0733328618	 0.296433
H	-3.0803847117	-3.7192771564	-0.2823213898	 0.096451
H	-3.95842394	-1.5802097745	 1.2582189578	 0.283895
39.7329	77.221	109.6742	161.2889	220.1205	231.5934	247.6896	267.0134	290.2467	304.1338	396.9386	415.5706	500.8722	571.5823	611.0491	667.6268	759.7757	779.7813	793.1542	847.4866	899.9807	967.2987	986.7393	1010.0282	1040.0195	1060.9435	1063.843	1115.6027	1144.8165	1159.1082	1177.131	1181.65	1233.9184	1258.3592	1288.3876	1308.0352	1326.1131	1349.6036	1370.1194	1399.6486	1406.1892	1411.584	1413.334	1470.137	1483.2327	1496.5899	1498.2384	1505.6441	1511.2489	3008.3197	3027.1488	3032.1301	3047.2585	3060.6744	3095.8384	3096.9965	3105.7074	3111.3268	3116.6476	3121.2671	3152.9655	3738.7545	3801.5264
CCC(C)C1C(O)C1O	CC[C@@H](C)[C@H]1[C@@H](O)[C@H]1O	
InChI=1S/C7H14O2/c1-3-4(2)5-6(8)7(5)9/h4-9H,3H2,1-2H3	InChI=1S/C7H14O2/c1-3-4(2)5-6(8)7(5)9/h4-9H,3H2,1-2H3/t4-,5-,6+,7-/m1/s1
