15
gdb 64695	4.89649	0.88065	0.84142	3.4358	71.2	-0.2998	-0.0048	0.295	1322.2128	0.111301	-416.817213	-416.808324	-416.80738	-416.851235	31.858	
O	-0.1535296498	 1.4839551442	-0.1809633691	-0.447
C	-0.0021846261	 0.1103403625	-0.0622154909	 0.408434
C	 1.0924885655	-0.4759244752	-0.9519146405	-0.390615
C	 2.4018883618	 0.0542497092	-0.5690813702	 0.251572
N	 3.4104375929	 0.5075638247	-0.2339983576	-0.294843
C	-0.3342270686	-0.5388320809	 1.2480779409	-0.332373
C	-1.295617638	-0.6701165377	 0.0639344277	-0.25376
C	-2.5518851827	 0.0251605212	 0.0835446698	 0.314222
N	-3.577576268	 0.5583291562	 0.0947391388	-0.328106
H	 0.5766455431	 1.9159998558	 0.2793710371	 0.307638
H	 1.1127998442	-1.5682347994	-0.8834338018	 0.156095
H	 0.8922387963	-0.208670125	-1.9950661571	 0.174254
H	 0.1954048547	-1.4329101908	 1.5567064705	 0.138885
H	-0.6463983452	 0.1196963227	 2.0494028986	 0.154606
H	-1.3348221904	-1.6359989074	-0.429281326	 0.14099
59.5577	91.5024	147.3411	170.892	293.0088	316.7798	344.5449	383.8046	392.1887	428.0204	482.4042	552.5194	677.7819	733.6173	827.6542	879.1253	896.8687	950.7061	969.5167	996.0316	1061.0235	1079.4099	1130.0557	1195.7707	1233.3919	1300.2734	1324.148	1363.1186	1414.0131	1454.3266	1482.8002	2363.1459	2363.929	3053.0861	3099.4987	3147.0485	3166.1947	3245.0558	3785.5318
OC1(CC#N)CC1C#N	O[C@@]1(CC#N)C[C@H]1C#N	
InChI=1S/C6H6N2O/c7-2-1-6(9)3-5(6)4-8/h5,9H,1,3H2	InChI=1S/C6H6N2O/c7-2-1-6(9)3-5(6)4-8/h5,9H,1,3H2/t5-,6-/m0/s1
