17
gdb 19022	4.59307	1.73961	1.73046	2.6747	68.1	-0.2187	0.0633	0.282	838.075	0.142752	-363.77012	-363.763525	-363.762581	-363.800521	26.278	
C	-0.1385458532	 1.3100607886	 0.0598823993	-0.319981
N	 0.0875586735	-0.1236574858	-0.0983309825	-0.085815
C	 0.8349577568	-0.4717877456	-1.3107129996	-0.052232
C	 1.502054802	-0.5024313896	 0.0362350598	-0.055976
C	 1.5929487121	-2.0513794131	-0.038226391	 0.103528
O	 0.5271095897	-2.8022990392	 0.5614798438	-0.288503
C	-0.2188097381	-2.8194158732	-0.6852631075	-0.084573
C	 0.8867013661	-2.0157777787	-1.4113095931	-0.116191
H	 0.6794855954	 1.939974419	-0.3293084084	 0.097341
H	-1.0597613713	 1.5847544644	-0.4630812913	 0.125405
H	-0.2671058069	 1.5340289732	 1.1231425468	 0.129513
H	 0.934958698	 0.243617486	-2.1185533667	 0.090948
H	 2.2055396048	 0.187289996	 0.4888894299	 0.087773
H	 2.5854654781	-2.4758427723	 0.1355866034	 0.076952
H	-0.3444068418	-3.8454980393	-1.0507459112	 0.094101
H	-1.1890038499	-2.3258946156	-0.5872208501	 0.115163
H	 1.3360408145	-2.4292532046	-2.3121276815	 0.082548
189.1883	209.1487	253.6352	289.0503	366.9729	456.5954	582.7413	701.0816	772.4223	808.6628	819.0759	854.9987	871.4036	923.9878	938.7797	966.4873	993.7642	1005.4584	1040.1851	1060.4436	1115.8418	1122.8591	1153.3398	1167.4586	1186.7719	1213.1179	1225.2809	1269.8673	1297.6387	1310.9967	1353.1099	1367.4901	1454.9376	1493.5796	1497.4942	1499.0978	2958.2178	3027.1669	3069.9417	3073.6907	3098.3343	3108.1692	3133.2318	3172.1264	3187.1304
CN1C2C1C1OCC21	CN1[C@H]2[C@@H]1[C@H]1OC[C@@H]21	
InChI=1S/C6H9NO/c1-7-4-3-2-8-6(3)5(4)7/h3-6H,2H2,1H3	InChI=1S/C6H9NO/c1-7-4-3-2-8-6(3)5(4)7/h3-6H,2H2,1H3/t3-,4+,5+,6-,7?/m0/s1
