16
gdb 17954	2.6947	2.69469	1.50588	0.	80.6	-0.2046	-0.0464	0.1583	845.6884	0.132277	-309.473909	-309.467162	-309.466218	-309.504417	26.578	
C	 0.0098539792	 1.4031022863	 0.2228721465	-0.09394
C	 1.1583431688	 2.0891426651	 0.2158805918	-0.094316
C	 2.5032983446	 1.589858268	-0.1075636154	-0.093936
C	 2.8902361416	 0.9308963054	-1.20564246	-0.09432
C	 2.0659103767	 0.5428749755	-2.3600833401	-0.093933
C	 0.9175721593	-0.1434147151	-2.3528826199	-0.094323
C	 0.1960373747	-0.6788180617	-1.18860495	-0.093939
C	-0.1910542709	-0.0196057169	-0.0907322421	-0.094317
H	-0.8833078079	 1.9237130987	 0.5683844811	 0.094117
H	 1.1265415544	 3.1242124494	 0.5561263968	 0.094139
H	 3.2752767202	 1.8619873839	 0.612261446	 0.094116
H	 3.9523442579	 0.7088219727	-1.3093581765	 0.094139
H	 2.4957549862	 0.7912370278	-3.3304971401	 0.094117
H	 0.4861935858	-0.4097454343	-3.3178323838	 0.09414
H	-0.1126102681	-1.7199129456	-1.283531232	 0.094117
H	-0.7899796825	-0.5662581091	 0.637695788	 0.094139
174.8872	229.8751	261.9298	288.9172	362.622	362.6228	651.6023	651.6025	672.4271	690.8691	784.5299	817.7965	817.7966	891.4562	939.008	956.5366	956.5368	979.3283	997.1754	997.1756	1004.4782	1044.2726	1239.0679	1242.7322	1255.6786	1255.6791	1379.1287	1430.3367	1430.3369	1464.8638	1701.7767	1701.7771	1705.6733	1731.5688	3107.7172	3111.4487	3111.4493	3117.4034	3128.2117	3135.8882	3135.8888	3142.6712
C1=CC=CC=CC=C1	C1=CC=CC=CC=C1	
InChI=1S/C8H8/c1-2-4-6-8-7-5-3-1/h1-8H/b2-1-,3-1?,4-2?,5-3-,6-4-,7-5?,8-6?,8-7-	InChI=1S/C8H8/c1-2-4-6-8-7-5-3-1/h1-8H/b2-1-,3-1?,4-2?,5-3-,6-4-,7-5?,8-6?,8-7-
