22
gdb 32621	2.83087	1.24293	0.94794	1.8969	91.08	-0.1867	0.0504	0.2371	1337.7964	0.19354	-367.265438	-367.255211	-367.254267	-367.301333	36.996	
C	-0.1197615134	 1.5937597828	-0.0973835543	-0.371869
C	 0.061076436	 0.07545322	 0.0047955	-0.156276
N	 0.7296216198	-0.5055535929	-1.1462814618	-0.029893
C	 0.086414544	-0.9163126862	-2.289064704	-0.104446
C	 1.0326909816	-1.3144751394	-3.1983726375	-0.260786
C	 2.313314658	-1.1399825973	-2.5944381402	 0.203875
C	 3.6304443841	-1.4705942498	-3.2323044821	-0.503699
C	 2.0971109552	-0.6334440393	-1.3249159042	 0.198265
C	 3.0676148623	-0.2751587554	-0.2460612798	-0.511117
H	 0.8463320579	 2.101168061	-0.1715428658	 0.129829
H	-0.7056491934	 1.8527202136	-0.9840014229	 0.129418
H	-0.6414847023	 1.9759857011	 0.7860006372	 0.115973
H	 0.6309397579	-0.1776364685	 0.9037045051	 0.117574
H	-0.9145693261	-0.4115544283	 0.1033672642	 0.116155
H	-0.9906976618	-0.8894921112	-2.3487066458	 0.106374
H	 0.838932619	-1.7034877069	-4.1871498268	 0.084937
H	 4.4763996467	-1.1625777576	-2.6112212848	 0.113408
H	 3.7378438601	-2.5471272331	-3.4147016144	 0.120898
H	 3.7427371518	-0.9719315264	-4.2023539806	 0.120703
H	 3.0095214626	 0.7809007043	 0.0472429626	 0.123
H	 2.9218851898	-0.8707684816	 0.6647653931	 0.125085
H	 4.0880785202	-0.4587316689	-0.5880710771	 0.132591
41.1167	70.4893	89.5732	141.6659	204.6979	207.5417	276.7854	288.3472	305.6306	389.0398	462.3246	569.8037	628.703	656.4348	701.0426	710.0326	720.143	793.4369	796.7515	935.3443	962.9028	986.2824	1054.1079	1061.1057	1064.4461	1094.3426	1110.5186	1140.2553	1204.0095	1240.5983	1296.5525	1358.7661	1387.9737	1404.5716	1410.0527	1425.7286	1427.6672	1466.2214	1479.0589	1482.9437	1484.9725	1488.566	1491.3958	1501.1854	1506.2509	1535.5357	1621.3399	3010.1221	3020.0509	3040.4294	3049.3136	3050.0911	3064.5139	3088.1713	3101.669	3113.9573	3123.5415	3125.4167	3233.5792	3257.0928
CCN1C=CC(C)=C1C	CCn1ccc(C)c1C	
InChI=1S/C8H13N/c1-4-9-6-5-7(2)8(9)3/h5-6H,4H2,1-3H3	InChI=1S/C8H13N/c1-4-9-6-5-7(2)8(9)3/h5-6H,4H2,1-3H3
