17
gdb 82009	2.5308	1.46133	1.32186	4.7996	72.22	-0.2521	0.0252	0.2773	1038.12	0.135805	-417.97679	-417.968008	-417.967064	-418.009974	32.891	
N	-0.0875651063	 1.5146590549	 0.2048722874	-0.553824
C	-0.0498775723	 0.0778703	 0.0146442145	 0.118597
C	 0.8585219365	-0.5148547429	 0.9993512666	 0.271777
N	 1.5854271149	-0.9966078711	 1.7576050242	-0.340148
C	-1.4031041817	-0.6545868239	 0.0018733039	-0.040699
C	-2.2136262374	-0.2818900018	-1.205239971	-0.314969
C	-1.1030483563	-1.2779789031	-1.3672331592	-0.074917
C	 0.2383589449	-0.5423750253	-1.4319619595	 0.034025
O	 0.3893960958	 0.486407019	-2.3821407565	-0.428774
H	 0.8582062943	 1.8848855343	 0.2373736401	 0.243628
H	-0.5277929364	 1.9396430816	-0.6053037344	 0.246846
H	-1.847194724	-1.112202811	 0.8761291227	 0.112125
H	-3.2163279901	-0.6957046433	-1.2127505994	 0.124308
H	-2.1359882977	 0.6971242792	-1.6667479273	 0.120972
H	-1.2676522737	-2.2974148279	-1.6912851818	 0.096176
H	 1.0994548758	-1.2196699587	-1.4266055712	 0.093225
H	 0.3777013937	 0.0943505401	-3.2617479991	 0.291653
111.5062	129.0952	168.7604	193.792	210.3397	261.3956	297.5261	429.5662	464.0607	504.8272	564.6048	596.8489	656.1436	768.843	793.7732	843.1799	870.3767	928.2229	959.8255	984.8717	997.7301	1037.148	1064.8911	1072.3976	1085.8687	1126.3339	1168.1622	1183.4573	1249.9496	1275.0915	1300.6402	1338.2705	1373.26	1400.107	1491.2651	1664.8162	2359.4288	3043.8518	3131.2653	3194.5545	3202.841	3216.6548	3501.5965	3579.3902	3814.8828
NC1(C#N)C2CC2C1O	N[C@@]1(C#N)[C@H]2C[C@H]2[C@H]1O	
InChI=1S/C6H8N2O/c7-2-6(8)4-1-3(4)5(6)9/h3-5,9H,1,8H2	InChI=1S/C6H8N2O/c7-2-6(8)4-1-3(4)5(6)9/h3-5,9H,1,8H2/t3-,4+,5-,6+/m1/s1
