18
gdb 85074	2.28186	1.56494	1.25317	4.5922	74.57	-0.2376	-0.0115	0.2261	1081.9182	0.147993	-439.120871	-439.111981	-439.111037	-439.154927	32.981	
C	 0.0485323608	 1.5968973555	 0.0483206498	-0.382582
C	 0.0672182666	 0.0540852737	 0.0062536055	-0.021392
N	 0.7057868503	-0.4442122304	-1.2042979893	-0.310621
C	 1.9609047549	-0.9616827587	-1.3250294033	 0.418884
O	 2.3958641595	-1.3996658378	-2.3715483665	-0.376461
C	 2.8077347353	-0.9301666843	-0.0458344477	-0.041322
O	 3.534934543	 0.3076887184	-0.118743202	-0.433
C	 1.9745070512	-0.991359436	 1.2068809302	-0.11859
C	 0.73648507	-0.5075496607	 1.2299794763	-0.035794
H	 1.0762855854	 1.9686001156	 0.042854219	 0.145637
H	-0.4786384616	 1.99852931	-0.8227770085	 0.116382
H	-0.4578567742	 1.9571260391	 0.9495907538	 0.116266
H	-0.9724403363	-0.3017691959	-0.0074383832	 0.096091
H	 0.1876654011	-0.3982763076	-2.0697936657	 0.246107
H	 3.499747468	-1.7784168089	-0.1133849466	 0.093681
H	 4.0267301412	 0.4029827565	 0.7041704431	 0.283237
H	 2.4385911176	-1.3849612401	 2.1079273324	 0.098593
H	 0.1599567871	-0.4694142783	 2.1495999025	 0.104883
43.0574	88.3871	179.1429	217.1258	257.4285	273.4849	346.8796	396.3809	456.579	517.9754	557.8733	563.5051	600.4245	724.3212	762.3305	785.5445	865.8845	928.9468	964.0826	992.8501	1003.141	1039.1777	1046.9687	1101.0328	1159.6811	1182.6698	1228.2706	1329.6523	1330.3598	1343.7795	1380.7996	1394.2844	1405.8483	1430.0026	1477.6884	1493.8656	1504.4915	1725.5304	1802.2824	3004.1305	3033.3226	3036.0912	3107.4123	3132.4104	3151.4833	3179.9156	3609.6412	3805.3157
CC1NC(=O)C(O)C=C1	C[C@H]1NC(=O)[C@@H](O)C=C1	
InChI=1S/C6H9NO2/c1-4-2-3-5(8)6(9)7-4/h2-5,8H,1H3,(H,7,9)	InChI=1S/C6H9NO2/c1-4-2-3-5(8)6(9)7-4/h2-5,8H,1H3,(H,7,9)/t4-,5+/m1/s1
