20
gdb 19482	4.19864	1.46415	1.39821	1.3302	74.48	-0.2606	0.078	0.3387	986.3883	0.179649	-348.987751	-348.980403	-348.979459	-349.019347	29.051	
O	-0.1207317134	 1.4592259426	-0.1713179364	-0.423157
C	 0.0111801742	 0.0640636605	 0.0819067854	-0.133475
C	-1.3761990252	-0.5421338822	 0.001294537	 0.072189
C	-2.0390488048	-0.6475075325	-1.4103690119	-0.004337
C	-1.2412226443	-1.9704443863	-1.6002820091	-0.233967
C	-1.484799679	-2.0994513169	-0.0676891183	-0.034074
C	-3.014338507	-2.292911683	-0.01651521	-0.213733
C	-3.4372343174	-1.1821971947	-1.0411446533	-0.216472
H	 0.7482539824	 1.8623019563	-0.0869706049	 0.284801
H	 0.701648951	-0.3998300591	-0.6371630094	 0.084524
H	 0.4240271292	-0.1160519652	 1.0883404368	 0.082076
H	-1.9966056241	-0.0603428129	 0.76660384	 0.063132
H	-1.9822613806	 0.1732728978	-2.1246692688	 0.065825
H	-1.6765732189	-2.7373502576	-2.2488658338	 0.083833
H	-0.1956479105	-1.8195177157	-1.8692583632	 0.096003
H	-0.8764354885	-2.7494686397	 0.5639405383	 0.052045
H	-3.3143280566	-3.295772488	-0.3340095963	 0.092522
H	-3.4224165169	-2.1207982551	 0.9836941793	 0.093788
H	-4.0694262272	-0.4126035354	-0.5890479614	 0.09637
H	-3.9690233824	-1.5887632327	-1.9063136702	 0.092105
83.8302	163.9316	242.7324	292.9975	304.063	396.1863	481.2503	527.8926	650.094	792.6753	833.3234	841.3271	846.9528	893.4902	905.649	942.7373	961.7543	992.3039	1009.84	1026.6956	1058.689	1081.3954	1084.5272	1096.6879	1131.3375	1164.8534	1196.7859	1216.8244	1231.144	1257.987	1263.1186	1267.2974	1272.2244	1290.2999	1314.6136	1325.4666	1395.0017	1462.1658	1492.4677	1498.9569	1515.3334	1530.1851	2963.4032	2999.6491	3035.1166	3047.323	3053.167	3057.6527	3084.3722	3096.1267	3103.5955	3121.0698	3129.7246	3828.4441
OCC1C2CC1CC2	OC[C@H]1[C@H]2C[C@@H]1CC2	
InChI=1S/C7H12O/c8-4-7-5-1-2-6(7)3-5/h5-8H,1-4H2	InChI=1S/C7H12O/c8-4-7-5-1-2-6(7)3-5/h5-8H,1-4H2/t5-,6+,7+
