16
gdb 29124	3.00679	1.39139	0.95676	3.0549	78.33	-0.1982	-0.0405	0.1577	1173.2123	0.124278	-437.919721	-437.911546	-437.910601	-437.952231	31.29	
C	-0.0341737407	 1.5109787062	-0.0281009278	-0.46909
C	-0.0401112095	 0.0126934081	-0.012324937	 0.211888
C	-1.1631508039	-0.7337360204	-0.0986073186	-0.208146
C	-1.1016557043	-2.1703088009	-0.0778196016	 0.257365
O	-2.2952820664	-2.82821847	-0.1707166197	-0.436616
C	 0.1027758348	-2.7590014333	 0.0296634268	-0.078496
O	 1.2551125312	-2.0360406387	 0.118382236	-0.234759
C	 1.2585720098	-0.6518265775	 0.1041750952	 0.337496
N	 2.3532597563	-0.0064952409	 0.1896745866	-0.542333
H	 0.5745303731	 1.8832883721	-0.8583537868	 0.147951
H	-1.0482419558	 1.907915759	-0.1172984568	 0.113705
H	 0.4290381877	 1.9023230479	 0.8832969378	 0.148001
H	-2.1410006441	-0.271294884	-0.1858202407	 0.116657
H	-2.1420451545	-3.7788739546	-0.1486654897	 0.299985
H	 0.2874863776	-3.8256742712	 0.056690954	 0.118273
H	 3.1433381986	-0.6476664218	 0.2631219724	 0.21812
101.7331	164.9954	208.5591	286.0044	312.6889	353.4624	363.4313	384.9083	469.3447	488.6176	571.2664	572.2798	675.733	749.1499	791.6295	810.1568	845.0443	916.1566	978.1533	988.3388	1039.1678	1070.675	1152.8768	1193.7447	1225.5014	1263.231	1313.6208	1394.5258	1414.6894	1464.4472	1464.9871	1491.2099	1636.777	1688.719	1732.5292	3041.0983	3098.442	3127.0296	3188.3904	3208.6084	3490.2714	3819.6451
CC1=CC(O)=COC1=N	CC1=C(OC=C(C1)O)[NH]	
InChI=1S/C6H7NO2/c1-4-2-5(8)3-9-6(4)7/h2-3,7-8H,1H3	InChI=1S/C6H8NO2/c1-4-2-5(8)3-9-6(4)7/h3,7-8H,2H2,1H3
