23
gdb 73930	2.58222	1.23241	0.91708	0.1908	95.15	-0.2048	0.0367	0.2414	1373.8095	0.206696	-351.170334	-351.161084	-351.16014	-351.204556	35.328	
C	 0.0955426746	 1.5380298678	-0.0576260184	-0.501256
C	-0.0016718509	 0.0441090484	-0.092401267	 0.196026
C	-1.0901800035	-0.7293972802	 0.0565927746	 0.279297
C	-0.7432512636	-2.1982425437	-0.1208874719	-0.312546
C	 0.7982056187	-2.2214295097	-0.0238908518	-0.210831
C	 1.2350364902	-0.7835592697	-0.3782040751	-0.282834
C	-2.4747902035	-0.273783735	 0.2993064538	-0.102459
C	-3.6726220063	-1.0652903562	-0.195415102	-0.269673
C	-3.3925070143	-0.9902014274	 1.2775028859	-0.269082
H	 0.7981026829	 1.8682689981	 0.7190052147	 0.121014
H	 0.4833341698	 1.9287967734	-1.008168255	 0.120973
H	-0.863743335	 2.0242606167	 0.1347485095	 0.121558
H	-1.2156300697	-2.8508524905	 0.622586062	 0.096772
H	-1.0895907759	-2.5541197957	-1.102411254	 0.10175
H	 1.0928165929	-2.4462479772	 1.0063926274	 0.101522
H	 1.254293832	-2.9811787948	-0.6641748132	 0.091513
H	 1.5228692562	-0.6907579416	-1.4370121868	 0.096367
H	 2.1071130943	-0.4530673007	 0.2001095656	 0.092834
H	-2.6060926001	 0.8029565178	 0.2753247752	 0.076314
H	-4.5138856772	-0.5098197988	-0.5950236998	 0.11076
H	-3.4838471775	-2.0068621605	-0.6983868125	 0.115753
H	-3.016359962	-1.8793493776	 1.7707370091	 0.114617
H	-4.0353665422	-0.3769065829	 1.8992558396	 0.111611
60.7965	131.5506	145.8236	163.3959	189.4534	239.1433	291.1076	376.3177	441.6332	546.9551	581.0183	600.275	695.6125	786.6665	821.9625	847.4251	881.6029	894.552	909.8841	929.0314	939.0497	1007.2105	1018.4902	1044.2302	1056.5841	1067.4629	1074.7258	1091.6706	1129.9161	1156.8085	1195.1231	1199.5418	1222.9243	1232.9193	1240.7883	1275.2676	1327.9805	1331.1629	1361.3292	1401.7986	1417.5321	1467.4477	1479.6067	1485.1646	1488.095	1491.8736	1500.1719	1507.7705	1724.6783	2986.0439	2996.7966	3010.8451	3031.3322	3041.7934	3050.5404	3056.5329	3096.1545	3113.021	3134.9453	3139.2016	3157.9211	3213.3569	3229.0295
CC1=C(CCC1)C1CC1	CC1=C(CCC1)C1CC1	
InChI=1S/C9H14/c1-7-3-2-4-9(7)8-5-6-8/h8H,2-6H2,1H3	InChI=1S/C9H14/c1-7-3-2-4-9(7)8-5-6-8/h8H,2-6H2,1H3
