15
gdb 29891	3.26063	1.43003	1.00037	4.4076	71.28	-0.2434	-0.0398	0.2036	1111.3964	0.114761	-454.047693	-454.039805	-454.038861	-454.080921	28.631	
C	-0.0065776827	 1.486710124	-0.0189800158	-0.358274
N	 0.0082702998	 0.0262375687	 0.0005443908	-0.166616
C	 0.0439593327	-0.6831779486	-1.1749028188	 0.071292
C	 0.0624469673	-2.028653336	-1.2376967473	-0.303127
C	 0.0447540851	-2.8094881125	-0.0109106744	 0.444113
O	 0.0579663163	-4.0189082439	 0.084341347	-0.371637
N	 0.0085042894	-2.0015448561	 1.1425037306	-0.442358
C	-0.0105199768	-0.624233755	 1.2405802047	 0.51507
O	-0.0407759801	-0.0357489947	 2.3006025592	-0.398157
H	 0.9032487316	 1.8739829377	-0.487503612	 0.142002
H	-0.8790139067	 1.8526368408	-0.568319313	 0.141632
H	-0.0565568654	 1.827520295	 1.0133253263	 0.185889
H	 0.0561680216	-0.0685399705	-2.0683711244	 0.139012
H	 0.0899995222	-2.5529004062	-2.1813787091	 0.1285
H	-0.0048985743	-2.4916063325	 2.0270815863	 0.272659
47.325	110.052	160.2321	233.3051	341.0032	396.1732	410.319	462.0706	542.0121	620.2693	691.0947	732.4479	751.7532	775.412	800.1052	823.8311	965.8115	975.0515	1029.3656	1159.0155	1174.3835	1199.6757	1240.0177	1338.2623	1380.5132	1414.1074	1437.2297	1468.0218	1504.2516	1509.9089	1682.3716	1801.4196	1810.9944	3043.9002	3105.6181	3179.5849	3195.895	3250.8071	3610.4674
CN1C=CC(=O)NC1=O	Cn1ccc(=O)[nH]c1=O	
InChI=1S/C5H6N2O2/c1-7-3-2-4(8)6-5(7)9/h2-3H,1H3,(H,6,8,9)	InChI=1S/C5H6N2O2/c1-7-3-2-4(8)6-5(7)9/h2-3H,1H3,(H,6,8,9)
