20
gdb 116032	2.49913	1.33313	0.98598	2.9118	75.49	-0.243	0.0313	0.2742	1230.4262	0.17191	-440.293604	-440.284591	-440.283647	-440.327294	33.622	
C	-0.0848494868	 1.5800235762	-0.1297394989	-0.391009
C	 0.0327936757	 0.054421753	 0.0037829909	 0.019102
N	 0.6526578117	-0.4849057592	-1.2101292037	-0.277009
C	 1.8398641411	-0.9176780218	-1.1525702923	 0.122241
O	 2.7035443804	-0.9496493246	-0.1116964804	-0.224413
C	 2.2650145716	-0.2849294444	 1.0815022209	-0.078047
C	 0.7581540042	-0.4374251363	 1.2749842524	-0.016968
C	 0.2914105404	 0.2279659941	 2.5647599614	-0.110062
O	 0.9052760806	-0.45799093	 3.6482056731	-0.424846
H	 0.8934893834	 2.0677839324	-0.0678183046	 0.115098
H	-0.513234158	 1.8230135301	-1.1054206737	 0.133137
H	-0.7321458023	 2.0026218745	 0.6449773839	 0.111752
H	-0.9892294765	-0.3463675188	 0.0231170887	 0.085056
H	 2.3118201152	-1.3545137382	-2.0314432125	 0.12094
H	 2.8199375528	-0.7335246329	 1.9057843241	 0.135753
H	 2.5466213842	 0.7747840157	 1.0106422137	 0.105957
H	 0.5517235403	-1.5104420651	 1.377603981	 0.099338
H	 0.5677917127	 1.2936855347	 2.5664469143	 0.091477
H	-0.8072622411	 0.1736265632	 2.6284554595	 0.092959
H	 0.6598414305	-0.0159257226	 4.4660482522	 0.289544
94.8639	122.4311	155.5462	209.1989	246.4747	264.168	297.0926	322.5051	399.8149	455.1958	505.6552	567.1773	619.507	774.1436	849.6942	892.4241	903.0257	962.6352	974.9877	1007.4056	1039.3874	1053.5572	1099.113	1109.1283	1152.1915	1166.0723	1196.2173	1244.6737	1253.657	1273.2784	1324.3368	1348.7218	1352.6343	1371.028	1401.3171	1413.0691	1424.1058	1456.2383	1489.012	1497.2671	1513.5227	1523.0789	1729.1759	2967.4114	2997.7199	3007.4536	3014.094	3037.0394	3039.5847	3106.5543	3121.0863	3129.0972	3152.5336	3832.4504
CC1N=COCC1CO	C[C@H]1N=COC[C@H]1CO	
InChI=1S/C6H11NO2/c1-5-6(2-8)3-9-4-7-5/h4-6,8H,2-3H2,1H3	InChI=1S/C6H11NO2/c1-5-6(2-8)3-9-4-7-5/h4-6,8H,2-3H2,1H3/t5-,6-/m1/s1
