17
gdb 45153	2.95965	1.54343	1.18945	5.0453	73.15	-0.2373	0.0269	0.2641	1041.9844	0.137419	-417.9797	-417.972288	-417.971343	-418.011749	29.048	
O	-0.0412787054	 0.0234802103	 0.1086426359	-0.348577
C	 0.0075198481	 1.2178837848	 0.0274200237	 0.429585
N	-0.9798052202	 2.1930724478	-0.002742332	-0.325393
C	-0.0632308897	 3.3313606808	-0.0102225369	 0.025723
C	 0.3956515145	 3.8228493307	 1.3949728191	-0.338968
C	 1.5519449841	 2.8074090464	 1.3306741588	 0.364498
C	 2.9312561099	 3.0212202379	 1.8227734872	-0.310693
N	 2.0787997485	 1.9570507503	 2.3869101819	-0.342865
C	 1.114994255	 2.2969506896	-0.054152936	-0.277426
H	-1.9360475153	 2.1355078208	 0.3217340122	 0.244774
H	-0.2464081147	 4.0729924852	-0.7871167722	 0.091912
H	 0.726183407	 4.8649558452	 1.4147711308	 0.113314
H	-0.3416142188	 3.6678361992	 2.1882142765	 0.104853
H	 3.7795076873	 2.6638199997	 1.2445636138	 0.124541
H	 3.1264965235	 3.9130345079	 2.4142165836	 0.112545
H	 1.7034881101	 2.2401405733	 3.2890055258	 0.2328
H	 1.8537558662	 2.2223859203	-0.8497151722	 0.099378
84.3651	126.8852	252.6901	332.0549	361.5196	401.362	470.9007	495.0605	554.6992	682.5607	761.6258	824.1065	827.5033	859.8615	863.9169	909.9619	947.3302	966.5925	979.5942	1004.5829	1012.6506	1072.5008	1119.7053	1129.7592	1146.895	1158.2281	1200.1473	1223.114	1248.7503	1260.2159	1282.6467	1333.8818	1363.7737	1405.839	1469.1511	1511.9754	1898.1908	3050.7822	3098.8792	3103.1141	3117.0349	3141.8501	3184.9166	3496.9875	3581.7627
O=C1NC2CC3(CN3)C12	O=C1N[C@H]2C[C@]3(CN3)[C@@H]12	
InChI=1S/C6H8N2O/c9-5-4-3(8-5)1-6(4)2-7-6/h3-4,7H,1-2H2,(H,8,9)	InChI=1S/C6H8N2O/c9-5-4-3(8-5)1-6(4)2-7-6/h3-4,7H,1-2H2,(H,8,9)/t3-,4+,6-/m0/s1
