16
gdb 25807	3.90931	1.1236	0.87754	4.1016	76.32	-0.2251	-0.0244	0.2006	1273.1803	0.123995	-437.964788	-437.955837	-437.954893	-437.999155	31.705	
C	 0.1860342492	 1.4303870623	 0.0212783932	-0.494335
C	-0.0377896077	-0.0374784272	-0.03548914	 0.344638
C	-1.15595066	-0.8131889235	-0.1402781908	-0.258859
C	-0.7164757457	-2.1702910691	-0.1437591604	-0.235007
C	 0.6408439804	-2.1342707417	-0.0411147924	 0.273817
O	 1.0664933085	-0.8315763423	 0.0261027552	-0.228731
C	 1.6337079636	-3.2213474035	 0.0057801731	 0.301336
N	 2.9328268648	-2.8121275286	 0.0991586655	-0.542904
O	 1.2975293408	-4.3923900295	-0.0443726067	-0.368965
H	 0.8159982059	 1.7721671319	-0.807751075	 0.14281
H	-0.770649042	 1.9533627468	-0.0373301695	 0.141571
H	 0.6820135121	 1.7246052999	 0.9532164984	 0.142361
H	-2.1706408682	-0.4528244949	-0.207168457	 0.115157
H	-1.3107120885	-3.0668642376	-0.2121839892	 0.138698
H	 3.1732346442	-1.8413136809	 0.1942485943	 0.266219
H	 3.6459953724	-3.5160456123	 0.1826204511	 0.262194
63.7516	94.7449	119.6723	152.0494	161.0256	274.9385	329.398	398.2252	505.4286	546.9766	628.7336	647.7767	651.5009	688.3249	776.7102	815.1285	884.3905	956.5591	986.6963	1005.6708	1041.9775	1063.6972	1082.8079	1176.1958	1230.8568	1244.6947	1372.1466	1389.9056	1416.3231	1472.7762	1489.7697	1574.4398	1607.2493	1649.4176	1776.169	3032.221	3083.4178	3133.7847	3256.9736	3279.1085	3613.1386	3752.8946
CC1=CC=C(O1)C(N)=O	Cc1ccc(o1)C(=O)N	
InChI=1S/C6H7NO2/c1-4-2-3-5(9-4)6(7)8/h2-3H,1H3,(H2,7,8)	InChI=1S/C6H7NO2/c1-4-2-3-5(9-4)6(7)8/h2-3H,1H3,(H2,7,8)
