17
gdb 19947	3.87766	1.48134	1.13935	2.494	69.3	-0.2364	-0.0252	0.2112	1036.9375	0.142281	-363.838921	-363.831252	-363.830308	-363.871768	28.045	
O	-0.1444864152	-0.0292730827	 0.1217669722	-0.289146
C	-0.1071358326	 1.1653665341	 0.0992136202	 0.387067
C	-1.1575948908	 2.2758700744	 0.2598712811	-0.338346
C	 0.0165087753	 3.2653114417	 0.5245207301	-0.256825
C	 1.0529267946	 2.1924703189	 0.0472749962	-0.114851
C	 2.2822317426	 1.9131398736	 0.8648499349	 0.027589
C	 3.4583476453	 1.2450665739	 0.2568842573	-0.238427
N	 3.531677513	 2.6653579891	 0.6429649802	-0.327515
H	-1.6879600464	 2.4660949778	-0.6791530712	 0.13353
H	-1.8976766564	 2.1246586769	 1.0493682872	 0.132543
H	-0.0003289619	 4.1990775718	-0.0381782016	 0.110978
H	 0.1339169003	 3.4954907308	 1.586020587	 0.120558
H	 1.3298986042	 2.357143348	-1.0031572492	 0.092732
H	 2.0844795974	 1.7268217745	 1.9191473589	 0.094645
H	 4.0704835321	 0.5751627175	 0.8531066033	 0.124771
H	 3.4066277158	 0.9892283231	-0.7983790454	 0.113769
H	 3.438039243	 3.2510558565	-0.1841275214	 0.226927
60.0087	82.6979	139.4183	238.7292	315.1895	400.2767	447.8621	561.7675	673.631	714.4394	768.3738	836.3296	868.5055	904.4891	933.0667	956.8733	969.8685	1010.4991	1040.2015	1080.4715	1084.4535	1129.5361	1159.1033	1189.1956	1205.2509	1230.7996	1243.4503	1252.6422	1265.5433	1282.8721	1317.7024	1427.5561	1443.361	1491.8932	1513.7409	1890.7323	3019.0075	3058.3506	3077.6282	3111.2887	3113.7781	3120.5806	3137.1147	3196.8644	3488.9851
O=C1CCC1C1CN1	O=C1CC[C@H]1[C@H]1CN1	
InChI=1S/C6H9NO/c8-6-2-1-4(6)5-3-7-5/h4-5,7H,1-3H2	InChI=1S/C6H9NO/c8-6-2-1-4(6)5-3-7-5/h4-5,7H,1-3H2/t4-,5+/m0/s1
