18
gdb 81270	2.64863	1.48104	1.25248	2.4055	71.82	-0.23	-0.0215	0.2084	1060.7963	0.148914	-439.07238	-439.06453	-439.063585	-439.104526	30.808	
C	-0.1718272123	 1.5285026367	 0.014699176	-0.417549
C	 0.0713127366	 0.0212073266	-0.0594165413	-0.110075
C	 1.0381329881	-0.5335247538	-1.13051527	-0.066469
N	 1.2922952287	-1.9512908061	-0.6945306852	-0.354972
C	 1.9676378775	-1.3108087874	 0.4912210014	-0.16759
C	 2.4578475903	-0.238015583	-0.5556842977	 0.193443
O	 3.5286347046	-0.6375739241	-1.3509251674	-0.44835
C	 0.8353635984	-0.5471725397	 1.1650109623	 0.42927
O	 0.5992435444	-0.3842738981	 2.3325776285	-0.338052
H	 0.764545711	 2.0939661085	 0.0398451049	 0.126248
H	-0.7515447362	 1.8763747501	-0.8456046358	 0.121211
H	-0.7284905332	 1.7688839365	 0.9248293593	 0.143308
H	-0.8951101512	-0.4929380119	-0.1496989883	 0.09958
H	 0.8029392637	-0.3681338956	-2.183046869	 0.081695
H	 0.4477375315	-2.4737328668	-0.4578982775	 0.221689
H	 2.6498992546	-1.9013108075	 1.0998721313	 0.093152
H	 2.6737316651	 0.766657624	-0.1910658512	 0.099187
H	 3.3144377084	-1.5297130784	-1.6574805404	 0.294276
123.5558	189.2384	193.886	224.4128	309.6965	328.5578	464.934	496.8938	540.3099	542.1938	603.5747	711.4999	747.6922	809.2141	871.7089	899.2588	907.9533	929.3369	984.288	1033.01	1055.2955	1073.7091	1106.1825	1120.0719	1146.5748	1166.386	1198.0544	1217.5906	1224.7066	1269.8813	1284.9419	1318.3527	1335.4269	1352.2651	1409.2811	1455.1292	1497.2605	1499.4421	1860.8479	3018.5766	3042.6047	3106.1688	3111.0266	3117.6017	3121.6781	3146.8165	3443.928	3754.8704
CC1C2NC(C2O)C1=O	C[C@H]1[C@@H]2N[C@@H]([C@H]2O)C1=O	
InChI=1S/C6H9NO2/c1-2-3-6(9)4(7-3)5(2)8/h2-4,6-7,9H,1H3	InChI=1S/C6H9NO2/c1-2-3-6(9)4(7-3)5(2)8/h2-4,6-7,9H,1H3/t2-,3-,4+,6-/m0/s1
