19
gdb 66223	4.16373	0.68586	0.66947	5.0646	77.29	-0.2517	0.0202	0.2719	1703.0769	0.157939	-419.187659	-419.177888	-419.176944	-419.223337	34.59	
C	-0.0309881657	 1.5638990849	-0.4516211922	-0.45858
C	-0.0731031864	 0.0900886284	-0.1187091523	 0.401137
C	-1.4155922548	-0.4711887852	 0.3095942987	-0.199732
N	-1.8135114574	 0.1362414711	 1.5770881983	-0.299788
C	-3.0835982351	-0.3743313172	 2.0736333816	-0.258662
C	-3.4359289439	 0.2400026589	 3.3571270396	 0.25879
N	-3.7084623905	 0.7063190462	 4.3778631643	-0.295779
C	 0.9366817422	-0.8281576054	-0.6622848047	-0.229012
O	 1.0132524481	-0.3901702876	 0.6969847536	-0.276244
H	 0.9974425801	 1.8844660118	-0.632363974	 0.128005
H	-0.6257176174	 1.7729048172	-1.3475618372	 0.120211
H	-0.4461154247	 2.1493013386	 0.3727496886	 0.147033
H	-2.1764540194	-0.2298717799	-0.4445095759	 0.109859
H	-1.348338726	-1.5717475611	 0.3659079095	 0.088951
H	-1.0827314491	-0.0349775045	 2.2618024466	 0.245876
H	-3.8709716864	-0.1299330596	 1.3492493908	 0.155777
H	-3.1111697564	-1.4722920606	 2.2035566502	 0.132773
H	 0.7001143545	-1.8823201994	-0.80224903	 0.112587
H	 1.7112797984	-0.4378328865	-1.3210243354	 0.116798
45.2834	89.0102	95.6367	133.1623	197.7908	227.3833	289.8049	362.2682	366.282	392.5613	423.9416	480.7821	592.3024	735.7649	804.0461	843.0575	905.5323	929.5432	947.0753	963.9862	997.7793	1054.0321	1084.4847	1133.4424	1138.5153	1148.0012	1174.1896	1214.9981	1273.8054	1307.7781	1339.3204	1393.3132	1408.8935	1437.03	1477.8913	1488.1501	1496.3976	1502.2191	1504.434	1534.1384	2369.6313	2934.2553	2949.0349	3037.3697	3043.849	3045.304	3081.479	3112.6111	3135.58	3167.1861	3516.8519
CC1(CNCC#N)CO1	C[C@@]1(CNCC#N)CO1	
InChI=1S/C6H10N2O/c1-6(5-9-6)4-8-3-2-7/h8H,3-5H2,1H3	InChI=1S/C6H10N2O/c1-6(5-9-6)4-8-3-2-7/h8H,3-5H2,1H3/t6-/m1/s1
