13
gdb 129685	3.25964	1.29077	0.92923	5.9862	66.18	-0.2442	-0.0452	0.199	1149.3065	0.08898	-486.055033	-486.046923	-486.045978	-486.088343	28.641	
N	-0.1626198253	 1.4110894722	 0.017771737	-0.61371
C	-0.0110631016	 0.0156562156	-0.0127633949	 0.077332
C	-1.0303787014	-0.9109538433	-0.0005859926	 0.542723
N	-2.3719795618	-0.6285762686	 0.0435867445	-0.405435
C	-3.4357045667	-1.516687929	 0.0577506508	 0.153112
O	-3.3485443313	-2.7142300412	 0.0327613666	-0.26472
O	-0.5526617967	-2.1287612662	-0.0371695492	-0.217325
N	 0.9456514813	-1.9405906298	-0.0773393115	-0.035097
N	 1.1499583035	-0.7131349212	-0.0600272056	-0.123698
H	 0.2751786035	 1.8285723874	 0.8328614992	 0.257625
H	 0.2277908363	 1.8592729367	-0.8050531777	 0.257625
H	-2.5682555433	 0.3643805296	 0.067829737	 0.274571
H	-4.3929806563	-0.9631017323	 0.0958056865	 0.096999
56.103	134.1664	183.8327	241.4029	246.6044	283.3557	368.8609	406.5115	492.6635	623.2616	653.9471	681.098	732.2025	748.0394	824.9344	902.5695	974.2718	1021.1324	1093.6982	1206.4257	1221.4972	1274.84	1429.6463	1484.7851	1498.5817	1506.1566	1640.8634	1678.5149	1837.6246	2959.8888	3501.6601	3567.2531	3581.3878
NC1=C(NC=O)ON=N1	Nc1c(NC=O)onn1	
InChI=1S/C3H4N4O2/c4-2-3(5-1-8)9-7-6-2/h1H,4H2,(H,5,8)	InChI=1S/C3H4N4O2/c4-2-3(5-1-8)9-7-6-2/h1H,4H2,(H,5,8)
