16
gdb 28922	2.34934	1.84924	1.0408	2.4853	76.16	-0.2012	0.0054	0.2065	1086.381	0.127096	-434.124728	-434.1166	-434.115655	-434.157078	31.378	
N	-0.1249977292	 1.4354491413	-0.3305466958	-0.598264
C	-0.0610183189	 0.0597442996	-0.1151201162	 0.183182
C	-1.1868498731	-0.7343519939	 0.12386153	-0.063709
N	-1.1582361456	-2.0567217463	 0.3026224332	-0.28637
C	 0.0240069925	-2.6670031742	 0.2265220258	-0.074481
C	 1.2176869108	-1.9879915467	-0.0108065457	 0.094444
N	 2.5200909067	-2.5860118273	-0.0584592128	-0.625738
C	 1.1721010941	-0.6028352392	-0.1659564855	 0.338174
O	 2.3073677722	 0.1185957721	-0.3430246939	-0.453957
H	 0.7474727082	 1.9113248656	-0.1470549397	 0.258875
H	-0.9063879656	 1.8930905165	 0.1164214882	 0.248205
H	-2.1648457036	-0.2580231004	 0.1780508217	 0.090819
H	 0.0339944929	-3.7468480044	 0.3654756653	 0.088651
H	 2.7728486572	-2.8510028407	-1.0069937101	 0.253097
H	 2.56028327	-3.4260918041	 0.5079591915	 0.249923
H	 3.0341933715	-0.506524368	-0.1775240261	 0.29715
108.5406	162.6604	245.3742	286.2641	296.264	307.6741	330.0165	498.1094	504.799	547.404	597.9571	606.9186	652.3024	665.0647	699.4663	780.3466	844.0876	870.4271	892.2888	931.3993	1026.9334	1119.13	1169.4101	1204.2853	1273.8553	1303.6206	1332.0152	1363.0312	1387.2081	1470.9363	1539.3191	1603.035	1640.6909	1652.4085	1668.9388	3131.5047	3137.2193	3488.9694	3556.5718	3577.6158	3656.1278	3658.6631
NC1=CN=CC(N)=C1O	Nc1cncc(N)c1O	
InChI=1S/C5H7N3O/c6-3-1-8-2-4(7)5(3)9/h1-2H,6-7H2,(H,8,9)	InChI=1S/C5H7N3O/c6-3-1-8-2-4(7)5(3)9/h1-2H,6-7H2,(H,8,9)
