18
gdb 46548	3.8917	1.117	1.01663	2.1047	72.12	-0.2466	0.0259	0.2724	1188.1496	0.149179	-439.111693	-439.103783	-439.102838	-439.144802	29.838	
O	-0.0919497464	-0.058100848	 0.041464802	-0.370877
C	-0.104368992	 1.1503516695	 0.0754004586	 0.403545
C	-1.3234131148	 2.0781250128	 0.0919064816	-0.342575
C	-0.7442435072	 3.4580744734	 0.4395443216	-0.274936
C	 0.7385829182	 3.3809499318	 0.012197634	 0.279739
C	 1.1591544841	 4.1490296297	-1.2748776861	-0.116036
O	 1.8915905543	 5.1150282399	-0.499167235	-0.266303
C	 1.7206412622	 4.3522355961	 0.7091095224	-0.123303
N	 1.0027570362	 1.967022195	 0.0831942309	-0.355689
H	-1.7744924279	 2.0540535481	-0.9065461324	 0.133977
H	-2.0739823843	 1.7143514075	 0.7952364263	 0.135034
H	-1.2619074259	 4.2917347739	-0.0390480175	 0.117653
H	-0.7876385695	 3.6200834098	 1.521490692	 0.117952
H	 1.8127365361	 3.5692085981	-1.9414649904	 0.097677
H	 0.3582998446	 4.6095885706	-1.8655760447	 0.106229
H	 1.3104404132	 4.955046446	 1.5283677294	 0.108685
H	 2.6567115842	 3.8823189873	 1.0427722117	 0.098647
H	 1.9193931349	 1.5713052383	-0.0614646146	 0.25058
74.0083	84.2248	131.6638	276.3977	348.8847	423.7462	442.3788	496.0137	505.2202	577.0269	650.3582	761.1927	823.2681	847.1649	909.2549	931.9129	953.1147	982.384	1000.5659	1011.4834	1039.7549	1088.0216	1146.8388	1151.6708	1157.0659	1196.609	1226.3054	1246.3729	1299.7637	1303.0661	1310.1456	1345.0011	1374.9939	1433.6164	1470.92	1494.5429	1507.7834	1532.9719	1838.3579	2994.3094	3006.7619	3052.1306	3055.4862	3056.9407	3058.5505	3111.0419	3125.7408	3626.9952
O=C1CCC2(COC2)N1	O=C1CCC2(COC2)N1	
InChI=1S/C6H9NO2/c8-5-1-2-6(7-5)3-9-4-6/h1-4H2,(H,7,8)	InChI=1S/C6H9NO2/c8-5-1-2-6(7-5)3-9-4-6/h1-4H2,(H,7,8)
