21
gdb 74746	3.23694	1.52978	1.39259	0.3775	86.15	-0.2197	0.0266	0.2463	1041.8518	0.185767	-349.949198	-349.942014	-349.94107	-349.980308	30.588	
C	 0.0194360239	 1.4782373072	 0.0558146392	-0.51282
C	-0.0446008472	-0.011253726	-0.0126130227	 0.360156
C	-0.0563297247	-0.8151504293	-1.0846019746	-0.18679
C	-0.0111211428	-2.2642868837	-0.587162948	-0.07671
C	-0.8628964837	-2.0986841458	 0.6954871262	-0.23086
C	 0.0004979217	-0.9294174297	 1.2241094991	-0.129691
C	 1.428643221	-1.5386303402	 1.203010356	-0.008878
C	 1.6335667535	-3.0291910766	 1.3645417939	-0.330089
C	 1.4211285737	-2.4366407721	-0.0103333941	-0.003171
H	 0.9365733128	 1.8171942047	 0.5558916877	 0.124225
H	-0.0042494539	 1.9273782185	-0.9414642863	 0.121915
H	-0.8173099221	 1.890678136	 0.6343833324	 0.122715
H	-0.0079338106	-0.5148743637	-2.1245153099	 0.083054
H	-0.3274593343	-3.0282694155	-1.2986764881	 0.055139
H	-1.8807748387	-1.7796442629	 0.46510611	 0.09384
H	-0.9067152239	-2.9751309868	 1.3445195868	 0.090187
H	-0.3012916031	-0.4698994765	 2.1673799828	 0.052774
H	 2.261570466	-0.8745590133	 1.4079687545	 0.079748
H	 2.6487566263	-3.3418758237	 1.5918608437	 0.10488
H	 0.8834522328	-3.6551204255	 1.8333058249	 0.111098
H	 2.2470759035	-2.438122735	-0.7132512034	 0.079278
155.5473	187.0664	252.452	354.0943	388.1727	490.9096	499.1199	552.0828	603.9382	684.7563	755.1754	790.3002	805.3094	831.0224	872.371	883.8074	902.5124	926.0177	946.9039	971.2607	981.4473	1009.6797	1034.1261	1043.6195	1066.4386	1072.2131	1084.6259	1118.7162	1127.0995	1161.6095	1198.4527	1230.0074	1243.8344	1256.6236	1272.8577	1277.8233	1317.4544	1331.335	1364.8196	1412.2948	1478.7311	1481.1288	1487.23	1524.2814	1686.3899	3010.6844	3054.358	3076.0606	3093.118	3102.4903	3102.8182	3122.9976	3129.4137	3158.4698	3168.8998	3199.6608	3207.6534
CC1=CC2CC1C1CC21	CC1=C[C@@H]2C[C@H]1[C@H]1C[C@@H]21	
InChI=1S/C9H12/c1-5-2-6-3-7(5)9-4-8(6)9/h2,6-9H,3-4H2,1H3	InChI=1S/C9H12/c1-5-2-6-3-7(5)9-4-8(6)9/h2,6-9H,3-4H2,1H3/t6-,7-,8+,9-/m1/s1
