20
gdb 110584	3.07633	1.31632	1.08154	1.7399	79.49	-0.2402	0.0698	0.3101	1190.8398	0.170405	-403.057078	-403.048623	-403.047679	-403.090046	32.839	
C	-0.1974957744	 1.5524546953	 0.1348590599	-0.374847
C	 0.1901324753	 0.0923332892	-0.128596746	-0.223676
C	 0.8493866745	-0.557679031	 1.0750801654	-0.00404
N	-0.0495896744	-0.8112431987	 2.2907068587	-0.167761
C	-0.5581010293	-2.1458676808	 1.6898846028	-0.080317
C	-0.2307084424	-2.9046575442	 2.9799386561	-0.27004
C	 0.9228059382	-1.9191083007	 2.7744869093	-0.027495
C	 0.9457388199	-2.0774208478	 1.234227366	 0.331038
O	 1.7064858629	-3.0169429786	 0.5601102228	-0.46872
H	 0.6851367977	 2.1574656485	 0.3690728342	 0.114928
H	-0.6858017008	 1.9971740154	-0.7374401183	 0.10942
H	-0.8821121037	 1.6212623905	 0.9849124506	 0.138877
H	-0.6996644162	-0.4785193045	-0.4220998275	 0.093532
H	 0.8849498907	 0.039508228	-0.9776754925	 0.095565
H	 1.7514787123	-0.0040760574	 1.3701554083	 0.068573
H	-1.4616842573	-2.1756799885	 1.0802900041	 0.08108
H	-0.8857802163	-2.7104868715	 3.832737109	 0.106838
H	 0.0080478207	-3.9650969907	 2.8789591549	 0.109228
H	 1.761915808	-1.6617988308	 3.4228683981	 0.083737
H	 1.4360309546	-3.0276296618	-0.3647967159	 0.28408
80.3386	145.693	190.3613	237.5987	261.5899	289.9648	338.0425	372.5771	519.0635	543.9526	624.7927	730.394	761.0828	824.4987	855.086	885.644	896.1207	911.8111	931.6012	948.7421	995.7082	1021.5138	1048.9073	1084.9215	1096.1293	1135.315	1141.68	1143.6537	1177.781	1197.9767	1222.5487	1229.2429	1268.144	1285.7174	1305.6306	1342.3803	1373.1602	1408.5937	1432.3134	1483.3449	1487.4964	1497.4834	1508.7769	3014.8749	3016.3416	3037.1023	3053.463	3065.5902	3102.7411	3105.2225	3111.6716	3118.499	3133.387	3803.0806
CCC1N2C3CC2C13O	CC[C@H]1N2[C@@H]3C[C@H]2[C@]13O	
InChI=1S/C7H11NO/c1-2-4-7(9)5-3-6(7)8(4)5/h4-6,9H,2-3H2,1H3	InChI=1S/C7H11NO/c1-2-4-7(9)5-3-6(7)8(4)5/h4-6,9H,2-3H2,1H3/t4-,5-,6+,7+/m1/s1
