21
gdb 58956	2.55707	1.3759	1.11861	1.7459	78.35	-0.2397	0.066	0.3057	1195.566	0.180889	-424.188934	-424.179393	-424.178449	-424.223086	35.951	
C	 0.1815382889	 1.4556986353	 0.1671889692	-0.398981
C	-0.0975245121	-0.0419373949	-0.0116959159	 0.01674
O	-1.4870369186	-0.2914630543	-0.1806817576	-0.4346
C	 0.6694862181	-0.6082688533	-1.1711908049	 0.461469
O	 0.1839633104	-0.2041249048	-2.4716443834	-0.340139
C	 0.367444977	-1.5605667066	-2.9703434968	-0.099834
C	 0.993245988	-2.0073879111	-1.657446885	-0.219869
C	 2.1005172336	-1.0423801768	-1.2484975552	-0.081091
C	 3.1191710575	-0.4394629336	-2.1899815361	-0.42346
H	 1.2335677765	 1.6346421944	 0.4117235025	 0.112861
H	-0.0521197716	 1.9988960636	-0.7543661071	 0.126687
H	-0.4415350851	 1.8540818018	 0.9718245828	 0.121531
H	 0.1998637681	-0.5818981358	 0.8953134011	 0.088425
H	-1.6849476166	-0.0429303081	-1.0925950417	 0.284695
H	-0.6028527423	-2.0268679169	-3.1706499318	 0.114435
H	 0.9841163773	-1.5850884613	-3.8760145649	 0.106482
H	 0.8378882684	-2.9649679678	-1.1787339363	 0.101939
H	 2.4922998945	-1.3110736924	-0.2682728248	 0.090584
H	 2.6366925469	-0.0336361337	-3.0822411029	 0.13566
H	 3.653444608	 0.3834984976	-1.7036731519	 0.119458
H	 3.8613214132	-1.1816512512	-2.5023254991	 0.117009
69.1875	120.8146	156.597	187.5294	245.6011	253.697	268.0903	318.5474	335.5576	423.026	485.591	502.6266	608.3592	683.6677	747.8968	818.7169	876.325	912.7483	935.7914	966.226	973.5236	980.7314	1018.8779	1043.7633	1080.9997	1095.7179	1113.1119	1119.5515	1145.038	1169.011	1191.4455	1253.3248	1288.2629	1321.1537	1340.1279	1349.6573	1398.1365	1408.609	1423.0071	1473.6794	1491.8214	1493.4273	1499.585	1510.8654	1520.5732	3030.1709	3036.8896	3037.5641	3042.7551	3079.7176	3094.8542	3109.254	3116.2208	3124.0087	3130.828	3201.3063	3776.7456
CC(O)C12OCC1C2C	C[C@@H](O)[C@]12OC[C@H]1[C@H]2C	
InChI=1S/C7H12O2/c1-4-6-3-9-7(4,6)5(2)8/h4-6,8H,3H2,1-2H3	InChI=1S/C7H12O2/c1-4-6-3-9-7(4,6)5(2)8/h4-6,8H,3H2,1-2H3/t4-,5-,6+,7+/m1/s1
