21
gdb 36705	5.40631	0.69657	0.64542	0.7465	89.89	-0.2384	0.0267	0.2651	1732.8727	0.182225	-349.937886	-349.928629	-349.927685	-349.972696	34.738	
C	-0.0352923054	-1.2390948979	-0.089419164	-0.434245
C	-0.0433481266	-0.0386196984	-0.0260923484	 0.292309
C	-0.0176392941	 1.4169458133	 0.050233611	-0.362358
C	 1.4098071707	 1.9994447441	-0.0190178675	-0.19862
C	 1.4409574265	 3.527796081	 0.0482778384	 0.041127
C	 0.9260824298	 4.1395442621	 1.3836361539	-0.257894
C	 1.805288308	 5.3521420701	 1.5762630689	-0.066404
C	 2.8495634143	 5.3490414635	 0.7501661916	-0.059499
C	 2.859905343	 4.1332540553	-0.1443927049	-0.283881
H	-0.0410233844	-2.2992262227	-0.1442513049	 0.191595
H	-0.62046643	 1.8364002917	-0.7665519097	 0.127402
H	-0.5034910311	 1.7389783485	 0.9800539962	 0.132764
H	 2.0060671594	 1.5811958082	 0.801484035	 0.106962
H	 1.881427632	 1.6588535794	-0.9482086063	 0.106908
H	 0.8067134743	 3.9212353285	-0.7569804424	 0.074197
H	-0.1411377856	 4.3868720658	 1.3486654826	 0.101465
H	 1.0493662736	 3.4358611104	 2.2215468287	 0.102797
H	 1.6062335061	 6.1029506566	 2.3332618765	 0.089825
H	 3.6347947061	 6.096936266	 0.7295111546	 0.090308
H	 3.6436195012	 3.4276392521	 0.1710415597	 0.103317
H	 3.0691799721	 4.3696032923	-1.1941480991	 0.101925
50.3692	86.0038	104.5857	134.8732	221.0903	344.8152	349.8074	393.4352	409.5464	505.4297	614.7561	630.5376	633.5842	716.4995	765.3496	781.4212	836.4777	919.9253	931.6184	950.1603	974.6065	978.5196	981.0112	1021.7532	1060.4773	1099.312	1104.0056	1133.0885	1155.633	1167.429	1245.5613	1274.1557	1292.95	1311.8199	1319.4773	1333.6626	1361.3631	1379.123	1389.4295	1472.2187	1484.16	1488.6212	1498.2615	1689.5215	2238.2743	2987.5844	2993.7003	3010.5785	3015.0609	3031.4621	3043.693	3048.72	3054.555	3075.4521	3179.0847	3204.7843	3508.1102
C#CCCC1CC=CC1	C#CCC[C@H]1CC=CC1	
InChI=1S/C9H12/c1-2-3-6-9-7-4-5-8-9/h1,4-5,9H,3,6-8H2	InChI=1S/C9H12/c1-2-3-6-9-7-4-5-8-9/h1,4-5,9H,3,6-8H2
