25
gdb 102051	1.90101	1.25369	0.94881	2.7203	89.16	-0.2417	-0.0183	0.2235	1423.3587	0.224596	-389.514458	-389.502702	-389.501757	-389.5517	42.75	
C	 0.0199519079	 1.6107973938	 0.0728620235	-0.390944
C	 0.0216142887	 0.0980170339	-0.1759842054	-0.214569
C	-1.3823938806	-0.5376293799	-0.0395228833	-0.041398
C	-2.2106299911	-0.0820797636	-1.2264593776	 0.14923
O	-3.1797092758	 0.6316250734	-1.1659196523	-0.261563
C	-1.3899569766	-2.0997637191	 0.1098484145	 0.229881
C	-0.80584439	-2.4779163305	 1.4845249308	-0.409915
C	-2.8484801147	-2.5982821478	 0.0550557164	-0.411625
C	-0.5720893579	-2.7979129114	-0.9944041178	-0.413087
H	 1.0211758158	 2.0301424898	-0.0645755596	 0.113743
H	-0.6593756292	 2.1328441061	-0.6085000748	 0.132232
H	-0.3029426341	 1.8400658463	 1.0938859922	 0.121148
H	 0.4191073731	-0.1073130683	-1.1782560627	 0.103176
H	 0.7100121288	-0.3832812884	 0.5257180836	 0.105416
H	-1.8754073839	-0.1213142761	 0.8474917803	 0.084013
H	-1.8337061728	-0.4370851334	-2.2154925791	 0.070616
H	-1.370479691	-2.0077221184	 2.2967187732	 0.113914
H	-0.854282995	-3.5625993814	 1.6294536344	 0.112479
H	 0.2424120153	-2.1831714445	 1.5876443004	 0.114459
H	-3.3070172471	-2.4189587078	-0.9229851444	 0.119896
H	-2.8928521516	-3.6754304349	 0.2473964178	 0.109197
H	-3.4677980136	-2.0961453201	 0.8059425465	 0.120558
H	 0.4821513372	-2.5071952909	-0.9662767983	 0.115614
H	-0.6167557631	-3.8842060935	-0.8614969059	 0.113737
H	-0.9558860186	-2.578043873	-1.9955586925	 0.113792
46.4402	51.4349	77.6311	183.4314	198.8992	212.5166	251.0376	255.2142	266.0992	304.2429	322.817	332.8052	360.087	423.5574	437.095	463.4132	540.5232	762.6576	773.928	884.3845	905.041	932.3037	934.6319	954.5073	965.4613	1008.7174	1029.2221	1037.0063	1086.6082	1116.3368	1162.8323	1213.0612	1239.0969	1253.5046	1273.7507	1322.0665	1331.2509	1367.9571	1397.6483	1402.364	1417.5459	1428.0152	1434.7984	1477.8376	1481.4001	1484.7286	1491.4337	1499.3021	1504.0974	1505.9466	1509.8775	1515.9817	1825.146	2842.1839	3023.9191	3026.7278	3029.9899	3035.4216	3037.1217	3039.2304	3072.7825	3093.5586	3095.3314	3098.9396	3102.1078	3105.0719	3106.4716	3108.6502	3111.0255
CCC(C=O)C(C)(C)C	CC[C@@H](C=O)C(C)(C)C	
InChI=1S/C8H16O/c1-5-7(6-9)8(2,3)4/h6-7H,5H2,1-4H3	InChI=1S/C8H16O/c1-5-7(6-9)8(2,3)4/h6-7H,5H2,1-4H3/t7-/m0/s1
