17
gdb 128849	5.85583	0.67653	0.65123	3.6438	71.03	-0.2688	-0.0449	0.2238	1695.9638	0.135153	-455.093648	-455.084825	-455.08388	-455.129062	30.164	
C	 0.0816661476	 1.3416000069	 0.0934930484	-0.232846
O	-0.090014442	-0.049034422	-0.0566978468	-0.22738
C	 0.6632449524	-0.5837735704	-1.1163906697	-0.050388
C	 0.3641323436	-2.0845410002	-1.1866392168	-0.322513
C	 1.1644504594	-2.7713529401	-2.245461113	 0.317338
N	 0.651256316	-3.1350406067	-3.3925236922	-0.139849
O	 1.6696205028	-3.7051086472	-4.1028258127	-0.146394
N	 2.8358773176	-3.6990634781	-3.3928948263	-0.058893
C	 2.5453081556	-3.1314213259	-2.2565652157	-0.105054
H	 1.1297131096	 1.6020528605	 0.3099640228	 0.106685
H	-0.229549103	 1.8904840273	-0.8087926	 0.11015
H	-0.5417817059	 1.6575711803	 0.9328760808	 0.132683
H	 0.3995667414	-0.1031717647	-2.0730959862	 0.105621
H	 1.7421917668	-0.412472288	-0.9549320147	 0.088368
H	 0.5794570921	-2.5271025073	-0.2083803584	 0.130041
H	-0.6999479446	-2.2281858582	-1.387914693	 0.144274
H	 3.2971385606	-3.000410566	-1.4934975565	 0.148159
35.3522	76.7687	93.0226	109.1504	228.9493	260.8624	330.0112	342.8133	457.839	651.8189	697.9331	763.0417	804.9537	896.1163	898.3073	936.157	997.2132	1021.972	1034.0171	1058.1221	1095.839	1164.1123	1180.1286	1202.1368	1227.7071	1233.4688	1303.6098	1315.2754	1419.4773	1428.0869	1464.2482	1481.5468	1486.3541	1487.2506	1504.3016	1531.4101	1613.4552	2948.1675	2974.9372	2985.901	3020.366	3058.8535	3117.8706	3120.1919	3266.3761
COCCC1=NON=C1	COCCc1nonc1	
InChI=1S/C5H8N2O2/c1-8-3-2-5-4-6-9-7-5/h4H,2-3H2,1H3	InChI=1S/C5H8N2O2/c1-8-3-2-5-4-6-9-7-5/h4H,2-3H2,1H3
