21
gdb 123227	2.59914	0.73121	0.59701	4.4911	77.54	-0.2691	0.0157	0.2848	1888.0262	0.179816	-461.380548	-461.369784	-461.36884	-461.418409	36.424	
C	 0.1895891072	 1.07081783	 0.350072343	-0.383624
C	-0.0381265261	-0.4264739251	 0.1288479102	-0.186451
C	-1.514445163	-0.7953845588	 0.139193234	-0.034548
O	-1.6370426444	-2.1917596581	-0.0666199828	-0.250328
C	-2.9645321339	-2.6569033872	-0.0528332095	-0.056421
C	-2.9265202274	-4.1741018858	-0.084046478	-0.103425
O	-2.4006683633	-4.6980636617	 1.1371383033	-0.180368
C	-1.06073455	-4.8456668078	 1.2217156714	 0.179586
O	-0.5187607912	-5.1753627296	 2.2332291019	-0.281032
H	 1.2565419861	 1.3098683911	 0.3367484697	 0.121443
H	-0.2943208167	 1.6693440545	-0.4297156436	 0.116566
H	-0.2112282681	 1.3976912954	 1.3157805156	 0.1197
H	 0.3924959479	-0.7392700771	-0.829321553	 0.106785
H	 0.4701151211	-1.0080429772	 0.9062104366	 0.116091
H	-1.9764198259	-0.5142613365	 1.1004006733	 0.093447
H	-2.0547798618	-0.24796747	-0.6520522429	 0.086513
H	-3.4917769961	-2.32230107	 0.8547411221	 0.106861
H	-3.5285649501	-2.2864747231	-0.9261081939	 0.092793
H	-3.9361981425	-4.5797814204	-0.1816350092	 0.126981
H	-2.3266765485	-4.5143225891	-0.9372091696	 0.121768
H	-0.5449451633	-4.6485778137	 0.2653097413	 0.087664
36.8706	51.6597	78.9465	129.1895	136.2773	161.0659	186.8544	234.6649	263.9315	377.027	378.5466	420.9058	537.377	636.2809	765.8477	881.3096	900.3263	908.1155	933.8952	1034.5544	1038.5638	1057.2456	1067.161	1118.9012	1144.6111	1166.798	1187.3556	1196.7412	1263.1286	1273.3353	1316.7066	1319.4101	1336.2966	1392.8098	1405.056	1414.9929	1432.0916	1451.0315	1491.3048	1492.1651	1500.7564	1501.3745	1509.1459	1531.1134	1865.6405	2951.7267	2963.9733	2984.1973	2986.2291	3001.012	3033.2637	3040.335	3040.9516	3074.0166	3101.723	3111.494	3113.6765
CCCOCCOC=O	CCCOCCOC=O	
InChI=1S/C6H12O3/c1-2-3-8-4-5-9-6-7/h6H,2-5H2,1H3	InChI=1S/C6H12O3/c1-2-3-8-4-5-9-6-7/h6H,2-5H2,1H3
