18
gdb 74854	2.48374	1.82561	1.23305	1.0339	78.11	-0.2343	0.0024	0.2367	1037.4428	0.147976	-401.911293	-401.903491	-401.902547	-401.94334	30.618	
C	 0.0571667272	 1.4888986283	 0.0488572392	-0.509791
C	 0.0075573983	-0.0035035723	-0.0096522381	 0.249997
C	-0.1213584241	-0.7885506285	-1.0889032781	-0.169122
C	-0.0704199734	-2.2344851599	-0.7263742482	-0.090154
N	 1.2341174534	-2.6317548393	-0.1100427058	-0.340881
C	 0.0801599741	-2.2842440374	 0.7493630097	-0.170042
C	 0.1106653549	-0.8525311905	 1.223340553	 0.413604
C	 0.7187074353	-0.4330769314	 2.4925930049	-0.241136
O	-0.7020834883	-0.5041135866	 2.3603252453	-0.290428
H	 1.0570125245	 1.8462078631	 0.3255233585	 0.131483
H	-0.2006844969	 1.9327504924	-0.9158565656	 0.125703
H	-0.6400454488	 1.8662436484	 0.8051416705	 0.142644
H	-0.2077139302	-0.4339326416	-2.1093362522	 0.099137
H	-0.6262243725	-2.9778389303	-1.2870019738	 0.093171
H	 1.3075811889	-3.6488663118	-0.1363671688	 0.228273
H	-0.3847308126	-3.0360744474	 1.3771245674	 0.099576
H	 1.1723954018	-1.1854128309	 3.1366315536	 0.11537
H	 1.1290555084	 0.5704324358	 2.5954382785	 0.112596
121.664	167.4821	206.3879	243.6617	264.6386	373.5353	452.7351	471.1552	535.635	618.2103	675.0401	745.4697	815.3192	837.4028	859.4977	867.1597	900.4248	907.0845	965.9857	990.9277	1015.6579	1058.2123	1067.3443	1109.9496	1127.1126	1131.8096	1164.4391	1169.2304	1231.7945	1267.4377	1332.4898	1352.5998	1386.8327	1408.0363	1434.9043	1476.0578	1492.5581	1529.5493	1690.4053	3024.8212	3078.5819	3082.2649	3118.9326	3167.4064	3171.0181	3181.3745	3201.4844	3462.2681
CC1=CC2NC2C11CO1	CC1=C[C@H]2N[C@H]2[C@]21CO2	
InChI=1S/C7H9NO/c1-4-2-5-6(8-5)7(4)3-9-7/h2,5-6,8H,3H2,1H3	InChI=1S/C7H9NO/c1-4-2-5-6(8-5)7(4)3-9-7/h2,5-6,8H,3H2,1H3/t5-,6-,7-/m1/s1
