22
gdb 101954	2.13298	1.34129	0.88735	1.4248	82.41	-0.235	0.08	0.3151	1354.7898	0.193674	-404.293535	-404.283926	-404.282982	-404.328366	35.975	
O	-0.4755184115	 1.7482956062	-0.0022523672	-0.427437
C	-0.1522219843	 0.3728402816	-0.1084563976	-0.064684
C	-1.3801344904	-0.5496106045	-0.072088345	-0.003533
C	-0.9482564432	-1.9981720635	-0.163812788	 0.04329
C	-1.8163226944	-3.0435575025	-0.8188481194	-0.277581
C	-0.545293322	-2.5910244275	-1.4911414063	-0.275164
N	-2.0970979408	-0.3202317019	 1.1864521333	-0.084171
C	-3.1367622741	 0.7120325223	 1.18206903	-0.238062
C	-3.4964668179	-0.7286213489	 1.2369565395	-0.22105
H	-0.8114995464	 1.8883606386	 0.8884053458	 0.291641
H	 0.35984899	 0.2496354515	-1.0674329697	 0.108426
H	 0.5442978714	 0.0645660616	 0.6861748255	 0.089678
H	-2.0190727092	-0.3082862685	-0.9430528927	 0.054035
H	-0.3801270378	-2.3297723986	 0.7012207428	 0.090822
H	-1.8467214886	-4.0342129107	-0.3791502586	 0.113158
H	-2.7547357632	-2.7262041822	-1.2610772286	 0.109432
H	-0.6401366441	-1.9689670297	-2.375584477	 0.113157
H	 0.3001967736	-3.2691265812	-1.5175371234	 0.113283
H	-3.1968077666	 1.3273118648	 2.0763688924	 0.1126
H	-3.3237098503	 1.2416209698	 0.2506445353	 0.124769
H	-3.9353235712	-1.1629172618	 0.3414755431	 0.112154
H	-3.8227740889	-1.184087465	 2.1674972957	 0.115237
76.1787	81.3179	117.2265	159.2228	185.6223	241.1282	328.969	342.3632	395.963	422.8915	443.6249	539.2921	737.599	783.0284	826.0072	829.0349	870.6237	903.3441	924.9202	961.8726	970.297	1023.5011	1050.8116	1060.3444	1074.1091	1081.7034	1102.5986	1115.1973	1120.0707	1139.319	1165.5193	1172.0472	1193.7051	1200.6088	1224.0034	1239.4807	1288.0006	1315.0093	1352.8671	1398.4661	1415.596	1424.4952	1468.8533	1490.569	1493.0286	1505.1929	1519.8868	2916.6688	2991.2546	3086.9474	3099.4158	3105.4977	3129.3999	3133.9679	3144.632	3178.4786	3193.4347	3207.3854	3222.413	3828.1787
OCC(C1CC1)N1CC1	OC[C@@H](C1CC1)N1CC1	
InChI=1S/C7H13NO/c9-5-7(6-1-2-6)8-3-4-8/h6-7,9H,1-5H2	InChI=1S/C7H13NO/c9-5-7(6-1-2-6)8-3-4-8/h6-7,9H,1-5H2/t7-/m0/s1
