16
gdb 13915	3.61354	1.89616	1.54975	1.4128	65.56	-0.2359	0.0153	0.2512	854.002	0.132283	-379.893313	-379.886255	-379.885311	-379.924787	26.393	
N	 0.0156850991	 1.1972614365	-0.3207236016	-0.54931
C	 0.0090488273	-0.0112006059	 0.0157063551	 0.370822
O	 1.0027931547	-0.8204854395	 0.5218068583	-0.262198
C	 0.1340912399	-2.0008567806	 0.4625585747	-0.139514
C	-1.0345494502	-1.1190662898	-0.0217540619	 0.222872
C	-2.3694811072	-0.9292288304	 0.7396897627	-0.299652
C	-3.0319724299	-0.8544718345	-0.6576778573	-0.154382
N	-1.7846813135	-1.412268928	-1.2462251114	-0.354326
H	 0.9309533549	 1.6272794095	-0.17667125	 0.229067
H	 0.4991738751	-2.7227606577	-0.2720168013	 0.125594
H	 0.0308149282	-2.4625923428	 1.4477448724	 0.118646
H	-2.6533979297	-1.8161514685	 1.3100046543	 0.114917
H	-2.4400103038	-0.04444836	 1.3716665074	 0.126893
H	-3.9180303347	-1.473163573	-0.828983034	 0.104471
H	-3.2480415604	 0.1757620609	-0.9613233003	 0.117124
H	-1.4431330799	-0.9332277564	-2.0734406571	 0.228977
112.2693	119.3779	187.8597	268.2023	324.2053	490.45	538.314	683.4678	704.1138	751.2335	780.7045	863.7678	894.9798	904.5063	952.8027	960.7312	973.9888	1009.5101	1024.5497	1138.1594	1149.6387	1151.7798	1186.2883	1216.7759	1227.0391	1237.2159	1273.5741	1328.8896	1358.6809	1404.4657	1476.6597	1506.6837	1522.3723	1815.7781	3034.5677	3060.402	3077.091	3085.4278	3125.0386	3147.3665	3475.0774	3521.7268
N=C1OCC11CCN1	[NH][C]1OC[C@]21CCN2	
InChI=1S/C5H8N2O/c6-4-5(3-8-4)1-2-7-5/h6-7H,1-3H2	InChI=1S/C5H8N2O/c6-4-5(3-8-4)1-2-7-5/h6-7H,1-3H2/t5-/m0/s1
