20
gdb 12729	2.61913	2.10726	1.72198	1.2742	74.35	-0.2474	0.0748	0.3222	895.624	0.176964	-348.98252	-348.97444	-348.973496	-349.014513	31.497	
C	 0.0968630933	 1.5834615568	-0.0412480746	-0.504608
C	 0.0453596365	 0.0730683319	 0.022691589	 0.36849
C	-1.3432880988	-0.574952562	 0.3294891491	-0.280594
C	-0.7670275922	-1.2172829907	 1.6261549312	-0.217067
C	 0.6541979367	-0.8031550714	 1.1905800585	-0.059704
C	 1.2879685757	-1.7410635762	 0.1226114184	-0.282514
C	 0.8804165253	-0.7329059033	-0.9940655223	 0.083422
O	 0.1523408424	-1.1983457952	-2.1098173647	-0.433311
H	 1.129306818	 1.9495520645	-0.0831011459	 0.107573
H	-0.4248813168	 1.9524528181	-0.9329192006	 0.12261
H	-0.3830045569	 2.0372101677	 0.8333477978	 0.111199
H	-2.1485468315	 0.1460788691	 0.4896835725	 0.093898
H	-1.6635569267	-1.2836757758	-0.4360723278	 0.117668
H	-1.0954746349	-0.6923663482	 2.527883988	 0.095145
H	-0.9385408048	-2.2882861702	 1.7731932573	 0.091007
H	 1.3350157937	-0.3997721085	 1.9420013643	 0.056467
H	 2.3613698059	-1.9211531871	 0.2198183024	 0.093179
H	 0.7780236355	-2.7054257354	 0.0330451063	 0.097215
H	 1.7501859692	-0.1403797259	-1.3178627605	 0.057428
H	 0.7411408402	-1.7284394681	-2.6560144585	 0.282497
87.2727	197.6508	215.275	243.5681	254.5385	314.3268	367.0709	412.2874	516.9517	583.7512	631.2903	746.6233	771.7724	832.7763	857.4111	888.7319	931.7092	957.7885	959.3087	1010.551	1028.4529	1069.8412	1117.4863	1129.6467	1155.7454	1173.4435	1190.6129	1218.425	1243.3004	1249.0384	1269.8264	1281.0969	1294.2553	1313.2172	1347.6548	1408.5786	1426.3523	1472.552	1480.4534	1491.1942	1492.128	1499.9106	2971.842	3016.0147	3043.5558	3048.3387	3067.6862	3080.7266	3084.6045	3085.3297	3092.5493	3107.7373	3127.1911	3818.5751
CC12CCC1CC2O	C[C@]12CC[C@H]1C[C@H]2O	
InChI=1S/C7H12O/c1-7-3-2-5(7)4-6(7)8/h5-6,8H,2-4H2,1H3	InChI=1S/C7H12O/c1-7-3-2-5(7)4-6(7)8/h5-6,8H,2-4H2,1H3/t5-,6+,7-/m0/s1
