19
gdb 81144	2.60232	1.50847	1.28768	1.9291	81.42	-0.2462	0.0226	0.2688	1076.5057	0.158986	-385.841805	-385.833589	-385.832645	-385.874149	32.681	
C	-0.1747181642	 1.6426406953	-0.0452764672	-0.444029
C	 0.0237087169	 0.1391386266	 0.0058003505	-0.008552
C	 1.1706230542	-0.6101305143	-0.7160159193	 0.03999
C	 2.464128747	 0.0756559772	-0.233343231	-0.228538
C	 2.122469225	 0.1028722607	 1.2875162653	-0.275126
C	 0.7329884618	-0.5846508042	 1.1964248528	 0.319351
O	 1.0229773332	-1.6854255884	 0.2644169255	-0.330921
C	 0.0517345276	-0.9397080526	 2.412667467	 0.095251
C	-0.5236671509	-1.1995713849	 3.4357000819	-0.340526
H	 0.7477486092	 2.2010544067	 0.1341032737	 0.120889
H	-0.5607051979	 1.9448145965	-1.0248383339	 0.122758
H	-0.9063505298	 1.9563770469	 0.706832931	 0.130324
H	-0.9109544863	-0.3916665252	-0.1886921745	 0.096191
H	 1.1017089956	-0.9441834687	-1.7507564376	 0.079822
H	 3.3379725391	-0.5397847405	-0.4546080469	 0.111314
H	 2.6177937636	 1.0672392048	-0.6672895439	 0.09984
H	 2.8029041225	-0.5000120473	 1.8902228821	 0.118219
H	 2.0697065472	 1.1060167206	 1.7166208229	 0.106464
H	-1.0329933438	-1.4387240391	 4.3363576715	 0.187278
124.0104	150.9277	178.0111	254.2371	270.191	328.9079	479.9491	488.1201	530.9598	537.6421	599.5044	617.9243	681.4482	729.978	752.4896	810.5736	834.9969	877.2286	921.4501	947.3305	963.6381	974.4958	1033.2714	1075.1078	1129.9057	1134.6022	1156.45	1172.8956	1227.6136	1233.8161	1270.087	1275.6023	1306.5982	1331.5842	1390.2764	1413.1358	1474.5813	1492.6954	1500.8392	1504.0045	2240.0694	3037.4207	3067.2694	3078.4921	3088.1539	3097.9979	3115.0905	3118.4015	3129.5266	3134.9947	3502.3473
CC1C2CCC1(O2)C#C	C[C@H]1[C@H]2CC[C@@]1(O2)C#C	
InChI=1S/C8H10O/c1-3-8-5-4-7(9-8)6(8)2/h1,6-7H,4-5H2,2H3	InChI=1S/C8H10O/c1-3-8-5-4-7(9-8)6(8)2/h1,6-7H,4-5H2,2H3/t6-,7+,8-/m0/s1
