17
gdb 52660	3.50999	0.83086	0.69562	3.2443	78.66	-0.2507	0.0031	0.2538	1584.0816	0.133372	-417.977936	-417.96714	-417.966196	-418.015855	36.665	
C	-0.001061461	 1.4814170327	 0.0049772692	-0.500719
C	-0.0180343847	 0.0263231098	-0.0021669149	 0.109981
C	-0.0302000888	-1.1769234382	 0.0055872494	 0.08483
C	-0.0544496711	-2.6363380054	-0.0299424294	-0.204138
N	-1.4277624258	-3.1312137326	-0.077783773	-0.505304
C	 0.8513047855	-3.1338629795	-1.2129327954	-0.010724
O	 2.1837563698	-2.6873159695	-1.1344332666	-0.39767
C	 0.780575028	-4.6092789807	-1.2926438026	 0.243519
N	 0.7317655305	-5.7643767456	-1.3047212093	-0.319948
H	 0.7368446567	 1.8717471339	-0.7040917707	 0.15463
H	-0.978982572	 1.8894943377	-0.2721665927	 0.153469
H	 0.2516972374	 1.8692882906	 0.997629509	 0.153956
H	 0.3986303025	-3.0293471471	 0.8927586716	 0.114335
H	-1.9075463488	-2.7642040972	-0.8939361863	 0.236339
H	-1.4378952859	-4.1455712681	-0.1365185056	 0.248268
H	 0.4487480382	-2.7189372427	-2.1428824878	 0.142039
H	 2.5723103296	-3.0213408581	-0.317257045	 0.297136
14.4162	51.2034	75.973	146.8766	158.3532	224.502	250.63	285.9793	290.4878	337.4169	348.2427	415.775	470.493	530.8296	553.7494	614.5323	777.559	835.6051	920.4999	1005.193	1052.1462	1052.9362	1066.8156	1092.8041	1173.683	1196.8733	1244.9536	1288.0371	1346.1552	1407.1175	1413.8291	1418.1869	1476.4173	1477.063	1650.4222	2347.4383	2377.4178	2992.0743	3030.5087	3071.2374	3093.2278	3093.7683	3492.3507	3583.0237	3796.755
CC#CC(N)C(O)C#N	CC#C[C@@H](N)[C@@H](O)C#N	
InChI=1S/C6H8N2O/c1-2-3-5(8)6(9)4-7/h5-6,9H,8H2,1H3	InChI=1S/C6H8N2O/c1-2-3-5(8)6(9)4-7/h5-6,9H,8H2,1H3/t5-,6+/m1/s1
