17
gdb 85774	3.06461	1.23485	0.93516	1.9072	71.13	-0.2593	-0.0118	0.2475	1236.7015	0.135855	-455.222308	-455.213061	-455.212116	-455.257028	32.731	
C	-0.1064856904	 1.58344841	 0.0340924978	-0.404888
C	 0.0026566363	 0.0645086982	-0.0104240586	-0.143294
C	 0.7696504171	-0.5864522207	-1.2099262113	-0.180264
N	 1.7161900412	-1.1298138024	-0.2278649064	-0.156157
C	 2.8672795312	-1.9202049625	-0.4057647607	 0.466105
N	 3.4781006487	-2.2092109336	 0.771956417	-0.567083
O	 3.2213880969	-2.2761928091	-1.5090844548	-0.388613
C	 1.0967863297	-0.5654040819	 0.8738912712	 0.43177
O	 1.3842734201	-0.5945030666	 2.0454090582	-0.385752
H	 0.8616739417	 2.0560416817	-0.1606397237	 0.129016
H	-0.8184183641	 1.9460251923	-0.7134655634	 0.127967
H	-0.4492488152	 1.9118723245	 1.0193875218	 0.142218
H	-0.9695249041	-0.4036622277	 0.1695017641	 0.113806
H	 0.2304613462	-1.3555167929	-1.7666839811	 0.132173
H	 1.228886216	 0.1218304891	-1.9038392202	 0.131045
H	 3.124654912	-1.8355513637	 1.6415875792	 0.283478
H	 4.3283129466	-2.7432555749	 0.7409203109	 0.268475
51.4993	76.0162	151.3652	175.8661	220.9215	232.5893	257.5131	341.9929	402.835	440.7373	585.8481	614.8218	655.9143	738.5608	772.6535	775.8654	849.829	921.5008	943.9373	1081.2936	1099.1474	1114.8645	1150.6337	1174.9064	1191.9788	1226.8953	1244.2203	1337.7133	1364.0328	1394.8804	1412.7242	1495.2354	1496.7458	1522.1719	1617.401	1820.1244	1854.34	3039.4462	3068.7234	3073.7829	3110.5085	3117.7107	3124.9263	3556.9327	3731.8825
CC1CN(C(N)=O)C1=O	C[C@H]1CN(C(=O)N)C1=O	
InChI=1S/C5H8N2O2/c1-3-2-7(4(3)8)5(6)9/h3H,2H2,1H3,(H2,6,9)	InChI=1S/C5H8N2O2/c1-3-2-7(4(3)8)5(6)9/h3H,2H2,1H3,(H2,6,9)/t3-/m0/s1
