15
gdb 35623	2.14986	1.81621	1.11633	2.7139	76.61	-0.239	0.008	0.247	1064.2705	0.111916	-379.599531	-379.591211	-379.590267	-379.632644	31.175	
C	-0.2859882122	-1.2092107904	 0.287671421	-0.472084
C	-0.1049611072	-0.031367913	 0.1325774555	 0.368915
C	 0.0515825779	 1.4086247812	-0.0434246247	-0.199735
N	-0.6546223766	 2.175927934	 1.0049202025	-0.299334
C	 0.3198907163	 2.5847691967	 1.9059148193	 0.067316
N	 1.5391189176	 2.524546197	 1.5405639535	-0.234407
C	 1.5213029803	 1.9721680163	 0.1660955454	-0.172257
C	 2.5901236173	 1.0187958195	-0.0869951554	 0.356918
C	 3.4771658908	 0.2447098475	-0.3226662009	-0.445886
H	-0.4223957023	-2.2539826352	 0.4222880174	 0.205408
H	-0.3132993877	 1.6937831385	-1.034041793	 0.12244
H	-1.4923318371	 1.7527809107	 1.3814741785	 0.250129
H	 0.0072570147	 2.9853569768	 2.8661703394	 0.131843
H	 1.6408385858	 2.8183125747	-0.5251842742	 0.123531
H	 4.2614378925	-0.4436510844	-0.5190983743	 0.197202
66.3698	115.4141	173.5556	190.2144	269.9852	403.1255	450.0939	466.0703	558.6938	592.0542	626.4922	630.9329	640.232	656.9645	665.3966	773.9509	823.9411	870.2024	935.0404	973.5401	1026.9794	1049.8564	1076.2506	1124.8364	1226.5432	1268.8476	1322.0967	1341.6544	1360.265	1422.3887	1693.2585	2235.1664	2247.3746	3001.6593	3066.1995	3184.9599	3502.105	3505.2213	3587.4207
C#CC1NC=NC1C#C	C#C[C@H]1N[CH][N][C@H]1C#C	
InChI=1S/C7H6N2/c1-3-6-7(4-2)9-5-8-6/h1-2,5-7H,(H,8,9)	InChI=1S/C7H6N2/c1-3-6-7(4-2)9-5-8-6/h1-2,5-7H,(H,8,9)/t6-,7+
