18
gdb 62826	2.13828	1.70837	1.40548	1.4708	72.63	-0.2492	-0.0425	0.2067	1020.5457	0.146299	-439.019234	-439.010544	-439.0096	-439.052754	32.798	
C	 0.0055557184	 1.6277150839	 0.0357916764	-0.487366
C	 0.0691299338	 0.1069892539	 0.0334787133	 0.399248
O	-1.2295557567	-0.4233036349	-0.1524491227	-0.480232
C	 1.1372148733	-0.6973113424	-0.7708457895	-0.071716
C	 2.2225540321	-0.2598097688	 0.2450385225	-0.261363
C	 0.9613003967	-0.689464446	 1.0512559532	 0.18815
N	 0.9257449529	-1.9094823345	 0.1338102204	-0.373842
C	 0.7854328784	-0.8037379502	 2.5270230012	 0.022623
O	 0.0486770233	-0.0836910348	 3.158323228	-0.258714
H	 0.9827257801	 2.1079533408	 0.1002007885	 0.124596
H	-0.4889738182	 1.9719745081	-0.8773777278	 0.130686
H	-0.5835314225	 1.9699911259	 0.8937246891	 0.134025
H	-1.7906088049	-0.07848856	 0.5510669891	 0.29154
H	 1.2275047285	-0.8028776189	-1.8528544377	 0.089026
H	 3.0550958458	-0.9570041565	 0.3255059411	 0.122105
H	 2.5321487176	 0.7820882389	 0.2828047367	 0.108732
H	-0.0534755431	-2.1934793654	 0.042990185	 0.229191
H	 1.3744966244	-1.6108652994	 3.0154190431	 0.093311
48.6134	126.9422	180.1284	202.9748	287.7278	335.1994	345.5166	411.7092	428.2618	471.4537	549.828	610.5799	673.7874	746.9189	785.3204	816.8828	889.3305	919.7716	966.6367	987.8943	1031.9052	1053.6822	1093.3111	1099.9744	1129.3153	1176.1697	1193.6104	1212.3691	1221.5869	1289.841	1310.9513	1323.8288	1369.7543	1406.4498	1416.1196	1487.6786	1495.0424	1507.3014	1805.5827	2894.0072	3042.8131	3102.3255	3106.6752	3113.4179	3137.9432	3185.5001	3419.0522	3806.0866
CC1(O)C2CC1(N2)C=O	C[C@@]1(O)[C@H]2C[C@@]1(N2)C=O	
InChI=1S/C6H9NO2/c1-5(9)4-2-6(5,3-8)7-4/h3-4,7,9H,2H2,1H3	InChI=1S/C6H9NO2/c1-5(9)4-2-6(5,3-8)7-4/h3-4,7,9H,2H2,1H3/t4-,5-,6-/m1/s1
