17
gdb 96879	4.12028	0.95282	0.84076	2.3017	72.13	-0.2483	0.0162	0.2646	1366.2197	0.135	-455.175011	-455.165649	-455.164705	-455.210273	32.954	
C	-0.640360539	 1.5901531637	 0.4648552687	-0.341149
N	-0.5286153504	 0.38319574	-0.341210197	-0.314609
C	-1.1714301277	-0.6359559415	-0.0226450054	 0.462795
C	-1.3112906927	-2.0386454717	-0.5696025326	-0.385506
C	-2.2678023706	-2.239984471	 0.6286434014	 0.033124
O	-2.0479688595	-0.8554438878	 1.0487698569	-0.290604
C	-3.7142076914	-2.5709807253	 0.28401502	 0.364987
N	-4.5785206819	-1.5359495424	 0.4181839207	-0.517698
O	-4.0097851607	-3.6880733195	-0.0925220715	-0.365027
H	 0.3590429832	 1.8882603735	 0.7988971287	 0.133649
H	-1.0227680573	 2.4036538792	-0.1613187794	 0.13122
H	-1.287980142	 1.4859136407	 1.3433155671	 0.12224
H	-1.7736585022	-2.1116038001	-1.5549612518	 0.152526
H	-0.3969797986	-2.6326944582	-0.5515281861	 0.145986
H	-1.9166733364	-2.9379851357	 1.3917959498	 0.126329
H	-4.2593260072	-0.6524945898	 0.7780337141	 0.274965
H	-5.5556922857	-1.6881229639	 0.2318882065	 0.266771
46.4829	67.2745	88.059	168.0645	213.1947	254.0024	297.375	316.5242	451.2049	501.4494	528.3233	562.5487	624.4112	721.8051	753.4833	787.2561	932.5322	958.2592	1007.4821	1019.0411	1069.9459	1091.3435	1096.8873	1120.7939	1136.3616	1180.0232	1236.3005	1273.8607	1329.7716	1385.8648	1439.933	1469.9797	1493.4466	1497.86	1598.0307	1806.2672	1859.5876	3018.1743	3086.4849	3089.5252	3093.4597	3096.9596	3149.2641	3599.9878	3739.2753
CN=C1CC(O1)C(N)=O	CN=C1C[C@@H](O1)C(=O)N	
InChI=1S/C5H8N2O2/c1-7-4-2-3(9-4)5(6)8/h3H,2H2,1H3,(H2,6,8)	InChI=1S/C5H8N2O2/c1-7-4-2-3(9-4)5(6)8/h3H,2H2,1H3,(H2,6,8)/t3-/m1/s1
