18
gdb 75532	2.26827	1.63819	0.99507	1.7482	75.79	-0.2376	0.0049	0.2424	1177.1707	0.150162	-435.328104	-435.319548	-435.318604	-435.361715	31.772	
C	-0.2216167142	 1.5052576379	-0.0214871016	-0.465002
C	 0.0310779947	 0.0141841391	-0.077365687	 0.374073
N	-0.1591480771	-0.5904325161	-1.178257531	-0.281738
C	 0.0276445284	-2.0142119177	-1.3570500204	-0.148152
C	 1.1926871715	-2.6514536422	-0.5956529058	-0.188336
N	 0.940431568	-2.7649566526	 0.8302686585	-0.331445
C	 0.7548274153	-1.7355190397	 1.7028104592	 0.435955
O	 0.8452354183	-1.8615417342	 2.9107982283	-0.401758
N	 0.4525458847	-0.4743772609	 1.1675879252	-0.390421
H	 0.6810674381	 2.0453228504	 0.2859783227	 0.133886
H	-0.5298300353	 1.8489258652	-1.0070423611	 0.152138
H	-1.0095746934	 1.7401607281	 0.7038202217	 0.134783
H	-0.8970314367	-2.544773626	-1.0903516567	 0.116622
H	 0.1868556673	-2.1872219656	-2.4283688892	 0.107154
H	 1.3490812574	-3.6663101711	-0.9716319592	 0.117012
H	 2.1124369495	-2.0844126665	-0.7979449594	 0.120169
H	 1.2252538321	-3.608932567	 1.3009007807	 0.257308
H	 0.4248510014	 0.1959183188	 1.9221886249	 0.257752
60.0859	108.6661	154.018	206.0517	285.7712	314.9789	385.1615	407.6109	503.3675	516.9101	590.0056	625.2927	656.7938	667.376	767.1409	826.0701	891.1928	953.6821	970.8037	1044.6475	1052.3224	1091.1062	1123.2512	1156.6191	1232.9493	1260.3628	1307.486	1352.5013	1378.5801	1399.9092	1435.3404	1456.5803	1475.022	1485.4712	1487.0897	1497.041	1506.7897	1765.9012	1804.3367	3004.0433	3013.2033	3033.4478	3049.0694	3088.6136	3090.6192	3171.5886	3614.0412	3644.426
CC1=NCCNC(=O)N1	CC1=NCCNC(=O)N1	
InChI=1S/C5H9N3O/c1-4-6-2-3-7-5(9)8-4/h2-3H2,1H3,(H2,6,7,8,9)	InChI=1S/C5H9N3O/c1-4-6-2-3-7-5(9)8-4/h2-3H2,1H3,(H2,6,7,8,9)
