17
gdb 66028	2.79914	1.24161	1.11948	2.7601	79.43	-0.2532	0.0057	0.2589	1148.9292	0.134732	-380.828303	-380.819207	-380.818263	-380.862039	33.659	
C	-0.4536616212	 1.563662201	 0.0601946586	-0.432191
C	 0.0021239061	 0.1099898082	 0.0550539902	 0.148032
N	 1.3129600234	-0.1265204494	-0.5980219997	-0.326546
C	 1.7509175819	-1.0551901036	 0.4658221626	-0.170651
C	 0.6093963374	-0.5200375558	 1.3856562654	-0.250738
C	 1.0086177838	 0.4277443068	 2.4020822298	 0.34353
C	 1.3454710411	 1.2049706809	 3.2552904999	-0.44593
C	-1.0603137151	-0.7655128059	-0.4688812144	 0.251902
N	-1.870245539	-1.4650203144	-0.9082753274	-0.341747
H	 0.3363224551	 2.1854021976	 0.4833195922	 0.145182
H	-0.6574580396	 1.8937222561	-0.9626325328	 0.132911
H	-1.3656978052	 1.6861673343	 0.651464694	 0.135731
H	 1.270131497	-0.5071241237	-1.5372138091	 0.234401
H	 1.6179404671	-2.119307866	 0.2358873502	 0.115649
H	 2.7713159547	-0.881170682	 0.8145926861	 0.12436
H	-0.0214969696	-1.2978935804	 1.8187805327	 0.130908
H	 1.6411509521	 1.8887508261	 4.0123805218	 0.205197
70.2531	130.0495	162.4563	191.9339	223.4877	232.6439	316.5249	374.826	473.2763	478.7821	553.4035	583.6161	628.7594	643.5682	651.6215	715.5403	826.517	862.6868	913.3163	966.4767	1003.9749	1056.9595	1090.3245	1136.6505	1164.1054	1166.0563	1201.9045	1218.4344	1320.4451	1342.7489	1384.0654	1410.6661	1480.8927	1485.0283	1518.4506	2236.6235	2338.8979	3026.7106	3049.547	3094.9784	3103.0101	3121.3611	3150.8406	3501.5789	3536.5388
CC1(NCC1C#C)C#N	C[C@]1(NC[C@H]1C#C)C#N	
InChI=1S/C7H8N2/c1-3-6-4-9-7(6,2)5-8/h1,6,9H,4H2,2H3	InChI=1S/C7H8N2/c1-3-6-4-9-7(6,2)5-8/h1,6,9H,4H2,2H3/t6-,7+/m1/s1
