18
gdb 97406	2.68778	1.02422	0.80021	2.6811	82.8	-0.241	0.0213	0.2623	1455.3832	0.144481	-401.888931	-401.879265	-401.878321	-401.924174	34.697	
C	 0.3319857652	 0.9005108143	-0.4306072955	-0.313993
N	-0.2414876951	-0.1525985817	 0.3807408465	-0.204841
C	 0.5526989625	-0.9508619174	 0.9346810637	 0.136875
O	 0.0733851617	-1.9715631581	 1.6933062725	-0.205124
C	 1.0286681759	-2.7069214715	 2.3965365694	 0.10953
C	 0.7122987558	-4.143317248	 2.6139192446	-0.317032
C	 1.85459382	-3.7694439094	 1.6707359594	-0.233477
C	 1.7180855262	-3.9562909414	 0.2585964494	 0.327098
C	 1.6211599021	-4.1014712149	-0.9314137181	-0.447183
H	 1.4338966275	 0.8963171351	-0.4600789309	 0.096864
H	-0.0387807876	 0.814515893	-1.4583299638	 0.129189
H	 0.0004916276	 1.8748290563	-0.0539855118	 0.127516
H	 1.6492787754	-0.9160007635	 0.8666137061	 0.084341
H	 1.5295619161	-2.1520588607	 3.1869256436	 0.110887
H	 0.963762037	-4.5985501435	 3.5643828899	 0.127519
H	-0.1945909934	-4.5053851876	 2.1452338409	 0.151048
H	 2.8587353677	-3.912831789	 2.0600808063	 0.120066
H	 1.5246728055	-4.2346577419	-1.9803301323	 0.200719
49.0491	83.9448	126.3367	149.1237	206.8939	212.167	302.2907	327.1036	359.0304	449.4598	514.7955	570.7171	594.0138	654.5022	672.7658	775.9734	788.0648	868.678	978.5902	990.14	1028.242	1060.9992	1077.1099	1117.6536	1124.2967	1141.3222	1144.4026	1180.7286	1206.6745	1260.4341	1367.475	1386.7291	1412.8278	1450.2156	1478.1265	1480.8146	1504.0397	1783.0077	2239.2893	2969.2773	3019.4214	3059.6512	3078.888	3126.0348	3145.4449	3151.1537	3246.9962	3505.1253
CN=COC1CC1C#C	CN=CO[C@H]1C[C@H]1C#C	
InChI=1S/C7H9NO/c1-3-6-4-7(6)9-5-8-2/h1,5-7H,4H2,2H3	InChI=1S/C7H9NO/c1-3-6-4-7(6)9-5-8-2/h1,5-7H,4H2,2H3/t6-,7+/m1/s1
