20
gdb 7009	2.57518	1.81976	1.4641	1.6375	70.32	-0.2367	0.0641	0.3008	976.6513	0.174903	-386.135439	-386.126268	-386.125324	-386.168207	35.142	
C	-0.8729688182	 1.1919658232	-0.0641278555	-0.420925
C	 0.0487959894	-0.0174127832	-0.0830834367	 0.022191
C	 1.4239942065	 0.0680310385	-0.8041520913	-0.304812
C	 1.998062035	-0.8642400885	 0.2909950734	 0.104077
O	 3.3211745039	-0.7179895238	 0.746493877	-0.436597
C	 0.7898983244	-0.4787925016	 1.206890426	 0.349125
C	 1.1241525391	 0.6240520984	 2.2072815028	-0.464409
O	 0.1103858951	-1.5461140866	 1.843417759	-0.481617
H	-0.3601066405	 2.0910401415	 0.2935688548	 0.108959
H	-1.2493987311	 1.4074676338	-1.0699875237	 0.116002
H	-1.7394261478	 1.0186202015	 0.58310619	 0.123669
H	-0.4977927201	-0.8909978891	-0.4531263752	 0.088627
H	 1.4867216281	-0.2615170896	-1.8430098011	 0.103646
H	 1.8517056861	 1.0757265162	-0.7327997847	 0.087659
H	 1.8911879079	-1.9148589063	 0.0059978078	 0.095957
H	 3.4851494741	 0.2187025598	 0.8958046553	 0.278968
H	 1.572978691	 1.5018933583	 1.7300238061	 0.107872
H	 0.220551353	 0.9507873108	 2.728837234	 0.12947
H	 1.8404322173	 0.253304788	 2.9499162159	 0.116284
H	 0.6342004569	-1.8253814414	 2.6027339761	 0.275854
112.5472	209.3416	214.4888	231.2758	238.6744	272.5387	293.2078	302.7294	327.461	399.5798	457.2514	503.8986	539.6438	588.0997	716.5214	814.5579	872.3116	895.2969	939.4478	961.2374	1011.9475	1058.5854	1067.0864	1110.0549	1157.0185	1162.0486	1176.479	1210.6972	1232.1335	1252.1448	1301.6273	1317.8151	1358.7557	1385.5346	1405.0546	1411.8307	1436.7065	1488.3907	1491.5032	1492.0965	1503.3501	1504.9418	3027.1087	3029.4384	3035.0954	3055.7088	3076.2309	3089.3118	3094.9942	3099.598	3111.8012	3116.4267	3797.0295	3814.7983
CC1CC(O)C1(C)O	C[C@H]1C[C@@H](O)[C@]1(C)O	
InChI=1S/C6H12O2/c1-4-3-5(7)6(4,2)8/h4-5,7-8H,3H2,1-2H3	InChI=1S/C6H12O2/c1-4-3-5(7)6(4,2)8/h4-5,7-8H,3H2,1-2H3/t4-,5+,6+/m0/s1
