13
gdb 11685	5.4561	1.4777	1.34592	3.6411	66.34	-0.2554	-0.0245	0.2309	889.1917	0.094121	-361.406196	-361.399253	-361.398309	-361.437264	26.289	
O	 0.0658220109	 0.0315345214	-0.0361948231	-0.28749
C	-0.0030402241	 1.2160291157	 0.03680488	 0.418253
C	-1.1351364725	 2.2447668118	 0.1734994653	-0.42538
C	-0.020643002	 3.2983350007	 0.1021575824	 0.126721
C	 1.0066032915	 3.0235693578	 1.12581259	-0.264225
N	 1.0651070996	 2.195878915	-0.1127059207	-0.195958
C	-0.0680710892	 4.4797432066	-0.6888780908	 0.226314
C	-0.1481254163	 5.4869502168	-1.3407924274	-0.385732
H	-1.7859120847	 2.2382450249	-0.7035501495	 0.157804
H	-1.7426613791	 2.2172922643	 1.0811029892	 0.138971
H	 1.8436663511	 3.709048086	 1.1978494837	 0.152385
H	 0.7205390525	 2.5468113386	 2.0609291707	 0.136193
H	-0.2067605877	 6.3733774302	-1.9230017899	 0.202144
99.7781	159.9734	230.9897	365.4469	444.3689	492.6447	529.2905	571.5123	602.2837	622.9237	643.6735	664.1288	743.3058	836.3148	924.3335	965.9854	1005.8604	1030.2943	1100.1181	1130.1888	1168.4772	1212.8525	1243.9039	1360.1233	1453.257	1504.3155	1926.2769	2241.7054	3075.1498	3112.3009	3134.9126	3216.2889	3501.2555
O=C1CC2(CN12)C#C	O=C1C[C@]2(CN12)C#C	
InChI=1S/C6H5NO/c1-2-6-3-5(8)7(6)4-6/h1H,3-4H2	InChI=1S/C6H5NO/c1-2-6-3-5(8)7(6)4-6/h1H,3-4H2/t6-,7?/m0/s1
