19
gdb 64789	4.46274	0.63724	0.62057	3.9716	87.54	-0.2629	-0.0575	0.2054	1826.1967	0.156524	-385.861507	-385.85149	-385.850545	-385.898286	35.177	
C	 0.0570306425	 1.5598681743	 0.4396349781	-0.460925
C	-0.0007277445	 0.0848943191	 0.0969157753	 0.382507
C	-1.3701427033	-0.4102922842	-0.370010269	-0.44248
C	-1.8302440623	 0.2007958585	-1.6110436379	 0.125365
C	-2.2125143592	 0.705186104	-2.6407129685	 0.015675
C	-2.6385902554	 1.32463133	-3.8675029851	 0.019121
O	-3.6401615421	 1.0270633293	-4.4781601964	-0.230827
C	 1.2145513558	-0.5668990552	-0.5134478524	-0.289531
C	 0.8236815985	-0.8798925463	 0.9130792139	-0.31545
H	 1.0626765956	 1.8487592587	 0.758605188	 0.117289
H	-0.2124065104	 2.1764516428	-0.4245086318	 0.128094
H	-0.6349418583	 1.8049365154	 1.2543267415	 0.116695
H	-1.347310201	-1.4991997619	-0.5046691319	 0.138877
H	-2.1207101751	-0.2208801326	 0.4107408048	 0.141917
H	-1.9600749604	 2.1243482959	-4.2296133427	 0.095938
H	 1.0647357136	-1.3358758846	-1.2640398125	 0.11583
H	 2.0917030779	 0.0485549851	-0.68127558	 0.114803
H	 1.4335676898	-0.4738803543	 1.7129697146	 0.115241
H	 0.4124797183	-1.8612513839	 1.126288282	 0.111863
23.7656	56.4598	73.0848	165.3329	180.4897	225.4065	304.9209	334.3475	344.1457	378.9162	404.426	487.5922	611.3123	724.5708	782.8142	827.6204	872.7504	894.0438	937.0755	956.4849	975.7289	1022.5739	1045.8342	1070.3572	1083.2325	1124.1259	1153.2383	1187.3242	1205.311	1305.0817	1329.0935	1372.8081	1421.5744	1423.5091	1448.9553	1471.6633	1491.3126	1500.3956	1512.5363	1766.5273	2326.2011	2912.4088	3009.5893	3026.5663	3047.5932	3088.5244	3108.0764	3128.666	3133.8757	3206.9102	3221.1522
CC1(CC#CC=O)CC1	CC1(CC#CC=O)CC1	
InChI=1S/C8H10O/c1-8(5-6-8)4-2-3-7-9/h7H,4-6H2,1H3	InChI=1S/C8H10O/c1-8(5-6-8)4-2-3-7-9/h7H,4-6H2,1H3
