20
gdb 38731	2.63932	2.02955	1.6178	1.5184	77.87	-0.2277	0.0866	0.3144	918.2963	0.174581	-403.114652	-403.107941	-403.106997	-403.145168	28.944	
C	-0.0922664922	 1.4818288634	 0.0665000958	-0.320777
N	 1.2503871553	 0.9043062961	-0.0019885377	-0.122214
C	 2.0459531755	 0.4767809282	 1.1663370924	-0.191394
C	 1.5520172535	-0.9757194092	 1.3934366059	 0.130847
C	 0.0394230707	-0.755907231	 1.2909109185	-0.271147
C	 0.0613970448	 0.0076134009	-0.0358966452	 0.291259
C	 0.1682830568	-0.9656178683	-1.1887609192	-0.302693
C	 1.5736053805	-1.6074259514	-0.986760094	-0.043604
O	 1.9330899364	-1.8989818214	 0.3732828815	-0.290147
H	-0.4754660823	 1.8613882691	 1.0153385899	 0.10512
H	-0.3474189622	 2.0996164314	-0.7927141484	 0.11582
H	 3.1078557457	 0.5256136555	 0.9098345351	 0.113798
H	 1.8808115535	 1.0802282018	 2.0703538909	 0.095417
H	 1.9114945682	-1.4168484572	 2.3274696631	 0.073774
H	-0.5155687169	-1.693971734	 1.24150973	 0.103898
H	-0.342579639	-0.1580314342	 2.1230483145	 0.094084
H	-0.6318176525	-1.7126187696	-1.1629824167	 0.09833
H	 0.1480344783	-0.4732362293	-2.1656584437	 0.104736
H	 1.6556438455	-2.5645061671	-1.5100945684	 0.100311
H	 2.3082882104	-0.9141193538	-1.4119712242	 0.114582
220.1566	254.3001	345.2557	365.459	418.0711	438.8147	478.7295	575.4069	611.1319	751.0887	765.7439	780.5402	821.0619	842.3762	872.4994	897.8794	925.6476	941.6806	974.4344	1003.4591	1024.3757	1048.767	1060.0748	1083.9598	1133.7257	1158.2224	1175.4257	1203.8551	1216.9524	1247.2461	1257.9231	1275.4577	1310.4671	1319.5628	1333.9545	1366.8928	1390.7685	1420.5029	1477.391	1488.7939	1490.9688	1504.1588	1513.0867	3004.8402	3034.0636	3045.5638	3059.9825	3068.371	3079.3353	3085.7936	3088.6741	3100.0036	3125.6417	3153.7268
C1N2CC3CC12CCO3	C1N2C[C@H]3C[C@@]12CCO3	
InChI=1S/C7H11NO/c1-2-9-6-3-7(1)5-8(7)4-6/h6H,1-5H2	InChI=1S/C7H11NO/c1-2-9-6-3-7(1)5-8(7)4-6/h6H,1-5H2/t6-,7+,8?/m1/s1
