19
gdb 105680	2.2683	1.2613	1.20101	2.9875	72.2	-0.2565	-0.0387	0.2178	1163.6222	0.157687	-460.153033	-460.143692	-460.142748	-460.187132	34.611	
O	 0.1495039017	 1.3512047935	-0.2103621191	-0.432887
C	 0.0950563847	-0.0365329051	 0.0541406641	-0.111216
C	-1.3460514513	-0.5600342954	 0.0864970289	 0.138989
C	-2.0541839172	-0.5032946027	-1.3107977171	-0.267412
C	-1.6806836999	-1.9907819317	-1.543908508	-0.244459
C	-1.4521021124	-2.1307855549	-0.0300086055	 0.089046
O	-0.3366924267	-2.9073574939	 0.3207546985	-0.416346
C	-2.1370943195	 0.0659499465	 1.1965050458	 0.102105
O	-1.7600838026	 0.9781564126	 1.8975992419	-0.275355
H	-0.265216223	 1.7773730587	 0.5504632771	 0.294867
H	 0.6561691806	-0.5349250385	-0.7407713693	 0.11479
H	 0.5904185182	-0.2870208198	 1.0034120629	 0.090488
H	-3.1343410383	-0.3518289036	-1.2262538345	 0.105745
H	-1.6450510216	 0.2477825071	-1.9870944144	 0.136683
H	-2.4233252897	-2.6460178329	-2.0026977457	 0.106108
H	-0.7356783124	-2.0969326161	-2.0816716449	 0.126931
H	-2.3643103024	-2.4841156132	 0.474021226	 0.072623
H	-0.3255513596	-3.0317955095	 1.2752786511	 0.28987
H	-3.1544300088	-0.3678442412	 1.3446480821	 0.079431
80.1203	114.4706	147.6925	179.3961	233.505	267.8251	301.572	310.6073	366.6721	465.5111	481.6784	547.4045	565.5541	671.9207	767.3294	804.6756	894.7939	911.9949	946.0749	954.0154	988.0977	1064.3281	1083.2816	1084.8528	1121.6375	1145.6447	1200.7677	1244.7401	1251.1913	1262.4615	1264.9603	1273.9057	1347.6212	1383.0041	1427.6622	1431.1385	1439.7625	1481.8471	1489.9882	1502.8551	1794.8314	2852.3717	2983.0911	3000.29	3061.9231	3074.3661	3093.8297	3124.9161	3137.4955	3774.6489	3816.2383
OCC1(CCC1O)C=O	OC[C@]1(CC[C@H]1O)C=O	
InChI=1S/C6H10O3/c7-3-6(4-8)2-1-5(6)9/h3,5,8-9H,1-2,4H2	InChI=1S/C6H10O3/c7-3-6(4-8)2-1-5(6)9/h3,5,8-9H,1-2,4H2/t5-,6+/m1/s1
