17
gdb 46615	3.09668	1.50033	1.03918	5.1503	74.94	-0.2599	-0.0322	0.2277	1114.4726	0.138611	-421.891008	-421.883706	-421.882762	-421.923045	27.766	
O	-0.0495870761	-0.0230360865	-0.006367651	-0.349786
C	 0.0407822439	 1.1718683824	-0.0131149547	 0.375275
O	-1.0756375076	 1.9935556544	 0.0247994081	-0.244323
C	-0.6854702948	 3.3731079731	 0.018446719	-0.201665
C	 0.8063666113	 3.3321038591	-0.0428948995	 0.236389
C	 1.2123582096	 2.0626063891	-0.0610287947	 0.103094
C	 2.7035674942	 1.9119743378	-0.0799963574	-0.353842
C	 3.1663772819	 3.3835139902	-0.3446860475	-0.205112
C	 1.9411384342	 4.3109870005	-0.0438392701	-0.347043
H	-1.1444157247	 3.8682185373	-0.8467769092	 0.133888
H	-1.0712175721	 3.8569155423	 0.9250856156	 0.134007
H	 3.0724370335	 1.5292319243	 0.8794968107	 0.123522
H	 3.0594676826	 1.2185609293	-0.8476260823	 0.126401
H	 4.042664956	 3.6561769327	 0.2474691247	 0.110358
H	 3.4455313824	 3.4907221911	-1.3966098382	 0.117438
H	 1.8296762303	 5.1102149843	-0.7847311796	 0.118776
H	 2.0272859852	 4.8072145985	 0.9323682059	 0.122624
103.3902	143.321	216.9812	248.2084	281.189	465.8923	501.2133	586.6059	639.6513	688.9803	758.5646	773.2521	831.9934	890.5139	898.2668	971.0747	986.3733	1009.604	1026.6674	1054.7291	1065.9859	1158.2329	1194.279	1202.166	1217.961	1233.4125	1273.6215	1322.7969	1330.1706	1368.2318	1401.7554	1479.156	1487.5567	1491.6702	1505.5998	1717.2377	1869.251	3017.5928	3022.4448	3035.0961	3052.8529	3056.6468	3067.9153	3081.7792	3113.2868
O=C1OCC2=C1CCC2	O=C1OCC2=C1CCC2	
InChI=1S/C7H8O2/c8-7-6-3-1-2-5(6)4-9-7/h1-4H2	InChI=1S/C7H8O2/c8-7-6-3-1-2-5(6)4-9-7/h1-4H2
