17
gdb 72343	2.32439	2.10939	1.57369	1.8566	71.53	-0.2403	0.0236	0.2639	903.6174	0.136136	-421.786398	-421.779283	-421.778339	-421.817503	29.075	
O	-0.0936086837	 1.3851170839	-0.0315303163	-0.482279
C	-0.0020055122	-0.0170622765	-0.002802913	 0.39381
C	-1.3198842532	-0.647969525	-0.4842587284	-0.303974
C	-1.6858722537	-1.6119388014	 0.6225487335	-0.056187
C	-0.8091675334	-1.6368189604	 1.6292712064	-0.070129
C	 0.335404418	-0.7053580746	 1.3792954388	-0.170595
C	 1.6366495465	-1.2546227809	 0.7241467704	 0.013883
O	 1.2630832216	-2.0176422798	-0.4246625874	-0.226552
C	 1.3279306782	-0.5961390329	-0.5579754349	-0.078721
H	 0.7198499849	 1.7534185351	 0.3316060888	 0.278092
H	-2.0765421286	 0.1330142614	-0.6246197149	 0.117716
H	-1.2013111665	-1.1618076622	-1.4452266282	 0.11748
H	-2.5871615966	-2.2146550182	 0.5754636947	 0.093767
H	-0.8947800395	-2.2606676621	 2.512101552	 0.094262
H	 0.5534199243	 0.0067441067	 2.1827835592	 0.074328
H	 2.5866880573	-1.4953520278	 1.1885853728	 0.103798
H	 1.9670452665	-0.1875689854	-1.3351312437	 0.1013
150.2421	207.2504	284.5102	335.8252	353.1501	385.6238	484.2006	539.0674	626.1435	683.1747	731.8098	775.4129	806.5773	846.303	857.7507	919.2544	933.2012	954.4117	972.0992	1002.4875	1024.1876	1048.563	1068.5512	1079.8906	1104.6984	1146.8513	1167.6091	1200.6584	1237.0544	1273.132	1291.7747	1333.293	1346.377	1383.2939	1393.6573	1466.0746	1673.5876	3033.9676	3053.2475	3069.2431	3159.8817	3176.4062	3180.05	3201.5638	3794.5082
OC12CC=CC1C1OC21	O[C@]12CC=C[C@H]1[C@H]1O[C@@H]21	
InChI=1S/C7H8O2/c8-7-3-1-2-4(7)5-6(7)9-5/h1-2,4-6,8H,3H2	InChI=1S/C7H8O2/c8-7-3-1-2-4(7)5-6(7)9-5/h1-2,4-6,8H,3H2/t4-,5+,6+,7+/m0/s1
