17
gdb 117926	1.82267	1.40253	0.85545	3.3562	67.05	-0.2561	-0.0952	0.1609	1328.108	0.131769	-496.090933	-496.080789	-496.079844	-496.127388	34.313	
C	 1.2301036063	 1.0745680079	-0.3276240329	-0.234159
O	 1.1201685431	-0.3275086962	-0.46315701	-0.241123
C	-0.0352960931	-0.73409533	-1.1613566871	-0.08425
C	-0.004372513	-2.2675749034	-1.2828449875	-0.001108
O	-1.1611197754	-2.7123018231	-1.9302587196	-0.429848
C	 1.2378826782	-2.7048612761	-2.0531397862	 0.291191
O	 1.1248934304	-3.2362579421	-3.1331392459	-0.296134
C	 2.6289414428	-2.4670257947	-1.4287952552	 0.102583
O	 3.615765239	-2.4025706619	-2.1087078289	-0.2179
H	 1.2839029236	 1.5713754365	-1.3072144055	 0.118839
H	 0.3763761933	 1.4892606628	 0.228204369	 0.11648
H	 2.1491803357	 1.2764087019	 0.2261760221	 0.138365
H	-0.9528431376	-0.4376700389	-0.6319587519	 0.11415
H	-0.0726021508	-0.2940481253	-2.1707181774	 0.107569
H	 0.0560116052	-2.6881845989	-0.2659974273	 0.107159
H	-0.859171125	-3.1001084392	-2.7677966382	 0.298395
H	 2.6478835074	-2.3753842292	-0.3266071575	 0.109792
40.1501	57.0758	101.7133	142.3645	176.2439	224.5565	231.6276	270.8836	343.3074	357.4953	416.9952	445.2969	495.9282	618.2076	704.1266	867.0639	958.8655	986.9371	1025.1518	1058.9897	1094.4264	1150.8833	1165.7176	1181.0512	1223.4909	1230.1498	1288.5552	1326.9454	1399.8547	1414.1131	1440.7551	1480.6084	1486.1553	1502.1371	1527.398	1795.4919	1829.4997	2956.3459	2975.6179	2984.913	2990.6303	3024.7181	3040.176	3127.265	3679.9026
COCC(O)C(=O)C=O	COC[C@@H](O)C(=O)C=O	
InChI=1S/C5H8O4/c1-9-3-5(8)4(7)2-6/h2,5,8H,3H2,1H3	InChI=1S/C5H8O4/c1-9-3-5(8)4(7)2-6/h2,5,8H,3H2,1H3/t5-/m1/s1
