18
gdb 89941	2.72073	1.40333	1.11188	3.0208	78.32	-0.227	0.0051	0.2321	1135.822	0.148266	-398.082152	-398.073815	-398.07287	-398.115069	31.378	
C	-0.1135746448	 1.5289450997	 0.1766179811	-0.330066
N	 0.0075086877	 0.0878588259	 0.1520069902	-0.072634
C	-1.2018752782	-0.7147724298	 0.4410487452	-0.200485
C	-0.3540847352	-1.6442857462	 1.345847286	 0.209317
N	 0.4929705514	-2.5982576223	 0.5813608564	-0.361005
C	 1.6898679777	-1.7140635579	 0.7086177739	-0.164943
C	 0.7845554435	-0.5719749214	 1.21658047	-0.058232
C	-0.9068504923	-2.116875107	 2.5926513081	 0.191313
N	-1.3391931941	-2.5124742366	 3.5906149189	-0.341806
H	 0.869824378	 1.9861717932	 0.027319918	 0.126402
H	-0.7596015859	 1.8549855862	-0.6448562533	 0.130007
H	-0.5381420491	 1.9216815238	 1.119870645	 0.097021
H	-1.9596321356	-0.1668450597	 1.021106129	 0.105211
H	-1.6634690807	-1.1896237852	-0.4293887503	 0.121756
H	 0.5872410956	-3.5058895062	 1.0218086638	 0.235707
H	 2.4098293527	-2.0442856321	 1.4678138306	 0.105953
H	 2.2047962832	-1.5297744985	-0.2381020926	 0.116446
H	 1.125660026	 0.062098274	 2.0383285599	 0.09004
85.8368	147.6951	196.5433	198.4386	263.7482	299.354	362.8533	403.8428	492.7609	547.1606	573.1517	639.1905	704.7099	771.3623	911.7935	937.0228	949.5554	995.4284	1012.3728	1031.333	1069.7692	1088.7831	1116.3962	1150.8863	1173.4951	1183.8491	1208.0745	1237.7086	1251.0489	1301.2638	1322.3031	1352.2871	1397.4112	1453.9649	1482.5606	1497.4155	1499.4689	1501.9596	2342.6409	2928.4421	2991.0775	3022.5342	3061.5001	3084.049	3087.4388	3095.108	3104.26	3551.3972
CN1CC2(NCC12)C#N	CN1C[C@]2(NC[C@@H]12)C#N	
InChI=1S/C6H9N3/c1-9-4-6(3-7)5(9)2-8-6/h5,8H,2,4H2,1H3	InChI=1S/C6H9N3/c1-9-4-6(3-7)5(9)2-8-6/h5,8H,2,4H2,1H3/t5-,6-/m1/s1
