21
gdb 91382	2.31387	1.67296	1.37352	2.4545	77.41	-0.234	0.0643	0.2983	1060.2133	0.183323	-424.219944	-424.211406	-424.210462	-424.252929	33.339	
C	 0.7161331385	 1.2688854901	 0.4514121061	-0.389552
C	 0.0552663253	-0.0218024889	-0.0318076862	 0.126285
C	 0.6873561721	-0.6525609728	-1.2981022536	-0.256875
C	 1.547863242	-1.8108555093	-0.7778302454	-0.032701
C	 2.9731704099	-1.4722536874	-0.2459116519	-0.288772
C	 2.5100158706	-1.8077808832	 1.2037037256	 0.103868
O	 2.610878773	-0.8013094912	 2.1812723112	-0.414128
C	 1.0507084	-2.0299146249	 0.6822247204	 0.093177
O	 0.1002884573	-1.0384476195	 0.9807238953	-0.256951
H	 1.7682726853	 1.1123612986	 0.6969613039	 0.12883
H	 0.6340270335	 2.0481578072	-0.314500543	 0.099821
H	 0.2170491153	 1.623569226	 1.3576867977	 0.121605
H	-1.0090197089	 0.1808551848	-0.2035523464	 0.077265
H	-0.099032435	-1.0375877921	-1.9540950026	 0.102553
H	 1.267617408	 0.0758025557	-1.8721060306	 0.101908
H	 1.5121409664	-2.6830497085	-1.4318644832	 0.069058
H	 3.7799749033	-2.0986783753	-0.6351816256	 0.096015
H	 3.2552170429	-0.4236751149	-0.3748145674	 0.099625
H	 2.9397562701	-2.7543752784	 1.5625799938	 0.063637
H	 3.53989639	-0.7074910191	 2.4153433107	 0.283799
H	 0.6233231004	-3.0001474568	 0.9528602411	 0.071534
84.2812	119.8865	188.3664	233.3493	269.8597	320.9406	358.3881	405.3822	423.1728	540.5355	616.3178	706.8695	747.2596	788.0872	797.1992	848.7204	886.4531	913.1807	927.5761	933.6324	1007.5941	1037.6591	1060.8601	1093.1254	1115.5604	1132.2719	1151.8684	1154.9889	1195.6865	1226.1147	1232.5196	1254.9716	1268.171	1293.5866	1321.8862	1337.8983	1346.4789	1374.931	1393.2464	1410.9449	1421.734	1474.3046	1480.9618	1492.2107	1502.0373	2986.296	3021.425	3039.1144	3052.4346	3054.893	3057.9599	3090.8518	3097.6076	3108.834	3113.4586	3140.6053	3814.7383
CC1CC2CC(O)C2O1	C[C@H]1C[C@H]2C[C@@H](O)[C@H]2O1	
InChI=1S/C7H12O2/c1-4-2-5-3-6(8)7(5)9-4/h4-8H,2-3H2,1H3	InChI=1S/C7H12O2/c1-4-2-5-3-6(8)7(5)9-4/h4-8H,2-3H2,1H3/t4-,5-,6+,7-/m0/s1
