22
gdb 58306	3.09713	0.83183	0.72824	1.8136	78.83	-0.2395	0.065	0.3045	1626.9737	0.19224	-441.451942	-441.44135	-441.440406	-441.488079	38.735	
C	-0.0230573746	 1.5215623691	 0.1949068788	-0.407124
C	-0.0157484072	 0.0053596623	 0.0243782601	 0.107906
O	 0.7544819825	-0.6355709501	 1.0394502494	-0.427177
C	-1.4405288343	-0.585748351	-0.0342032113	 0.115004
O	-2.2222604301	 0.0598626522	-1.0363785376	-0.430557
C	-1.4294609219	-2.1077492032	-0.2240975029	-0.250552
C	-2.7991978224	-2.7308986217	-0.0870065188	 0.038989
C	-2.9476849035	-4.1488965275	 0.3168550548	-0.252191
N	-3.3332436543	-3.0688475255	 1.2461790418	-0.317944
H	 0.9981354201	 1.9117783705	 0.1861370179	 0.120762
H	-0.6006583909	 1.9986858627	-0.5993380776	 0.134028
H	-0.4889168976	 1.7965350455	 1.150569529	 0.106491
H	 0.4955701284	-0.2524846685	-0.9148149483	 0.076931
H	 0.4759873225	-0.2719737263	 1.8874538189	 0.279713
H	-1.9491745902	-0.3438837634	 0.9099811819	 0.084198
H	-1.8674736259	-0.1991598349	-1.8948673538	 0.278777
H	-1.0185817412	-2.3276158747	-1.2224397163	 0.08651
H	-0.7350951528	-2.5502589587	 0.4984045873	 0.110731
H	-3.553418587	-2.3036838985	-0.7438591958	 0.098975
H	-3.7740149929	-4.7451289279	-0.0600351733	 0.116807
H	-2.0419899548	-4.7141284617	 0.5243765875	 0.107688
H	-2.600739582	-2.9527206586	 1.9440428883	 0.222034
59.4804	67.6141	93.8664	132.3655	225.9974	238.5899	278.0812	297.9646	312.3549	345.114	360.2184	435.3321	472.3593	492.6138	560.3945	789.4245	820.0603	858.6509	891.0461	926.798	949.7269	970.0803	1012.6133	1040.3549	1061.0281	1090.1097	1114.917	1123.5813	1143.2795	1160.6025	1174.0841	1229.4205	1255.3652	1259.3167	1293.8218	1309.7857	1315.5465	1363.5006	1390.8568	1396.4475	1411.8483	1415.3339	1427.2988	1476.5788	1489.1717	1495.5785	1511.6703	2986.1105	3000.3426	3019.1678	3027.7019	3074.1012	3101.0549	3103.7008	3137.9387	3138.9945	3188.224	3478.5725	3789.0914	3798.1995
CC(O)C(O)CC1CN1	C[C@@H](O)[C@@H](O)C[C@H]1CN1	
InChI=1S/C6H13NO2/c1-4(8)6(9)2-5-3-7-5/h4-9H,2-3H2,1H3	InChI=1S/C6H13NO2/c1-4(8)6(9)2-5-3-7-5/h4-9H,2-3H2,1H3/t4-,5+,6+/m1/s1
