21
gdb 75021	3.2213	1.16844	0.89672	1.0453	93.17	-0.2036	-0.0195	0.1841	1357.3114	0.182332	-387.104041	-387.094813	-387.093869	-387.138142	34.694	
C	-0.2494642437	 1.4881578652	 0.1178587226	-0.466746
C	 0.0414259495	 0.0151617112	-0.0134930838	 0.231579
C	 0.0561171127	-0.5826478878	-1.2183216015	-0.139903
C	 0.237347779	-1.9815933593	-1.5859019833	-0.139892
C	 0.2147782763	-3.0651455856	-0.7938028561	 0.271596
C	 0.3540022972	-4.4597194161	-1.3365438215	-0.482317
C	 0.0461060613	-2.9448082258	 0.7041004412	-0.190874
O	 0.864566996	-1.9447119848	 1.2883153735	-0.232308
C	 0.3183662851	-0.6507303338	 1.3130800905	-0.162248
H	 0.6079306088	 2.0311326301	 0.53739442	 0.12519
H	-0.497092246	 1.936801952	-0.8468710647	 0.124835
H	-1.0914474776	 1.6678893155	 0.8002662273	 0.122815
H	-0.1207186766	 0.0704152459	-2.0718575212	 0.074331
H	 0.3596384487	-2.1503375022	-2.6543314423	 0.075966
H	 0.4189987719	-4.4647730839	-2.4275562663	 0.122081
H	 1.2497144091	-4.9537924754	-0.9365496016	 0.128474
H	-0.4988582401	-5.088715426	-1.046434441	 0.123151
H	-1.0136359847	-2.7661473426	 0.9532066573	 0.100487
H	 0.3342473346	-3.8863191683	 1.185204394	 0.105976
H	 1.0569613188	-0.0461384134	 1.8570485288	 0.115518
H	-0.6037999801	-0.6216308046	 1.9251059979	 0.092288
52.0571	109.3029	174.0352	201.5849	269.9495	292.8098	314.6789	359.4279	385.1629	402.2152	451.5038	527.9107	578.2114	723.9179	801.7604	853.594	886.373	919.1034	927.4718	982.0497	1002.4826	1019.3815	1033.0385	1071.8295	1087.4288	1138.8889	1157.4553	1173.4521	1225.4377	1265.2073	1334.278	1378.3799	1392.8292	1404.4906	1411.4925	1412.4653	1425.3391	1471.2445	1475.3379	1477.3432	1484.3154	1490.8492	1494.0342	1696.5992	1720.5657	2915.2014	2962.0497	3006.7588	3008.8278	3029.2055	3048.867	3051.0874	3058.6217	3112.1493	3116.4219	3124.5684	3143.6686
CC1=CC=C(C)COC1	CC1=CC=C(C)COC1	
InChI=1S/C8H12O/c1-7-3-4-8(2)6-9-5-7/h3-4H,5-6H2,1-2H3	InChI=1S/C8H12O/c1-7-3-4-8(2)6-9-5-7/h3-4H,5-6H2,1-2H3
