19
gdb 111650	2.33523	1.651	1.25831	4.6741	74.92	-0.2465	0.0357	0.2821	1078.0409	0.160993	-419.23104	-419.222647	-419.221703	-419.264175	31.601	
C	-0.3596474186	 1.3883786798	-0.2087978262	-0.384149
C	 0.2208444919	 0.0039867898	 0.1128142814	-0.216768
C	 0.8766938375	-0.6334415732	-1.0930884434	 0.010102
C	 0.9337348197	-2.0931032515	-1.3679362455	-0.064748
C	 0.0146897761	-3.0640763746	-0.6235479819	-0.200382
N	-1.290137992	-2.6210148809	-1.0718510448	-0.30265
C	-1.2695223385	-1.513356959	-1.884998591	 0.402098
O	-2.2254613552	-0.8917048693	-2.2768443034	-0.374519
N	 0.1013946	-1.22169745	-2.2235003707	-0.164963
H	 0.4152961222	 2.0597932037	-0.5939677883	 0.115481
H	-1.1458997593	 1.3094250434	-0.9640746294	 0.159255
H	-0.7862587856	 1.8485511413	 0.6872553804	 0.112136
H	 0.9851237324	 0.0898897353	 0.8960131253	 0.100634
H	-0.5650258703	-0.6404770765	 0.5185448423	 0.10974
H	 1.7176766817	-0.0541994364	-1.472716927	 0.101898
H	 1.819200898	-2.5132790052	-1.8346297664	 0.104542
H	 0.2233171214	-4.0960701294	-0.9295332083	 0.120174
H	 0.1223622201	-3.0099255132	 0.4682477702	 0.115796
H	-2.1609792614	-2.9424056839	-0.6823074631	 0.256323
93.7274	106.5508	163.55	191.6694	240.6214	281.0665	430.8066	468.2941	509.2759	520.2473	678.0112	697.9369	759.0168	783.7786	822.6561	836.8439	877.7672	943.0002	989.7042	1015.2923	1028.8954	1065.7789	1101.195	1115.6348	1140.293	1178.1267	1216.3832	1227.0832	1290.0676	1298.5622	1329.6475	1342.7158	1387.9252	1413.5364	1441.1068	1448.3601	1483.2975	1499.6836	1510.91	1535.3155	1848.5997	3008.1065	3027.7488	3039.12	3043.042	3075.3549	3106.0693	3115.6643	3128.3953	3155.3234	3655.9557
CCC1C2CNC(=O)N12	CC[C@H]1[C@H]2CNC(=O)N12	
InChI=1S/C6H10N2O/c1-2-4-5-3-7-6(9)8(4)5/h4-5H,2-3H2,1H3,(H,7,9)	InChI=1S/C6H10N2O/c1-2-4-5-3-7-6(9)8(4)5/h4-5H,2-3H2,1H3,(H,7,9)/t4-,5+,8?/m0/s1
