14
gdb 44190	5.63414	1.03214	0.94888	1.7512	67.25	-0.2508	-0.0079	0.2429	1159.1647	0.102363	-432.85772	-432.850289	-432.849345	-432.889991	27.541	
O	 0.0301031456	 0.0207792727	-0.0051888744	-0.339245
C	 0.0288224878	 1.2158803535	-0.0276404934	 0.458773
N	-0.9924010184	 2.1595675746	 0.0220478104	-0.331421
C	-0.1374854071	 3.3296935083	-0.0165230995	 0.006008
C	 0.4282293536	 3.8164584891	 1.3700479138	-0.137215
N	 1.4548803387	 2.7389106875	 1.3249785588	-0.320023
C	 1.0824808021	 2.3636318622	-0.0655915359	-0.175546
C	 0.9686859373	 5.1706784011	 1.3099688235	 0.269937
N	 1.4157541453	 6.2350943552	 1.2414938851	-0.312458
H	-1.9687223106	 2.0607711371	 0.2628694402	 0.258229
H	-0.3817807976	 4.09053275	-0.7553510173	 0.123031
H	-0.259161492	 3.732670676	 2.2182121401	 0.133027
H	 2.405918477	 3.0679671569	 1.4364507588	 0.25054
H	 1.8595995584	 2.3630274157	-0.8277558803	 0.116363
79.8195	132.6843	176.3059	275.6391	364.7911	431.9994	469.3113	483.3679	559.5569	662.2698	719.219	782.7501	816.8441	864.8786	912.3581	946.5411	986.6075	1022.4768	1052.8157	1058.6642	1128.3845	1155.397	1198.7242	1221.1467	1267.176	1299.5235	1332.1828	1371.9483	1395.7556	1912.9575	2348.353	3058.1249	3132.5565	3142.4627	3568.0582	3600.569
O=C1NC2C(NC12)C#N	O=C1N[C@H]2[C@@H](N[C@@H]12)C#N	
InChI=1S/C5H5N3O/c6-1-2-3-4(7-2)5(9)8-3/h2-4,7H,(H,8,9)	InChI=1S/C5H5N3O/c6-1-2-3-4(7-2)5(9)8-3/h2-4,7H,(H,8,9)/t2-,3-,4+/m0/s1
