17
gdb 105582	1.88587	1.65405	1.2801	3.2414	75.11	-0.244	-0.0391	0.2049	1087.1141	0.133376	-421.792588	-421.783422	-421.782478	-421.826637	33.805	
O	-0.0320948856	 1.543521267	 0.0146778241	-0.413198
C	 0.0644720249	 0.1586439225	-0.1991551506	-0.100794
C	-1.3085538709	-0.5377692778	-0.0616657215	-0.047332
C	-1.3070691164	-2.1017477932	 0.1315677306	-0.287169
C	-2.0652855086	-1.9603030024	 1.4878956791	-0.328444
C	-1.8132259276	-0.4567442952	 1.4114628907	 0.379657
O	-1.8071610633	 0.4462673498	 2.1992439385	-0.30684
C	-2.2836943345	-0.0613530367	-1.0223252631	 0.326559
C	-3.1124134345	 0.3078707689	-1.8116086397	-0.46323
H	-0.4542805815	 1.6734232671	 0.8745711559	 0.299964
H	 0.4554072241	 0.012078553	-1.2110732895	 0.120839
H	 0.7646282266	-0.3214523902	 0.5052897073	 0.084896
H	-1.8236892002	-2.6587974902	-0.6479104408	 0.126863
H	-0.2945048549	-2.4935513683	 0.2504018365	 0.11963
H	-3.1330009066	-2.1863477864	 1.4026982022	 0.150776
H	-1.6695620728	-2.4700576317	 2.3692846479	 0.136943
H	-3.8331735783	 0.6514889337	-2.5116972376	 0.20088
69.5646	113.0359	121.182	164.9223	215.2268	264.8692	382.851	386.9369	478.253	493.5195	527.2369	553.193	620.1303	637.5324	678.3382	735.6771	759.4798	882.0001	926.0711	928.8216	1013.2478	1058.7193	1072.2482	1093.0554	1133.4551	1192.5237	1204.1138	1231.2503	1252.5499	1282.6574	1383.8224	1437.8246	1441.7717	1482.7858	1506.2931	1871.6793	2230.6554	2960.0309	3063.1695	3076.7628	3081.6738	3120.0222	3156.1874	3502.0418	3758.006
OCC1(CCC1=O)C#C	OC[C@]1(CCC1=O)C#C	
InChI=1S/C7H8O2/c1-2-7(5-8)4-3-6(7)9/h1,8H,3-5H2	InChI=1S/C7H8O2/c1-2-7(5-8)4-3-6(7)9/h1,8H,3-5H2/t7-/m1/s1
