20
gdb 11034	3.81293	1.64821	1.38357	1.6437	73.98	-0.2478	0.0804	0.3282	969.8798	0.178128	-349.012126	-349.004264	-349.00332	-349.043685	31.278	
C	-0.1377268839	 1.5450305059	 0.1874738345	-0.481295
C	 0.0604044131	 0.0649914114	-0.0350463786	 0.365457
C	-0.8833274739	-0.9242514246	 0.6048157823	-0.349322
C	 0.5685703982	-0.8686130253	 1.0413522691	-0.100631
C	 1.518972109	-1.8755204971	 0.4129206281	 0.146412
O	 1.4727771919	-3.1806904599	 0.9676586388	-0.438068
C	 1.1965975528	-1.8189196019	-1.1018345819	-0.262509
C	 0.6904702316	-0.3854226789	-1.3558101427	-0.267357
H	 0.806202599	 2.0923747225	 0.0788330536	 0.11415
H	-0.8467930308	 1.9629868576	-0.5372711077	 0.116447
H	-0.5299909516	 1.7503628176	 1.1886093569	 0.113528
H	-1.6135585315	-0.5269016588	 1.3018737842	 0.108817
H	-1.2479735081	-1.7716149366	 0.0310792087	 0.101104
H	 0.7875615433	-0.5110685744	 2.041986512	 0.080875
H	 2.5496046585	-1.5427897276	 0.5848852186	 0.086512
H	 0.5463705773	-3.4450705614	 0.9948280732	 0.274951
H	 2.059432726	-2.0861736255	-1.7161527895	 0.10242
H	 0.4163998177	-2.5563922326	-1.3228285225	 0.095924
H	-0.0046522221	-0.3244385516	-2.2013997515	 0.094883
H	 1.5315107235	 0.2802980311	-1.5878760957	 0.097702
132.9897	211.8753	220.2348	238.1792	309.2073	359.2592	381.9528	414.1712	521.5834	546.9813	601.4541	688.5629	813.0304	844.855	873.0963	923.6608	949.9225	955.0369	980.0135	1017.4399	1042.3744	1055.6119	1061.1919	1088.1011	1099.6709	1139.8024	1172.5112	1222.6878	1263.7463	1272.3977	1297.5169	1322.0615	1333.392	1346.3425	1405.6215	1421.6635	1431.0099	1485.3369	1488.7296	1492.3547	1502.9566	1514.7985	3018.6912	3023.9269	3036.0735	3045.0249	3062.2382	3077.4781	3096.5699	3103.8972	3118.9638	3164.2499	3201.1604	3797.4548
CC12CC1C(O)CC2	C[C@]12C[C@H]1[C@@H](O)CC2	
InChI=1S/C7H12O/c1-7-3-2-6(8)5(7)4-7/h5-6,8H,2-4H2,1H3	InChI=1S/C7H12O/c1-7-3-2-6(8)5(7)4-7/h5-6,8H,2-4H2,1H3/t5-,6-,7-/m0/s1
