18
gdb 41794	2.41572	2.08048	1.55822	2.2272	70.97	-0.2413	0.0243	0.2656	916.2754	0.151384	-439.107792	-439.100786	-439.099841	-439.139583	27.507	
C	-0.0463237896	 1.5818781249	-0.1238647785	-0.255228
C	 1.4300334556	 2.0020685657	-0.2839932484	-0.245859
C	 2.2005458577	 0.7153017921	 0.0505331463	 0.193557
O	 1.3665124424	-0.3321819142	-0.3188502096	-0.236063
C	 0.0213937134	 0.039350421	 0.0294262819	 0.077387
C	-0.2805904538	-0.4480967723	 1.4454599338	-0.16005
N	 0.5189439328	 0.085986428	 2.5282942201	-0.263669
C	 1.7053673142	 0.5070180529	 2.4529225491	 0.129225
O	 2.5924473861	 0.6760780478	 1.4327023303	-0.245435
H	-0.5046777314	 2.0381278921	 0.7562042657	 0.123612
H	-0.6414693666	 1.8650402047	-0.9938678299	 0.110974
H	 1.6505712357	 2.2808176096	-1.3175354086	 0.1153
H	 1.7305369752	 2.8286008931	 0.3613397325	 0.12018
H	 3.1468244945	 0.6051599281	-0.4808050179	 0.101447
H	-0.6370945869	-0.4793833947	-0.6737157738	 0.084692
H	-1.3356159453	-0.2442727874	 1.6710325826	 0.10673
H	-0.1687503092	-1.5408360803	 1.4614631316	 0.123799
H	 2.2139531752	 0.7933073589	 3.3742374028	 0.119401
62.2906	147.7081	288.3596	343.3759	384.8309	474.7659	493.1307	605.4411	719.079	743.7574	790.0407	806.3685	849.1068	885.6116	911.0419	938.7115	969.0146	971.5543	1027.3424	1036.0688	1068.5288	1082.8725	1101.6028	1168.1343	1188.4245	1240.1858	1269.1122	1289.2482	1312.6591	1333.0038	1349.7326	1375.4968	1390.28	1411.8977	1441.8757	1469.7948	1481.7901	1503.6948	1755.7951	3013.5511	3045.3527	3063.8653	3070.7034	3078.8323	3114.3829	3115.2776	3132.0262	3134.0045
C1CC2OC1CN=CO2	C1C[C@@H]2O[C@H]1CN=CO2	
InChI=1S/C6H9NO2/c1-2-6-8-4-7-3-5(1)9-6/h4-6H,1-3H2	InChI=1S/C6H9NO2/c1-2-6-8-4-7-3-5(1)9-6/h4-6H,1-3H2/t5-,6+/m1/s1
