17
gdb 29196	3.08463	1.37731	0.9585	5.0143	83.25	-0.19	-0.0223	0.1677	1192.798	0.137146	-418.051491	-418.043206	-418.042262	-418.083953	32.337	
C	-0.0605479088	 1.5252934549	-0.0088942715	-0.516812
C	-0.0184609804	 0.0225654216	 0.007447798	 0.154514
C	-0.0081374312	-0.6934263393	-1.130631561	 0.008154
O	 0.0167686822	-2.0361169883	-1.2003978542	-0.244048
C	 0.0336100137	-2.8229600351	-0.0331466039	 0.377845
N	 0.0576423499	-4.0912926965	-0.1339387887	-0.560173
C	 0.0287593423	-2.094757744	 1.2051162214	-0.264289
C	-0.0019111185	-0.7337867906	 1.2529665046	 0.27949
N	-0.0779349114	-0.0324640016	 2.4397572997	-0.582081
H	 0.8307567867	 1.9696224551	 0.4546526895	 0.125602
H	-0.1080714898	 1.9000826548	-1.0345134591	 0.132549
H	-0.9344432187	 1.9114320783	 0.528994296	 0.139881
H	-0.0207522302	-0.2452877593	-2.118285624	 0.125429
H	 0.0608024773	-4.3714122062	-1.1141187925	 0.21187
H	 0.0456317628	-2.6960662843	 2.1057953304	 0.099972
H	 0.1441145329	-0.5502502022	 3.2764239267	 0.257569
H	 0.2900958014	 0.9053866925	 2.4420862286	 0.254527
99.5911	187.859	214.8118	285.0644	298.0381	344.6611	386.4349	413.5073	430.5541	530.9897	531.8469	566.8735	682.0395	709.0407	733.0744	764.8135	808.6063	847.3593	854.3251	893.8258	1021.7276	1066.7942	1072.7378	1129.4142	1193.5384	1226.5461	1276.8539	1311.9667	1369.5894	1418.4108	1468.3076	1481.2462	1505.6124	1611.0498	1655.038	1703.9432	1745.1102	3010.8223	3062.7929	3113.4162	3194.9668	3205.8031	3497.8705	3583.6887	3689.4725
CC1=COC(=N)C=C1N	CC1=COC(=C[C@@H]1N)[NH]	
InChI=1S/C6H8N2O/c1-4-3-9-6(8)2-5(4)7/h2-3,8H,7H2,1H3	InChI=1S/C6H9N2O/c1-4-3-9-6(8)2-5(4)7/h2-3,5,8H,7H2,1H3/t5-/m0/s1
