15
gdb 17125	4.92136	1.37451	1.318	4.6375	61.85	-0.2509	0.0325	0.2834	945.3083	0.118887	-399.792642	-399.785374	-399.784429	-399.824848	26.425	
O	 0.40706218	 0.079880846	-0.0050234601	-0.351709
C	 0.1720496476	 1.2556661234	-0.0136268655	 0.439369
C	-1.0799662365	 2.1479183126	-0.1890250761	-0.397703
C	-0.120893754	 3.3477983231	 0.1009707376	 0.006608
N	 0.9656179887	 2.3673769397	 0.175723471	-0.321913
C	-0.0165356627	 4.3857465368	-0.9923648855	 0.07197
C	 1.2388059736	 4.7046923299	-1.683832768	-0.172108
O	 0.2358010083	 3.9030107162	-2.3090436166	-0.22615
H	-1.4991558462	 2.136113327	-1.1956955652	 0.14959
H	-1.8602278451	 1.9727075877	 0.5525880198	 0.13261
H	-0.3236392045	 3.848960859	 1.0556168283	 0.087115
H	 1.9184231623	 2.4472733512	 0.4996470575	 0.24981
H	-0.7832743265	 5.1612103278	-0.938071302	 0.099514
H	 1.3847122832	 5.6956774697	-2.1110098396	 0.120392
H	 2.1483761318	 4.1715621198	-1.4135207956	 0.112603
66.217	87.1482	216.7059	235.8333	391.3884	420.9088	514.3002	564.1173	607.1989	708.5122	780.9113	854.939	897.9452	950.7236	967.7456	996.3195	1022.994	1082.7921	1094.2462	1124.2553	1163.9364	1168.2703	1177.455	1201.1463	1266.7204	1295.0487	1378.05	1386.9588	1429.91	1452.1193	1524.2936	1904.5142	3029.2849	3087.6504	3094.3199	3096.1926	3158.6402	3177.5617	3608.0094
O=C1CC(N1)C1CO1	O=C1C[C@@H](N1)[C@H]1CO1	
InChI=1S/C5H7NO2/c7-5-1-3(6-5)4-2-8-4/h3-4H,1-2H2,(H,6,7)	InChI=1S/C5H7NO2/c7-5-1-3(6-5)4-2-8-4/h3-4H,1-2H2,(H,6,7)/t3-,4-/m1/s1
