17
gdb 77556	2.9184	1.28395	1.09065	3.0263	70.59	-0.2497	-0.0294	0.2203	1123.0716	0.133843	-458.915407	-458.906679	-458.905735	-458.948794	32.643	
O	 0.1843314504	 1.3747692258	-0.1688876964	-0.435593
C	 0.0401668689	 0.0035258729	-0.0191347858	 0.10845
C	-0.0245488823	-0.6747644813	 1.3720409415	 0.341759
O	 1.0121487215	-0.6262934666	 2.2769625909	-0.464003
C	-1.4882870081	-0.1378358807	 1.53409688	-0.367686
C	-1.3962194724	-0.6779460502	 0.0837206417	 0.206413
C	-0.6309267864	-1.9167854695	 0.642266722	-0.338069
C	-2.4509161233	-0.6735131108	-0.9560425349	 0.033547
O	-3.52566591	-0.1376928575	-0.8352559239	-0.25114
H	-0.224189226	 1.8310351923	 0.5740323208	 0.292983
H	 0.7108816941	-0.4644883787	-0.743814036	 0.096752
H	 0.728220402	-1.0344315379	 3.1022493609	 0.288144
H	-2.1408490262	-0.6954673223	 2.210196773	 0.105116
H	-1.6390078599	 0.9364904369	 1.6641062791	 0.096636
H	 0.0247663147	-2.4540712245	-0.0471956627	 0.10739
H	-1.2311250623	-2.5938753482	 1.25349068	 0.106105
H	-2.1725842347	-1.2024410798	-1.8962865803	 0.073194
71.248	149.7447	177.6252	216.1673	248.4857	260.8665	314.0624	401.6946	450.0289	506.1855	531.8452	623.2312	663.135	703.0266	721.2143	874.8864	890.3862	946.3972	1002.6849	1027.0835	1042.3812	1083.8739	1101.7018	1113.5143	1137.3676	1146.2015	1157.0942	1190.1951	1275.9518	1290.3321	1338.4686	1378.3004	1426.3288	1455.4364	1502.0002	1551.3806	1809.4231	2869.7916	3062.0714	3064.6446	3092.3459	3120.3975	3135.5822	3807.042	3818.5208
OC1C2(O)CC1(C2)C=O	O[C@H]1[C@@]2(O)C[C@@]1(C2)C=O	
InChI=1S/C6H8O3/c7-3-5-1-6(9,2-5)4(5)8/h3-4,8-9H,1-2H2	InChI=1S/C6H8O3/c7-3-5-1-6(9,2-5)4(5)8/h3-4,8-9H,1-2H2/t4-,5-,6-/m1/s1
