16
gdb 19131	2.78362	2.11597	1.48238	2.8454	70.1	-0.2593	0.0224	0.2817	884.8606	0.130576	-342.750418	-342.742872	-342.741928	-342.78234	28.144	
N	 0.1060020583	-1.1905841377	 0.0599912403	-0.361011
C	 0.0905082393	-0.0328792878	 0.0646119873	 0.230466
C	 0.0039806109	 1.412314567	 0.0258965383	 0.242622
C	 0.4748239313	 2.1784765798	 1.2497481654	-0.294926
C	 1.3053974134	 2.1947547377	 0.0013342453	-0.294927
N	-1.0928802429	 2.0054333196	-0.6961341581	-0.130642
C	-1.5727842866	 1.3631285296	-1.9190035573	-0.238363
C	-2.3983026824	 1.3467849583	-0.6784369329	-0.238363
H	-0.1095392564	 3.0598568268	 1.4837255643	 0.1399
H	 0.8249819248	 1.6061749087	 2.100160596	 0.139025
H	 2.2318793509	 1.6337549284	-0.0145082534	 0.139024
H	 1.2847632825	 3.0871837301	-0.6120193348	 0.139897
H	-1.8085274102	 2.041527721	-2.7331823756	 0.123969
H	-1.1187150479	 0.4208740533	-2.2165607487	 0.139675
H	-2.4859071561	 0.393809472	-0.1619839365	 0.139683
H	-3.2485252388	 2.0130234432	-0.5691867894	 0.12397
79.7786	144.0862	205.0772	248.4759	260.7829	376.1412	460.713	571.2038	608.0586	615.8372	773.6922	802.6252	834.6902	891.6527	908.4285	949.3841	966.6512	1017.2618	1053.1322	1070.4987	1094.735	1119.6903	1131.4198	1177.9513	1179.5265	1197.3051	1228.7124	1302.2997	1346.0929	1452.6426	1486.3174	1488.623	1515.6917	2334.7159	3109.8496	3112.7577	3150.6022	3153.2932	3194.0083	3207.6421	3240.7632	3253.5358
N#CC1(CC1)N1CC1	N#CC1(CC1)N1CC1	
InChI=1S/C6H8N2/c7-5-6(1-2-6)8-3-4-8/h1-4H2	InChI=1S/C6H8N2/c7-5-6(1-2-6)8-3-4-8/h1-4H2
