23
gdb 83872	1.9689	1.7753	1.25418	1.314	85.13	-0.2366	0.0761	0.3127	1147.3968	0.207159	-388.286977	-388.278065	-388.277121	-388.320081	35.045	
C	-0.2842966682	 1.5644652437	-0.2453404513	-0.41077
C	-0.0110600146	 0.0864666415	-0.0731742991	-0.038314
C	 1.3561029051	-0.4996343698	-0.3460279542	 0.056108
O	 2.3926796818	 0.4028082582	-0.6114544687	-0.253072
C	 3.3123127268	 0.5611998952	 0.4623249416	-0.074717
C	 2.6142395049	 1.1278458329	 1.694925331	-0.217634
C	 1.5195244044	 0.1633636359	 2.1960444304	 0.017001
C	 0.564421436	 0.8303921767	 3.1934240753	-0.399441
C	 0.7919674121	-0.5472494683	 1.0552060056	-0.078665
H	 0.6167107673	 2.1626791831	-0.105086523	 0.128797
H	-0.648293474	 1.7621514767	-1.2597510901	 0.115831
H	-1.0496401138	 1.9172185818	 0.4538250558	 0.112761
H	-0.8360127335	-0.5416313013	-0.4024070604	 0.079642
H	 1.4395121522	-1.4182146167	-0.9251786731	 0.081921
H	 3.7941586384	-0.4009020783	 0.7022774445	 0.085043
H	 4.0847648669	 1.2417999561	 0.0925996247	 0.103715
H	 3.3447513506	 1.300950202	 2.4943570929	 0.092518
H	 2.1871382948	 2.1048177994	 1.4404215082	 0.104921
H	 2.0479834624	-0.6372031619	 2.7343821691	 0.072898
H	 0.0199847907	 1.6574556942	 2.7273307793	 0.121244
H	-0.1738782267	 0.1155610896	 3.5716278897	 0.110338
H	 1.1139701328	 1.2323706673	 4.0520500021	 0.107565
H	 0.4050117632	-1.517251808	 1.3582909698	 0.082311
99.4116	160.6935	188.5937	212.4041	229.1379	278.7179	317.8436	372.7141	410.2143	494.5737	531.8682	624.5181	654.3859	726.7749	764.4943	812.8476	876.4775	897.723	955.5632	965.2651	980.315	1004.0008	1048.17	1076.7092	1087.9207	1091.2841	1110.8417	1146.3154	1153.3458	1183.6449	1210.0801	1237.7501	1264.4746	1292.58	1335.563	1350.3122	1362.7243	1369.2303	1389.8111	1406.7379	1412.7359	1418.0693	1443.1615	1482.195	1490.5616	1497.6858	1500.8195	1501.3921	1508.6145	2971.7768	2986.2573	3028.7	3032.5993	3036.7946	3072.3992	3084.9915	3088.2377	3094.7959	3102.3559	3108.2227	3117.5844	3131.6735	3144.774
CC1C2OCCC(C)C12	C[C@H]1[C@H]2OCC[C@@H](C)[C@@H]12	
InChI=1S/C8H14O/c1-5-3-4-9-8-6(2)7(5)8/h5-8H,3-4H2,1-2H3	InChI=1S/C8H14O/c1-5-3-4-9-8-6(2)7(5)8/h5-8H,3-4H2,1-2H3/t5-,6-,7+,8-/m1/s1
