19
gdb 109412	2.26549	1.53358	1.0991	3.4716	77.92	-0.2333	0.0019	0.2351	1175.2762	0.157761	-419.154726	-419.145461	-419.144517	-419.189014	33.744	
C	 0.1237345585	 1.3752609073	 0.1850187763	-0.243308
O	-0.2815192055	 0.0608132906	-0.1413550364	-0.24309
C	 0.4678644153	-0.5347334132	-1.1655037572	-0.036959
C	 1.8275800953	-1.2063460338	-0.8614368671	 0.341121
N	 2.9762432066	-0.9047174694	-0.4483021189	-0.513468
N	 1.4189253206	-2.5044102978	-1.3527274113	-0.178792
C	 0.261970798	-2.8782014283	-0.4818632191	-0.27646
C	 0.0031558517	-1.9289507332	-1.5755772744	 0.310595
C	-0.802976816	-2.2393243731	-2.7992603591	-0.499104
H	 1.1232702877	 1.3992640353	 0.6410136684	 0.114146
H	 0.126958704	 2.0286314797	-0.7009068383	 0.110457
H	-0.5973305998	 1.761990032	 0.9085268779	 0.136238
H	 0.5568092186	 0.1409739882	-2.0319312944	 0.087731
H	 3.0278806045	 0.085060382	-0.2037949673	 0.224039
H	-0.0458215256	-3.9080504269	-0.6323065246	 0.1308
H	 0.2599226619	-2.5443048785	 0.5512422853	 0.137793
H	-1.8493377775	-1.9497950713	-2.6508149637	 0.134383
H	-0.4224816386	-1.7011284409	-3.6734796837	 0.127851
H	-0.7748881395	-3.3098383389	-3.0199683424	 0.136027
60.1621	109.1974	162.772	174.9683	191.1617	241.7235	267.1776	346.9163	372.797	498.0304	515.9497	614.1258	662.3072	698.7034	785.0475	861.3171	905.0318	931.9473	966.203	1002.1715	1025.262	1027.6004	1087.2702	1125.0893	1132.5825	1157.576	1177.5874	1203.2927	1231.4171	1274.8793	1313.2378	1360.6804	1400.608	1428.1445	1478.5545	1483.3696	1489.8652	1492.214	1506.5754	1509.6603	1794.1005	2974.2907	2984.4181	3034.4939	3037.8306	3097.8696	3117.4456	3121.3771	3124.4502	3214.9357	3474.534
COC1C(=N)N2CC12C	CO[C@H]1[C]([NH])N2C[C@@]12C	
InChI=1S/C6H10N2O/c1-6-3-8(6)5(7)4(6)9-2/h4,7H,3H2,1-2H3	InChI=1S/C6H10N2O/c1-6-3-8(6)5(7)4(6)9-2/h4,7H,3H2,1-2H3/t4-,6-,8?/m0/s1
