21
gdb 97935	4.55833	0.55693	0.5482	1.4793	88.63	-0.2362	0.0652	0.3013	2115.5471	0.180478	-387.049418	-387.038816	-387.037872	-387.087857	37.532	
C	-0.1519180427	 1.30728149	 0.7001311593	-0.36208
C	-0.0621068041	 0.0700477613	-0.2118425149	-0.311633
C	-1.3546153512	-0.5681404619	-0.4418396372	 0.090621
C	-2.4347106415	-1.0711380307	-0.6207912175	 0.043066
C	-3.7326276718	-1.7065943677	-0.8356072247	-0.377383
C	-3.8586446513	-3.0520904944	-0.1341538057	 0.000334
C	-4.2174988666	-3.10994662	 1.3360765003	-0.316002
C	-5.2081992337	-3.5562089169	 0.2884330662	 0.080667
O	-6.3084925949	-2.7447881906	-0.0129455679	-0.415335
H	 0.8381694027	 1.7507672046	 0.8438616334	 0.110512
H	-0.808840736	 2.0643701741	 0.2631769361	 0.126287
H	-0.5550082039	 1.0381293483	 1.6803245664	 0.125132
H	 0.3805211885	 0.3583728254	-1.1743074216	 0.124507
H	 0.6315517071	-0.6577371231	 0.229325146	 0.124056
H	-4.5396138596	-1.0503139779	-0.4929225025	 0.13608
H	-3.9011670754	-1.8444933807	-1.9121410681	 0.126088
H	-3.1589751763	-3.8034828809	-0.4875642724	 0.09411
H	-3.7461305781	-3.8535574418	 1.9693579797	 0.109914
H	-4.421392689	-2.1612581833	 1.8227395697	 0.115681
H	-5.3963330856	-4.6254031988	 0.1893835836	 0.086192
H	-6.9101645265	-2.7694952152	 0.7379697118	 0.289186
9.5331	38.4845	78.2435	135.3592	184.3932	207.1877	271.3058	296.005	308.0366	349.6961	437.3694	495.3502	501.1384	553.0641	752.7696	772.5078	785.4144	829.9796	884.5312	895.8431	959.2456	991.758	1035.1869	1059.9046	1078.6083	1104.5701	1126.6844	1138.9138	1163.4374	1178.0603	1236.9075	1245.8724	1286.4171	1301.7747	1322.0439	1351.5253	1393.2166	1407.5265	1424.2185	1472.2012	1476.6001	1490.1598	1494.3027	1505.8595	2366.6631	3014.8951	3018.3984	3040.6929	3041.7188	3069.2646	3094.2559	3114.2071	3121.2949	3128.0112	3153.3949	3216.594	3809.9874
CCC#CCC1CC1O	CCC#CC[C@H]1C[C@H]1O	
InChI=1S/C8H12O/c1-2-3-4-5-7-6-8(7)9/h7-9H,2,5-6H2,1H3	InChI=1S/C8H12O/c1-2-3-4-5-7-6-8(7)9/h7-9H,2,5-6H2,1H3/t7-,8+/m0/s1
