16
gdb 8842	4.69988	1.20582	0.97522	4.0193	64.08	-0.25	-0.0181	0.2319	1133.9435	0.129866	-417.077667	-417.068861	-417.067916	-417.111799	30.662	
C	-0.0283617329	 1.4579199772	-0.0224711585	-0.360527
N	-0.007633319	-0.0021696195	-0.0285434417	-0.127114
C	-0.0241020381	-0.6544070732	 1.2021904773	 0.167816
O	-0.0679960948	-0.0776473334	 2.2645412654	-0.326305
C	 0.0339457577	-0.7462973318	-1.2192801719	 0.330265
N	-0.0166288995	-2.0164021359	-1.2014929512	-0.499778
C	 0.1530720663	 0.0727070327	-2.5079764377	-0.165508
O	 0.0742354864	-0.740521263	-3.6562390874	-0.400247
H	 0.8253389672	 1.8744517922	-0.5643401822	 0.135304
H	-0.9536441695	 1.8520192983	-0.4550322869	 0.134665
H	 0.0280814917	 1.7647329739	 1.0213486962	 0.178107
H	 0.0098758799	-1.7440007549	 1.0853547538	 0.145074
H	 0.0776507592	-2.3577275157	-2.1583254813	 0.228285
H	-0.6003419136	 0.8716721517	-2.5232021139	 0.118139
H	 1.13376234	 0.5611638932	-2.5406070271	 0.146741
H	-0.8451512512	-1.0009132118	-3.7774320028	 0.295084
30.7276	117.9993	170.7495	190.3826	214.5909	312.3997	330.089	348.8445	367.2575	413.4786	535.39	551.7992	737.1746	846.9872	895.667	952.1016	1004.1712	1059.3142	1067.7559	1116.9742	1152.0828	1213.6407	1237.9255	1294.2738	1359.0373	1403.2984	1417.6287	1430.0722	1451.9545	1482.1508	1506.7925	1513.1563	1715.3633	1796.9959	3015.2414	3040.0685	3070.4229	3082.6267	3100.159	3161.2609	3481.7826	3814.6037
CN(C=O)C(=N)CO	CN(C=O)C(=N)CO	
InChI=1S/C4H8N2O2/c1-6(3-8)4(5)2-7/h3,5,7H,2H2,1H3	InChI=1S/C4H8N2O2/c1-6(3-8)4(5)2-7/h3,5,7H,2H2,1H3
