14
gdb 5513	3.46591	1.98415	1.27194	6.359	68.72	-0.2412	-0.0571	0.184	897.8726	0.108213	-378.764061	-378.756831	-378.755887	-378.79589	25.435	
C	-0.0278641818	 1.4504924608	 0.0356434485	-0.349486
N	-0.0085342135	-0.0054778309	 0.0166056916	-0.024693
C	-0.029430593	-0.7787549056	-1.106744173	-0.116817
C	 0.0014991908	-2.0888084499	-0.6707629496	-0.087549
N	 0.0401825004	-2.1370770207	 0.683376072	-0.270462
C	 0.0337849665	-0.8734000192	 1.0906102424	 0.232053
C	 0.0668451725	-0.4113102933	 2.4790644069	 0.083283
O	 0.1041295041	-1.1324453459	 3.4475240436	-0.254598
H	 0.8737214756	 1.8485182398	 0.5082479632	 0.158881
H	-0.0690494757	 1.8112212382	-0.9928336132	 0.150927
H	-0.9048555692	 1.8236620181	 0.5705078943	 0.158998
H	-0.0635404736	-0.340850253	-2.0915436095	 0.138889
H	-0.0028040974	-2.9848321647	-1.2732222763	 0.12049
H	 0.0548011942	 0.6964017563	 2.591672049	 0.060083
98.4082	138.0361	189.7745	207.9508	278.8599	339.1842	534.8021	637.8499	649.5089	703.2683	770.5321	836.639	870.8013	931.0158	1015.2065	1066.909	1100.3323	1148.454	1165.9401	1235.7868	1323.4507	1364.7065	1415.5042	1450.0658	1471.5708	1487.5539	1505.1347	1517.0409	1538.3977	1799.5578	2869.5716	3053.9269	3121.4416	3147.3871	3245.4728	3269.7821
CN1C=CN=C1C=O	Cn1ccnc1C=O	
InChI=1S/C5H6N2O/c1-7-3-2-6-5(7)4-8/h2-4H,1H3	InChI=1S/C5H6N2O/c1-7-3-2-6-5(7)4-8/h2-4H,1H3
