23
gdb 116132	2.36129	1.1649	0.82688	1.3567	89.35	-0.2237	0.0346	0.2582	1456.5963	0.206477	-388.315235	-388.305629	-388.304685	-388.3495	36.561	
C	-0.0230876728	 1.550242359	 0.079352834	-0.472222
C	-0.0127253749	 0.0478934385	-0.0099499311	 0.300129
C	-0.0101032756	-0.5954735058	-1.1806052983	-0.13572
C	 0.0443464789	-2.0957299469	-1.341730311	-0.013893
C	 0.9915220646	-2.4919736079	-2.4776623268	-0.090238
O	 0.4676945973	-1.9788178189	-3.6950703209	-0.421991
C	 0.4357823043	-2.790215734	-0.0289354939	-0.215239
C	-0.323834873	-2.1857224152	 1.1553669115	-0.217603
C	-0.0002336022	-0.6941186868	 1.3087024434	-0.274532
H	 0.8416353057	 1.9188674536	 0.6475526664	 0.116784
H	-0.0018055772	 2.015210207	-0.9099316999	 0.118301
H	-0.9150830615	 1.9111987907	 0.6082723729	 0.117626
H	-0.0355774117	-0.028184149	-2.1076619128	 0.087581
H	-0.9519252015	-2.4525183718	-1.648012433	 0.086399
H	 1.9962478142	-2.0877671149	-2.2742902596	 0.084013
H	 1.0757064477	-3.590436611	-2.5169311773	 0.080631
H	 1.1154356926	-2.1284556881	-4.389333679	 0.28603
H	 0.2468681088	-3.8673945786	-0.1017156938	 0.089229
H	 1.5159914958	-2.6695198991	 0.1363311647	 0.091135
H	-1.4018794361	-2.3076076179	 0.9888471558	 0.098684
H	-0.0860439678	-2.7216501738	 2.0806582362	 0.088444
H	 0.9862250285	-0.568461867	 1.7817666239	 0.100942
H	-0.7111363641	-0.2225627121	 2.0006493885	 0.095509
88.3816	123.0691	150.912	196.3209	207.144	248.7436	275.1547	335.5539	381.8909	415.4472	448.8934	501.4544	542.9439	603.6975	779.2346	845.2627	866.8694	890.4803	907.3901	960.786	989.3822	1003.0738	1040.6152	1056.9222	1076.3661	1086.7141	1108.5277	1146.1117	1160.4481	1191.5388	1215.4662	1247.3674	1259.2363	1285.6518	1316.4695	1330.067	1368.9702	1374.8006	1386.1372	1395.0346	1411.5074	1451.8992	1474.8761	1480.0822	1487.7694	1492.4225	1498.5187	1518.1407	1737.8798	2958.998	2973.916	2987.2408	2996.3584	3008.2475	3009.4653	3018.516	3032.6617	3053.1506	3060.2772	3069.1857	3109.0137	3159.7606	3834.3264
CC1=CC(CO)CCC1	CC1=C[C@@H](CO)CCC1	
InChI=1S/C8H14O/c1-7-3-2-4-8(5-7)6-9/h5,8-9H,2-4,6H2,1H3	InChI=1S/C8H14O/c1-7-3-2-4-8(5-7)6-9/h5,8-9H,2-4,6H2,1H3/t8-/m0/s1
