18
gdb 51327	4.46671	1.02093	0.9555	1.2225	75.44	-0.2416	-0.0262	0.2154	1240.8151	0.147696	-401.882094	-401.874392	-401.873447	-401.915517	28.939	
O	-0.0012712791	-0.1079876186	-0.2121593265	-0.238023
C	-0.0184858481	 1.09522522	-0.174704612	 0.161506
C	 1.2045515323	 1.9764788309	-0.0491783254	-0.300923
C	 1.3444323919	 2.9092300999	-1.2579883989	-0.021327
C	 2.6689046684	 3.6755165765	-1.264833067	-0.043665
C	 3.3348996319	 2.6430977544	-2.0931814346	-0.048815
C	 1.8833119697	 2.2129478257	-2.5444921238	-0.089249
C	 1.9869515287	 3.3888314803	-3.5270443678	-0.157097
N	 3.0744602769	 3.9871592972	-2.680089244	-0.154386
H	-0.9811894805	 1.6550838715	-0.2477140328	 0.072799
H	 1.090457384	 2.5816634766	 0.8620068963	 0.117335
H	 2.08806228	 1.3417031219	 0.066560591	 0.124367
H	 0.4274475525	 3.4993038548	-1.3889685994	 0.07277
H	 3.0809149209	 4.3174408429	-0.4964545811	 0.099963
H	 4.3052407886	 2.1665152573	-2.0608963789	 0.102296
H	 1.5336642535	 1.2220157456	-2.8289297998	 0.091222
H	 2.4187701027	 3.1182042143	-4.4934767903	 0.113088
H	 1.1037777756	 4.0215420288	-3.6772754049	 0.09814
40.7814	75.9338	162.0158	246.0147	335.8056	442.7853	447.7176	555.188	752.837	755.8755	772.3719	793.5622	825.9443	871.4805	924.1695	941.6912	962.7712	973.694	999.1201	1020.3468	1034.4967	1068.9067	1083.4415	1119.0396	1152.1833	1165.6411	1175.2573	1202.8549	1219.5793	1231.0986	1264.0528	1292.0499	1300.0592	1341.959	1386.7037	1429.9533	1463.9346	1511.6328	1834.6708	2850.844	3010.4511	3015.0636	3032.9982	3097.4708	3106.1099	3133.8876	3194.7141	3211.847
O=CCC1C2C3C1CN23	O=CC[C@H]1[C@H]2[C@H]3[C@@H]1CN23	
InChI=1S/C7H9NO/c9-2-1-4-5-3-8-6(4)7(5)8/h2,4-7H,1,3H2	InChI=1S/C7H9NO/c9-2-1-4-5-3-8-6(4)7(5)8/h2,4-7H,1,3H2/t4-,5-,6+,7-,8?/m1/s1
