20
gdb 18124	3.565	2.02625	1.54514	1.4946	73.14	-0.2399	0.0779	0.3179	886.4057	0.181097	-349.031993	-349.025215	-349.024271	-349.063055	27.175	
C	 0.0086684208	 1.4888558351	 0.1047732945	-0.20237
C	 1.4669532521	 1.9684241449	 0.0097600366	-0.218255
C	 2.1389919485	 0.9577117837	-0.945191308	-0.014785
C	 3.5744295755	 0.5376157846	-0.5800061359	-0.236784
C	 3.3336035913	-0.6873141252	 0.3104514595	-0.082649
O	 2.223055317	-1.3550335663	-0.2719651863	-0.264074
C	 1.325803359	-0.3698077643	-0.7854481552	 0.131557
C	 0.151064389	-0.0406721747	 0.1673071066	-0.227433
H	-0.5300659783	 1.9076197986	 0.9598330021	 0.094835
H	-0.5406030363	 1.7818064385	-0.7990350168	 0.096802
H	 1.5650402851	 3.0022264986	-0.3335019972	 0.093442
H	 1.9336551159	 1.913781932	 1.0021041477	 0.094294
H	 2.0809649642	 1.3255241648	-1.9728376958	 0.070192
H	 4.1304641185	 0.2406297965	-1.4745945156	 0.103124
H	 4.137413837	 1.3284952025	-0.0759981649	 0.097352
H	 4.1708900474	-1.39014361	 0.3399570898	 0.105676
H	 3.1131119718	-0.3796910437	 1.3467290168	 0.083958
H	 0.9600111073	-0.7540468611	-1.7428273116	 0.074418
H	 0.4335125407	-0.3537766662	 1.1791646276	 0.105898
H	-0.7654558365	-0.5765363783	-0.093077264	 0.0948
80.9163	176.5102	257.2145	356.9391	424.7803	541.6642	555.57	635.1458	706.3656	783.8122	830.437	871.3059	903.8112	911.7334	921.6409	945.3035	969.2426	1009.6247	1021.6354	1037.2997	1059.3542	1099.8943	1125.5372	1182.7243	1191.2137	1210.8822	1233.2597	1240.4019	1282.8479	1303.9389	1310.7039	1323.1748	1338.8675	1342.9099	1364.3101	1367.9396	1397.1786	1486.7803	1487.5633	1492.3414	1506.3343	1520.8489	2958.3171	3021.1757	3029.7113	3043.9724	3046.1234	3050.456	3068.7403	3085.1359	3086.7495	3089.5847	3100.0038	3102.6178
C1CC2CCOC2C1	C1C[C@H]2CCO[C@H]2C1	
InChI=1S/C7H12O/c1-2-6-4-5-8-7(6)3-1/h6-7H,1-5H2	InChI=1S/C7H12O/c1-2-6-4-5-8-7(6)3-1/h6-7H,1-5H2/t6-,7-/m0/s1
