19
gdb 57854	2.16598	1.26586	1.00391	2.7225	77.35	-0.259	-0.0347	0.2244	1268.059	0.155183	-423.012501	-423.002071	-423.001127	-423.048017	37.881	
C	-1.4200448352	 0.7913635031	 1.2242176285	-0.409771
C	-0.444763834	 0.5177209932	 0.0635557319	 0.054874
O	 0.8834542612	 0.5546886567	 0.5162516079	-0.441146
C	-0.7265175838	-0.8356536159	-0.5833979861	 0.365273
O	 0.0933004272	-1.7237659729	-0.4870097041	-0.333965
C	-2.0389389779	-1.112541056	-1.3415819071	-0.267709
C	-2.9042522676	-2.1029735638	-0.5205804573	-0.39408
C	-2.7895625447	 0.074643053	-1.7358704795	 0.330884
C	-3.4356376371	 1.0292363837	-2.077442465	-0.45797
H	-1.1357701139	 1.7357777356	 1.6945335937	 0.137151
H	-2.4533484489	 0.8716711098	 0.8780429364	 0.130033
H	-1.3459840441	 0.0011309234	 1.9775317346	 0.123474
H	-0.5952945641	 1.2888012218	-0.7064863149	 0.105108
H	 1.2169876245	-0.3508154598	 0.415280625	 0.291186
H	-1.715593599	-1.6380278312	-2.2492345566	 0.14386
H	-3.2567389896	-1.6414103654	 0.4051233682	 0.136981
H	-3.7755729605	-2.4069757037	-1.1046123401	 0.135992
H	-2.3094527182	-2.9853804039	-0.275503448	 0.144639
H	-3.9954877144	 1.8796179725	-2.3804688376	 0.205186
47.6381	85.8224	132.59	181.7434	212.8854	229.8722	248.5152	266.7701	330.8237	371.9203	409.1894	444.4959	497.3917	526.8693	617.2888	641.7429	658.5258	699.111	778.8312	875.3988	922.8777	982.4216	1025.0135	1061.2383	1096.6217	1110.8648	1149.4253	1188.2235	1270.833	1290.4236	1318.2284	1346.832	1393.3074	1399.0511	1436.9936	1490.8773	1495.397	1499.0994	1499.9132	1783.8951	2234.9303	3003.7562	3032.0406	3045.553	3055.3854	3123.1313	3133.6201	3135.3515	3143.2033	3500.8183	3690.5141
CC(O)C(=O)C(C)C#C	C[C@@H](O)C(=O)[C@@H](C)C#C	
InChI=1S/C7H10O2/c1-4-5(2)7(9)6(3)8/h1,5-6,8H,2-3H3	InChI=1S/C7H10O2/c1-4-5(2)7(9)6(3)8/h1,5-6,8H,2-3H3/t5-,6+/m0/s1
