15
gdb 105586	1.9729	1.63649	1.3067	4.7347	66.86	-0.2886	-0.0147	0.2739	1036.141	0.112607	-453.942061	-453.933666	-453.932722	-453.975322	30.27	
O	-0.0452968242	 1.4637633428	 0.1394461874	-0.404051
C	 0.0136463265	 0.0831396994	-0.0774471118	-0.101621
C	-1.406135182	-0.5359487905	-0.0750907767	-0.060088
C	-1.5242601408	-2.0687914001	 0.1620822088	-0.126527
O	-2.0850866801	-1.823143214	 1.491521968	-0.245147
C	-2.0083833836	-0.4665160323	 1.3270993221	 0.446712
N	-2.23754296	 0.4988817588	 2.090434725	-0.545517
C	-2.2347894998	-0.0107777517	-1.1499003798	 0.27861
N	-2.8906544123	 0.3668207078	-2.0227225477	-0.326085
H	-0.5526053771	 1.6165842824	 0.950748916	 0.308408
H	 0.4898648736	-0.0762388939	-1.0494175935	 0.133609
H	 0.6078224348	-0.4439821601	 0.6867643092	 0.101662
H	-2.2340875194	-2.594745342	-0.4764358757	 0.153857
H	-0.5771996342	-2.6076636219	 0.2323853039	 0.139684
H	-2.5688106114	 0.2105966352	 3.0115216147	 0.246492
108.4129	122.3965	130.8452	169.5492	233.0537	291.281	393.5857	421.7321	516.9698	541.9612	562.5655	649.4016	736.3661	775.0087	859.602	904.3139	952.0797	960.1209	1020.2442	1052.434	1101.2497	1146.8684	1159.5827	1205.7323	1227.6306	1277.465	1366.4964	1387.8919	1443.683	1506.3285	1509.8996	1822.2991	2363.9081	2973.7643	3079.8837	3087.6128	3152.2129	3493.8826	3720.4621
OCC1(COC1=N)C#N	OC[C@]1(CO[C]1[NH])C#N	
InChI=1S/C5H6N2O2/c6-1-5(2-8)3-9-4(5)7/h7-8H,2-3H2	InChI=1S/C5H6N2O2/c6-1-5(2-8)3-9-4(5)7/h7-8H,2-3H2/t5-/m0/s1
