27
gdb 121920	3.29786	0.64414	0.56699	0.9431	94.03	-0.2493	0.082	0.3314	2091.6079	0.249177	-390.691723	-390.679514	-390.67857	-390.730649	43.44	
C	-0.0213612323	 1.3790072735	-0.1361931802	-0.2267
O	-0.1051966386	-0.0170238514	 0.003478098	-0.229544
C	 0.6609285743	-0.5088996949	 1.0836591828	-0.057779
C	 0.4885032615	-2.022834527	 1.1406077792	-0.207068
C	 1.299619297	-2.7128942871	 2.2576744026	 0.047282
C	 0.6591245654	-2.4304468833	 3.6280127794	-0.409559
C	 1.4624530152	-4.2335297531	 1.9809331349	 0.044638
C	 2.3522129598	-4.5034535955	 0.7561657557	-0.395111
C	 2.0285165345	-5.0047849598	 3.1843514237	-0.400164
H	 1.0123399689	 1.7120223159	-0.3248016031	 0.100363
H	-0.6430991094	 1.6627751484	-0.9891716293	 0.124478
H	-0.3885033602	 1.9046299248	 0.7604261305	 0.100432
H	 1.7265133763	-0.2527525398	 0.9435335092	 0.081109
H	 0.3382869507	-0.0274066211	 2.0218761869	 0.083767
H	-0.5777012174	-2.249709272	 1.2686525174	 0.10022
H	 0.7690454377	-2.4099770444	 0.1571121847	 0.104891
H	 2.3124745698	-2.2795241713	 2.2638630915	 0.062406
H	 1.2922482973	-2.7613356788	 4.4546222657	 0.11543
H	 0.4769669213	-1.3612772117	 3.7693283153	 0.111387
H	-0.3069152199	-2.9421041343	 3.7185897435	 0.112904
H	 0.4596657699	-4.6348653677	 1.7694336612	 0.069041
H	 3.3726639492	-4.1421621543	 0.9338907731	 0.110038
H	 2.4152142666	-5.5778072805	 0.5546637795	 0.109703
H	 1.9841129784	-4.0231403884	-0.1537475592	 0.116625
H	 1.3602415755	-4.9830590573	 4.0484467518	 0.114072
H	 2.1909880511	-6.0551375493	 2.9211508392	 0.107804
H	 2.9958525971	-4.5918313095	 3.4966806758	 0.109333
24.9191	53.7959	68.3563	121.6774	130.9995	202.5023	212.5251	231.1236	242.9189	276.6873	307.3281	343.4756	372.8259	408.2457	460.196	464.981	531.5728	784.7021	799.0774	885.4078	925.2226	949.2713	961.9149	968.6334	986.1815	1004.5658	1054.8682	1079.8848	1152.8043	1161.0286	1172.1941	1178.8314	1193.7821	1195.0072	1229.1833	1245.7345	1286.8547	1313.5013	1333.4876	1349.0584	1363.0025	1382.3408	1400.1475	1411.2296	1422.0471	1427.135	1480.4224	1484.6205	1484.9941	1488.6164	1490.8458	1500.3184	1503.277	1505.8593	1511.0601	1521.6964	1532.2051	2941.0617	2964.1657	2973.9183	2975.5031	2993.1922	3004.2431	3025.1649	3029.7445	3030.8837	3035.9623	3086.8162	3090.3344	3094.1419	3098.3203	3109.7726	3110.9099	3116.6246	3120.3129
COCCC(C)C(C)C	COCC[C@@H](C)C(C)C	
InChI=1S/C8H18O/c1-7(2)8(3)5-6-9-4/h7-8H,5-6H2,1-4H3	InChI=1S/C8H18O/c1-7(2)8(3)5-6-9-4/h7-8H,5-6H2,1-4H3/t8-/m1/s1
