16
gdb 9296	6.04538	0.90379	0.8255	3.9538	58.89	-0.2763	0.0036	0.2799	1314.2111	0.128382	-458.019838	-458.01096	-458.010016	-458.054052	30.795	
O	-0.2339536128	 1.4244505582	-0.1163272377	-0.417543
C	 0.0096142475	 0.0376030447	-0.0809706286	-0.067576
C	-1.2752676148	-0.7333253399	 0.2303752477	 0.090664
O	-2.2984239894	-0.3595827201	-0.6939855635	-0.432327
C	-1.070724178	-2.2450476926	 0.2580210112	-0.117088
O	-2.236451207	-2.9093459773	 0.7412427678	-0.17184
C	-3.1524240046	-3.3123025313	-0.1642281264	 0.190432
O	-4.1989964095	-3.7899169181	 0.1481819538	-0.269482
H	-1.0888861652	 1.5335353071	-0.552580501	 0.288837
H	 0.4268807092	-0.3252753469	-1.0399932898	 0.075712
H	 0.7643028068	-0.1465189437	 0.6914473104	 0.116716
H	-1.6556323491	-0.4131405577	 1.2058961296	 0.124307
H	-2.0100365805	-0.6111984856	-1.5806272852	 0.284676
H	-0.8057600913	-2.6158594138	-0.7432255255	 0.106018
H	-0.2603959226	-2.5126270606	 0.9417545301	 0.1349
H	-2.8123417588	-3.1746136524	-1.2087229029	 0.063593
65.8234	68.8183	130.8358	179.4347	207.2227	303.2166	335.4766	370.6323	394.6416	456.5629	496.3881	576.2396	675.0621	867.3784	905.9722	1028.0562	1042.839	1059.0757	1075.4346	1102.0278	1124.1519	1161.2695	1211.2031	1273.112	1280.6702	1341.4636	1380.5447	1405.7534	1425.4246	1432.6045	1443.537	1489.187	1509.6122	1875.0652	2921.7365	2948.1317	3003.3342	3065.6699	3077.6156	3100.0426	3768.0434	3774.0906
OCC(O)COC=O	OC[C@@H](O)COC=O	
InChI=1S/C4H8O4/c5-1-4(7)2-8-3-6/h3-5,7H,1-2H2	InChI=1S/C4H8O4/c5-1-4(7)2-8-3-6/h3-5,7H,1-2H2/t4-/m1/s1
