19
gdb 10632	2.52137	1.74959	1.24153	1.0333	78.84	-0.2358	0.0393	0.2751	1064.329	0.163318	-327.878212	-327.868905	-327.867961	-327.911833	34.285	
C	-0.3786495863	 1.5129528795	 0.1660404961	-0.38111
C	 0.2173323542	 0.1316923638	-0.1232370614	-0.247882
C	 0.8640656132	-0.492239909	 1.1068312289	 0.129726
N	-0.0788881768	-1.0613295191	 2.1075203645	-0.367722
C	 0.8275229815	-1.9691296099	 1.3953100071	-0.038371
C	 0.2147054981	-3.0050625157	 0.4841282471	-0.403994
C	 2.0122168721	 0.2193925954	 1.6175466089	 0.299624
C	 2.9601869106	 0.8266368451	 2.0436338804	-0.462136
H	 0.3914570728	 2.2108909852	 0.5080367794	 0.126235
H	-0.8426874706	 1.9322964164	-0.7315440619	 0.109461
H	-1.1434916892	 1.4418799382	 0.9452878049	 0.128598
H	-0.5691019303	-0.5364713607	-0.4826129956	 0.105364
H	 0.9702549284	 0.2020868166	-0.9172268149	 0.102467
H	 0.2619739752	-0.8756302245	 3.0471942205	 0.236961
H	 1.6911097809	-2.3279673761	 1.9533385697	 0.090981
H	-0.6904310489	-2.6341307081	 0.0004417313	 0.131614
H	 0.9259777433	-3.3164473378	-0.2881269974	 0.12141
H	-0.061275245	-3.8924069098	 1.0641743594	 0.12334
H	 3.7997225369	 1.3577410104	 2.4186760932	 0.195434
81.7672	137.8235	144.7466	160.7853	201.9885	227.7517	290.0896	365.5724	395.0763	491.503	550.3657	572.6153	594.8223	651.5377	661.8756	770.8424	804.315	872.5524	939.6395	996.898	1008.0794	1042.9152	1083.9665	1101.8191	1108.089	1143.7274	1244.4007	1260.5729	1313.1659	1328.6318	1372.6859	1405.1742	1407.982	1450.7282	1473.7605	1488.8652	1496.7199	1499.625	1509.9972	2226.2611	3037.8632	3040.9245	3042.0841	3094.3533	3097.7028	3112.4138	3114.4718	3119.8155	3139.5723	3501.3995	3507.7648
CCC1(NC1C)C#C	CC[C@]1(N[C@H]1C)C#C	
InChI=1S/C7H11N/c1-4-7(5-2)6(3)8-7/h1,6,8H,5H2,2-3H3	InChI=1S/C7H11N/c1-4-7(5-2)6(3)8-7/h1,6,8H,5H2,2-3H3/t6-,7+/m0/s1
