25
gdb 102644	2.47835	0.88399	0.71823	2.1958	85.35	-0.2544	0.0629	0.3172	1677.1806	0.226411	-426.626861	-426.615113	-426.614169	-426.664159	42.682	
C	 0.7393689129	-0.4713703937	 1.2895800062	-0.386016
C	 0.2015772756	 0.0843713501	-0.0351509448	-0.186762
C	 0.857607977	-0.4704672797	-1.3189554146	-0.003062
C	 2.3364783376	-0.0566422625	-1.4415222019	-0.075704
O	 2.5450713352	 1.3468496529	-1.4037383274	-0.427238
C	 0.7533525163	-1.9967810783	-1.5046908415	-0.177004
C	-0.6589061712	-2.5663980784	-1.6612303932	 0.11986
C	-0.6419873863	-3.9976714861	-2.2018434123	-0.400933
O	-1.2845769091	-2.5256865656	-0.3765069254	-0.424836
H	 0.5202208089	-1.537688239	 1.3842336851	 0.135817
H	 1.8219046911	-0.3355457837	 1.3964688919	 0.100639
H	 0.2652976827	 0.0368269943	 2.1355154834	 0.108573
H	-0.8726992638	-0.109401394	-0.079806986	 0.109812
H	 0.3142914108	 1.1764476367	-0.051424082	 0.077712
H	 0.3387093382	 0.0022162594	-2.1655064708	 0.071354
H	 2.9391346315	-0.5673318802	-0.6735856234	 0.087176
H	 2.7225469377	-0.382809349	-2.4137234268	 0.102304
H	 2.3812978926	 1.6465501261	-0.504925718	 0.285097
H	 1.3170872536	-2.2657266356	-2.4072484945	 0.091178
H	 1.2375196652	-2.5240715453	-0.6730937125	 0.104793
H	-1.2183481507	-1.9281804238	-2.3665238976	 0.064211
H	-1.6594851266	-4.4010209244	-2.2672994489	 0.102144
H	-0.20555127	-4.0373450673	-3.2050490067	 0.116387
H	-0.0607963899	-4.6492798779	-1.5413834215	 0.124226
H	-2.1716936293	-2.8878622649	-0.4657069669	 0.280273
43.2707	78.6647	88.6206	148.8111	164.6417	227.4202	237.3635	242.9683	282.7012	288.8964	308.3402	325.6672	340.632	451.6574	467.2689	530.4971	555.1219	769.8914	779.0238	843.8814	890.2324	940.0459	962.4003	983.727	998.7937	1038.2783	1070.7131	1075.6184	1105.8205	1119.8496	1153.6082	1166.0594	1208.6993	1221.6048	1290.3819	1299.8183	1309.3467	1361.7098	1364.3971	1383.2526	1393.2772	1401.2081	1405.6734	1414.1078	1423.1641	1428.9466	1469.8938	1491.4148	1492.6821	1497.0013	1500.0721	1507.4158	1514.5023	2952.2645	2976.2918	3000.2456	3020.7043	3023.009	3026.8258	3034.1503	3058.7226	3066.5623	3085.3372	3091.9198	3102.7287	3111.4656	3123.1673	3818.1242	3832.212
CCC(CO)CC(C)O	CC[C@@H](CO)C[C@@H](C)O	
InChI=1S/C7H16O2/c1-3-7(5-8)4-6(2)9/h6-9H,3-5H2,1-2H3	InChI=1S/C7H16O2/c1-3-7(5-8)4-6(2)9/h6-9H,3-5H2,1-2H3/t6-,7-/m1/s1
