16
gdb 66793	3.0078	2.28362	1.86354	1.5449	68.79	-0.2296	0.0624	0.292	783.346	0.126265	-400.665022	-400.659201	-400.658256	-400.694736	25.514	
O	-0.0700780133	 1.3873322578	-0.0202648669	-0.49212
C	-0.0009485424	 0.0065454824	-0.0470340807	 0.404524
C	-1.3429182449	-0.7507662024	-0.1416617881	-0.124232
C	-0.9556858782	-1.6243454156	 1.052412281	-0.088299
C	-0.827321006	-2.1462384807	-0.3547294922	-0.02863
N	 0.5800281886	-2.1553676044	-0.8126351994	-0.116129
C	 1.4226693976	-1.6184660906	 0.267321205	-0.060563
C	 1.0508865057	-0.7681155948	-0.9069608982	-0.149457
C	 0.4017380705	-0.8965519795	 1.1858230376	-0.171124
H	 0.8100136399	 1.7354715877	 0.160733446	 0.285364
H	-2.2993527702	-0.36511205	-0.4722621744	 0.093788
H	-1.5679185804	-2.0694060378	 1.8269192834	 0.090491
H	-1.4627871871	-2.9381037839	-0.7274099788	 0.100068
H	 2.346383917	-2.1231299385	 0.5282625775	 0.09335
H	 1.6024252495	-0.4355836072	-1.781570185	 0.089661
H	 0.7057365237	-0.4472606825	 2.1280620332	 0.073307
262.1372	305.7796	344.5247	555.8622	575.2707	587.2422	722.5045	736.645	748.3819	769.7849	800.2147	827.3438	859.6993	865.6298	908.1048	919.1201	936.3054	976.0598	990.5982	1013.4216	1037.2422	1038.3197	1043.079	1061.1806	1092.1507	1104.5748	1176.6705	1200.865	1219.3715	1229.5701	1263.9992	1297.8845	1323.722	1361.0962	1402.911	3149.6283	3152.252	3171.8846	3183.6323	3192.7034	3214.0789	3802.2769
OC12C3C4C3N3C(C13)C24	O[C@@]12[C@@H]3[C@H]4[C@@H]3N3[C@@H]([C@H]13)[C@@H]24	
InChI=1S/C7H7NO/c9-7-2-1-3(7)5-6(7)8(5)4(1)2/h1-6,9H	InChI=1S/C7H7NO/c9-7-2-1-3(7)5-6(7)8(5)4(1)2/h1-6,9H/t1-,2-,3+,4+,5-,6-,7-,8?/m1/s1
