21
gdb 118281	5.20095	0.53754	0.50435	1.0959	81.97	-0.2546	0.0589	0.3135	2135.0623	0.179032	-424.187261	-424.176095	-424.175151	-424.224453	39.588	
O	-0.0652126473	 1.4676871785	 0.063695216	-0.423071
C	 0.0402688251	 0.0513049716	 0.0543358662	-0.075954
C	-1.3710024716	-0.5167676401	-0.0312703127	-0.195614
C	-1.4052096303	-2.0474603062	-0.0192207789	 0.113045
O	-0.7770221063	-2.5780244097	 1.1507198846	-0.430393
C	-2.828319918	-2.5926870693	-0.184221808	-0.195822
C	-2.8659906649	-4.1328938985	-0.2268283676	-0.357507
C	-4.218634033	-4.6658283606	-0.3227490188	 0.292591
C	-5.3451489198	-5.0784353261	-0.4005360797	-0.439745
H	 0.8187091714	 1.8327091268	 0.1631285296	 0.285814
H	 0.6316130156	-0.2997293598	-0.8077535914	 0.083753
H	 0.5331331723	-0.3256939948	 0.9612433533	 0.097269
H	-1.9599451095	-0.1281947117	 0.8113063688	 0.096805
H	-1.8505956154	-0.1431235633	-0.9434724832	 0.108878
H	-0.7858269446	-2.425518099	-0.8443312711	 0.087537
H	-1.2619865762	-2.246150478	 1.9156205948	 0.279049
H	-3.4523441466	-2.237040966	 0.6464520872	 0.100852
H	-3.2719769806	-2.1875155309	-1.1002853751	 0.111767
H	-2.2714339401	-4.4867639927	-1.0796775859	 0.127376
H	-2.3688662605	-4.5223432037	 0.6685324571	 0.141543
H	-6.3344404096	-5.4571853865	-0.4698356252	 0.191827
51.3937	74.2667	80.0206	105.7528	142.2765	178.28	262.5953	269.9936	309.5676	328.0184	347.8389	383.6087	456.1106	529.2999	586.9159	614.2916	634.7925	768.3457	799.9797	892.0575	953.3437	976.952	999.3743	1047.9445	1059.7381	1081.6911	1103.6677	1116.751	1169.7969	1209.6884	1233.5724	1270.9844	1291.3408	1303.2405	1321.9663	1357.2262	1371.1377	1392.2394	1419.1948	1459.28	1472.406	1483.2359	1492.634	1530.9627	2238.5277	2963.9887	3012.3601	3016.5685	3018.7578	3022.384	3033.7365	3061.8534	3071.8231	3085.671	3507.9834	3787.6195	3831.0506
OCCC(O)CCC#C	OCC[C@@H](O)CCC#C	
InChI=1S/C7H12O2/c1-2-3-4-7(9)5-6-8/h1,7-9H,3-6H2	InChI=1S/C7H12O2/c1-2-3-4-7(9)5-6-8/h1,7-9H,3-6H2/t7-/m0/s1
