20
gdb 91074	2.76364	1.55647	1.50446	2.1347	76.61	-0.2213	0.0628	0.2842	996.7333	0.173615	-403.104006	-403.096572	-403.095628	-403.135631	30.523	
O	-0.4722941403	 1.2890063797	-0.8054221455	-0.413483
C	-0.0564887319	 0.1047327904	-0.1206177619	 0.103851
C	-1.3180302374	-0.7516712989	 0.1688252953	-0.243765
C	-1.2753452436	-1.9732064924	-0.7665409149	-0.035318
C	-1.8719012662	-1.91988074	-2.1803897678	-0.039234
C	-1.3518247298	-0.8063172814	-2.9925225847	-0.267224
N	-0.5033985074	-2.0078346045	-2.8477215267	-0.154971
C	 0.1110423288	-1.9999945478	-1.4593407326	 0.037428
C	 0.9092326038	-0.7877035943	-0.9566578803	-0.267617
H	 0.3147142688	 1.8076251838	-1.0019436003	 0.282328
H	 0.4265006265	 0.4037641781	 0.8196114366	 0.071922
H	-1.3034846291	-1.0813362296	 1.2122151417	 0.099524
H	-2.2094594117	-0.1326889369	 0.0360092233	 0.121058
H	-1.5404948401	-2.8983236657	-0.2525742855	 0.073207
H	-2.6949675336	-2.5444805563	-2.5143520369	 0.08776
H	-1.7453350783	-0.7215250834	-4.0018128066	 0.112382
H	-1.0703893133	 0.1360238567	-2.5346831477	 0.143923
H	 0.6706403919	-2.9306769562	-1.3521565008	 0.079236
H	 1.3635974409	-0.2167052067	-1.773538956	 0.107017
H	 1.728370462	-1.1373435443	-0.3189615486	 0.101978
124.1966	138.3792	280.5061	328.8519	378.1393	399.5028	411.9883	538.7726	619.0931	694.5181	708.3325	741.1336	780.9052	808.6056	847.9104	870.5843	925.5765	959.2147	978.0581	988.6101	1029.7569	1052.4262	1065.9673	1090.1635	1104.158	1145.4334	1165.0379	1165.5686	1190.1463	1213.4409	1226.0314	1260.8483	1276.898	1293.4923	1317.907	1334.2631	1360.4272	1367.2367	1379.7434	1422.0199	1464.8505	1476.7102	1523.7928	2996.7005	3040.8464	3054.6254	3078.5273	3087.7098	3097.2803	3106.5566	3119.0793	3153.2129	3211.3386	3813.1813
OC1CC2C3CN3C2C1	O[C@H]1C[C@H]2[C@H]3CN3[C@H]2C1	
InChI=1S/C7H11NO/c9-4-1-5-6(2-4)8-3-7(5)8/h4-7,9H,1-3H2	InChI=1S/C7H11NO/c9-4-1-5-6(2-4)8-3-7(5)8/h4-7,9H,1-3H2/t4-,5+,6-,7+,8?/m0/s1
