17
gdb 52981	4.3819	0.94024	0.86684	3.0221	84.43	-0.218	0.0184	0.2364	1376.9408	0.136122	-380.842723	-380.83409	-380.833146	-380.877622	31.53	
C	 0.0250955065	 1.4678694705	 0.0159535899	-0.506216
C	 0.0204953418	 0.0127825435	 0.0074441708	 0.18024
C	 0.0101628732	-1.1930504374	-0.0044856087	-0.108265
C	 0.002071231	-2.619051195	-0.0098242283	 0.174074
C	-0.3633152292	-3.4447492697	-1.2233496115	-0.318481
C	-1.2536768899	-3.5606549398	-0.013717155	-0.053669
N	-0.9912867607	-4.6048141316	 0.9307347125	-0.23708
C	 0.1855226078	-4.4027260997	 1.4035301881	 0.040713
N	 0.8838811813	-3.3168657931	 0.9085891953	-0.350802
H	 1.0085648595	 1.8683605311	-0.254657463	 0.149577
H	-0.700104813	 1.8629701501	-0.7040779412	 0.153724
H	-0.2388259545	 1.865847668	 1.0021076859	 0.149639
H	-0.765520483	-2.8935324771	-2.0652671284	 0.124472
H	 0.2830869394	-4.2797233238	-1.4742900045	 0.120598
H	-2.2719587175	-3.192960261	-0.0704238006	 0.10492
H	 0.6593395275	-5.0510789409	 2.1333862281	 0.126946
H	 1.4821640397	-2.7723305742	 1.5117576207	 0.249609
17.0798	91.9232	99.3292	250.5951	302.0539	352.9551	369.6666	425.1585	466.1223	519.9282	542.0435	625.8203	694.4422	772.7106	841.3642	909.5881	927.5356	941.5976	1005.4624	1039.928	1051.1287	1054.331	1065.8721	1097.7455	1121.4155	1131.1076	1225.0134	1297.0949	1336.3624	1357.2733	1413.8413	1435.0229	1468.2756	1474.7657	1479.5379	1642.2266	2361.5675	3025.748	3084.9799	3089.0074	3129.1847	3174.1074	3196.9424	3228.1035	3614.7245
CC#CC12CC1N=CN2	CC#C[C@]12C[C@H]1N=CN2	
InChI=1S/C7H8N2/c1-2-3-7-4-6(7)8-5-9-7/h5-6H,4H2,1H3,(H,8,9)	InChI=1S/C7H8N2/c1-2-3-7-4-6(7)8-5-9-7/h5-6H,4H2,1H3,(H,8,9)/t6-,7+/m1/s1
