14
gdb 19025	4.75633	2.12595	1.78837	4.0067	69.84	-0.2342	-0.0729	0.1613	730.0991	0.108063	-345.326505	-345.320823	-345.319879	-345.356069	23.133	
O	-0.108640665	 0.0728190565	 0.378300367	-0.33315
C	-0.0728212493	 1.2226553705	 0.0162595446	 0.3895
C	-1.219142536	 2.1729037628	-0.2201767842	-0.239954
C	-0.6634456632	 3.3729114512	-0.5076596961	 0.09753
C	-0.2752836448	 4.3354791318	 0.6037974801	-0.264188
C	 1.1391345703	 3.6485075189	 0.3946142049	-0.069203
C	 0.7822834727	 3.2450476553	-0.9887179123	-0.115616
C	 1.1488244099	 2.123304558	-0.0522184449	-0.156346
H	-2.124967357	 2.0379506053	 0.3627325678	 0.11893
H	-0.1608404323	 5.3881539641	 0.3260378553	 0.125297
H	-0.8042313958	 4.2396136533	 1.5552803097	 0.119308
H	 2.0700163087	 4.0823969474	 0.7499568379	 0.108841
H	 1.2140356511	 3.4609626373	-1.9558253769	 0.11345
H	 2.1388704707	 1.6770296976	-0.057655403	 0.105601
145.4942	372.5303	394.1685	424.4345	597.1565	638.3036	707.2941	715.9391	774.3424	800.7269	815.3936	841.2403	891.6059	911.573	958.3661	979.4742	1034.9965	1041.8127	1045.7468	1068.1858	1107.9589	1152.4201	1193.5967	1207.7261	1259.0973	1277.198	1332.5597	1490.6996	1567.857	1805.1764	3047.3117	3114.7299	3149.3612	3170.1179	3183.6282	3215.8723
O=C1C=C2CC3C2C13	O=C1[CH][C]2C[C@@H]3[C@H]2[C@H]13	
InChI=1S/C7H6O/c8-5-2-3-1-4-6(3)7(4)5/h2,4,6-7H,1H2	InChI=1S/C7H6O/c8-5-2-3-1-4-6(3)7(4)5/h2,4,6-7H,1H2/t4-,6+,7+/m1/s1
