19
gdb 115832	3.31533	1.12592	1.05737	3.4652	71.02	-0.2478	0.0711	0.3189	1205.4693	0.159205	-460.138995	-460.130446	-460.129502	-460.172842	31.981	
O	 0.4335659821	 0.6399382752	 0.8953087844	-0.425199
C	-0.0257344494	-0.5356535239	 0.2628159164	-0.065133
C	-1.4235546115	-0.3241570346	-0.3222786866	 0.094315
C	-2.0919511286	-1.6129940003	-0.8173601158	-0.329993
C	-2.7816199408	-2.1066267721	 0.4417335554	 0.392408
C	-3.4513811049	-3.3958581791	 0.6012695283	-0.25677
O	-2.153337286	-3.1720117659	 1.1645469012	-0.266878
C	-3.1311477008	-0.850514078	 1.2237076205	-0.133125
O	-2.2849702973	 0.1837420664	 0.7201032537	-0.294633
H	-0.3036489297	 0.9407445606	 1.4418494454	 0.287416
H	 0.6821564665	-0.7724734192	-0.539732304	 0.103587
H	-0.0442494564	-1.392830094	 0.9559913545	 0.102306
H	-1.3751737689	 0.4562097405	-1.0885180575	 0.086861
H	-2.8293642183	-1.3900253804	-1.5951966497	 0.115211
H	-1.385746277	-2.3513660802	-1.2033038108	 0.124671
H	-4.2609914011	-3.5019104085	 1.3230772528	 0.118121
H	-3.4871310119	-4.0936982874	-0.2346521808	 0.118502
H	-4.1775634161	-0.5538574543	 1.0712321168	 0.107668
H	-2.9630510198	-1.007087285	 2.2951531756	 0.120666
59.3204	77.6992	136.3855	227.2291	288.7242	362.9279	377.6847	394.5198	470.9062	486.0386	556.7824	732.0258	771.6413	816.0641	847.8901	865.9741	922.0113	968.2451	993.3655	1016.578	1033.5939	1074.8349	1094.4576	1122.8097	1125.43	1169.8387	1196.3109	1221.282	1234.9236	1245.411	1277.0907	1327.8899	1342.8147	1363.4969	1400.2299	1438.085	1447.6331	1472.82	1504.2031	1514.5925	1537.9698	2975.6485	3011.3613	3050.2962	3058.4184	3064.0977	3071.9765	3078.1598	3118.487	3162.2108	3774.6795
OCC1CC2(CO2)CO1	OC[C@H]1C[C@]2(CO2)CO1	
InChI=1S/C6H10O3/c7-2-5-1-6(3-8-5)4-9-6/h5,7H,1-4H2	InChI=1S/C6H10O3/c7-2-5-1-6(3-8-5)4-9-6/h5,7H,1-4H2/t5-,6-/m1/s1
