20
gdb 100850	2.11066	1.22836	0.82678	2.4473	83.68	-0.2298	-0.0354	0.1943	1414.896	0.166518	-403.099943	-403.089162	-403.088218	-403.136383	38.044	
C	 0.0448582749	 1.6834535673	 0.0292423659	-0.398233
C	 0.1136768897	 0.157567117	-0.0083072138	-0.118677
N	 0.7749945949	-0.3655402233	-1.2100284833	-0.088001
C	 2.2034191436	-0.0670484256	-1.2285452825	-0.332533
C	 0.4804883654	-1.7917227152	-1.3738525494	-0.188867
C	-1.0223532116	-1.9542860176	-1.6935035181	 0.157692
O	-1.750996317	-2.7382424014	-1.1524986466	-0.239915
C	 1.1766202786	-2.3972615587	-2.5074776162	 0.276703
C	 1.6720287021	-2.934028973	-3.462335095	-0.409509
H	 1.0307285144	 2.1418632072	 0.1439310251	 0.123169
H	-0.4079748997	 2.0691626773	-0.8887040398	 0.12753
H	-0.5650065443	 2.004748425	 0.8789215859	 0.120374
H	 0.6054851393	-0.219799534	 0.9093391899	 0.084987
H	-0.9085444297	-0.2358923868	 0.0119469661	 0.119144
H	 2.7408361094	-0.4846975361	-0.3568252011	 0.095194
H	 2.6538179449	-0.4715602196	-2.1360389261	 0.13976
H	 2.3528196469	 1.0146085056	-1.2323015251	 0.125447
H	 0.6881289789	-2.3849892261	-0.4640171679	 0.100941
H	-1.3583065603	-1.2660595566	-2.4982373181	 0.099576
H	 2.1311839897	-3.4074338652	-4.2952092899	 0.205217
53.7592	67.2249	89.4209	144.0809	170.6805	211.6419	213.927	271.2068	305.4555	384.4236	399.0202	418.4155	459.0211	494.7575	587.2007	638.6863	666.2557	805.2266	841.5854	939.723	961.3062	1033.1008	1051.8092	1069.6931	1088.0574	1122.2073	1164.9097	1218.0159	1251.7553	1271.2845	1322.0064	1345.5607	1391.1739	1400.5108	1423.2452	1459.9006	1486.9489	1489.4895	1505.2202	1506.0102	1517.2052	1840.6205	2230.7644	2911.4456	2918.6641	2932.0278	2939.6354	3045.3211	3057.913	3095.6974	3115.5568	3122.0627	3141.5977	3500.3521
CCN(C)C(C=O)C#C	CCN(C)[C@@H](C=O)C#C	
InChI=1S/C7H11NO/c1-4-7(6-9)8(3)5-2/h1,6-7H,5H2,2-3H3	InChI=1S/C7H11NO/c1-4-7(6-9)8(3)5-2/h1,6-7H,5H2,2-3H3/t7-/m1/s1
