22
gdb 88072	3.19727	1.23512	1.16248	1.6048	85.71	-0.2228	0.0877	0.3105	1195.2957	0.195796	-367.186627	-367.178313	-367.177369	-367.219191	33.326	
C	-0.0998699956	 1.5310875498	-0.0243882121	-0.408518
C	-0.0183234402	 0.0225858067	 0.0644484409	-0.053121
C	 1.274501026	-0.7090517268	-0.214484206	-0.35207
C	 0.709749913	-0.6734623769	 1.1881186272	 0.392667
C	 1.4251240534	 0.0564146714	 2.32583983	-0.340421
C	 1.8250491208	-1.0977872058	 3.2800299366	-0.153617
N	 0.8956431932	-2.2261656713	 3.0645568922	-0.100125
C	-0.5218747864	-1.8382998137	 3.1074505657	-0.259483
C	 0.1842278562	-1.9449113713	 1.8023574898	-0.091905
H	 0.8314662002	 2.0039353953	 0.3019434499	 0.114991
H	-0.2899178306	 1.8523823245	-1.0545339043	 0.117213
H	-0.9090281268	 1.9263957104	 0.6002107197	 0.116372
H	-0.9172784487	-0.4865689838	-0.2772289628	 0.081864
H	 1.2369137561	-1.643553643	-0.7659797776	 0.108434
H	 2.1585185966	-0.1103738195	-0.4143702108	 0.105811
H	 2.2949614379	 0.6253826063	 1.9894409547	 0.102611
H	 0.7532592024	 0.7653387603	 2.8220087224	 0.105184
H	 2.8293765975	-1.4614649421	 3.0380727023	 0.108593
H	 1.8237259455	-0.8026026766	 4.333855756	 0.102608
H	-1.1937832827	-2.6297643311	 3.4271330886	 0.112439
H	-0.7897506985	-0.8487934597	 3.4711493929	 0.106123
H	-0.0071078794	-2.7910308827	 1.1468114447	 0.084349
105.8389	153.1317	196.4775	202.7244	294.2743	353.1546	383.4373	423.0734	479.3038	544.6357	652.1315	709.2765	777.2299	818.4785	834.74	862.6426	886.4309	921.3928	937.6198	958.7894	975.6402	1006.8244	1030.7542	1053.7703	1082.7008	1094.4312	1108.0056	1113.7619	1133.3423	1166.0855	1185.5352	1199.3313	1234.8489	1262.7674	1271.0801	1296.9409	1318.2785	1343.7888	1381.8049	1412.4788	1435.5424	1487.6503	1488.5596	1493.4883	1498.2822	1505.8312	1519.0581	3027.3516	3042.9178	3043.1637	3084.6788	3085.8185	3097.7259	3101.4248	3103.9951	3115.2597	3126.7885	3133.2291	3186.6356	3200.2784
CC1CC11CCN2CC12	C[C@H]1C[C@]21CCN1C[C@@H]21	
InChI=1S/C8H13N/c1-6-4-8(6)2-3-9-5-7(8)9/h6-7H,2-5H2,1H3	InChI=1S/C8H13N/c1-6-4-8(6)2-3-9-5-7(8)9/h6-7H,2-5H2,1H3/t6-,7-,8-,9?/m0/s1
