21
gdb 92335	2.0169	1.98071	1.26578	2.2552	77.47	-0.2383	0.0638	0.3021	1073.5799	0.183728	-424.225382	-424.21697	-424.216026	-424.257966	33.203	
C	-0.630801305	 1.5312308531	-0.0719934983	-0.396966
C	 0.0574566994	 0.1821638617	-0.1018541159	 0.164954
O	 1.2807248657	 0.1812654464	-0.8854910911	-0.322154
C	 1.974763164	-0.6038066153	 0.1098672351	 0.133751
C	 3.1851274063	 0.1333609397	 0.6830488002	-0.22716
C	 2.5599819069	 1.1977946804	 1.6010525709	-0.262962
C	 1.3496075993	 0.4679922203	 2.2232755108	 0.128354
O	 0.3337880382	 1.3050652696	 2.7498171131	-0.438159
C	 0.7992289808	-0.4408296617	 1.1109192143	-0.110013
H	 0.0025646741	 2.3109196069	 0.3513205677	 0.124778
H	-0.9052375105	 1.8143015136	-1.0940341002	 0.114188
H	-1.5431636935	 1.4761649274	 0.5290834962	 0.121898
H	-0.6402136111	-0.5598334195	-0.5205761521	 0.069032
H	 2.199454321	-1.6110313565	-0.2597043228	 0.064841
H	 3.7984815132	-0.5699308029	 1.2602174328	 0.095489
H	 3.8134496438	 0.5524709782	-0.1077287294	 0.111635
H	 3.2539553685	 1.5781916469	 2.3572638654	 0.085813
H	 2.2080103829	 2.0473703269	 1.0089261919	 0.121261
H	 1.7281018501	-0.199265512	 3.0168853165	 0.066528
H	 0.7204280675	 1.8349378761	 3.4538354114	 0.283201
H	 0.3286206584	-1.3383388594	 1.5134066838	 0.071692
105.1878	180.7368	204.2453	229.8418	269.3725	298.5426	361.356	389.9272	439.4534	512.8364	600.0547	644.9718	731.7364	811.8938	848.2794	860.8572	901.7415	922.6215	927.1938	969.8707	1015.8194	1040.5372	1064.1465	1097.844	1103.2179	1135.9506	1160.6411	1176.2415	1198.124	1213.3991	1252.6329	1279.3292	1303.8836	1314.7642	1331.3478	1352.4614	1355.1152	1385.3418	1398.4302	1413.1442	1437.9774	1471.8136	1480.502	1487.5237	1497.4448	2943.0066	2971.7481	3027.3224	3042.1619	3044.0584	3054.8276	3094.32	3102.0071	3107.3735	3110.5612	3151.5823	3820.083
CC1OC2CCC(O)C12	C[C@H]1O[C@H]2CC[C@@H](O)[C@@H]12	
InChI=1S/C7H12O2/c1-4-7-5(8)2-3-6(7)9-4/h4-8H,2-3H2,1H3	InChI=1S/C7H12O2/c1-4-7-5(8)2-3-6(7)9-4/h4-8H,2-3H2,1H3/t4-,5-,6+,7-/m1/s1
