15
gdb 24491	3.9652	1.64678	1.17192	3.4255	79.76	-0.2448	-0.0491	0.1957	979.815	0.117039	-379.74552	-379.739414	-379.73847	-379.77587	24.557	
C	-0.0506758175	 1.5236344737	 0.010633761	-0.404625
C	 1.4182675496	 1.8857594124	-0.0010751087	-0.077249
C	 2.195438716	 0.7885666931	-0.0146947294	-0.16233
C	 1.3373078229	-0.3972694514	-0.0134691293	 0.317599
N	 1.7109805266	-1.6757109414	-0.0243345933	-0.346157
C	 0.6894930641	-2.5427702488	-0.0196976603	 0.057589
N	-0.6156757044	-2.2717370304	-0.0059265607	-0.263834
C	-0.9635277078	-0.9734279445	 0.0048143922	-0.091821
C	-0.0074772463	 0.0197480448	 0.001565787	 0.225697
H	-0.5615173056	 1.9271646052	 0.8951732069	 0.141206
H	-0.5780037779	 1.937275215	-0.8594414561	 0.141206
H	 1.7654588724	 2.9111672961	 0.001569814	 0.115283
H	 3.2762568318	 0.7506055074	-0.0250611505	 0.11872
H	 0.9589924392	-3.596452316	-0.0284004461	 0.115599
H	-2.0301980929	-0.7569784851	 0.0160706533	 0.113116
190.5853	219.2223	395.9271	408.7157	411.3137	557.6451	597.4338	630.2406	734.6599	754.7667	827.4182	851.0957	894.8898	927.3627	949.3989	970.3127	982.236	1014.5176	1084.8102	1134.9736	1145.7858	1191.2093	1240.4894	1254.3517	1282.7308	1327.7629	1380.2841	1422.5907	1433.1721	1474.4373	1584.1604	1627.4777	1632.8204	3025.5156	3052.0743	3144.8588	3162.8226	3214.5421	3239.6102
C1C=CC2=NC=NC=C12	C1C=Cc2ncncc12	
InChI=1S/C7H6N2/c1-2-6-4-8-5-9-7(6)3-1/h1,3-5H,2H2	InChI=1S/C7H6N2/c1-2-6-4-8-5-9-7(6)3-1/h1,3-5H,2H2
