17
gdb 52443	4.755	0.58982	0.55136	2.0944	72.1	-0.2594	-0.0013	0.2581	1904.3392	0.134772	-455.164947	-455.155083	-455.154139	-455.202157	32.836	
O	 0.0326581382	 0.5516510014	-1.0240771051	-0.321949
C	 0.0569620284	 1.2812086508	-0.0555019305	 0.156791
N	 1.1501827229	 1.5208713581	 0.7181329986	-0.270301
C	 2.4508403476	 0.9443236971	 0.440097734	-0.174346
C	 3.4915379782	 2.0122788919	 0.1415530597	-0.062861
O	 3.5883468454	 2.8415636352	 1.2928703323	-0.248457
C	 4.4821405548	 3.9130269256	 1.1215887695	-0.182734
C	 4.4861247224	 4.7322700067	 2.3371193649	 0.263226
N	 4.5034727232	 5.3940403226	 3.282728873	-0.287005
H	-0.8308327376	 1.8345142037	 0.3078964065	 0.080476
H	 1.0796243488	 2.1791127165	 1.4777468226	 0.259885
H	 2.7891248393	 0.3418363664	 1.2915122339	 0.125589
H	 2.3300921572	 0.2870880004	-0.4236704993	 0.155861
H	 4.4643531734	 1.5456391781	-0.0794487332	 0.104071
H	 3.1885251858	 2.6096897238	-0.7320427164	 0.111523
H	 5.5079937949	 3.5585124526	 0.9308516923	 0.14508
H	 4.1944998773	 4.5493760691	 0.2688815072	 0.14515
31.0176	38.9295	81.9949	116.8238	146.0694	220.6165	256.8402	307.0232	367.0835	384.9398	511.8521	555.1761	580.1351	752.5629	860.1754	916.5383	959.6888	1030.0307	1034.3496	1049.0668	1083.4521	1129.8295	1152.2337	1214.936	1248.8822	1259.9565	1294.0834	1376.6403	1397.4227	1429.3366	1442.7246	1475.5998	1492.0787	1516.3907	1529.9874	1805.2474	2375.2277	2945.9429	2973.4076	2981.1826	3001.3621	3016.76	3044.4719	3127.2861	3642.6573
O=CNCCOCC#N	O=CNCCOCC#N	
InChI=1S/C5H8N2O2/c6-1-3-9-4-2-7-5-8/h5H,2-4H2,(H,7,8)	InChI=1S/C5H8N2O2/c6-1-3-9-4-2-7-5-8/h5H,2-4H2,(H,7,8)
