23
gdb 68481	2.63347	1.59802	1.23781	1.3307	84.69	-0.2363	0.0791	0.3155	1117.801	0.20809	-388.290105	-388.282042	-388.281097	-388.321848	33.782	
C	-0.0965008061	 1.6294644217	 0.16474024	-0.464623
C	 0.0216391772	 0.1131607692	 0.061506914	 0.337291
C	 1.1349216023	-0.4271785635	-0.8927973163	-0.290764
C	 1.4754954364	-1.5139820746	 0.1619505741	 0.132387
C	 0.767277217	-0.6212614976	 1.2224400606	-0.278167
O	 0.903637967	-2.7944299162	-0.0324414059	-0.266887
C	-0.3537779923	-2.8750186054	-0.683565945	-0.064571
C	-1.4706620578	-2.0374430614	-0.0531726985	-0.229304
C	-1.3519595775	-0.5141049993	-0.2491980632	-0.237812
H	 0.8807360826	 2.0920885848	 0.3400913962	 0.106055
H	-0.5082974035	 2.0595083577	-0.7564358177	 0.111255
H	-0.7581946665	 1.9209850826	 0.988884369	 0.111963
H	 0.8519866833	-0.7456524075	-1.899162474	 0.097223
H	 1.9607452517	 0.285175652	-0.9782519167	 0.094243
H	 2.5367241032	-1.7088748349	 0.3345072458	 0.076652
H	 1.4853786569	 0.0422385965	 1.7147248463	 0.090289
H	 0.178520593	-1.1304551887	 1.9889008626	 0.097038
H	-0.25793795	-2.6240084406	-1.7518791654	 0.086888
H	-0.6191916968	-3.9357102971	-0.6296222838	 0.103861
H	-2.4221119195	-2.3693130083	-0.4870348153	 0.094456
H	-1.5202794316	-2.2810775322	 1.0142355518	 0.107237
H	-2.1121471639	-0.0313479611	 0.378184922	 0.092242
H	-1.6117207754	-0.2613460962	-1.2868172005	 0.09305
200.3822	214.2126	243.018	268.2996	330.3813	350.5541	383.9949	393.1837	438.8775	491.8708	545.6538	634.7056	772.9163	800.3165	822.7372	848.151	880.4753	907.72	913.4363	929.2453	977.1107	989.7921	1006.1258	1051.0085	1071.8711	1091.8081	1101.4464	1159.2509	1183.0446	1207.7051	1217.0286	1245.676	1262.0562	1280.	1291.0507	1302.8337	1318.5767	1380.5164	1384.2662	1394.6418	1413.2804	1420.1454	1459.7914	1479.2339	1481.2812	1495.3775	1496.8837	1499.1626	1514.4379	2981.0741	3004.6757	3018.0175	3029.1481	3043.4037	3049.6663	3054.9753	3070.7972	3074.4444	3078.3401	3081.6266	3090.4698	3107.1325	3111.5997
CC12CC(C1)OCCC2	C[C@@]12C[C@@H](C1)OCCC2	
InChI=1S/C8H14O/c1-8-3-2-4-9-7(5-8)6-8/h7H,2-6H2,1H3	InChI=1S/C8H14O/c1-8-3-2-4-9-7(5-8)6-8/h7H,2-6H2,1H3/t7-,8+
