15
gdb 20918	5.29754	1.41867	1.20553	2.5814	64.25	-0.2295	-0.0108	0.2188	997.9353	0.120775	-392.158144	-392.150561	-392.149617	-392.190501	27.234	
C	-0.0871720843	 1.5213766516	-0.1177520887	-0.380692
C	-0.0691892313	 0.0030683562	 0.0513395223	-0.13228
N	-1.4058811775	-0.5704241028	 0.0239423312	 0.148473
N	-1.9779109422	-1.1046375993	 1.0835287983	-0.127851
N	-3.1762759995	-1.4916265252	 0.7086691973	-0.279579
C	-3.2761739558	-1.1569835248	-0.6030132408	 0.45433
N	-4.4202560523	-1.3551630908	-1.339548771	-0.576025
N	-2.1747913308	-0.5740810143	-1.0719268463	-0.334611
H	 0.9368752736	 1.9052310863	-0.1037640575	 0.126424
H	-0.5495769033	 1.7963805385	-1.0684759039	 0.148966
H	-0.6467004923	 1.9954107177	 0.6932087878	 0.138527
H	 0.5113555179	-0.4711568312	-0.745428486	 0.136131
H	 0.3538015645	-0.2912468962	 1.0134589774	 0.148974
H	-5.010613492	-2.0852917401	-0.9692608919	 0.265966
H	-4.2673741747	-1.4317808558	-2.3338541881	 0.263248
54.6939	119.2464	207.4151	285.6527	299.9186	336.4221	422.0568	465.4806	601.8891	646.9596	697.3695	779.0285	793.6402	807.4108	982.587	1032.3444	1085.0579	1098.6261	1114.5518	1126.0993	1250.8069	1261.5066	1374.7666	1388.045	1401.9624	1413.2123	1477.3519	1482.3363	1488.5082	1506.4623	1582.2922	1653.7458	3050.7415	3067.6541	3122.9538	3126.9109	3145.4819	3578.8133	3684.3094
CCN1N=NC(N)=N1	CCn1nnc(N)n1	
InChI=1S/C3H7N5/c1-2-8-6-3(4)5-7-8/h2H2,1H3,(H2,4,6)	InChI=1S/C3H7N5/c1-2-8-6-3(4)5-7-8/h2H2,1H3,(H2,4,6)
