25
gdb 115299	3.81274	0.8837	0.75901	0.2352	96.01	-0.225	0.0364	0.2614	1623.1067	0.229837	-352.393765	-352.383937	-352.382993	-352.428186	37.849	
C	-0.1155432448	 1.5573509103	-0.102978469	-0.390236
C	-0.0156262192	 0.0311377965	-0.0107134232	-0.181715
C	 0.7465431489	-0.491306735	 1.216634113	 0.043942
C	 0.6916935202	-2.0233580768	 1.302702005	-0.207965
C	 1.3324261774	-2.5419084195	 2.5954929032	-0.302682
C	 2.6598057304	-1.8832272178	 2.8995859748	 0.330173
C	 3.5089216183	-2.5525597193	 3.9457053913	-0.473952
C	 3.0407036937	-0.7671294029	 2.2734832261	-0.152402
C	 2.2159173675	-0.0337893334	 1.2473828763	-0.246172
H	 0.8676405906	 2.0253046147	-0.212138507	 0.118334
H	-0.7193155381	 1.8591743869	-0.9646656634	 0.109886
H	-0.5847687444	 1.9775890911	 0.7939926434	 0.112053
H	-1.0286636322	-0.3919616819	 0.0035468144	 0.088444
H	 0.461778976	-0.3604002708	-0.920085791	 0.090307
H	 0.2548420562	-0.0905136864	 2.1166529363	 0.065803
H	-0.3456337952	-2.3712779774	 1.2317904284	 0.085826
H	 1.2228968172	-2.4463002587	 0.4388289654	 0.093357
H	 0.6500634379	-2.3851548207	 3.4453686208	 0.101787
H	 1.4703330512	-3.6301985856	 2.5367741394	 0.094753
H	 3.7741445973	-3.5757923597	 3.6484633858	 0.118035
H	 4.4347578063	-2.0012414766	 4.1319082479	 0.116222
H	 2.9684409251	-2.6393206355	 4.8978449727	 0.118251
H	 4.0113422022	-0.334238908	 2.5107691282	 0.069702
H	 2.6624451544	-0.1683653972	 0.2484362497	 0.098007
H	 2.2738115031	 1.0440322738	 1.4444201214	 0.100245
78.3041	102.8699	178.7768	190.8131	200.1687	248.802	278.0533	317.8917	366.0655	417.8565	445.2908	454.5888	524.7175	658.237	758.4008	775.7265	822.0147	823.7627	917.9998	930.0904	933.7257	972.0075	1007.9871	1025.5269	1053.8235	1054.8377	1082.0343	1103.7318	1130.1761	1155.4004	1172.8023	1181.8134	1242.6242	1266.0853	1300.7394	1320.0637	1332.7349	1342.6429	1374.4647	1383.3076	1392.9836	1404.4494	1412.4858	1414.553	1474.1206	1479.2035	1480.493	1485.2193	1492.8798	1496.8272	1502.2625	1508.3307	1744.1791	2972.0039	2984.8203	2988.2359	3006.1073	3010.059	3013.0786	3029.0347	3031.538	3037.2334	3042.3812	3053.8394	3059.1427	3096.6997	3105.8864	3106.8545	3134.7708
CCC1CCC(C)=CC1	CC[C@H]1CCC(=CC1)C	
InChI=1S/C9H16/c1-3-9-6-4-8(2)5-7-9/h4,9H,3,5-7H2,1-2H3	InChI=1S/C9H16/c1-3-9-6-4-8(2)5-7-9/h4,9H,3,5-7H2,1-2H3/t9-/m1/s1
