17
gdb 129885	4.61648	1.03488	0.90796	4.2102	76.94	-0.2064	0.0066	0.213	1283.7391	0.137743	-414.166191	-414.158148	-414.157203	-414.199418	30.315	
N	 0.1432075349	 1.3911202242	-0.2510454835	-0.592773
C	-0.0104422358	 0.0156731741	-0.0904248328	 0.321745
C	-1.0538867758	-0.8113206857	-0.455483758	-0.191959
N	-0.6153970482	-2.056831596	-0.1178638984	 0.071327
N	 0.6134658349	-2.0047421986	 0.4093681328	-0.156379
N	 0.9833780356	-0.7477029863	 0.4342592608	-0.260164
C	-1.257404145	-3.3313588464	-0.2507237241	 0.097717
C	-2.7442572828	-3.471151728	-0.0731634807	-0.2871
C	-2.1225924743	-3.6412046324	-1.4414594961	-0.28592
H	 0.9319054904	 1.7250594861	 0.2887341332	 0.255222
H	-0.6860941156	 1.9240946097	-0.0266523822	 0.246118
H	-2.0117687803	-0.6247271671	-0.9077800324	 0.133496
H	-0.6058208239	-4.101529654	 0.1403139826	 0.130531
H	-3.1090533089	-4.3466857756	 0.4516958306	 0.130288
H	-3.3135243513	-2.5676295011	 0.1142946958	 0.127339
H	-2.2752954412	-2.8506501653	-2.1676354498	 0.129948
H	-2.0551656527	-4.6350290477	-1.8690616178	 0.130563
46.554	124.819	166.4255	224.3501	309.9972	359.2845	445.8272	450.7091	594.1444	659.1856	693.5872	710.1376	739.9287	775.3563	792.4255	816.3024	918.305	946.5886	1037.5655	1051.269	1061.7396	1074.0027	1087.0029	1119.2649	1128.5227	1154.8046	1195.6445	1224.8566	1281.3819	1290.48	1393.056	1437.8003	1463.8642	1498.8485	1506.6605	1615.4303	1650.3729	3139.5704	3142.3185	3209.2316	3220.6976	3235.5713	3288.4753	3542.9369	3636.8092
NC1=CN(N=N1)C1CC1	Nc1cn(nn1)C1CC1	
InChI=1S/C5H8N4/c6-5-3-9(8-7-5)4-1-2-4/h3-4H,1-2,6H2	InChI=1S/C5H8N4/c6-5-3-9(8-7-5)4-1-2-4/h3-4H,1-2,6H2
