18
gdb 108415	2.58668	1.33032	1.12323	1.6848	73.6	-0.2464	-0.0384	0.208	1142.7202	0.146591	-439.034421	-439.025564	-439.024619	-439.068499	32.213	
O	 0.0226207175	 1.3590433852	-0.4134619756	-0.407657
C	-0.0824699392	 0.065082529	 0.161527189	-0.173659
C	-1.4764652872	-0.4976933923	 0.072145308	 0.293542
C	-2.6157391763	-0.2390243727	 1.0657866972	-0.318339
C	-2.9183972189	-1.7521714418	 0.951625802	-0.142948
N	-1.7627673183	-1.9683595073	-0.0019401473	-0.190798
C	-1.9670072121	-1.1100049512	-1.2067964837	-0.124337
C	-3.2554126354	-0.7617994182	-1.8622588667	 0.141786
O	-4.3400299687	-0.6597060336	-1.3355551659	-0.275969
H	-0.5002262259	 1.9663230508	 0.1198413777	 0.288756
H	 0.6023004379	-0.5787853727	-0.3987459703	 0.125452
H	 0.2489285133	 0.0624733293	 1.2117813972	 0.095476
H	-2.2459335807	 0.0575300369	 2.0503722542	 0.107444
H	-3.403499645	 0.4457536106	 0.7489998418	 0.12989
H	-2.7081902212	-2.3132562199	 1.8639440245	 0.113883
H	-3.8902199687	-2.0348033682	 0.552412936	 0.14129
H	-1.1757002339	-1.2950992262	-1.9289675237	 0.107711
H	-3.1390191474	-0.5704029578	-2.9526495944	 0.088476
58.0111	94.0456	134.9707	210.2416	249.3667	269.2919	328.6117	351.0557	377.5749	455.5708	672.7361	693.0353	764.2859	803.8016	844.9677	867.3668	913.1576	938.4065	976.2484	1006.8959	1044.5358	1056.5709	1093.7991	1108.5752	1169.3281	1181.8776	1220.27	1246.3806	1283.2777	1312.6591	1333.537	1375.9999	1400.2168	1432.3032	1440.3797	1477.3238	1494.7273	1500.0305	1799.6619	2879.3837	2984.2187	3070.7912	3086.6581	3086.9616	3128.4377	3147.0183	3163.8192	3817.7027
OCC12CCN1C2C=O	OC[C@]12CCN1[C@H]2C=O	
InChI=1S/C6H9NO2/c8-3-5-6(4-9)1-2-7(5)6/h3,5,9H,1-2,4H2	InChI=1S/C6H9NO2/c8-3-5-6(4-9)1-2-7(5)6/h3,5,9H,1-2,4H2/t5-,6-,7?/m0/s1
