19
gdb 71847	2.75482	1.95408	1.67725	1.48	78.66	-0.2304	0.0057	0.2361	910.3506	0.160883	-385.859976	-385.853041	-385.852096	-385.890679	29.435	
C	 0.0512123606	 1.5158249363	-0.0900033185	-0.497905
C	-0.0847423707	 0.0205008177	-0.0404477846	 0.482253
O	 0.3258377111	-0.6447489803	-1.2282239294	-0.327481
C	-0.511201143	-1.7903374896	-0.8170013141	 0.036126
C	 0.408740103	-2.6878513727	-0.036003251	-0.079394
C	 0.9595268488	-2.0750756603	 1.016271942	-0.048046
C	 0.3739665435	-0.7275911534	 1.3333224811	-0.173216
C	-1.1507122584	-0.9682821075	 1.6045896056	-0.23415
C	-1.3716064698	-0.8235487984	 0.0979658732	-0.126685
H	 1.1063642531	 1.7952060159	-0.1856198142	 0.131361
H	-0.4901446032	 1.924867139	-0.9482767573	 0.125936
H	-0.3393584522	 1.9740180273	 0.8238204346	 0.119827
H	-1.0062115537	-2.248664354	-1.6737055672	 0.073575
H	 0.6702020952	-3.6799375293	-0.3842492366	 0.094465
H	 1.7347607254	-2.5104348659	 1.6379764575	 0.095559
H	 0.9401274297	-0.1453363365	 2.0609748522	 0.061429
H	-1.4177224069	-1.9034836795	 2.1022674504	 0.096954
H	-1.6099513708	-0.1254212343	 2.1308407423	 0.100125
H	-2.3369393718	-0.5342023941	-0.320777926	 0.069265
202.0357	217.5587	272.1918	367.5532	398.1134	435.9397	522.1851	583.7601	630.3039	696.4592	720.9978	741.6804	787.3642	816.0156	860.7929	886.056	919.4881	947.1713	960.0353	962.9332	980.4252	1039.3772	1059.7013	1080.073	1115.5201	1147.855	1159.9249	1161.4993	1167.8033	1227.8016	1270.8095	1285.9286	1304.6617	1326.1612	1354.9105	1384.2805	1410.7305	1476.7237	1484.3464	1490.5525	1666.8683	3034.1182	3049.2072	3093.4421	3101.4765	3103.0771	3108.3373	3109.4965	3114.4149	3176.0843	3205.1002
CC12OC3C=CC1CC23	C[C@@]12O[C@H]3C=C[C@@H]1C[C@@H]23	
InChI=1S/C8H10O/c1-8-5-2-3-7(9-8)6(8)4-5/h2-3,5-7H,4H2,1H3	InChI=1S/C8H10O/c1-8-5-2-3-7(9-8)6(8)4-5/h2-3,5-7H,4H2,1H3/t5-,6-,7+,8-/m1/s1
