18
gdb 14780	10.10633	0.5897	0.57834	4.8037	67.47	-0.2656	0.0077	0.2733	1866.9837	0.151252	-422.084671	-422.074998	-422.074054	-422.121015	31.57	
C	 0.0709456779	 1.2149107538	-0.215222809	-0.230801
O	-0.0599871054	-0.1850473781	-0.1418006933	-0.228028
C	-1.3773307819	-0.5997346647	 0.1307745919	-0.052735
C	-1.3928449784	-2.1226945778	 0.1911794691	-0.204227
C	-2.7850475411	-2.6729045637	 0.4756942879	-0.089606
O	-2.7398229534	-4.0974318273	 0.6271715911	-0.173248
C	-3.2267914782	-4.8563934952	-0.371494614	 0.171664
O	-3.2023209606	-6.0495029039	-0.3500624971	-0.272578
H	 1.119718115	 1.4336885069	-0.4286484159	 0.131795
H	-0.5521513345	 1.6424240404	-1.016866825	 0.104963
H	-0.2086365163	 1.7019751914	 0.7324505567	 0.105721
H	-1.7277304585	-0.1721556183	 1.087242597	 0.088332
H	-2.066581748	-0.2346460977	-0.6520479862	 0.085458
H	-1.0239526108	-2.5231020149	-0.7595913263	 0.118839
H	-0.7037393114	-2.4606519042	 0.9715491479	 0.130978
H	-3.1831428409	-2.2788824984	 1.4160114682	 0.127526
H	-3.4887723047	-2.4055316237	-0.324285242	 0.111341
H	-3.6536191889	-4.2535636047	-1.198316531	 0.074604
34.6247	56.7541	93.3317	118.7391	132.1229	177.2313	234.0914	309.7821	344.5563	393.3797	505.1429	676.8252	770.006	880.9413	978.0967	1037.1917	1046.6279	1059.53	1085.0065	1134.2227	1167.7011	1177.6448	1209.3165	1226.661	1263.389	1298.5067	1306.9832	1333.1581	1409.979	1430.7408	1437.114	1482.4102	1486.0088	1494.5255	1503.1806	1512.2068	1533.9556	1868.691	2934.5155	2935.9172	2960.1772	2970.6019	3013.8749	3016.5796	3050.2867	3077.4162	3104.2042	3117.9005
COCCCOC=O	COCCCOC=O	
InChI=1S/C5H10O3/c1-7-3-2-4-8-5-6/h5H,2-4H2,1H3	InChI=1S/C5H10O3/c1-7-3-2-4-8-5-6/h5H,2-4H2,1H3
