19
gdb 84364	2.59843	1.44099	1.19311	1.8536	72.63	-0.2549	-0.0021	0.2528	1103.8456	0.157684	-460.164241	-460.154831	-460.153887	-460.198184	35.791	
C	 0.0593682655	 1.5916651685	-0.0139639794	-0.4299
C	 0.0563372843	 0.0658457523	-0.0042695933	 0.321536
O	-1.2951709109	-0.4290594932	 0.0302556214	-0.473703
C	 0.8059934126	-0.5609672989	-1.1668949006	-0.103954
C	 1.5443619959	-1.6041816858	-0.7985007585	-0.137663
C	 1.4822539508	-1.8450021761	 0.688691089	 0.071477
O	 2.7580369188	-2.025472547	 1.2984454586	-0.444749
C	 0.7394227938	-0.5763242928	 1.2323092928	 0.059871
O	 1.6763694497	 0.3294164961	 1.7851216618	-0.442625
H	 1.0776763066	 1.9825422106	 0.0282598765	 0.134262
H	-0.4179640151	 1.9594116428	-0.9303769966	 0.094429
H	-0.4979923839	 1.9781104512	 0.8431712125	 0.127926
H	-1.7191573299	-0.1822800565	-0.7986234234	 0.27448
H	 0.681379341	-0.2028527925	-2.1848211105	 0.094734
H	 2.124196677	-2.2437772739	-1.4557339239	 0.10472
H	 0.9259718262	-2.7581882358	 0.9259392725	 0.10532
H	 3.3271849799	-1.3299096142	 0.9478442815	 0.281171
H	-0.0327604058	-0.8371794	 1.9663470369	 0.078329
H	 2.2164603034	-0.1933024048	 2.3908538227	 0.284337
51.6462	144.5274	197.609	222.4948	230.3344	265.9825	326.7704	335.8336	347.1227	399.5735	475.5964	535.5495	587.3478	620.3265	667.1706	754.9311	821.778	841.8483	849.0957	929.9599	941.0193	984.6498	1011.3459	1073.6424	1093.7201	1107.5279	1139.894	1166.0389	1190.8353	1249.1444	1263.0765	1305.7168	1328.3659	1357.9207	1372.625	1402.3999	1418.079	1438.4658	1484.0131	1491.4156	1685.279	3027.408	3032.7749	3057.5457	3107.1192	3139.7854	3167.6464	3197.323	3775.9119	3790.1017	3808.9757
CC1(O)C=CC(O)C1O	C[C@@]1(O)C=C[C@@H](O)[C@H]1O	
InChI=1S/C6H10O3/c1-6(9)3-2-4(7)5(6)8/h2-5,7-9H,1H3	InChI=1S/C6H10O3/c1-6(9)3-2-4(7)5(6)8/h2-5,7-9H,1H3/t4-,5-,6-/m1/s1
