19
gdb 115073	3.1618	1.26585	0.99549	1.2214	76.04	-0.2379	0.0036	0.2414	1196.9374	0.160094	-423.013504	-423.005253	-423.004309	-423.046452	31.64	
O	 0.0432952401	 1.3722243341	-0.0752266481	-0.424776
C	 0.0358129036	-0.0475927375	-0.0572936963	-0.091552
C	-1.4170289936	-0.5141670561	 0.0198040626	-0.01639
C	-2.2349053809	-0.0211401145	-1.1953281323	-0.260062
C	-3.5798724861	-0.686493279	-1.3117995584	-0.09589
C	-3.7930821058	-1.9365570538	-0.8972045309	-0.041049
C	-2.7019199621	-2.7252475846	-0.2750916305	-0.008371
O	-1.4478635002	-2.8145213526	-0.9994713221	-0.262452
C	-1.4945434727	-2.0185263639	 0.1834306401	 0.036081
H	 0.9498765625	 1.6684319004	-0.196179374	 0.28836
H	 0.5020053866	-0.4645238266	-0.9641727236	 0.099964
H	 0.5946057961	-0.4355403251	 0.8101058655	 0.08387
H	-1.8522630556	-0.0794219133	 0.9315909184	 0.088605
H	-2.3392991824	 1.0648621833	-1.1373435521	 0.121141
H	-1.6589690573	-0.2227471559	-2.1090469012	 0.123818
H	-4.3832039149	-0.1238628357	-1.7797368416	 0.0948
H	-4.7647947038	-2.4091878148	-1.0003452113	 0.088714
H	-2.9788401126	-3.656875577	 0.2141986531	 0.090309
H	-0.9393284008	-2.4328490773	 1.0277159127	 0.08488
82.4659	125.6164	188.3551	248.5763	266.1006	314.1883	360.8135	458.5736	509.0428	522.1778	661.3349	712.0703	727.9101	818.3874	862.3377	881.4339	950.4817	957.1578	962.2666	984.4454	1041.7037	1058.7092	1077.9796	1094.766	1132.2675	1144.9949	1191.3525	1215.8425	1242.1282	1266.9006	1285.7867	1320.0831	1336.564	1365.044	1386.1018	1419.9215	1456.6764	1461.1077	1474.4519	1522.0595	1707.6272	2962.8722	2991.7369	3009.915	3021.9361	3085.5274	3097.6192	3130.8867	3158.6385	3184.827	3833.4861
OCC1CC=CC2OC12	OC[C@H]1CC=C[C@H]2O[C@@H]12	
InChI=1S/C7H10O2/c8-4-5-2-1-3-6-7(5)9-6/h1,3,5-8H,2,4H2	InChI=1S/C7H10O2/c8-4-5-2-1-3-6-7(5)9-6/h1,3,5-8H,2,4H2/t5-,6-,7+/m1/s1
