18
gdb 36239	4.30183	1.1464	1.07501	2.1359	80.31	-0.2259	0.054	0.2799	1156.3377	0.147769	-364.693549	-364.685891	-364.684946	-364.726127	30.277	
C	 0.0054333735	-1.1724128976	 0.2307379641	-0.452903
C	-0.0226345848	 0.0153470854	 0.0509259999	 0.322827
C	-0.0411200257	 1.4567392228	-0.1668310886	-0.399772
C	 1.3444250517	 2.1038629492	-0.051172932	 0.070343
C	 1.5038964305	 3.6126505878	 0.0218540002	-0.117575
C	 1.4133577571	 3.9803528335	 1.520741897	-0.088009
C	 1.206336086	 2.6717081992	 2.2617284511	-0.180518
N	 2.1196525065	 1.9918716401	 1.2593142693	-0.174339
C	 2.6691581143	 3.4037738	 0.9391981515	-0.027444
H	 0.0311455183	-2.2209840812	 0.3945313654	 0.195179
H	-0.4177448906	 1.6725198787	-1.1759938297	 0.130826
H	-0.7497429461	 1.9312544489	 0.5204347132	 0.131378
H	 1.9965899819	 1.6823137487	-0.8219697768	 0.092923
H	 1.3839191261	 4.3649514081	-0.7485001399	 0.09004
H	 1.2265818241	 5.0009040083	 1.8317833513	 0.091441
H	 1.7038884279	 2.6664963197	 3.2348254868	 0.111744
H	 0.2088883585	 2.234669431	 2.3668420716	 0.102351
H	 3.7107844011	 3.6890314673	 0.9226438256	 0.101509
50.3799	112.5005	229.6857	292.2259	356.0359	439.4444	491.5334	576.0113	618.8443	635.5187	706.9497	756.1875	795.9947	812.4916	814.1057	858.0397	891.3786	947.0176	969.2834	990.7828	1003.544	1021.0887	1032.9138	1035.211	1065.9153	1100.5023	1125.2776	1168.2814	1184.2488	1223.0044	1244.1616	1274.1544	1299.6946	1320.9754	1363.8859	1406.4862	1468.2939	1521.1614	2240.4912	3022.3409	3050.1418	3058.955	3074.8317	3104.593	3182.6832	3190.7446	3227.1008	3508.0462
C#CCC1C2C3CN1C23	C#CC[C@H]1[C@H]2[C@H]3CN1[C@@H]23	
InChI=1S/C8H9N/c1-2-3-6-7-5-4-9(6)8(5)7/h1,5-8H,3-4H2	InChI=1S/C8H9N/c1-2-3-6-7-5-4-9(6)8(5)7/h1,5-8H,3-4H2/t5-,6+,7-,8-/m1/s1
