19
gdb 111890	2.77153	1.24833	0.96101	2.0587	77.05	-0.2381	0.0007	0.2388	1258.0353	0.158772	-423.011019	-423.00226	-423.001316	-423.04452	32.91	
C	-0.0722282962	 1.5234384757	 0.0571472926	-0.501903
C	-0.0214492542	 0.0309253439	-0.0123809986	 0.325644
C	 0.027887338	-0.749986611	-1.0986003845	-0.204087
C	 0.0586891693	-2.2325883761	-0.7750519774	-0.074944
C	 1.2571779323	-2.9878972457	-1.3793570847	-0.077958
O	 1.2727264191	-2.9487446736	-2.7982110608	-0.421643
C	 0.0755081888	-2.2315744868	 0.753884994	 0.016307
O	 1.2312246298	-1.6099981658	 1.3286908737	-0.258729
C	 0.0127905108	-0.835795592	 1.2120404652	-0.066851
H	 0.805472336	 1.9257834912	 0.5781822762	 0.136609
H	-0.112538791	 1.970474263	-0.9396444174	 0.126009
H	-0.9519694379	 1.8654764518	 0.6168308871	 0.128362
H	 0.065711914	-0.3808648144	-2.118690443	 0.0899
H	-0.8567193897	-2.7210627343	-1.1367747952	 0.088617
H	 2.184140199	-2.5885434797	-0.9485289005	 0.110235
H	 1.1926963307	-4.047513451	-1.1096798218	 0.108956
H	 1.5737406229	-2.075044015	-3.0645344323	 0.284984
H	-0.3289830922	-3.0679826315	 1.3178881576	 0.096406
H	-0.4208697896	-0.5220748687	 2.1577379198	 0.094084
87.8505	140.6346	154.2394	183.0819	222.0413	304.2608	317.4886	354.3754	475.2728	488.653	594.2919	606.1542	751.7701	813.3528	861.0013	864.4993	867.6427	904.538	955.6745	1012.9197	1019.0647	1061.7694	1066.5561	1070.5758	1090.834	1110.1385	1187.2008	1193.2724	1253.37	1274.492	1289.8679	1322.5321	1364.1936	1388.0973	1404.4802	1414.3652	1421.5363	1478.6029	1488.7724	1507.0927	1701.851	3013.3119	3019.6981	3025.2953	3066.9195	3078.8105	3112.9473	3143.6046	3156.7607	3178.7487	3828.4506
CC1=CC(CO)C2OC12	CC1=C[C@@H](CO)[C@H]2O[C@@H]12	
InChI=1S/C7H10O2/c1-4-2-5(3-8)7-6(4)9-7/h2,5-8H,3H2,1H3	InChI=1S/C7H10O2/c1-4-2-5(3-8)7-6(4)9-7/h2,5-8H,3H2,1H3/t5-,6-,7+/m0/s1
