14
gdb 128979	3.95339	1.73519	1.20591	4.5015	80.61	-0.2091	-0.0584	0.1507	938.9256	0.106235	-395.769079	-395.76322	-395.762275	-395.799126	24.037	
N	 0.0043581965	 1.2697401193	 0.0094137174	-0.199895
C	 1.1232791077	 2.039407546	 0.0023759794	 0.017444
C	 2.3728918927	 1.4635735099	-0.013218104	-0.252036
C	 2.420486481	 0.0659247671	-0.021222476	 0.313241
N	 3.4415136026	-0.7780058702	-0.0359994674	-0.363
C	 2.8532124954	-2.0271097688	-0.0368245932	-0.02742
C	 1.4696563718	-2.0275318911	-0.0229562481	-0.270359
C	 1.1237680454	-0.6546189387	-0.0121430384	 0.320673
N	-0.0549899356	-0.0620042768	 0.0028337328	-0.299968
H	-0.9031747799	 1.7106630936	 0.0208604973	 0.285839
H	 0.9466706192	 3.1068920309	 0.0098880522	 0.139627
H	 3.2658368909	 2.0759773377	-0.0188520146	 0.127945
H	 3.4902868209	-2.9040931627	-0.0479160971	 0.104263
H	 0.8007600114	-2.873019596	-0.0207896504	 0.103647
232.8604	247.15	429.5465	446.18	568.5825	580.401	609.3622	609.575	688.4922	756.9604	766.0698	794.8833	840.8184	880.7514	927.4103	940.6963	949.5131	1032.6127	1072.6768	1111.7625	1142.3849	1232.475	1301.1404	1356.1392	1394.4437	1407.0146	1462.3136	1514.4703	1576.112	1598.7678	1625.7962	3204.3484	3211.482	3228.2628	3265.1379	3625.0805
N1C=CC2=NC=CC2=N1	[nH]1ccc2nccc2n1	
InChI=1S/C6H5N3/c1-3-7-5-2-4-8-9-6(1)5/h1-4,8H	InChI=1S/C6H5N3/c1-3-7-5-2-4-8-9-6(1)5/h1-4,8H
