19
gdb 73473	2.77753	1.79548	1.5304	0.9487	72.93	-0.2147	0.0767	0.2914	940.9554	0.162112	-423.028563	-423.021505	-423.020561	-423.059558	29.512	
O	-0.0133489179	 1.3687481625	 0.0828187345	-0.475031
C	 0.0433433714	-0.030683921	 0.0488638801	 0.353155
C	 1.1508185735	-0.6311487994	-0.8017320374	-0.281654
C	 1.1748599966	-2.1833157052	-0.6959442903	-0.211187
C	-0.039137666	-2.6711063489	 0.1020640796	 0.064765
C	-1.3443579434	-2.1027637364	-0.4999694835	-0.24127
C	-1.3208370946	-0.6890162606	 0.0562668772	-0.138371
C	-0.425953274	-0.7793133854	 1.2744475158	 0.021625
O	 0.0355259354	-2.1023495688	 1.4210698604	-0.265301
H	 0.757455173	 1.6833061898	 0.5692107431	 0.279343
H	 1.009255885	-0.3026683199	-1.8372373833	 0.109471
H	 2.1124950646	-0.214719456	-0.4775611336	 0.093402
H	 1.1772052711	-2.6441452558	-1.6895639688	 0.097522
H	 2.0788018113	-2.5194269826	-0.1805257552	 0.107676
H	-0.0383965263	-3.7572346296	 0.2155937231	 0.079526
H	-1.3399311521	-2.1563167226	-1.5930380481	 0.102401
H	-2.2225574236	-2.6420150922	-0.1312711128	 0.107242
H	-2.2003100069	-0.0578330524	 0.0405566551	 0.096342
H	-0.6172506272	-0.2759720454	 2.2143141541	 0.100344
144.8374	261.1541	323.9129	344.2732	360.6292	402.4008	463.5371	508.1251	576.4425	668.3386	714.0925	799.0237	825.8752	855.0178	866.4231	905.0288	929.444	943.2357	978.9429	1020.4146	1033.4681	1050.9755	1075.4603	1094.6931	1101.5446	1158.9628	1182.7686	1212.756	1246.1853	1252.1633	1270.5115	1275.6417	1322.3851	1331.3766	1356.3893	1368.0735	1373.925	1444.1018	1480.856	1492.0647	1510.0985	3024.4291	3045.3939	3049.0594	3059.7393	3090.5096	3092.969	3097.459	3189.0712	3198.5724	3786.097
OC12CCC3CC1C2O3	O[C@]12CC[C@@H]3C[C@H]1[C@H]2O3	
InChI=1S/C7H10O2/c8-7-2-1-4-3-5(7)6(7)9-4/h4-6,8H,1-3H2	InChI=1S/C7H10O2/c8-7-2-1-4-3-5(7)6(7)9-4/h4-6,8H,1-3H2/t4-,5+,6-,7-/m1/s1
