13
gdb 43319	2.72493	1.71907	1.21712	5.4677	69.33	-0.2634	-0.0852	0.1781	967.9954	0.090336	-415.610094	-415.603013	-415.602068	-415.641743	26.562	
O	 0.0082277338	-0.0138976488	-0.0575123317	-0.294672
C	-0.0348145486	 1.1855363127	-0.009879339	 0.375837
C	-1.2294137943	 2.0683328924	 0.0923086427	-0.189628
C	-0.877942445	 3.3582218897	 0.0248851913	-0.032882
C	 0.6090455066	 3.5202831613	-0.0581348001	-0.142523
N	 1.2835206981	 2.9867682894	 1.1467749049	-0.33973
C	 1.1728081358	 2.1416859353	-0.0856272431	 0.068324
C	 2.3487220756	 1.7821885466	-0.8162699215	 0.214012
N	 3.3055380764	 1.4909894554	-1.3970056091	-0.331269
H	-2.2253370618	 1.6651949886	 0.2166242251	 0.139697
H	-1.550265942	 4.2058327842	 0.0756418172	 0.139994
H	 1.0645957587	 4.3336448054	-0.6101504256	 0.13476
H	 2.2387373566	 3.3462374178	 1.191489979	 0.258079
117.3647	142.9005	211.0402	310.626	385.404	431.2906	498.5338	572.2757	608.7124	652.8938	714.692	767.1325	825.0423	872.3956	887.1047	917.2859	987.5598	1018.4009	1041.5728	1094.9593	1137.0798	1174.3294	1268.7178	1310.4388	1360.754	1401.2133	1638.6258	1840.4352	2356.4914	3194.9063	3212.5127	3240.4298	3459.9912
O=C1C=CC2NC12C#N	O=C1C=C[C@H]2N[C@@]12C#N	
InChI=1S/C6H4N2O/c7-3-6-4(8-6)1-2-5(6)9/h1-2,4,8H	InChI=1S/C6H4N2O/c7-3-6-4(8-6)1-2-5(6)9/h1-2,4,8H/t4-,6-/m1/s1
