21
gdb 76564	2.80286	1.19811	1.17009	1.3073	85.66	-0.2142	0.0301	0.2444	1209.7319	0.18256	-387.088264	-387.079178	-387.078234	-387.122058	34.709	
C	-0.0625576388	 1.5518313818	 0.0458637727	-0.422156
C	 0.0408975345	 0.0428187001	 0.0542869989	-0.116533
C	 1.3578769568	-0.6478073347	-0.2168195088	 0.023722
O	 2.5270533197	 0.1075772695	-0.3623923926	-0.416907
C	 0.7668202458	-0.694694657	 1.1758163319	 0.309297
C	 1.4359110066	 0.0312080671	 2.3551449079	-0.302888
C	 1.4539482049	-1.0043428393	 3.5178156244	-0.267319
C	 0.6028197434	-2.142280407	 3.0072718383	-0.083032
C	 0.2445109101	-1.9690154928	 1.7356586789	-0.134562
H	 0.8894452217	 2.0168391382	 0.3131703153	 0.129578
H	-0.3474022337	 1.9188733576	-0.9470592845	 0.109462
H	-0.8207538886	 1.9031646354	 0.7541048148	 0.120082
H	-0.8358591437	-0.470206615	-0.336291472	 0.076945
H	 1.3433069262	-1.5696942091	-0.7996140654	 0.079019
H	 2.5022516199	 0.5364035581	-1.2245082716	 0.288912
H	 2.4356342222	 0.3806925454	 2.0917428923	 0.122513
H	 0.8525996235	 0.9117832457	 2.6419890387	 0.100114
H	 2.4726078319	-1.3489715675	 3.7411945538	 0.10735
H	 1.0672219807	-0.5817258568	 4.4528659887	 0.101007
H	 0.3498291306	-3.0034490948	 3.6157541549	 0.088851
H	-0.3476158539	-2.6606248047	 1.1452754634	 0.086544
57.8413	154.9676	172.1931	190.589	205.6879	247.3912	296.1192	383.344	426.191	519.5156	545.3087	585.8385	718.9227	757.1032	793.2068	826.8755	835.9748	871.2037	921.649	965.42	967.7687	998.4854	1029.2417	1047.203	1066.215	1094.353	1123.5977	1148.1458	1164.4962	1182.4968	1227.3402	1252.5725	1269.6283	1294.725	1304.614	1329.2721	1373.5475	1389.2414	1416.2133	1453.9042	1484.2987	1497.8464	1502.2574	1509.6938	1682.9	3015.1236	3029.4401	3040.5901	3057.7045	3083.3557	3085.7258	3114.4722	3114.7061	3129.5123	3175.9762	3202.9822	3799.5489
CC1C(O)C11CCC=C1	C[C@H]1[C@@H](O)[C@]21CCC=C2	
InChI=1S/C8H12O/c1-6-7(9)8(6)4-2-3-5-8/h2,4,6-7,9H,3,5H2,1H3	InChI=1S/C8H12O/c1-6-7(9)8(6)4-2-3-5-8/h2,4,6-7,9H,3,5H2,1H3/t6-,7+,8-/m0/s1
