16
gdb 127854	5.01057	1.08315	0.90061	2.5777	84.09	-0.2271	-0.0644	0.1627	1273.8567	0.123492	-430.188221	-430.179373	-430.178429	-430.223104	30.416	
C	-0.064431041	 1.4123970195	-0.0192731533	-0.334406
N	 0.177479116	-0.0176699375	-0.0593643076	-0.298267
C	 0.7007035673	-0.6075577013	 0.9443926789	 0.347501
C	 0.9426147862	-2.0403017846	 0.9029324499	 0.01042
N	 1.4666774553	-2.6960409091	 1.8814426738	-0.207847
N	 1.7831699912	-1.9500312842	 2.9705519736	 0.108165
C	 2.3766377261	-2.6512716811	 4.0958449043	-0.304514
N	 1.5977356659	-0.6276902346	 3.0980935562	-0.060279
N	 1.0852176543	 0.0419913928	 2.1534753056	-0.270949
H	 0.4660900045	 1.8802848927	-0.8575992804	 0.127021
H	-1.132575022	 1.5912351133	-0.1931100981	 0.12703
H	 0.2341597194	 1.9026355472	 0.9121919773	 0.135825
H	 0.6747859371	-2.6003985403	 0.0120902413	 0.148904
H	 3.3124585759	-3.1267066251	 3.790000978	 0.152524
H	 2.5671874451	-1.915532781	 4.8754848884	 0.166351
H	 1.6907081086	-3.4195114769	 4.4627874422	 0.152522
38.9144	67.418	89.2446	184.7058	213.9962	220.6794	367.6744	442.9069	463.1893	490.1721	579.797	676.2319	769.9232	772.1019	790.5207	960.1343	971.3244	997.2295	1053.1076	1124.3536	1144.7264	1152.9857	1230.8008	1284.773	1334.334	1355.5152	1427.2889	1443.8226	1475.8394	1485.516	1493.5355	1505.8122	1515.0471	1651.0587	1715.3163	3016.3789	3052.5232	3066.3627	3102.1677	3117.7276	3176.882	3184.8749
CN=C1C=NN(C)N=N1	C[N]c1cnn(C)nn1	
InChI=1S/C4H7N5/c1-5-4-3-6-9(2)8-7-4/h3H,1-2H3	InChI=1S/C4H12N5/c1-5-4-3-6-9(2)8-7-4/h4,6-8H,3H2,1-2H3
