21
gdb 81027	2.41413	1.71338	1.31762	1.1694	77.11	-0.2438	0.0817	0.3255	1063.8311	0.183667	-424.227761	-424.219437	-424.218493	-424.259968	33.531	
C	-0.0156710393	 1.539317811	 0.0821868117	-0.463292
C	-0.08687248	 0.0366454405	-0.0469781765	 0.341977
C	 0.81110685	-0.5510120323	-1.1450415036	-0.230513
C	 0.5354336274	-2.0621774663	-1.3366137963	-0.226061
C	 0.079082683	-2.7348308711	-0.0204334822	-0.209159
C	-0.669215941	-1.7153030253	 0.8330531273	 0.042898
O	 0.266544584	-0.657015609	 1.2045244647	-0.349288
C	-1.4703226129	-0.6831517061	 0.008790096	 0.129952
O	-2.4612722539	-0.006650372	 0.7422160723	-0.455184
H	 1.0001913	 1.8463826209	 0.3514140551	 0.125611
H	-0.2796305983	 2.0186499801	-0.865786619	 0.120822
H	-0.7018423742	 1.9046996066	 0.8495346396	 0.114184
H	 0.6643907002	-0.0177280974	-2.0913370127	 0.094525
H	 1.8477091601	-0.3786707937	-0.8338754464	 0.108578
H	-0.2551448111	-2.1839063921	-2.0849952127	 0.106426
H	 1.4156762397	-2.5648802955	-1.7476623475	 0.099818
H	-0.5499520717	-3.6069114048	-0.2327495915	 0.09674
H	 0.9359115785	-3.0858642153	 0.5647911362	 0.11127
H	-1.1689234496	-2.1476812061	 1.7058684666	 0.071226
H	-1.9348926526	-0.9939310701	-0.9291988625	 0.082539
H	-2.0804051684	 0.207962518	 1.6023550015	 0.286933
158.4044	182.7695	201.7368	236.1528	276.9313	341.0782	383.837	418.6048	444.9015	485.9273	522.6894	637.4029	666.1302	822.1213	823.2598	859.0053	867.7866	906.6857	920.0054	938.397	960.7865	1007.3576	1034.1237	1073.9219	1102.7521	1128.1636	1161.527	1199.3283	1208.1488	1224.9083	1251.9112	1263.2293	1284.4808	1325.9393	1338.417	1358.136	1370.0712	1380.8793	1410.7424	1447.2543	1471.5796	1475.4756	1485.0508	1486.0377	1508.0617	3031.1584	3034.0455	3041.1016	3042.6192	3061.6198	3070.2872	3076.4767	3089.2304	3097.7697	3109.9771	3125.3941	3788.6892
CC12CCCC(O1)C2O	C[C@@]12CCC[C@@H](O1)[C@H]2O	
InChI=1S/C7H12O2/c1-7-4-2-3-5(9-7)6(7)8/h5-6,8H,2-4H2,1H3	InChI=1S/C7H12O2/c1-7-4-2-3-5(9-7)6(7)8/h5-6,8H,2-4H2,1H3/t5-,6-,7+/m1/s1
