20
gdb 84795	2.55273	1.49003	1.02597	3.5755	81.4	-0.23	0.0109	0.2409	1198.4277	0.170632	-403.198891	-403.18972	-403.188776	-403.232772	34.012	
C	-0.0324807438	 1.617901636	-0.0324982234	-0.393192
C	 0.0071809417	 0.08395963	 0.0372947383	 0.005173
C	 0.7045202164	-0.549659712	-1.1375549962	-0.074586
C	 1.7768439547	-1.2425461445	-0.7699794306	-0.092768
C	 1.9595085098	-1.2179200318	 0.7233004912	-0.213905
N	 0.8103306989	-0.4254136322	 1.1660647244	-0.089482
C	 0.3586922965	-0.3119585548	 2.4492338462	 0.390742
C	 1.2264256449	-0.9460400597	 3.5257940698	-0.492348
O	-0.684312581	 0.267278539	 2.7140318584	-0.381294
H	 0.9782234345	 2.0267966892	-0.1276560896	 0.109783
H	-0.617390858	 1.9395286916	-0.9007328018	 0.109999
H	-0.499496668	 2.0138054928	 0.8704553816	 0.154885
H	-1.0249796844	-0.2767234752	 0.1457407669	 0.105003
H	 0.3531530011	-0.4061443248	-2.1518692104	 0.106929
H	 2.4585040397	-1.7736529971	-1.4221474694	 0.107688
H	 1.9495210376	-2.2291806157	 1.1550936215	 0.117415
H	 2.918628484	-0.7617148906	 1.014214543	 0.116162
H	 2.2625555028	-0.5971712711	 3.4712103983	 0.132474
H	 0.8047313915	-0.6864337636	 4.4961484417	 0.145277
H	 1.2426081513	-2.0369316657	 3.4254802301	 0.136045
96.0811	109.7864	146.5143	163.6549	208.6419	242.1889	287.2779	357.2197	422.2187	497.4974	539.7534	607.0467	627.9359	722.4293	770.7126	803.1193	892.3264	954.4634	969.3521	976.5516	1022.4653	1035.5322	1050.6518	1071.9393	1096.5967	1116.8947	1138.5761	1204.4112	1226.0268	1303.4988	1351.2331	1368.4934	1375.8008	1379.371	1397.8121	1428.3066	1469.5395	1485.271	1487.0681	1507.3455	1516.1639	1697.6297	1753.8097	2977.2839	3002.3047	3011.1242	3039.4116	3040.3837	3101.346	3107.245	3147.1427	3161.6687	3203.9336	3227.84
CC1C=CCN1C(C)=O	C[C@H]1C=CCN1C(=O)C	
InChI=1S/C7H11NO/c1-6-4-3-5-8(6)7(2)9/h3-4,6H,5H2,1-2H3	InChI=1S/C7H11NO/c1-6-4-3-5-8(6)7(2)9/h3-4,6H,5H2,1-2H3/t6-/m0/s1
