17
gdb 55007	3.09965	1.19114	0.95078	3.0781	71.08	-0.2469	-0.0066	0.2403	1228.683	0.134741	-455.182078	-455.172751	-455.171807	-455.217296	33.077	
C	 0.4449437944	 0.8428723335	 0.1254429669	-0.473104
C	-0.0251233444	-0.5957945207	 0.186121818	 0.394653
O	 0.737195854	-1.543997394	 0.0867016953	-0.370623
N	-1.3696626252	-0.7445753899	 0.4288452454	-0.072671
C	-2.5303937822	-0.1652098949	-0.1974393923	-0.245694
C	-2.3851085432	-1.6595930993	-0.0284144814	-0.113378
C	-2.3021830881	-2.5558160931	-1.2572570887	 0.364396
N	-1.0565307287	-2.8615566039	-1.6901642688	-0.53445
O	-3.3345487802	-2.9415681394	-1.7711382725	-0.361808
H	 1.5164957387	 0.8735126945	 0.3227456997	 0.154437
H	 0.2675738864	 1.2415328676	-0.8801846682	 0.148609
H	-0.0921456325	 1.47529948	 0.8358231011	 0.143082
H	-3.2158467175	 0.3827025634	 0.4437480851	 0.135797
H	-2.4173720336	 0.2320418495	-1.2039760605	 0.142412
H	-2.9707574987	-2.1180815854	 0.7651199746	 0.138688
H	-0.2415377505	-2.6581310929	-1.1184211082	 0.291576
H	-0.9864143586	-3.5091431551	-2.4595419655	 0.258078
37.2655	76.975	93.5499	194.0916	197.9078	243.2802	269.8124	367.2406	490.6561	515.4785	538.6462	589.9574	632.4124	686.9707	712.4675	764.6666	801.5594	956.3885	997.8131	1027.7951	1050.5624	1059.1509	1086.5999	1129.2559	1146.2968	1159.927	1207.6303	1339.4445	1373.3174	1390.4519	1461.1136	1471.8208	1483.3118	1518.3054	1635.0259	1749.8498	1799.0795	3046.1058	3102.7061	3116.5287	3141.9469	3163.0365	3193.4853	3454.9996	3669.6022
CC(=O)N1CC1C(N)=O	CC(=O)N1C[C@H]1C(=O)N	
InChI=1S/C5H8N2O2/c1-3(8)7-2-4(7)5(6)9/h4H,2H2,1H3,(H2,6,9)	InChI=1S/C5H8N2O2/c1-3(8)7-2-4(7)5(6)9/h4H,2H2,1H3,(H2,6,9)/t4-,7?/m0/s1
