19
gdb 52968	4.45607	0.90478	0.84044	0.3455	91.2	-0.1971	0.0436	0.2407	1451.1809	0.158237	-348.662415	-348.653664	-348.65272	-348.697494	32.935	
C	-0.0262379484	 1.4586885899	-0.0072221803	-0.506476
C	-0.0112666712	 0.003442287	-0.0157493719	 0.220253
C	-0.002914183	-1.2033201923	-0.0299677464	-0.16062
C	 0.0338621049	-2.6232885091	-0.0128285774	 0.180081
C	-0.3556925346	-3.4802543906	-1.2020417788	-0.350872
C	-1.1318979249	-3.628884301	 0.0695672454	-0.109061
C	-0.3910506892	-4.4009667125	 1.1917991809	-0.049353
C	 0.9838636426	-4.8829573042	 0.8105512597	-0.305673
C	 0.7678883386	-3.4264357262	 1.1128408627	-0.102032
H	 0.7425175207	 1.856443453	 0.6650801764	 0.146583
H	 0.1669411798	 1.8693162681	-1.0050060999	 0.144817
H	-0.9923131177	 1.8513980644	 0.3309733102	 0.143888
H	-0.8725618075	-2.9212670981	-1.9753304464	 0.123833
H	 0.2944889538	-4.2561835645	-1.5903209812	 0.114435
H	-2.184932256	-3.3872633192	 0.1286103763	 0.100449
H	-0.9021464033	-4.7607523797	 2.0748351836	 0.091367
H	 1.4945419555	-5.4205209665	 1.6045975097	 0.113859
H	 1.2282776095	-5.2542750335	-0.1782007462	 0.113506
H	 1.2738135006	-2.9141906248	 1.9201186036	 0.091017
14.6715	91.6139	98.1737	239.2934	289.8477	332.5464	410.1952	424.7423	493.7804	513.3702	560.4321	699.1876	761.1415	777.4968	793.7911	875.4118	899.6609	907.2271	950.7239	974.5785	1016.1193	1025.904	1049.0987	1052.491	1053.8208	1062.145	1070.6649	1095.1959	1099.3726	1183.4571	1191.5045	1267.3006	1300.1209	1321.7472	1394.4869	1417.5987	1474.9219	1476.5776	1480.1741	1511.1556	2355.2802	3019.9898	3076.4996	3081.241	3122.962	3136.5528	3190.6217	3197.7164	3202.0948	3208.1072	3215.199
CC#CC12CC1C1CC21	CC#C[C@]12C[C@H]1[C@H]1C[C@@H]21	
InChI=1S/C9H10/c1-2-3-9-5-8(9)6-4-7(6)9/h6-8H,4-5H2,1H3	InChI=1S/C9H10/c1-2-3-9-5-8(9)6-4-7(6)9/h6-8H,4-5H2,1H3/t6-,7+,8-,9+/m0/s1
