16
gdb 46952	2.94472	1.85689	1.40327	4.0245	67.89	-0.2333	0.0262	0.2594	914.2769	0.127155	-437.882951	-437.876307	-437.875363	-437.914014	26.568	
O	 0.0097173356	-0.0466432241	-0.0095844689	-0.387669
C	-0.0287081493	 1.1705479662	 0.0044003651	 0.421761
N	-1.2099629496	 1.8587641239	-0.0674755113	-0.330245
C	-1.3966242619	 3.3000154046	-0.0393766066	-0.161147
C	-0.1242291297	 3.9974488591	 0.4002967654	 0.087223
O	 0.2928318965	 3.5389104504	 1.7215482061	-0.293801
C	 1.493493717	 3.022048726	 1.159439132	 0.094169
C	 1.1829862994	 3.4928994019	-0.2270131685	-0.184703
C	 1.2163822231	 2.0053486874	 0.0659393148	-0.174888
H	-2.0260837494	 1.2664764875	-0.1003171237	 0.248893
H	-1.6957665634	 3.6865037262	-1.0260923685	 0.111165
H	-2.1969205777	 3.5525430484	 0.6672011001	 0.124853
H	-0.2443823351	 5.0842699023	 0.3903400724	 0.096474
H	 2.391404756	 3.0287009981	 1.7646581578	 0.119509
H	 1.777014547	 3.9879988278	-0.9820619504	 0.109494
H	 2.0984622814	 1.4725616441	-0.2707635057	 0.118912
110.1968	178.1395	331.2981	376.1827	440.2494	505.8961	546.0528	590.5189	701.6141	720.4073	792.7727	800.5059	853.7513	863.758	913.6969	932.4494	988.8873	1012.7095	1035.9344	1044.7987	1058.9237	1085.1147	1093.1598	1155.8362	1229.2417	1251.1496	1283.6091	1309.1773	1319.4496	1365.6623	1403.5126	1414.2461	1479.7777	1515.9621	1786.1887	2986.1088	3043.4384	3075.0379	3187.2969	3195.8313	3214.4469	3621.5376
O=C1NCC2OC3C2C13	O=C1NC[C@H]2O[C@@H]3[C@H]2[C@H]13	
InChI=1S/C6H7NO2/c8-6-4-3-2(1-7-6)9-5(3)4/h2-5H,1H2,(H,7,8)	InChI=1S/C6H7NO2/c8-6-4-3-2(1-7-6)9-5(3)4/h2-5H,1H2,(H,7,8)/t2-,3-,4+,5-/m1/s1
