19
gdb 83659	2.55551	1.69572	1.31827	2.4264	74.73	-0.2447	0.0566	0.3013	1024.8552	0.160108	-422.971942	-422.964256	-422.963312	-423.004013	30.642	
O	 0.4573027981	 1.0313063415	-0.5664547873	-0.43244
C	 0.1507282733	-0.2325860441	-0.0533945321	 0.059444
C	 0.2502869869	-0.369228063	 1.4894959242	 0.07135
O	-0.1192904974	 0.8820516977	 2.1176448989	-0.308302
C	-1.4622552301	 0.3949753872	 2.3934583864	-0.081036
C	-1.2206396653	-0.8794435541	 1.5700473951	-0.187519
C	-1.3369073857	-0.6572090625	 0.0552974284	 0.338832
C	-2.4743269936	-0.0391192548	-0.7022687593	-0.319748
C	-2.0903604496	-1.4786671674	-0.9473660979	-0.348363
H	 0.2060990998	 1.655596566	 0.1306969393	 0.287593
H	 0.7577684283	-0.9674773335	-0.5933579776	 0.082872
H	 1.1285821947	-0.8266905023	 1.9502530469	 0.077636
H	-1.5952278883	 0.2255212076	 3.4690342017	 0.104917
H	-2.2348777629	 1.0822155592	 2.0317266523	 0.108739
H	-1.5242450416	-1.8394489121	 1.9851188783	 0.080647
H	-3.4024223524	 0.1586135997	-0.1748734568	 0.109329
H	-2.2119214854	 0.6997133001	-1.4523576274	 0.128254
H	-1.5872999101	-1.7276462755	-1.8769891634	 0.117156
H	-2.7566964387	-2.2527477494	-0.5791291798	 0.110638
90.9965	201.8876	214.7106	236.0452	272.1464	429.112	438.6524	522.267	565.5916	654.0151	709.2596	776.612	823.2619	825.5992	879.1617	904.3983	925.1996	962.3355	971.4625	993.8314	1012.6384	1044.3099	1046.9125	1074.6676	1092.3318	1128.5176	1142.8772	1176.836	1191.1496	1201.1383	1244.6576	1254.4793	1269.5487	1300.5507	1310.0932	1352.267	1384.9095	1442.6463	1463.04	1500.1803	1517.0719	3019.4355	3051.057	3073.2287	3085.6528	3118.7764	3121.1906	3125.3264	3198.5398	3215.6842	3722.9382
OC1C2OCC2C11CC1	O[C@H]1[C@H]2OC[C@H]2C21CC2	
InChI=1S/C7H10O2/c8-6-5-4(3-9-5)7(6)1-2-7/h4-6,8H,1-3H2	InChI=1S/C7H10O2/c8-6-5-4(3-9-5)7(6)1-2-7/h4-6,8H,1-3H2/t4-,5+,6+/m1/s1
