16
gdb 29412	5.025	0.89869	0.81256	2.2321	75.65	-0.1899	-0.0311	0.1588	1370.4836	0.124999	-434.114069	-434.105346	-434.104402	-434.149009	31.238	
N	-0.3268731057	 1.4554596857	 0.2041874695	-0.597388
C	-0.12048502	 0.0824182481	 0.0601215808	 0.286901
C	-0.9534058778	-0.8746931309	-0.4731478163	-0.184303
N	-0.2152286608	-2.0471236715	-0.4303496855	-0.26447
C	 0.9939738418	-1.7540975145	 0.1149088592	 0.319185
C	 2.0662351225	-2.7842198196	 0.2983947122	-0.369487
C	 2.4622154905	-3.3284779751	-1.0657584421	 0.144126
O	 2.11370091	-4.4024128504	-1.4868264142	-0.246803
N	 1.0838223048	-0.4720737684	 0.4172561818	-0.341866
H	 0.3166418249	 1.84581457	 0.880244558	 0.249536
H	-1.2786130342	 1.7023697332	 0.4386096415	 0.242258
H	-1.9540420584	-0.8395889188	-0.8676552128	 0.120103
H	-0.5126445888	-2.9524600967	-0.7548698371	 0.273185
H	 2.9183015514	-2.290899906	 0.7729760838	 0.14561
H	 1.7295716142	-3.6197455154	 0.9208461721	 0.128353
H	 3.0656433255	-2.6292369998	-1.6845817106	 0.095059
24.7568	53.798	151.6996	222.3247	259.8992	283.6289	353.0915	442.2465	486.1602	524.7229	627.3929	648.5256	675.3067	710.931	742.5802	779.2648	873.5999	989.5234	1007.388	1037.5539	1057.7557	1103.9976	1111.6791	1186.6341	1273.9187	1285.6351	1326.721	1412.9733	1419.661	1457.6968	1488.0941	1551.6248	1620.176	1649.5243	1821.4299	2900.3334	3051.0945	3121.4105	3281.8931	3547.0641	3643.4909	3661.1731
NC1=CNC(CC=O)=N1	Nc1c[nH]c(CC=O)n1	
InChI=1S/C5H7N3O/c6-4-3-7-5(8-4)1-2-9/h2-3H,1,6H2,(H,7,8)	InChI=1S/C5H7N3O/c6-4-3-7-5(8-4)1-2-9/h2-3H,1,6H2,(H,7,8)
