17
gdb 48119	3.10141	1.18062	0.95861	1.0962	74.19	-0.246	-0.0945	0.1515	1220.0361	0.135144	-421.856233	-421.847725	-421.846781	-421.890722	30.304	
O	-0.8859575374	 1.6489146959	 0.4136460338	-0.219901
C	 0.1228971679	 1.0083179765	 0.276341461	 0.095118
C	 1.5031567156	 1.6336896268	 0.0129923943	 0.271952
O	 2.4371691468	 0.8776203137	-0.1290796378	-0.282156
C	 1.5714930203	 3.140604458	-0.0231110063	-0.086184
C	 1.442730824	 3.7435054881	 1.4233587081	-0.274979
C	 2.4666049258	 4.8512656591	 1.4177346774	-0.057325
C	 3.2358796054	 4.8346710167	 0.3324106927	-0.059612
C	 2.8881810748	 3.7078035078	-0.6076353268	-0.285628
H	 0.1561755591	-0.1010478734	 0.3184795141	 0.108779
H	 0.7074894332	 3.4902565275	-0.5955319147	 0.110258
H	 0.4230004051	 4.0863227204	 1.6212260572	 0.12898
H	 1.6758043016	 3.0038166663	 2.202807725	 0.113119
H	 2.5609797886	 5.5451985725	 2.2456414808	 0.097799
H	 4.0533780633	 5.519215874	 0.1355774648	 0.097436
H	 3.6699933883	 2.9381535649	-0.618440201	 0.133417
H	 2.7619593476	 4.0407077351	-1.6439100126	 0.108928
49.8611	56.9754	125.0068	153.5355	237.0151	299.2802	385.8261	499.1986	540.6221	606.0779	649.3089	725.3117	784.2749	795.9388	924.8608	940.0864	950.8802	975.5929	981.7663	995.8182	1049.5836	1073.8301	1131.1513	1151.4429	1159.5805	1210.3532	1284.7608	1297.8134	1321.557	1355.9516	1363.6799	1378.5707	1487.9333	1493.1127	1695.281	1798.4544	1822.3678	2923.5084	3005.1837	3032.6115	3058.0946	3070.6587	3083.8466	3184.717	3209.9045
O=CC(=O)C1CC=CC1	O=CC(=O)[C@H]1CC=CC1	
InChI=1S/C7H8O2/c8-5-7(9)6-3-1-2-4-6/h1-2,5-6H,3-4H2	InChI=1S/C7H8O2/c8-5-7(9)6-3-1-2-4-6/h1-2,5-6H,3-4H2
