16
gdb 84757	2.87632	1.44303	1.14771	3.2892	73.49	-0.2654	-0.0602	0.2052	1078.3788	0.124698	-437.920387	-437.912337	-437.911393	-437.953978	29.497	
C	-0.5515375737	 1.4150475509	 0.1885211506	-0.385969
C	-0.0262520694	-0.0284998633	 0.0312269077	-0.03377
C	 0.7017463347	-0.2021861697	-1.2725642534	-0.060282
C	 2.0033017984	-0.0545593539	-1.5299457333	-0.184344
C	 3.0807356655	 0.3889049177	-0.6301216738	 0.404778
O	 4.1338509573	 0.7907964509	-1.040907453	-0.305268
O	 2.9190306743	 0.354487019	 0.7429356822	-0.229131
C	 1.9021718885	-0.2282838425	 1.4680761916	 0.133195
N	 0.6869531341	-0.4227377	 1.2363174296	-0.232151
H	 0.2806122036	 2.1237157402	 0.2224919939	 0.134645
H	-1.2008180204	 1.6823902644	-0.6501980108	 0.12522
H	-1.1230454244	 1.4972960341	 1.1164486203	 0.138313
H	-0.905466796	-0.6827562118	-0.0140350505	 0.105031
H	 0.0598205373	-0.4579876032	-2.1139445601	 0.119695
H	 2.3664798432	-0.1740210787	-2.5450856357	 0.129867
H	 2.316591847	-0.508069104	 2.4351163346	 0.140169
33.2274	89.0811	227.2132	248.111	298.1945	332.7478	378.4863	475.7548	517.6064	571.0103	699.7725	709.8755	802.0094	818.6956	830.255	860.2953	921.8117	963.9498	1020.0103	1036.3364	1084.1423	1099.7253	1138.3352	1195.7646	1282.9559	1328.8493	1395.4092	1403.7307	1418.136	1437.5935	1487.5132	1494.5764	1709.3224	1780.1752	1827.8203	3024.9967	3044.1873	3122.0702	3130.0329	3143.8049	3157.7045	3194.9503
CC1C=CC(=O)OC=N1	C[C@H]1C=CC(=O)OC=N1	
InChI=1S/C6H7NO2/c1-5-2-3-6(8)9-4-7-5/h2-5H,1H3	InChI=1S/C6H7NO2/c1-5-2-3-6(8)9-4-7-5/h2-5H,1H3/t5-/m0/s1
