16
gdb 85224	2.07455	1.78194	1.30838	1.371	66.22	-0.2402	-0.0325	0.2077	1011.7678	0.123136	-475.01851	-475.01017	-475.009226	-475.051895	30.739	
O	-0.4877415609	 1.3870785969	-0.6143986568	-0.424202
C	-0.1428589944	 0.1829509703	-0.0061768433	 0.081054
C	-0.274524102	 0.1320757696	 1.5545058621	-0.377198
C	-1.4989451295	-0.7890851861	 1.4053389843	 0.384358
O	-2.3562092803	-1.1825998373	 2.1362352242	-0.301257
C	-1.1851419198	-1.0017235637	-0.0973695149	-0.011472
O	-2.2176194276	-1.0760205898	-1.072649989	-0.200542
C	-3.2179614198	-0.1910848448	-1.0305522208	 0.165994
N	-3.2192187289	 0.8532807657	-0.3130946021	-0.492904
H	-1.4253017548	 1.5505483463	-0.4077403563	 0.296513
H	 0.8427145745	-0.0935852219	-0.3865759987	 0.095942
H	 0.5579058791	-0.3388453305	 2.0857581874	 0.13104
H	-0.4889094788	 1.0984314196	 2.0171621426	 0.145845
H	-0.6455768383	-1.949031768	-0.2048652581	 0.127839
H	-4.0135724933	-0.5150292702	-1.7054515322	 0.133412
H	-4.0841043352	 1.3764571239	-0.4144746586	 0.245578
56.8148	121.2636	151.6249	229.3972	253.0406	321.2546	382.3872	417.3032	532.08	547.7393	659.9834	671.329	733.69	778.9605	813.4143	836.4604	872.7652	973.9222	1018.0109	1038.2062	1053.5816	1055.142	1129.7238	1151.8399	1199.3391	1219.9344	1263.3409	1312.1103	1348.653	1380.029	1409.2768	1423.1709	1493.1154	1707.9909	1902.5507	3058.7149	3064.5924	3092.7159	3114.3503	3125.0231	3540.9545	3594.7562
OC1CC(=O)C1OC=N	O[C@H]1CC(=O)[C@H]1O[CH][NH]	
InChI=1S/C5H7NO3/c6-2-9-5-3(7)1-4(5)8/h2-3,5-7H,1H2	InChI=1S/C5H7NO3/c6-2-9-5-3(7)1-4(5)8/h2-3,5-7H,1H2/t3-,5-/m0/s1
