19
gdb 36250	5.17732	0.9586	0.92898	0.7513	85.6	-0.2555	0.0583	0.3138	1308.6041	0.159057	-348.642499	-348.634723	-348.633779	-348.675125	30.84	
C	 0.0053541079	-1.2079589638	-0.2786305112	-0.456888
C	-0.0307144944	-0.0332501967	-0.0252804504	 0.307774
C	-0.0337551713	 1.3943732975	 0.2756575559	-0.388049
C	 1.3605452091	 2.0224551703	 0.1595280172	 0.001149
C	 1.9528764616	 2.2981941632	-1.2378425559	-0.033834
C	 1.1134661723	 3.6125156033	-1.4364842302	-0.044277
C	 2.3628534737	 4.4428718376	-1.7886487756	-0.266192
C	 2.8425078388	 3.4703055314	-0.6950481155	-0.042874
C	 1.4874009998	 3.5597467165	 0.0894259557	-0.062574
H	 0.0233876637	-2.2460492489	-0.50000014	 0.192917
H	-0.7316529219	 1.9079324712	-0.3976394526	 0.12636
H	-0.4198555405	 1.5516509601	 1.2918024998	 0.126768
H	 2.0524452715	 1.5350179346	 0.8565491579	 0.072617
H	 2.2309407766	 1.5881772051	-2.017992728	 0.074837
H	 0.1098292646	 3.6850753535	-1.857140912	 0.071726
H	 2.7806307194	 4.3024260118	-2.7909040561	 0.092407
H	 2.3379128361	 5.5062667696	-1.5286348433	 0.091005
H	 3.8308487256	 3.3625389419	-0.245132864	 0.069846
H	 1.2294430774	 4.3089081621	 0.8408972982	 0.067283
58.4937	112.688	216.2853	270.3298	348.1521	409.0177	448.8263	564.5771	616.2541	632.959	727.3456	751.019	836.8537	846.2385	850.2097	875.1227	904.6831	925.7339	960.719	972.0095	993.6844	1010.4666	1028.1421	1064.2049	1071.3336	1128.5806	1139.8243	1147.7473	1158.4719	1171.985	1190.6171	1212.0661	1236.4217	1252.2398	1282.609	1316.0585	1325.8029	1404.1589	1469.6824	1510.4568	2236.5773	3016.1508	3033.8521	3035.5169	3054.4955	3087.6852	3091.9688	3098.4542	3099.9903	3113.5791	3507.8056
C#CCC1C2C3CC2C13	C#CC[C@H]1[C@H]2[C@@H]3C[C@H]2[C@H]13	
InChI=1S/C9H10/c1-2-3-5-8-6-4-7(8)9(5)6/h1,5-9H,3-4H2	InChI=1S/C9H10/c1-2-3-5-8-6-4-7(8)9(5)6/h1,5-9H,3-4H2/t5-,6-,7+,8-,9+
