20
gdb 101307	3.14179	0.89288	0.75739	4.3499	77.35	-0.2463	-0.0216	0.2246	1533.4771	0.168469	-440.265147	-440.254928	-440.253984	-440.301316	36.345	
C	 0.0974837329	 1.4990870326	-0.2704774628	-0.386025
C	-0.0213348157	-0.0246004615	-0.2046945875	-0.198191
C	-1.4644865032	-0.5087361845	-0.0184475511	 0.136442
O	-2.3247731503	-0.0542685167	-1.0599739637	-0.424453
C	-1.5204743637	-2.0210014864	 0.1320901001	-0.054825
N	-1.7024976306	-2.5544907041	 1.4769783046	-0.331617
C	-2.7835890348	-2.7506072533	 0.4854301497	-0.128065
C	-4.0620373175	-2.0259944002	 0.7396218472	 0.189346
O	-5.125122007	-2.4001167093	 0.3131121818	-0.26365
H	 1.1307880177	 1.8075374929	-0.4540007053	 0.111605
H	-0.5310538891	 1.8995286575	-1.0699507918	 0.130417
H	-0.2276260685	 1.9583116094	 0.6692907559	 0.119735
H	 0.3827190513	-0.4736638464	-1.1246172905	 0.084731
H	 0.5837015067	-0.4206049304	 0.6207362506	 0.108037
H	-1.8729667372	-0.0636026404	 0.8944443891	 0.102161
H	-2.0388926939	-0.4589956175	-1.8867728572	 0.280877
H	-0.8602826307	-2.5684233111	-0.5430827165	 0.089427
H	-1.1915972728	-3.4233700199	 1.6071893454	 0.244545
H	-2.9219516699	-3.7334898055	 0.0413293513	 0.103411
H	-3.9643876238	-1.1166697152	 1.3686678307	 0.086092
32.6523	85.4571	105.2654	144.7152	205.8589	236.709	243.9746	269.7924	315.3863	378.9311	394.2929	478.3089	526.7957	576.2832	778.3496	819.1108	878.1345	904.0322	937.3689	974.6208	988.4864	1021.2717	1043.7317	1065.6122	1108.7581	1115.8096	1145.1147	1192.0342	1229.1696	1235.4602	1261.4602	1295.4853	1333.9648	1366.2022	1383.316	1405.9429	1417.832	1424.3027	1469.8578	1479.4737	1495.618	1508.5275	1824.5998	2917.6817	2997.4144	3040.1472	3048.7001	3070.0151	3091.4888	3105.8578	3124.5014	3146.8147	3511.7058	3796.7806
CCC(O)C1NC1C=O	CC[C@@H](O)[C@H]1N[C@H]1C=O	
InChI=1S/C6H11NO2/c1-2-5(9)6-4(3-8)7-6/h3-7,9H,2H2,1H3	InChI=1S/C6H11NO2/c1-2-5(9)6-4(3-8)7-6/h3-7,9H,2H2,1H3/t4-,5+,6-/m0/s1
