19
gdb 92353	2.47852	1.78838	1.73888	1.1504	68.88	-0.2555	0.0792	0.3347	917.5004	0.162859	-460.178483	-460.171507	-460.170563	-460.209472	29.022	
O	 0.2814034401	 1.3108439331	 0.3422280399	-0.450174
C	 0.071734289	-0.0700544922	 0.0607626301	 0.124517
C	-1.4361803633	-0.4278832673	 0.0270457619	-0.229565
C	-2.0757157858	-0.1404969902	-1.3386347832	 0.057837
C	-1.882090377	 1.2961132995	-1.8368129948	-0.107008
O	-0.5404006582	 1.2729265936	-2.3553321141	-0.298181
C	-0.1528165775	-0.1148807557	-2.4380366696	 0.195504
C	 0.7582677249	-0.4735058559	-1.2604207279	-0.261054
O	-1.3486745726	-0.8530448895	-2.3532920123	-0.254827
H	 0.2534901228	 1.7694576312	-0.5068181381	 0.292099
H	 0.533892333	-0.6086370286	 0.8948656029	 0.083292
H	-1.5612930107	-1.4975022796	 0.2318120519	 0.104503
H	-1.9445874327	 0.1259644661	 0.8226695098	 0.109609
H	-3.1153886617	-0.4711405625	-1.3799501479	 0.088903
H	-2.5849764746	 1.5370368229	-2.6424908456	 0.111494
H	-1.9516353482	 2.0495733992	-1.0488288909	 0.120216
H	 0.3027532924	-0.299892864	-3.4150099289	 0.091009
H	 1.7227178905	 0.0382491031	-1.3370678113	 0.111652
H	 0.9443903599	-1.5521056033	-1.297705902	 0.110174
172.2056	206.6891	310.2181	346.9634	374.7973	424.2799	500.988	548.746	552.1748	697.0846	771.3896	784.9155	814.672	863.0738	884.4565	889.5125	936.9671	940.2311	986.5924	996.2632	1028.9555	1059.8594	1088.8321	1109.7898	1131.9976	1187.8991	1214.2631	1219.0281	1267.9982	1303.1048	1318.0051	1339.7038	1356.4706	1373.6902	1385.3332	1391.6531	1398.5877	1452.6189	1460.6515	1472.3391	1514.9449	3036.0903	3037.0849	3044.0919	3055.5974	3076.8467	3090.5429	3097.1037	3099.2643	3107.2803	3764.956
OC1CC2COC(C1)O2	O[C@H]1C[C@H]2CO[C@@H](C1)O2	
InChI=1S/C6H10O3/c7-4-1-5-3-8-6(2-4)9-5/h4-7H,1-3H2	InChI=1S/C6H10O3/c7-4-1-5-3-8-6(2-4)9-5/h4-7H,1-3H2/t4-,5-,6+/m0/s1
