20
gdb 108407	2.54956	1.32733	1.12906	2.3157	80.84	-0.24	-0.0345	0.2054	1190.3709	0.169864	-403.116187	-403.107097	-403.106153	-403.150263	33.569	
C	 0.1895953046	 1.5317256459	 0.1057449108	-0.379022
C	-0.0963934618	 0.0492557748	-0.1660946004	-0.284708
C	 0.6874140216	-0.4846061064	-1.333929427	 0.337747
C	 0.367101749	-0.2274890684	-2.8112993512	-0.307752
C	 0.6786469577	-1.7267646844	-3.0325665962	-0.147755
N	 0.9606584977	-1.9406210762	-1.5621649371	-0.196577
C	 2.076995696	-1.0364650789	-1.1532164537	-0.13445
C	 3.2571162486	-0.6299296565	-1.9579826675	 0.14206
O	 3.3256045197	-0.5249933909	-3.1618026828	-0.277088
H	 1.2456812909	 1.6918097159	 0.3466574031	 0.118805
H	-0.0491410019	 2.1487258782	-0.766819164	 0.124641
H	-0.4074816027	 1.8973774677	 0.9459288545	 0.119923
H	 0.1334390248	-0.5528100008	 0.7202519599	 0.111309
H	-1.1660433687	-0.0914271598	-0.3685204526	 0.106149
H	-0.6833162539	 0.0289819809	-2.9663316085	 0.107953
H	 0.9981134531	 0.4900519485	-3.3375020769	 0.127267
H	-0.1969708614	-2.3239641557	-3.2941649244	 0.111144
H	 1.5089047601	-1.9702703922	-3.6924083095	 0.138623
H	 2.3364516935	-1.2236841692	-0.1136675744	 0.100353
H	 4.141089323	-0.3915159025	-1.3229369622	 0.081378
72.4013	94.2168	137.7483	196.8492	220.255	249.2559	302.8593	352.5079	374.5087	456.2722	632.7987	691.9819	747.7062	783.4443	803.207	839.9162	848.3969	919.3409	954.6839	979.9099	994.3487	1030.5395	1049.5308	1081.166	1091.1523	1146.7219	1176.9004	1218.3496	1233.325	1251.6244	1289.1687	1310.2151	1340.4391	1353.9003	1410.0617	1426.4295	1439.039	1475.7326	1483.3022	1497.7522	1498.8656	1507.2099	1797.9306	2866.0057	3024.8188	3036.6931	3066.4998	3073.6175	3084.6695	3105.2457	3112.1956	3128.9933	3139.4592	3161.3205
CCC12CCN1C2C=O	CC[C@]12CCN1[C@H]2C=O	
InChI=1S/C7H11NO/c1-2-7-3-4-8(7)6(7)5-9/h5-6H,2-4H2,1H3	InChI=1S/C7H11NO/c1-2-7-3-4-8(7)6(7)5-9/h5-6H,2-4H2,1H3/t6-,7+,8?/m0/s1
