18
gdb 6784	5.12176	0.88062	0.79647	2.5875	66.44	-0.2601	0.0197	0.2798	1453.8538	0.150715	-422.102771	-422.092958	-422.092014	-422.139335	32.308	
C	-0.1004714329	 1.3038742815	 0.0860961652	-0.225825
O	 0.0140004946	-0.0982549151	 0.0499402262	-0.22671
C	 0.5417034722	-0.5732414306	-1.1649359025	-0.06754
C	 0.5855114871	-2.0840158115	-1.1287278195	-0.070207
O	-0.7640107419	-2.5711775051	-1.1911719161	-0.235903
C	-0.9042367617	-3.9126506932	-1.1409950802	 0.432987
C	-2.363486128	-4.2970174158	-1.1896805315	-0.477559
O	 0.0237515641	-4.6778457134	-1.0659185016	-0.351593
H	 0.8769746044	 1.7979625211	-0.0355261094	 0.103546
H	-0.7737340122	 1.6797348178	-0.7005790643	 0.105857
H	-0.5124886762	 1.5728973479	 1.0614820621	 0.129928
H	-0.0701990578	-0.2377901638	-2.0188284325	 0.095958
H	 1.5666578716	-0.1948992634	-1.3237279239	 0.089696
H	 1.1560040997	-2.4738401002	-1.9778405974	 0.118466
H	 1.0604513721	-2.4355528764	-0.2083962862	 0.132119
H	-2.8342495879	-3.8804872434	-2.0844288972	 0.147242
H	-2.4528300843	-5.3825691246	-1.190106098	 0.146898
H	-2.886465683	-3.8804945118	-0.3239572733	 0.15264
31.9193	60.4454	70.6189	94.9124	175.7497	196.9702	233.7288	285.3645	315.675	422.6009	528.6214	607.0408	644.6948	848.1456	872.3002	962.4006	1011.1018	1058.7979	1065.3962	1088.0056	1129.0915	1171.3683	1187.774	1228.0964	1262.1578	1271.2529	1299.6916	1385.8226	1403.2229	1434.5392	1469.6589	1476.051	1480.1895	1485.8201	1495.5838	1498.76	1522.0421	1824.6619	2952.9432	2970.5446	2988.4375	3012.7109	3057.0969	3057.9162	3107.4274	3117.0294	3122.4524	3169.2512
COCCOC(C)=O	COCCOC(=O)C	
InChI=1S/C5H10O3/c1-5(6)8-4-3-7-2/h3-4H2,1-2H3	InChI=1S/C5H10O3/c1-5(6)8-4-3-7-2/h3-4H2,1-2H3
