21
gdb 97844	3.72274	0.7164	0.64387	1.9135	88.72	-0.2449	0.0438	0.2887	1817.9444	0.180874	-387.054659	-387.044307	-387.043363	-387.092413	36.158	
C	 0.0584326056	 1.6868673254	-0.1130581185	-0.363564
C	-0.0135084463	 0.1506956849	-0.0357633253	-0.31431
C	 0.6451487487	-0.3948427019	 1.147128279	 0.061284
C	 1.1994738231	-0.8181956417	 2.1307527895	 0.089019
C	 1.8465101329	-1.338932783	 3.316836689	-0.260409
C	 0.9525238465	-1.6661887235	 4.5451141875	-0.071504
O	 1.3644959839	-3.0424345674	 4.5474828612	-0.288165
C	 2.2011568324	-2.8657925112	 3.3804534057	 0.16008
C	 1.7905250131	-3.7582691971	 2.2294430244	-0.397342
H	 1.0973990189	 2.0262234295	-0.1417838007	 0.127784
H	-0.4477377195	 2.047601257	-1.0134359368	 0.114603
H	-0.420700531	 2.1423366762	 0.7578105714	 0.127912
H	-1.0639893302	-0.1674583011	-0.0480701105	 0.128753
H	 0.441008733	-0.2822254036	-0.9363239638	 0.129034
H	 2.7039694042	-0.7147018591	 3.5832844356	 0.1036
H	 1.2260078063	-1.148495717	 5.4724387028	 0.101273
H	-0.1235094266	-1.5543287176	 4.3704807946	 0.107311
H	 3.2550441348	-3.0371682194	 3.6378763641	 0.075897
H	 0.7577578458	-3.5629057445	 1.9302571117	 0.127781
H	 2.4392705026	-3.5900422142	 1.3634589545	 0.117727
H	 1.8780469717	-4.8074001207	 2.5287373544	 0.123235
15.7879	47.3376	76.9316	122.1656	156.9803	215.1174	228.3561	305.4286	331.811	403.0934	464.4394	513.5715	533.7121	704.7844	755.4804	785.607	859.8092	883.4539	918.3466	979.2935	1009.3708	1047.0841	1071.5841	1082.814	1094.718	1104.6047	1147.6081	1164.926	1198.5159	1224.4748	1283.4151	1286.2265	1344.2216	1352.6323	1361.6182	1384.9169	1408.2936	1409.7443	1475.9623	1481.9977	1487.6086	1494.4435	1505.5894	1527.2472	2358.9171	3006.554	3018.6482	3019.5612	3039.9987	3044.343	3045.436	3058.1574	3073.2902	3110.116	3117.5866	3123.6083	3127.0396
CCC#CC1COC1C	CCC#C[C@H]1CO[C@H]1C	
InChI=1S/C8H12O/c1-3-4-5-8-6-9-7(8)2/h7-8H,3,6H2,1-2H3	InChI=1S/C8H12O/c1-3-4-5-8-6-9-7(8)2/h7-8H,3,6H2,1-2H3/t7-,8-/m0/s1
