19
gdb 114689	3.29241	1.26717	1.17409	2.3348	71.28	-0.2415	0.0901	0.3316	1136.2734	0.15821	-460.142556	-460.133923	-460.132979	-460.175975	32.828	
C	-0.1167522686	 1.4715257075	 0.1004368564	-0.467524
C	 0.047641921	-0.0157196182	-0.0219569833	 0.406248
C	-0.8835873551	-1.03114423	 0.612478113	-0.371874
C	 0.5785753291	-0.950689816	 1.009800283	 0.015916
O	 1.4515426205	-1.8471274835	 0.3616283324	-0.293867
C	 1.6627843472	-1.3493952737	-0.9609834837	 0.207621
C	 1.6451882518	-2.5331894851	-1.9239254352	-0.088675
O	 0.5371010964	-3.3731444434	-1.7003644556	-0.415622
O	 0.6081111062	-0.4501695417	-1.2475311824	-0.306877
H	 0.8416988678	 1.9833046471	-0.032726453	 0.125555
H	-0.8122468729	 1.8448307138	-0.6581855746	 0.135164
H	-0.517759347	 1.7334061991	 1.0837520471	 0.12061
H	-1.6189230871	-0.6769558788	 1.3281840171	 0.113178
H	-1.1824829737	-1.8677705017	-0.0086564469	 0.132933
H	 0.8943387743	-0.6594763687	 2.0056155082	 0.108052
H	 2.6312799565	-0.8207755256	-1.0065052096	 0.072765
H	 1.576774579	-2.1533923367	-2.9473541476	 0.124026
H	 2.6004226794	-3.072668227	-1.8221151798	 0.092947
H	 0.5476697351	-3.5669347773	-0.7547174653	 0.289424
58.4634	119.5927	206.2213	214.9248	250.5653	283.881	364.0243	400.4447	457.6332	472.819	604.8107	666.1605	742.2044	769.7809	837.3194	861.0673	872.1508	897.5878	963.3087	980.2119	1030.7705	1042.7555	1049.2139	1079.8935	1108.806	1120.8545	1134.1865	1155.4952	1231.3154	1244.8932	1285.6996	1357.214	1372.2829	1391.8877	1408.2302	1422.6712	1440.2308	1471.6449	1481.5497	1492.6038	1502.2882	2945.8508	2985.8438	3036.8395	3096.7228	3104.1461	3115.9974	3129.2509	3170.3973	3231.3455	3782.2272
CC12CC1OC(CO)O2	C[C@]12C[C@H]1O[C@@H](CO)O2	
InChI=1S/C6H10O3/c1-6-2-4(6)8-5(3-7)9-6/h4-5,7H,2-3H2,1H3	InChI=1S/C6H10O3/c1-6-2-4(6)8-5(3-7)9-6/h4-5,7H,2-3H2,1H3/t4-,5-,6+/m1/s1
