17
gdb 62915	2.9293	1.48764	1.17018	2.0308	69.27	-0.2372	-0.013	0.2242	1059.0849	0.132745	-458.892834	-458.884373	-458.883429	-458.925714	32.118	
C	-0.1407041621	 1.5928360638	 0.4012665901	-0.470892
C	-0.0989498266	 0.0844143227	 0.2583241567	 0.421313
O	-1.3774878251	-0.4706339291	 0.0560495048	-0.462296
C	 1.119667703	-0.555230984	-0.5068285272	-0.030194
O	 1.9655618377	-0.1688330683	 0.6424462674	-0.306391
C	 0.7521161034	-0.7538790213	 1.2500414632	-0.022389
C	 0.8404454102	-1.9039035803	 0.2019555711	-0.06944
C	-0.3213190949	-2.7766480721	-0.2109836564	 0.127984
O	-0.4933619694	-3.1329234624	-1.3510547586	-0.272402
H	 0.853436563	 1.9877484375	 0.6109612546	 0.149311
H	-0.5114182435	 2.0519322241	-0.5230886551	 0.112185
H	-0.8231742201	 1.8737907309	 1.2088112542	 0.129453
H	-1.7326471393	-0.1558958197	-0.7829006413	 0.292905
H	 1.5055562207	-0.365931778	-1.5083012536	 0.102678
H	 0.7036188833	-0.8004343593	 2.3383580006	 0.099912
H	 1.7474577675	-2.5028994173	 0.3282532348	 0.11719
H	-0.9730533677	-3.1349101272	 0.6143820348	 0.081075
85.8364	145.76	213.6868	230.3307	250.5518	305.8586	343.4949	400.3185	426.1002	492.0601	619.5758	650.9455	694.8205	756.983	793.9501	856.018	882.4816	925.9238	951.6407	996.9538	1040.014	1078.7945	1111.3961	1118.4586	1144.1731	1179.4217	1196.9599	1214.774	1249.2547	1266.6374	1333.5071	1373.6322	1401.8951	1422.1478	1488.1768	1500.5613	1809.1601	2896.371	3035.4045	3078.4468	3099.8112	3119.01	3127.6938	3154.9277	3804.2702
CC1(O)C2OC1C2C=O	C[C@@]1(O)[C@H]2O[C@@H]1[C@H]2C=O	
InChI=1S/C6H8O3/c1-6(8)4-3(2-7)5(6)9-4/h2-5,8H,1H3	InChI=1S/C6H8O3/c1-6(8)4-3(2-7)5(6)9-4/h2-5,8H,1H3/t3-,4-,5+,6+
