17
gdb 39560	4.1686	1.54891	1.29869	2.2047	77.27	-0.2309	-0.0121	0.2188	968.3023	0.138999	-380.862723	-380.856256	-380.855312	-380.893226	26.713	
C	-0.041285634	 1.5263483191	 0.0592398866	-0.370711
C	 1.4215998417	 1.9225997983	 0.0408110262	-0.069098
C	 2.2315836203	 0.8711126962	-0.1127438769	-0.078712
C	 1.4409866445	-0.3873290355	-0.1947000128	-0.10519
N	 0.6785493088	-0.6913221338	 1.0818924973	-0.174363
C	 0.0684157601	-1.9774121118	 1.0021248581	 0.033274
N	-0.8981937029	-2.1705604673	 0.1963037187	-0.20769
C	-1.1088550153	-0.9011052029	-0.5271833957	-0.271022
C	 0.0122684369	 0.0104716548	-0.0566431612	 0.329544
H	-0.544454837	 1.8429950833	 0.9804484833	 0.127928
H	-0.596048606	 1.9747833537	-0.7766570228	 0.114518
H	 1.7438807777	 2.9503822594	 0.1613603831	 0.104046
H	 3.3131720035	 0.8993593915	-0.154818407	 0.103968
H	 1.7639499864	-1.2427160247	-0.7789258344	 0.103049
H	 0.4382843834	-2.7502719349	 1.6704922478	 0.123709
H	-1.1092716185	-1.0832816603	-1.6073368949	 0.118987
H	-2.0959973995	-0.4931583449	-0.2712278553	 0.117762
197.9828	231.819	275.9303	393.5937	423.1696	491.7436	519.9472	687.5016	715.8739	757.972	789.887	848.1409	873.2529	917.1721	935.3741	950.2895	956.5407	964.6109	972.3465	1010.3905	1026.3907	1069.6889	1087.2804	1138.8528	1169.2635	1191.9895	1219.7243	1259.3084	1299.838	1317.8523	1345.6504	1375.0953	1386.9003	1462.9563	1489.9395	1660.4326	1671.0095	3015.4868	3020.7131	3060.2035	3062.9582	3168.9135	3182.3937	3195.9307	3221.2215
C1C=CC2N3C=NCC123	C1C=C[C@H]2N3C=NC[C@]123	
InChI=1S/C7H8N2/c1-2-6-7(3-1)4-8-5-9(6)7/h1-2,5-6H,3-4H2	InChI=1S/C7H8N2/c1-2-6-7(3-1)4-8-5-9(6)7/h1-2,5-6H,3-4H2/t6-,7-,9?/m1/s1
