19
gdb 62138	4.7793	0.67304	0.64676	4.0368	77.61	-0.2636	0.0147	0.2783	1697.7797	0.15833	-419.255457	-419.245245	-419.244301	-419.29212	35.318	
C	 0.0956169232	 1.3800838103	 0.3826853043	-0.393531
C	 0.0486638091	-0.0978449535	-0.0151018808	 0.010201
C	 0.8280336558	-0.995729349	 0.9654906895	-0.170158
N	 2.2396611166	-0.6708863519	 1.0553731819	-0.280401
C	 2.8002794103	-0.1002285016	 2.1585873366	 0.154979
O	 2.1995992456	 0.2134472461	 3.1633697056	-0.319285
C	-1.405695725	-0.6212085349	-0.1012494496	-0.343574
C	-2.1906394314	 0.0514370772	-1.1332013058	 0.265411
N	-2.7933532958	 0.5895502664	-1.9594869321	-0.30898
H	 1.12610901	 1.7419454666	 0.40863843	 0.126913
H	-0.4621550637	 1.9941784189	-0.3296415187	 0.140841
H	-0.333524169	 1.5308118883	 1.3791360035	 0.132944
H	 0.4965966143	-0.2105101688	-1.0117104309	 0.09026
H	 0.4268819018	-0.8870444899	 1.9774239754	 0.151679
H	 0.7187653914	-2.0471436628	 0.6704072681	 0.107466
H	 2.8422100225	-0.8915901559	 0.27830217	 0.250137
H	 3.8910096028	 0.0470694263	 2.0334835536	 0.080665
H	-1.4135093581	-1.6971470173	-0.312898028	 0.147754
H	-1.9087090805	-0.4854954346	 0.8642363073	 0.156684
37.4767	50.131	83.1462	125.9597	196.1186	214.1521	257.9788	309.2717	339.6028	397.4054	412.6671	436.1104	525.255	584.6298	755.2915	839.8721	891.7054	902.4412	937.9181	972.2455	1012.0674	1032.7194	1112.6023	1130.1932	1156.9452	1205.4773	1243.1028	1286.4919	1305.2452	1359.518	1382.0776	1396.3164	1421.0147	1430.5889	1464.167	1480.3289	1493.2195	1502.8923	1534.5916	1807.2663	2361.6218	2942.8209	3015.3112	3023.1697	3034.8341	3043.5054	3073.6828	3103.1721	3114.5009	3127.381	3632.6102
CC(CNC=O)CC#N	C[C@@H](CNC=O)CC#N	
InChI=1S/C6H10N2O/c1-6(2-3-7)4-8-5-9/h5-6H,2,4H2,1H3,(H,8,9)	InChI=1S/C6H10N2O/c1-6(2-3-7)4-8-5-9/h5-6H,2,4H2,1H3,(H,8,9)/t6-/m1/s1
