18
gdb 116120	2.65111	1.26811	0.90608	6.0022	69.2	-0.2465	0.0556	0.3022	1254.3476	0.149244	-476.268799	-476.260197	-476.259252	-476.302621	31.647	
O	-0.0975786076	 1.415458612	 0.1279498787	-0.424376
C	 0.0237619522	 0.0050796042	 0.0155668151	-0.09225
C	-1.3922532071	-0.5610000028	-0.0440755531	 0.061555
C	-1.4180622731	-2.0833236178	-0.1444535752	-0.243311
C	-2.8192271136	-2.5630699788	 0.2029508846	-0.07659
O	-3.1742867047	-2.190098213	 1.5365087866	-0.241758
C	-2.9171298205	-0.9189810644	 1.9593992153	 0.464172
O	-3.3734527939	-0.5286938253	 3.004657417	-0.395363
N	-2.1267074021	-0.154931857	 1.1446247538	-0.370956
H	 0.7626789294	 1.7841022662	 0.3469074347	 0.297305
H	 0.5699850997	-0.2815367158	-0.8965122591	 0.094686
H	 0.5478973113	-0.4234042661	 0.8827443569	 0.10043
H	-1.874993915	-0.133233907	-0.9366271889	 0.093873
H	-1.1421081963	-2.4049696721	-1.1529758755	 0.113761
H	-0.7050318107	-2.526061374	 0.5610132237	 0.118359
H	-3.5551303192	-2.1512308775	-0.5016609762	 0.113671
H	-2.8953716566	-3.6523159266	 0.1751178475	 0.123427
H	-1.9606183822	 0.7811804958	 1.4803410842	 0.263365
63.6235	121.0982	132.8297	200.4062	252.967	277.5983	371.9809	449.4129	490.0045	509.7733	558.1448	603.8623	676.4889	762.0196	813.3505	913.5574	920.2048	990.2442	995.2329	1048.4409	1086.7334	1113.7943	1122.7309	1186.873	1213.3639	1249.7168	1262.1272	1278.8909	1303.3684	1338.2968	1378.3396	1401.7967	1434.6523	1451.8978	1468.23	1482.3544	1510.4732	1513.551	1845.6673	2976.2536	2977.7756	3013.7761	3021.9706	3042.7135	3098.5493	3104.4684	3639.6149	3841.1663
OCC1CCOC(=O)N1	OC[C@H]1CCOC(=O)N1	
InChI=1S/C5H9NO3/c7-3-4-1-2-9-5(8)6-4/h4,7H,1-3H2,(H,6,8)	InChI=1S/C5H9NO3/c7-3-4-1-2-9-5(8)6-4/h4,7H,1-3H2,(H,6,8)/t4-/m1/s1
