19
gdb 68634	2.36137	1.54282	1.25115	2.9187	75.7	-0.2392	-0.0303	0.2089	1082.2801	0.15911	-423.015182	-423.007018	-423.006074	-423.048045	31.384	
C	-0.1287361661	 1.4956742103	 0.0628990099	-0.501717
C	-0.0560563335	-0.0094498168	-0.0016854274	 0.260396
C	 0.4194416283	-0.8070253394	-1.2624025962	-0.270558
C	-0.2767797662	-1.9580736565	-0.5080655522	 0.074065
O	 0.5249128809	-2.1276106714	 0.6732554368	-0.276863
C	 0.7497123998	-0.7574534186	 1.0716646787	-0.117219
C	-1.3562071707	-0.9254516952	-0.0712006878	-0.117471
C	-2.1813702883	-1.1866654785	 1.1542431129	 0.125922
O	-3.3058473079	-0.7713789301	 1.3046754438	-0.262287
H	 0.8730051223	 1.9366605716	 0.0046502002	 0.124224
H	-0.7211026245	 1.8986316464	-0.7639033665	 0.127783
H	-0.5885269255	 1.8315188877	 0.9987566807	 0.131404
H	-0.0983199834	-0.5034211965	-2.1737524845	 0.107507
H	 1.4948804956	-0.9034892247	-1.4329782153	 0.103137
H	-0.5095849877	-2.9302722265	-0.9382205666	 0.090409
H	 1.8199324442	-0.5208178165	 1.0329620385	 0.105731
H	 0.3908349456	-0.594775021	 2.0941538096	 0.106184
H	-2.0040379266	-0.5980864668	-0.8865007213	 0.095015
H	-1.6908932262	-1.8064071876	 1.9343126568	 0.094336
64.295	155.6079	200.2182	243.9861	292.1573	302.7498	407.0299	415.5577	526.8379	549.3561	592.149	683.7768	789.0268	856.9252	878.808	913.3033	939.3107	956.4366	972.6	1004.0793	1029.1357	1048.2778	1085.4867	1116.9351	1136.7802	1167.6131	1195.7409	1217.8453	1229.9967	1242.014	1269.2821	1294.1358	1331.3843	1384.0404	1416.6316	1430.7965	1488.4374	1492.9422	1493.9881	1533.8238	1812.1679	2909.9478	3023.9954	3030.4136	3063.9285	3066.2041	3093.8655	3103.5998	3106.7061	3134.9902	3145.7487
CC12CC(OC1)C2C=O	C[C@@]12C[C@@H](OC1)[C@H]2C=O	
InChI=1S/C7H10O2/c1-7-2-6(9-4-7)5(7)3-8/h3,5-6H,2,4H2,1H3	InChI=1S/C7H10O2/c1-7-2-6(9-4-7)5(7)3-8/h3,5-6H,2,4H2,1H3/t5-,6-,7-/m1/s1
