19
gdb 20300	4.62684	1.47042	1.43258	1.0498	76.26	-0.2332	0.0893	0.3225	969.3212	0.166859	-327.858997	-327.851848	-327.850904	-327.890523	27.947	
C	 0.522967759	 1.7093973185	 0.197232826	-0.223101
C	 1.0330370282	 0.4150268083	-0.3346951185	-0.223093
N	-0.3249914904	 0.5221880654	 0.1877492278	-0.060065
C	-0.5752416167	-0.0990128221	 1.4596216888	 0.066696
C	-1.9193689821	-0.0125910616	 2.1203384994	-0.098403
C	-3.0439789154	-0.0157945342	 1.0762484335	-0.216996
C	-2.5090527262	-1.3730598903	 0.5185432202	-0.217011
C	-1.3910415973	-1.353275785	 1.5695691186	-0.098441
H	 0.9180463778	 2.044829133	 1.1550328708	 0.108905
H	 0.2293243126	 2.5084025175	-0.477807129	 0.115275
H	 1.1185819388	 0.2513526788	-1.4052984813	 0.115284
H	 1.7693146239	-0.1154973137	 0.2672999265	 0.108906
H	 0.2558018341	-0.064401774	 2.1724976489	 0.065855
H	-2.0190144089	 0.3187006573	 3.1478876116	 0.078482
H	-4.0329754372	-0.1166982134	 1.5283562688	 0.09524
H	-3.0500628071	 0.8281537976	 0.3823856935	 0.104359
H	-3.2155066426	-2.190932224	 0.6756840999	 0.095239
H	-2.180751205	-1.3765605015	-0.5235275393	 0.104376
H	-1.0188677655	-2.2193295466	 2.1052553938	 0.078491
80.1272	167.9415	175.2643	290.8943	321.5067	513.7058	518.5442	740.1763	752.6942	785.7384	795.538	808.8637	867.2375	900.1064	941.6057	961.2622	969.9534	1004.3327	1010.2003	1025.0142	1047.2139	1083.3447	1114.1155	1117.9565	1127.2034	1139.2769	1153.4918	1175.103	1219.6612	1229.9531	1248.6096	1264.5043	1303.2087	1327.0174	1347.7075	1442.3786	1470.6478	1492.4832	1494.3928	1521.0069	3037.8635	3061.5521	3068.5003	3092.3936	3096.6922	3106.5605	3124.5229	3165.1366	3174.0566	3176.7472	3188.6516
C1CN1C1C2CCC12	C1CN1[C@H]1[C@H]2CC[C@@H]12	
InChI=1S/C7H11N/c1-2-6-5(1)7(6)8-3-4-8/h5-7H,1-4H2	InChI=1S/C7H11N/c1-2-6-5(1)7(6)8-3-4-8/h5-7H,1-4H2/t5-,6+,7-
