14
gdb 27125	3.35639	1.17548	0.91109	1.4529	67.07	-0.2109	-0.0009	0.21	1210.9044	0.101583	-470.016837	-470.008699	-470.007755	-470.050608	28.9	
N	-0.2406611173	 1.2796854594	 0.4270264454	-0.603257
C	-0.1275423919	-0.0659944104	 0.1053379374	 0.181979
C	-1.07156175	-0.9517706133	-0.306589685	 0.297834
O	-2.3614302975	-0.8236152486	-0.6828782781	-0.214956
C	-3.3164420711	-1.154024233	 0.2502676087	 0.115809
N	-4.5266552679	-1.0776701954	-0.0702301545	-0.419801
O	-0.476509412	-2.188789015	-0.4391586829	-0.165828
C	 0.8018866447	-1.9662242064	-0.0849458498	 0.082911
N	 1.0752740124	-0.7437892257	 0.2450196076	-0.301563
H	 0.6493005689	 1.7547271779	 0.3555605427	 0.259947
H	-0.9560633233	 1.7626020739	-0.0999768077	 0.258101
H	-2.8757992086	-1.4509261019	 1.2085176582	 0.111548
H	-5.1172113138	-1.3419167923	 0.7155921347	 0.241863
H	 1.4696854175	-2.812796689	-0.1059697268	 0.155414
42.468	112.6671	131.5566	227.676	273.2812	302.9043	417.0926	451.1774	519.958	636.2062	674.6814	703.4781	768.4376	821.1969	827.8549	840.7945	953.2791	1007.297	1047.7002	1049.6048	1144.1502	1185.2517	1249.0661	1315.0212	1324.0763	1397.5965	1423.4874	1552.6852	1635.9912	1725.1831	1764.4855	3064.3842	3277.3219	3524.9722	3549.0718	3647.8418
NC1=C(OC=N)OC=N1	Nc1c(O[CH][NH])ocn1	
InChI=1S/C4H5N3O2/c5-1-8-4-3(6)7-2-9-4/h1-2,5H,6H2	InChI=1S/C4H5N3O2/c5-1-8-4-3(6)7-2-9-4/h1-2,5H,6H2
