21
gdb 122122	2.54298	0.71767	0.58494	1.4119	77.09	-0.2442	-0.0311	0.2131	1884.2741	0.178486	-461.352414	-461.341115	-461.340171	-461.390471	38.105	
C	-0.3043260048	 1.3803883459	 0.2939972807	-0.242742
O	 0.025442344	 0.005968632	 0.3005202138	-0.240454
C	 0.5446272728	-0.4586770223	-0.9281247972	 0.031772
C	 1.2324446612	-1.8093020058	-0.6845625864	-0.218151
C	 2.4203510003	-1.7006636185	 0.275086614	-0.172248
C	 3.0770644059	-3.0479938178	 0.5452047751	-0.07718
O	 4.1601018592	-2.8309168257	 1.436275516	-0.420627
C	-0.5788141143	-0.6475226404	-1.9458546604	 0.133801
O	-0.4196509996	-0.6811366437	-3.1375459579	-0.245358
H	 0.5790109881	 2.0048647216	 0.0935387329	 0.115604
H	-1.0725660492	 1.6217429889	-0.4561656404	 0.112545
H	-0.6946836673	 1.6225517171	 1.2848443658	 0.13484
H	 1.2738645655	 0.2534301461	-1.3466755086	 0.089515
H	 0.4875854917	-2.5096480836	-0.2844330765	 0.107721
H	 1.5521118311	-2.199647796	-1.6575979694	 0.119015
H	 3.1759135687	-1.0215366971	-0.1385372133	 0.104595
H	 2.0891628442	-1.2695238305	 1.22416354	 0.126193
H	 2.3370237557	-3.742055085	 0.9771469038	 0.085368
H	 3.4234349061	-3.4926945208	-0.4026706467	 0.08425
H	 4.5829768687	-3.6771762241	 1.6080568721	 0.285876
H	-1.5786526581	-0.7937188403	-1.4730971573	 0.085665
53.6188	65.86	75.3728	86.0573	145.104	154.4669	184.6037	247.218	256.8346	269.9224	293.2141	388.7783	479.4472	515.6343	561.5122	758.0018	840.2985	916.2263	966.6354	995.0126	1046.6938	1067.2426	1075.7625	1099.8415	1139.2595	1158.4399	1184.015	1207.1548	1226.9832	1244.1506	1277.133	1306.6178	1316.5842	1323.5126	1352.0766	1388.5383	1400.343	1464.1989	1477.3561	1482.7114	1489.1755	1501.9466	1507.6952	1529.5106	1836.8396	2861.3774	2956.0967	2977.9738	2981.2861	2986.1891	3024.2945	3029.8966	3042.0941	3071.8081	3103.7552	3122.7353	3831.0214
COC(CCCO)C=O	CO[C@@H](CCCO)C=O	
InChI=1S/C6H12O3/c1-9-6(5-8)3-2-4-7/h5-7H,2-4H2,1H3	InChI=1S/C6H12O3/c1-9-6(5-8)3-2-4-7/h5-7H,2-4H2,1H3/t6-/m0/s1
