17
gdb 124856	3.61459	1.34439	1.06882	2.2211	74.6	-0.2652	-0.0205	0.2447	1120.5229	0.136699	-418.007081	-417.999219	-417.998275	-418.039832	29.482	
C	 0.0654205491	 1.5120959926	-0.169870906	-0.461285
C	-0.0057883285	 0.0054816351	-0.0192134503	 0.194655
C	 1.2816917163	-0.808847712	-0.0762179471	-0.291095
C	 0.5730680026	-0.6444967613	 1.232363125	-0.291093
C	-1.2100493329	-0.6086991274	-0.5941967341	 0.433657
N	-2.1988538311	-0.014880817	-1.2041901484	-0.341635
C	-3.0158333738	-1.0723141264	-1.5139373652	 0.031107
N	-2.5891216843	-2.244459019	-1.1353469319	-0.117824
O	-1.368088276	-1.9403802712	-0.512541893	-0.216752
H	 0.9869580027	 1.8899283478	 0.2816998756	 0.11338
H	 0.051637922	 1.8034682011	-1.2237870277	 0.136959
H	-0.7838813471	 1.997247647	 0.3191494987	 0.13696
H	 1.2401783066	-1.7781446981	-0.5581854286	 0.139201
H	 2.1935913206	-0.2481145591	-0.248121116	 0.12472
H	 0.9924393181	 0.0304680363	 1.9699833254	 0.124719
H	 0.0506654923	-1.5022615798	 1.6384273727	 0.139202
H	-3.9556329567	-0.9649014787	-2.036258759	 0.145123
58.8207	166.6861	184.6327	210.8509	303.5207	320.2409	432.8186	448.6104	542.0722	652.0774	776.6408	790.5497	840.1514	841.6786	912.9522	931.9167	957.7047	964.1034	981.4131	1013.0486	1052.1329	1075.2208	1087.4208	1122.9332	1178.3926	1199.6659	1199.9153	1279.112	1316.2835	1363.3222	1420.7467	1463.4197	1484.1917	1491.6367	1499.0239	1531.4878	1612.8642	3044.7818	3117.27	3119.2408	3141.2647	3144.0338	3228.3044	3242.0273	3258.6584
CC1(CC1)C1=NC=NO1	CC1(CC1)c1ncno1	
InChI=1S/C6H8N2O/c1-6(2-3-6)5-7-4-8-9-5/h4H,2-3H2,1H3	InChI=1S/C6H8N2O/c1-6(2-3-6)5-7-4-8-9-5/h4H,2-3H2,1H3
