20
gdb 111775	3.36276	1.03972	0.93582	1.0499	74.54	-0.2407	0.063	0.3036	1307.3983	0.170926	-440.223914	-440.214695	-440.213751	-440.258224	34.398	
O	-0.1267904451	 1.3734963083	-0.4408743823	-0.418755
C	 0.0875479977	 0.0889144984	 0.1248509524	-0.093594
C	-1.2067858026	-0.67635045	 0.2616303714	-0.073713
N	-1.9316827163	-1.288200152	-0.8889808887	-0.212695
C	-0.9035079529	-1.9337386368	-1.7870054232	-0.15994
C	-0.3919442456	-2.8620652054	-0.6619337439	-0.306438
C	-1.3780387914	-2.1420110177	 0.2640258283	 0.282758
C	-2.3303512038	-2.8666617092	 1.1741025355	-0.159186
O	-3.0609509049	-3.8625201793	 0.4771168181	-0.415568
H	-0.6565926304	 1.2535676919	-1.2363880232	 0.291621
H	 0.8414378872	-0.4759465678	-0.4393166752	 0.093872
H	 0.503739616	 0.2640816739	 1.1230274883	 0.116674
H	-1.9239243399	-0.1427532187	 0.8836997372	 0.102753
H	-1.4174430365	-2.4597492241	-2.5935033708	 0.114162
H	-0.1877195375	-1.2359443385	-2.2330014759	 0.104093
H	-0.6827734028	-3.9017925446	-0.8160319185	 0.128077
H	 0.6661679235	-2.8211426328	-0.3909369286	 0.104762
H	-1.7778502621	-3.3888477535	 1.9641525141	 0.114897
H	-3.0007195833	-2.1412068144	 1.6595526116	 0.094923
H	-3.5127082794	-3.4062869777	-0.2430731565	 0.291298
68.0972	78.3698	155.741	171.0633	261.6059	303.5398	309.9872	333.516	363.8241	448.0785	547.1889	605.239	643.8811	703.0463	788.7571	802.8654	869.2681	930.8851	954.6835	976.7501	1008.7264	1049.5321	1061.1781	1088.1446	1115.1981	1124.4751	1174.8765	1189.9557	1218.8669	1228.6087	1248.8813	1281.2434	1310.9084	1327.407	1356.3524	1389.6817	1417.1411	1422.5568	1476.5426	1485.9673	1489.6478	1502.1393	1523.3112	2990.2606	3014.8628	3052.1405	3062.8717	3066.6074	3068.4659	3107.4701	3125.3577	3134.7764	3788.2695	3808.8484
OCC1N2CCC12CO	OC[C@H]1N2CC[C@@]12CO	
InChI=1S/C6H11NO2/c8-3-5-6(4-9)1-2-7(5)6/h5,8-9H,1-4H2	InChI=1S/C6H11NO2/c8-3-5-6(4-9)1-2-7(5)6/h5,8-9H,1-4H2/t5-,6-,7?/m1/s1
