19
gdb 72530	2.69548	1.73346	1.72758	1.1692	74.93	-0.2425	0.0024	0.2449	932.2647	0.160718	-423.027873	-423.020474	-423.01953	-423.059068	30.351	
C	 0.0239842013	 1.5094742926	 0.0577418996	-0.471725
C	-0.0272455136	-0.0038336939	-0.0223644611	 0.312408
C	 0.7017131758	-0.5668948078	-1.2624658352	-0.077486
O	 0.681301712	-1.9937819741	-1.2293176406	-0.278502
C	-0.0106403775	-2.482099148	-0.0651849739	 0.018191
C	 0.7370905359	-1.934943618	 1.1621474825	-0.068399
O	 0.694935829	-0.5091450568	 1.1290306463	-0.305752
C	-1.4133597741	-1.9288146714	-0.0370389657	-0.086525
C	-1.420333323	-0.5960531159	-0.0186154622	-0.091263
H	 1.0597224015	 1.8590100933	 0.0590947481	 0.126959
H	-0.4983679128	 1.9577541024	-0.7928687774	 0.118723
H	-0.4537085636	 1.8523273256	 0.9797282713	 0.130319
H	 0.2259381379	-0.2168431727	-2.1882592563	 0.095019
H	 1.7454810024	-0.226213755	-1.2489043705	 0.099716
H	 0.0385713032	-3.5705012448	-0.1148303964	 0.080681
H	 0.2823086349	-2.2954052467	 2.0946394008	 0.09625
H	 1.7841114024	-2.2622927453	 1.1274661815	 0.103166
H	-2.2906581617	-2.5649651152	-0.0246508369	 0.101457
H	-2.3051645802	 0.0310945317	-0.0088965839	 0.096761
189.8379	201.1726	271.8815	286.8143	352.6602	389.7466	427.0356	450.608	564.3345	608.8283	669.3228	721.7116	743.9034	841.2697	858.0903	893.4765	932.7197	951.8009	960.3447	995.1068	1011.4263	1048.6585	1086.2836	1088.3946	1134.0551	1156.6694	1204.536	1229.523	1242.057	1264.602	1303.1488	1330.1643	1376.6434	1391.606	1404.0882	1410.2554	1482.4007	1496.3337	1508.2198	1513.0815	1677.2468	3000.9305	3005.2728	3042.8059	3044.9516	3047.2585	3110.6921	3118.9891	3124.0174	3178.1017	3203.8832
CC12COC(CO1)C=C2	C[C@@]12CO[C@@H](CO1)C=C2	
InChI=1S/C7H10O2/c1-7-3-2-6(4-9-7)8-5-7/h2-3,6H,4-5H2,1H3	InChI=1S/C7H10O2/c1-7-3-2-6(4-9-7)8-5-7/h2-3,6H,4-5H2,1H3/t6-,7-/m1/s1
