23
gdb 119910	2.74552	0.95935	0.90463	1.8648	83.54	-0.2235	0.0712	0.2948	1486.9791	0.202195	-425.406691	-425.395578	-425.394634	-425.443004	40.206	
C	-0.1803355312	 1.4847489268	 0.2444406998	-0.389266
C	-0.1807809285	-0.0283291302	 0.3685019032	-0.047076
O	-1.310508741	-0.537624115	-0.3397763802	-0.270506
C	-1.4086345999	-1.9333845738	-0.2732212444	 0.026984
C	-2.3638078096	-2.4618736035	 0.7772339569	 0.064219
O	-2.9877402637	-1.5257005459	 1.6030221849	-0.437912
C	-2.7198952027	-2.5593907311	-0.7017561382	 0.210058
C	-3.8204114579	-1.6810648396	-1.260012898	-0.440019
C	-2.6180253419	-3.9342191202	-1.3352374288	-0.451087
H	 0.6885597024	 1.906221759	 0.7583593511	 0.120431
H	-0.1420257564	 1.7834486097	-0.8068104581	 0.131419
H	-1.0837317023	 1.912969826	 0.688951333	 0.124567
H	 0.7397595455	-0.4533557433	-0.0609574915	 0.097142
H	-0.2241198801	-0.3401608706	 1.4224351931	 0.104817
H	-0.4777333534	-2.4555822897	-0.4970541866	 0.079643
H	-2.1326723211	-3.3772206038	 1.3149679539	 0.092425
H	-2.7333934022	-0.6571902221	 1.2635484863	 0.29032
H	-3.8825093674	-0.7203706961	-0.7482029343	 0.118457
H	-3.6557398064	-1.4820308183	-2.3247707358	 0.114129
H	-4.7905031857	-2.1796814441	-1.1567563571	 0.115595
H	-3.5578627049	-4.4859482807	-1.2176308178	 0.118675
H	-2.4019833033	-3.8618394499	-2.4079030083	 0.11617
H	-1.8239266782	-4.5335455236	-0.8772483132	 0.110815
65.9835	79.4121	112.9691	118.8199	194.1857	205.4284	229.4734	255.0427	271.01	299.5038	322.7756	410.6499	441.0268	506.2509	515.3795	678.6152	715.0372	821.642	835.1414	858.1057	904.1912	974.0228	1003.514	1018.4774	1027.2323	1068.3351	1092.5343	1134.3688	1148.9257	1172.5716	1183.6142	1191.6758	1242.3514	1295.5389	1317.2212	1323.96	1367.6132	1405.5584	1408.8495	1422.5703	1431.0609	1463.2403	1477.8616	1484.4897	1489.9032	1498.2069	1499.5501	1511.7265	1527.7206	2981.8721	3016.3129	3019.0045	3034.1308	3045.1939	3082.1449	3087.2821	3089.4554	3093.5407	3117.8767	3123.4562	3140.5951	3146.0769	3753.0519
CCOC1C(O)C1(C)C	CCO[C@H]1[C@@H](O)C1(C)C	
InChI=1S/C7H14O2/c1-4-9-6-5(8)7(6,2)3/h5-6,8H,4H2,1-3H3	InChI=1S/C7H14O2/c1-4-9-6-5(8)7(6,2)3/h5-6,8H,4H2,1-3H3/t5-,6+/m1/s1
