19
gdb 17519	4.4386	1.69889	1.56915	1.6452	74.01	-0.2384	0.0732	0.3115	901.7231	0.166694	-327.878552	-327.871343	-327.870399	-327.909941	28.289	
C	-0.0740427371	 1.5232909462	 0.0704428209	-0.387111
C	 0.024438209	-0.0063719768	 0.0098142135	-0.291793
C	 0.7179424538	-0.4953878673	-1.2319217805	 0.360077
C	 0.0737354446	-0.3873234381	-2.6360110907	-0.278721
C	 0.828030133	-1.6721158885	-2.9122069937	-0.039026
C	 2.1412215029	-1.6158319424	-2.2009672902	-0.039026
C	 2.2356702258	-0.2946656284	-1.4650767492	-0.278721
N	 0.9061880855	-2.0423116874	-1.4570708393	-0.197399
H	 0.9179286421	 1.9874236208	 0.0599902216	 0.120853
H	-0.6358954162	 1.9207441664	-0.7815475111	 0.120854
H	-0.5824335562	 1.8456310456	 0.9836015281	 0.117913
H	 0.5653258331	-0.3836992523	 0.8865598379	 0.104471
H	-0.9781573608	-0.4499430311	 0.0506135525	 0.104473
H	-1.0041845026	-0.5673580939	-2.589605393	 0.106265
H	 0.2768457265	 0.5022984494	-3.2420338555	 0.093607
H	 0.6168379358	-2.4228198602	-3.665822548	 0.091707
H	 2.9361192439	-2.3234151577	-2.4096742287	 0.091707
H	 2.5731131193	 0.6007145558	-1.9983415653	 0.093607
H	 2.7953599675	-0.4045149502	-0.5317183391	 0.106265
76.1597	171.2627	211.6374	327.774	341.5156	432.4342	440.3778	632.418	730.3129	767.0744	793.6084	806.0634	823.854	861.9655	905.4058	969.7035	985.2939	1014.1387	1020.9814	1022.3622	1035.0637	1060.4162	1095.2242	1106.0073	1120.7049	1160.9983	1214.5191	1244.4296	1246.1814	1293.3865	1317.4787	1346.0679	1373.0087	1379.9752	1412.1906	1484.7582	1486.4841	1501.6851	1504.4007	1508.2763	3024.9328	3032.9536	3034.3834	3039.9388	3058.0159	3094.7776	3097.0111	3101.2744	3109.3948	3170.0435	3181.9934
CCC12CC3C(C1)N23	CC[C@@]12C[C@H]3[C@@H](C1)N23	
InChI=1S/C7H11N/c1-2-7-3-5-6(4-7)8(5)7/h5-6H,2-4H2,1H3	InChI=1S/C7H11N/c1-2-7-3-5-6(4-7)8(5)7/h5-6H,2-4H2,1H3/t5-,6+,7+,8?
