23
gdb 102507	2.16348	1.1092	0.78169	1.1422	88.43	-0.254	0.0552	0.3092	1520.7747	0.202473	-388.255898	-388.244465	-388.243521	-388.292708	41.473	
C	-0.4672649675	 1.3964894328	-0.1088621564	-0.380962
C	-0.0188436597	-0.0692353282	-0.0507640501	-0.191875
C	 0.8039761231	-0.4688740594	 1.1902982838	 0.044082
C	 0.0473166066	-0.2228783617	 2.5032811796	-0.097047
O	 0.0708499631	 1.1682897974	 2.8031905065	-0.418521
C	 1.251694077	-1.9638175688	 1.1214208238	-0.161827
C	 1.9604214199	-2.3465821614	-0.1967816526	-0.402285
C	 2.1259755992	-2.307197694	 2.2457564524	 0.320586
C	 2.8783247763	-2.5930607103	 3.1397463875	-0.466407
H	 0.3935709	 2.071740078	-0.0661089815	 0.115877
H	-0.9995407583	 1.5888389266	-1.0463637459	 0.098931
H	-1.1208748895	 1.6598633703	 0.7236719141	 0.128097
H	-0.9007580951	-0.7241036263	-0.1102522033	 0.087225
H	 0.5709758423	-0.2758370493	-0.9493212486	 0.098165
H	 1.7124417757	 0.1465344465	 1.2306555234	 0.090979
H	-0.988760417	-0.5896470902	 2.4009546226	 0.078015
H	 0.523310696	-0.7938737138	 3.3107965149	 0.105613
H	-0.3564700616	 1.2943221549	 3.6553497767	 0.285166
H	 0.3449137713	-2.5827301712	 1.2020588641	 0.101276
H	 1.2792893681	-2.2914317959	-1.0481568259	 0.12118
H	 2.8103746814	-1.683209779	-0.3853972817	 0.126066
H	 2.3403610753	-3.3691476131	-0.13256966	 0.125411
H	 3.5327537734	-2.8469498141	 3.9363975966	 0.192256
48.3658	71.2195	95.6759	156.3154	191.2381	206.9956	232.325	251.4939	268.57	291.6396	347.3277	373.4843	420.4376	426.445	549.5489	579.9605	623.9254	633.7859	783.8364	836.3481	846.2156	927.5097	972.3153	986.7112	1027.4765	1055.1476	1073.0914	1102.1492	1138.0558	1144.9632	1168.3348	1242.007	1265.9646	1275.258	1317.5265	1327.2884	1350.6141	1360.8133	1386.6086	1407.2051	1418.834	1463.4434	1484.4192	1495.7062	1498.7446	1504.3527	1507.0608	1521.0838	2228.5272	2951.8127	2987.645	3001.615	3028.8442	3036.1859	3039.5079	3046.9778	3069.4145	3099.8273	3118.9913	3133.0329	3141.771	3504.7915	3828.7159
CCC(CO)C(C)C#C	CC[C@@H](CO)[C@@H](C)C#C	
InChI=1S/C8H14O/c1-4-7(3)8(5-2)6-9/h1,7-9H,5-6H2,2-3H3	InChI=1S/C8H14O/c1-4-7(3)8(5-2)6-9/h1,7-9H,5-6H2,2-3H3/t7-,8-/m0/s1
