21
gdb 109694	2.36721	1.19433	1.01132	1.4691	75.6	-0.2232	0.0692	0.2924	1308.2992	0.178375	-461.315355	-461.304435	-461.303491	-461.35116	38.725	
C	 0.0478334207	 1.0812927563	 0.2670104131	-0.237171
O	-0.287466259	-0.0014972106	-0.584256183	-0.253874
C	-1.4271774628	-0.697402702	-0.1898525185	-0.021329
C	-1.5087244592	-2.0899296249	-0.7597874435	 0.021763
O	-0.453363067	-2.5392113703	-1.5527615047	-0.432107
C	-1.3139655842	-1.8914582231	 0.7404233146	 0.312701
C	 0.0020159652	-2.2566628272	 1.3842880034	-0.455468
O	-2.4655072737	-2.0435460064	 1.5259253969	-0.275532
C	-2.8276562933	-3.3892849496	 1.779589427	-0.248426
H	 0.9414584637	 1.5515296788	-0.1493181358	 0.130385
H	-0.7640801728	 1.8212919938	 0.3019984189	 0.117017
H	 0.2576389881	 0.7420092286	 1.2892575683	 0.121904
H	-2.337395104	-0.1022604922	-0.1137124175	 0.098016
H	-2.483049333	-2.4411949945	-1.0909076369	 0.102322
H	 0.0809296582	-1.7634942354	-1.7665089298	 0.300458
H	 0.8352836895	-1.9553694844	 0.7482592179	 0.129696
H	 0.0998275926	-1.7621835968	 2.3561101922	 0.117922
H	 0.0838738209	-3.3372898647	 1.5393146239	 0.122617
H	-3.7999189365	-3.3663844055	 2.2776718427	 0.12546
H	-2.9137705049	-3.9690248689	 0.8500123598	 0.112267
H	-2.1081699886	-3.8949119011	 2.438041041	 0.11138
92.6593	109.422	132.0896	140.6875	154.683	181.9382	195.4733	216.0895	275.4305	315.8859	351.7937	392.7526	440.4114	498.1251	567.5132	628.4002	729.8118	854.841	902.8682	938.6249	1000.3379	1040.5113	1086.5924	1101.1219	1114.6686	1158.6899	1178.8798	1182.8576	1192.9384	1207.1818	1227.6811	1250.608	1307.4455	1326.3717	1381.3794	1406.7958	1440.541	1473.092	1480.7144	1485.7323	1485.9172	1490.483	1503.9422	1507.5029	1511.0122	2995.3731	2999.9832	3040.1617	3048.841	3059.0851	3099.5866	3103.2334	3116.0174	3124.1247	3136.0315	3144.2639	3768.5532
COC1C(O)C1(C)OC	CO[C@H]1[C@@H](O)[C@]1(C)OC	
InChI=1S/C6H12O3/c1-6(9-3)4(7)5(6)8-2/h4-5,7H,1-3H3	InChI=1S/C6H12O3/c1-6(9-3)4(7)5(6)8-2/h4-5,7H,1-3H3/t4-,5+,6+/m1/s1
