23
gdb 61764	2.52604	1.02336	0.89674	4.0002	83.21	-0.2746	0.01	0.2847	1435.9555	0.201821	-425.46666	-425.455515	-425.454571	-425.503034	40.615	
C	 0.0765793734	 1.6515346386	 0.0099810451	-0.411134
C	-0.0004292336	 0.1270259907	 0.0180038455	 0.114341
O	 0.7209386255	-0.3401237717	 1.183071518	-0.195338
C	 1.9628028866	-0.8241431611	 1.0208087737	 0.167282
O	 2.6411196778	-1.1941447729	 1.9324168288	-0.280656
C	-1.4201520092	-0.4970636003	 0.0514820368	 0.255076
C	-2.1951261632	-0.0577426996	-1.2053977972	-0.419877
C	-1.2806948966	-2.0320285331	 0.0342273379	-0.419293
C	-2.1869906996	-0.0694084657	 1.3165295087	-0.41379
H	 1.122485937	 1.9693186673	-0.0340055136	 0.124214
H	-0.4383323938	 2.0700542563	-0.8579560364	 0.126686
H	-0.3627603864	 2.0730262254	 0.9171464947	 0.139069
H	 0.5102446726	-0.2613475684	-0.8753629731	 0.080625
H	 2.2800108084	-0.8465815078	-0.0410255904	 0.073599
H	-1.645257476	-0.2986785962	-2.1225985852	 0.110501
H	-3.1562931462	-0.5793408625	-1.2517461698	 0.118384
H	-2.4059027915	 1.0154538347	-1.208135525	 0.116929
H	-0.7574468633	-2.3966249774	 0.9213347024	 0.135079
H	-2.268739709	-2.5022917292	 0.0087090474	 0.113672
H	-0.7300075358	-2.3711906711	-0.8512084048	 0.104861
H	-2.3845258063	 1.0068522264	 1.3298342299	 0.111133
H	-3.1547986227	-0.5794010007	 1.3593276895	 0.111898
H	-1.6276585976	-0.3258636417	 2.2198579671	 0.136737
42.9762	62.2179	144.9131	186.5608	200.9868	246.7601	257.3507	269.4139	278.1134	309.7832	327.3412	357.6248	393.2662	415.6265	479.0799	542.1441	662.8657	745.2541	870.622	930.7066	936.7164	942.3835	961.5733	1011.5965	1023.2068	1047.1434	1080.6948	1100.3715	1130.3315	1193.7304	1238.7379	1251.734	1284.7843	1362.9683	1371.924	1397.3398	1399.2407	1413.6229	1430.9798	1440.3392	1478.4463	1485.0463	1490.673	1491.1689	1500.6391	1508.9904	1513.0196	1523.1347	1860.631	2935.5623	2999.388	3027.2254	3031.6233	3040.9773	3053.2	3092.4619	3097.5666	3101.5757	3108.1423	3120.343	3121.9051	3125.2664	3139.2821
CC(OC=O)C(C)(C)C	C[C@@H](OC=O)C(C)(C)C	
InChI=1S/C7H14O2/c1-6(9-5-8)7(2,3)4/h5-6H,1-4H3	InChI=1S/C7H14O2/c1-6(9-5-8)7(2,3)4/h5-6H,1-4H3/t6-/m1/s1
