17
gdb 22759	2.83253	1.06515	0.807	3.625	75.66	-0.2496	-0.017	0.2327	1369.1135	0.134035	-455.109512	-455.100232	-455.099287	-455.144156	32.873	
C	-0.2645258114	 1.435384465	 0.1532042791	-0.392116
C	 0.0379739828	-0.0495762633	-0.0028044737	-0.058765
N	 0.9042667632	-0.4245125338	-1.1509863357	-0.065214
C	 1.958925738	-1.0496797874	-0.3348418619	-0.265432
C	 1.1366225368	-0.6387799906	 0.872528155	 0.387795
N	 1.2391902351	-0.6867433241	 2.129201141	-0.223772
O	 2.4368596387	-1.3030757293	 2.5160438326	-0.385067
C	 0.6006379808	-0.6917073954	-2.4444340606	 0.132862
O	 1.3242841408	-1.2961494169	-3.2074002991	-0.32369
H	 0.6555038105	 2.0246317913	 0.116765356	 0.129999
H	-0.9320965041	 1.7803506735	-0.6421009549	 0.127586
H	-0.7550721773	 1.6119937793	 1.1149074995	 0.139724
H	-0.8908957907	-0.6352675376	 0.0263184421	 0.112128
H	 2.060696212	-2.1290171692	-0.4946448633	 0.150609
H	 2.946051994	-0.5846320062	-0.423697933	 0.147749
H	 2.385597375	-1.2720516106	 3.4777828464	 0.313085
H	-0.3851043642	-0.2744389747	-2.7357049395	 0.072517
56.1347	119.1706	137.8862	163.3454	201.4649	254.587	299.0139	326.4093	368.5211	432.249	477.7631	526.6375	633.8806	710.6203	810.3326	861.9914	973.9902	987.1175	1030.4246	1039.7439	1050.981	1119.758	1130.3244	1135.2804	1187.314	1263.8482	1286.046	1356.5062	1384.5989	1404.6767	1414.2306	1438.4741	1487.1734	1491.2785	1493.1289	1792.3457	1816.2004	2924.81	3014.6829	3042.5375	3043.6454	3084.7499	3118.3615	3127.5804	3814.5304
CC1N(CC1=NO)C=O	C[C@H]1N(CC1=NO)C=O	
InChI=1S/C5H8N2O2/c1-4-5(6-9)2-7(4)3-8/h3-4,9H,2H2,1H3	InChI=1S/C5H8N2O2/c1-4-5(6-9)2-7(4)3-8/h3-4,9H,2H2,1H3/t4-/m1/s1
