22
gdb 100720	2.79243	0.97319	0.77445	4.927	78.43	-0.2505	0.015	0.2655	1518.617	0.193431	-441.526678	-441.516212	-441.515268	-441.562664	38.443	
C	 0.0046858909	 1.5964316089	 0.1395790256	-0.38984
C	-0.0612564919	 0.0780576427	-0.0599850236	-0.1809
C	 0.8371486211	-0.4536295232	-1.1954581586	 0.037767
C	 2.3179583229	-0.1306891629	-0.9342366993	-0.407673
C	 0.6446690484	-1.9816042943	-1.4024885901	-0.14853
N	-0.7331957654	-2.5047263053	-1.3137280083	-0.546826
H	-1.0432181224	-2.5653646876	-0.3510758952	 0.249279
H	-1.3828498384	-1.8902895523	-1.797023832	 0.246683
H	-0.1447017394	-3.7150089403	-2.6004784872	 0.305377
C	 1.2365516006	-2.4900075088	-2.745718401	 0.434799
O	 2.1714847343	-1.992621106	-3.3163587119	-0.331947
O	 0.6116531381	-3.5777679946	-3.2138375535	-0.366235
H	 0.9918085672	 1.9250426475	 0.474614891	 0.126289
H	-0.2247084132	 2.1264065454	-0.7917479018	 0.117724
H	-0.7218163299	 1.9181536723	 0.8920905767	 0.113186
H	 0.2113633721	-0.4250213332	 0.8795606178	 0.09003
H	-1.1044855226	-0.1933861408	-0.2579145188	 0.076215
H	 0.5365171401	 0.0451736357	-2.1284155446	 0.080171
H	 2.9461209672	-0.5414038768	-1.7232307836	 0.161885
H	 2.4831368993	 0.948832606	-0.8913689353	 0.113418
H	 2.6381415939	-0.5535177765	 0.0269949153	 0.101566
H	 1.2161382071	-2.502898236	-0.6213232417	 0.117561
52.8427	62.767	95.5665	180.8665	206.2233	235.5402	279.549	317.5192	345.6196	352.652	384.8376	406.2947	474.7661	552.9895	605.287	729.9248	780.4783	829.7231	843.4388	870.3412	895.9085	965.6717	985.8022	990.2748	1047.6375	1077.2005	1112.8665	1153.8583	1175.8305	1197.1015	1212.551	1259.4786	1303.2327	1339.7124	1357.7378	1380.6339	1393.6433	1404.4374	1412.1284	1424.9269	1486.1154	1492.9661	1499.7492	1509.7333	1522.9334	1657.3364	1858.9679	2995.7189	3005.1546	3019.8419	3029.7912	3036.7274	3052.4693	3100.322	3103.2123	3119.094	3165.2963	3460.1297	3500.892	3592.1037
CCC(C)C([NH3+])C([O-])=O	CC[C@@H](C)[C@@H](N)C(=O)O	
InChI=1S/C6H13NO2/c1-3-4(2)5(7)6(8)9/h4-5H,3,7H2,1-2H3,(H,8,9)	InChI=1S/C6H13NO2/c1-3-4(2)5(7)6(8)9/h4-5H,3,7H2,1-2H3,(H,8,9)/t4-,5-/m1/s1
