23
gdb 121733	6.54482	0.48246	0.45689	1.0969	83.58	-0.2435	-0.0089	0.2346	2429.5161	0.202404	-425.451981	-425.440336	-425.439392	-425.490794	39.837	
C	 0.1465856535	 1.5270610779	 0.0083406754	-0.379947
C	 0.0278385224	 0.0005926141	 0.0015588403	-0.170658
C	-1.4255750295	-0.483896238	 0.0127469636	-0.153314
C	-1.5479288718	-2.0071187982	 0.0060169451	-0.299518
C	-2.9840223539	-2.514714432	 0.0171085449	 0.358838
O	-3.932605138	-1.7605972961	 0.0304333761	-0.30311
C	-3.1652322356	-4.0244708596	 0.0106107069	-0.279115
C	-4.6237100459	-4.456799413	 0.0221345475	-0.074198
O	-4.639972269	-5.8774347143	 0.0146132863	-0.425527
H	 1.1931536874	 1.8471508691	 0.0001467331	 0.110511
H	-0.3435451712	 1.9650344965	-0.868151879	 0.115766
H	-0.3269199035	 1.9558915394	 0.8983880587	 0.115768
H	 0.5406341101	-0.4029895817	-0.8820567927	 0.092509
H	 0.5571478074	-0.4120659249	 0.8711335174	 0.09251
H	-1.9453144691	-0.0864378876	 0.8923082626	 0.108262
H	-1.9617463832	-0.0773940968	-0.8527103063	 0.108241
H	-1.0449631649	-2.4382960153	-0.8718011674	 0.118237
H	-1.0284302763	-2.4472776049	 0.8696444525	 0.118253
H	-2.6584322704	-4.4429751122	-0.8689053195	 0.128396
H	-2.6418760778	-4.4524160332	 0.8757774706	 0.128404
H	-5.1223270338	-4.0479468779	 0.9122816597	 0.101343
H	-5.1391111685	-4.0384165922	-0.853918729	 0.101333
H	-5.5577275184	-6.1639910491	 0.0220377531	 0.287013
36.2669	47.2917	82.2584	82.6568	101.0708	131.4497	187.0752	241.8502	273.7947	273.8107	311.4632	386.0051	469.6852	473.5588	685.0843	707.8452	749.2255	813.5614	873.9964	912.6569	914.5372	982.4419	1017.7693	1038.1812	1054.3152	1073.387	1097.0148	1141.3304	1143.5435	1208.3874	1241.4582	1252.1233	1285.4514	1300.3557	1319.192	1328.8448	1345.148	1376.7868	1400.6286	1413.9111	1445.5271	1454.1447	1471.5265	1484.221	1495.4556	1498.9443	1512.0322	1522.886	1797.9881	2997.6064	3006.7708	3010.8356	3024.8109	3030.0249	3030.7829	3032.4935	3036.9067	3041.0768	3064.8906	3079.4744	3098.085	3102.2558	3830.8278
CCCCC(=O)CCO	CCCCC(=O)CCO	
InChI=1S/C7H14O2/c1-2-3-4-7(9)5-6-8/h8H,2-6H2,1H3	InChI=1S/C7H14O2/c1-2-3-4-7(9)5-6-8/h8H,2-6H2,1H3
