21
gdb 6088	4.40825	0.89341	0.77144	3.3858	75.74	-0.2432	0.0357	0.2789	1500.8904	0.186765	-366.313776	-366.303424	-366.30248	-366.350074	36.484	
C	-0.020505947	 1.5343851411	 0.2100429046	-0.38029
C	-0.0440773654	 0.0149291293	-0.0116910654	 0.035333
C	-1.4892878687	-0.4972438973	-0.0778948582	-0.388691
C	 0.7295725084	-0.413004021	-1.2699103133	-0.153057
C	 2.2284980147	-0.0995047893	-1.2380218035	-0.324548
C	 2.9879828839	-0.8068631391	-2.3612263434	 0.409336
N	 4.1023096097	-0.1499487398	-2.8025523393	-0.521875
O	 2.6429835669	-1.8763846038	-2.8251500275	-0.358705
H	 0.9958400758	 1.9173950989	 0.3455703231	 0.107028
H	-0.4638608482	 2.0592981479	-0.6451671402	 0.110478
H	-0.5957818805	 1.8092241599	 1.1003622178	 0.110095
H	 0.4414137426	-0.4598592424	 0.854248751	 0.068393
H	-2.0225530904	-0.0538790772	-0.9274715748	 0.111649
H	-1.5212382113	-1.5849958108	-0.1978115974	 0.113741
H	-2.0439578626	-0.2409760847	 0.8309356471	 0.106822
H	 0.6238487842	-1.4916876737	-1.4209812226	 0.123385
H	 0.2786632918	 0.0618114608	-2.1521561518	 0.093862
H	 2.4182831573	 0.9786886926	-1.2774496876	 0.098736
H	 2.6599331281	-0.4553828988	-0.2912540856	 0.124444
H	 4.4316382319	 0.6958913707	-2.3723625627	 0.25547
H	 4.6942483287	-0.6151910732	-3.4712256902	 0.258394
29.3167	65.8622	107.201	142.496	154.8828	228.4207	248.7344	257.2361	325.7481	409.4707	417.5222	469.5634	527.8182	609.4169	671.4153	781.1395	822.0186	871.4166	926.6272	947.0911	964.8872	975.537	1060.332	1080.4408	1133.6206	1145.0248	1195.3585	1229.5468	1256.2784	1311.1405	1329.5927	1364.3273	1378.8277	1399.3195	1404.5198	1421.5606	1463.8798	1485.5911	1490.9407	1498.9444	1505.1898	1511.4602	1616.1619	1797.3026	2989.1409	3010.9471	3022.012	3023.3251	3028.4077	3061.0539	3086.62	3088.9794	3094.0006	3099.5598	3101.8067	3601.749	3739.5409
CC(C)CCC(N)=O	CC(C)CCC(=O)N	
InChI=1S/C6H13NO/c1-5(2)3-4-6(7)8/h5H,3-4H2,1-2H3,(H2,7,8)	InChI=1S/C6H13NO/c1-5(2)3-4-6(7)8/h5H,3-4H2,1-2H3,(H2,7,8)
