18
gdb 38635	3.50321	1.99353	1.68652	1.3145	73.88	-0.2177	0.0739	0.2916	844.7367	0.15146	-401.859029	-401.853248	-401.852304	-401.888727	25.62	
C	-0.0368328878	 1.5291610279	 0.0588591426	-0.275364
N	 1.4946189888	 1.3951984758	-0.0231967127	-0.167444
C	 1.8139655777	 0.7758304598	 1.3001189637	-0.185083
C	 0.9883929865	-0.4973313508	 1.1503135579	-0.090936
C	 1.544034651	-1.2546077954	-0.0799333234	-0.120104
C	 0.2709342833	-2.0570891534	-0.513328671	-0.103775
O	-0.8148579634	-1.0860312839	-0.3416222989	-0.344973
C	-0.0218560528	 0.0101299457	 0.0296567057	 0.429593
C	 1.2600725887	 0.0740218434	-0.8098803175	-0.028706
H	-0.4095423641	 2.0685861781	 0.9343320135	 0.107347
H	-0.4075433842	 1.985097934	-0.8612888309	 0.122265
H	 2.8925175273	 0.6107435331	 1.3873011936	 0.104153
H	 1.4900286923	 1.4250779542	 2.1180540443	 0.104641
H	 0.6240013532	-1.0417280651	 2.021139128	 0.071319
H	 2.4848787925	-1.8098220472	-0.0887449754	 0.071069
H	 0.2985005675	-2.3835935413	-1.5587534157	 0.110355
H	 0.0870045872	-2.9209513746	 0.1329505496	 0.113769
H	 1.2694794962	 0.1989000098	-1.8905346335	 0.081877
290.2371	346.262	406.0692	448.7114	483.309	615.9533	658.3285	710.0639	741.1726	815.9761	820.2997	863.754	895.2354	900.3678	929.0606	944.4701	954.6218	994.3876	997.7395	1012.8818	1025.2944	1070.7922	1109.3169	1115.9429	1162.1755	1164.5717	1194.1236	1210.0433	1231.7493	1240.5231	1247.3954	1257.868	1287.9291	1301.7727	1331.8763	1369.8027	1496.8938	1510.284	1517.2811	3037.5353	3048.676	3058.9811	3086.093	3089.1888	3099.0001	3120.7467	3126.6078	3142.0194
C1N2CC3C4COC13C24	C1N2C[C@@H]3[C@H]4CO[C@@]13[C@@H]24	
InChI=1S/C7H9NO/c1-5-4-2-9-7(5)3-8(1)6(4)7/h4-6H,1-3H2	InChI=1S/C7H9NO/c1-5-4-2-9-7(5)3-8(1)6(4)7/h4-6H,1-3H2/t4-,5-,6+,7+/m1/s1
