16
gdb 28514	3.16334	1.39739	0.9713	2.2335	78.89	-0.1742	0.0017	0.1759	1154.3423	0.126963	-434.142459	-434.134394	-434.13345	-434.17446	32.008	
N	 0.0483065308	 1.3757432083	-0.1382517933	-0.572201
C	-0.008154764	-0.0150031924	-0.0676581548	 0.34672
C	-1.217517979	-0.7087886878	 0.0050188815	-0.192022
C	-1.1873829124	-2.1006489365	 0.0061290594	-0.130474
C	 0.0206180004	-2.7873954508	-0.0653635168	 0.171717
N	 0.1244619732	-4.1874658788	-0.1334698612	-0.601861
C	 1.1672595519	-1.9800738226	-0.1291797851	 0.389272
O	 2.3710652192	-2.6104361345	-0.1860307159	-0.438272
N	 1.1666590835	-0.6592198447	-0.126815138	-0.423369
H	 0.9575001209	 1.7395198122	 0.1098101755	 0.24617
H	-0.702292444	 1.8582727751	 0.3332885581	 0.244333
H	-2.159449595	-0.1744984059	 0.0518475276	 0.081094
H	-2.1159480182	-2.6619025397	 0.0591892462	 0.090386
H	-0.5864321149	-4.6689560642	 0.4007912841	 0.239886
H	 1.0451648354	-4.5148975711	 0.1265790193	 0.254829
H	 3.0353074621	-1.9093836268	-0.2160856366	 0.293791
133.7647	239.0098	245.5015	300.146	313.2747	339.7801	360.1034	440.0005	487.4161	512.2543	532.4104	592.6363	610.8825	682.2055	719.0266	754.0306	780.7298	813.1635	822.9455	937.2678	987.5235	1074.7331	1128.3491	1153.3143	1208.4987	1293.3589	1324.9513	1363.4846	1399.273	1489.8834	1533.9343	1634.5336	1636.7242	1645.7558	1678.9488	3168.1225	3193.8596	3543.0581	3562.8393	3640.9668	3669.9532	3781.6945
NC1=CC=C(N)C(O)=N1	Nc1ccc(N)c(O)n1	
InChI=1S/C5H7N3O/c6-3-1-2-4(7)8-5(3)9/h1-2H,6H2,(H3,7,8,9)	InChI=1S/C5H7N3O/c6-3-1-2-4(7)8-5(3)9/h1-2H,6H2,(H3,7,8,9)
