17
gdb 67991	3.0083	1.68052	1.29073	3.6846	71.25	-0.2361	-0.0239	0.2122	989.2916	0.136028	-421.80864	-421.801355	-421.800411	-421.840174	28.976	
C	-0.0179378961	 1.4693855109	 0.0797932969	-0.488228
C	 0.0197437453	-0.0346014103	-0.0288141978	 0.282424
C	 1.0229295015	-0.7078970504	-0.9550001436	-0.407097
C	 0.3961717289	-2.0779341763	-1.2759473496	 0.446534
O	 0.740675516	-2.8560101717	-2.1226452783	-0.31753
C	-0.7577281352	-2.2327793822	-0.2785341344	-0.037564
O	-0.0815550544	-2.2246264593	 1.0247029563	-0.306361
C	-0.4208992328	-0.843386421	 1.1748165814	 0.068332
C	-1.3000667196	-0.8139217266	-0.0439669772	-0.196641
H	 0.9289614102	 1.8618410665	 0.4663044307	 0.128056
H	-0.1993774393	 1.9325787151	-0.89660466	 0.125234
H	-0.8145428893	 1.7989426756	 0.7556234456	 0.120825
H	 1.1461972239	-0.1427716984	-1.8853026386	 0.129323
H	 2.0179827303	-0.8446496782	-0.5193953447	 0.138104
H	-1.4135668245	-3.0915858887	-0.4096189525	 0.099425
H	-0.5297537046	-0.4539766993	 2.1808830055	 0.109035
H	-2.2864405505	-0.4163706358	-0.2378569097	 0.106128
106.3438	220.8879	254.4843	276.9207	321.8503	433.8041	474.1859	548.5193	559.6221	640.4206	737.5841	764.1262	815.1239	846.1019	882.6752	894.7677	936.5888	965.147	972.7857	1021.0329	1042.82	1081.7177	1098.2294	1126.8051	1183.1612	1196.393	1217.7802	1230.272	1247.2699	1280.9829	1323.7471	1395.9089	1421.881	1453.4646	1490.9985	1502.4954	1859.3769	3025.6149	3050.0987	3089.6312	3092.186	3095.4465	3140.6002	3178.007	3211.6735
CC12CC(=O)C3OC1C23	C[C@@]12CC(=O)[C@H]3O[C@@H]1[C@@H]23	
InChI=1S/C7H8O2/c1-7-2-3(8)5-4(7)6(7)9-5/h4-6H,2H2,1H3	InChI=1S/C7H8O2/c1-7-2-3(8)5-4(7)6(7)9-5/h4-6H,2H2,1H3/t4-,5+,6+,7-/m0/s1
