18
gdb 45238	3.31442	1.69582	1.50603	2.4573	74.56	-0.2138	-0.0188	0.195	921.8151	0.15151	-401.940283	-401.934037	-401.933092	-401.970732	26.543	
O	-0.0247682578	-0.0382926939	-0.1817789031	-0.325155
C	-0.0250992636	 1.1562408139	-0.028842138	 0.394582
C	-1.2477462697	 2.0943341029	 0.0798550785	-0.296183
N	-0.6908745089	 3.3717848677	 0.569836691	-0.106444
C	-0.0662363205	 3.0764849096	 1.9122206329	-0.181242
C	 1.38097164	 2.8215029249	 1.4716148282	-0.048899
C	 1.6269839182	 4.1267940263	 0.6620961191	-0.23612
C	 0.5630778794	 3.5110246906	-0.2548723416	-0.008314
C	 1.1543811367	 2.10012947	 0.0718019598	-0.135536
H	-1.6841593448	 2.2375515333	-0.9172527183	 0.127915
H	-2.0278353799	 1.7004587929	 0.7349140505	 0.130848
H	-0.1506796543	 3.9412454343	 2.576439677	 0.108837
H	-0.5525191656	 2.2250963228	 2.3953561622	 0.109669
H	 2.0918040448	 2.4354311614	 2.2011072483	 0.080322
H	 1.4100163931	 5.0826027376	 1.1467942942	 0.104214
H	 2.6059151627	 4.1548955723	 0.1798660179	 0.108754
H	 0.3644633719	 3.8549206301	-1.2698644761	 0.08055
H	 2.0702987483	 1.7742313535	-0.4170920825	 0.092202
129.7729	295.4075	392.223	442.8704	498.9309	550.3608	577.672	605.2146	721.5155	794.7955	811.5583	835.1143	864.5587	877.7113	894.1282	938.8592	964.7171	988.7007	1010.1484	1021.2167	1039.2076	1080.9818	1097.6924	1127.4216	1152.8484	1184.6845	1202.4268	1224.3169	1233.3287	1248.852	1255.6029	1281.3352	1294.8826	1311.3814	1342.5957	1460.7019	1497.8131	1528.1559	1846.6837	3031.8301	3053.9076	3062.4318	3098.3576	3114.8309	3118.7023	3125.5125	3127.8214	3145.5646
O=C1CN2CC3CC2C13	O=C1CN2C[C@@H]3C[C@H]2[C@H]13	
InChI=1S/C7H9NO/c9-6-3-8-2-4-1-5(8)7(4)6/h4-5,7H,1-3H2	InChI=1S/C7H9NO/c9-6-3-8-2-4-1-5(8)7(4)6/h4-5,7H,1-3H2/t4-,5-,7+/m0/s1
