24
gdb 119151	2.34888	1.03925	0.92229	2.3586	86.	-0.2341	0.0824	0.3165	1469.5823	0.215818	-405.518463	-405.507597	-405.506653	-405.55452	39.594	
C	 0.0865721453	 1.3819842041	 0.1264236347	-0.226656
O	-0.0178943393	-0.0181888267	 0.0239683185	-0.238933
C	 0.8604372269	-0.5726088651	-0.9341735301	-0.150602
C	 0.6552006322	-2.0791152316	-0.9959790003	 0.315041
C	 0.342371748	-2.7865105966	 0.2709297182	-0.284055
N	-0.7039467711	-2.5890438376	-0.7574468481	-0.363145
C	 1.412844102	-2.8219736578	-2.0960422499	-0.01054
C	 0.9250660328	-2.4320795283	-3.4996901243	-0.401265
C	 2.9360732161	-2.6762432955	-1.9602637077	-0.402239
H	 1.09474862	 1.6927734172	 0.4413564457	 0.108242
H	-0.1427409671	 1.877984391	-0.8295329496	 0.108421
H	-0.6357160313	 1.7095732546	 0.8778628797	 0.130138
H	 0.6657469171	-0.1206979058	-1.9210219553	 0.092751
H	 1.9050512543	-0.3395885319	-0.6710530826	 0.095705
H	 0.6639189955	-3.8161674899	 0.4059182168	 0.105635
H	 0.2745000314	-2.1980606232	 1.180115724	 0.118662
H	-1.2882866732	-1.8105119254	-0.4591784367	 0.235897
H	 1.1599854117	-3.8790602696	-1.9507905099	 0.082842
H	 1.3646287075	-3.0899753454	-4.2564396731	 0.10853
H	-0.1633932673	-2.5182675154	-3.5632827164	 0.130463
H	 1.2058795469	-1.4057700434	-3.7616016819	 0.106652
H	 3.2756879718	-2.9445828935	-0.9543839502	 0.114206
H	 3.4501911122	-3.327902139	-2.674009395	 0.11268
H	 3.2657046675	-1.6510948153	-2.1636201565	 0.111571
61.762	85.5207	99.1164	150.5181	211.7264	235.9583	242.9341	252.7519	264.8073	301.6757	358.8419	374.7985	469.353	510.7049	519.1749	717.0213	849.3064	866.5622	929.2905	932.5699	959.1492	967.9643	978.2405	1002.4556	1035.4406	1086.2106	1114.8068	1141.6697	1154.6185	1162.15	1188.1432	1196.7946	1224.4757	1269.7603	1291.7257	1313.5522	1334.5897	1348.1166	1396.1423	1415.4163	1418.5849	1428.8248	1480.1058	1485.5949	1489.0254	1494.1973	1500.6703	1504.5128	1506.846	1512.9443	1528.2724	2959.375	2977.0762	2988.3625	3021.4905	3027.8829	3030.5765	3034.5924	3090.8079	3097.116	3101.3229	3110.0161	3114.3884	3116.8249	3203.1648	3494.5507
COCC1(CN1)C(C)C	COC[C@]1(CN1)C(C)C	
InChI=1S/C7H15NO/c1-6(2)7(4-8-7)5-9-3/h6,8H,4-5H2,1-3H3	InChI=1S/C7H15NO/c1-6(2)7(4-8-7)5-9-3/h6,8H,4-5H2,1-3H3/t7-/m1/s1
