19
gdb 87688	2.64253	1.23976	1.033	2.69	78.02	-0.2312	-0.0176	0.2136	1233.3586	0.157142	-423.020878	-423.011515	-423.010571	-423.055407	34.373	
C	-0.7524609334	 1.2925788332	 0.2298155038	-0.400763
C	-0.0436295209	-0.0367792248	-0.0112839013	-0.096472
C	 0.8473526098	-0.1854841207	-1.2957470008	-0.347387
C	 2.0629723742	-0.4657672493	-0.400663239	 0.221437
C	 3.2352088046	-1.4091608208	-0.5976729252	-0.384353
C	 3.46647881	 0.0678272723	-0.5659915846	 0.053426
O	 3.6961536078	 0.7644915555	-1.751336343	-0.417443
C	 1.2248148921	-0.2982877007	 0.8322984755	 0.334036
O	 1.4580533236	-0.32719558	 2.009951053	-0.325346
H	-0.0631285938	 2.1347139593	 0.1069354592	 0.122531
H	-1.5799960792	 1.4298202565	-0.4734635687	 0.119562
H	-1.1557337674	 1.3339068147	 1.246075948	 0.133952
H	-0.750154731	-0.8675541025	 0.1018551667	 0.1002
H	 0.5584473983	-1.0028658311	-1.9596993078	 0.105276
H	 0.9411348634	 0.731944747	-1.880987239	 0.122805
H	 3.5411311094	-2.0047779102	 0.2565560748	 0.132983
H	 3.2927955717	-1.8993803461	-1.5643417819	 0.123226
H	 3.9218653896	 0.4934901674	 0.328345903	 0.108246
H	 4.5929505415	 0.5712714704	-2.0445040829	 0.294084
43.9768	120.3535	164.5858	199.7534	209.6996	218.1117	254.7634	318.7987	386.0146	458.4804	544.764	559.755	696.4102	723.3013	802.896	817.7555	864.22	903.8069	909.1848	959.1248	1011.4844	1048.5084	1070.9208	1093.8967	1110.363	1118.1328	1166.7398	1179.7129	1199.3119	1236.9969	1248.1474	1295.5233	1319.6704	1339.9794	1406.1972	1416.0891	1470.6864	1489.4449	1495.6585	1496.5536	1870.7019	3033.8727	3041.5694	3070.5885	3102.1866	3104.9447	3111.104	3122.5581	3124.2134	3219.9524	3806.0864
CC1CC2(CC2O)C1=O	C[C@H]1C[C@]2(C[C@H]2O)C1=O	
InChI=1S/C7H10O2/c1-4-2-7(6(4)9)3-5(7)8/h4-5,8H,2-3H2,1H3	InChI=1S/C7H10O2/c1-4-2-7(6(4)9)3-5(7)8/h4-5,8H,2-3H2,1H3/t4-,5+,7+/m0/s1
