25
gdb 116291	2.13424	1.24313	0.89657	1.0063	89.08	-0.2453	0.0769	0.3221	1448.3547	0.229187	-389.505157	-389.494737	-389.493793	-389.541788	37.942	
C	-0.0728738311	 1.7370517879	-0.1823802409	-0.386476
C	-0.2798630832	 0.2212373061	-0.2655041399	-0.188724
C	 0.7124662783	-0.4831785971	-1.1941760701	 0.02668
C	 2.1957075442	-0.4180799007	-0.7728837019	-0.203892
C	 2.8934474081	-1.5570897191	-1.5629288177	-0.203909
C	 1.7514380566	-2.4739713571	-2.0860254515	-0.233679
C	 0.4783049381	-1.994257774	-1.3636400772	 0.116631
O	 0.3585635548	-2.5614251856	-0.0630137379	-0.250489
C	-0.1515940262	-3.8712933039	-0.0443752563	-0.231689
H	 0.9107106657	 1.9872179802	 0.2282943331	 0.116988
H	-0.1461574491	 2.2044738291	-1.171415523	 0.107814
H	-0.826534125	 2.2029478381	 0.4604083809	 0.108488
H	-0.2059118372	-0.2240752922	 0.7317143398	 0.110497
H	-1.3002426315	 0.0158857589	-0.615858966	 0.084375
H	 0.6206885099	-0.0466532825	-2.2001709533	 0.062837
H	 2.6468549356	 0.558562326	-0.966098461	 0.0905
H	 2.2682714754	-0.6035538396	 0.3040079427	 0.107182
H	 3.4796682011	-1.1602781057	-2.3969424356	 0.095148
H	 3.5910518524	-2.1071556483	-0.9263184639	 0.100875
H	 1.6186162789	-2.3521411241	-3.1665372126	 0.095404
H	 1.9442817205	-3.5357200565	-1.9111790291	 0.097651
H	-0.4361627487	-2.2117486742	-1.9375658851	 0.049419
H	-1.1473968702	-3.9258508463	-0.5129396352	 0.101529
H	 0.5043034145	-4.5912133401	-0.5570848313	 0.102915
H	-0.239278792	-4.170685479	 1.0034049729	 0.123925
24.9814	85.7021	98.4178	130.7477	158.5286	214.8092	228.7592	269.4491	339.5068	348.0185	440.991	503.589	628.9412	725.4836	751.8474	783.73	835.0785	874.6018	897.8259	932.3227	950.1294	980.9669	1005.6944	1037.83	1042.4313	1073.519	1119.629	1140.613	1170.697	1183.9898	1187.7376	1217.1458	1231.0903	1253.8037	1274.9737	1288.5831	1304.2076	1325.0613	1332.9541	1345.3565	1371.595	1390.7695	1395.872	1412.6815	1477.5041	1481.1851	1486.6797	1489.5025	1493.9542	1501.8035	1508.625	1511.5362	1512.457	2969.4737	2978.2259	2994.4853	3016.6619	3020.0569	3028.3974	3045.8978	3048.012	3060.4781	3072.9919	3081.7713	3095.182	3097.3825	3102.9563	3106.9118	3108.6732
CCC1CCCC1OC	CC[C@H]1CCC[C@H]1OC	
InChI=1S/C8H16O/c1-3-7-5-4-6-8(7)9-2/h7-8H,3-6H2,1-2H3	InChI=1S/C8H16O/c1-3-7-5-4-6-8(7)9-2/h7-8H,3-6H2,1-2H3/t7-,8+/m0/s1
