16
gdb 5067	3.29712	1.97482	1.25298	3.3265	68.17	-0.1765	0.0465	0.223	938.671	0.13127	-379.951166	-379.942805	-379.941861	-379.983556	30.954	
C	-0.0908977827	 1.4936207438	 0.0494221081	-0.506567
C	-0.0073169872	 0.0059110023	-0.019262931	 0.27886
C	 0.0328374065	-0.8433705533	-1.1120837065	-0.004087
N	 0.0088982838	-0.5874072338	-2.5167433593	-0.634603
C	 0.111169681	-2.1787308592	-0.6192490576	 0.322387
O	 0.1675194379	-3.2763131214	-1.4160591246	-0.455078
C	 0.11757438	-2.1296026763	 0.751585593	-0.202815
N	 0.0448488885	-0.7872707629	 1.0956560735	-0.308962
H	 0.7727178202	 1.9390460366	 0.5595904782	 0.127083
H	-0.1212195739	 1.9055944019	-0.9629817397	 0.121758
H	-0.9920719883	 1.8392421826	 0.5718450509	 0.127088
H	 0.7944262988	-0.0246348139	-2.825794177	 0.238876
H	-0.8394466008	-0.1176015676	-2.8148937187	 0.238875
H	 0.1417207757	-2.9233715676	-2.3186258535	 0.289399
H	 0.1672490055	-2.9055667248	 1.4954457422	 0.113703
H	 0.0316246749	-0.4450931263	 2.039480052	 0.254083
95.1739	163.0721	179.9253	247.4555	269.2623	272.5566	299.2303	411.675	530.8326	547.2158	574.452	625.9534	647.7394	714.5845	740.5312	762.9071	809.2862	971.444	1056.7266	1067.8914	1107.0793	1188.1184	1197.7572	1255.3858	1320.809	1356.9404	1414.9704	1461.413	1483.1761	1493.052	1514.328	1591.7714	1643.3422	1677.6571	3012.533	3055.9463	3109.6393	3281.9426	3496.8644	3564.9304	3690.1099	3715.0463
CC1=C(N)C(O)=CN1	Cc1c(N)c(O)c[nH]1	
InChI=1S/C5H8N2O/c1-3-5(6)4(8)2-7-3/h2,7-8H,6H2,1H3	InChI=1S/C5H8N2O/c1-3-5(6)4(8)2-7-3/h2,7-8H,6H2,1H3
