17
gdb 73913	2.91214	1.3979	1.0255	5.4602	81.84	-0.2468	-0.039	0.2079	1147.7312	0.137278	-380.882176	-380.874152	-380.873208	-380.914723	30.334	
C	-0.0350856415	 1.514838199	 0.1105012104	-0.521966
C	-0.0269370563	 0.0265589191	 0.0258464345	 0.281085
C	-0.0029036449	-0.7400878639	-1.0839689388	 0.092846
C	-0.0190167453	-2.2328963609	-0.7777617155	-0.315237
C	 0.0255771604	-2.2596720748	 0.7443499366	-0.048182
N	 1.2503554922	-1.6618733486	 1.3066517479	-0.327259
C	-0.0027974846	-0.8533637356	 1.23220077	-0.143166
C	 0.0523196947	-0.2441416626	-2.412854875	 0.202846
N	 0.0865414893	 0.1414079106	-3.5058430047	-0.351612
H	 0.8615348769	 1.8734503183	 0.6307988201	 0.147579
H	-0.0720658471	 1.9770278536	-0.8782279499	 0.154238
H	-0.8972427916	 1.8660314101	 0.6909767627	 0.13576
H	-0.9268844228	-2.708684482	-1.1668098104	 0.12354
H	 0.8390830216	-2.7487399573	-1.2210405765	 0.138904
H	-0.4633244312	-3.0626153196	 1.2844578316	 0.09874
H	 1.3601844781	-1.994490806	 2.2635572188	 0.234686
H	-0.4848248881	-0.5447557394	 2.1536603482	 0.097197
119.6309	143.5834	169.0769	191.0475	299.4914	325.2436	386.4896	514.356	534.5398	596.5143	620.8192	640.23	759.3675	819.524	848.2161	876.6011	931.7126	958.6956	994.4107	1046.6426	1075.4164	1084.7799	1134.7631	1164.5683	1177.3654	1194.9666	1242.3305	1256.6931	1337.1414	1374.116	1411.0233	1416.9555	1469.4478	1478.0117	1480.4878	1679.3082	2328.4756	3024.4231	3040.0322	3073.4223	3082.5905	3129.4293	3168.7595	3178.8753	3478.4813
CC1=C(CC2NC12)C#N	CC1=C(C[C@H]2N[C@@H]12)C#N	
InChI=1S/C7H8N2/c1-4-5(3-8)2-6-7(4)9-6/h6-7,9H,2H2,1H3	InChI=1S/C7H8N2/c1-4-5(3-8)2-6-7(4)9-6/h6-7,9H,2H2,1H3/t6-,7+/m1/s1
