19
gdb 56227	4.31936	0.67963	0.63131	4.0277	73.22	-0.2386	-0.0067	0.2319	1769.5588	0.157392	-456.409456	-456.398845	-456.397901	-456.446619	36.938	
C	 0.8126809878	 1.1022901618	-0.0850048358	-0.472548
C	-0.1009742282	-0.107560461	-0.0088585505	 0.383474
O	-0.8734093786	-0.2696584501	 0.9100808829	-0.29995
C	 0.0073122354	-1.1045795206	-1.1510846391	-0.288642
C	-0.791609723	-2.3836441629	-0.8960333394	-0.155471
N	-0.7989220866	-3.2708021626	-2.0562389157	-0.344174
C	 0.3305939083	-3.9986046622	-2.3595332531	 0.44294
N	 0.1319105795	-4.9827343826	-3.3222390459	-0.562741
O	 1.4075581239	-3.8133410704	-1.8203861141	-0.390021
H	 1.8558633344	 0.7828237459	 0.0223551445	 0.146664
H	 0.7313039341	 1.5933901741	-1.0607523382	 0.133174
H	 0.5661101435	 1.8066320586	 0.7104192748	 0.140583
H	-0.3450682122	-0.6116326729	-2.0682584095	 0.117392
H	 1.0585018345	-1.3534325116	-1.3298344377	 0.151828
H	-0.3762254626	-2.8978016069	-0.0225581455	 0.131811
H	-1.8266721937	-2.128245228	-0.6615575199	 0.116645
H	-1.684440748	-3.6901830262	-2.2906740941	 0.241911
H	-0.5681653576	-4.8099323098	-4.0282901256	 0.246709
H	 1.0010383992	-5.3394840229	-3.6898599578	 0.260415
39.904	59.9446	82.7099	100.6964	115.9398	192.1741	246.4581	308.7933	373.0169	412.2705	437.1818	482.6494	505.609	564.6853	591.6773	679.359	752.4136	781.7146	850.4767	887.6963	943.7599	956.5688	1071.1257	1087.923	1117.2441	1155.309	1183.6874	1232.1622	1315.2993	1333.6092	1341.5673	1382.9647	1408.7448	1455.2791	1464.9277	1476.1866	1480.2784	1531.8833	1626.4964	1796.6804	1805.0974	3022.2387	3036.976	3052.9641	3084.9694	3098.1893	3120.7206	3151.2021	3572.8704	3628.2451	3686.5821
CC(=O)CCNC(N)=O	CC(=O)CCNC(=O)N	
InChI=1S/C5H10N2O2/c1-4(8)2-3-7-5(6)9/h2-3H2,1H3,(H3,6,7,9)	InChI=1S/C5H10N2O2/c1-4(8)2-3-7-5(6)9/h2-3H2,1H3,(H3,6,7,9)
