18
gdb 14880	3.77082	1.35111	1.09102	3.477	64.43	-0.2471	0.0584	0.3055	1103.677	0.15268	-422.035008	-422.026279	-422.025335	-422.069003	30.554	
C	-0.1159211209	 1.4393988498	-0.2934465081	-0.240545
O	-0.1633156551	 0.2428347701	 0.454310067	-0.237556
C	-1.3084470512	-0.5219649239	 0.2049995788	 0.069283
C	-1.3274703047	-1.4173766391	-1.0585449337	-0.10296
O	-1.5259001124	-2.6011375341	-0.2533184707	-0.305425
C	-1.3541150657	-1.8523817698	 0.9834646683	 0.069135
C	-0.0859240237	-2.3090660613	 1.6905454808	-0.060266
O	-0.1607238846	-3.7018070053	 1.9331645193	-0.425997
H	 0.7937512984	 1.9681240665	-0.001060636	 0.135173
H	-0.0808747567	 1.2469929043	-1.3762270838	 0.111646
H	-0.9864957632	 2.0798946548	-0.0839159039	 0.110534
H	-2.2144622725	 0.0898872775	 0.3179163439	 0.078665
H	-2.1479837961	-1.2687984294	-1.7689074343	 0.106469
H	-0.3709778893	-1.4333105787	-1.5966643083	 0.106798
H	-2.221509673	-1.9950452694	 1.638038147	 0.086465
H	 0.7939606924	-2.0450995513	 1.0878736145	 0.095737
H	 0.0119063417	-1.811792959	 2.6606481386	 0.112085
H	-0.3777188833	-4.1022044417	 1.0817578408	 0.290759
71.724	84.6718	121.6471	137.0749	197.7324	265.4615	330.0654	430.4788	468.7062	481.6279	549.0741	771.78	838.0364	887.4532	923.1462	1007.9001	1032.5634	1054.7915	1071.9594	1091.6979	1124.9178	1163.2718	1177.7081	1183.8478	1212.9423	1233.9355	1278.734	1284.7173	1327.6153	1345.6284	1394.301	1402.7417	1434.735	1482.4241	1489.6785	1500.481	1508.0206	1512.0259	2977.8592	3001.2657	3011.9153	3016.6842	3027.7978	3046.4669	3072.6509	3087.1638	3123.1149	3778.414
COC1COC1CO	CO[C@H]1CO[C@H]1CO	
InChI=1S/C5H10O3/c1-7-5-3-8-4(5)2-6/h4-6H,2-3H2,1H3	InChI=1S/C5H10O3/c1-7-5-3-8-4(5)2-6/h4-6H,2-3H2,1H3/t4-,5-/m0/s1
