17
gdb 94264	1.98965	1.5475	1.21762	2.7005	70.06	-0.2641	-0.0644	0.1997	1101.7934	0.132532	-458.955492	-458.946193	-458.945249	-458.99046	32.331	
C	-0.3240760299	 1.4370752474	 0.0192500634	-0.418289
C	 0.1688403783	 0.0061964144	-0.0481669674	 0.128361
O	 1.3843785522	-0.1295235682	-0.7901091946	-0.279675
C	 2.0776112071	-0.7649866665	 0.3076661078	-0.1226
C	 0.8632288277	-0.6504046239	 1.2362116559	 0.039962
C	 0.9773708021	 0.2934284986	 2.4073522959	 0.094077
O	 1.922502982	 1.0096316553	 2.6157215559	-0.241979
C	 0.1726950748	-1.9359108843	 1.6267866226	 0.093232
O	 0.4900081628	-3.0281794411	 1.2347157657	-0.240866
H	 0.4285140484	 2.0978006861	 0.4565784526	 0.147837
H	-0.5336457887	 1.7818653236	-0.9980558877	 0.142288
H	-1.2496413734	 1.508898411	 0.6004642547	 0.120671
H	-0.6150413157	-0.6518862589	-0.4488380456	 0.096094
H	 2.3567486524	-1.7968607031	 0.0781479539	 0.13296
H	 2.944425948	-0.1847161821	 0.6344392786	 0.132564
H	 0.0915847068	 0.3051218836	 3.0824043309	 0.087768
H	-0.7050463947	-1.8005441818	 2.2999354275	 0.087596
59.6021	63.2139	97.3056	209.4841	221.4275	243.923	268.5599	292.072	351.1359	457.0785	487.7222	667.622	683.6029	781.5591	850.775	897.5416	905.2699	996.515	1024.1217	1036.9859	1077.55	1113.5715	1127.289	1168.9555	1215.0152	1257.0686	1294.6821	1347.2215	1376.2522	1408.5444	1420.8929	1442.4692	1482.0832	1495.5113	1513.3979	1803.0747	1842.9621	2857.3643	2879.0151	3001.277	3039.8501	3057.2976	3110.969	3116.606	3130.3494
CC1OCC1(C=O)C=O	C[C@H]1OCC1(C=O)C=O	
InChI=1S/C6H8O3/c1-5-6(2-7,3-8)4-9-5/h2-3,5H,4H2,1H3	InChI=1S/C6H8O3/c1-5-6(2-7,3-8)4-9-5/h2-3,5H,4H2,1H3/t5-/m1/s1
