20
gdb 63539	3.06096	1.32233	1.17345	1.2791	79.35	-0.2322	0.0714	0.3036	1149.0177	0.169198	-403.09065	-403.081815	-403.080871	-403.123745	34.18	
C	-0.0948260013	 1.5256888588	 0.0060867982	-0.456032
C	-0.0974343476	 0.0159875719	 0.0923752018	 0.287891
C	-1.2111481144	-0.6843529496	-0.6520541194	-0.453092
O	 1.2139328069	-0.5963695303	-0.0588606228	-0.341548
C	 0.5790086075	-0.6542531657	 1.2055833734	 0.449198
C	 1.2718764363	-0.1206949237	 2.4857443447	-0.324667
C	 0.9338729504	-1.4664902954	 3.147346021	-0.046177
N	-0.5406995668	-1.5994143873	 3.0896481778	-0.337628
C	 0.2853686485	-1.9719881544	 1.9046883613	-0.175726
H	 0.7546154967	 1.9484170902	 0.5467678803	 0.127086
H	-0.0309909619	 1.8494274609	-1.0387972909	 0.122098
H	-1.0177658586	 1.9366596782	 0.4291438778	 0.123537
H	-1.1783508043	-0.4317972321	-1.7177277709	 0.121426
H	-1.127706974	-1.7687791662	-0.5549024257	 0.121911
H	-2.1866521115	-0.3750537948	-0.2621394641	 0.125676
H	 2.3419571081	 0.012235427	 2.3086885819	 0.118675
H	 0.8508681361	 0.7669174942	 2.9639621342	 0.109131
H	 1.5148716665	-2.001034457	 3.8877354462	 0.097695
H	-0.7818555865	-2.4719853056	 3.5606333167	 0.22993
H	 0.2542543499	-2.965880349	 1.4768149686	 0.100614
108.2504	156.0702	168.5909	175.6006	210.0724	312.8738	362.7495	412.3643	439.8471	468.2555	496.7702	585.3394	711.2385	760.5727	820.4362	837.8412	876.1584	913.0573	936.9715	948.2394	973.8661	976.4605	997.2952	1054.1514	1073.2809	1104.3981	1117.5878	1138.3019	1163.8792	1185.0407	1224.2699	1250.6411	1294.1699	1321.8772	1363.5903	1406.9236	1415.8041	1459.1168	1473.3307	1477.6057	1483.4096	1498.3218	1540.2855	3032.6043	3037.6072	3064.3591	3094.457	3099.6534	3125.9584	3128.1473	3129.7933	3192.3163	3205.28	3464.1243
CC1(C)OC11CC2NC12	CC1(C)O[C@]21C[C@H]1N[C@@H]21	
InChI=1S/C7H11NO/c1-6(2)7(9-6)3-4-5(7)8-4/h4-5,8H,3H2,1-2H3	InChI=1S/C7H11NO/c1-6(2)7(9-6)3-4-5(7)8-4/h4-5,8H,3H2,1-2H3/t4-,5-,7-/m1/s1
