21
gdb 105184	1.9184	1.50761	1.00398	3.7788	79.81	-0.2467	-0.02	0.2267	1272.3544	0.18055	-424.237254	-424.227173	-424.226229	-424.272083	37.36	
C	 3.0347357605	-1.7550396194	 0.5213586236	-0.418888
C	 1.7724095744	-0.987566854	 0.1852083634	-0.04466
C	 0.4439844017	-1.6551130573	 0.0511833091	-0.31852
C	 0.6825459306	-0.6968007074	 1.2212865547	 0.192448
C	 0.760154145	-1.2926172156	 2.6234896397	-0.140073
O	-0.5122367699	-1.5849361154	 3.1620054244	-0.427538
C	-0.0229992327	 0.6243976784	 1.1877281356	 0.352592
C	-0.0023371614	 1.4763046389	-0.0707147256	-0.494107
O	-0.606064177	 1.0305595536	 2.1793852316	-0.336801
H	 2.8359294549	-2.6364088415	 1.1353049394	 0.128725
H	 3.5133538746	-2.1023388606	-0.4005436667	 0.124949
H	 3.7560463901	-1.1270727892	 1.0547700733	 0.125547
H	 1.9498066208	-0.1720675957	-0.5101497786	 0.088659
H	-0.2302320293	-1.3547075412	-0.7428599653	 0.119521
H	 0.3610519442	-2.7008346799	 0.3291252496	 0.132585
H	 1.3096117098	-2.2369789244	 2.602193237	 0.096412
H	 1.3194378739	-0.6017869867	 3.2732860852	 0.092599
H	-0.9555438729	-0.7281543773	 3.2224493	 0.294119
H	-0.7731719662	 2.2426188339	 0.0155314433	 0.146003
H	 0.9715944182	 1.9712486627	-0.1608671205	 0.149041
H	-0.1563521296	 0.8954623082	-0.9837282233	 0.137387
71.2798	118.8318	152.9592	162.5066	184.2688	223.9627	237.2457	294.3204	335.8898	403.8717	440.3143	512.4777	538.0407	575.4009	618.59	681.1253	769.2994	880.1058	908.3118	925.8516	942.7829	967.9902	1011.6089	1053.37	1069.0836	1079.62	1091.1668	1126.2513	1155.5566	1192.8317	1231.4947	1309.6029	1330.8638	1386.0739	1388.1184	1409.3754	1426.4391	1449.9689	1468.2008	1476.8695	1488.1793	1496.3385	1502.9334	1505.8172	1752.4958	2984.72	3037.9013	3044.249	3091.0515	3096.1735	3110.9322	3121.6252	3135.7037	3149.819	3155.5851	3219.6223	3757.2976
CC1CC1(CO)C(C)=O	C[C@H]1C[C@]1(CO)C(=O)C	
InChI=1S/C7H12O2/c1-5-3-7(5,4-8)6(2)9/h5,8H,3-4H2,1-2H3	InChI=1S/C7H12O2/c1-5-3-7(5,4-8)6(2)9/h5,8H,3-4H2,1-2H3/t5-,7+/m0/s1
