18
gdb 99182	5.50333	0.7142	0.69968	2.303	70.48	-0.2536	0.0532	0.3068	1636.042	0.146954	-476.235417	-476.225862	-476.224918	-476.271561	32.45	
C	 0.0786401696	 1.4215802744	-0.0954714365	-0.233686
O	-0.0483380517	 0.0119433114	 0.1084038925	-0.269094
C	 0.6835910071	-0.4776109496	 1.1399349278	 0.526709
O	 1.3981059024	 0.1893515005	 1.8537954194	-0.413572
N	 0.4861299595	-1.824649965	 1.2403471251	-0.37807
C	 1.1248331071	-2.6304788918	 2.2375815773	 0.004985
C	 0.2627806482	-3.5948838014	 3.0878678435	-0.092435
O	 1.1514266585	-4.691493662	 2.7985868199	-0.267831
C	 1.8545859406	-3.9243180567	 1.8021216813	-0.09244
H	 1.1148414521	 1.6916269333	-0.3145908143	 0.140129
H	-0.5620497862	 1.6548075942	-0.946390182	 0.130691
H	-0.2481512973	 1.9740529515	 0.7891733875	 0.140199
H	-0.1395021203	-2.2497270682	 0.574564954	 0.252711
H	 1.7449289124	-1.962996764	 2.834272528	 0.134856
H	 0.1875042419	-3.3904107947	 4.1612447465	 0.115325
H	-0.7460527515	-3.7585894971	 2.6805953723	 0.093098
H	 1.6078539549	-4.2457554105	 0.7792693793	 0.093096
H	 2.9408936127	-3.9602652843	 1.9372354883	 0.115327
41.38	70.7862	86.5539	97.8252	157.2226	175.7363	312.9208	339.1591	379.805	476.7947	481.0035	717.0173	766.8168	779.4683	883.4321	890.4443	955.8736	1003.2829	1021.5114	1033.5703	1087.0674	1134.6148	1150.4606	1163.9763	1183.6883	1214.4805	1234.071	1251.3391	1273.8257	1300.5344	1349.5593	1393.8669	1472.0914	1481.8455	1501.6045	1506.4402	1533.8042	1554.5051	1818.0225	2988.3124	2999.6356	3050.6878	3066.7428	3067.6202	3124.6229	3139.3062	3154.4361	3637.6038
COC(=O)NC1COC1	COC(=O)NC1COC1	
InChI=1S/C5H9NO3/c1-8-5(7)6-4-2-9-3-4/h4H,2-3H2,1H3,(H,6,7)	InChI=1S/C5H9NO3/c1-8-5(7)6-4-2-9-3-4/h4H,2-3H2,1H3,(H,6,7)
