15
gdb 61095	3.84504	0.76652	0.66281	3.2262	70.72	-0.2896	-0.0448	0.2448	1596.1719	0.110047	-453.975911	-453.966404	-453.965459	-454.011489	31.859	
C	 0.4271345689	 1.0745025101	-0.7740049081	-0.377994
C	 0.0721209244	-0.3013110009	-0.1826629298	-0.067703
N	 1.2288370561	-0.8433261836	 0.5189801771	-0.254467
C	 1.152987668	-1.1633229411	 1.7343720695	 0.152599
O	 2.2075802322	-1.6608671144	 2.4376106434	-0.198087
C	 3.2916514025	-2.1849635939	 1.7600180639	 0.184786
O	 4.2817418809	-2.4827612183	 2.344805625	-0.238842
C	-1.1575365081	-0.2161134046	 0.6320897093	 0.251834
N	-2.0972097405	-0.1602275926	 1.3028523949	-0.319894
H	 1.3229975974	 0.9734692541	-1.3898905556	 0.143626
H	-0.3943849701	 1.4513239835	-1.3877442658	 0.141437
H	 0.6285456572	 1.7915201276	 0.0253521974	 0.144639
H	-0.1437630123	-0.9856093181	-1.0129424723	 0.147919
H	 0.279448735	-1.0759219185	 2.3839252954	 0.156298
H	 3.1001345885	-2.2957736892	 0.6855918158	 0.133851
50.1967	86.9503	118.9806	123.8401	170.0165	225.1022	252.9705	289.6096	358.17	419.2357	503.646	571.2424	630.2797	758.166	809.3336	947.5022	1000.7242	1023.8541	1044.0617	1066.1883	1102.8995	1141.7541	1219.4172	1311.4179	1341.7079	1394.563	1406.8798	1409.4181	1486.5237	1495.374	1740.7358	1882.2743	2350.1201	3034.1729	3057.2492	3078.7691	3116.8763	3139.4405	3145.3924
CC(N=COC=O)C#N	C[C@@H](N=COC=O)C#N	
InChI=1S/C5H6N2O2/c1-5(2-6)7-3-9-4-8/h3-5H,1H3	InChI=1S/C5H6N2O2/c1-5(2-6)7-3-9-4-8/h3-5H,1H3/t5-/m1/s1
