17
gdb 46526	3.71435	1.26379	1.11349	5.9345	69.01	-0.2771	0.045	0.3221	1104.5472	0.137044	-458.992263	-458.984514	-458.98357	-459.025075	29.038	
O	 0.009012051	 0.3011706368	 0.8149033067	-0.360941
C	-0.0140806533	 1.2483217597	 0.0883653781	 0.476768
O	-1.1925978832	 1.7829415346	-0.3051670683	-0.258515
C	-1.272241184	 2.8934259106	-1.2159615595	-0.131538
C	-0.0648963645	 3.7731282414	-1.0847269371	 0.294775
C	-0.0912567534	 5.1917993163	-1.5802143717	-0.328541
C	-0.0670818569	 4.9128009142	-0.0967910739	-0.294269
C	 1.1622000954	 2.927044592	-1.2495567806	-0.131451
O	 1.1379581275	 1.8142117052	-0.3384318011	-0.258573
H	-1.3626877778	 2.4960249142	-2.2358768732	 0.118255
H	-2.2004934164	 3.4140034244	-0.9669666291	 0.123982
H	 0.8070976036	 5.5845572195	-2.0449128359	 0.124759
H	-1.012490632	 5.5594534219	-2.0199880289	 0.12476
H	-0.9731446247	 5.0891440555	 0.4723194162	 0.129148
H	 0.8490213171	 5.1143036092	 0.4473475714	 0.129139
H	 1.2359250881	 2.53275512	-2.2720177165	 0.118266
H	 2.0821548734	 3.4729299747	-1.0251443863	 0.123977
80.0044	82.534	186.4286	251.6905	329.6229	374.693	460.5022	462.7621	580.2515	676.8195	761.9933	781.2899	799.1678	813.7326	909.0843	951.9362	974.9314	989.7166	1005.6035	1041.1397	1060.0749	1083.0572	1103.1905	1147.1344	1161.1057	1185.3585	1245.9868	1254.3329	1351.7383	1366.238	1426.0001	1436.4326	1469.4678	1506.8666	1507.732	1523.1009	1878.3066	3015.0862	3021.5315	3094.1597	3096.7431	3131.4791	3138.1008	3210.9474	3227.0978
O=C1OCC2(CC2)CO1	O=C1OCC2(CC2)CO1	
InChI=1S/C6H8O3/c7-5-8-3-6(1-2-6)4-9-5/h1-4H2	InChI=1S/C6H8O3/c7-5-8-3-6(1-2-6)4-9-5/h1-4H2
