18
gdb 46913	3.22919	1.33983	1.0289	1.8328	71.49	-0.2444	0.0225	0.2669	1132.6913	0.149982	-439.103298	-439.095555	-439.09461	-439.135837	29.974	
O	 0.0309640854	-0.062512458	 0.5267727775	-0.364865
C	-0.0004799975	 1.087981154	 0.127849135	 0.374246
C	-1.3536641108	 1.6923252482	-0.2754439904	-0.285322
C	-1.5041762306	 3.2037921618	-0.5071828579	-0.273192
C	-0.6825050157	 3.664501312	-1.692204477	 0.070018
O	 0.0605810011	 4.8823734831	-1.576404173	-0.256085
C	 0.7800399861	 3.6460912406	-1.5944521426	 0.057509
C	 1.4042396261	 3.2075388204	-0.2821419832	-0.216969
N	 1.170976122	 1.7950332777	-0.0032959598	-0.305815
H	-1.6471636699	 1.1497879029	-1.1837274999	 0.1354
H	-2.0500672978	 1.3553578118	 0.49742313	 0.137573
H	-2.5626320173	 3.4284028539	-0.6765321229	 0.110588
H	-1.2084972935	 3.7702479284	 0.3800667111	 0.120552
H	-1.1307841264	 3.5106634602	-2.6741800668	 0.098916
H	 1.3701952089	 3.4738974099	-2.4936419585	 0.100836
H	 2.4879007912	 3.3474738021	-0.3159106159	 0.11999
H	 1.0277546106	 3.8574910818	 0.5160877331	 0.129292
H	 1.9593243083	 1.2535626991	 0.3205980413	 0.247326
61.5516	152.9949	244.787	277.3313	329.5568	378.5962	449.5344	487.6403	504.2198	593.4343	652.5664	696.6728	722.5371	806.422	830.535	902.5676	946.0233	957.8184	1039.7892	1052.2267	1070.2195	1118.0573	1126.3599	1152.6366	1203.1023	1243.9051	1268.0809	1289.1746	1320.7415	1347.1302	1367.6932	1391.9664	1400.4966	1455.7426	1473.1921	1489.9169	1494.0088	1517.7155	1769.4176	3035.9787	3037.0315	3051.8217	3089.0256	3093.3544	3098.0654	3109.4204	3125.2513	3608.3628
O=C1CCC2OC2CN1	O=C1CC[C@H]2O[C@H]2CN1	
InChI=1S/C6H9NO2/c8-6-2-1-4-5(9-4)3-7-6/h4-5H,1-3H2,(H,7,8)	InChI=1S/C6H9NO2/c8-6-2-1-4-5(9-4)3-7-6/h4-5H,1-3H2,(H,7,8)/t4-,5+/m1/s1
