19
gdb 106316	3.00774	1.21999	1.04136	0.6796	71.38	-0.2339	0.0629	0.2968	1208.5444	0.157717	-460.110524	-460.101377	-460.100432	-460.14428	34.493	
C	-0.2755759105	 1.5093764352	 0.2406012743	-0.424421
C	 0.0778533243	 0.0369990259	 0.1807778414	 0.140641
O	 1.0604973439	-0.3131436261	-0.858726941	-0.360558
C	 1.787301307	-1.123092174	 0.0843535984	 0.355594
C	 2.256883193	-2.4685289144	-0.3978669011	-0.190341
O	 3.080989081	-3.1223343779	 0.549860083	-0.405063
C	 2.4011176959	-0.2137428035	 1.0892713276	 0.067621
O	 2.8505470437	 1.062067055	 0.7523030106	-0.435782
C	 0.9397047354	-0.6203594572	 1.2534213838	-0.249009
H	-0.6784269603	 1.8427739587	-0.7215275687	 0.125443
H	-1.0494006592	 1.6659509656	 0.9999669417	 0.123439
H	 0.5894642914	 2.1198151055	 0.5033878317	 0.138911
H	-0.8231157421	-0.5606219374	-0.0081479013	 0.089915
H	 1.4000257471	-3.1285456806	-0.56973309	 0.12254
H	 2.7610051472	-2.3350677664	-1.3684376804	 0.105723
H	 3.9129414079	-2.6401998441	 0.5960788608	 0.290113
H	 3.0459621865	-0.6924641803	 1.8207370801	 0.109364
H	 2.5655714349	 1.2062560191	-0.1607439968	 0.29268
H	 0.5748972028	-1.1398633432	 2.129972336	 0.103189
67.0826	151.0587	184.5155	211.2716	230.0148	235.5084	316.6347	334.4527	377.8068	465.1754	485.5094	595.268	626.5499	689.7674	745.0027	796.5633	850.4539	890.5997	948.7618	970.625	1025.5607	1033.5329	1063.1175	1084.1822	1088.8557	1122.1683	1148.4405	1171.9095	1218.3371	1254.6042	1292.1733	1317.3948	1376.5367	1382.1778	1390.0057	1407.9991	1414.5299	1485.7092	1486.8386	1502.3939	1504.1732	2981.5759	3019.3387	3041.4055	3070.6049	3103.446	3146.8426	3159.9924	3198.0162	3747.0317	3818.1127
CC1OC2(CO)C(O)C12	C[C@H]1O[C@@]2(CO)[C@@H](O)[C@@H]12	
InChI=1S/C6H10O3/c1-3-4-5(8)6(4,2-7)9-3/h3-5,7-8H,2H2,1H3	InChI=1S/C6H10O3/c1-3-4-5(8)6(4,2-7)9-3/h3-5,7-8H,2H2,1H3/t3-,4-,5+,6-/m1/s1
