15
gdb 45652	3.31943	1.67461	1.31205	4.135	71.46	-0.2207	-0.0287	0.192	937.5103	0.114349	-416.754942	-416.748214	-416.747269	-416.786055	26.645	
O	-0.0725558828	-0.0423893916	-0.0321135803	-0.345321
C	 0.0336189402	 1.1540690281	 0.0508566606	 0.37513
N	-1.033619622	 2.055350694	 0.2190857281	-0.307599
C	-0.6010905919	 3.3732630761	 0.4358408866	-0.085356
C	 0.70443566	 3.4617000609	 0.1333110827	 0.054187
C	 1.9750344999	 3.7942620089	 0.8826870352	-0.094591
C	 2.062296979	 2.8526213471	 2.0247954844	-0.22803
N	 2.4719584403	 2.3584825749	 0.6917207586	-0.151701
C	 1.2344704259	 2.1002914719	-0.1790833584	-0.106965
H	-1.988335615	 1.7367006116	 0.2704207173	 0.263761
H	-1.266698198	 4.0818504398	 0.9115853367	 0.133006
H	 2.6399083285	 4.6370170017	 0.7353072442	 0.110467
H	 2.9130944619	 2.9261585435	 2.6965227123	 0.128564
H	 1.1470065938	 2.4909493508	 2.4859733751	 0.123902
H	 1.6076735901	 1.9195460022	-1.191671533	 0.130544
115.5987	171.2469	303.6896	334.6813	486.5487	521.5059	525.5028	615.8064	635.3661	691.3335	746.777	762.8564	811.9981	846.5735	900.3802	949.4188	976.3986	1000.695	1035.3122	1071.9399	1108.1407	1122.3988	1129.459	1161.6022	1212.8567	1226.4413	1282.0543	1300.2825	1337.4515	1386.8391	1493.2632	1664.6795	1843.425	3067.0647	3109.9541	3181.4677	3199.8437	3215.8034	3646.6821
O=C1NC=C2C3CN3C12	O=C1N[CH][C]2[C@H]3CN3[C@@H]12	
InChI=1S/C6H6N2O/c9-6-5-3(1-7-6)4-2-8(4)5/h1,4-5H,2H2,(H,7,9)	InChI=1S/C6H6N2O/c9-6-5-3(1-7-6)4-2-8(4)5/h1,4-5H,2H2,(H,7,9)/t4-,5-,8?/m1/s1
