23
gdb 88820	2.91538	1.0666	0.86194	1.9208	85.85	-0.2386	0.0847	0.3233	1429.9969	0.20506	-388.263872	-388.254018	-388.253074	-388.299946	36.254	
C	 0.1734019663	 1.576007044	-0.3461896277	-0.407849
C	-0.0458195387	 0.1129619214	-0.0257419905	-0.007289
C	 1.092895888	-0.8757515987	-0.0655003487	-0.309931
C	 0.4329907182	-0.5438148201	 1.2555957888	 0.00388
C	 1.1708360757	 0.2082460113	 2.3303346294	-0.070127
C	 0.335672835	 0.7176807776	 3.5282840217	-0.086527
O	 1.0677323173	-0.100791029	 4.4592405357	-0.292782
C	 1.9441284601	-0.6012339586	 3.4199872009	 0.145879
C	 1.9751090417	-2.1165065565	 3.3730177994	-0.396531
H	 1.1608881604	 1.9242952898	-0.0303944734	 0.11759
H	 0.1011309383	 1.7470430386	-1.4259480968	 0.118377
H	-0.5754224191	 2.2112377083	 0.1404984867	 0.117375
H	-0.9981491314	-0.2675327275	-0.387126825	 0.084132
H	 0.9321726277	-1.856125104	-0.5006273036	 0.1097
H	 2.0884937613	-0.4755664285	-0.2355471248	 0.107021
H	-0.2392328342	-1.3063322716	 1.6411080268	 0.082914
H	 1.7964300675	 0.9851241722	 1.8863142553	 0.069194
H	 0.4315562256	 1.7876907804	 3.7539967556	 0.093858
H	-0.7309173129	 0.4576924871	 3.5034557407	 0.095269
H	 2.9650126188	-0.2214224235	 3.5721007579	 0.067912
H	 0.9760141564	-2.5361331113	 3.2289937146	 0.117792
H	 2.6218587467	-2.4653788348	 2.5611108176	 0.116944
H	 2.3716942414	-2.5043295266	 4.3167977494	 0.1232
24.8514	55.9066	119.2322	179.5033	202.3285	228.4529	249.5986	351.6434	372.2401	393.7964	465.825	539.7212	754.0804	760.4233	796.2481	858.8178	877.537	883.0961	919.7972	925.1083	997.8489	1016.3145	1029.1606	1052.0697	1070.3491	1076.5829	1097.229	1112.891	1152.5916	1154.6607	1160.3988	1198.9246	1209.0628	1243.9665	1261.9946	1286.4184	1314.9815	1361.1031	1385.2729	1397.9655	1408.104	1422.2032	1443.3745	1481.5037	1492.2866	1495.1179	1497.7504	1506.3015	1527.2347	2986.8348	3003.2262	3029.4747	3038.6453	3040.785	3082.5334	3086.6741	3105.0295	3107.244	3119.0002	3122.9203	3129.443	3140.2722	3207.0744
CC1CC1C1COC1C	C[C@H]1C[C@H]1[C@H]1CO[C@H]1C	
InChI=1S/C8H14O/c1-5-3-7(5)8-4-9-6(8)2/h5-8H,3-4H2,1-2H3	InChI=1S/C8H14O/c1-5-3-7(5)8-4-9-6(8)2/h5-8H,3-4H2,1-2H3/t5-,6-,7+,8-/m0/s1
