23
gdb 86380	2.51	1.44579	1.08738	1.7716	85.07	-0.2494	0.0853	0.3347	1237.1134	0.205116	-388.309198	-388.299702	-388.298758	-388.342833	36.747	
C	 0.0608886367	 1.591418948	 0.0455352309	-0.402355
C	 0.0252578824	 0.0621358158	 0.0180421455	-0.00117
C	 0.7621261758	-0.5649674043	-1.1921270994	-0.240282
C	 1.2632277882	-1.9575871386	-0.7347029312	-0.035392
C	 2.5232403115	-2.4262303923	-1.4659365209	-0.408755
C	 1.435095938	-1.7984433075	 0.7761940476	 0.418342
C	 1.7086284659	-2.9896878993	 1.6530921414	-0.492285
O	 2.144502539	-0.5868069088	 1.1151619031	-0.309935
C	 0.7080022331	-0.5979530255	 1.2033300554	-0.025002
H	 1.0941873207	 1.9455124712	 0.1197252826	 0.129536
H	-0.3785155032	 2.0134469659	-0.8642859292	 0.111912
H	-0.495617351	 1.9905272406	 0.9004288308	 0.109367
H	-1.0222952774	-0.2726816116	 0.0234018078	 0.06957
H	 0.1269875429	-0.6240678384	-2.0803912218	 0.092549
H	 1.6232534826	 0.0592494038	-1.4501396324	 0.108978
H	 0.4650630563	-2.6985412053	-0.8881182641	 0.067904
H	 3.3570746875	-1.747720754	-1.2578083447	 0.129162
H	 2.8208132894	-3.4343265036	-1.1590819256	 0.110734
H	 2.3639602838	-2.4448101174	-2.548955871	 0.11214
H	 2.6671051847	-3.4538368831	 1.3966801662	 0.128089
H	 1.7488700504	-2.6928519118	 2.7040334248	 0.127803
H	 0.9274022525	-3.7482552455	 1.5324406121	 0.118616
H	 0.3072057403	-0.4825813883	 2.2093334222	 0.080474
105.8001	134.5294	195.0495	216.4743	228.7867	240.3369	245.0106	305.3921	383.1839	405.0959	480.9846	558.4585	573.9325	628.0604	671.0266	818.5228	854.9908	881.3141	900.1394	924.642	957.4706	991.351	1012.1564	1033.7177	1051.3499	1073.9601	1092.4274	1142.5138	1146.3559	1175.2087	1208.5027	1243.9492	1290.6516	1302.9959	1332.671	1338.087	1363.6783	1374.3641	1405.0846	1408.855	1411.4843	1458.8172	1484.9894	1485.3549	1496.4793	1498.6752	1501.7101	1502.8608	1503.926	2999.0001	3001.4809	3030.4754	3030.91	3034.5343	3053.9298	3093.8871	3095.6904	3097.1794	3098.4689	3105.8174	3107.3201	3120.591	3124.8757
CC1CC(C)C2(C)OC12	C[C@H]1C[C@@H](C)[C@@]2(C)O[C@@H]12	
InChI=1S/C8H14O/c1-5-4-6(2)8(3)7(5)9-8/h5-7H,4H2,1-3H3	InChI=1S/C8H14O/c1-5-4-6(2)8(3)7(5)9-8/h5-7H,4H2,1-3H3/t5-,6+,7-,8+/m0/s1
