16
gdb 50464	4.74832	0.97163	0.84315	2.8481	68.74	-0.2567	-0.0544	0.2023	1293.9994	0.12422	-475.034577	-475.026232	-475.025288	-475.068946	29.316	
N	-0.0761351378	 1.2752101116	 0.3902851311	-0.535212
C	-0.0095428341	 0.0911771443	-0.0347691532	 0.464348
O	 1.1731095966	-0.5544361629	-0.2416922739	-0.265271
C	 1.2527038805	-1.7302982228	-1.0477039744	-0.091617
C	 0.0350254645	-2.6356467975	-0.8545863916	-0.127846
C	-1.19416938	-1.7448442797	-1.0505228077	-0.088799
O	-1.1543670534	-0.6077245982	-0.1954383187	-0.232797
C	 0.0468844732	-3.7645724452	-1.8664517987	 0.146642
O	 0.0584114062	-4.932806156	-1.5840629774	-0.228861
H	 0.8629846167	 1.6464168558	 0.5182253157	 0.229981
H	 1.3438510726	-1.4373915104	-2.1040345829	 0.117152
H	 2.1784073231	-2.2272469497	-0.7497632292	 0.14159
H	 0.0331428947	-3.0681892801	 0.1492281252	 0.123521
H	-1.265078153	-1.416442076	-2.0980977167	 0.11755
H	-2.11755211	-2.2671859849	-0.7930222058	 0.144088
H	 0.0439925304	-3.4287154683	-2.9300784517	 0.08553
50.0862	59.2067	112.8357	165.9979	271.0371	355.2429	384.2376	423.0091	555.6379	570.0394	686.157	738.4955	811.0983	829.4846	912.2002	936.8461	939.9058	1007.0228	1073.8701	1109.1606	1137.7488	1138.8971	1176.9232	1246.9366	1259.2988	1280.2604	1315.5735	1360.8829	1426.5228	1429.7932	1433.9505	1509.5072	1516.0431	1767.1779	1837.9006	2856.5916	2997.7221	3003.9956	3089.9056	3107.591	3113.6377	3527.9951
N=C1OCC(CO1)C=O	[NH][C]1OC[C@@H](CO1)C=O	
InChI=1S/C5H7NO3/c6-5-8-2-4(1-7)3-9-5/h1,4,6H,2-3H2	InChI=1S/C5H7NO3/c6-5-8-2-4(1-7)3-9-5/h1,4,6H,2-3H2/t4-
