19
gdb 73656	2.76371	1.53026	1.23164	2.3913	75.17	-0.2433	-0.0225	0.2208	1064.6613	0.15955	-423.048065	-423.039774	-423.03883	-423.080861	31.965	
O	 0.2332351986	 1.2289739749	-0.5919846888	-0.491352
C	 0.1218889221	-0.0644280097	-0.0717306358	 0.331436
C	 0.8732743252	-1.0881160634	-0.9532224937	-0.25682
C	-0.2122446606	-1.6178940687	-1.9060508521	-0.199808
C	-1.4542751619	-1.8060211751	-1.0041050125	-0.234978
C	-1.2946526772	-0.7566482641	 0.1164355557	-0.054371
C	-0.849588368	-1.2310656678	 1.5427969891	-0.364185
C	 0.2733457059	-0.1920444649	 1.4402162151	 0.311921
O	 0.8088397875	 0.5369595904	 2.2316505253	-0.321263
H	 0.388877279	 1.8221249334	 0.1539294516	 0.292429
H	 1.7127324288	-0.6020518049	-1.4537082222	 0.119298
H	 1.2722873334	-1.9074218363	-0.3437771744	 0.101991
H	-0.4189932388	-0.8616786011	-2.6714661187	 0.117471
H	 0.0838534189	-2.5351287731	-2.4229274765	 0.096492
H	-2.3865100737	-1.6749682197	-1.5597955664	 0.106217
H	-1.4761382539	-2.8166487449	-0.5807840871	 0.100251
H	-2.1073697119	-0.0315337961	 0.1727858987	 0.08751
H	-1.5377226594	-1.0798882882	 2.3765591292	 0.131674
H	-0.4940886038	-2.2655995107	 1.5565415135	 0.126086
92.9174	139.9443	163.5971	195.9037	302.078	306.6265	420.4319	445.7426	484.5227	566.3099	650.3816	675.4104	750.5147	805.199	829.251	844.8279	907.5885	940.6481	955.8467	981.2779	1019.8328	1024.8873	1066.8929	1082.8663	1123.3933	1137.9901	1181.1064	1201.1043	1209.415	1251.0565	1303.3243	1311.7319	1318.6294	1329.4178	1351.2429	1382.5637	1444.2543	1475.7666	1491.1043	1506.0043	1860.5066	3037.9632	3040.6399	3047.0367	3063.3706	3085.878	3098.358	3108.0802	3119.1198	3129.5402	3772.3639
OC12CCCC1CC2=O	O[C@]12CCC[C@H]1CC2=O	
InChI=1S/C7H10O2/c8-6-4-5-2-1-3-7(5,6)9/h5,9H,1-4H2	InChI=1S/C7H10O2/c8-6-4-5-2-1-3-7(5,6)9/h5,9H,1-4H2/t5-,7+/m0/s1
