21
gdb 113351	1.86839	1.32218	0.97451	2.6125	81.25	-0.2409	-0.0195	0.2214	1339.3943	0.179338	-424.219678	-424.209332	-424.208388	-424.255187	36.968	
C	 0.3196487721	 1.2751047546	 0.5631736504	-0.377494
C	-0.1437335963	-0.0797361347	 0.0115723845	-0.28572
C	 0.535555254	-0.4654016895	-1.2884812216	 0.201375
C	 1.9981689129	-0.9126139789	-1.2745477007	-0.355966
C	 0.9736935056	-1.9437566408	-1.5228994288	 0.097639
O	 0.7471440954	-2.8792984814	-0.5338281085	-0.226266
C	-0.4772371949	-3.5768051715	-0.6951425918	-0.242478
C	 0.0711016008	 0.1968549866	-2.5275709766	 0.085676
O	 0.6127421847	 0.0998948411	-3.6070040503	-0.282754
H	 1.3964365085	 1.2724873281	 0.7603331544	 0.121439
H	 0.1164727345	 2.0863732704	-0.1442670879	 0.118704
H	-0.1939482632	 1.513561254	 1.4996706398	 0.115153
H	 0.039432231	-0.8653536598	 0.7508863863	 0.117156
H	-1.230269653	-0.0541311251	-0.147935199	 0.096909
H	 2.6083511411	-0.5929342201	-2.1117352901	 0.140627
H	 2.4801872841	-0.9264745385	-0.3030442638	 0.128546
H	 0.8398972011	-2.2985417855	-2.5449321267	 0.111208
H	-1.3395353178	-2.8995952328	-0.6299283321	 0.115606
H	-0.5129012761	-4.0984707554	-1.6618878913	 0.119234
H	-0.5339546294	-4.311847688	 0.110081429	 0.133977
H	-0.868177435	 0.7858820969	-2.4139739955	 0.067428
83.5669	97.5721	109.7043	160.3084	167.2634	204.3912	222.778	234.2626	294.1004	349.2837	380.8891	478.4133	568.549	613.7398	732.4685	753.2508	785.16	857.0564	926.0941	980.909	1012.4596	1035.6628	1054.5201	1085.297	1090.7281	1101.6706	1147.5104	1182.937	1186.5894	1249.9117	1258.4075	1287.9763	1332.4713	1368.8034	1397.1728	1413.3511	1429.7563	1455.7719	1486.4804	1486.9349	1491.6926	1499.2188	1504.5853	1508.2746	1791.3036	2862.5036	2996.1328	3017.7973	3033.7292	3052.1343	3077.7457	3104.0532	3107.9183	3108.569	3129.4369	3136.6039	3234.26
CCC1(CC1OC)C=O	CC[C@]1(C[C@H]1OC)C=O	
InChI=1S/C7H12O2/c1-3-7(5-8)4-6(7)9-2/h5-6H,3-4H2,1-2H3	InChI=1S/C7H12O2/c1-3-7(5-8)4-6(7)9-2/h5-6H,3-4H2,1-2H3/t6-,7+/m1/s1
