17
gdb 35221	3.59514	1.16976	1.0051	2.0426	82.07	-0.2399	0.0005	0.2404	1196.0384	0.134943	-384.649295	-384.641113	-384.640169	-384.682543	31.124	
C	 0.0058106315	-1.2100562498	-0.1082760312	-0.421664
C	 0.0202477113	-0.0076761674	-0.0865177691	 0.344541
C	 0.0363300294	 1.4291622573	-0.0956140132	-0.27045
O	 0.3771126771	 2.1047316537	 1.1265722274	-0.287377
C	 1.3051056485	 2.1958843521	 0.0397087218	 0.43837
C	 2.6855357806	 1.5520443235	 0.1940603839	-0.318665
C	 3.6598307275	 2.4967261698	-0.5600522347	-0.270057
C	 2.802049836	 3.6809571905	-0.9384552853	-0.070999
C	 1.5207220979	 3.5122710394	-0.6134699081	-0.141227
H	-0.0132153693	-2.2719704394	-0.1168679382	 0.201673
H	-0.7835228313	 1.8946837457	-0.6434983924	 0.110562
H	 2.924808684	 1.4977667288	 1.2594399959	 0.127072
H	 2.7001681687	 0.5310132648	-0.1933244364	 0.122387
H	 4.5173386628	 2.7946432217	 0.0543846162	 0.113718
H	 4.0796670919	 2.0186060752	-1.4539748433	 0.115873
H	 3.2086270081	 4.555203198	-1.4349725684	 0.102696
H	 0.7104044355	 4.2103771863	-0.7853449749	 0.103547
51.0486	119.9379	133.3091	262.9422	316.0784	359.6643	428.327	514.9439	561.4586	577.8889	617.2794	670.0967	737.3663	756.1789	810.2619	824.8811	851.4818	920.3057	932.1235	976.0334	998.6993	1024.1945	1055.5884	1069.7746	1120.0736	1176.4177	1222.6719	1246.2265	1271.4945	1310.3387	1332.2677	1373.6071	1440.7282	1477.0049	1497.1811	1679.234	2235.3573	3028.21	3054.4933	3071.7985	3103.1143	3115.3621	3189.2928	3216.6263	3501.7058
C#CC1OC11CCC=C1	C#C[C@H]1O[C@]21CCC=C2	
InChI=1S/C8H8O/c1-2-7-8(9-7)5-3-4-6-8/h1,3,5,7H,4,6H2	InChI=1S/C8H8O/c1-2-7-8(9-7)5-3-4-6-8/h1,3,5,7H,4,6H2/t7-,8+/m1/s1
