16
gdb 127116	3.81426	1.31913	0.99239	4.8598	77.2	-0.2354	-0.0691	0.1663	1151.0386	0.124747	-430.232639	-430.224086	-430.223142	-430.266596	29.544	
C	-0.0693766835	 1.4222461432	 0.0202970798	-0.347526
N	 0.0016222183	-0.0309460092	-0.0247532386	-0.139919
C	 0.0773258614	-0.7052694028	 1.2614362484	-0.347703
C	-0.003944581	-0.7167803003	-1.1856047477	 0.551324
N	 0.0644953167	-2.0608311771	-1.15967331	-0.323957
C	 0.0507289902	-2.6067745458	-2.3606400631	 0.116927
N	-0.0217160787	-1.966425584	-3.5329912449	-0.212741
N	-0.0866986638	-0.6396051308	-3.4798168014	-0.054511
N	-0.0800228476	 0.0009519185	-2.3451207994	-0.269133
H	 0.8160039162	 1.8235642248	 0.5277176129	 0.131543
H	-0.1205268184	 1.8187284625	-0.9902644958	 0.185153
H	-0.9571597265	 1.7357784163	 0.5825106878	 0.131563
H	-0.8052817049	-0.4624274903	 1.8653806129	 0.132502
H	 0.1274562729	-1.7804149733	 1.1086352175	 0.176425
H	 0.9674757009	-0.3718209063	 1.8083493418	 0.132494
H	 0.1033017878	-3.6920222454	-2.4171668804	 0.137558
77.9108	89.2337	112.5381	130.6725	244.5779	260.3117	356.5024	379.3685	517.4182	551.3261	568.0134	706.938	802.8919	851.4119	983.1883	1006.4316	1011.4948	1057.8574	1083.62	1132.7135	1149.2065	1183.571	1216.9537	1248.0343	1344.6136	1388.5682	1439.2439	1448.7769	1481.4651	1491.4977	1495.7974	1505.5058	1513.1571	1580.1033	1621.6662	3019.8438	3026.2993	3069.9676	3072.8208	3161.9941	3184.9499	3189.2965
CN(C)C1=NC=NN=N1	CN(C)c1ncnnn1	
InChI=1S/C4H7N5/c1-9(2)4-5-3-6-8-7-4/h3H,1-2H3	InChI=1S/C4H7N5/c1-9(2)4-5-3-6-8-7-4/h3H,1-2H3
