17
gdb 49527	4.29643	1.07568	0.96171	4.168	74.92	-0.2347	-0.024	0.2108	1214.1025	0.136478	-417.90032	-417.892686	-417.891742	-417.932752	29.21	
O	 0.0697755827	-0.0694706108	-0.3328450548	-0.259523
C	 0.031124566	 1.1056201814	-0.0556963972	 0.121811
C	 1.2644785377	 1.9646380395	-0.0142125712	-0.052046
C	 1.1961531053	 3.4104249824	-0.6127285823	-0.133201
N	 0.2834090913	 3.7728971152	 0.5501152143	-0.321022
C	 1.4285805007	 2.9840792531	 1.1657772501	-0.158829
C	 2.4127062358	 3.7550628941	 0.2668371576	 0.4438
N	 3.8220179062	 3.6459865192	-0.0046897808	-0.390821
C	 3.2494502802	 4.9447848793	 0.4689324221	-0.357736
H	-0.9187043834	 1.6186601861	 0.1849933148	 0.10626
H	 2.1502313851	 1.3840327317	-0.2746278313	 0.100812
H	 0.973304626	 3.695682986	-1.6405873081	 0.101132
H	 0.4055155042	 4.7654468862	 0.7732423285	 0.214868
H	 1.4769994556	 2.7657913737	 2.2338655264	 0.094823
H	 4.3121715985	 3.1776031192	 0.754156796	 0.23807
H	 3.278520965	 5.7418379727	-0.2688945838	 0.130375
H	 3.4642714631	 5.261111601	 1.4869351598	 0.121228
79.9329	130.9145	215.2181	285.5972	293.47	364.6602	417.2464	484.0339	616.7938	679.9261	759.1762	777.5596	859.835	870.0432	895.902	940.1245	967.1123	971.6138	1026.9702	1046.1223	1075.6573	1103.7946	1122.6756	1130.7054	1133.4939	1166.9562	1187.1942	1211.2987	1240.835	1254.0292	1272.7434	1286.8302	1336.9053	1415.2297	1447.9074	1528.2775	1811.7278	2962.6986	3105.6213	3105.7668	3119.5046	3127.2923	3190.5659	3391.7282	3495.035
O=CC1C2NC1C21NC1	O=C[C@H]1[C@H]2N[C@@H]1[C@]12NC1	
InChI=1S/C6H8N2O/c9-1-3-4-6(2-7-6)5(3)8-4/h1,3-5,7-8H,2H2	InChI=1S/C6H8N2O/c9-1-3-4-6(2-7-6)5(3)8-4/h1,3-5,7-8H,2H2/t3-,4+,5-,6-
