19
gdb 74674	4.12755	1.33605	1.27278	1.4126	80.66	-0.2127	0.0187	0.2314	1062.6628	0.161216	-385.867314	-385.860278	-385.859334	-385.898429	29.002	
C	-0.0275920157	 1.4565026988	 0.0717811677	-0.510736
C	-0.0292400045	-0.0322328641	 0.0016870304	 0.319141
C	-0.0582671482	-0.8700858534	-1.0443486493	-0.218934
C	 0.0132099378	-2.2482956019	-0.4216607376	-0.093305
C	-0.9270485177	-2.1540942353	 0.8411168515	-0.059286
C	-0.45087739	-3.2935373787	 1.7295100948	-0.102968
O	 0.9847023599	-3.1642027146	 1.5919491295	-0.279032
C	 1.0895150937	-2.0654729066	 0.7175472842	 0.140559
C	 0.0547256923	-0.9720258484	 1.1946134378	-0.151106
H	 0.8716080132	 1.8344730437	 0.5752499295	 0.126654
H	-0.066084098	 1.8995848717	-0.9275274717	 0.124709
H	-0.8847755482	 1.8349441838	 0.643623663	 0.125148
H	-0.0820429187	-0.6443358677	-2.1015076614	 0.095717
H	 0.0191053852	-3.1366852404	-1.0540638026	 0.061355
H	-1.9998978922	-1.98646685	 0.7361307584	 0.070216
H	-0.7329401697	-3.1802428519	 2.7829766798	 0.104332
H	-0.7681082025	-4.2838564962	 1.3819264973	 0.105297
H	 2.1327721866	-1.830416538	 0.504252735	 0.083278
H	 0.1043348666	-0.5613984009	 2.2045220438	 0.05896
164.7923	178.7822	245.5871	330.8539	395.677	423.5801	534.7381	551.546	660.5267	672.961	782.6908	809.0607	833.9665	901.5812	933.6244	941.1867	955.9734	964.9168	974.6242	1001.8279	1009.8794	1034.2585	1052.3249	1067.8309	1101.6629	1161.1626	1177.2242	1186.9277	1192.0334	1222.9012	1238.8538	1250.7177	1268.6269	1311.1411	1324.6229	1375.1404	1414.565	1477.8566	1488.5727	1516.1973	1687.5996	3013.3606	3024.769	3057.0213	3064.8645	3102.9541	3105.9108	3110.4035	3115.2051	3127.9585	3224.4934
CC1=CC2C3COC2C13	CC1=C[C@@H]2[C@H]3CO[C@@H]2[C@@H]13	
InChI=1S/C8H10O/c1-4-2-5-6-3-9-8(5)7(4)6/h2,5-8H,3H2,1H3	InChI=1S/C8H10O/c1-4-2-5-6-3-9-8(5)7(4)6/h2,5-8H,3H2,1H3/t5-,6-,7+,8+/m1/s1
