14
gdb 47626	2.98561	1.40293	0.97934	5.621	71.53	-0.2626	-0.0912	0.1713	1118.8365	0.101319	-436.715629	-436.707957	-436.707013	-436.748191	27.817	
O	 0.0049230219	-0.0153866927	 0.1794403563	-0.284399
C	-0.00800638	 1.1786266223	 0.0023847892	 0.310226
C	-1.3055668792	 1.9759560096	-0.1092454965	-0.191577
O	-1.1677075032	 3.1458210329	-0.8913803659	-0.236963
C	-0.1743708695	 4.0216020371	-0.4155880248	-0.128819
C	 1.1382117527	 3.3461051392	-0.1697334924	-0.14113
C	 1.233626635	 2.0098071474	-0.0362187928	 0.053679
C	 2.4912541409	 1.3558747802	 0.1519205765	 0.24247
N	 3.5153400151	 0.8386373072	 0.2996217147	-0.319201
H	-2.0639818434	 1.3515872015	-0.5846310205	 0.154043
H	-1.6487191778	 2.2117131514	 0.9143176396	 0.123577
H	-0.0544748108	 4.8014533118	-1.1755950249	 0.146842
H	-0.4944448397	 4.5324204091	 0.5139094473	 0.125605
H	 2.0215801781	 3.9746444628	-0.0983523058	 0.145646
82.8888	148.9943	164.3572	264.3566	308.3371	356.8366	443.2805	462.0939	519.259	589.1144	651.2292	689.8546	766.0874	864.2717	921.7244	999.1597	1015.0051	1036.0023	1108.8999	1178.1219	1222.7939	1249.0054	1298.0201	1353.2671	1361.1622	1403.9464	1462.9748	1473.4869	1669.3543	1807.6843	2352.208	2922.6431	2954.0102	3069.5227	3124.6714	3179.157
O=C1COCC=C1C#N	O=C1COCC=C1C#N	
InChI=1S/C6H5NO2/c7-3-5-1-2-9-4-6(5)8/h1H,2,4H2	InChI=1S/C6H5NO2/c7-3-5-1-2-9-4-6(5)8/h1H,2,4H2
