19
gdb 89925	3.18152	1.28824	1.0775	1.2212	82.41	-0.2469	0.0311	0.278	1173.9565	0.158116	-385.826674	-385.818043	-385.817099	-385.859848	33.176	
C	 0.3260346223	 1.67430491	 0.0544839885	-0.41048
C	 0.0588654269	 0.1780878771	 0.0259770479	 0.028043
C	 0.8641910018	-0.7150384942	-0.9707664158	-0.312896
C	 1.2474855845	-1.6933719069	 0.1929717168	 0.144455
C	 2.5609402142	-1.2876291978	 0.8987855317	-0.11817
O	 1.8916342437	-0.2636990229	 1.6646625917	-0.288748
C	 0.5923513005	-0.6754834814	 1.1985665321	 0.053188
C	 0.9140893019	-3.0834357607	 0.0661238455	 0.162539
C	 0.6333552984	-4.2486138174	-0.043148071	-0.401273
H	 1.3801479866	 1.8700316319	 0.2693683677	 0.130827
H	 0.0761843432	 2.1342718517	-0.9074603565	 0.113589
H	-0.270919072	 2.170102649	 0.8276338584	 0.116815
H	-1.0131896883	-0.0179412345	-0.0903773704	 0.079269
H	 0.2672409337	-1.1759216952	-1.7584884509	 0.11673
H	 1.732891663	-0.2302048887	-1.4254684697	 0.102984
H	 2.971609832	-2.0700896557	 1.5478909721	 0.111068
H	 3.3540555936	-0.8850445964	 0.2573840863	 0.104166
H	-0.077333246	-0.9477536542	 2.0188139206	 0.079192
H	 0.3860303701	-5.2769593935	-0.1367229253	 0.188701
72.0823	140.3049	167.138	223.3316	233.2895	320.4109	366.8216	422.9092	509.6171	543.2383	601.8896	617.0312	625.8365	636.4923	793.2939	865.3361	884.4991	899.0092	919.2459	964.5695	989.9866	1014.8603	1048.858	1089.2264	1119.7962	1147.7127	1168.2719	1187.323	1194.6643	1249.42	1273.8121	1289.6201	1325.8733	1358.2115	1365.16	1408.5801	1481.9394	1492.2111	1502.9134	1520.9053	2231.04	3015.5419	3033.2316	3040.1349	3060.024	3067.8934	3075.8798	3096.6682	3118.2776	3128.9234	3501.7267
CC1CC2(COC12)C#C	C[C@H]1C[C@]2(CO[C@@H]12)C#C	
InChI=1S/C8H10O/c1-3-8-4-6(2)7(8)9-5-8/h1,6-7H,4-5H2,2H3	InChI=1S/C8H10O/c1-3-8-4-6(2)7(8)9-5-8/h1,6-7H,4-5H2,2H3/t6-,7-,8-/m0/s1
