17
gdb 83104	2.45227	1.78116	1.30311	1.8255	73.13	-0.2313	-0.0322	0.1991	995.4523	0.136244	-421.837161	-421.829255	-421.828311	-421.870065	29.731	
O	 0.5194760089	 0.9017403187	 0.8294119254	-0.429632
C	 0.0686659295	-0.2501420575	 0.1665429336	 0.038752
C	-1.4717087035	-0.4819283926	-0.0089806088	-0.076678
C	-2.3784244012	 0.7624597449	 0.1089951099	-0.272092
C	-2.6465121433	 1.1642953343	-1.3220232974	-0.056783
C	-2.0717186074	 0.3565585453	-2.2136305014	-0.068855
C	-1.2649915409	-0.7305220688	-1.5506065697	-0.207388
C	 0.2098613748	-0.2923071293	-1.3617523061	 0.353824
O	 1.083064924	 0.0798183628	-2.0927682505	-0.307223
H	 1.1404718455	 1.3456898621	 0.2395279498	 0.300363
H	 0.5297215037	-1.1525701482	 0.6004837782	 0.099371
H	-1.8398739362	-1.3271759529	 0.570947244	 0.080207
H	-3.3082099086	 0.5412508605	 0.6467424339	 0.107538
H	-1.874270537	 1.5586068738	 0.6692651954	 0.132236
H	-3.2492770623	 2.0301727793	-1.5745213614	 0.09983
H	-2.1096062186	 0.470967978	-3.2903292655	 0.107477
H	-1.4129647375	-1.7356257504	-1.9542026092	 0.099054
53.2075	140.2228	185.2245	199.0617	253.0066	372.5833	486.1906	515.01	601.7003	639.8029	708.4399	754.2268	800.6445	820.6061	856.2252	910.7135	953.5093	968.0341	985.5279	1013.8412	1040.9461	1058.7224	1110.7351	1129.4415	1163.1458	1187.2069	1213.164	1225.5433	1251.7019	1309.3133	1317.5418	1355.8044	1368.4315	1372.2679	1482.7981	1675.2746	1875.295	2970.2462	3030.4576	3064.3842	3076.677	3116.0653	3186.8148	3215.0268	3789.5753
OC1C2CC=CC2C1=O	O[C@H]1[C@H]2CC=C[C@H]2C1=O	
InChI=1S/C7H8O2/c8-6-4-2-1-3-5(4)7(6)9/h1-2,4-5,7,9H,3H2	InChI=1S/C7H8O2/c8-6-4-2-1-3-5(4)7(6)9/h1-2,4-5,7,9H,3H2/t4-,5+,7+/m1/s1
