16
gdb 88356	2.57899	1.25625	0.96498	4.4051	74.97	-0.2808	0.0064	0.2873	1228.7911	0.121316	-400.695922	-400.686545	-400.6856	-400.730861	33.288	
C	-0.2117540913	 1.4696978361	-0.1906033434	-0.44427
C	-0.1049817501	-0.0009031936	 0.1190956112	 0.06642
O	 1.165047283	-0.6550594054	-0.0606021113	-0.230527
C	 0.624713993	-0.6032328347	 1.2457202706	 0.055242
C	 1.3973872711	 0.1742017365	 2.3368762104	-0.361511
C	 2.0960648927	-0.7517716063	 3.2327502716	 0.320311
C	 2.6412066235	-1.5317374593	 3.9633744118	-0.42185
C	 2.3466592116	 1.1596754336	 1.7954697842	 0.321898
N	 3.0922334911	 1.9512253671	 1.4076966428	-0.327955
H	 0.6348650524	 2.0416901469	 0.1887709839	 0.161651
H	-0.259208521	 1.6149609297	-1.2744944663	 0.139565
H	-1.1361789041	 1.8723760401	 0.237977655	 0.125572
H	-0.9389551841	-0.5960310656	-0.2594258455	 0.100319
H	 0.2678594799	-1.5569866126	 1.6356036198	 0.115037
H	 0.6566923046	 0.732294504	 2.9287113131	 0.165922
H	 3.1353503075	-2.2152844564	 4.6094596922	 0.214177
31.8324	130.8371	143.5247	149.7313	182.0396	218.6963	323.4948	361.7082	402.2793	438.7687	512.8173	583.125	644.8892	665.7192	675.4833	786.9713	810.472	872.92	975.8769	1000.1123	1027.8539	1079.268	1104.7659	1170.6237	1182.6372	1254.4143	1289.5863	1324.9359	1391.8136	1421.0584	1464.1628	1493.1096	1509.9137	2249.9395	2369.8529	3005.6681	3043.8435	3084.3508	3102.6093	3108.673	3159.6968	3501.6403
CC1OC1C(C#C)C#N	C[C@H]1O[C@H]1[C@@H](C#C)C#N	
InChI=1S/C7H7NO/c1-3-6(4-8)7-5(2)9-7/h1,5-7H,2H3	InChI=1S/C7H7NO/c1-3-6(4-8)7-5(2)9-7/h1,5-7H,2H3/t5-,6+,7-/m1/s1
