19
gdb 28434	3.05822	1.3089	0.92357	1.1192	89.8	-0.1811	0.0233	0.2045	1263.2441	0.161288	-382.146577	-382.137815	-382.136871	-382.179169	34.853	
C	 0.023585338	 1.5312366686	 0.0002008361	-0.517194
C	 0.0018415552	 0.0245087397	-0.0029987175	 0.238084
C	-0.0645148768	-0.7033923866	-1.188696394	-0.167602
C	-0.0693024303	-2.0929840571	-1.2159864836	-0.215108
C	-0.0070455288	-2.8066153114	-0.0136589316	 0.320678
N	-0.0721898904	-4.2058943624	-0.0064301139	-0.593572
C	 0.0555290157	-2.095620494	 1.1876694516	-0.260712
C	 0.0615665583	-0.6985872544	 1.2059308773	 0.246464
N	 0.1906282261	-0.018183137	 2.4227271978	-0.591908
H	 0.912809063	 1.9272429171	 0.5071920831	 0.128451
H	 0.0209478446	 1.9220023209	-1.0206063198	 0.121184
H	-0.850735856	 1.9626495266	 0.5099338745	 0.112977
H	-0.1097207116	-0.1593904934	-2.1284723084	 0.0797
H	-0.123554419	-2.6244938546	-2.1607375302	 0.07103
H	 0.2497691592	-4.6348584619	-0.8624883357	 0.242211
H	 0.3647924879	-4.637346244	 0.7957925056	 0.240663
H	 0.0985746561	-2.6393509525	 2.1286572913	 0.06034
H	-0.0840439163	-0.5591994371	 3.2301881105	 0.240551
H	-0.2334314849	 0.8979005632	 2.4404462867	 0.243763
137.3857	173.6009	222.0414	285.3394	288.9729	309.3212	318.0573	349.1548	451.3108	457.2877	498.5856	568.7037	603.3461	633.0474	680.6834	731.1144	756.1429	764.7009	796.8561	842.0151	918.1331	967.8435	1012.9315	1059.3937	1089.9535	1131.1622	1167.6255	1210.1604	1246.8055	1319.5849	1350.5473	1365.5669	1412.941	1480.499	1483.0797	1509.9791	1551.3242	1620.9644	1650.1491	1659.0351	1670.0281	2994.7423	3044.6095	3108.5983	3145.9395	3155.8095	3178.0947	3555.3475	3560.075	3651.6366	3657.0608
CC1=CC=C(N)C=C1N	Cc1ccc(N)cc1N	
InChI=1S/C7H10N2/c1-5-2-3-6(8)4-7(5)9/h2-4H,8-9H2,1H3	InChI=1S/C7H10N2/c1-5-2-3-6(8)4-7(5)9/h2-4H,8-9H2,1H3
