15
gdb 24237	4.09022	1.62634	1.27136	2.4605	70.32	-0.1906	0.0137	0.2043	940.3201	0.116215	-416.800658	-416.79447	-416.793526	-416.831072	25.319	
C	 0.0214587526	 1.4861614389	 0.1019474712	-0.29979
C	 1.31984436	 0.7139316347	 0.0167703213	-0.006446
N	 2.0647459889	 0.3254516159	 1.229711452	-0.414397
C	 1.1351669788	-0.4328235229	 1.9303769459	 0.351668
C	-0.0062241556	-0.7439487649	 1.2852304433	 0.228895
N	-0.7473101298	-1.6073668253	 2.0749582082	-0.337298
C	-0.0189318438	-1.748437149	 3.1372312116	 0.017228
O	 1.1787120408	-1.0438032148	 3.1290934299	-0.202591
C	-0.0314171905	-0.0266891321	-0.0146341322	-0.180118
H	-0.2738371114	 1.9301544401	 1.0466257592	 0.117611
H	-0.2359481239	 2.0679960006	-0.7767849395	 0.118161
H	 1.9355004917	 0.8183171052	-0.8684192726	 0.106803
H	 2.4939670695	 1.0976767434	 1.7269479827	 0.248169
H	-0.2143916964	-2.3241286175	 4.0261605626	 0.145895
H	-0.400965051	-0.4896423723	-0.9216685635	 0.106209
149.8556	261.4498	361.8529	427.556	457.5594	588.0138	642.3814	656.6015	700.6584	727.4817	759.7133	780.8297	812.1184	838.1549	928.8486	949.2461	969.1204	1036.7616	1038.1944	1061.0998	1092.8154	1127.1091	1151.8291	1189.3581	1253.1988	1288.2379	1321.0318	1356.911	1407.8707	1464.494	1485.0571	1516.1878	1663.2832	3129.0587	3178.2451	3185.0077	3220.3956	3293.9108	3541.0079
C1C2NC3=C(N=CO3)C12	C1[C@H]2Nc3c(nco3)[C@@H]12	
InChI=1S/C6H6N2O/c1-3-4(1)8-6-5(3)7-2-9-6/h2-4,8H,1H2	InChI=1S/C6H6N2O/c1-3-4(1)8-6-5(3)7-2-9-6/h2-4,8H,1H2/t3-,4+/m0/s1
