24
gdb 6052	2.81378	1.42361	1.23509	1.3576	80.78	-0.2582	0.0693	0.3275	1159.0993	0.22061	-351.416744	-351.406074	-351.40513	-351.45127	40.216	
C	 0.175203409	 1.5475940616	-0.040749812	-0.407246
C	-0.0435646013	 0.0335107735	 0.0504154208	-0.182834
C	-1.511142061	-0.4718153585	-0.0032376457	 0.275316
C	-2.2623857027	-0.0446256607	 1.2713497941	-0.426352
C	-2.2331402785	 0.0885403216	-1.2426936646	-0.439484
C	-1.4399613654	-2.0307383865	-0.0685887454	 0.134937
C	-2.7746958515	-2.7694446413	 0.0619069499	-0.433062
O	-0.7490661622	-2.4770065472	-1.2375057765	-0.440507
H	 1.2409079632	 1.7784866418	 0.0568113652	 0.112383
H	-0.1562245031	 1.9538004507	-1.0012939178	 0.115198
H	-0.3469222902	 2.0956191094	 0.7505244697	 0.112386
H	 0.50598936	-0.458037109	-0.7583265767	 0.112835
H	 0.4022448569	-0.3312075348	 0.9859626965	 0.08437
H	-2.1969554619	 1.0371982963	 1.4205376301	 0.11377
H	-3.3255994791	-0.2981809988	 1.223705445	 0.111011
H	-1.840387646	-0.5266420261	 2.1611758075	 0.108526
H	-1.6761999291	-0.1260875389	-2.1609386739	 0.108503
H	-3.2410734632	-0.3266685221	-1.3466981097	 0.107698
H	-2.3434872108	 1.1743437493	-1.1755694904	 0.118777
H	-0.7947520893	-2.3518621533	 0.7597360589	 0.08098
H	-3.4803440081	-2.4783937518	-0.7251745075	 0.109295
H	-2.5961421986	-3.844376385	-0.030188903	 0.124007
H	-3.2554496977	-2.58583884	 1.0259066609	 0.121706
H	-1.3527366194	-2.3951589602	-1.9831760454	 0.277787
86.4984	90.5518	193.7248	205.4295	218.5722	252.7811	262.052	297.212	302.4268	328.1761	355.5246	359.8191	376.7805	463.4198	486.9654	569.5756	703.0051	788.8435	821.085	914.7472	923.2743	939.9688	998.2611	1013.8517	1028.3588	1055.215	1071.9127	1094.3292	1119.127	1203.4295	1228.7068	1257.3847	1295.1015	1323.6679	1365.6755	1371.9609	1398.261	1403.5385	1415.1975	1419.1547	1427.6673	1483.8621	1486.8748	1490.1756	1495.755	1501.3572	1507.5537	1510.5624	1515.103	1518.5959	3012.0545	3020.8815	3028.5558	3032.5504	3035.9542	3038.8781	3075.677	3094.4816	3095.6753	3098.8223	3102.7225	3104.6452	3108.4457	3110.5728	3125.5884	3810.1032
CCC(C)(C)C(C)O	CCC(C)(C)[C@@H](C)O	
InChI=1S/C7H16O/c1-5-7(3,4)6(2)8/h6,8H,5H2,1-4H3	InChI=1S/C7H16O/c1-5-7(3,4)6(2)8/h6,8H,5H2,1-4H3/t6-/m1/s1
