22
gdb 99878	1.96888	1.31494	1.23651	3.1172	82.38	-0.2776	0.0226	0.3002	1243.5799	0.1906	-404.362791	-404.351605	-404.350661	-404.398662	40.332	
C	 0.1059148062	 1.3723733928	-0.0303527985	-0.26076
O	-0.0411571684	-0.0351806335	 0.0518048474	-0.26941
C	-1.361303832	-0.5635967352	 0.0436734836	 0.230138
C	-2.1482058467	-0.1245388438	 1.2919891416	-0.436088
C	-2.0859785096	-0.0968469244	-1.1694100393	 0.274157
N	-2.6502835882	 0.2749939712	-2.1073690408	-0.359619
C	-1.1738181802	-2.1091567063	-0.0234014119	 0.008394
C	-2.5013933018	-2.8775979858	 0.0216207052	-0.416208
C	-0.3450699639	-2.5234653895	-1.2469937223	-0.408231
H	 1.1752938182	 1.5564270522	-0.1528200544	 0.136755
H	-0.4280839842	 1.7882778762	-0.8943887921	 0.135905
H	-0.2342008015	 1.8830005241	 0.8796598951	 0.115002
H	-2.2176681916	 0.9636094952	 1.3505933353	 0.133544
H	-3.1661700761	-0.5170218639	 1.2765727949	 0.141587
H	-1.6345270283	-0.4933474489	 2.1842224362	 0.130716
H	-0.5967362522	-2.3440929002	 0.8797093623	 0.089038
H	-3.1541579507	-2.5888723513	-0.8092477014	 0.138027
H	-2.3072386129	-3.9502244745	-0.0695567282	 0.121281
H	-3.0470764815	-2.7224239173	 0.9557660377	 0.117255
H	 0.6019257226	-1.9835334013	-1.2842910774	 0.134626
H	-0.132868406	-3.59606474	-1.2068758053	 0.111345
H	-0.891168951	-2.3260413458	-2.1758474876	 0.132543
70.2372	82.7996	142.1565	163.6866	192.4073	207.8406	217.6627	231.1225	256.9957	324.3385	357.294	372.0301	407.9549	444.8067	461.2123	598.1235	626.8741	660.8068	853.7989	886.8478	931.6458	937.2944	968.8388	1047.8056	1071.6231	1115.9197	1156.1953	1168.5087	1180.7383	1202.7838	1207.9641	1249.9197	1338.7892	1354.9091	1400.1511	1406.7626	1421.951	1476.2565	1482.1751	1487.4039	1491.0629	1493.4084	1502.9518	1508.8429	1511.6575	1519.0547	2344.9551	3007.1811	3031.525	3039.559	3044.2704	3056.231	3067.6159	3104.0047	3110.6974	3116.9784	3125.2673	3133.8928	3142.925	3144.9008
COC(C)(C#N)C(C)C	CO[C@@](C)(C#N)C(C)C	
InChI=1S/C7H13NO/c1-6(2)7(3,5-8)9-4/h6H,1-4H3	InChI=1S/C7H13NO/c1-6(2)7(3,5-8)9-4/h6H,1-4H3/t7-/m0/s1
