20
gdb 17109	4.60321	1.45104	1.37583	1.6007	73.98	-0.2419	0.0918	0.3337	1001.5481	0.178816	-348.990522	-348.983189	-348.982245	-349.022027	28.938	
C	-0.0005088346	 1.5343815497	 0.0481310269	-0.384687
C	-0.0479139962	 0.0072211568	-0.0580603463	-0.191794
C	 0.7145838884	-0.5489241488	-1.2619501837	 0.04829
C	 2.2742622573	-0.3921790184	-1.1889057268	-0.237232
C	 2.6322051157	-1.8912805785	-1.246607981	 0.084439
C	 1.7634569282	-2.434892356	-2.4020346901	-0.235755
C	 0.6975608867	-2.0958778151	-1.3394210379	 0.062498
O	 1.6683897189	-2.4702685295	-0.3085887236	-0.299471
H	 1.0274698452	 1.8998093103	 0.1444025194	 0.116531
H	-0.435593038	 2.0071641742	-0.8398345123	 0.110299
H	-0.5594540092	 1.887735212	 0.9202495092	 0.112155
H	 0.3624643618	-0.4484681468	 0.8504925855	 0.111284
H	-1.0959174185	-0.3158659912	-0.1213554134	 0.087751
H	 0.3115124971	-0.1137352639	-2.1842842791	 0.063735
H	 2.7003773749	 0.182860878	-2.0153214479	 0.095724
H	 2.6030689069	 0.0551699374	-0.2475746099	 0.106246
H	 3.6631937291	-2.1986103642	-1.0707751643	 0.076374
H	 1.7529910937	-1.9075486451	-3.3599806796	 0.090846
H	 1.8836063278	-3.510518871	-2.5340252746	 0.109143
H	-0.2597397253	-2.6122858501	-1.2567214003	 0.073623
106.6725	152.6515	197.8456	259.7005	359.139	421.5247	457.7248	574.7708	698.3796	779.8668	819.6072	839.2366	844.0812	868.7923	877.7782	937.4309	954.3647	967.1801	971.645	1023.9778	1052.8874	1062.791	1081.6428	1113.879	1133.9223	1195.5501	1204.3899	1226.0747	1243.5382	1265.2064	1281.547	1291.116	1316.3969	1322.4349	1361.6532	1389.7555	1410.7596	1479.2653	1489.9469	1497.7268	1499.8939	1508.0934	3015.0702	3029.0048	3031.1968	3060.3971	3063.207	3065.2444	3096.0384	3101.8958	3110.8439	3113.8187	3121.3262	3142.4601
CCC1CC2CC1O2	CC[C@H]1C[C@@H]2C[C@H]1O2	
InChI=1S/C7H12O/c1-2-5-3-6-4-7(5)8-6/h5-7H,2-4H2,1H3	InChI=1S/C7H12O/c1-2-5-3-6-4-7(5)8-6/h5-7H,2-4H2,1H3/t5-,6+,7+/m0/s1
