17
gdb 76243	2.69949	1.33163	1.05968	1.9285	74.93	-0.2481	-0.0336	0.2145	1151.1735	0.132587	-421.794401	-421.784841	-421.783896	-421.828765	34.619	
C	-0.1927462552	 1.4603458769	-0.1487803001	-0.39598
C	-0.0239427432	-0.0467422568	-0.0286680546	-0.07802
C	 1.1320442639	-0.624277568	-0.9363743483	 0.054881
O	 1.5358358783	 0.0317539454	-2.0958746358	-0.427508
C	 2.0192934557	-0.4972515918	 0.2999007723	 0.334376
O	 3.155166076	-0.1423834702	 0.4202559193	-0.299021
C	 0.7890735086	-0.5185951776	 1.246479209	-0.323902
C	 0.8074236912	 0.276598597	 2.4485437768	 0.33534
C	 0.8324053792	 0.9546568812	 3.4408630174	-0.425731
H	 0.7542688961	 1.9879595361	 0.0069649632	 0.126376
H	-0.5591850866	 1.719356119	-1.1455067947	 0.132399
H	-0.9007440279	 1.8320430462	 0.5963512437	 0.130834
H	-0.9774235844	-0.5634111685	-0.1481100661	 0.090338
H	 0.9199711632	-1.6766308005	-1.1657952942	 0.112175
H	 2.3180050116	 0.5532737352	-1.8764597659	 0.299986
H	 0.5341489603	-1.5614592999	 1.4699254949	 0.132536
H	 0.8598694231	 1.5489865963	 4.3204844831	 0.20092
73.3862	117.4748	145.1286	152.0728	201.0341	222.516	259.2242	335.699	362.1073	481.7725	497.5975	571.5531	613.9028	632.1776	644.574	753.3923	796.9145	820.0807	887.6507	928.7386	1010.0121	1060.2156	1076.8429	1112.4292	1125.168	1170.3843	1218.6026	1262.8469	1300.2928	1336.0708	1367.4577	1411.7684	1420.6918	1490.9127	1493.0131	1876.9458	2238.1334	3027.5476	3041.741	3043.2429	3093.2284	3114.479	3127.012	3503.7461	3779.0414
CC1C(O)C(=O)C1C#C	C[C@H]1[C@@H](O)C(=O)[C@H]1C#C	
InChI=1S/C7H8O2/c1-3-5-4(2)6(8)7(5)9/h1,4-6,8H,2H3	InChI=1S/C7H8O2/c1-3-5-4(2)6(8)7(5)9/h1,4-6,8H,2H3/t4-,5+,6-/m1/s1
