20
gdb 40262	2.86804	1.45626	1.12972	2.223	80.07	-0.2364	0.0218	0.2582	1125.2935	0.172989	-403.14139	-403.133324	-403.13238	-403.17415	31.407	
C	 0.0814776907	 1.5620206011	 0.1320338335	-0.297698
C	 1.3573189003	 0.7623592704	 0.0173009894	-0.325596
C	 0.0227035198	 0.059124419	-0.0186038368	 0.35791
C	-0.4014548072	-0.7615299889	 1.1813147407	-0.295101
C	-1.9059002289	-0.7159882909	 1.4181682704	-0.061287
O	-2.7093280619	-1.4161327835	 0.4631997094	-0.23099
C	-2.7133639104	-1.0781512013	-0.8574897115	 0.121176
N	-1.8249049001	-0.6647783064	-1.647559923	-0.248378
C	-0.4093295419	-0.5055803429	-1.3615007114	-0.224601
H	-0.1620983868	 1.9939044728	 1.0975632978	 0.10756
H	-0.2174961892	 2.1735230711	-0.7126091888	 0.119414
H	 1.9240346718	 0.8345060853	-0.9053088779	 0.113386
H	 1.971103159	 0.6472125483	 0.9045779328	 0.109503
H	-0.0812551959	-1.8055551385	 1.0675393051	 0.105983
H	 0.0818219857	-0.3765190901	 2.0878315034	 0.098782
H	-2.1570478012	-1.1891486691	 2.3710902585	 0.113237
H	-2.2401726342	 0.3293611129	 1.4553014927	 0.109345
H	-3.7108562895	-1.2765985281	-1.2539136879	 0.114423
H	 0.007062108	 0.1245686451	-2.1556560753	 0.100782
H	 0.055921372	-1.4958010663	-1.490466331	 0.112151
77.4587	101.1223	231.6079	283.2265	311.4628	332.6251	410.6665	414.226	492.8053	547.5896	691.9275	782.6415	791.636	832.2957	871.9668	921.2604	936.5537	958.0188	961.7428	982.1185	1006.1843	1027.4104	1047.3768	1060.4216	1082.2978	1107.1829	1159.047	1188.1238	1215.3019	1258.9098	1304.593	1335.0494	1345.7538	1375.1412	1406.8889	1425.9978	1439.1307	1467.279	1469.8735	1483.2282	1495.529	1508.0793	1764.463	2984.4951	3018.2736	3020.5475	3047.9195	3064.1961	3095.5097	3120.061	3125.9741	3129.8905	3203.2048	3217.1028
C1CC11CCOC=NC1	C1CC21CCOC=NC2	
InChI=1S/C7H11NO/c1-2-7(1)3-4-9-6-8-5-7/h6H,1-5H2	InChI=1S/C7H11NO/c1-2-7(1)3-4-9-6-8-5-7/h6H,1-5H2
