14
gdb 23647	3.63412	1.90774	1.26074	2.7632	66.68	-0.2501	-0.028	0.2222	901.8677	0.107962	-386.763952	-386.757222	-386.756277	-386.795206	25.034	
C	 0.0004150628	 1.4976518809	 0.0380190755	-0.465839
C	 0.019720445	-0.0057768149	-0.0216384186	 0.333127
C	-0.1091892718	-0.7023849518	-1.221869181	-0.174711
C	-0.0824351828	-2.0963191902	-1.2019792038	-0.055621
C	 0.0712947633	-2.7571963477	 0.0071402773	-0.274153
C	 0.1902502186	-1.9537511492	 1.1386346217	 0.333801
F	 0.339638046	-2.5499009023	 2.3204866886	-0.07673
N	 0.1690411027	-0.643940296	 1.1533668963	-0.35872
H	 0.9309654628	 1.8723621623	 0.4761880998	 0.144253
H	-0.1240318108	 1.9397661765	-0.9530484907	 0.119899
H	-0.8153029154	 1.8417794028	 0.6818358742	 0.144254
H	-0.2282312471	-0.1627052337	-2.1539801495	 0.099541
H	-0.1808704425	-2.6607623329	-2.1233113163	 0.114577
H	 0.1000803893	-3.8357932738	 0.0913096266	 0.116322
76.7805	201.908	232.0154	304.3012	455.4695	476.5256	546.3012	559.4125	623.5974	737.8068	757.0762	812.9315	897.6902	953.8222	996.3468	1000.3614	1045.5348	1060.2313	1105.623	1173.8927	1254.3132	1313.2503	1331.8399	1409.4242	1462.9545	1475.2975	1484.5017	1498.7881	1623.0042	1640.7155	3042.493	3102.5509	3129.1196	3183.2277	3202.0862	3218.8603
CC1=CC=CC(F)=N1	Cc1cccc(F)n1	
InChI=1S/C6H6FN/c1-5-3-2-4-6(7)8-5/h2-4H,1H3	InChI=1S/C6H6FN/c1-5-3-2-4-6(7)8-5/h2-4H,1H3
