20
gdb 70885	2.46449	1.6109	1.384	1.8562	79.45	-0.2198	0.0706	0.2904	1059.4369	0.169143	-403.096859	-403.087739	-403.086794	-403.129997	34.867	
C	-0.1201339687	 1.4694004265	-0.0218084364	-0.494704
C	-0.0114996748	-0.0207076361	-0.0962340205	 0.308402
C	 0.9409102614	-0.8517388185	-0.9567171267	-0.366137
C	 0.1157347155	-2.0753442233	-0.4699485963	 0.320591
O	-0.0585496347	-3.2120194205	-1.2439922242	-0.480775
C	 0.416341294	-2.0973644288	 1.0388212631	-0.212406
N	-0.3264018022	-0.8009085456	 1.17089726	-0.22689
C	-1.0564507263	-1.0774974407	-0.1057901589	 0.258456
C	-2.5357973916	-1.1149274474	-0.2768545835	-0.533322
H	 0.7938264556	 1.9075615258	 0.3953473232	 0.122781
H	-0.2796472046	 1.9033898132	-1.0149681228	 0.115969
H	-0.9532242876	 1.7605176268	 0.6236877844	 0.131397
H	 0.7720229009	-0.6577153456	-2.0197237272	 0.104275
H	 2.014912965	-0.8343677079	-0.7332925569	 0.085012
H	 0.8064491856	-3.5445621576	-1.5081068521	 0.28357
H	-0.1380039766	-2.8738916911	 1.5726147798	 0.108467
H	 1.4615429544	-2.0820817349	 1.3724612713	 0.086232
H	-2.9934644491	-0.2356914097	 0.1871501589	 0.131288
H	-2.8087714409	-1.1266271538	-1.3374143041	 0.127249
H	-2.9677295852	-2.0068964706	 0.1900369689	 0.130543
138.0019	168.9292	176.4451	185.4285	198.6055	212.5531	291.4825	376.9118	395.7313	476.2608	518.3668	572.1927	634.7605	672.4206	706.4095	768.8251	839.5989	897.6693	911.9736	953.4656	995.2884	1020.1397	1072.521	1096.1956	1112.9599	1134.5263	1146.8509	1161.6123	1184.5268	1220.7235	1261.8514	1276.8487	1329.7585	1373.1441	1406.1802	1412.7365	1465.4158	1477.0012	1485.7337	1489.1572	1493.0005	1500.2147	1522.5184	3019.2953	3026.5689	3029.046	3031.8658	3088.9498	3092.8601	3096.9489	3100.8131	3107.1054	3115.463	3801.4186
CC12CC3(O)CN1C23C	C[C@@]12C[C@@]3(O)CN1[C@@]23C	
InChI=1S/C7H11NO/c1-5-3-7(9)4-8(5)6(5,7)2/h9H,3-4H2,1-2H3	InChI=1S/C7H11NO/c1-5-3-7(9)4-8(5)6(5,7)2/h9H,3-4H2,1-2H3/t5-,6-,7+,8?/m0/s1
