20
gdb 117267	2.4401	1.26758	0.95429	3.0649	76.81	-0.2311	0.024	0.2551	1295.3061	0.170289	-440.28362	-440.273855	-440.272911	-440.319362	33.824	
C	-0.6158508015	 0.4081357789	-0.8535047659	-0.240935
O	-1.6509610031	 0.2052215545	 0.0885150404	-0.224616
C	-1.260007404	-0.6051420676	 1.1737416698	-0.184051
C	-1.1177142822	-2.1035396885	 0.8721452184	 0.319187
O	-0.3504480246	-2.8049184838	 1.5118706438	-0.373615
N	-1.9000511663	-2.6048630994	-0.1164130362	-0.06053
C	-3.1416661369	-2.1591628815	-0.7750876237	-0.156303
C	-3.4252951088	-3.6420075666	-1.1471460795	-0.2473
C	-2.1202027103	-4.0284170243	-0.39353655	-0.158362
H	-1.0101874922	 1.0731074062	-1.6254452598	 0.128042
H	 0.260879726	 0.8821364743	-0.3875898563	 0.114532
H	-0.2944941839	-0.533667465	-1.3207137751	 0.117711
H	-0.3047118332	-0.280339782	 1.6083232297	 0.121575
H	-2.0328873043	-0.4878362422	 1.9429243808	 0.127644
H	-3.8650302924	-1.6980560004	-0.0954267913	 0.118947
H	-2.9780079698	-1.4808677189	-1.6159139813	 0.120214
H	-4.3386771161	-4.0543024044	-0.717510756	 0.117286
H	-3.4115717062	-3.8497068301	-2.2175953367	 0.115923
H	-1.3325679948	-4.4861190651	-1.0000085447	 0.119234
H	-2.2484849652	-4.6233684044	 0.5160532236	 0.125416
54.081	80.6564	104.0358	130.9148	159.159	171.8076	201.3587	281.2328	381.9728	462.9848	563.065	601.7735	681.6668	763.0019	839.1289	877.774	940.3211	952.6534	966.808	1022.1178	1082.1401	1137.7001	1141.6397	1147.6765	1181.5591	1183.3518	1202.0858	1221.0383	1228.8584	1269.4571	1293.6604	1301.903	1335.3234	1370.6578	1439.6859	1466.5233	1484.2453	1487.5413	1492.7762	1505.7126	1510.0626	1530.799	1755.4275	2986.1231	3015.6925	3039.1439	3045.0492	3050.9971	3068.0063	3087.9899	3090.9463	3094.8055	3118.1367	3145.1086
COCC(=O)N1CCC1	COCC(=O)N1CCC1	
InChI=1S/C6H11NO2/c1-9-5-6(8)7-3-2-4-7/h2-5H2,1H3	InChI=1S/C6H11NO2/c1-9-5-6(8)7-3-2-4-7/h2-5H2,1H3
