16
gdb 25881	4.41804	1.00878	0.83066	3.0721	73.97	-0.2272	-0.0173	0.2099	1337.3551	0.124578	-437.958503	-437.949942	-437.948998	-437.992158	31.329	
C	 0.0655873449	 1.4690303488	-0.0539468688	-0.487929
C	-0.0723502831	-0.0081900907	 0.0223162834	 0.383212
C	-1.1108352204	-0.8672938122	-0.1336172483	-0.384104
C	-0.5885724134	-2.1917936588	 0.0605689511	 0.18195
C	 0.7379304939	-2.027372599	 0.3323444726	-0.124365
O	 1.0684075688	-0.7154391695	 0.3127352187	-0.18119
C	-1.3959951214	-3.4312382128	 0.0027891909	 0.302163
N	-0.6810404545	-4.6083055422	-0.0358285631	-0.541524
O	-2.6129722956	-3.4118860619	 0.021652405	-0.356652
H	 0.7721662853	 1.7672946349	-0.8366344871	 0.140286
H	-0.9040227512	 1.9181749132	-0.2782426016	 0.142109
H	 0.4279896381	 1.8868808886	 0.8918951881	 0.141816
H	-2.1361273814	-0.6241386151	-0.3598686799	 0.133222
H	 1.5352485352	-2.7068001223	 0.5870886728	 0.140083
H	 0.2563556166	-4.6062070923	-0.4032723839	 0.252675
H	-1.2288832818	-5.4360313887	-0.2154172099	 0.258248
62.0194	119.014	148.9755	157.4239	281.5536	327.9913	383.4618	400.0875	510.0008	532.4316	620.5146	637.206	645.8811	712.282	747.7219	795.0192	855.7615	934.4181	983.9671	1012.1736	1066.4887	1087.4809	1129.3832	1181.8431	1228.9668	1251.0054	1353.5506	1416.5261	1422.5973	1473.0583	1488.8535	1579.2827	1620.3823	1649.5226	1782.1237	3032.9978	3084.402	3133.6303	3267.3546	3274.2028	3583.213	3708.7968
CC1=CC(=CO1)C(N)=O	Cc1cc(co1)C(=O)N	
InChI=1S/C6H7NO2/c1-4-2-5(3-9-4)6(7)8/h2-3H,1H3,(H2,7,8)	InChI=1S/C6H7NO2/c1-4-2-5(3-9-4)6(7)8/h2-3H,1H3,(H2,7,8)
