20
gdb 42887	2.22191	1.72007	1.48474	1.7884	78.16	-0.2384	-0.0165	0.2219	1019.6496	0.173963	-403.158889	-403.151258	-403.150314	-403.190761	30.674	
O	-0.0374618606	-0.0159911207	-0.0885720275	-0.310468
C	-0.0217883068	 1.1769794506	-0.0094245459	 0.408146
C	-1.0940814227	 2.2834055519	-0.0284164642	-0.119467
C	-1.6839943394	 2.6302961195	 1.3474438908	-0.200118
C	-0.6680272567	 3.2411760301	 2.3306462483	-0.180982
C	 0.645564413	 2.4529252773	 2.4939746817	-0.214606
C	 1.6455398664	 2.5889629154	 1.3273592536	-0.178754
C	 1.0628501196	 2.2681405444	-0.0544836462	-0.123647
N	-0.0157769562	 3.248728944	-0.4429749381	-0.324087
H	-1.8894994756	 2.1256848851	-0.7644824294	 0.091067
H	-2.511461566	 3.3359095081	 1.2114222861	 0.103385
H	-2.118459405	 1.7133682324	 1.7668280027	 0.110094
H	-0.4338494939	 4.2606506819	 2.0074033256	 0.113693
H	-1.1566415623	 3.3241398343	 3.3080371645	 0.091869
H	 1.1497267025	 2.7913597691	 3.4060930998	 0.096483
H	 0.4163760375	 1.3907146295	 2.656043344	 0.10966
H	 2.0349244522	 3.6132789298	 1.2898796906	 0.109122
H	 2.4974694638	 1.9233070752	 1.5090909344	 0.105027
H	 1.8560667474	 2.1370614588	-0.7973609766	 0.088905
H	-0.0253112072	 3.3523256931	-1.4534071642	 0.224679
106.346	188.9993	214.162	313.5912	332.5298	351.167	443.8181	473.1222	532.3038	654.3458	720.3864	766.4284	793.6853	807.7248	834.8279	884.9103	922.6547	938.8715	955.469	999.4804	1021.0924	1053.0376	1064.9145	1110.7236	1127.399	1157.2191	1185.1547	1212.8923	1218.0643	1277.29	1290.791	1318.7501	1348.0707	1353.2482	1377.0486	1384.0508	1388.0874	1392.9755	1467.473	1478.3297	1486.1226	1493.41	1892.6174	3016.2286	3022.7883	3028.391	3038.3372	3055.4271	3060.6438	3063.9231	3066.8754	3076.168	3086.73	3511.974
O=C1C2CCCCC1N2	O=C1[C@H]2CCCC[C@@H]1N2	
InChI=1S/C7H11NO/c9-7-5-3-1-2-4-6(7)8-5/h5-6,8H,1-4H2	InChI=1S/C7H11NO/c9-7-5-3-1-2-4-6(7)8-5/h5-6,8H,1-4H2/t5-,6+
