12
gdb 53717	11.40399	0.46393	0.44579	3.7775	107.3	-0.2478	-0.0798	0.1681	2245.2658	0.075317	-398.304997	-398.295577	-398.294633	-398.340225	32.151	
N	-0.0233238315	 1.3510417611	 0.0086933228	-0.521532
C	 0.0622877346	-0.0087464641	 0.0013585243	 0.207681
O	 1.1108956951	-0.6234957401	-0.0113699535	-0.322364
C	-1.2282234571	-0.6831522697	 0.0099996851	 0.227863
C	-2.2594810252	-1.3246560616	 0.0164165873	-0.415781
C	-3.4130393873	-2.0240598118	 0.0236915608	 0.605265
C	-4.4578167858	-2.6514153491	 0.0303209452	-0.011588
C	-5.6154368892	-3.3496655399	 0.037616539	 0.173685
C	-6.6517694997	-3.9733228527	 0.0440132699	-0.68845
H	 0.8310801262	 1.8839360484	 0.0038626136	 0.27205
H	-0.9083487337	 1.8270702904	 0.0198635207	 0.271635
H	-7.5600128763	-4.5241078607	 0.0496474947	 0.201536
54.6169	61.1294	120.2232	138.1608	171.6768	268.7132	318.0128	359.8448	474.5737	501.582	539.7208	556.3584	576.1608	592.2566	624.0387	671.183	696.0268	781.5131	857.9566	1087.7724	1250.3241	1373.5328	1608.4759	1767.7041	2152.2199	2289.4549	2322.0077	3500.1113	3601.4767	3743.4361
NC(=O)C#CC#CC#C	NC(=O)C#CC#CC#C	
InChI=1S/C7H3NO/c1-2-3-4-5-6-7(8)9/h1H,(H2,8,9)	InChI=1S/C7H3NO/c1-2-3-4-5-6-7(8)9/h1H,(H2,8,9)
