19
gdb 126626	3.24712	1.05974	0.85127	3.7383	77.57	-0.222	0.0277	0.2497	1385.2996	0.161442	-415.424032	-415.414921	-415.413977	-415.458822	32.87	
C	 0.0488019469	 1.5638854149	 0.0688686444	-0.380125
C	 0.0083020046	 0.0347410647	 0.0327775527	-0.1764
C	 0.6568920725	-0.5302057976	-1.236665091	-0.155719
N	 0.6719345906	-1.9788913884	-1.273746022	 0.000926
N	 1.6434603694	-2.6912893632	-0.6185604533	-0.268716
C	 1.3140611101	-3.934514986	-0.9056711095	 0.030705
N	 0.2000630373	-4.0910241389	-1.6750925283	-0.337644
C	-0.1766803289	-2.8391160474	-1.8806610245	 0.397763
N	-1.23825828	-2.4334254947	-2.674400815	-0.601849
H	 1.0795995898	 1.932984714	 0.0369646433	 0.124607
H	-0.4853487578	 1.9998603097	-0.782920298	 0.115747
H	-0.4134373945	 1.9478357272	 0.9825180534	 0.122542
H	 0.5324225686	-0.3832226483	 0.8987783308	 0.130943
H	-1.0295055632	-0.3168456155	 0.0976557102	 0.094009
H	 0.1336349868	-0.1826030186	-2.1343605975	 0.123059
H	 1.6956652814	-0.1955620994	-1.3102054725	 0.136901
H	 1.8962150562	-4.7697691304	-0.5447436715	 0.119665
H	-1.782181615	-3.2345527066	-2.967042968	 0.267599
H	-1.8329610246	-1.7299726956	-2.2566585137	 0.255986
44.577	88.6539	93.56	231.8882	248.0592	273.4086	282.9563	314.042	382.014	471.2928	657.9564	691.784	714.4446	752.5348	778.8087	799.6794	879.4789	902.1684	904.3501	988.8257	1043.8543	1056.8829	1106.9417	1123.7142	1215.2224	1230.2281	1281.1165	1301.6563	1318.0624	1331.7406	1347.0928	1405.6446	1415.768	1460.8113	1480.9178	1492.6754	1500.0977	1510.1472	1564.7093	1581.9365	1652.404	3026.1528	3032.4172	3049.6368	3072.5416	3095.5663	3108.841	3111.8411	3253.4639	3548.649	3643.6237
CCCN1N=CN=C1N	CCCn1ncnc1N	
InChI=1S/C5H10N4/c1-2-3-9-5(6)7-4-8-9/h4H,2-3H2,1H3,(H2,6,7,8)	InChI=1S/C5H10N4/c1-2-3-9-5(6)7-4-8-9/h4H,2-3H2,1H3,(H2,6,7,8)
