15
gdb 18852	3.61384	2.50311	2.05525	4.0082	63.71	-0.2418	0.0019	0.2437	703.9721	0.121671	-362.654949	-362.649173	-362.648229	-362.684709	23.147	
O	 0.0345257853	 0.0711810897	 0.2821890324	-0.331351
C	-0.057039327	 1.2448212118	 0.0823914988	 0.431699
C	-1.1445068568	 2.2513605331	-0.0911402176	-0.231335
C	-0.7542415616	 3.4634058889	 0.8165699945	-0.042341
C	 0.2096963419	 3.2283876025	 1.9808176799	-0.25746
C	 1.4732048857	 2.6609401817	 1.2631889587	-0.180167
N	 0.9939283316	 2.2494860375	-0.0813985559	-0.167968
C	-0.0511396673	 3.240567599	-0.4675539737	-0.035662
H	-2.1512693629	 2.1267049409	-0.468737467	 0.113103
H	-1.5281714723	 4.2198340503	 0.8920620404	 0.105586
H	 0.422541338	 4.1688064323	 2.4978234444	 0.11019
H	-0.1952525523	 2.5288239793	 2.7179071456	 0.122475
H	 2.2457493717	 3.4255705509	 1.1447352394	 0.114436
H	 1.9117148254	 1.7987979751	 1.7688849159	 0.13474
H	 0.0449643606	 3.8750494171	-1.3366828155	 0.114055
143.5459	237.9259	355.2967	487.5723	617.3655	658.8239	709.7896	793.3824	816.4615	821.7952	837.2777	864.3266	897.5393	915.5141	958.9293	978.09	1007.4944	1050.2441	1066.0537	1093.7502	1108.8169	1130.2909	1217.8652	1243.6925	1255.0799	1280.6043	1295.6173	1340.1397	1376.8015	1487.9023	1502.051	1904.2138	3055.0943	3066.3882	3096.4368	3130.8112	3177.7461	3200.8451	3225.8069
O=C1C2C3CCN1C23	O=C1[C@H]2[C@H]3CCN1[C@@H]23	
InChI=1S/C6H7NO/c8-6-4-3-1-2-7(6)5(3)4/h3-5H,1-2H2	InChI=1S/C6H7NO/c8-6-4-3-1-2-7(6)5(3)4/h3-5H,1-2H2/t3-,4+,5-/m1/s1
