18
gdb 14942	4.45875	1.37179	1.12567	3.0734	74.57	-0.2425	-0.0241	0.2184	1057.7438	0.154962	-347.833398	-347.825825	-347.824881	-347.865917	28.233	
O	-0.1566617328	 0.0053441115	 0.0481492328	-0.248656
C	-0.0233444199	 1.2009919668	 0.0408153185	 0.1494
C	 1.307304927	 1.9370963134	 0.0312765657	-0.092643
C	 1.4126697709	 2.7785595024	-1.2592305636	-0.220928
C	 2.5025806679	 3.8501433753	-1.1432577257	-0.213316
C	 2.1999153241	 4.8169249048	 0.0090762745	-0.23927
C	 1.7766132945	 4.0832182099	 1.2540885724	-0.059112
C	 1.4061601017	 2.8030214326	 1.2695416942	-0.069116
H	-0.9084071852	 1.8811057428	 0.0390499207	 0.072919
H	 2.0862929037	 1.1641808229	 0.0501043633	 0.098441
H	 1.6011670663	 2.1186762747	-2.1118567733	 0.109242
H	 0.4473165748	 3.2695602231	-1.4467823062	 0.101066
H	 3.4688967729	 3.3632432236	-0.9626690132	 0.105988
H	 2.5949284576	 4.3982212905	-2.0865607913	 0.097751
H	 3.0789029214	 5.4354786534	 0.2283952335	 0.107298
H	 1.4114293201	 5.5257673419	-0.2851016071	 0.111691
H	 1.8024833488	 4.6394854877	 2.1884346684	 0.092507
H	 1.1504910663	 2.3259636427	 2.2129655765	 0.096738
54.8221	86.0705	256.6286	264.2408	327.6798	371.7527	450.5702	485.7534	576.2871	684.7959	738.4267	829.7745	869.0782	901.2156	916.6952	968.7625	1002.398	1012.4762	1054.2616	1071.1457	1096.0035	1115.4341	1160.5686	1210.6532	1242.6518	1270.4987	1277.0823	1331.5867	1362.8938	1373.976	1379.269	1419.7331	1422.0208	1473.5759	1489.7995	1496.7395	1715.9518	1833.3252	2848.888	2999.531	3011.6281	3028.0767	3030.1791	3047.1562	3076.657	3078.874	3140.9219	3164.1021
O=CC1CCCC=C1	O=C[C@H]1CCCC=C1	
InChI=1S/C7H10O/c8-6-7-4-2-1-3-5-7/h2,4,6-7H,1,3,5H2	InChI=1S/C7H10O/c8-6-7-4-2-1-3-5-7/h2,4,6-7H,1,3,5H2/t7-/m1/s1
