19
gdb 32857	3.50221	0.99265	0.82399	1.4469	79.57	-0.1607	0.0734	0.2341	1422.629	0.159536	-419.228552	-419.218975	-419.21803	-419.263176	35.38	
C	-1.2029640975	 1.0199850129	-0.2040499871	-0.385725
C	-0.1620863623	 0.1383886178	 0.4772117189	-0.058322
O	 0.1456498897	-1.0323681834	-0.2787627248	-0.274799
C	-0.7340567255	-2.0558108588	-0.1931729164	 0.431787
C	-1.8897991036	-2.269576075	 0.5282379832	-0.369659
C	-2.3403291289	-3.5884133307	 0.1893554026	 0.26126
N	-3.4571404865	-4.2229276933	 0.7736364577	-0.605731
C	-1.4566083695	-4.1186231083	-0.7169894828	-0.180142
N	-0.4682619567	-3.1599483378	-0.9397795851	-0.333846
H	-1.3787664718	 1.9198587894	 0.3943889154	 0.1163
H	-0.8549532394	 1.3267948804	-1.1946248752	 0.126535
H	-2.1520489832	 0.4910974859	-0.3198279959	 0.136846
H	 0.7897263079	 0.6691501944	 0.5686984326	 0.111705
H	-0.483210336	-0.1516727953	 1.4857828383	 0.113169
H	-2.3593081998	-1.5925799412	 1.2228333654	 0.085089
H	-4.2453789084	-3.5921958558	 0.8603100078	 0.235116
H	-3.7554801908	-5.0290658815	 0.2381421564	 0.233442
H	-1.4306581804	-5.0729270166	-1.2151443492	 0.099235
H	 0.3314519629	-3.252369663	-1.5393552817	 0.257741
54.0347	94.5219	176.8064	189.9433	214.0759	236.4324	249.6712	353.4773	391.523	425.0865	513.6789	578.0512	598.4253	638.6432	675.7354	723.3756	728.299	805.9707	818.4328	902.0088	989.7237	1007.5666	1074.4991	1100.2184	1115.888	1121.555	1185.0294	1216.2325	1292.5524	1322.8716	1327.2925	1394.7277	1413.0282	1449.1667	1483.8307	1496.3069	1510.854	1512.7211	1586.6178	1637.8691	1659.6737	3027.5268	3044.1404	3087.9817	3114.6918	3132.5661	3258.8939	3271.553	3518.7041	3606.4725	3699.2777
CCOC1=CC(N)=CN1	CCOc1cc(N)c[nH]1	
InChI=1S/C6H10N2O/c1-2-9-6-3-5(7)4-8-6/h3-4,8H,2,7H2,1H3	InChI=1S/C6H10N2O/c1-2-9-6-3-5(7)4-8-6/h3-4,8H,2,7H2,1H3
