18
gdb 44621	3.93086	1.43326	1.36112	3.5908	75.39	-0.2339	-0.0126	0.2214	989.7083	0.151017	-401.944027	-401.937546	-401.936602	-401.974722	26.999	
O	 0.0456223727	 0.0630123539	-0.067236073	-0.33008
C	 0.0199492419	 1.2613585878	-0.004220155	 0.45173
C	-1.1840741406	 2.2171975718	 0.0347485747	-0.353682
C	-0.3833531014	 3.5155888826	 0.0358702275	 0.001067
C	 0.7635876838	 3.3489943743	-1.0086324583	-0.028249
C	 1.7153610494	 4.5001860896	-0.6798769493	-0.253363
C	 1.6320996015	 4.3849202335	 0.8740085325	-0.162916
N	 0.697084662	 3.2486834371	 1.0838114156	-0.137786
C	 1.1738916758	 2.244392373	 0.0258242563	-0.121453
H	-1.8353626496	 2.0884472498	-0.8342631028	 0.125548
H	-1.7727304318	 2.074761376	 0.9449522434	 0.138151
H	-0.9243820151	 4.4588705721	 0.1323914528	 0.076077
H	 0.5723654421	 3.1197017385	-2.0598116073	 0.075989
H	 2.7232559626	 4.3418957551	-1.0730016824	 0.107035
H	 1.3494751369	 5.4591511964	-1.0591852293	 0.105015
H	 2.5928819828	 4.1604784762	 1.343449269	 0.112366
H	 1.2197761517	 5.2787642822	 1.3498625273	 0.109983
H	 2.1856368252	 1.8489235503	 0.1091204084	 0.084568
133.9436	283.4413	303.5517	324.725	465.9791	561.2618	588.4956	644.8529	701.4942	752.7178	820.945	837.7652	848.8458	908.1908	916.4654	936.9331	962.7058	973.8803	994.8528	1008.7682	1027.5913	1062.701	1111.522	1142.4797	1161.1646	1173.0502	1214.4031	1216.6388	1254.7261	1257.0332	1267.3627	1285.0814	1302.1556	1324.0732	1348.4875	1451.0356	1496.1348	1512.45	1878.1213	3052.8937	3065.3573	3066.4659	3087.5093	3093.7834	3100.69	3115.7857	3116.9838	3133.5175
O=C1CC2C3CCN2C13	O=C1C[C@@H]2[C@H]3CCN2[C@@H]13	
InChI=1S/C7H9NO/c9-6-3-5-4-1-2-8(5)7(4)6/h4-5,7H,1-3H2	InChI=1S/C7H9NO/c9-6-3-5-4-1-2-8(5)7(4)6/h4-5,7H,1-3H2/t4-,5-,7-/m1/s1
