19
gdb 30338	2.89564	1.67374	1.1154	4.3701	80.96	-0.2098	0.0406	0.2503	1092.0934	0.163278	-382.127889	-382.120402	-382.119457	-382.15982	29.306	
C	-0.0731179906	 1.56372767	 0.0184165297	-0.404481
C	 0.025098975	 0.0421471891	 0.0126884576	 0.037149
C	 0.7763694494	-0.5525436465	-1.2086512585	-0.217565
C	 1.4781569208	-1.8409271732	-0.6940968058	-0.359724
C	 1.6359667964	-1.5451774334	 0.7670008757	 0.310766
C	 2.24928311	-1.9350788859	 1.9294620537	-0.228362
N	 1.8252561524	-1.1428374861	 2.9761960131	-0.277267
C	 0.9638114144	-0.2911195961	 2.4558781099	-0.025157
N	 0.8240347082	-0.4911100959	 1.1166372354	-0.007218
H	 0.9230412246	 2.0157859928	-0.0081955683	 0.131787
H	-0.632896331	 1.9050972005	-0.8576604347	 0.126087
H	-0.5941453608	 1.9283093387	 0.9088032327	 0.127686
H	-0.986217523	-0.383630872	 0.0721128769	 0.096173
H	 0.1037312972	-0.7358260111	-2.0497466054	 0.108678
H	 1.5320845172	 0.1684075062	-1.538384489	 0.114782
H	 0.8472470431	-2.7241755214	-0.8571882549	 0.118951
H	 2.4250951688	-2.0264587122	-1.2078051121	 0.122198
H	 2.9697678292	-2.7241571336	 2.081447175	 0.102806
H	 0.4368621485	 0.48156365	 2.9946168891	 0.122711
118.227	140.2722	234.0988	244.1705	280.254	434.4179	486.6579	560.4926	640.1711	674.6174	687.5738	729.5506	791.8982	824.7949	836.7736	910.4724	952.2936	960.4031	978.9638	1038.7817	1100.8616	1125.9353	1131.3538	1142.7549	1203.0323	1221.1538	1246.155	1283.8807	1304.803	1322.2185	1345.6811	1380.6476	1394.3964	1404.4381	1413.7912	1486.2718	1491.4571	1497.7721	1501.747	1505.7722	1593.0833	3003.7083	3022.7665	3039.9795	3052.3513	3087.3808	3109.4713	3112.4264	3118.8453	3248.1297	3253.5516
CC1CCC2=CN=CN12	C[C@H]1CCc2cncn12	
InChI=1S/C7H10N2/c1-6-2-3-7-4-8-5-9(6)7/h4-6H,2-3H2,1H3	InChI=1S/C7H10N2/c1-6-2-3-7-4-8-5-9(6)7/h4-6H,2-3H2,1H3/t6-/m0/s1
