19
gdb 98671	4.0015	0.95058	0.87749	2.2969	72.93	-0.2497	-0.0015	0.2482	1395.3601	0.157628	-460.179436	-460.169813	-460.168868	-460.215663	33.584	
C	 0.3318511385	 1.4654413574	-0.2339512642	-0.241681
O	 0.5181436629	 0.0541072428	-0.0575323431	-0.230447
C	 0.3741593143	-0.6893040052	-1.1706178844	 0.432104
O	 0.1215870185	-0.2369505215	-2.2580841933	-0.358529
C	 0.5288497477	-2.1718133871	-0.8574480744	 0.02781
C	-0.7302782025	-3.0192974258	-1.1696836062	-0.317282
C	 0.158546422	-3.6841248875	-2.2473726262	 0.169407
C	-0.2284079798	-3.480917242	-3.6975502267	-0.401789
O	 1.290418848	-2.8543172471	-1.8616067147	-0.293018
H	 1.0725685658	 1.8644872823	-0.9312123231	 0.14567
H	-0.6668214168	 1.6756387866	-0.625016919	 0.141301
H	 0.4585159842	 1.9080152097	 0.7538931051	 0.135184
H	 0.9532267634	-2.2961712061	 0.1435064033	 0.094187
H	-1.0572117021	-3.6670212525	-0.3561074551	 0.114933
H	-1.5790315057	-2.4566876929	-1.5609739779	 0.122696
H	 0.383193525	-4.7395634358	-2.0471456563	 0.076584
H	-0.4278046409	-2.4226977049	-3.8853928487	 0.147585
H	 0.5835831819	-3.8046134852	-4.3562814258	 0.12505
H	-1.1211195846	-4.0682984652	-3.9407531893	 0.110236
18.5059	65.208	111.1321	145.421	211.2086	242.1439	284.3611	321.9879	335.7034	377.9519	440.1096	685.3605	751.0559	760.8206	841.543	883.6675	900.058	933.4506	976.4531	1012.6255	1064.822	1090.6914	1106.6632	1126.4077	1178.6673	1199.1897	1207.1804	1224.9105	1259.6715	1269.2465	1322.7689	1373.1188	1391.9277	1410.119	1472.5492	1480.2549	1481.3157	1485.2644	1495.9322	1502.5271	1824.3075	3019.0976	3034.6208	3053.1953	3060.9209	3086.3939	3104.193	3128.5283	3129.4875	3146.6206	3161.4397
COC(=O)C1CC(C)O1	COC(=O)[C@H]1C[C@@H](C)O1	
InChI=1S/C6H10O3/c1-4-3-5(9-4)6(7)8-2/h4-5H,3H2,1-2H3	InChI=1S/C6H10O3/c1-4-3-5(9-4)6(7)8-2/h4-5H,3H2,1-2H3/t4-,5-/m1/s1
