20
gdb 53976	2.61636	1.12548	0.9561	2.2839	77.78	-0.2519	-0.0221	0.2298	1315.1716	0.166426	-440.308689	-440.297909	-440.296964	-440.345277	38.264	
C	-0.0650732099	 1.4095312506	-0.4801184275	-0.47513
C	-0.034375234	 0.018335929	 0.1049871864	 0.367011
O	 0.9526744879	-0.4564901857	 0.6172045706	-0.317613
C	-1.3234434339	-0.8429727276	 0.0492595105	 0.2415
C	-1.0144207322	-2.106353683	-0.7660140307	-0.417236
C	-1.7386110169	-1.1676233779	 1.4910156183	-0.417176
O	-2.3118271866	-0.022503375	-0.6089944005	-0.23172
C	-3.5538046248	-0.5021166845	-0.8078304954	 0.121455
N	-4.413459908	 0.2229328261	-1.3833853482	-0.444471
H	 0.915092778	 1.8704217542	-0.3558815884	 0.135581
H	-0.3421120864	 1.3713675265	-1.5380537892	 0.156231
H	-0.8387561041	 2.0106332755	 0.0072009106	 0.156173
H	-0.1387129678	-2.5986923161	-0.3385710309	 0.152012
H	-1.8525390136	-2.8086199445	-0.7487963821	 0.116796
H	-0.7995294485	-1.8482116724	-1.8069961707	 0.133501
H	-2.026843632	-0.2557620042	 2.021953821	 0.133521
H	-2.5805374322	-1.8650398584	 1.5174200043	 0.116831
H	-0.8926904309	-1.6231590979	 2.0095668048	 0.151966
H	-3.7147729376	-1.5202108663	-0.4376140318	 0.092054
H	-5.2953830965	-0.2799781585	-1.457515041	 0.228714
26.1298	75.2285	130.9431	149.3519	169.5771	212.5646	258.8733	276.8678	296.6416	318.4043	380.3608	415.321	419.5436	525.3078	604.1475	622.6844	734.8935	820.3437	845.1516	932.1327	946.2412	993.5495	998.386	1045.0126	1052.8514	1107.5889	1162.2451	1192.3763	1199.1425	1265.28	1307.0894	1383.9019	1390.6107	1404.579	1429.2757	1451.0064	1463.8922	1480.9742	1485.5535	1500.224	1507.7344	1737.1209	1809.8309	3046.5693	3047.6273	3051.5497	3064.2075	3113.754	3118.1473	3120.5946	3139.9606	3144.1839	3160.6977	3516.1718
CC(=O)C(C)(C)OC=N	CC(=O)C(C)(C)O[CH][NH]	
InChI=1S/C6H11NO2/c1-5(8)6(2,3)9-4-7/h4,7H,1-3H3	InChI=1S/C6H11NO2/c1-5(8)6(2,3)9-4-7/h4,7H,1-3H3
