16
gdb 41862	2.72039	2.22341	1.70289	2.8213	67.24	-0.239	0.0173	0.2563	828.3642	0.127969	-437.876207	-437.870104	-437.86916	-437.906579	24.952	
C	 0.0240088357	 1.5548444336	 0.0511211989	-0.092735
O	 1.3835847131	 1.959978956	-0.0938579593	-0.249811
C	 2.0404483556	 0.9836135148	-0.85457892	 0.084331
C	 2.5471664776	-0.2597019933	-0.1450166462	-0.024017
N	 2.5895434979	-0.3959816543	 1.2707840805	-0.256393
C	 1.4865304143	-0.5085930046	 1.8819023679	 0.129124
O	 0.2267326344	-0.4747401481	 1.3859308311	-0.238951
C	 0.0515901633	 0.0192485075	 0.0437498283	 0.073513
C	 1.2216209383	-0.2825392797	-0.8889801762	-0.187725
H	-0.3711903029	 1.9663250083	 0.9827338111	 0.124061
H	-0.5774053758	 1.9197432945	-0.7952175775	 0.100421
H	 2.5854923522	 1.3659744805	-1.7111605646	 0.105162
H	 3.38631866	-0.7400258402	-0.6392886676	 0.103178
H	 1.4590521362	-0.6902498921	 2.9540055657	 0.126239
H	-0.8862663491	-0.4209456608	-0.2956359828	 0.103913
H	 1.0618191493	-0.8913557221	-1.7690513993	 0.099691
152.333	210.9312	381.119	435.4484	492.4289	581.9895	664.4409	718.748	752.8527	765.4239	797.5424	816.8309	886.3923	940.1778	960.454	980.1836	982.1729	1017.8959	1030.547	1063.9892	1093.6716	1106.3072	1125.3523	1167.1169	1208.3121	1239.826	1267.4346	1298.8845	1341.6675	1364.863	1380.1599	1408.9072	1417.0068	1501.4072	1718.475	2994.0406	3110.5196	3116.5208	3150.7046	3166.2936	3168.0866	3194.4571
C1OC2C3N=COC1C23	C1O[C@H]2[C@H]3N=CO[C@@H]1[C@@H]23	
InChI=1S/C6H7NO2/c1-3-4-5(6(4)8-1)7-2-9-3/h2-6H,1H2	InChI=1S/C6H7NO2/c1-3-4-5(6(4)8-1)7-2-9-3/h2-6H,1H2/t3-,4+,5-,6+/m0/s1
