19
gdb 36005	2.47553	1.07795	0.80629	1.0209	87.07	-0.2547	0.0481	0.3029	1436.966	0.156162	-348.671456	-348.661626	-348.660682	-348.706586	36.442	
C	-0.0218900081	-1.1927736602	 0.1516613114	-0.437195
C	 0.0189605447	 0.0072692231	 0.1042185514	 0.303307
C	 0.0915105138	 1.4609238531	 0.0676534044	-0.361654
C	 1.5331458552	 2.0094802786	-0.1481742439	-0.201517
C	 2.0642932796	 1.6131577038	-1.451543376	 0.353395
C	 2.4843048574	 1.3159999453	-2.5376607564	-0.465079
C	 1.5586302696	 3.5240840135	 0.0186333833	 0.03715
C	 1.6410955396	 4.1242606681	 1.3997135204	-0.280089
C	 2.818582855	 4.21633147	 0.4590313837	-0.273695
H	-0.0647373147	-2.2530866214	 0.1829184063	 0.19429
H	-0.5551045585	 1.8485035265	-0.7286959532	 0.13585
H	-0.2866543573	 1.8746466266	 1.010044154	 0.133962
H	 2.1676667805	 1.5703812369	 0.6334220897	 0.110966
H	 2.8635457765	 1.0388763118	-3.489885384	 0.195072
H	 0.9464177359	 4.0528740074	-0.706903645	 0.092339
H	 1.0708452454	 5.0227178435	 1.6073783925	 0.114616
H	 1.7218557249	 3.4459352751	 2.2434530021	 0.113957
H	 3.6855211617	 3.5991639924	 0.6706245435	 0.118368
H	 3.056717819	 5.1782506357	 0.0195728859	 0.115957
60.9007	79.1674	114.6498	139.308	192.294	245.3811	322.4975	349.4545	394.1536	456.7987	504.9624	580.9975	617.895	631.5087	636.1233	642.1859	769.8891	822.5832	831.8521	872.8214	929.2522	949.1733	981.05	1038.2007	1058.6225	1064.9823	1081.3224	1137.8875	1156.1651	1196.4973	1211.8073	1226.4658	1273.6678	1333.5455	1342.2144	1407.7449	1469.1125	1470.7435	1505.2641	2236.836	2241.2194	3015.6397	3030.843	3068.3414	3128.5236	3135.5595	3145.0908	3208.4106	3224.0122	3505.352	3508.036
C#CCC(C#C)C1CC1	C#CC[C@@H](C#C)C1CC1	
InChI=1S/C9H10/c1-3-5-8(4-2)9-6-7-9/h1-2,8-9H,5-7H2	InChI=1S/C9H10/c1-3-5-8(4-2)9-6-7-9/h1-2,8-9H,5-7H2/t8-/m1/s1
