14
gdb 54442	3.87423	1.17309	1.00242	3.3224	63.33	-0.2574	-0.0461	0.2113	1126.414	0.09932	-473.828073	-473.820009	-473.819065	-473.861085	29.743	
N	 0.4352431602	 0.2851604625	-1.046118437	-0.539438
C	-0.0069693798	 0.1586052066	 0.2318417006	 0.293688
O	 0.6104844779	 0.4918200425	 1.223968052	-0.355918
C	-1.357856755	-0.4787611554	 0.346499036	 0.341926
C	-2.3129658726	-0.4389330121	 1.5442345846	-0.416173
C	-2.7051428268	-1.8975512203	 1.1638167741	 0.428575
O	-3.3545766657	-2.7499753757	 1.6849855586	-0.283057
C	-1.7558366959	-1.8689196048	-0.0404169395	-0.173321
O	-2.1525747143	-0.719789958	-0.8152881196	-0.284198
H	 1.3171267315	 0.7427383092	-1.2068763747	 0.270158
H	-0.1878621184	 0.1080440732	-1.8160359593	 0.276042
H	-1.8014784166	-0.4147234403	 2.5093873541	 0.166637
H	-3.091265591	 0.3247260872	 1.5046078557	 0.140849
H	-1.2066896535	-2.6540352047	-0.5471889358	 0.13423
76.2733	92.9008	178.6725	255.4063	315.0208	358.3392	437.4707	451.482	500.524	578.1787	603.4821	633.0635	686.3233	749.363	787.6632	861.7939	949.0195	979.152	995.6598	1039.2156	1088.1082	1105.4497	1168.1599	1212.4965	1216.896	1316.709	1429.1442	1451.3468	1603.7004	1800.6857	1910.3669	3083.5483	3146.6354	3196.5706	3599.9728	3737.7566
NC(=O)C12CC(=O)C1O2	NC(=O)[C@]12CC(=O)[C@H]1O2	
InChI=1S/C5H5NO3/c6-4(8)5-1-2(7)3(5)9-5/h3H,1H2,(H2,6,8)	InChI=1S/C5H5NO3/c6-4(8)5-1-2(7)3(5)9-5/h3H,1H2,(H2,6,8)/t3-,5+/m1/s1
