16
gdb 43467	2.66418	1.8345	1.29021	2.1989	73.21	-0.2512	-0.0107	0.2406	970.2675	0.127594	-434.066441	-434.059521	-434.058576	-434.097706	27.685	
N	-0.1101230209	 1.2824966136	-0.2740632879	-0.532927
C	-0.0429239839	 0.0460924358	 0.0102080847	 0.411102
N	 1.0969171874	-0.6879664648	 0.3501657839	-0.39163
C	 1.0375164282	-2.0548151317	 0.6362565276	 0.411102
N	 2.0006862759	-2.8219547653	 0.9490213225	-0.532927
C	-0.3820992216	-2.5718506824	 0.5158672633	 0.027995
C	-1.0031962078	-2.1184220465	-0.8257923822	-0.262216
C	-1.2733576927	-0.8388057353	-0.0005626657	 0.027995
O	-1.2546169279	-1.638960762	 1.2170969764	-0.28813
H	 0.8061540134	 1.736066631	-0.2382105736	 0.207638
H	 1.9800874633	-0.2057934951	 0.4440684034	 0.241842
H	 2.8954308685	-2.3265150705	 0.9723974673	 0.207638
H	-0.4583176674	-3.6006277106	 0.8633434126	 0.111823
H	-0.3701021634	-2.0570403023	-1.7124042078	 0.121935
H	-1.9267585358	-2.656867162	-1.0388255059	 0.126937
H	-2.1803971354	-0.2520584618	-0.1344961387	 0.111823
126.9804	161.9094	319.132	349.1243	435.8025	463.5719	514.1474	518.9583	591.4426	691.98	706.2566	780.2401	857.0182	866.8274	879.7836	906.5144	941.9404	956.3856	962.4143	1016.5078	1085.8795	1100.4489	1118.1161	1148.8081	1205.0029	1246.6012	1291.9947	1298.1846	1321.303	1340.5419	1408.793	1409.405	1488.3006	1748.5236	1755.7179	3084.7349	3143.3722	3143.6617	3153.5143	3436.937	3437.4732	3593.2159
N=C1NC(=N)C2CC1O2	[NH][C]1N[C]([NH])[C@@H]2C[C@H]1O2	
InChI=1S/C5H7N3O/c6-4-2-1-3(9-2)5(7)8-4/h2-3H,1H2,(H3,6,7,8)	InChI=1S/C5H7N3O/c6-4-2-1-3(9-2)5(7)8-4/h2-3H,1H2,(H3,6,7,8)/t2-,3+
