16
gdb 68118	3.08447	1.28038	1.08685	3.8719	72.79	-0.2535	-0.0466	0.2069	1131.0299	0.121936	-437.838316	-437.829736	-437.828792	-437.871795	31.006	
C	-0.0195062738	 1.5121305678	-0.0461653641	-0.517001
C	-0.0258539106	 0.016750078	 0.0046616072	 0.174103
C	 0.7712935597	-1.0252190502	-0.8593129457	-0.308026
C	 0.068745833	-1.8738666255	 0.2355199173	 0.100527
N	 0.3425651711	-0.7830710144	 1.2688755258	-0.383903
C	 0.1655384502	-3.3235732636	 0.5371753349	 0.027038
O	 0.4879607729	-4.154286608	-0.2761820325	-0.246426
C	-1.1915681642	-0.9841355661	-0.0934195938	 0.4607
O	-2.3479965645	-1.0615253024	-0.3254217775	-0.294849
H	 0.9945403729	 1.9087814002	 0.0671397907	 0.131841
H	-0.4150496628	 1.8603050818	-1.0051045273	 0.143497
H	-0.6425989314	 1.9217358724	 0.7537194225	 0.150397
H	 0.5008152007	-1.1749908536	-1.9078731161	 0.129434
H	 1.8546509295	-0.9585605839	-0.7210704793	 0.116581
H	 1.3622346452	-0.7203626413	 1.3735679378	 0.219323
H	-0.1117156079	-3.5907113112	 1.5798548101	 0.096764
75.8576	141.5314	159.2313	186.509	210.8772	219.2573	315.2396	450.8273	512.4093	534.9311	647.8834	673.3302	703.6733	776.9013	797.6608	826.9673	911.4893	974.5308	1002.0906	1034.5994	1072.0565	1096.6908	1132.5748	1136.7745	1229.0727	1250.0145	1297.3894	1378.0489	1410.2174	1424.6506	1480.8018	1486.3956	1499.485	1806.623	1949.28	2902.4892	3041.323	3049.3274	3110.2505	3122.5626	3123.3705	3368.5708
CC12CC(N1)(C=O)C2=O	C[C@@]12C[C@](N1)(C=O)C2=O	
InChI=1S/C6H7NO2/c1-5-2-6(3-8,7-5)4(5)9/h3,7H,2H2,1H3	InChI=1S/C6H7NO2/c1-5-2-6(3-8,7-5)4(5)9/h3,7H,2H2,1H3/t5-,6-/m0/s1
