20
gdb 59745	2.6684	1.33225	1.09951	3.5627	75.18	-0.2458	0.0277	0.2735	1185.471	0.172466	-440.340358	-440.331444	-440.330499	-440.373941	33.878	
C	 0.0715855043	 1.5370167497	-0.2543697709	-0.421736
C	 0.0478318273	 0.0447985686	 0.0828550219	 0.127929
O	 0.745909654	-0.2353623291	 1.2905507664	-0.445496
C	-1.3836733022	-0.527275374	 0.1451774761	-0.116772
C	-1.4792514418	-2.0615270982	 0.0864803512	-0.240204
C	-2.7594671749	-2.3930308989	 0.8830866877	-0.173706
N	-2.8394452139	-1.274204769	 1.8092047073	-0.304037
C	-2.0732536867	-0.1992142003	 1.4798571459	 0.424696
O	-1.9464571243	 0.8165917582	 2.1419234664	-0.409616
H	 1.1030346774	 1.8999225446	-0.2533510985	 0.118231
H	-0.359707441	 1.7233141924	-1.244054715	 0.105313
H	-0.5054951599	 2.1000454306	 0.4841849969	 0.146949
H	 0.5972624569	-0.50588112	-0.6909588298	 0.083163
H	 0.3185195065	 0.2956392184	 1.9761459907	 0.293033
H	-1.9907353609	-0.0771322246	-0.6520950569	 0.094803
H	-1.5079694245	-2.4587078954	-0.930189703	 0.105722
H	-0.6089314132	-2.4820895964	 0.5999583734	 0.132529
H	-3.643810125	-2.4398885915	 0.231916716	 0.10828
H	-2.6879810477	-3.344936542	 1.4181590112	 0.117615
H	-3.4196822504	-1.261472043	 2.632717813	 0.253302
81.3167	111.6267	173.3373	191.3652	249.2426	268.19	328.4882	458.0095	460.8038	484.7825	538.9303	552.583	630.4092	691.2808	719.3247	801.926	870.5714	904.7072	944.6126	967.2961	1012.2373	1053.2256	1055.2012	1077.2396	1123.017	1162.9707	1203.3234	1224.0362	1256.6842	1286.4876	1293.5851	1329.8602	1346.3323	1366.3161	1379.7823	1401.1552	1441.3302	1451.2277	1492.411	1493.6464	1509.2762	1534.4448	1795.8769	3002.3652	3020.3842	3029.9571	3038.4169	3059.4551	3073.5601	3108.5953	3117.9433	3130.7137	3644.7955	3759.0734
CC(O)C1CCNC1=O	C[C@@H](O)[C@H]1CCNC1=O	
InChI=1S/C6H11NO2/c1-4(8)5-2-3-7-6(5)9/h4-5,8H,2-3H2,1H3,(H,7,9)	InChI=1S/C6H11NO2/c1-4(8)5-2-3-7-6(5)9/h4-5,8H,2-3H2,1H3,(H,7,9)/t4-,5-/m1/s1
