19
gdb 35928	2.30622	1.50181	1.28047	1.0126	81.71	-0.2358	0.0153	0.2511	1098.0823	0.159484	-385.852904	-385.844422	-385.843478	-385.885908	32.77	
C	 0.0335145707	-1.2420568353	-0.3672300395	-0.490023
C	 0.0234503611	-0.054509534	-0.1807873573	 0.337586
C	-0.0148325116	 1.399328756	 0.0298539568	-0.046062
C	-0.8897951792	 1.788051052	 1.2410355957	-0.266383
C	-0.4579589614	 1.2483627759	 2.5837278125	-0.051367
C	 0.7699197293	 1.305877652	 3.0989788794	-0.051092
C	 1.9898888538	 1.8962114975	 2.4325488174	-0.253152
C	 2.2181074046	 1.4618671211	 0.9813476467	-0.074225
O	 1.2768478232	 1.9941157919	 0.0590874062	-0.250755
H	 0.0444612702	-2.2908922685	-0.5344878338	 0.199274
H	-0.4803937431	 1.8504426961	-0.8553967803	 0.114091
H	-0.9098824341	 2.8865003589	 1.2678613514	 0.118743
H	-1.9125407917	 1.4625342851	 1.0246137949	 0.110708
H	-1.2452860191	 0.805353527	 3.1884607101	 0.087468
H	 0.9187877469	 0.9069489716	 4.0997443928	 0.086517
H	 1.937315582	 2.9946001936	 2.4574112402	 0.11702
H	 2.8848033728	 1.621700344	 3.0031619249	 0.10066
H	 3.1854820774	 1.8432717281	 0.6387951631	 0.103494
H	 2.2401416384	 0.366176747	 0.9134872787	 0.107499
91.2388	103.0649	170.9991	234.8101	319.8491	327.2431	357.8521	429.7545	487.6069	563.6601	613.2546	623.8931	673.2129	705.8909	752.0332	796.7729	840.6062	880.4002	925.742	967.7547	998.3852	1029.9437	1043.0528	1072.3542	1085.934	1126.0536	1227.7941	1237.7527	1260.7058	1311.5192	1317.1754	1364.6698	1370.9451	1380.0447	1408.8635	1430.5366	1463.0747	1467.8221	1492.6071	1726.5597	2229.4789	3004.4695	3013.1981	3020.9288	3032.0854	3060.897	3075.1816	3079.2241	3141.0622	3165.4561	3501.8484
C#CC1CC=CCCO1	C#C[C@H]1CC=CCCO1	
InChI=1S/C8H10O/c1-2-8-6-4-3-5-7-9-8/h1,3-4,8H,5-7H2	InChI=1S/C8H10O/c1-2-8-6-4-3-5-7-9-8/h1,3-4,8H,5-7H2/t8-/m0/s1
