20
gdb 79745	2.34844	1.73649	1.34135	0.785	78.04	-0.228	0.072	0.2999	1042.219	0.171877	-403.109074	-403.100839	-403.099895	-403.141288	33.022	
C	-0.2845963127	 1.49945156	 0.2991831895	-0.415449
C	 0.0158271716	 0.044103512	 0.0042046052	-0.073946
C	 0.5782633556	-0.5807349143	-1.2779507095	-0.104658
C	 1.4048122325	 0.1819315898	-2.2846056945	-0.048103
N	 1.6629225858	 1.6124690115	-1.9954636809	-0.334861
C	 2.6823039084	 0.6036492216	-1.6458293741	-0.032167
C	 2.6683944225	 0.1546743129	-0.186949549	-0.304363
C	 1.3593294513	-0.6358568459	 0.0203162039	 0.355268
O	 1.4824833966	-1.8570554636	 0.6986097993	-0.463717
H	-1.1786047289	 1.8252437134	-0.2440398665	 0.112659
H	-0.4880642413	 1.6229250499	 1.3699514298	 0.096501
H	 0.5281135325	 2.1607422936	 0.0082747156	 0.148549
H	-0.7367943723	-0.624604145	 0.4221555796	 0.083196
H	 0.074093321	-1.4705994209	-1.6379030043	 0.087847
H	 1.3595575449	-0.1296770498	-3.3226560828	 0.082895
H	 1.9392816501	 2.0793822851	-2.8559118052	 0.227782
H	 3.6243630752	 0.6159549551	-2.1848576955	 0.08543
H	 3.4918761121	-0.5427632381	-0.0071031627	 0.112059
H	 2.7844821411	 0.9969918448	 0.5035653478	 0.105607
H	 1.351624184	-1.6897396721	 1.6379477744	 0.279472
140.7574	164.358	209.2771	247.7416	278.518	321.6197	381.2083	397.2683	469.8331	570.8697	645.76	680.2404	698.8281	771.9516	801.5021	849.2365	880.5393	898.4886	932.4775	953.6241	995.4091	998.723	1030.6259	1078.106	1089.4753	1113.8443	1131.3284	1144.9469	1179.2196	1186.9436	1221.0513	1250.18	1276.9215	1303.2024	1337.8729	1355.6968	1376.3039	1408.2203	1423.2504	1455.1195	1475.1629	1490.5755	1510.1374	3026.7223	3047.2917	3079.6106	3095.7002	3103.4602	3154.5036	3163.9484	3176.185	3178.8891	3494.0864	3798.6596
CC1C2C3NC3CC12O	C[C@H]1[C@H]2[C@H]3N[C@H]3C[C@@]12O	
InChI=1S/C7H11NO/c1-3-5-6-4(8-6)2-7(3,5)9/h3-6,8-9H,2H2,1H3	InChI=1S/C7H11NO/c1-3-5-6-4(8-6)2-7(3,5)9/h3-6,8-9H,2H2,1H3/t3-,4-,5-,6-,7+/m0/s1
