25
gdb 100122	2.76105	0.9414	0.89752	1.0495	89.39	-0.246	0.0791	0.3251	1513.0361	0.226167	-389.475648	-389.464622	-389.463677	-389.511835	41.055	
C	-0.1895650275	 1.3889593859	-0.0267328311	-0.240758
O	-0.0270933367	-0.0084034973	-0.0874422019	-0.27574
C	 0.6982622361	-0.5575640179	-1.2011648352	 0.35974
C	 0.0666652705	-0.1482689128	-2.5409354474	-0.419805
C	 2.1736466482	-0.1285205177	-1.1476346141	-0.422771
C	 0.6062003782	-2.0814701027	-0.9724192788	-0.218449
C	-0.8003626389	-2.6422246796	-0.9497774722	 0.031605
C	-1.4284291762	-3.2410841754	-2.1855911709	-0.257018
C	-1.0161823466	-4.1313401044	-1.0394670333	-0.283015
H	 0.7669617892	 1.9302010271	-0.003773677	 0.102628
H	-0.7897074844	 1.784740224	-0.8580570545	 0.104631
H	-0.7200629831	 1.5972751884	 0.906548507	 0.123937
H	 0.206212889	 0.9173859117	-2.7451499157	 0.108703
H	 0.5346919138	-0.7006099644	-3.3615526196	 0.111838
H	-1.0033297389	-0.3678565554	-2.5495352071	 0.128705
H	 2.6056466781	-0.3731574255	-0.17270112	 0.118438
H	 2.7498501878	-0.6472016912	-1.92025498	 0.112876
H	 2.293216032	 0.9453790111	-1.3183842521	 0.11096
H	 1.1959453491	-2.5905265397	-1.7450369274	 0.083568
H	 1.0935360257	-2.2922288403	-0.0120762682	 0.099346
H	-1.469837347	-2.1020764751	-0.2887932857	 0.095894
H	-2.4869922543	-3.0811192449	-2.3605620096	 0.107142
H	-0.8331086554	-3.2797875934	-3.0923679638	 0.104772
H	-0.1437845887	-4.7622933713	-1.1793663932	 0.105289
H	-1.79142038	-4.5802022395	-0.4281869882	 0.107484
60.3482	71.871	96.7369	149.506	183.8036	243.4981	262.9514	270.5289	299.4694	317.7518	365.2304	396.3282	410.6991	468.5791	563.6026	729.7478	778.1833	803.98	836.7252	865.4931	887.6213	915.4079	930.7847	975.2125	986.0242	1024.4383	1056.0737	1076.5338	1103.1551	1135.5297	1150.198	1180.1782	1189.8301	1200.5361	1202.2465	1219.9875	1229.6154	1263.2989	1304.8219	1348.9638	1392.3092	1408.0389	1418.2951	1465.4649	1471.6281	1474.9102	1480.6508	1482.6967	1497.0243	1503.5515	1505.8556	1510.7783	1516.5896	2989.6494	3019.2565	3034.2053	3042.0386	3045.9259	3059.8145	3102.2264	3104.0237	3110.8567	3115.1436	3124.2282	3128.3499	3129.5616	3168.8005	3201.1424	3217.4039
COC(C)(C)CC1CC1	COC(C)(C)CC1CC1	
InChI=1S/C8H16O/c1-8(2,9-3)6-7-4-5-7/h7H,4-6H2,1-3H3	InChI=1S/C8H16O/c1-8(2,9-3)6-7-4-5-7/h7H,4-6H2,1-3H3
