18
gdb 60729	2.80224	1.03145	0.88179	0.9344	75.23	-0.2556	-0.0549	0.2006	1356.6433	0.145634	-439.08445	-439.074794	-439.073849	-439.121075	33.307	
C	 0.4790796154	 1.6331138032	-0.0661409175	-0.405938
C	-0.0874529229	 0.2045590342	 0.0841285015	-0.170607
C	 0.3588398313	-0.62581523	-1.1197922047	 0.164516
O	-0.3863634986	-1.052517521	-1.9594348372	-0.239624
C	 0.4693066853	-0.4545438208	 1.3438539627	 0.381547
O	 1.6685938883	-0.50359386	 1.5417855103	-0.352212
C	-0.4962463505	-1.071153201	 2.3006128581	-0.11887
C	-0.2156649683	-2.4971905592	 2.6883440328	-0.215339
N	 0.0070203735	-1.418712542	 3.6360756711	-0.299567
H	 1.5712760727	 1.605912863	-0.0592769211	 0.151124
H	 0.1363345027	 2.0856594741	-1.0003297135	 0.135101
H	 0.1491802476	 2.2641308763	 0.7637293569	 0.135297
H	-1.1800738487	 0.2131472974	 0.0914700094	 0.102699
H	 1.4573717905	-0.7896972055	-1.1627494251	 0.103611
H	-1.5262493376	-0.7319199216	 2.2553023196	 0.107937
H	-1.0579914659	-3.1482322194	 2.9024174616	 0.13411
H	 0.6437336872	-2.9711317301	 2.2223785632	 0.135221
H	 1.0021876182	-1.1896603077	 3.6410657716	 0.250993
15.9483	62.6462	87.7966	184.3989	207.8369	218.6637	265.8895	294.4331	310.4116	408.4922	468.6987	694.4373	752.4039	804.4285	851.1226	875.1196	906.327	949.2225	967.9315	1002.5528	1067.5949	1077.3282	1092.626	1121.0504	1134.6861	1144.1185	1180.2515	1278.4345	1287.7677	1320.5733	1342.8293	1394.2145	1400.4909	1412.8624	1494.5214	1497.1792	1499.8435	1761.7238	1837.7775	2906.5307	3048.5313	3088.7355	3114.8258	3122.0451	3137.4132	3163.3751	3209.5827	3460.2125
CC(C=O)C(=O)C1CN1	C[C@@H](C=O)C(=O)[C@H]1CN1	
InChI=1S/C6H9NO2/c1-4(3-8)6(9)5-2-7-5/h3-5,7H,2H2,1H3	InChI=1S/C6H9NO2/c1-4(3-8)6(9)5-2-7-5/h3-5,7H,2H2,1H3/t4-,5+/m0/s1
