16
gdb 117000	4.56281	0.58985	0.535	2.6676	81.87	-0.2777	-0.0812	0.1965	1997.3302	0.121425	-437.866129	-437.856062	-437.855118	-437.903467	33.249	
C	-0.0218880024	 1.5247089156	-0.2066194543	-0.392703
C	 0.0200907646	 0.0215945577	-0.0138824347	-0.041963
O	 0.658136128	-0.5421056055	-1.1780886427	-0.230648
C	 0.7764876423	-1.8761049091	-1.2019925997	 0.239816
N	 0.3726598576	-2.6272233142	-0.2569098005	-0.536325
C	 1.4177617264	-2.3332530597	-2.4068756202	 0.033503
C	 1.9489913956	-2.7860662013	-3.3933693962	 0.131448
C	 2.6148604954	-3.3015247531	-4.566309466	 0.013145
O	 2.0833787962	-4.0047039243	-5.3925866592	-0.215927
H	 0.9869405967	 1.9340359277	-0.3084474178	 0.132093
H	-0.5933455405	 1.7884082137	-1.100792736	 0.133237
H	-0.4990831182	 1.9932260863	 0.6590367757	 0.125666
H	 0.5900722542	-0.2675451801	 0.8748813095	 0.127258
H	-0.979813426	-0.4127425149	 0.0853043981	 0.128199
H	 0.5427260673	-3.6072042391	-0.4709451402	 0.241831
H	 3.676000433	-2.9946663295	-4.6541944957	 0.111369
24.1125	71.8301	79.1939	88.3479	147.2674	202.2529	249.2368	282.0567	332.1568	381.2337	411.7456	580.5054	671.2362	726.247	808.4882	844.5629	850.3902	883.1965	1018.7083	1024.6566	1098.6189	1125.8279	1136.729	1181.0236	1290.2984	1356.8144	1407.1431	1418.9471	1432.3365	1485.7103	1496.1297	1518.2822	1680.427	1770.5965	2320.8378	2931.9425	3048.5373	3051.7258	3090.118	3123.4322	3128.8395	3527.5139
CCOC(=N)C#CC=O	CCO[C]([NH])C#CC=O	
InChI=1S/C6H7NO2/c1-2-9-6(7)4-3-5-8/h5,7H,2H2,1H3	InChI=1S/C6H7NO2/c1-2-9-6(7)4-3-5-8/h5,7H,2H2,1H3
