18
gdb 51108	4.2235	1.05853	0.98443	3.1648	77.76	-0.2239	0.0207	0.2445	1241.3903	0.147064	-401.864661	-401.856689	-401.855745	-401.897697	30.78	
N	-0.1170974644	 1.2908711551	-0.0105846729	-0.439253
C	-0.1093444162	 0.0412118269	-0.1766313348	 0.103768
O	-1.1205186142	-0.7086333602	 0.3271133579	-0.221145
C	-0.9964516245	-2.0862252152	 0.173401988	 0.426739
C	-1.1536644591	-2.7811628013	-1.1492163146	-0.363886
C	-2.1102256314	-3.077810787	-0.0081030449	-0.146267
C	-1.5045459591	-3.9594370772	 1.1243654238	-0.046897
C	-0.0730688263	-4.367666367	 0.8992290378	-0.302415
C	-0.381328351	-2.9535670948	 1.3120690664	-0.122866
H	 0.6991026908	 1.7037148495	-0.4576127775	 0.230065
H	 0.6421161435	-0.5522036424	-0.7120208559	 0.094308
H	-1.5997245744	-2.1457334702	-1.9088399067	 0.127448
H	-0.4455625472	-3.5023290197	-1.5426943048	 0.116536
H	-3.1708599075	-2.8893448457	-0.1035106184	 0.109434
H	-2.1206017709	-4.4182381529	 1.8862450707	 0.097499
H	 0.342695624	-4.9784558315	 1.6957464186	 0.118366
H	 0.3196224117	-4.6213730491	-0.0791839397	 0.114917
H	-0.0219717539	-2.5078080974	 2.2301645371	 0.103649
60.5795	106.0352	137.9637	294.9169	340.2176	382.3224	426.1362	478.6002	536.0691	702.3581	720.8914	767.0994	813.9553	824.3528	852.5642	896.3363	905.654	947.6585	966.5709	988.8754	1023.6813	1034.3724	1050.4875	1056.4288	1068.206	1075.7787	1096.5339	1108.2479	1172.2512	1201.9845	1256.5003	1284.6622	1289.5786	1315.3504	1383.7767	1413.4797	1478.1764	1510.1914	1745.3793	3045.2506	3121.1187	3133.966	3194.4597	3198.5188	3207.3566	3208.6161	3214.4884	3515.8435
N=COC12CC1C1CC21	[NH][CH]O[C@]12C[C@H]1[C@H]1C[C@@H]21	
InChI=1S/C7H9NO/c8-3-9-7-2-6(7)4-1-5(4)7/h3-6,8H,1-2H2	InChI=1S/C7H9NO/c8-3-9-7-2-6(7)4-1-5(4)7/h3-6,8H,1-2H2/t4-,5+,6-,7-/m0/s1
