22
gdb 110631	2.48004	1.33551	1.05704	1.4884	86.64	-0.2132	0.071	0.2842	1266.742	0.193688	-367.124754	-367.115713	-367.114769	-367.15836	35.189	
C	-0.0955952299	 1.6002256069	 0.5912360951	-0.404206
C	 0.116916334	 0.1850986597	 0.0376854473	-0.218366
C	-1.2086036855	-0.5776771918	-0.0670041666	-0.037063
C	-1.8707319858	-1.2234981678	-1.2615860666	-0.16196
C	-0.990817835	-2.2395466818	-2.0062084546	-0.032841
C	 0.363748329	-2.4821206294	-1.4618260385	-0.256712
N	-0.7951919003	-3.0845216521	-0.7759470604	-0.180573
C	-1.6005075875	-2.0419369526	-0.0068521286	 0.316591
C	-2.5098414036	-2.6201565763	 1.0342385431	-0.469285
H	 0.8497750109	 2.1483146814	 0.6491134087	 0.112227
H	-0.7771062184	 2.1733439692	-0.0467114235	 0.119614
H	-0.5274687585	 1.5708645044	 1.5976766951	 0.117605
H	 0.5927604109	 0.2619796084	-0.9446169773	 0.11272
H	 0.8187311851	-0.3501851447	 0.6891353495	 0.108732
H	-1.9841273222	-0.0476918901	 0.4894307122	 0.087268
H	-2.8155367684	-0.8825635781	-1.6676943363	 0.086319
H	-1.3223043473	-2.7004812637	-2.9316832801	 0.096909
H	 0.9530969466	-3.2386409342	-1.975197876	 0.117418
H	 0.9540748484	-1.7156927463	-0.985055427	 0.122574
H	-1.9319246076	-2.9852335015	 1.8921514835	 0.12271
H	-3.2211002501	-1.8722803344	 1.3974914111	 0.112819
H	-3.0700924148	-3.4687901851	 0.6292490999	 0.127499
61.4168	176.3211	187.0855	200.2428	211.8207	278.9632	297.8933	351.3652	404.1437	502.8127	563.8856	653.0245	685.9163	744.1096	758.4128	814.2912	853.1528	900.0403	913.58	927.3532	959.5311	987.852	1008.5711	1054.2544	1060.1158	1078.7052	1103.9898	1115.7048	1129.0966	1135.2502	1167.0755	1206.9961	1234.4493	1275.2742	1310.1842	1332.6571	1353.7301	1370.9089	1410.6436	1413.4103	1473.0971	1475.274	1491.6279	1499.0426	1500.7142	1504.2152	1509.3518	3024.7312	3025.9649	3030.6983	3068.6362	3086.3466	3089.0274	3101.513	3105.5998	3111.5751	3126.8891	3153.2619	3180.448	3266.9413
CCC1C2C3CN3C12C	CC[C@H]1[C@H]2[C@H]3CN3[C@@]12C	
InChI=1S/C8H13N/c1-3-5-7-6-4-9(6)8(5,7)2/h5-7H,3-4H2,1-2H3	InChI=1S/C8H13N/c1-3-5-7-6-4-9(6)8(5,7)2/h5-7H,3-4H2,1-2H3/t5-,6+,7-,8-,9?/m0/s1
