22
gdb 121881	3.58836	0.71848	0.62709	3.5871	80.1	-0.2379	0.0365	0.2743	1830.8914	0.191632	-441.52509	-441.513791	-441.512847	-441.562899	39.591	
C	 0.3510699567	 1.5739071343	 0.1219134191	-0.382808
C	 0.7557193586	 0.0984458634	 0.0731769124	-0.186849
C	 0.6376410568	-0.5801918284	 1.4312583879	-0.041838
O	 1.0088623347	-1.9403761118	 1.2923653392	-0.274875
C	 1.0598285941	-2.6835628877	 2.5025874345	 0.041934
C	-0.3216406087	-3.0967574367	 3.0135761591	-0.40043
C	 1.9424686467	-3.9279687822	 2.2944624008	 0.371458
N	 2.596421101	-3.9682706006	 1.1087669599	-0.514862
O	 2.0385274197	-4.7765640855	 3.1616423334	-0.378091
H	 0.9832478001	 2.1394030028	 0.8152307529	 0.118898
H	 0.4428714955	 2.0381980079	-0.8639346291	 0.120072
H	-0.6877411591	 1.6918386302	 0.4489828232	 0.11941
H	 0.1266046789	-0.444245602	-0.6417960729	 0.108631
H	 1.789178688	-0.0002750665	-0.2794326486	 0.102464
H	 1.2929100953	-0.0852342098	 2.1678962404	 0.089502
H	-0.3940596178	-0.495406916	 1.8054950273	 0.095372
H	 1.5680729908	-2.0851584795	 3.2766984331	 0.09619
H	-0.1969384027	-3.7716600459	 3.8621873757	 0.151485
H	-0.9058457397	-2.229715199	 3.3326338401	 0.111999
H	-0.8728591314	-3.6195350859	 2.2260238488	 0.123855
H	 2.4201381566	-3.2564840716	 0.4209900174	 0.269842
H	 3.1667019257	-4.7689643395	 0.8959943852	 0.258642
42.905	48.659	66.0649	112.0252	145.7159	214.5604	234.4011	249.9048	280.3181	296.2976	341.2731	411.9181	420.6005	538.3439	561.6595	630.2998	735.8089	767.3589	816.152	899.7705	903.6386	914.1076	1042.4325	1059.245	1087.157	1099.9643	1117.2676	1148.9771	1157.5029	1192.935	1270.4911	1316.1667	1318.2637	1332.0905	1354.4207	1375.1507	1396.1996	1414.0301	1440.1307	1492.3272	1493.0038	1496.0231	1501.193	1507.4007	1527.8149	1588.5393	1798.9856	2961.4094	2974.1998	3001.3547	3033.3008	3036.5781	3049.0269	3070.7963	3101.7096	3110.8084	3119.4746	3146.8514	3604.541	3747.1521
CCCOC(C)C(N)=O	CCCO[C@@H](C)C(=O)N	
InChI=1S/C6H13NO2/c1-3-4-9-5(2)6(7)8/h5H,3-4H2,1-2H3,(H2,7,8)	InChI=1S/C6H13NO2/c1-3-4-9-5(2)6(7)8/h5H,3-4H2,1-2H3,(H2,7,8)/t5-/m0/s1
