15
gdb 56934	2.31692	1.21999	0.96765	3.8493	70.06	-0.3183	-0.0211	0.2972	1225.7209	0.111277	-416.807851	-416.798946	-416.798002	-416.84231	31.114	
C	 0.2255310531	 1.345581769	 0.2047169193	-0.399426
C	-0.2616575635	-0.0948476791	-0.0557116811	-0.189165
C	-1.7220765131	-0.1511284682	-0.179436664	 0.267113
N	-2.8705171945	-0.1833801594	-0.3007883251	-0.306419
C	 0.3702301039	-0.6567596493	-1.3224476713	 0.082382
O	 1.7618367127	-0.9299974975	-1.2563792438	-0.230073
C	 0.8751387607	-2.0426499818	-1.4244219928	-0.105746
C	 0.7795624128	-2.960921141	-0.3104990531	 0.312826
N	 0.6984809505	-3.7021863804	 0.5723243487	-0.318829
H	 1.3141319316	 1.344727467	 0.2947639602	 0.151242
H	-0.0616506783	 2.0100200378	-0.6147792388	 0.141973
H	-0.2068629484	 1.7334637635	 1.1292116132	 0.14891
H	 0.0301316445	-0.7303474594	 0.7879296377	 0.157749
H	 0.0423830224	-0.1857373867	-2.2497663589	 0.133698
H	 0.9106398556	-2.5197570343	-2.40141289	 0.153766
45.0019	102.8466	139.8595	205.8023	229.2684	244.656	260.6778	369.1084	433.2396	519.7634	554.4556	579.0189	634.2331	792.331	862.8728	867.5172	954.1698	982.387	1056.7182	1073.5977	1103.3276	1149.5289	1174.8404	1275.8732	1292.5407	1320.7218	1380.3382	1409.3132	1457.4163	1496.7525	1498.0217	2362.6486	2363.7428	3054.4176	3059.993	3114.6921	3134.0082	3143.7849	3145.5229
CC(C#N)C1OC1C#N	C[C@@H](C#N)[C@H]1O[C@H]1C#N	
InChI=1S/C6H6N2O/c1-4(2-7)6-5(3-8)9-6/h4-6H,1H3	InChI=1S/C6H6N2O/c1-4(2-7)6-5(3-8)9-6/h4-6H,1H3/t4-,5-,6+/m0/s1
