16
gdb 61088	4.38173	0.67451	0.60739	2.8341	70.64	-0.2626	-0.0433	0.2193	1731.7438	0.120213	-475.04717	-475.037383	-475.036438	-475.08336	32.766	
C	 0.1255111165	 1.213605652	 0.1174033279	-0.417839
C	 0.1335129972	-0.3139989371	 0.1665986399	-0.032616
C	-1.26964216	-0.9012240978	-0.033769221	 0.162056
O	-2.2874493013	-0.2832372599	 0.1263936655	-0.236125
N	 1.0256640488	-1.0421268208	-0.7242172083	-0.257585
C	 1.881615449	-0.4374148518	-1.415578614	 0.145974
O	 2.7383508729	-1.0722883475	-2.2736021466	-0.196344
C	 2.9474015366	-2.4279533312	-2.1429013418	 0.182471
O	 3.5808781435	-3.0234937183	-2.9541098176	-0.245052
H	 1.0800155737	 1.6338420497	 0.4457036409	 0.122404
H	-0.0923734688	 1.5760338288	-0.8921544235	 0.133855
H	-0.6634576734	 1.5832556784	 0.774619484	 0.150197
H	 0.402170067	-0.6349702799	 1.1883793385	 0.128148
H	-1.2626995062	-1.9724586023	-0.3267477437	 0.098567
H	 2.0639614608	 0.6367932367	-1.4618391708	 0.130992
H	 2.4911593538	-2.8372925492	-1.2331180593	 0.130898
51.0611	62.5138	87.5271	139.4033	160.6988	237.7294	247.2811	281.6605	298.2725	404.3825	486.2779	528.3844	611.8032	751.3361	830.0977	915.4933	948.5738	986.7283	1035.2708	1051.3127	1105.4092	1124.0068	1151.3908	1206.5539	1297.001	1317.515	1387.2821	1393.6667	1404.6422	1413.8064	1491.9356	1497.9331	1749.06	1839.7189	1877.7212	2916.7208	2963.7837	3047.8265	3078.1015	3117.0703	3127.7488	3142.5353
CC(C=O)N=COC=O	C[C@@H](C=O)N=COC=O	
InChI=1S/C5H7NO3/c1-5(2-7)6-3-9-4-8/h2-5H,1H3	InChI=1S/C5H7NO3/c1-5(2-7)6-3-9-4-8/h2-5H,1H3/t5-/m0/s1
