18
gdb 83851	2.17425	1.92563	1.34445	4.2282	71.89	-0.2433	-0.007	0.2363	1004.6733	0.14903	-439.088888	-439.080978	-439.080033	-439.121391	30.14	
C	-0.1840280318	 1.4294437653	 0.3107650147	-0.335129
N	 0.0371554956	 0.0196096314	 0.011464789	-0.087579
C	 0.4686322382	-0.4228868317	-1.305894425	-0.037961
C	 0.8280443532	 0.5569009211	-2.4173263782	-0.253432
C	 2.3198807755	 0.8665509827	-2.3962679261	-0.075553
O	 2.7816028973	 1.2774999291	-1.0964546388	-0.228087
C	 2.5593084556	 0.4523671841	-0.0369157819	 0.40713
O	 3.2368011528	 0.5540204385	 0.9486911708	-0.323114
C	 1.4010973418	-0.5045592805	-0.1313319736	-0.165257
H	 0.5188130841	 2.1291638884	-0.1613457515	 0.123258
H	-1.1994451619	 1.69221451	-0.001625733	 0.126369
H	-0.1165687263	 1.5622246089	 1.3938936861	 0.143723
H	-0.0193850836	-1.3406896627	-1.6263064029	 0.102556
H	 0.5733602119	 0.1209715884	-3.3881700229	 0.116216
H	 0.2501569767	 1.4824523468	-2.3269705119	 0.123059
H	 2.8974308066	-0.0116577623	-2.7111446409	 0.118561
H	 2.5751496801	 1.6958465403	-3.059808686	 0.126456
H	 1.5865992843	-1.4370731778	 0.3933367621	 0.118783
78.9561	151.0933	198.8562	233.3214	296.5538	380.081	421.4534	468.4585	495.4129	543.7997	688.8456	722.0395	741.87	800.6003	844.3723	924.5572	934.3664	976.5528	1059.537	1066.0106	1095.6208	1118.5804	1138.4705	1168.4207	1177.0578	1214.4174	1248.4108	1290.7767	1318.2018	1359.9762	1370.2701	1397.1216	1424.6523	1454.7823	1478.234	1496.2688	1510.5619	1513.8963	1842.5437	3009.4371	3029.7919	3051.8585	3083.4426	3090.9347	3108.4205	3115.6991	3126.6086	3155.2605
CN1C2CCOC(=O)C12	CN1[C@H]2CCOC(=O)[C@@H]12	
InChI=1S/C6H9NO2/c1-7-4-2-3-9-6(8)5(4)7/h4-5H,2-3H2,1H3	InChI=1S/C6H9NO2/c1-7-4-2-3-9-6(8)5(4)7/h4-5H,2-3H2,1H3/t4-,5-,7?/m0/s1
