17
gdb 37715	3.5282	1.97811	1.51081	2.2348	75.5	-0.2188	0.0042	0.223	870.6079	0.137701	-384.595421	-384.5894	-384.588456	-384.625346	26.211	
C	-0.0667633141	 1.567109633	 0.0889906631	-0.286647
C	 1.3371995916	 2.1398954132	-0.0563031032	-0.075938
C	 2.3899657775	 1.3407190054	-0.2629060062	-0.20688
C	 2.010515718	-0.0850170616	-0.3246495778	 0.477501
O	 2.7519641497	-1.3122730864	-0.5229630272	-0.387676
C	 1.3317480074	-1.7305166018	-0.3631796838	 0.011153
C	 1.0276693178	-0.6791500923	 0.7334358376	-0.100046
C	-0.1232463492	 0.025006553	-0.0259004343	-0.08898
C	 0.7699199716	-0.5284221163	-1.1630057552	-0.100046
H	-0.4864685752	 1.8832232237	 1.0546764066	 0.114388
H	-0.7208247346	 2.0202733552	-0.669610108	 0.114388
H	 1.4497450009	 3.2176573091	 0.0140575419	 0.098316
H	 3.4111272989	 1.6851741431	-0.3743251957	 0.10889
H	 1.1188869803	-2.797127726	-0.4190240553	 0.094015
H	 1.2250932028	-0.7554228606	 1.8027316252	 0.081024
H	-1.1384166497	-0.3669081848	 0.0809239797	 0.065512
H	 0.6749878562	-0.4337280058	-2.2447672274	 0.081024
230.2648	294.6761	395.5114	468.2364	531.5078	547.4704	608.1435	659.5601	742.7503	771.865	773.3767	833.5453	839.2198	881.6253	896.8855	917.8523	934.7943	957.6658	984.3796	1008.6867	1056.8142	1069.6317	1081.3145	1115.1915	1132.6005	1167.2741	1169.9579	1176.9539	1228.6299	1265.7934	1266.9247	1305.6952	1343.2502	1377.9404	1423.3965	1467.7047	1669.5092	3004.7213	3026.8865	3067.501	3116.6534	3118.0572	3135.7645	3170.7218	3206.831
C1C=CC23OC4C2C1C34	C1C=C[C@@]23O[C@H]4[C@@H]2[C@@H]1[C@@H]34	
InChI=1S/C8H8O/c1-2-4-5-7-6(4)8(5,3-1)9-7/h1,3-7H,2H2	InChI=1S/C8H8O/c1-2-4-5-7-6(4)8(5,3-1)9-7/h1,3-7H,2H2/t4-,5+,6-,7+,8-
