20
gdb 60815	1.87523	1.45342	1.08108	1.6884	74.93	-0.2441	-0.0427	0.2014	1225.4494	0.169005	-440.260013	-440.250065	-440.24912	-440.295266	35.878	
C	-0.319724061	 1.7579076122	-0.9521665519	-0.410493
C	-0.1663859456	 0.4606724241	-0.1455079264	-0.028351
C	-1.5477049376	-0.1582174947	 0.1589087797	 0.027865
O	-2.1806433618	-0.7578632382	-0.9609941594	-0.432868
C	-1.5432194518	-1.1381818937	 1.3316992218	 0.133471
O	-0.7007547652	-1.1961505013	 2.1920037353	-0.247081
C	 0.7307487839	-0.5189940214	-0.8823545476	-0.000689
C	 2.1857797705	-0.5881467952	-0.6087234425	-0.247782
N	 1.3063682865	-1.7019218989	-0.2127095323	-0.341499
H	 0.6576878138	 2.1839119561	-1.1960626536	 0.120011
H	-0.8536175866	 1.5679640137	-1.8887210655	 0.132627
H	-0.8859592877	 2.507224781	-0.3896695249	 0.114923
H	 0.2910233125	 0.6825631566	 0.8262236965	 0.093889
H	-2.2322250717	 0.6476731131	 0.4661821542	 0.114123
H	-1.6279817267	-1.4906056713	-1.2566985987	 0.299288
H	-2.4259685108	-1.8161558049	 1.3292653947	 0.099095
H	 0.4163206495	-0.7241315831	-1.9058303167	 0.089641
H	 2.8830068534	-0.8123783798	-1.4110324798	 0.118168
H	 2.5846980118	 0.0567599016	 0.1707222642	 0.115355
H	 1.1217955346	-1.643260506	 0.7863493626	 0.25031
57.1755	87.8016	116.522	173.4379	183.1019	231.4027	268.6598	276.5264	344.3741	389.6985	420.1701	483.5031	590.0007	650.2207	748.4034	817.7422	852.7391	924.4101	967.7438	978.3212	981.6183	1020.3025	1060.7488	1082.0903	1094.5622	1127.0859	1154.9583	1181.6503	1233.8953	1249.8809	1275.7666	1289.2627	1309.6467	1336.9748	1347.5371	1391.9001	1405.7814	1414.5851	1438.81	1495.9152	1504.7824	1512.7964	1821.2289	2892.4412	2998.6423	3036.8416	3043.8507	3100.3308	3105.7757	3106.787	3114.4935	3190.6979	3503.2983	3797.5558
CC(C(O)C=O)C1CN1	C[C@@H]([C@@H](O)C=O)[C@H]1CN1	
InChI=1S/C6H11NO2/c1-4(5-2-7-5)6(9)3-8/h3-7,9H,2H2,1H3	InChI=1S/C6H11NO2/c1-4(5-2-7-5)6(9)3-8/h3-7,9H,2H2,1H3/t4-,5-,6+/m1/s1
