15
gdb 11366	6.33628	1.34829	1.12737	3.2916	64.9	-0.2265	0.0159	0.2424	1019.0085	0.119977	-396.007948	-396.000219	-395.999275	-396.040341	27.501	
C	 0.0056776382	 1.3712594483	 0.0073148028	-0.237648
O	-0.0386411564	-0.0620192128	 0.0034813897	-0.265908
C	-1.2619577242	-0.5849952939	 0.0112861847	 0.509984
N	-2.3776014118	 0.0328426876	 0.0216166873	-0.374073
C	-3.4009934552	-1.0203298995	 0.0263231465	-0.237994
C	-2.6586856119	-2.3597450402	 0.0167867153	 0.388719
N	-3.1882631846	-3.5122666556	 0.0175076285	-0.549707
N	-1.3184511116	-1.9726459016	 0.0076518234	-0.411787
H	 1.0638639472	 1.6321322579	-0.000697126	 0.134697
H	-0.4985608094	 1.7705528274	-0.876118333	 0.146982
H	-0.4837628607	 1.765340628	 0.9013579145	 0.146939
H	-4.0418492552	-0.9436957874	 0.9115372396	 0.140262
H	-4.0552213393	-0.9385713088	-0.8485911635	 0.140261
H	-2.4892577859	-4.2566702969	 0.010012234	 0.206893
H	-0.5176437393	-2.5811771926	-0.0001064937	 0.26238
68.786	126.2555	161.5606	220.7814	281.336	360.8549	388.04	519.571	528.2706	666.3871	711.2295	733.9682	849.9558	888.5737	971.6323	994.7102	1040.4516	1086.049	1101.7215	1182.5849	1187.3277	1222.7676	1265.3472	1297.223	1321.6567	1446.3085	1467.844	1476.2659	1495.8852	1510.1963	1727.2522	1769.5187	3046.5908	3052.9299	3076.8477	3129.5658	3161.44	3457.4318	3668.6744
COC1=NCC(=N)N1	COC1=NC[C]([NH])N1	
InChI=1S/C4H7N3O/c1-8-4-6-2-3(5)7-4/h2H2,1H3,(H2,5,6,7)	InChI=1S/C4H7N3O/c1-8-4-6-2-3(5)7-4/h2H2,1H3,(H2,5,6,7)
