17
gdb 17961	2.89805	2.43566	1.56165	1.6938	70.83	-0.2417	0.0115	0.2532	841.9517	0.14398	-363.855492	-363.848471	-363.847527	-363.88657	27.043	
C	-0.0063300701	 1.4796654227	-0.253746407	-0.264548
C	 1.3472597549	 2.1866324827	 0.0195117014	-0.135543
N	 1.9686201666	 2.0796701706	 1.3282730911	-0.205441
C	 1.359653876	 1.7213515969	 2.3652715212	 0.09775
O	 0.0097294101	 1.4795455285	 2.4948214587	-0.229215
C	-0.3375073875	 0.094960865	 2.5426244274	-0.137906
C	-0.1481823114	-0.5958596955	 1.2199806277	-0.049472
C	-0.0006851147	-0.0041714686	 0.033254344	-0.052167
H	-0.7953251704	 1.9784439638	 0.3097533805	 0.125796
H	-0.2238475658	 1.6312931234	-1.3176718396	 0.092204
H	 2.0921047662	 1.8142877231	-0.6948643684	 0.113736
H	 1.2357681684	 3.2559885776	-0.2038594365	 0.118421
H	 1.9097489728	 1.6129575257	 3.3047702238	 0.109559
H	 0.2473554854	-0.4193079949	 3.3223596209	 0.106992
H	-1.3861155818	 0.0682683233	 2.8625784176	 0.128672
H	-0.1294092496	-1.6824943997	 1.2761852922	 0.089361
H	 0.1572632709	-0.6517637847	-0.8267555153	 0.091802
101.3357	215.9512	264.9048	286.0438	316.0101	401.4167	497.8418	519.2214	699.1069	717.6008	777.208	805.7764	874.2308	899.164	946.6067	983.5721	1006.8458	1015.6816	1027.7961	1046.1339	1087.2058	1127.5977	1226.7104	1261.4721	1275.6572	1281.8582	1352.717	1378.8837	1394.0429	1413.5122	1422.6597	1472.3777	1484.7012	1487.6125	1721.3844	1768.4583	2978.5442	3019.5089	3040.6955	3047.461	3051.5746	3088.9139	3117.1902	3137.151	3159.5971
C1CN=COCC=C1	C1CN=COCC=C1	
InChI=1S/C6H9NO/c1-2-4-7-6-8-5-3-1/h1,3,6H,2,4-5H2/b3-1-,7-6-	InChI=1S/C6H9NO/c1-2-4-7-6-8-5-3-1/h1,3,6H,2,4-5H2/b3-1-,7-6-
