21
gdb 60138	4.02261	0.91295	0.86384	3.0948	79.15	-0.2266	0.0649	0.2915	1425.0467	0.181251	-424.152017	-424.142956	-424.142012	-424.186537	34.477	
C	 0.1485965046	 1.5554042939	-0.2338685407	-0.404241
C	 0.0210332785	 0.0380159739	-0.0989889453	 0.138867
O	 0.5005669729	-0.4078537728	 1.1696199404	-0.429295
C	-1.4302575431	-0.4384379755	-0.2000806796	-0.244767
C	-1.545988738	-1.9557242827	-0.2140142577	 0.056378
C	-1.3513298056	-2.8470865712	 1.0450033304	 0.059115
C	-2.7234661471	-2.4029789792	 1.6040790922	-0.227883
C	-2.8631838576	-2.7246203338	 0.0963911342	 0.015155
O	-2.0490038906	-3.9409394372	 0.3194087821	-0.31593
H	 1.1945766081	 1.8689822268	-0.137221571	 0.104662
H	-0.209972158	 1.8963918897	-1.2105572671	 0.1164
H	-0.4304141422	 2.0588813719	 0.5469169237	 0.124646
H	 0.602058176	-0.4411107794	-0.9055235103	 0.066343
H	 1.4229532632	-0.1461735039	 1.2503630373	 0.281869
H	-1.9902958369	 0.0068013646	 0.6287322089	 0.103783
H	-1.8630160859	-0.0408230736	-1.1264475348	 0.097747
H	-1.035366831	-2.3874345006	-1.0806882778	 0.075189
H	-0.4335415145	-3.0955326477	 1.574342427	 0.09418
H	-3.1997408152	-3.1271225262	 2.2659088266	 0.104618
H	-2.8493438774	-1.3746733435	 1.946846286	 0.097665
H	-3.7640106503	-2.8298624534	-0.5107145845	 0.085498
39.0066	81.617	133.8749	245.0953	276.5611	289.1618	314.8377	345.2066	456.9362	465.7664	557.0092	632.5552	723.2758	787.7607	835.6588	845.5868	879.019	909.397	927.2713	942.7968	951.6615	1007.7211	1031.9486	1070.0544	1085.5672	1087.8812	1135.2232	1138.7211	1162.658	1164.5314	1201.3293	1206.2347	1224.1316	1258.7723	1284.4804	1306.1859	1318.8216	1383.083	1402.36	1407.4015	1426.9496	1468.0258	1493.3059	1495.5221	1500.2567	2953.2381	3026.5362	3034.44	3060.8241	3073.4775	3087.2275	3093.6632	3103.1763	3112.3446	3141.5544	3150.4598	3821.6621
CC(O)CC1C2CC1O2	C[C@@H](O)C[C@H]1[C@H]2C[C@@H]1O2	
InChI=1S/C7H12O2/c1-4(8)2-5-6-3-7(5)9-6/h4-8H,2-3H2,1H3	InChI=1S/C7H12O2/c1-4(8)2-5-6-3-7(5)9-6/h4-8H,2-3H2,1H3/t4-,5-,6+,7-/m1/s1
