16
gdb 56621	2.24366	1.2828	0.90178	3.3277	70.82	-0.2775	-0.0812	0.1964	1254.0945	0.120573	-437.911783	-437.901945	-437.901001	-437.947726	33.139	
C	-0.2777180907	 1.4808993378	 0.0517259102	-0.411014
C	-0.0007270954	-0.0362883056	 0.024048085	-0.156803
C	 0.4550402052	-0.4319064674	-1.3127947731	 0.282667
N	 0.8297801788	-0.6972402025	-2.3729438037	-0.317933
C	 1.0329518839	-0.4632868645	 1.088578891	-0.168716
C	 0.590380518	-0.0734897941	 2.5021296533	 0.140942
O	 1.3523377448	 0.2059837311	 3.3864951416	-0.230293
C	 1.2330957718	-1.984251663	 1.1321681234	 0.136429
O	 0.4758350925	-2.766465266	 0.6255074003	-0.219181
H	 0.6382496546	 2.0464191771	-0.1399670055	 0.147424
H	-1.011089716	 1.749502225	-0.711640745	 0.150608
H	-0.671797621	 1.7840397974	 1.0258361657	 0.133505
H	-0.9290224743	-0.5855304509	 0.2206044523	 0.149026
H	 2.0100017347	 0.0016880495	 0.9193518015	 0.136404
H	-0.5089098403	-0.1218280583	 2.6671935967	 0.104591
H	 2.1235691834	-2.3076043055	 1.7082035262	 0.122344
44.7385	68.5822	96.0253	129.6087	194.6271	219.3672	239.728	291.4699	332.9493	359.3861	448.7673	561.7992	580.0115	689.4556	836.0876	866.955	892.5379	955.4735	1009.1806	1087.8928	1096.419	1104.0623	1156.2414	1219.949	1257.6774	1314.8006	1365.7503	1406.0271	1417.4092	1420.1145	1490.3967	1500.4882	1808.1609	1847.6487	2362.2115	2886.4239	2933.9728	3049.2857	3052.1702	3072.5815	3123.618	3135.2424
CC(C#N)C(C=O)C=O	C[C@@H](C#N)C(C=O)C=O	
InChI=1S/C6H7NO2/c1-5(2-7)6(3-8)4-9/h3-6H,1H3	InChI=1S/C6H7NO2/c1-5(2-7)6(3-8)4-9/h3-6H,1H3/t5-/m0/s1
