21
gdb 105398	2.02156	1.19268	0.85897	2.8758	79.79	-0.2454	-0.0226	0.2228	1424.5063	0.178597	-424.226701	-424.216141	-424.215196	-424.263162	37.353	
C	-0.3187364316	 1.4137747867	-1.0960656024	-0.381524
C	-0.0861359122	 0.3055134859	-0.060173715	-0.254897
C	-1.3501511737	-0.4708773352	 0.2728884737	 0.362618
C	-2.3643891901	 0.3001190487	 1.1165125679	-0.353656
C	-3.6951023625	-0.3975324495	 1.3124531692	 0.146188
O	-4.2644583429	-0.4801713508	 2.3715512937	-0.250133
O	-1.9235928248	-1.2113469261	-0.8210493144	-0.295346
C	-1.3922396235	-1.9481895877	 0.2920338018	 0.027115
C	-0.2387234379	-2.8798955263	 0.0258702409	-0.431495
H	 0.6244965699	 1.9058662014	-1.3495817378	 0.117365
H	-0.7435657156	 0.9938511911	-2.0122059754	 0.137716
H	-1.0019074646	 2.1859852351	-0.7288246811	 0.118412
H	 0.6748070795	-0.3797255262	-0.4411952633	 0.105713
H	 0.3142538152	 0.7329995782	 0.8676830729	 0.103067
H	-1.9470172622	 0.5437405348	 2.0984508047	 0.127215
H	-2.588554317	 1.2510021483	 0.6107006172	 0.130688
H	-4.1339112718	-0.8160038597	 0.3826370878	 0.102782
H	-2.1684079748	-2.393476334	 0.9211931484	 0.094421
H	 0.5040840298	-2.4384061449	-0.6402896525	 0.131929
H	 0.2499407222	-3.159511539	 0.9654034056	 0.127534
H	-0.6065004215	-3.7977472908	-0.4444850319	 0.134287
54.9185	62.5037	83.214	142.6713	190.1185	210.9997	215.523	229.9744	298.972	357.1855	451.8236	478.9037	525.8915	538.1281	677.3233	749.9483	786.6729	841.7158	899.7635	944.0174	985.1768	1021.1922	1033.2828	1063.708	1089.5026	1114.8526	1136.9359	1176.9773	1206.2302	1233.3971	1289.6884	1327.3123	1339.7934	1389.4869	1407.145	1409.2475	1419.4546	1448.5804	1465.6179	1478.0179	1492.4599	1499.6532	1507.1034	1514.583	1827.4576	2919.7752	3012.1942	3036.063	3041.7281	3042.6797	3064.4474	3090.2621	3092.8656	3101.8983	3112.9787	3121.9691	3141.1072
CCC1(CC=O)OC1C	CC[C@@]1(CC=O)O[C@H]1C	
InChI=1S/C7H12O2/c1-3-7(4-5-8)6(2)9-7/h5-6H,3-4H2,1-2H3	InChI=1S/C7H12O2/c1-3-7(4-5-8)6(2)9-7/h5-6H,3-4H2,1-2H3/t6-,7-/m0/s1
