18
gdb 53901	2.14815	1.40756	1.06318	3.1202	77.87	-0.2438	-0.022	0.2218	1206.1459	0.144734	-401.898749	-401.88898	-401.888036	-401.934231	34.863	
C	 0.040663015	 1.4152755222	 0.0958775539	-0.485796
C	-0.0346463281	-0.0976670116	 0.0932011842	 0.405388
O	-0.253392698	-0.7465865584	 1.0832620214	-0.286022
C	 0.1553229781	-0.7762654149	-1.2924684224	-0.343869
C	 0.7991777655	-2.0751515448	-1.1572224995	 0.330022
C	 1.3254473053	-3.1496362384	-1.0450562371	-0.431216
C	-1.2333678469	-0.8535880513	-1.9525864654	 0.024698
C	-1.6083521569	-1.9623848882	-2.8607536983	-0.25517
N	-2.211056746	-1.8512452297	-1.5189443466	-0.309409
H	 1.0736774871	 1.7269181577	-0.1007974266	 0.148292
H	-0.5773024848	 1.8435070827	-0.700395992	 0.14262
H	-0.2761951052	 1.8021357334	 1.0647146599	 0.149774
H	 0.7788978387	-0.1227366888	-1.9173135223	 0.115047
H	 1.8026652993	-4.0922717902	-0.9352363836	 0.203955
H	-1.6631291034	 0.129836167	-2.1348060795	 0.098727
H	-2.2885219735	-1.7729718898	-3.686267701	 0.11818
H	-0.8726379977	-2.7416362073	-3.0335952172	 0.128715
H	-1.7598815586	-2.5098920396	-0.8858557281	 0.246065
45.3056	64.2332	136.8155	147.2218	157.3275	180.981	323.0707	352.9923	365.6936	422.6278	554.1743	609.4225	634.3962	639.44	654.8957	773.0632	840.6625	855.4332	919.4403	942.0458	971.352	1000.1696	1016.7089	1090.5792	1124.9741	1141.2353	1169.4515	1195.0339	1256.8099	1260.3889	1317.1971	1334.7003	1381.4835	1402.3603	1461.2688	1474.5827	1506.9267	1829.5993	2238.431	3018.1636	3036.2542	3097.2654	3115.1775	3120.5814	3156.4682	3207.4695	3485.9109	3501.1381
CC(=O)C(C#C)C1CN1	CC(=O)[C@@H](C#C)[C@H]1CN1	
InChI=1S/C7H9NO/c1-3-6(5(2)9)7-4-8-7/h1,6-8H,4H2,2H3	InChI=1S/C7H9NO/c1-3-6(5(2)9)7-4-8-7/h1,6-8H,4H2,2H3/t6-,7-/m1/s1
