20
gdb 10188	2.08234	1.57905	0.95239	0.739	78.19	-0.2605	0.0407	0.3013	1275.8805	0.173658	-348.970736	-348.960669	-348.959724	-349.005929	35.641	
C	 1.2026138719	 1.5813707335	-0.1299999839	-0.384691
C	 1.5037188578	 0.0935501576	-0.183619927	-0.038143
O	 0.6617906384	-0.4936345246	-1.162616419	-0.242937
C	 0.8150494605	-1.8960475733	-1.3075708676	-0.053797
C	-0.3399866874	-2.3971483988	-2.1880366651	-0.181721
C	-1.71119736	-2.1485473891	-1.5574731341	-0.389936
C	 2.1215016542	-2.2517810289	-1.8816381488	 0.337821
C	 3.1839769851	-2.5442645529	-2.3624711687	-0.465398
H	 1.3967116721	 2.0464995244	-1.1005718722	 0.128711
H	 0.1541883434	 1.7545740346	 0.1294179719	 0.124192
H	 1.8316228531	 2.0689972786	 0.6208065631	 0.114929
H	 2.5594588878	-0.0812458523	-0.4375208293	 0.10205
H	 1.3205098524	-0.3765067527	 0.797304755	 0.084054
H	 0.7356127551	-2.3743899879	-0.314545986	 0.08723
H	-0.264650492	-1.8917220339	-3.1567787327	 0.116404
H	-0.1859329127	-3.46557923	-2.3721071649	 0.107352
H	-2.5109396783	-2.4925696164	-2.2198885294	 0.111559
H	-1.8127385416	-2.6837337425	-0.6064649377	 0.110358
H	-1.8582512075	-1.0838608036	-1.3627245857	 0.135188
H	 4.1239600877	-2.8034047518	-2.7835624781	 0.196776
67.5819	93.8862	103.9229	143.5787	168.3384	216.1176	245.4481	263.644	318.9336	399.0632	445.0831	527.505	599.1236	625.4058	670.5163	767.8619	823.3902	872.9641	895.6201	979.3397	993.7131	1059.6033	1098.8071	1120.6388	1143.6941	1179.3797	1189.3056	1286.4628	1297.6023	1316.1338	1353.4491	1382.056	1401.3838	1406.6054	1435.411	1477.7404	1483.3316	1495.7803	1500.4228	1510.3283	1528.6667	2228.7241	2937.7339	2964.6765	3014.1236	3037.3953	3044.3711	3048.2792	3085.9421	3104.5603	3118.38	3121.3501	3131.1991	3502.6758
CCOC(CC)C#C	CCO[C@@H](CC)C#C	
InChI=1S/C7H12O/c1-4-7(5-2)8-6-3/h1,7H,5-6H2,2-3H3	InChI=1S/C7H12O/c1-4-7(5-2)8-6-3/h1,7H,5-6H2,2-3H3/t7-/m1/s1
