13
gdb 25339	3.22757	1.37055	0.96203	4.7042	69.9	-0.2491	-0.1017	0.1474	1115.2092	0.091274	-448.9692	-448.961903	-448.960958	-449.001668	26.184	
N	-0.1644839152	 1.3357443808	 0.008318128	-0.551869
C	 0.000440075	 0.0760800218	 0.0013845216	 0.416539
N	-1.1562527776	-0.7426511168	 0.0030467351	-0.283698
C	-1.0775765674	-2.0812845844	-0.0038344206	 0.117549
N	 0.0468735049	-2.7337369418	-0.0124857229	-0.316372
C	 1.1611680751	-1.9160691323	-0.0139693133	 0.225205
C	 2.4658313716	-2.6890507437	-0.0240770122	 0.124532
O	 3.5515773935	-2.1785343737	-0.0269694408	-0.220491
N	 1.2046723161	-0.6213061433	-0.00789118	-0.29362
H	 0.7477045574	 1.7894317077	 0.0060689721	 0.238871
H	-2.0455002603	-0.2618355048	 0.0097209968	 0.285502
H	-2.0213946391	-2.6222314821	-0.0018547172	 0.15379
H	 2.309648326	-3.7869176373	-0.0285955465	 0.104062
76.8785	134.8517	184.3569	194.8516	406.7695	427.9156	479.206	564.722	603.0688	688.6462	723.9414	781.0682	792.806	867.2936	948.7282	981.6385	993.2104	1045.3273	1106.1005	1168.5938	1242.5468	1319.4529	1390.7704	1416.6386	1482.5983	1573.1983	1661.9795	1741.5883	1839.1322	2938.3192	3166.6742	3516.1131	3605.8623
N=C1NC=NC(C=O)=N1	[NH]C1=NC(=NCN1)C=O	
InChI=1S/C4H4N4O/c5-4-7-2-6-3(1-9)8-4/h1-2H,(H2,5,6,7,8)	InChI=1S/C4H5N4O/c5-4-7-2-6-3(1-9)8-4/h1,5H,2H2,(H,6,7,8)
