18
gdb 79164	2.78806	1.80789	1.3135	1.2151	74.04	-0.237	-0.0197	0.2173	987.4285	0.149143	-401.929047	-401.921698	-401.920754	-401.960811	29.004	
C	 0.0531741161	 1.5991098208	 0.0094735974	-0.407916
C	 0.0048452009	 0.0672146295	-0.0165430892	-0.131936
C	 0.7528230497	-0.5390507936	-1.1937821903	-0.023018
C	 1.9808061844	-1.2444995442	-0.759007892	-0.060791
C	 1.5853503188	-1.6858319225	 0.6722394237	-0.175854
C	 0.618553518	-2.6692749004	-0.0552847571	-0.167323
N	 0.85313734	-2.0177678996	-1.3868928267	-0.158097
C	 0.7316869279	-0.545564098	 1.2046905233	 0.425617
O	 0.6256655225	-0.1772121008	 2.3444943396	-0.331681
H	 1.0806615636	 1.9623679069	-0.097273653	 0.122328
H	-0.5445685718	 2.0256343316	-0.8010530739	 0.119733
H	-0.3355190812	 1.9637553278	 0.9633028344	 0.142719
H	-1.0442605153	-0.2544455488	 0.0159179304	 0.110056
H	 0.7380562998	-0.0170981651	-2.1442669092	 0.102948
H	 2.972253679	-1.1744678368	-1.1896516028	 0.101688
H	 2.3132319607	-2.087261233	 1.372649304	 0.093541
H	 1.0218632654	-3.6828064667	-0.0929551356	 0.125793
H	-0.4258413884	-2.7104370772	 0.273574157	 0.112193
90.0135	203.8178	213.4572	246.9124	342.4544	429.2842	466.2223	572.7022	669.6218	699.471	762.4157	776.9574	794.9184	829.0367	890.8694	909.5754	946.8194	964.0403	997.5224	1020.9618	1049.598	1058.4315	1106.4723	1125.3712	1146.6845	1187.5266	1193.9647	1214.5359	1250.1241	1270.9676	1276.3337	1309.9054	1330.3904	1382.0272	1408.798	1495.5756	1500.1601	1505.6658	1849.2509	3024.8529	3040.9601	3043.3406	3109.5472	3113.5936	3129.0631	3152.8544	3173.9417	3189.4121
CC1C2C3C(CN23)C1=O	C[C@H]1[C@H]2[C@H]3[C@H](CN23)C1=O	
InChI=1S/C7H9NO/c1-3-5-6-4(7(3)9)2-8(5)6/h3-6H,2H2,1H3	InChI=1S/C7H9NO/c1-3-5-6-4(7(3)9)2-8(5)6/h3-6H,2H2,1H3/t3-,4-,5-,6+,8?/m0/s1
