15
gdb 45269	3.18013	1.74792	1.40801	5.379	63.38	-0.2716	0.0102	0.2818	904.7419	0.114258	-457.777775	-457.771288	-457.770344	-457.808797	25.42	
O	-0.1554957148	 0.1310838351	 0.3574644283	-0.319793
C	-0.0358195217	 1.2696907076	 0.0492738591	 0.47638
O	-0.9985416432	 2.1199071586	-0.4363797637	-0.252962
C	-0.0280732416	 3.2010084017	-0.6473165933	 0.114393
C	-0.2447862764	 4.4414623823	 0.2293855168	-0.274576
C	 0.6037900333	 4.2125653926	 1.4685437471	 0.049739
O	 0.2595979083	 3.0296950755	 2.1925708251	-0.23976
C	 1.3975881347	 2.975568473	 1.3245108696	 0.030854
C	 1.0829904262	 2.3263288942	-0.0126738249	-0.277661
H	 0.0400017732	 3.4164184146	-1.7145331586	 0.106245
H	 0.0975753433	 5.3388973331	-0.2974844861	 0.115077
H	-1.3035623377	 4.5749988171	 0.4700819789	 0.142991
H	 0.9259360074	 5.0529019777	 2.0793693972	 0.105933
H	 2.3542709146	 2.810961233	 1.8108117454	 0.111009
H	 1.9621349945	 2.064142864	-0.600733171	 0.11213
122.3585	160.6352	303.1778	367.3049	432.7281	501.3669	652.8966	698.2011	725.2067	769.4885	829.3906	843.2393	864.5147	887.6312	938.1821	961.8776	982.1668	1028.3407	1044.0174	1059.9938	1105.1605	1129.7664	1186.4715	1202.4352	1249.4158	1259.2832	1284.9503	1324.9389	1337.3727	1369.373	1426.1153	1461.7292	1948.034	3052.4453	3101.0282	3106.9449	3127.3344	3141.4334	3166.5584
O=C1OC2CC3OC3C12	O=C1O[C@H]2C[C@H]3O[C@H]3[C@@H]12	
InChI=1S/C6H6O3/c7-6-4-2(9-6)1-3-5(4)8-3/h2-5H,1H2	InChI=1S/C6H6O3/c7-6-4-2(9-6)1-3-5(4)8-3/h2-5H,1H2/t2-,3+,4-,5+/m0/s1
