15
gdb 55515	3.4758	1.00101	0.78097	2.8624	65.07	-0.2489	-0.0612	0.1877	1382.4071	0.111202	-491.1811	-491.171608	-491.170664	-491.216489	32.754	
C	-0.0142910146	 1.4912853542	-0.2019941677	-0.500266
C	-0.0166492515	 0.0156239972	 0.1537994483	 0.415071
O	-0.0359676893	-0.4113648613	 1.2779993166	-0.291619
N	 0.0064513353	-0.813168329	-0.9820127635	-0.384449
C	 0.011386058	-2.1861693385	-1.0310859065	 0.348717
O	-0.0032979543	-2.9688836588	-0.1105647319	-0.332704
C	 0.039523714	-2.6582471651	-2.5087238508	 0.34165
N	 0.0449627277	-3.9978426034	-2.5992772192	-0.516114
O	 0.0538721111	-1.8622107603	-3.4330573011	-0.37711
H	 0.8797894574	 1.7485102264	-0.7798221432	 0.149366
H	-0.8873489566	 1.7433821994	-0.8132519657	 0.149335
H	-0.0333507963	 2.0740693813	 0.7178835166	 0.158266
H	 0.0221786326	-0.3960464483	-1.9073215559	 0.275915
H	 0.0311273955	-4.5324819395	-1.744365464	 0.288785
H	 0.062561981	-4.4484525143	-3.4981438919	 0.275155
61.0958	73.7285	99.8262	129.8488	135.0696	272.9625	333.1458	363.4025	378.6419	486.4842	536.3139	550.2628	593.1897	651.8765	677.7395	773.2973	838.2137	869.4301	925.05	1028.0647	1053.8827	1099.9124	1184.2916	1222.6634	1374.4358	1388.1107	1467.4564	1480.2739	1524.8111	1591.8783	1799.0327	1801.9936	1862.5135	3043.2825	3106.2364	3168.4728	3541.5493	3589.6877	3733.7208
CC(=O)NC(=O)C(N)=O	CC(=O)NC(=O)C(=O)N	
InChI=1S/C4H6N2O3/c1-2(7)6-4(9)3(5)8/h1H3,(H2,5,8)(H,6,7,9)	InChI=1S/C4H6N2O3/c1-2(7)6-4(9)3(5)8/h1H3,(H2,5,8)(H,6,7,9)
