21
gdb 120223	3.64452	1.02541	0.98468	1.8621	78.42	-0.2431	0.0801	0.3232	1326.2469	0.183196	-424.203211	-424.194671	-424.193727	-424.237108	32.334	
C	 0.0168998408	 1.5362239266	 0.0224864857	-0.386769
C	-0.1494999947	 0.0398976737	-0.1762149598	-0.041563
O	 0.9087950954	-0.4257887492	-1.0002624011	-0.259716
C	 0.8966389105	-1.8019254993	-1.2141743094	 0.158464
C	 0.0583568793	-2.4485625813	-2.3589251486	 0.025348
C	 0.3961408634	-1.5828407342	-3.587384267	-0.214204
C	 1.9449438089	-1.5409165986	-3.388910795	-0.211627
C	 2.0065553535	-2.390730967	-2.1048573582	 0.01692
O	 1.0846648886	-3.4865793745	-2.4015820459	-0.299748
H	 0.9786766631	 1.7548889975	 0.4949138466	 0.128786
H	-0.0192802272	 2.0581782702	-0.9379338048	 0.127501
H	-0.7815928809	 1.9268763212	 0.6602110115	 0.116855
H	-0.1264586334	-0.486236231	 0.7918821076	 0.092506
H	-1.1221855842	-0.1829746774	-0.6426690253	 0.092792
H	 0.7869231824	-2.3720150368	-0.28352083	 0.079724
H	-0.9536303172	-2.8332407096	-2.2333682361	 0.074048
H	 0.0964570413	-2.0746188376	-4.5147549739	 0.10379
H	-0.0654030933	-0.5937163198	-3.5403582043	 0.103366
H	 2.4926070189	-2.0187676051	-4.2033769819	 0.103434
H	 2.3298470645	-0.530739179	-3.236341126	 0.111902
H	 2.9741268403	-2.7114810588	-1.7199522342	 0.07819
64.2249	73.1765	130.8925	233.0795	265.9361	284.18	354.7682	413.2376	520.0322	614.9829	746.2343	807.43	821.8168	840.3898	858.3198	868.6777	874.0559	915.0739	924.7507	991.2518	998.7241	1007.8571	1040.0155	1073.7538	1127.4046	1148.91	1181.23	1184.6601	1191.7108	1205.849	1228.0666	1253.8886	1273.0899	1297.1782	1305.921	1311.878	1342.9984	1370.7946	1404.0982	1440.366	1467.8414	1483.8208	1491.3172	1499.4022	1527.9392	2968.6592	2997.3085	3039.7201	3045.6202	3070.7004	3079.8618	3118.0539	3120.3369	3122.573	3123.6007	3130.3051	3135.6745
CCOC1C2CCC1O2	CCO[C@H]1[C@H]2CC[C@@H]1O2	
InChI=1S/C7H12O2/c1-2-8-7-5-3-4-6(7)9-5/h5-7H,2-4H2,1H3	InChI=1S/C7H12O2/c1-2-8-7-5-3-4-6(7)9-5/h5-7H,2-4H2,1H3/t5-,6+,7+
