18
gdb 92806	2.9477	1.75323	1.38753	2.5072	77.57	-0.2253	0.0089	0.2342	964.3055	0.148855	-401.870581	-401.863244	-401.8623	-401.901987	29.658	
O	 0.0173643324	 1.3891551931	-0.1676463278	-0.423673
C	 0.0445377348	-0.0192207011	-0.0084771223	 0.070301
C	 0.4399880823	-0.4402395399	 1.4581878384	-0.276981
C	-0.8825933023	-0.4090356908	 2.2317855643	-0.233058
C	-1.8662851477	-0.4887603716	 1.3444170531	 0.296998
C	-3.2167664012	-0.0519509733	 0.8591416508	-0.167239
C	-3.0090807796	 1.2359379622	 0.1476819171	-0.217811
N	-2.7062199991	-0.000838651	-0.5957213862	-0.176982
C	-1.3894681299	-0.5841417946	-0.0628370808	 0.015657
H	 0.9038487153	 1.7238614355	-0.0000969669	 0.28433
H	 0.7150315165	-0.4746998751	-0.750614898	 0.066149
H	 0.9120287006	-1.4330249376	 1.4597400398	 0.108345
H	 1.1790069192	 0.2563996548	 1.8744065073	 0.095437
H	-0.9402816711	-0.2632542969	 3.3035937451	 0.098612
H	-4.1927092373	-0.4526829652	 1.1052911926	 0.105238
H	-3.8930822475	 1.733406417	-0.2419890082	 0.117549
H	-2.1983542839	 1.8880404913	 0.4494791709	 0.142676
H	-1.3603889914	-1.6123391967	-0.4423321892	 0.094452
127.9545	207.6504	256.9633	277.4938	333.7871	374.9742	447.9286	551.7806	643.0918	700.2828	725.0349	777.8144	800.5561	833.4215	856.4992	876.6064	914.5729	939.6559	980.8232	988.8345	1026.7092	1050.8824	1085.5697	1119.199	1122.1365	1145.774	1183.6957	1187.1111	1212.1357	1233.6947	1271.7624	1280.6646	1317.2249	1341.732	1358.5904	1426.5176	1471.9707	1494.0147	1740.9139	2996.3501	3012.319	3037.6836	3047.8784	3124.9973	3185.5371	3202.0658	3227.8774	3819.214
OC1CC=C2C3CN3C12	O[C@H]1C[CH][C]2[C@H]3CN3[C@@H]12	
InChI=1S/C7H9NO/c9-6-2-1-4-5-3-8(5)7(4)6/h1,5-7,9H,2-3H2	InChI=1S/C7H9NO/c9-6-2-1-4-5-3-8(5)7(4)6/h1,5-7,9H,2-3H2/t5-,6+,7-,8?/m1/s1
