13
gdb 131704	2.95355	1.38657	0.94915	2.3642	63.35	-0.2764	-0.0901	0.1863	1128.1966	0.08831	-489.871191	-489.863399	-489.862455	-489.904471	27.453	
O	 0.1610546885	 1.3905373703	-0.0427842144	-0.414094
C	 0.0571015131	 0.0024785279	-0.124281151	-0.117429
C	-1.3783938985	-0.459654454	-0.0550996738	 0.424248
N	-2.3268519644	 0.3951157944	 0.0647855675	-0.390989
C	-3.6363369168	-0.0915885124	 0.1238752447	 0.388195
O	-4.6107632979	 0.6116584575	 0.2362898286	-0.317828
C	-3.741019304	-1.5706397759	 0.0360269374	-0.04802
N	-2.7634708618	-2.3879467652	-0.0834541065	-0.040301
O	-1.4885600471	-1.7943190633	-0.1328075785	-0.241685
H	-0.7418890608	 1.7340896717	 0.0415582148	 0.306837
H	 0.4865981976	-0.378966715	-1.063968825	 0.138978
H	 0.6072847174	-0.4911647909	 0.6921957724	 0.138961
H	-4.7254735654	-2.028493045	 0.0741502038	 0.173126
58.6796	97.3797	166.7768	196.4956	323.4511	409.2305	423.5525	473.9458	547.3882	590.0065	636.5409	726.5149	786.4514	869.3355	959.1407	964.4004	1017.1074	1030.5265	1131.6113	1195.258	1249.6126	1284.0697	1306.387	1342.136	1466.6292	1493.7212	1633.9458	1680.2073	1814.1892	2988.9787	3007.5182	3190.7004	3701.7501
OCC1=NC(=O)C=NO1	OCc1nc(=O)cno1	
InChI=1S/C4H4N2O3/c7-2-4-6-3(8)1-5-9-4/h1,7H,2H2	InChI=1S/C4H4N2O3/c7-2-4-6-3(8)1-5-9-4/h1,7H,2H2
