19
gdb 63526	3.34024	1.06772	0.98718	4.0063	76.9	-0.2391	-0.0179	0.2212	1261.4873	0.155935	-423.020118	-423.01092	-423.009976	-423.054144	35.099	
C	 0.0284948943	 1.5448737068	-0.1940904004	-0.448304
C	 0.0368497536	 0.0404383828	-0.0473173159	 0.341681
O	-1.1040941502	-0.5969578517	-0.5630383442	-0.460128
C	 1.3432035672	-0.726593236	-0.1004149805	-0.421726
C	 0.5679184146	-0.6138367185	 1.1894048346	 0.309967
C	 1.0057073134	 0.0687123265	 2.4992892918	-0.432481
C	 0.3071421293	-1.0866244344	 3.2484341343	 0.405382
O	 0.169896792	-1.3529524246	 4.4059748351	-0.28832
C	-0.1263671153	-1.7659887156	 1.9369598362	-0.411241
H	 0.9137222698	 1.996939233	 0.26160806	 0.121955
H	 0.0200589061	 1.8301982835	-1.2532254057	 0.111772
H	-0.862601029	 1.9735361949	 0.2762335412	 0.127934
H	-1.0870003999	-0.5108696936	-1.5227162779	 0.283259
H	 1.3327736709	-1.6887548709	-0.6029809478	 0.114607
H	 2.2696485154	-0.1678555307	-0.1975296502	 0.110635
H	 2.0848236306	 0.1172592131	 2.6799828735	 0.129629
H	 0.5747492659	 1.0546923411	 2.7022471012	 0.130181
H	-1.2092925436	-1.8290067432	 1.7944911273	 0.146747
H	 0.2999962649	-2.7647303827	 1.7965664974	 0.128451
41.2755	155.7305	169.3016	211.4422	249.9144	284.8042	371.6551	383.9112	417.0641	441.572	444.7016	505.7401	567.1883	674.9721	695.1357	721.0738	863.8474	890.6561	904.8825	917.7934	982.3154	1014.88	1035.2271	1059.842	1078.8987	1088.3785	1160.3929	1179.5403	1195.5785	1205.0546	1226.9346	1276.1931	1310.7227	1407.3326	1420.8119	1427.262	1445.9707	1479.799	1486.3873	1510.4213	1898.0012	3025.8735	3044.6809	3053.6634	3087.9972	3095.3531	3104.6068	3114.2158	3117.4633	3206.903	3794.3142
CC1(O)CC11CC(=O)C1	C[C@@]1(O)CC21CC(=O)C2	
InChI=1S/C7H10O2/c1-6(9)4-7(6)2-5(8)3-7/h9H,2-4H2,1H3	InChI=1S/C7H10O2/c1-6(9)4-7(6)2-5(8)3-7/h9H,2-4H2,1H3/t6-/m1/s1
