19
gdb 81026	2.27246	1.83034	1.59269	2.1598	70.16	-0.2384	0.0799	0.3183	964.901	0.159596	-460.144582	-460.136462	-460.135518	-460.176733	32.059	
C	 0.0552223659	 1.5100505131	 0.1077219854	-0.475561
C	-0.0294007767	 0.0142524492	-0.0534353471	 0.364219
C	 0.2541007991	-0.706010321	-1.4045947372	-0.328305
C	-0.6357001511	-1.8477672118	-0.8459548039	 0.048042
O	 0.0737949758	-2.6470623332	 0.1112105096	-0.278726
C	 1.1250412311	-1.9182496633	 0.7056155845	 0.00159
O	 0.7477770942	-0.5927896713	 1.0066082458	-0.317979
C	-1.4045163482	-0.7395951081	-0.0576834907	 0.143284
O	-2.024336551	-1.0406858871	 1.1462237379	-0.43746
H	 1.0870533779	 1.8592182598	 0.0030026448	 0.123513
H	-0.5630570461	 2.00954661	-0.6440044907	 0.114894
H	-0.3050093104	 1.7989887334	 1.0997113509	 0.137524
H	-0.2509696838	-0.1908249958	-2.2244905407	 0.113991
H	 1.2819978956	-0.9180467393	-1.6987380214	 0.115522
H	-1.1604179525	-2.5323580704	-1.5127138793	 0.084087
H	 1.3780754005	-2.4117668648	 1.6479047408	 0.120589
H	 2.0065080394	-1.9206620521	 0.0470871485	 0.095919
H	-2.1348344672	-0.231347854	-0.6935512235	 0.086959
H	-1.3558144025	-1.4617008031	 1.7004699465	 0.2879
117.7236	199.6676	213.2292	233.5147	310.264	328.9203	350.0501	440.9776	474.7506	515.3869	624.6212	654.8554	702.625	784.1557	835.1795	840.7792	857.4238	920.0887	966.1299	984.7701	1011.4507	1086.9511	1127.7405	1140.9606	1161.7413	1168.2542	1173.0044	1215.7011	1242.0066	1250.0858	1266.284	1311.6509	1332.7441	1359.2707	1413.5576	1435.4541	1442.8969	1479.83	1485.2728	1492.6456	1547.6637	2982.6698	3039.7228	3077.0056	3086.6498	3090.93	3112.8123	3113.7023	3117.5401	3140.6136	3792.5835
CC12CC(OCO1)C2O	C[C@@]12C[C@@H](OCO1)[C@H]2O	
InChI=1S/C6H10O3/c1-6-2-4(5(6)7)8-3-9-6/h4-5,7H,2-3H2,1H3	InChI=1S/C6H10O3/c1-6-2-4(5(6)7)8-3-9-6/h4-5,7H,2-3H2,1H3/t4-,5-,6+/m1/s1
