23
gdb 88672	2.95213	0.96303	0.88292	1.4156	87.22	-0.2372	0.08	0.3173	1461.9056	0.203803	-388.264383	-388.254234	-388.25329	-388.299476	38.689	
C	-0.2314744958	 1.541051501	 0.0776376169	-0.449059
C	-0.0198471767	 0.0397362143	 0.0227519599	 0.341357
C	-1.2288251785	-0.7290466974	-0.4780513187	-0.447385
C	 1.348459247	-0.4832993285	-0.3560472385	-0.345688
C	 0.847334258	-0.6433786539	 1.0637592634	-0.02945
C	 1.4985497231	 0.0898571167	 2.194675871	-0.032789
C	 0.8357864432	 0.1432689214	 3.5630690825	-0.338309
C	 2.0875242508	-0.6702893885	 3.3522535577	 0.08873
O	 2.0009780541	-2.066037007	 3.3056455184	-0.41506
H	 0.6597055676	 2.073885571	 0.4188752212	 0.109642
H	-0.4879083891	 1.9307916599	-0.9147895193	 0.109798
H	-1.0534218166	 1.8007666225	 0.7555859538	 0.112115
H	-1.5058856438	-0.4141022608	-1.4917493162	 0.109541
H	-1.0342457321	-1.8057881715	-0.505955062	 0.111286
H	-2.0995797442	-0.563726775	 0.1681924038	 0.109564
H	 1.4178791924	-1.3651810991	-0.9848246556	 0.103818
H	 2.1361671883	 0.2444363415	-0.5291480221	 0.100306
H	 0.5363500596	-1.6467276	 1.3370916619	 0.088917
H	 2.0534169469	 0.9787134347	 1.9097161011	 0.08384
H	 0.8882850961	 1.0571831477	 4.1452343103	 0.106893
H	-0.0880457168	-0.4159684359	 3.6737272959	 0.111601
H	 3.0166192249	-0.2908092877	 3.7780921052	 0.082731
H	 1.7945452113	-2.3785273755	 4.1923481994	 0.287602
42.3709	121.7818	137.7196	191.8428	217.1122	234.2838	303.2186	326.1728	348.5154	365.6931	405.2561	435.3685	480.3188	572.2277	704.5492	760.3785	820.458	850.2756	872.5785	913.0282	924.7164	963.1368	971.1504	1004.6622	1018.8986	1041.1398	1053.8484	1060.4316	1095.1467	1127.0873	1130.6252	1157.3821	1174.3145	1209.6327	1241.8691	1272.5265	1302.1164	1324.5931	1350.2896	1409.6241	1415.0848	1424.7368	1447.9457	1480.7243	1485.6638	1492.3529	1495.766	1500.3057	1516.0762	3015.3926	3023.3917	3072.544	3077.0925	3092.4771	3096.2744	3109.6118	3117.8963	3125.3421	3146.4761	3161.0351	3201.4561	3214.7612	3810.3733
CC1(C)CC1C1CC1O	CC1(C)C[C@H]1[C@H]1C[C@H]1O	
InChI=1S/C8H14O/c1-8(2)4-6(8)5-3-7(5)9/h5-7,9H,3-4H2,1-2H3	InChI=1S/C8H14O/c1-8(2)4-6(8)5-3-7(5)9/h5-7,9H,3-4H2,1-2H3/t5-,6+,7-/m1/s1
