22
gdb 60179	2.91242	0.86079	0.73105	4.2332	87.49	-0.2839	0.0311	0.315	1618.5558	0.193235	-367.229484	-367.219328	-367.218384	-367.265312	37.239	
C	-0.4488975138	 1.3841515549	-0.1654852335	-0.384929
C	 0.0732624535	-0.0471825496	 0.0232024208	 0.046309
C	 0.8549013238	-0.505939103	-1.2150244716	-0.390869
C	 0.9467063347	-0.1938778948	 1.285499307	-0.213174
C	 0.2189832802	 0.0870920363	 2.583254437	-0.005586
C	-0.6325033096	-0.9609789802	 3.234791642	-0.282636
C	 0.6746792083	-0.5449730234	 3.8965760034	-0.188797
C	 1.7803085829	-1.460449273	 3.9190158672	 0.289724
N	 2.6743902508	-2.1952750033	 3.938008302	-0.346365
H	 0.3819741384	 2.0938968529	-0.2605533985	 0.113384
H	-1.0540210091	 1.4609762429	-1.0746013655	 0.114357
H	-1.0740667432	 1.7106258149	 0.6712349631	 0.110929
H	-0.794587497	-0.7115383874	 0.1417330586	 0.074614
H	 1.7380394944	 0.1237502243	-1.376200621	 0.114912
H	 1.1993468321	-1.5399746074	-1.1106687734	 0.115497
H	 0.2367492274	-0.4461170428	-2.1166299986	 0.1111
H	 1.3564093318	-1.2102622341	 1.3192096215	 0.114984
H	 1.8123086334	 0.4781347827	 1.2045816998	 0.104053
H	-0.1215484779	 1.110516423	 2.7091242081	 0.103773
H	-1.5485771064	-0.6725537057	 3.7370597527	 0.128086
H	-0.6541384701	-1.9463651541	 2.7826267035	 0.138688
H	 0.6013179655	 0.0701186868	 4.7869717755	 0.131944
39.9692	84.69	100.0057	169.5032	220.3945	224.4333	244.2532	311.7303	346.2445	389.9749	426.5818	447.8912	556.8022	620.6211	771.1962	814.8047	824.9951	866.729	873.5067	929.3434	943.0892	959.2221	968.9078	1004.5952	1067.1963	1080.3118	1120.3547	1142.7999	1157.1317	1189.618	1196.2788	1228.3743	1277.5786	1313.3612	1361.3997	1371.3181	1383.6877	1401.4923	1418.4666	1427.5477	1478.6011	1487.8129	1489.8722	1496.2928	1505.6087	1511.4673	2350.0221	3001.0164	3017.4324	3024.6596	3029.8234	3063.0884	3089.763	3095.9611	3100.7977	3103.2451	3141.5493	3154.6425	3170.8159	3231.4494
CC(C)CC1CC1C#N	CC(C)C[C@H]1C[C@H]1C#N	
InChI=1S/C8H13N/c1-6(2)3-7-4-8(7)5-9/h6-8H,3-4H2,1-2H3	InChI=1S/C8H13N/c1-6(2)3-7-4-8(7)5-9/h6-8H,3-4H2,1-2H3/t7-,8-/m0/s1
