15
gdb 133138	2.31002	1.85922	1.03674	2.6508	74.46	-0.2135	-0.0462	0.1672	1077.8107	0.113152	-458.106364	-458.098396	-458.097452	-458.139172	29.485	
C	 0.0015034386	 1.5292518709	-0.0060048573	-0.50488
C	-0.0248369683	 0.0269417984	 0.0157235498	 0.127976
C	-1.1633948164	-0.6923761925	-0.1107041968	 0.206508
F	-2.3395297237	-0.1039998413	-0.2633968	-0.04214
C	-1.1879959514	-2.1501476986	-0.0895071611	 0.29161
N	-2.2765729376	-2.8146073742	-0.2107741977	-0.555149
N	 0.0974654025	-2.6775718688	 0.075462444	-0.311664
N	 1.2633735053	-2.016757735	 0.2061843796	-0.197752
C	 1.1951249084	-0.7228973449	 0.1764215422	-0.045347
H	 0.633076361	 1.894486246	-0.8233906115	 0.143127
H	-1.0003882172	 1.9393285726	-0.1345988505	 0.150452
H	 0.4203613238	 1.9235268781	 0.9264683758	 0.143128
H	-2.1089807511	-3.8210797661	-0.1737071792	 0.202724
H	 0.193552753	-3.6818746442	 0.1038032983	 0.265903
H	 2.1397654632	-0.1998166304	 0.2825385342	 0.125503
80.2629	119.4029	173.6284	278.5378	280.9397	323.8188	486.3652	510.8607	517.1814	560.4635	568.8309	655.7732	677.0432	758.8398	794.4401	865.5498	893.9701	979.3536	1038.2795	1061.6399	1128.2731	1161.2658	1273.6276	1279.9732	1386.2308	1403.3904	1417.7282	1464.7687	1486.2416	1488.9618	1605.2037	1686.3277	1717.313	3037.226	3088.4457	3149.9899	3186.5634	3465.4716	3615.9489
CC1=C(F)C(=N)NN=C1	C[C@H]1C(=C([NH])NN=C1)F	
InChI=1S/C5H6FN3/c1-3-2-8-9-5(7)4(3)6/h2H,1H3,(H2,7,9)	InChI=1S/C5H7FN3/c1-3-2-8-9-5(7)4(3)6/h2-3,7,9H,1H3/t3-/m1/s1
