19
gdb 35764	2.98633	1.45622	1.29505	4.916	77.87	-0.2399	0.0247	0.2646	1043.1451	0.163262	-382.067368	-382.059925	-382.058981	-382.099251	29.739	
N	-0.0754288856	-1.1521437679	-0.4458497286	-0.334255
C	-0.0569558101	-0.0219252434	-0.2055378643	 0.30989
C	-0.0066370776	 1.4275163779	 0.0852021505	-0.157819
N	-0.6703413711	 1.72759384	 1.3621625255	-0.285076
C	 0.2347817238	 1.8927961286	 2.5138414401	-0.174868
C	 1.6435115608	 2.3570153211	 2.0999360872	-0.007614
C	 1.5453237186	 3.2601735042	 0.8364601827	-0.246005
C	 1.4601185862	 1.9308970068	 0.0347313362	-0.009066
C	 2.2706080635	 1.2724758535	 1.182011465	-0.227946
H	-0.5792726773	 1.9215232956	-0.7084742511	 0.121869
H	-1.226909989	 2.5613555293	 1.2439489227	 0.231817
H	-0.2310406585	 2.6132180236	 3.1941416679	 0.104078
H	 0.3159164432	 0.9439867892	 3.0612175849	 0.116029
H	 2.2175331815	 2.7065209825	 2.9610674674	 0.067658
H	 0.7154920798	 3.9699079446	 0.7609648878	 0.084057
H	 2.4835646787	 3.7820736044	 0.6359130729	 0.107396
H	 1.8517315105	 1.8841940687	-0.9833127314	 0.081049
H	 3.3452079928	 1.4143262072	 1.0449344057	 0.101562
H	 2.0705182397	 0.2221906039	 1.4131036689	 0.117243
91.1725	146.8546	246.3205	307.0053	394.3543	410.4007	440.4105	556.3877	573.8784	625.7402	687.0203	799.8026	820.5744	831.7053	870.7777	911.0933	924.9539	947.1081	962.8406	992.6991	1056.3189	1070.1402	1088.383	1104.4861	1121.4319	1146.1874	1193.3956	1242.7341	1245.5441	1262.814	1288.4172	1313.5566	1329.7392	1335.4437	1362.7833	1397.8411	1483.3375	1491.7146	1500.8814	1513.788	2354.3706	3014.207	3042.225	3050.381	3055.7033	3069.7163	3083.3907	3089.4571	3111.3615	3114.1166	3588.7196
N#CC1NCC2CC1C2	N#C[C@H]1NC[C@@H]2C[C@H]1C2	
InChI=1S/C7H10N2/c8-3-7-6-1-5(2-6)4-9-7/h5-7,9H,1-2,4H2	InChI=1S/C7H10N2/c8-3-7-6-1-5(2-6)4-9-7/h5-7,9H,1-2,4H2/t5-,6+,7-/m1/s1
