20
gdb 106839	2.91942	1.08394	0.91297	0.7472	75.63	-0.2373	0.0571	0.2943	1323.4764	0.170477	-440.227944	-440.218504	-440.21756	-440.26241	35.062	
O	 0.0183962387	 1.3266520288	 0.3750985626	-0.410932
C	 0.063309452	-0.0259363059	-0.0584036624	-0.177371
C	-1.3034943677	-0.6159205603	-0.2139958551	 0.250543
C	-2.3590032171	-0.2474967092	-1.2656124196	-0.259296
C	-2.9038131727	-1.7148482987	-1.1790031239	-0.259289
C	-1.8233385355	-2.0156235502	-0.1312012201	 0.25054
C	-1.1648322721	-3.3327408922	 0.1371666274	-0.177371
O	-2.0625061191	-4.2760993634	 0.7061069063	-0.410923
N	-2.081773902	-1.0547286022	 0.9858029926	-0.4244
H	-0.5572934615	 1.3641356302	 1.1466197016	 0.289156
H	 0.581926802	-0.0079336174	-1.0232454544	 0.115681
H	 0.6648478713	-0.6498388335	 0.6244060779	 0.081821
H	-3.0462313788	 0.5492766002	-0.9746982464	 0.109882
H	-1.9220696744	-0.0156688937	-2.2395629113	 0.105364
H	-3.9322801567	-1.8370313221	-0.8339287925	 0.109872
H	-2.7606009668	-2.2743057854	-2.1062239045	 0.105381
H	-0.8201782741	-3.7836231795	-0.799916339	 0.115683
H	-0.2765419394	-3.1841964763	 0.77450906	 0.08182
H	-2.4937322708	-3.8499392102	 1.4547720777	 0.289154
H	-1.3904439453	-1.2685900792	 1.7096890431	 0.214687
73.4988	106.0935	109.6816	170.0749	258.2333	274.7769	299.0966	346.84	369.4118	378.9635	495.0149	524.9588	677.6273	694.5155	765.1399	781.9724	898.6076	910.2828	942.2258	950.8178	999.729	1047.1296	1057.1709	1067.4708	1111.6348	1112.8438	1138.0482	1195.7395	1206.0481	1233.9663	1234.597	1242.6227	1329.4584	1347.14	1361.387	1371.3166	1416.8478	1426.3473	1460.4242	1467.5859	1496.7217	1501.1567	1502.6886	2953.5786	2963.6638	3064.3447	3065.9311	3067.4756	3074.6917	3118.6841	3135.2261	3415.8575	3807.5526	3807.9907
OCC12CCC1(CO)N2	OC[C@@]12CC[C@]1(CO)N2	
InChI=1S/C6H11NO2/c8-3-5-1-2-6(5,4-9)7-5/h7-9H,1-4H2	InChI=1S/C6H11NO2/c8-3-5-1-2-6(5,4-9)7-5/h7-9H,1-4H2/t5-,6+
