21
gdb 82518	3.14669	1.40006	1.31903	1.2058	81.63	-0.23	0.0795	0.3095	1098.3444	0.18287	-387.059445	-387.051154	-387.050209	-387.091723	33.375	
C	-0.0288876415	 1.5887032199	-0.0562540765	-0.428015
C	 0.0467423639	 0.0779913599	 0.0493956902	-0.036482
C	 1.2973668638	-0.7173584747	-0.2295534322	 0.053192
O	 2.533329509	-0.0508818607	-0.1083707028	-0.302572
C	 2.949259931	 0.0051391941	 1.252337894	 0.432346
C	 4.3646233815	-0.4609018338	 1.4531846392	-0.456963
C	 2.3147752733	 1.0682810432	 2.1128984556	-0.357696
C	 1.7550119731	-0.3473003158	 2.1042643262	-0.114749
C	 0.6730630277	-0.7880486139	 1.1454214642	-0.100212
H	 0.9596715069	 2.0287238523	-0.2004984632	 0.140889
H	-0.6322744745	 1.8596721488	-0.9287392624	 0.112404
H	-0.4955245992	 2.0499126018	 0.8200298965	 0.119857
H	-0.8413668463	-0.4144639052	-0.3432526841	 0.085244
H	 1.3135746919	-1.5236089862	-0.9575587479	 0.088688
H	 5.0636659426	 0.1731842029	 0.8972900702	 0.127576
H	 4.6379776571	-0.4163562063	 2.5114276064	 0.114777
H	 4.490129255	-1.4910743785	 1.1039110211	 0.120329
H	 2.8637303095	 1.3523779335	 3.0058936995	 0.106773
H	 1.7627701289	 1.8768926542	 1.6596227634	 0.120108
H	 1.8667420931	-0.9404674116	 3.0049945446	 0.087324
H	 0.0983696332	-1.6541646138	 1.453037808	 0.087182
132.4774	162.0487	203.7249	218.8823	284.8038	309.4958	375.1517	416.646	525.992	582.6982	656.9405	684.4602	720.5911	749.5441	780.6186	837.8398	856.7889	909.3136	924.701	956.742	997.5249	1010.891	1039.6112	1043.6191	1065.8218	1074.3155	1099.1449	1128.9148	1133.4875	1141.3995	1148.1055	1227.6376	1241.5902	1282.1772	1343.1506	1359.6352	1385.1272	1414.2782	1421.0321	1431.3263	1477.9462	1483.7241	1499.8361	1502.502	1520.5714	3032.8089	3037.9485	3092.3629	3097.214	3112.503	3113.0806	3130.5798	3141.3341	3141.9526	3163.7199	3177.7688	3266.3384
CC1C2OC3(C)CC3C12	C[C@H]1[C@H]2O[C@@]3(C)C[C@H]3[C@@H]12	
InChI=1S/C8H12O/c1-4-6-5-3-8(5,2)9-7(4)6/h4-7H,3H2,1-2H3	InChI=1S/C8H12O/c1-4-6-5-3-8(5,2)9-7(4)6/h4-7H,3H2,1-2H3/t4-,5+,6-,7-,8+/m1/s1
