19
gdb 77293	3.14271	0.91501	0.78095	1.376	76.97	-0.2484	-0.0316	0.2168	1454.0841	0.156268	-423.045767	-423.036118	-423.035174	-423.081577	34.05	
C	-0.5320552296	 1.4251194603	 0.1241258311	-0.413785
C	 0.002839679	 0.0007079572	 0.0836814857	-0.101428
C	 0.5494358187	-0.6674000763	-1.2352456698	-0.040759
C	 0.9335572931	 0.3173693924	-2.3485614268	-0.288409
C	 1.5237843426	-0.3908830389	-3.5489750796	 0.160004
O	 1.0812165586	-0.3253505719	-4.6666178939	-0.234803
C	 1.7633338226	-1.2433414866	-0.4305521116	-0.360311
C	 1.3716775283	-0.2967658294	 0.715996593	 0.392781
O	 1.9502310961	 0.1405892182	 1.6675800071	-0.292655
H	 0.1694688244	 2.1349504722	-0.3231046498	 0.125943
H	-1.4866914081	 1.509294748	-0.4041856118	 0.124857
H	-0.6907393933	 1.7302875154	 1.162440516	 0.139059
H	-0.7264310219	-0.6831425181	 0.5385518974	 0.110013
H	-0.1201705251	-1.4296032525	-1.6399805183	 0.089869
H	 0.06806588	 0.8929353165	-2.6881893637	 0.126918
H	 1.6875918043	 1.0246612496	-1.9722648938	 0.121474
H	 2.4242722377	-1.0099900193	-3.3295660855	 0.076079
H	 1.6429058297	-2.2945635371	-0.1513304617	 0.136021
H	 2.7678914528	-1.1070915398	-0.8395554241	 0.129132
44.6035	64.8476	88.7959	160.2994	182.1567	195.6296	254.4944	365.7143	403.2922	465.6248	524.5613	538.399	691.2737	732.6464	779.8946	832.4315	869.4179	886.9828	982.0854	1006.6813	1024.6448	1046.6862	1097.5451	1113.0104	1142.0573	1160.7616	1199.3262	1222.9987	1245.1949	1275.8064	1301.4761	1335.7925	1373.639	1407.3992	1432.8808	1441.0152	1463.9953	1493.4675	1496.1869	1834.5014	1890.6645	2864.6038	3007.8667	3023.4171	3042.8167	3060.101	3080.2607	3100.6723	3112.4994	3115.0884	3117.5267
CC1C(CC=O)CC1=O	C[C@H]1[C@@H](CC=O)CC1=O	
InChI=1S/C7H10O2/c1-5-6(2-3-8)4-7(5)9/h3,5-6H,2,4H2,1H3	InChI=1S/C7H10O2/c1-5-6(2-3-8)4-7(5)9/h3,5-6H,2,4H2,1H3/t5-,6-/m0/s1
