17
gdb 44437	3.09358	1.83265	1.62224	2.8406	72.28	-0.2204	0.0281	0.2485	880.4323	0.140856	-418.010367	-418.004143	-418.003199	-418.040782	26.171	
N	-0.0562056126	 1.2863148511	-0.2523750223	-0.547973
C	-0.0185132282	 0.0483203809	 0.008029831	 0.415361
O	 1.1432531709	-0.6160358747	 0.3045471687	-0.25152
C	 1.0199757933	-1.9925958762	 0.6089673252	 0.088914
C	-0.003035846	-2.8387445254	-0.1107988013	-0.117761
C	-1.0204945638	-2.0280638698	-0.8957345747	-0.219404
C	-1.2395092713	-0.8362144853	 0.0597670507	-0.121825
N	-1.3019006529	-1.5034397605	 1.3822050905	-0.293436
C	-0.2139762478	-2.4623500248	 1.3448121814	-0.058014
H	 0.883161752	 1.6883740628	-0.2091996152	 0.217316
H	 1.9954245343	-2.4048583253	 0.8349198374	 0.111453
H	 0.2555787729	-3.8453215399	-0.415498894	 0.09702
H	-0.6701670265	-1.7052235582	-1.8795168264	 0.121708
H	-1.9494046169	-2.5923898902	-1.0177085808	 0.1184
H	-2.132433927	-0.2462475098	-0.1409519899	 0.106305
H	-1.1777346215	-0.8246976292	 2.1297013032	 0.232317
H	-0.1551872789	-3.1671922456	 2.1657109365	 0.10114
134.5238	293.8622	365.8807	416.9764	503.3179	527.465	643.2375	666.7474	756.0229	771.1486	782.9338	797.932	857.5135	871.2559	899.08	929.71	953.1875	989.5877	1017.0173	1046.8735	1070.1641	1073.4098	1084.4362	1108.1245	1132.2226	1182.7374	1205.1623	1225.3116	1289.2787	1293.5585	1317.3691	1337.4537	1378.7366	1401.9561	1438.8588	1489.5829	1757.888	3060.8045	3109.8702	3134.6648	3179.2915	3185.6526	3197.1356	3456.0574	3494.8277
N=C1OC2C3CC1NC23	[NH][C]1O[C@@H]2[C@@H]3C[C@H]1N[C@H]23	
InChI=1S/C6H8N2O/c7-6-3-1-2-4(8-3)5(2)9-6/h2-5,7-8H,1H2	InChI=1S/C6H8N2O/c7-6-3-1-2-4(8-3)5(2)9-6/h2-5,7-8H,1H2/t2-,3-,4+,5-/m1/s1
