19
gdb 89542	4.45947	1.07062	1.04143	1.4724	75.81	-0.2141	0.062	0.2761	1227.1567	0.158386	-422.95763	-422.949489	-422.948545	-422.990734	31.188	
C	-0.6359504199	 1.3342935197	 0.176498479	-0.395662
C	 0.0946777008	 0.0254430381	-0.0374314094	 0.148955
C	 0.9165815734	-0.1452387624	-1.3402030512	-0.384501
C	 2.098245254	-0.2464330364	-0.3888832334	 0.461341
O	 1.3024357796	-0.0691134583	 0.7782809808	-0.33967
C	 3.2796879058	-1.1796483441	-0.3014201823	-0.230768
C	 3.9610305957	-1.2390756844	-1.6606900448	-0.08641
O	 4.0105328369	 0.2139595711	-1.7526658553	-0.285763
C	 3.4681778729	 0.3327761071	-0.4348025556	-0.003645
H	 0.0127043664	 2.1842028656	-0.0567459445	 0.123648
H	-1.5222580224	 1.3849763094	-0.4657236414	 0.117381
H	-0.9621254883	 1.4247939973	 1.2172774227	 0.128084
H	-0.5637914015	-0.8242593834	 0.1809613358	 0.08089
H	 0.6951490473	-1.0407563476	-1.9237693064	 0.110585
H	 0.9298537066	 0.7263996458	-1.9974068276	 0.120438
H	 3.4289218405	-1.8420459304	 0.5406672527	 0.108292
H	 4.9749543462	-1.6545588543	-1.6313076781	 0.112328
H	 3.4038121273	-1.6881340565	-2.4922207519	 0.104876
H	 3.8572442388	 1.0959640436	 0.230208141	 0.109601
48.5343	142.2111	180.3114	238.5783	290.4791	343.2151	384.5911	433.8759	496.4763	584.8793	747.0373	768.2485	819.3736	892.3733	898.0587	912.0878	926.0851	941.0051	953.0348	1002.5757	1009.3776	1057.4204	1071.9053	1086.3981	1106.8545	1134.9829	1153.2519	1161.6139	1197.5519	1226.5054	1227.5299	1260.9199	1319.4189	1336.6867	1379.8903	1407.1684	1451.5353	1482.4842	1492.5843	1495.0291	1517.3424	3017.5859	3025.17	3033.5783	3064.3492	3073.718	3105.5106	3114.4529	3128.0508	3174.8992	3206.4569
CC1CC2(O1)C1COC21	C[C@H]1C[C@@]2(O1)[C@H]1CO[C@@H]21	
InChI=1S/C7H10O2/c1-4-2-7(9-4)5-3-8-6(5)7/h4-6H,2-3H2,1H3	InChI=1S/C7H10O2/c1-4-2-7(9-4)5-3-8-6(5)7/h4-6H,2-3H2,1H3/t4-,5-,6+,7+/m0/s1
