21
gdb 97716	4.69418	0.68955	0.6658	0.1951	96.28	-0.2167	0.0446	0.2613	1812.6805	0.182243	-349.910489	-349.901032	-349.900088	-349.946464	34.882	
C	 0.057035192	 1.5457465952	 0.1687576773	-0.361792
C	-0.0000945414	 0.0318000653	-0.1081732273	-0.32526
C	-1.3557853809	-0.5067234954	-0.0843713721	 0.245282
C	-2.4841568352	-0.9346265128	-0.0532264702	-0.21646
C	-3.8196670826	-1.4274687908	-0.0524553162	 0.239645
C	-4.5226154939	-1.9080658924	 1.1999479719	-0.315989
C	-4.3502972103	-2.8795325649	 0.0743463365	-0.097336
C	-5.3885742882	-2.6151988546	-1.0189969943	-0.221284
C	-4.8740581285	-1.1447678993	-1.142778351	-0.293101
H	 1.0915828034	 1.9014280286	 0.1402631454	 0.111178
H	-0.5182228539	 2.0985378016	-0.5789712245	 0.126458
H	-0.3612292853	 1.7763167361	 1.1522892155	 0.126724
H	 0.4633334105	-0.1783663148	-1.0812408158	 0.124886
H	 0.6121325683	-0.4974029522	 0.6339283449	 0.12644
H	-3.8716967549	-2.0571632986	 2.0543682197	 0.120538
H	-5.5089763509	-1.5180181933	 1.4452541342	 0.10444
H	-3.7695650276	-3.7864943079	 0.1903831938	 0.094589
H	-5.2092572084	-3.190180787	-1.9296797957	 0.105601
H	-6.433898203	-2.7501922486	-0.7218522254	 0.096956
H	-5.585022778	-0.3451781175	-0.9114515988	 0.09551
H	-4.4219140213	-0.9434156967	-2.1152037079	 0.112976
17.0605	80.6128	93.7695	168.9336	213.5133	265.3932	325.6869	385.8196	451.1359	460.3199	519.8832	569.556	704.8091	784.8316	785.3064	815.8061	825.1566	897.5097	932.3501	950.2342	966.678	1009.6547	1023.8759	1063.3693	1084.9206	1089.1585	1102.5389	1103.7649	1149.6935	1207.8906	1222.8132	1243.1909	1281.5375	1286.3645	1304.7858	1347.2673	1399.7733	1408.3749	1474.6679	1481.7475	1482.1977	1494.1274	1505.1088	1508.3494	2351.6589	3014.2274	3040.5853	3042.5847	3044.527	3053.3217	3100.2542	3102.5443	3115.2727	3122.934	3123.6704	3186.1022	3208.4211
CCC#CC12CC1CC2	CCC#C[C@]12C[C@H]1CC2	
InChI=1S/C9H12/c1-2-3-5-9-6-4-8(9)7-9/h8H,2,4,6-7H2,1H3	InChI=1S/C9H12/c1-2-3-5-9-6-4-8(9)7-9/h8H,2,4,6-7H2,1H3/t8-,9+/m1/s1
