23
gdb 115307	2.34033	1.30836	0.99239	2.5378	85.42	-0.2309	-0.0141	0.2168	1325.8139	0.205631	-388.340777	-388.331001	-388.330057	-388.375659	36.599	
C	 0.1202890291	 1.5650077698	-0.0260904627	-0.387196
C	 0.0334128272	 0.0377268005	 0.0262602592	-0.176162
C	-1.4144962662	-0.5121962582	 0.0145252583	-0.091564
C	-1.4781513417	-2.0506202567	-0.0981677021	-0.242677
C	-1.51752582	-2.5557411683	 1.3599359879	-0.225852
C	-2.4092701432	-1.5336367168	 2.0817697505	-0.062274
C	-2.2780938279	-1.4276329784	 3.5984001768	-0.405604
C	-2.1174350872	-0.2143043287	 1.3500794469	 0.401298
O	-2.3873963585	 0.8820254013	 1.7775595714	-0.332701
H	 1.1639344596	 1.8940574458	-0.0010512825	 0.106895
H	-0.3294524474	 1.948375542	-0.9488136408	 0.11157
H	-0.4092863983	 2.0206985978	 0.8131609803	 0.149479
H	 0.5569519113	-0.3921230464	-0.8366859194	 0.09781
H	 0.5603612251	-0.3347382776	 0.914615969	 0.097955
H	-1.9597722366	-0.0117096198	-0.7932764136	 0.091313
H	-2.3975277795	-2.3511364716	-0.6139313575	 0.098887
H	-0.6402480221	-2.4641121948	-0.6666434677	 0.098207
H	-1.8871609333	-3.5812105109	 1.4428431106	 0.100188
H	-0.5107843592	-2.5393863266	 1.7960927364	 0.103438
H	-3.4589402881	-1.7587004177	 1.8304341959	 0.101385
H	-1.2339067053	-1.269688746	 3.8893959914	 0.115966
H	-2.859051434	-0.5784903819	 3.9677994834	 0.13767
H	-2.6319173737	-2.3368602669	 4.0933862483	 0.111971
46.9014	98.52	155.9794	188.0196	197.175	249.5848	257.6968	296.0392	366.2724	386.4827	491.7807	546.4356	631.7755	644.6453	746.2872	803.4267	830.4001	868.7627	905.721	950.8105	959.5691	1008.8694	1019.6803	1040.0594	1053.3661	1082.4937	1118.0467	1156.427	1176.298	1186.5988	1222.3057	1258.5209	1281.7912	1304.8974	1312.0895	1333.1658	1346.8845	1358.1155	1369.3408	1406.9188	1414.631	1488.9761	1491.454	1495.5203	1495.9871	1498.0415	1504.4974	1511.3889	1824.0075	2977.26	3016.5506	3031.4896	3035.7903	3036.3205	3038.238	3045.1446	3058.3013	3086.2041	3094.256	3099.0222	3103.506	3122.1047	3134.5841
CCC1CCC(C)C1=O	CC[C@H]1CC[C@@H](C)C1=O	
InChI=1S/C8H14O/c1-3-7-5-4-6(2)8(7)9/h6-7H,3-5H2,1-2H3	InChI=1S/C8H14O/c1-3-7-5-4-6(2)8(7)9/h6-7H,3-5H2,1-2H3/t6-,7+/m1/s1
