18
gdb 125083	2.82327	1.40778	0.99549	1.7017	78.2	-0.2336	0.0144	0.248	1180.6208	0.150035	-398.12478	-398.116301	-398.115357	-398.159324	30.746	
C	 0.3364064807	 1.4880224249	-0.0185378719	-0.513575
C	 0.1166000411	 0.0051744422	-0.0290252919	 0.106759
C	-0.0302335374	-0.8384626995	-1.1211584984	 0.270793
N	-0.2237923224	-2.0862746097	-0.6034213896	-0.251138
N	-0.2085475347	-2.1207240688	 0.7387070335	-0.225861
C	-0.0018250272	-0.8549645974	 1.0885565191	-0.069041
C	-0.0442109292	-0.6114828693	-2.5826928148	-0.129701
C	 0.9587249969	 0.2737426141	-3.2284672887	-0.229478
N	 1.0326578681	-1.1797424836	-3.4351685215	-0.317487
H	 1.3891004199	 1.7490301179	 0.1468092869	 0.127574
H	 0.0292703726	 1.9452252867	-0.9624336167	 0.128965
H	-0.2391711138	 1.9633083108	 0.7820803082	 0.130141
H	-0.3711784617	-2.9397826661	-1.1164879363	 0.274396
H	 0.0521109009	-0.591582158	 2.1357148514	 0.107694
H	-1.0207357378	-0.688665749	-3.0584107921	 0.109529
H	 0.6770999955	 0.8477957867	-4.1062114027	 0.123757
H	 1.7027851822	 0.7454983707	-2.5943220585	 0.122351
H	 1.7595056163	-1.5601359625	-2.8320834959	 0.234323
24.2263	85.1337	150.5939	163.6454	259.4499	300.6252	386.504	470.6313	521.6065	619.6515	679.2291	697.0643	736.0918	838.5866	875.1616	881.6108	955.4754	960.4744	999.2306	1007.8254	1064.1897	1106.4933	1136.8482	1147.8812	1174.2334	1215.1083	1231.167	1251.8688	1286.2903	1302.8091	1375.6855	1399.2625	1419.0088	1455.1159	1489.1207	1494.9669	1506.6092	1514.018	1626.0298	3026.0722	3081.4663	3111.5416	3115.8978	3120.4067	3206.5386	3235.2028	3488.1994	3662.8656
CC1=C(NN=C1)C1CN1	Cc1c([nH]nc1)[C@H]1CN1	
InChI=1S/C6H9N3/c1-4-2-8-9-6(4)5-3-7-5/h2,5,7H,3H2,1H3,(H,8,9)	InChI=1S/C6H9N3/c1-4-2-8-9-6(4)5-3-7-5/h2,5,7H,3H2,1H3,(H,8,9)/t5-/m1/s1
