19
gdb 97125	2.53799	1.38143	1.02627	0.7058	78.42	-0.2326	0.021	0.2536	1214.0392	0.159045	-419.161856	-419.152842	-419.151898	-419.196424	32.153	
C	-0.9047863347	 0.5643586648	-0.0705088547	-0.342785
N	-0.582883663	-0.7407471887	-0.6353335943	-0.332034
C	 0.5296171911	-0.9137212643	-1.1823829715	 0.446625
O	 1.5908733584	-0.041145335	-1.3653876622	-0.268401
C	 2.4147457961	-1.0949793165	-1.9530855598	-0.095202
C	 1.2380189633	-2.0919397825	-1.8539704104	-0.1221
N	 1.4999688485	-3.3344436874	-1.1628037261	-0.090197
C	 1.4956151943	-3.3456184232	 0.3003463186	-0.231953
C	 0.3816770935	-3.9705637891	-0.4654934716	-0.220094
H	-0.0668809661	 1.2707722414	-0.0739909119	 0.128805
H	-1.7349205752	 1.0041453003	-0.6346934239	 0.130675
H	-1.2534873825	 0.4314442024	 0.9589034873	 0.127087
H	 2.7519150909	-0.8192645512	-2.9543674575	 0.122315
H	 3.2649370053	-1.3351590369	-1.3101618407	 0.125951
H	 0.793826279	-2.330839065	-2.8249040548	 0.112978
H	 2.2655524258	-3.9613574005	 0.7556568471	 0.116808
H	 1.2677854949	-2.4236398722	 0.8294658362	 0.127046
H	-0.5685985371	-3.4436211852	-0.4507660382	 0.148294
H	 0.3244431575	-5.0501834911	-0.5718895514	 0.116181
73.1197	80.1666	111.4552	131.8666	195.9439	241.0251	280.4647	369.6785	467.9884	542.4215	660.8944	734.2175	766.3618	820.7167	885.8847	914.1357	943.1939	969.1545	1030.3222	1046.7865	1088.5244	1100.0555	1110.0922	1126.9783	1132.5751	1137.3427	1159.0256	1179.4175	1184.154	1197.3442	1242.7627	1327.6075	1331.7524	1373.6145	1438.5416	1482.9004	1493.4088	1497.383	1511.195	1515.9186	1832.7342	3019.3902	3066.3897	3069.4241	3084.1498	3092.273	3108.8886	3111.5703	3130.2478	3193.2872	3207.8771
CN=C1OCC1N1CC1	CN=C1OC[C@H]1N1CC1	
InChI=1S/C6H10N2O/c1-7-6-5(4-9-6)8-2-3-8/h5H,2-4H2,1H3	InChI=1S/C6H10N2O/c1-7-6-5(4-9-6)8-2-3-8/h5H,2-4H2,1H3/t5-/m1/s1
