14
gdb 129413	5.10069	1.03571	0.88093	5.1755	67.21	-0.2426	-0.0099	0.2327	1237.4715	0.103074	-466.191303	-466.183498	-466.182554	-466.224631	28.417	
N	 1.1043318982	-0.8016747903	-0.0078065236	-0.563557
C	 0.0672181617	 0.1268521871	 0.0996427173	 0.398946
N	 0.1312498032	 1.366893757	 0.3600120543	-0.490686
N	-1.1695304662	-0.5227694552	-0.049619144	-0.435231
C	-2.406561761	 0.0422369883	-0.1591403823	 0.572542
N	-3.5257787466	-0.6125201147	 0.0217545532	-0.377224
C	-4.4426097993	 0.3577629363	-0.2784048786	 0.050953
N	-3.9594958964	 1.520476126	-0.6151581155	-0.125116
O	-2.558712338	 1.3075730614	-0.5362622885	-0.180556
H	 2.0245503334	-0.3871906172	 0.000699025	 0.256506
H	 1.0009400276	-1.4807165525	-0.7503960105	 0.256564
H	 1.0935675257	 1.6982916082	 0.3595604707	 0.215804
H	-1.2070462668	-1.4953928559	 0.2164904065	 0.276848
H	-5.5100789956	 0.1930289913	-0.2410160042	 0.144207
47.4283	79.5771	159.9925	299.2329	359.7185	387.0708	391.6636	537.8466	595.3866	610.8321	639.4372	700.4007	767.826	816.0678	824.8054	892.7282	933.6347	976.3229	988.3974	1052.6808	1102.046	1124.4091	1206.2087	1280.1431	1326.3675	1409.4316	1497.7734	1568.3187	1636.1601	1656.6952	1760.2047	3256.302	3512.3572	3553.6791	3629.7751	3663.1992
NC(=N)NC1=NC=NO1	NC(=N)Nc1ncno1	
InChI=1S/C3H5N5O/c4-2(5)8-3-6-1-7-9-3/h1H,(H4,4,5,6,7,8)	InChI=1S/C3H5N5O/c4-2(5)8-3-6-1-7-9-3/h1H,(H4,4,5,6,7,8)
