18
gdb 92934	2.2402	1.55523	1.3177	4.1144	76.94	-0.2716	-0.0115	0.2601	1062.1398	0.147522	-401.973654	-401.964943	-401.963999	-402.006711	33.17	
C	-0.107092961	 1.5660496757	 0.0246831443	-0.423904
C	 0.0509286948	 0.0358142185	 0.0006219356	 0.034939
C	 0.9312966196	-0.4883470578	-1.1322955103	-0.099479
C	 1.7147330696	-1.4870402931	-0.7290519543	-0.079748
C	 1.4995822553	-1.817862407	 0.7293247811	-0.295801
C	 0.7966077332	-0.5510886487	 1.2686676518	 0.103636
O	 1.7224889688	 0.3725433477	 1.8004437678	-0.426547
C	-1.2789157841	-0.586735952	-0.0979531651	 0.271772
N	-2.3214899159	-1.0834713368	-0.1636671314	-0.346534
H	 0.8709491479	 2.0434700667	 0.0998385309	 0.122586
H	-0.6004319779	 1.9101354242	-0.8884225119	 0.130454
H	-0.7079295448	 1.8829554335	 0.8806445068	 0.140475
H	 0.860950873	-0.0885617059	-2.1368554725	 0.112364
H	 2.4023731541	-2.0334196953	-1.3645397977	 0.110032
H	 0.8634302445	-2.7062421518	 0.835600184	 0.135942
H	 2.419777248	-2.0136904791	 1.2888844053	 0.117086
H	 0.0922605059	-0.7582607429	 2.0762106238	 0.107918
H	 2.437658579	 0.4773579638	 1.1616152118	 0.284809
89.8288	144.883	173.5006	207.2968	269.2988	288.3415	380.5374	402.1491	431.4999	473.7282	536.9655	563.4814	623.58	737.4875	781.8741	818.2757	874.5379	900.3023	936.262	957.4723	977.0813	1010.4541	1081.8293	1103.525	1145.4857	1171.2449	1177.3263	1190.5212	1264.5529	1301.1626	1313.6707	1369.9612	1412.1839	1433.7688	1476.1611	1483.9247	1492.3893	1674.9559	2342.7656	3029.7444	3054.6395	3080.5163	3105.5119	3126.8582	3144.7542	3192.4895	3217.1326	3788.8421
CC1(C=CCC1O)C#N	C[C@]1(C=CC[C@H]1O)C#N	
InChI=1S/C7H9NO/c1-7(5-8)4-2-3-6(7)9/h2,4,6,9H,3H2,1H3	InChI=1S/C7H9NO/c1-7(5-8)4-2-3-6(7)9/h2,4,6,9H,3H2,1H3/t6-,7+/m1/s1
