16
gdb 16451	4.21179	1.93867	1.74318	0.9586	63.25	-0.2379	0.067	0.305	788.6932	0.130833	-383.667685	-383.661118	-383.660174	-383.697995	26.363	
O	-0.0616674301	 1.4284608112	 0.0663643509	-0.461847
C	-0.0145777503	 0.0473452563	 0.0409492289	 0.382168
C	-0.2733010244	-0.7699794356	-1.1844478787	-0.356606
C	-1.184324572	-0.9427832059	 0.0163922595	-0.130314
C	-0.5278872364	-1.7808960554	 1.1358842495	-0.062339
C	 0.5244393629	-2.8484895914	 0.764729607	-0.1084
O	 1.5757374927	-1.8474163811	 0.6996630526	-0.298967
C	 0.6653048557	-0.808781646	 1.1396147383	 0.035032
H	 0.6217735547	 1.7669367039	-0.5229556289	 0.288481
H	-0.7349894761	-0.2072385529	-1.9900844995	 0.113922
H	 0.4199999185	-1.540244998	-1.5051601894	 0.128758
H	-2.2466655619	-0.7496472163	-0.0655180228	 0.09706
H	-1.1426870025	-1.9485504578	 2.018336901	 0.082995
H	 0.724686581	-3.5740607322	 1.5621574018	 0.10334
H	 0.3943438447	-3.3819724955	-0.1839067494	 0.10342
H	 1.0145694536	-0.2575986133	 2.0162282692	 0.083297
172.9956	254.4498	283.0173	299.1878	382.0949	475.3778	514.389	625.0105	704.3824	807.8102	813.8825	852.9365	891.1556	908.9788	967.9365	970.8581	976.0111	986.8708	1017.3796	1051.3128	1079.2069	1106.7368	1157.3328	1181.0279	1197.001	1221.3233	1242.1593	1282.8712	1303.7053	1315.9096	1349.8833	1404.6647	1494.2839	1517.9842	3019.8168	3065.0046	3084.8686	3127.3025	3128.5164	3190.9578	3213.5706	3788.8758
OC12CC1C1COC21	O[C@]12C[C@H]1[C@H]1CO[C@@H]21	
InChI=1S/C6H8O2/c7-6-1-4(6)3-2-8-5(3)6/h3-5,7H,1-2H2	InChI=1S/C6H8O2/c7-6-1-4(6)3-2-8-5(3)6/h3-5,7H,1-2H2/t3-,4+,5-,6-/m1/s1
