20
gdb 108921	3.2596	1.09173	0.91978	1.9013	81.23	-0.2255	0.0173	0.2428	1326.6759	0.171076	-403.132542	-403.12372	-403.122776	-403.16588	33.964	
C	-0.0762841825	 1.5614883768	 0.0952740785	-0.494221
C	 0.0992579044	 0.070238988	-0.0200797799	 0.315926
N	-0.795721844	-0.8496297889	 0.7483701547	-0.372434
C	 0.6566384258	-0.8120848014	 1.0422235077	-0.094957
C	 1.4437955259	-1.9343924178	 0.3772260456	-0.315403
C	 1.2375165321	-1.6685724353	-1.1072364216	 0.264408
C	 1.7603039026	-2.6064605678	-2.1532130993	-0.157067
O	 1.3273568678	-2.3083382151	-3.467533971	-0.408796
C	 0.5253940684	-0.5560210117	-1.3126918137	-0.221053
H	 0.8139984519	 2.0917677642	-0.2595121643	 0.127726
H	-0.9279850526	 1.9064491361	-0.5027114576	 0.125081
H	-0.2545336492	 1.8593840389	 1.1339316893	 0.112795
H	-1.272164325	-0.304413109	 1.4669627861	 0.21878
H	 0.9811133714	-0.4173080316	 1.9996434614	 0.083247
H	 2.5074911711	-1.8984295373	 0.6496696939	 0.10441
H	 1.0711645281	-2.9233630376	 0.6713982534	 0.116829
H	 2.8577565638	-2.5624580381	-2.1833774765	 0.121137
H	 1.5088139253	-3.643761006	-1.8699156645	 0.095924
H	 0.3642891841	-2.3297180485	-3.4589169042	 0.283678
H	 0.2613235206	-0.1544965278	-2.283708618	 0.09399
86.8603	150.4379	168.7295	199.6629	240.1532	331.1493	339.6224	399.9914	405.6738	466.3422	510.9909	586.7151	675.5067	743.2609	805.4539	859.8512	900.2449	908.3878	929.1846	952.6041	972.0994	1020.1295	1059.1232	1061.9673	1069.8412	1122.3504	1151.5163	1152.2693	1185.7748	1220.1909	1240.4058	1305.0849	1329.8887	1358.2579	1386.2173	1412.6046	1422.0002	1432.894	1465.3201	1484.7763	1490.5735	1500.2309	1702.8345	2950.4946	3015.0337	3024.6814	3027.848	3053.9913	3086.9266	3098.3802	3159.7966	3204.0587	3458.2378	3806.9758
CC12NC1CC(CO)=C2	C[C@]12N[C@H]1CC(=C2)CO	
InChI=1S/C7H11NO/c1-7-3-5(4-9)2-6(7)8-7/h3,6,8-9H,2,4H2,1H3	InChI=1S/C7H11NO/c1-7-3-5(4-9)2-6(7)8-7/h3,6,8-9H,2,4H2,1H3/t6-,7+/m0/s1
