23
gdb 83275	2.59461	1.2501	1.12944	1.4529	84.66	-0.2522	0.0711	0.3233	1232.0573	0.207664	-388.293968	-388.284976	-388.284032	-388.327264	35.449	
C	-0.3998116004	 1.4470384176	-0.1577672109	-0.418428
C	-0.0322657087	-0.0159347363	-0.0412979731	-0.006948
C	 1.3381252256	-0.5850386351	-0.3278134507	-0.035506
C	 2.5762682257	 0.2373996339	-0.6696305737	-0.233056
C	 3.0447632641	 1.2066459231	 0.4330106523	-0.233344
C	 2.9168334423	 0.5918716627	 1.8291353054	 0.146557
O	 3.3803654025	 1.4749001687	 2.843864836	-0.442647
C	 1.4536843667	 0.2817912775	 2.1502962986	-0.219925
C	 0.7946630104	-0.5984980158	 1.0915512049	-0.071719
H	-0.6043998316	 1.7130618017	-1.2010173639	 0.114911
H	-1.3057030969	 1.6651663945	 0.4196197213	 0.116858
H	 0.3820595535	 2.1190029255	 0.2009528639	 0.122601
H	-0.8428333647	-0.666169042	-0.3638566481	 0.077828
H	 1.3231659213	-1.5421225934	-0.8426145435	 0.077226
H	 3.3896327636	-0.4742041551	-0.8598330828	 0.099221
H	 2.4339194421	 0.7845514405	-1.6099358756	 0.097812
H	 4.0908424575	 1.4826298584	 0.2442977669	 0.078798
H	 2.4754706097	 2.1427983622	 0.4204049664	 0.108833
H	 3.490763498	-0.3511577397	 1.8541872431	 0.057632
H	 4.2909951937	 1.7103419013	 2.6394921146	 0.276269
H	 1.403650891	-0.2102818475	 3.125772957	 0.102506
H	 0.9325315385	 1.239592758	 2.2663404726	 0.105834
H	 0.4585155262	-1.5623098508	 1.4611438792	 0.078687
96.9613	131.8131	187.0856	208.7976	254.7034	282.0363	339.1077	403.0289	432.0861	450.5725	484.215	547.5715	670.8389	735.4395	753.6665	811.7863	843.0523	908.1753	939.9729	956.2808	963.0188	979.8431	1068.3811	1079.8991	1083.2382	1096.437	1118.3418	1130.0738	1145.6242	1155.421	1192.0997	1231.0168	1249.3299	1277.0201	1295.5189	1322.6603	1341.179	1366.3914	1379.7667	1382.5789	1403.3339	1420.0127	1435.0235	1449.7014	1483.2162	1486.7118	1501.687	1502.3546	1511.794	2943.5615	3012.2574	3022.9663	3031.5515	3038.4675	3043.2197	3069.4859	3082.5079	3083.9848	3112.3287	3128.0986	3133.8316	3149.3416	3813.5009
CC1C2CCC(O)CC12	C[C@H]1[C@H]2CC[C@@H](O)C[C@@H]12	
InChI=1S/C8H14O/c1-5-7-3-2-6(9)4-8(5)7/h5-9H,2-4H2,1H3	InChI=1S/C8H14O/c1-5-7-3-2-6(9)4-8(5)7/h5-9H,2-4H2,1H3/t5-,6+,7+,8-/m0/s1
