19
gdb 64062	2.42153	1.50556	1.17572	4.4635	75.38	-0.2282	-0.0866	0.1417	1122.1155	0.157529	-423.075112	-423.065969	-423.065025	-423.108856	34.237	
C	 0.1758756338	 1.4615505113	 0.0590672199	-0.421732
C	-0.0716236951	-0.063435485	-0.0262682631	 0.155912
C	-1.5732932803	-0.3579335562	-0.0127168868	-0.429515
C	 0.6767426845	-0.6782834158	-1.2416095017	-0.264821
C	 2.1327243055	-0.9206602749	-0.7871618661	-0.342544
C	 2.0310931761	-1.210193391	 0.7017083824	 0.322661
O	 2.8367319789	-1.7384553979	 1.4184266522	-0.276967
C	 0.6330285821	-0.7005191742	 1.1726736926	 0.298649
O	 0.2153433642	-0.8082638776	 2.2943954252	-0.298841
H	 1.2418349553	 1.7122003304	 0.0663775173	 0.120197
H	-0.2782214853	 1.9580176414	-0.804821185	 0.124595
H	-0.2700107774	 1.871165415	 0.9698470309	 0.139325
H	-2.0730983651	 0.136841791	-0.8519514761	 0.1146
H	-1.7675644559	-1.4325031359	-0.0873547381	 0.119667
H	-2.0217052522	-0.0016729026	 0.9187203676	 0.138153
H	 0.2126974916	-1.6350364802	-1.5055450313	 0.112137
H	 0.6137717305	-0.0362068075	-2.1241560964	 0.109453
H	 2.6434841929	-1.7292476983	-1.3146482205	 0.138068
H	 2.7473836259	-0.019979952	-0.9131987731	 0.141004
55.7206	149.5025	192.445	209.1226	238.7817	284.9906	321.9485	336.0973	345.6215	412.646	529.8867	556.2682	588.9189	674.3596	701.7232	791.0836	872.4048	925.9265	958.4331	971.4584	993.8542	996.619	1049.4973	1070.9399	1115.6912	1191.5599	1222.702	1244.0971	1276.4299	1299.7691	1343.7758	1394.8125	1417.4523	1448.9381	1480.76	1485.5574	1499.9636	1501.9821	1507.6148	1837.0303	1857.606	3030.8093	3035.4987	3037.7733	3045.6368	3093.0667	3099.6415	3104.4578	3111.2148	3115.1101	3120.0695
CC1(C)CCC(=O)C1=O	CC1(C)CCC(=O)C1=O	
InChI=1S/C7H10O2/c1-7(2)4-3-5(8)6(7)9/h3-4H2,1-2H3	InChI=1S/C7H10O2/c1-7(2)4-3-5(8)6(7)9/h3-4H2,1-2H3
