21
gdb 107396	3.19211	1.11717	0.94898	0.4882	78.38	-0.2379	0.0769	0.3148	1307.8536	0.182321	-424.215363	-424.206341	-424.205397	-424.24915	34.57	
C	 0.1976351413	 1.5779810646	 0.1443878066	-0.402276
C	 0.0801833694	 0.0677406452	 0.0523923943	 0.162602
C	 0.6064197665	-0.5716046538	-1.2517817359	-0.322309
C	 1.1334384609	-1.9326524786	-0.7866552081	 0.293457
C	 0.6590511314	-3.1820957627	-1.4816213246	-0.15845
O	 1.094478987	-3.2564529668	-2.8324192364	-0.414569
C	 2.5000188724	-1.9145540928	-0.1109181545	-0.36536
C	 1.2411075152	-1.8120080852	 0.7087640967	 0.049169
O	 0.8598914334	-0.5247586772	 1.1084095139	-0.277606
H	 1.238026394	 1.8898517827	 0.009238392	 0.119449
H	-0.4132749353	 2.0552103707	-0.6283477776	 0.116597
H	-0.144019102	 1.9334615456	 1.1204447836	 0.126872
H	-0.9721934932	-0.228959034	 0.193833435	 0.06869
H	-0.1840860526	-0.6849802056	-1.9985110539	 0.112655
H	 1.3942125599	 0.0450191912	-1.6987364608	 0.099818
H	 0.9757626406	-4.0692774788	-0.9093303671	 0.083068
H	-0.4360271583	-3.2001714257	-1.5295616806	 0.108623
H	 2.0535209845	-3.1655866812	-2.8273828226	 0.281983
H	 3.0529868373	-2.8492644386	-0.0675680428	 0.106536
H	 3.1096723948	-1.0212838425	-0.1957459021	 0.116294
H	 0.9556329129	-2.6071095266	 1.3920877449	 0.094757
79.9213	93.9704	149.3779	232.429	269.029	302.0055	338.0784	365.852	405.4591	449.9343	463.8792	593.2206	688.8355	755.8526	817.5114	868.2797	902.2203	916.6311	935.3167	962.997	970.088	1017.2386	1036.2194	1056.4671	1063.7405	1092.919	1118.8634	1146.1242	1158.7635	1198.2741	1211.3171	1277.2815	1288.5467	1310.9314	1349.9777	1379.0939	1385.4678	1404.6011	1411.8353	1427.073	1471.4436	1484.0366	1492.3654	1499.4792	1509.1706	2961.8344	2969.8388	3039.0221	3043.1946	3058.1492	3097.6872	3113.3019	3115.4577	3118.5883	3144.6363	3210.6401	3805.1824
CC1CC2(CO)CC2O1	C[C@H]1C[C@@]2(CO)C[C@H]2O1	
InChI=1S/C7H12O2/c1-5-2-7(4-8)3-6(7)9-5/h5-6,8H,2-4H2,1H3	InChI=1S/C7H12O2/c1-5-2-7(4-8)3-6(7)9-5/h5-6,8H,2-4H2,1H3/t5-,6+,7-/m0/s1
