19
gdb 120832	4.81223	0.61371	0.58027	3.1696	74.59	-0.2536	-0.0292	0.2244	1897.4301	0.155437	-460.130836	-460.120594	-460.11965	-460.168215	34.402	
C	-0.456457812	 1.2811606207	-0.0803420192	-0.227462
O	-0.1923783409	-0.1021438151	-0.1001643917	-0.232896
C	 0.8221252943	-0.4521999281	-1.0132138636	-0.083433
C	 1.0153955938	-1.9438336364	-0.933373945	 0.049965
O	 0.259721517	-2.7716047351	-1.8231045986	-0.253501
C	 1.684152044	-2.7500008284	-1.9661925176	 0.036929
C	 2.2394137713	-2.2041165605	-3.2672670464	-0.314972
C	 1.9974153753	-3.1697099774	-4.4149884837	 0.160339
O	 2.8487633847	-3.5486406451	-5.1762694823	-0.234929
H	 0.4346225784	 1.8624641	 0.2059087593	 0.105065
H	-0.8033963275	 1.644845665	-1.0602098164	 0.108174
H	-1.2427889319	 1.4514807451	 0.6583825752	 0.133309
H	 0.5474123204	-0.1530429315	-2.0360938173	 0.096023
H	 1.7676775543	 0.0589136181	-0.7558289731	 0.092201
H	 1.050070232	-2.313249908	 0.0923769569	 0.106241
H	 2.1711145779	-3.6674390909	-1.6294291056	 0.104976
H	 1.7374863923	-1.2636237375	-3.5219752673	 0.127238
H	 3.314694663	-2.0171533839	-3.1884852887	 0.12763
H	 0.9424012336	-3.5092184808	-4.5072900449	 0.099105
38.1813	55.6607	74.9018	86.4141	119.6286	198.0403	229.2812	261.134	338.799	425.6004	487.356	498.1089	546.9765	788.1966	794.6031	877.2446	925.2102	985.2046	1008.0437	1039.6123	1086.712	1101.4335	1149.3563	1158.4346	1174.4318	1187.9217	1227.2133	1234.2485	1267.6981	1284.6808	1309.1996	1368.2495	1420.2817	1423.2235	1446.0365	1475.3541	1485.1881	1493.7841	1497.8268	1520.8851	1835.377	2898.6152	2942.7763	2971.1413	3002.6331	3016.1696	3045.8264	3085.8188	3106.9752	3112.8917	3120.3656
COCC1OC1CC=O	COC[C@H]1O[C@H]1CC=O	
InChI=1S/C6H10O3/c1-8-4-6-5(9-6)2-3-7/h3,5-6H,2,4H2,1H3	InChI=1S/C6H10O3/c1-8-4-6-5(9-6)2-3-7/h3,5-6H,2,4H2,1H3/t5-,6+/m0/s1
