19
gdb 48544	2.80262	1.44507	1.39803	3.2356	80.52	-0.2408	-0.0139	0.2269	1037.6744	0.16136	-385.892096	-385.884732	-385.883788	-385.924001	29.173	
O	-0.1635770898	 0.0256638243	-0.0541426705	-0.278911
C	 0.0001744097	 1.2170410739	 0.0862560634	 0.018126
C	 1.2798520418	 1.9038500419	-0.0270884033	 0.295691
C	 1.8698092357	 3.0126050245	 0.8773429302	-0.117222
C	 3.1929120835	 2.2455373172	 0.9490192832	-0.234611
C	 2.7044308265	 1.3347751584	-0.2264195179	-0.111075
C	 3.1653996941	 1.8881675837	-1.5808528694	-0.212471
C	 2.5772961607	 3.3281714252	-1.6173862763	-0.23601
C	 1.491793386	 3.3238953604	-0.5392355228	-0.095442
H	-0.854974193	 1.8913111296	 0.3315215207	 0.057281
H	 1.3704083465	 3.4990145054	 1.7079466027	 0.096702
H	 4.1160791247	 2.8141020249	 0.7888985659	 0.095253
H	 3.2760349938	 1.6895361765	 1.8853329593	 0.112208
H	 2.8345794021	 0.2623585094	-0.0938640717	 0.091923
H	 4.2544774413	 1.8757695117	-1.6885319671	 0.098621
H	 2.7445624797	 1.283540429	-2.3913220776	 0.109775
H	 3.3387606836	 4.0856268152	-1.4039749871	 0.108243
H	 2.1531627275	 3.5690993947	-2.5959734118	 0.106945
H	 0.6136078656	 3.9495984043	-0.6607673298	 0.094974
89.697	161.9108	216.3875	255.4114	360.2295	442.9903	466.4494	611.0943	650.5307	715.359	749.5072	798.1358	820.8367	862.2992	895.3029	911.3825	930.7045	976.93	998.3079	1026.3408	1048.605	1058.6873	1061.7933	1102.0571	1125.9047	1140.0547	1170.3084	1215.2187	1236.6247	1260.1338	1283.0877	1308.0765	1308.2596	1338.929	1349.486	1409.5804	1449.6361	1486.6779	1493.2741	1508.9386	1791.9016	2843.2556	3036.4569	3042.7806	3050.9383	3081.9964	3098.5129	3106.2242	3136.2387	3167.3366	3178.2195
O=CC12C3CC1CCC23	O=C[C@@]12[C@H]3C[C@@H]1CC[C@@H]23	
InChI=1S/C8H10O/c9-4-8-5-1-2-6(8)7(8)3-5/h4-7H,1-3H2	InChI=1S/C8H10O/c9-4-8-5-1-2-6(8)7(8)3-5/h4-7H,1-3H2/t5-,6+,7-,8+/m0/s1
