19
gdb 98801	3.00774	1.17604	0.86357	3.3268	80.33	-0.2485	-0.0131	0.2353	1347.4343	0.158801	-419.247173	-419.237733	-419.236788	-419.282411	33.524	
C	-0.2274234252	 1.5222062719	-0.0341883891	-0.378406
C	-0.0744498224	 0.0036401615	-0.0795320692	-0.285068
C	 0.7512924594	-0.4580950964	-1.2637368313	 0.386356
O	 1.2438758272	 0.2798053697	-2.0932898722	-0.351345
N	 0.9375055316	-1.8269377294	-1.3769375132	-0.102927
C	 1.6855723001	-2.5529255374	-2.4122491596	-0.163856
C	 1.3020108033	-3.869578063	-1.6759384945	-0.359354
C	 0.5606626264	-2.9777367447	-0.6709071661	 0.382631
N	-0.1316268603	-3.0762856026	 0.3809248386	-0.53953
H	 0.7461776887	 2.0138115749	 0.0351829414	 0.129193
H	-0.7153564204	 1.8956381829	-0.9379889567	 0.129198
H	-0.8274839885	 1.8164051352	 0.831279733	 0.109201
H	 0.3895202385	-0.3871665639	 0.8337425798	 0.140084
H	-1.0457327413	-0.5032046374	-0.1218345695	 0.140077
H	 1.2682897104	-2.4273095029	-3.4138283058	 0.132031
H	 2.7497661618	-2.3073181059	-2.4275253108	 0.132031
H	 0.656886564	-4.549642919	-2.2353877833	 0.136147
H	 2.1366350062	-4.429783671	-1.2502281034	 0.136147
H	-0.2342332794	-4.0526838526	 0.6538327517	 0.22739
45.1203	85.3059	110.2228	145.7537	176.1007	208.4946	270.2993	366.3778	394.3278	519.7719	571.4689	585.9756	729.7349	763.9544	790.425	807.0975	834.4967	919.8981	980.1501	984.656	1031.1323	1059.0856	1102.9105	1107.0799	1157.0661	1176.2397	1193.4987	1217.24	1257.0338	1282.7326	1309.0932	1378.0118	1413.014	1426.2287	1439.9128	1467.0599	1491.3199	1498.8491	1520.3229	1774.7868	1778.1793	3048.2207	3051.5478	3070.3928	3072.6499	3084.4511	3118.2463	3123.0672	3127.3727	3140.321	3499.0201
CCC(=O)N1CCC1=N	CCC(=O)N1CC[C]1[NH]	
InChI=1S/C6H10N2O/c1-2-6(9)8-4-3-5(8)7/h7H,2-4H2,1H3	InChI=1S/C6H10N2O/c1-2-6(9)8-4-3-5(8)7/h7H,2-4H2,1H3
