18
gdb 9632	3.96961	1.18075	1.07203	1.7304	75.5	-0.2403	0.052	0.2923	1152.162	0.15107	-347.752343	-347.743084	-347.74214	-347.786046	33.895	
C	 0.0061979827	 1.5483467894	-0.1490034763	-0.461033
C	 0.0203080274	 0.0321095108	 0.0053554653	 0.117503
C	 1.3429132269	-0.7152598033	-0.1225456793	-0.305356
C	 0.6662683271	-0.6438103496	 1.2155950417	-0.009434
C	 1.2633463166	 0.1339214908	 2.3594696752	-0.110588
O	 2.2148641109	-0.7114827702	 2.994764771	-0.417329
C	-1.1531393277	-0.6165269872	-0.5225572654	 0.281477
C	-2.1425098779	-1.136644425	-0.9681497736	-0.464411
H	 0.9417910695	 1.9977480552	 0.1916429781	 0.116105
H	-0.1287134524	 1.8147144264	-1.2016755417	 0.130553
H	-0.8175059893	 1.9952486368	 0.4165767023	 0.126679
H	 1.3479239319	-1.6589039645	-0.6542438313	 0.123935
H	 2.227276921	-0.1037614043	-0.272220138	 0.114924
H	 0.1685740187	-1.5527433561	 1.5387407002	 0.105156
H	 1.7396580447	 1.0562258281	 1.9958707172	 0.083431
H	 0.4686957257	 0.4307588745	 3.0626133883	 0.091847
H	 2.538402002	-0.2579481677	 3.7789689675	 0.286104
H	-3.0121490378	-1.602957524	-1.3594879414	 0.190436
68.8195	132.2842	142.8673	181.224	230.5959	252.6776	277.5522	345.7773	408.0208	427.3242	541.8881	565.7662	589.0733	641.2168	680.8459	834.0163	876.6747	903.2328	940.5445	973.7009	1041.0619	1068.8184	1081.4901	1107.7122	1117.2378	1169.9681	1253.381	1256.0406	1292.474	1293.6773	1401.5227	1416.0375	1468.836	1486.1203	1488.2488	1505.6733	1520.093	2232.3026	2970.7397	3004.5968	3041.0716	3105.3428	3121.9647	3134.2802	3162.7661	3227.6983	3504.3114	3824.5715
CC1(CC1CO)C#C	C[C@]1(C[C@H]1CO)C#C	
InChI=1S/C7H10O/c1-3-7(2)4-6(7)5-8/h1,6,8H,4-5H2,2H3	InChI=1S/C7H10O/c1-3-7(2)4-6(7)5-8/h1,6,8H,4-5H2,2H3/t6-,7+/m0/s1
