18
gdb 33382	7.92943	0.4795	0.4708	5.6307	91.98	-0.2789	-0.0354	0.2435	2245.0549	0.147251	-364.793538	-364.78418	-364.783236	-364.829082	33.183	
N	-0.0370839176	-3.727937596	-0.0871609906	-0.340031
C	-0.0151570474	-2.5678015489	-0.0252126528	 0.203479
C	 0.0111431385	-1.2052359189	 0.0477777588	 0.082451
C	 0.0290597335	 0.00157685	 0.114509782	 0.055001
C	 0.0842876791	 1.4507754244	 0.1861840748	-0.373209
C	 1.4545853074	 2.0285043107	-0.2427789379	-0.204878
C	 1.4830422893	 3.5375434278	-0.1491255861	 0.032724
C	 1.7869925214	 4.2132369637	 1.1666590594	-0.257996
C	 2.7897303173	 4.2627618626	 0.0400024387	-0.282416
H	-0.7075639538	 1.8700592099	-0.448323231	 0.146892
H	-0.1432846694	 1.7706097785	 1.2109928284	 0.151581
H	 2.2360957601	 1.6006436093	 0.3951735357	 0.114626
H	 1.6729686679	 1.7032475579	-1.2664123153	 0.11942
H	 0.7512439256	 4.0376537322	-0.7796755203	 0.08661
H	 1.250151022	 5.1201450624	 1.4209560176	 0.117082
H	 2.0188487535	 3.5816264971	 2.0185418412	 0.113826
H	 3.690265346	 3.6653432003	 0.1375736632	 0.116941
H	 2.9360683866	 5.2027281768	-0.4799701557	 0.117898
44.2389	62.6456	97.5026	159.9942	174.1116	235.6671	341.6461	371.9598	403.219	487.6821	578.8772	582.1783	719.3928	758.1126	779.8942	822.561	841.4605	920.5496	951.0962	1016.492	1035.2031	1059.1285	1082.0955	1135.7362	1142.9457	1173.0581	1197.8287	1227.2535	1237.6948	1282.7045	1313.0551	1360.7996	1417.3757	1462.4061	1469.4311	1490.6142	1507.8798	2264.5851	2400.5939	3021.4244	3038.7697	3053.2265	3081.7559	3129.8936	3130.7915	3136.3203	3209.4344	3224.4329
N#CC#CCCC1CC1	N#CC#CCCC1CC1	
InChI=1S/C8H9N/c9-7-3-1-2-4-8-5-6-8/h8H,2,4-6H2	InChI=1S/C8H9N/c9-7-3-1-2-4-8-5-6-8/h8H,2,4-6H2
