23
gdb 112972	4.76318	0.77567	0.71089	1.501	87.29	-0.2386	0.0884	0.327	1689.8907	0.20537	-388.270273	-388.260659	-388.259714	-388.305663	35.722	
C	-0.2761788415	 1.6636532728	-0.075961551	-0.380211
C	-0.1164526359	 0.1796215328	-0.416359294	-0.184963
C	-1.3032687929	-0.6510373506	 0.0466904582	 0.17051
C	-1.14092006	-2.1854763142	 0.04783715	-0.33856
C	-1.2420559848	-2.0650315033	 1.5865168665	 0.152929
O	-1.4609196347	-0.6334266421	 1.4894917759	-0.315982
C	-2.3607422755	-2.7830176986	 2.2794913484	 0.016679
C	-2.097464243	-4.1286129243	 2.9145991689	-0.272938
C	-2.3495101816	-2.922447628	 3.7806425411	-0.266255
H	 0.6061096638	 2.2384804553	-0.3728044117	 0.108833
H	-1.144521047	 2.0955885674	-0.5860971048	 0.111285
H	-0.4228764693	 1.7900121517	 1.0004235652	 0.136868
H	-0.0014136851	 0.0438849852	-1.5004321579	 0.09189
H	 0.7943358508	-0.2162346797	 0.050950919	 0.094318
H	-2.2212688386	-0.2892871763	-0.4384798906	 0.068784
H	-1.9603813431	-2.7402614763	-0.4131759909	 0.104699
H	-0.1909213917	-2.5583706755	-0.3407195249	 0.103393
H	-0.2968745548	-2.274467921	 2.10962819	 0.063593
H	-3.3323580594	-2.6457105784	 1.812009331	 0.081087
H	-2.8686870564	-4.8869862724	 2.8421956966	 0.112619
H	-1.0862960087	-4.5206944371	 2.871717542	 0.111252
H	-1.5084946554	-2.4981999683	 4.3191018947	 0.116395
H	-3.2946481453	-2.8517607789	 4.3068376983	 0.113774
42.5259	72.2074	117.5079	135.6665	218.3817	241.5564	280.8628	302.9523	413.6599	454.9765	507.3305	730.8934	756.9515	797.879	808.7834	829.8568	880.7543	918.8825	933.1102	956.1653	963.6647	988.0384	1004.3395	1024.2657	1059.2582	1060.9222	1077.556	1107.6944	1123.596	1132.4124	1195.9267	1197.547	1222.7215	1231.4927	1255.2447	1270.9067	1290.4757	1313.7302	1327.7243	1352.2676	1402.9786	1408.7149	1441.9378	1468.9662	1475.8961	1492.7993	1497.2754	1504.827	1509.7053	2984.1778	2995.158	3014.9234	3035.0482	3054.1114	3071.8543	3101.1044	3118.7212	3125.8663	3130.9567	3135.0147	3142.4717	3209.4625	3224.4586
CCC1CC(O1)C1CC1	CC[C@H]1C[C@@H](O1)C1CC1	
InChI=1S/C8H14O/c1-2-7-5-8(9-7)6-3-4-6/h6-8H,2-5H2,1H3	InChI=1S/C8H14O/c1-2-7-5-8(9-7)6-3-4-6/h6-8H,2-5H2,1H3/t7-,8+/m0/s1
