21
gdb 62931	2.63783	1.62353	1.52813	1.8003	76.83	-0.2378	0.0763	0.3141	1010.0042	0.184322	-424.219798	-424.211889	-424.210944	-424.251426	32.863	
C	-0.1089092712	 1.5306533621	-0.0023942224	-0.448324
C	 0.0113931652	 0.0148568738	 0.0056990802	 0.445327
O	-1.2683388119	-0.5137750636	 0.2445075598	-0.491512
C	 0.8507280244	-0.5759529543	-1.196053523	-0.084555
C	 2.1096183679	-0.4093314353	-0.2945254325	-0.275613
C	 1.1420729192	-0.5837639614	 0.9000053965	 0.054175
O	 0.8031584752	-1.9561809448	 1.1393082001	-0.300003
C	 0.938324098	-2.7897603244	-0.0225604989	-0.083008
C	 0.5193698396	-2.0708925054	-1.3225565031	-0.239122
H	 0.8357036141	 2.0260234757	-0.2391359826	 0.111795
H	-0.8481117893	 1.8311652487	-0.751746562	 0.127005
H	-0.4562157792	 1.8865122118	 0.9724686937	 0.12048
H	-1.1216736251	-1.3194371515	 0.7607552868	 0.285356
H	 0.8104543638	-0.0540224398	-2.1551597981	 0.061543
H	 2.9274911715	-1.1241731216	-0.4012221547	 0.103203
H	 2.5237344784	 0.5991829172	-0.3214272592	 0.109018
H	 1.3672038843	-0.1430114917	 1.8743125728	 0.073549
H	 1.9802812869	-3.1258184371	-0.0976302879	 0.105752
H	 0.3262554463	-3.6747796169	 0.1716847509	 0.110687
H	-0.5535414587	-2.1829049248	-1.5047971899	 0.117558
H	 1.0506757305	-2.5239788667	-2.1667366564	 0.09669
191.1523	202.4899	218.7823	277.8981	312.4669	368.4223	428.5822	454.9682	512.3802	537.6261	570.3792	603.378	682.2527	801.4552	815.8793	843.3699	860.8452	909.2714	931.3235	951.9504	981.4291	1013.9376	1036.4633	1076.1071	1100.6998	1123.8437	1137.7716	1158.5408	1184.2586	1225.1804	1235.4776	1248.4894	1266.0687	1295.5897	1314.006	1340.4642	1371.1868	1393.6587	1406.1823	1422.3001	1483.3623	1486.4926	1489.3509	1500.67	1526.9244	3016.3627	3041.7317	3043.5443	3074.6729	3077.7495	3081.752	3089.7193	3096.9546	3107.7813	3123.7257	3136.1112	3724.6289
CC1(O)C2CC1OCC2	C[C@@]1(O)[C@H]2C[C@@H]1OCC2	
InChI=1S/C7H12O2/c1-7(8)5-2-3-9-6(7)4-5/h5-6,8H,2-4H2,1H3	InChI=1S/C7H12O2/c1-7(8)5-2-3-9-6(7)4-5/h5-6,8H,2-4H2,1H3/t5-,6+,7-/m1/s1
