16
gdb 129575	4.0856	1.00326	0.85721	2.3649	65.8	-0.2594	-0.0329	0.2265	1291.4496	0.125846	-471.191411	-471.183148	-471.182203	-471.225095	29.848	
N	-0.3555522068	 1.4711907363	 0.0060261743	-0.518323
C	-0.0476002996	 0.0411514965	-0.0410910639	-0.132481
C	-1.363112231	-0.7318048372	 0.2018368023	-0.041554
O	-1.9523291809	-0.3130223341	 1.4060488457	-0.421003
C	 0.6243579311	-0.4247210954	-1.3015694385	 0.370225
N	 0.8003817696	 0.3511564897	-2.3389373557	-0.1905
O	 1.424834211	-0.4849292351	-3.2752082659	-0.151748
C	 1.5503417165	-1.6706725426	-2.6800098698	 0.10837
N	 1.086521919	-1.7175335162	-1.4735999296	-0.306767
H	 0.4926069116	 2.0166149437	 0.1181380588	 0.245402
H	-0.7625256229	 1.7636592252	-0.8790414953	 0.248521
H	 0.6148166992	-0.191302964	 0.8006981391	 0.119534
H	-2.0302046874	-0.569578085	-0.663815991	 0.082783
H	-1.1610988204	-1.8040307708	 0.2712345314	 0.12859
H	-1.854534995	 0.650991343	 1.4059755767	 0.287805
H	 2.019209686	-2.4598721541	-3.2498643887	 0.171144
51.838	119.2982	130.9268	232.1631	266.596	300.7804	365.3441	430.9531	511.0965	559.2321	631.3273	725.9213	806.9939	891.0011	908.8139	912.3029	939.1251	985.0127	999.1327	1034.6665	1097.2127	1137.7241	1148.9302	1181.2934	1251.2365	1288.2173	1305.9738	1345.1856	1377.0348	1419.4149	1446.4986	1512.0056	1513.7567	1595.9439	1665.1306	2946.2382	3054.6465	3097.151	3264.1449	3497.0177	3575.5211	3717.1511
NC(CO)C1=NOC=N1	N[C@@H](CO)c1nocn1	
InChI=1S/C4H7N3O2/c5-3(1-8)4-6-2-9-7-4/h2-3,8H,1,5H2	InChI=1S/C4H7N3O2/c5-3(1-8)4-6-2-9-7-4/h2-3,8H,1,5H2/t3-/m0/s1
