16
gdb 75658	2.84434	1.33839	1.11957	3.2458	76.54	-0.2741	-0.0264	0.2477	1111.0134	0.124227	-396.903964	-396.895724	-396.89478	-396.93679	30.621	
C	-0.0601631514	 1.6485130067	 0.0050337528	-0.417423
C	 0.0658994792	 0.1324168571	 0.0371104608	-0.13241
C	 1.120104842	-0.5772100297	-0.8048957438	 0.378563
N	 1.386548337	-0.5659678661	-2.0282739934	-0.514239
N	 1.6832599743	-1.3603509205	 0.2966506891	-0.186165
C	 2.2022159533	-0.3532390216	 1.2551685843	-0.273809
C	 0.7390148149	-0.5754583298	 1.2330888174	 0.169514
C	 0.0314533207	-1.2092684472	 2.3024162583	 0.22064
N	-0.5650876927	-1.6838297407	 3.1723897655	-0.329075
H	 0.8874074563	 2.1426642862	 0.2365022285	 0.124023
H	-0.3682822955	 1.9689675658	-0.9940273152	 0.15057
H	-0.8111291699	 1.9916201131	 0.7226491341	 0.136318
H	-0.9057532042	-0.3339484737	-0.1570548317	 0.133198
H	 2.1406386475	-1.2221100009	-2.247670125	 0.238019
H	 2.7623764742	-0.8014335926	 2.0687290503	 0.158499
H	 2.6086044846	 0.5782194439	 0.8706233879	 0.143777
98.0292	140.0087	194.1815	197.872	230.121	282.3345	412.2968	468.7206	506.9859	558.18	627.6861	656.5544	679.4774	753.8945	805.7684	893.4631	919.2919	937.8224	974.0446	1069.71	1083.7483	1115.8797	1132.0873	1149.3497	1199.6854	1237.0028	1270.9267	1331.0961	1377.6778	1412.0759	1489.9025	1494.6998	1502.9833	1824.0328	2354.2509	3046.8048	3064.583	3119.2904	3122.247	3124.2055	3220.3125	3450.1965
CC1C(=N)N2CC12C#N	C[C@H]1[C]([NH])N2C[C@@]12C#N	
InChI=1S/C6H7N3/c1-4-5(8)9-3-6(4,9)2-7/h4,8H,3H2,1H3	InChI=1S/C6H7N3/c1-4-5(8)9-3-6(4,9)2-7/h4,8H,3H2,1H3/t4-,6-,9?/m0/s1
