13
gdb 129446	4.01907	1.3336	1.00134	2.6739	67.2	-0.2525	-0.0854	0.167	1081.5474	0.090861	-448.962983	-448.955621	-448.954677	-448.995392	26.781	
N	-0.0696446203	 1.2799356904	 0.1900668572	-0.531065
C	 0.0772023938	-0.0672832919	 0.152736525	 0.367792
O	 1.1368529916	-0.6550930398	 0.1373783165	-0.338771
C	-1.2521907625	-0.8154479339	 0.1307575103	 0.300908
N	-1.2006558153	-2.1522444705	 0.0938139243	-0.236942
C	-2.3805085904	-2.7504240176	 0.0761659745	-0.003121
C	-3.5624829234	-2.0055353565	 0.0955077988	 0.023877
N	-3.5453800489	-0.6765636065	 0.1324009051	-0.166947
N	-2.3624981055	-0.0732765541	 0.1503173624	-0.243526
H	 0.7559093662	 1.8539553083	 0.2067378815	 0.2666
H	-0.9897435158	 1.6885969058	 0.2005756095	 0.279046
H	-2.3950375346	-3.8375590125	 0.0461015921	 0.140872
H	-4.5416675449	-2.4728658511	 0.0816622927	 0.141278
56.9169	139.0049	223.5909	290.6482	375.2611	386.8336	430.6479	485.0935	624.4067	632.5908	649.1582	749.8875	807.982	856.2208	905.7556	1019.5151	1041.0647	1079.294	1096.4721	1129.6511	1189.6675	1242.6667	1369.5892	1388.0573	1459.3251	1572.5106	1582.7644	1593.2896	1816.0073	3159.1955	3195.1278	3595.5611	3739.8241
NC(=O)C1=NC=CN=N1	NC(=O)c1nccnn1	
InChI=1S/C4H4N4O/c5-3(9)4-6-1-2-7-8-4/h1-2H,(H2,5,9)	InChI=1S/C4H4N4O/c5-3(9)4-6-1-2-7-8-4/h1-2H,(H2,5,9)
