14
gdb 23708	5.62408	1.44887	1.15342	2.7119	68.11	-0.1994	-0.0039	0.1955	950.0397	0.108737	-386.754361	-386.747754	-386.74681	-386.784852	26.102	
N	-0.0163302127	 1.416334169	 0.1531168299	-0.593208
C	 0.0020422594	 0.0193810979	 0.0488852679	 0.31674
C	-1.1917709461	-0.7142219818	 0.0352050376	-0.165151
C	-1.1764136177	-2.1043037477	-0.0032339727	-0.228279
C	 0.0394825393	-2.7707211323	-0.0287980472	 0.274069
F	 0.0574711659	-4.1123026438	-0.0685217871	-0.091218
C	 1.2370486729	-2.0715321271	-0.0170862315	-0.228279
C	 1.2150975651	-0.6815390837	 0.0213893367	-0.165152
H	 0.8061802292	 1.870326841	-0.2181516298	 0.24488
H	-0.8550600615	 1.8477695983	-0.2086409523	 0.244881
H	-2.1422736684	-0.1897589992	 0.0587608676	 0.088855
H	-2.0983512109	-2.673994249	-0.0158603394	 0.106503
H	 2.1739089553	-2.6159820695	-0.0403820878	 0.106503
H	 2.1512182601	-0.1314591921	 0.0341145982	 0.088855
155.3662	264.221	331.0299	368.533	424.1155	436.2114	462.9988	520.7977	635.6293	651.9199	720.5069	769.5143	821.3499	845.1221	863.4547	924.5695	934.5645	1021.0426	1082.1949	1142.1254	1177.1608	1271.5425	1310.5247	1312.0657	1352.707	1467.8792	1551.1867	1634.3045	1652.3301	1667.5398	3170.2367	3170.6787	3203.0607	3203.7604	3557.1368	3652.8359
NC1=CC=C(F)C=C1	Nc1ccc(F)cc1	
InChI=1S/C6H6FN/c7-5-1-3-6(8)4-2-5/h1-4H,8H2	InChI=1S/C6H6FN/c7-5-1-3-6(8)4-2-5/h1-4H,8H2
