19
gdb 108395	2.31574	1.36626	1.08219	1.2551	81.96	-0.2459	0.0442	0.2901	1191.7866	0.15823	-385.822961	-385.813987	-385.813043	-385.856632	34.19	
O	 0.0893526347	 1.3791776611	-0.1770560986	-0.412766
C	 0.0449392029	-0.0118604933	 0.1096728913	-0.172373
C	-1.3548125044	-0.548979036	 0.1364900031	 0.311194
C	-2.4121590099	-0.2270467367	 1.2036552755	-0.286353
C	-2.934534	-1.6984513046	 1.1039719711	-0.233764
C	-1.876913272	-1.978203165	 0.0311917717	-0.126042
C	-2.0389964753	-1.026358237	-1.1428229114	-0.277375
C	-3.3069355931	-0.5342761103	-1.6002079853	 0.341171
C	-4.3682272054	-0.1133952681	-1.9813206253	-0.458287
H	-0.3997581337	 1.5201137365	-0.9949340014	 0.285465
H	 0.6525666417	-0.5933052796	-0.6040391542	 0.084119
H	 0.5117316361	-0.1203317187	 1.095578738	 0.10977
H	-1.9614918184	-0.0073914501	 2.1740316178	 0.106397
H	-3.1206681888	 0.5655382027	 0.9523084597	 0.112657
H	-2.7621906306	-2.2646679843	 2.0212684471	 0.105372
H	-3.9734067182	-1.8318845213	 0.7914218185	 0.113398
H	-1.3230704102	-2.9011872098	-0.0990708762	 0.091666
H	-1.3266966021	-1.232050444	-1.939707376	 0.109996
H	-5.3034842533	 0.2554259487	-2.3226636856	 0.195754
79.3212	108.2584	146.8952	185.6521	276.6453	295.9091	355.6687	365.7008	422.1251	524.6303	559.8926	585.1947	655.5111	694.2217	754.7007	788.8005	817.3098	900.3542	934.9338	943.8954	957.0965	983.1313	1032.4071	1051.3713	1074.0506	1104.5486	1140.8215	1185.8295	1214.6594	1240.2441	1245.164	1255.4149	1301.9499	1332.4773	1368.1075	1417.8097	1444.4888	1475.2288	1497.6929	1504.5258	2229.8483	2962.8699	3057.7306	3063.7292	3069.9889	3110.5573	3126.5247	3127.3197	3174.0831	3503.4184	3806.3087
OCC12CCC1C2C#C	OC[C@]12CC[C@H]1[C@H]2C#C	
InChI=1S/C8H10O/c1-2-6-7-3-4-8(6,7)5-9/h1,6-7,9H,3-5H2	InChI=1S/C8H10O/c1-2-6-7-3-4-8(6,7)5-9/h1,6-7,9H,3-5H2/t6-,7+,8+/m1/s1
