17
gdb 10121	2.45023	1.61913	1.03095	4.2403	68.21	-0.2545	-0.0396	0.2149	1136.644	0.139306	-401.004769	-400.995615	-400.99467	-401.039231	31.305	
C	-0.172105098	 1.5761880465	-0.0001144267	-0.38822
C	 0.072053016	 0.0672416785	 0.0654272253	-0.201602
C	 0.8101629891	-0.4692628731	-1.1665188224	 0.017332
O	 2.0874504387	 0.135387845	-1.2076528885	-0.181883
C	 2.8153215359	-0.0134715719	-2.3392410943	 0.146858
N	 3.9684298178	 0.4897141213	-2.4038524222	-0.444123
C	 0.8943292478	-1.99192768	-1.1350047049	 0.149758
O	 1.9061079296	-2.6228884569	-1.2781016356	-0.229356
H	 0.7732453764	 2.1152437724	-0.0949695435	 0.151128
H	-0.8007907992	 1.837666894	-0.8584725096	 0.115268
H	-0.6778236869	 1.924666142	 0.9046544354	 0.121343
H	 0.6662731757	-0.1826389243	 0.951819864	 0.129162
H	-0.8795812491	-0.4697373419	 0.1551635242	 0.106815
H	 0.2270960638	-0.2083710675	-2.0689635158	 0.100292
H	 2.2943416125	-0.5666418215	-3.1300734672	 0.089932
H	 4.377315775	 0.3047607727	-3.3172928879	 0.230912
H	-0.0911321751	-2.4884196254	-0.9790263202	 0.086382
77.6328	88.3815	113.1412	145.3133	183.8363	223.6847	253.6416	304.0778	385.0323	469.4707	571.5464	708.1851	784.5077	814.3978	847.7367	948.9982	973.338	995.6518	1036.9997	1055.33	1111.6535	1158.4042	1185.2609	1270.6344	1286.889	1309.9264	1360.5718	1379.0758	1409.9085	1415.9743	1429.1933	1477.4295	1495.8447	1508.7134	1749.4108	1844.0265	2869.6892	2944.0743	3036.545	3040.1041	3043.8554	3076.858	3108.6429	3132.7837	3522.0374
CCC(OC=N)C=O	CC[C@@H](O[CH][NH])C=O	
InChI=1S/C5H9NO2/c1-2-5(3-7)8-4-6/h3-6H,2H2,1H3	InChI=1S/C5H9NO2/c1-2-5(3-7)8-4-6/h3-6H,2H2,1H3/t5-/m1/s1
