15
gdb 81907	2.39793	1.84997	1.18737	3.3397	65.74	-0.2413	-0.0913	0.15	997.1781	0.112291	-457.779056	-457.771376	-457.770432	-457.811386	28.979	
O	-0.072293988	 1.5059719796	 0.0220530026	-0.435195
C	-0.036476676	 0.1036869145	 0.0239091224	 0.041073
C	-1.4076228181	-0.5539467073	 0.0062931765	-0.06438
C	-2.159948191	-0.470138531	-1.2724200418	-0.288572
C	-1.3663635794	-1.7449197963	-0.960267258	-0.164389
C	-0.0187319913	-1.805257759	-1.5815999255	 0.348906
O	 0.4921794819	-2.6959294193	-2.2080939424	-0.301481
C	 0.6688488442	-0.4598144322	-1.2091031124	 0.23629
O	 1.5532592656	 0.0967086158	-1.8039192593	-0.2966
H	 0.7015844439	 1.795702521	-0.4822096299	 0.296698
H	 0.5188679722	-0.2815760101	 0.9006249417	 0.106684
H	-1.9495878699	-0.6472827519	 0.9392661958	 0.112559
H	-3.2372975237	-0.58159841	-1.2439201495	 0.14035
H	-1.8020123788	 0.1966172078	-2.0502152581	 0.145168
H	-1.9068378917	-2.6651129114	-0.7814342922	 0.12289
75.889	168.1873	218.2435	250.2384	312.3583	377.3721	430.1807	493.0368	525.0464	560.7571	668.2554	704.449	812.0528	849.3928	865.4985	908.402	954.6015	985.6654	1008.3129	1068.0223	1101.0855	1106.9381	1151.6935	1184.6349	1208.1865	1226.8727	1322.3612	1343.6734	1384.3576	1412.6841	1495.1118	1835.2754	1853.8889	2924.8955	3139.5841	3189.2883	3206.5318	3228.9803	3737.9136
OC1C2CC2C(=O)C1=O	O[C@H]1[C@H]2C[C@H]2C(=O)C1=O	
InChI=1S/C6H6O3/c7-4-2-1-3(2)5(8)6(4)9/h2-4,7H,1H2	InChI=1S/C6H6O3/c7-4-2-1-3(2)5(8)6(4)9/h2-4,7H,1H2/t2-,3+,4-/m0/s1
