17
gdb 47168	2.43507	1.99258	1.13327	3.4266	75.77	-0.2079	0.0159	0.2238	1041.2672	0.139084	-418.043692	-418.036171	-418.035227	-418.075787	28.738	
O	 0.0644986001	-0.0615944405	-0.0981651721	-0.406446
C	 0.0299810467	 1.1457060813	 0.037796466	 0.430747
N	-1.0940319904	 1.9191376309	-0.1319506677	-0.362074
C	-1.2139764847	 3.3561630243	 0.1415295026	-0.197513
C	 0.1125172947	 4.0516661776	-0.0823825707	-0.283248
C	 1.1930836788	 3.2944819262	 0.0548315503	 0.407498
C	 2.7019011079	 3.2519686233	-0.1109934791	-0.373361
C	 2.5630307879	 1.6961175963	 0.0407635966	-0.164128
N	 1.1404774242	 1.9208001545	 0.3498785912	-0.153376
H	-1.9372744404	 1.3845830333	-0.2642112364	 0.253151
H	-1.9760074654	 3.763331768	-0.5333565692	 0.117328
H	-1.5812713344	 3.5315385176	 1.1679912317	 0.1118
H	 0.1425988088	 5.1028949271	-0.3320625772	 0.099808
H	 3.0806853299	 3.6004380691	-1.0732031076	 0.132608
H	 3.2646227844	 3.7342600525	 0.6913905642	 0.130955
H	 2.7171218297	 1.132285932	-0.8834900656	 0.131967
H	 3.1259968323	 1.2305190565	 0.8524433129	 0.124284
118.8088	131.6247	180.2101	229.7889	327.1769	471.9111	501.4186	531.3612	556.9138	628.1638	719.4918	732.8304	763.544	794.429	840.4978	917.9758	946.0643	1020.7746	1045.8415	1064.7658	1113.8112	1149.5517	1169.0064	1191.5828	1210.3226	1241.6429	1250.1717	1283.9593	1304.1833	1379.7471	1412.4448	1471.721	1476.1427	1521.6024	1523.8947	1777.1476	1807.4693	2936.8836	3041.3099	3062.0521	3078.9009	3112.1705	3133.4682	3228.5606	3649.4852
O=C1NCC=C2CCN12	O=C1NCC=C2CCN12	
InChI=1S/C6H8N2O/c9-6-7-3-1-5-2-4-8(5)6/h1H,2-4H2,(H,7,9)	InChI=1S/C6H8N2O/c9-6-7-3-1-5-2-4-8(5)6/h1H,2-4H2,(H,7,9)
