17
gdb 94133	1.90121	1.54836	1.26791	3.3288	79.1	-0.249	0.0065	0.2555	1112.3266	0.134651	-380.824022	-380.814881	-380.813937	-380.857767	33.673	
C	-0.0184415253	 1.5767427507	-0.119456077	-0.401089
C	 0.0452416575	 0.0704885701	 0.0108705842	 0.031906
N	 1.0219094741	-0.6187376472	-0.8600343524	-0.316771
C	 1.3742172633	-1.5757721574	 0.2031149098	-0.190146
C	 0.7752555418	-0.5810154867	 1.2652141752	-0.066388
C	 1.7720169627	 0.2620649698	 1.9053994717	 0.317929
C	 2.6029734221	 0.9516291046	 2.4308704158	-0.43597
C	-0.1208866592	-1.1789415606	 2.2508437168	 0.238319
N	-0.8501922052	-1.6637876201	 3.0050812651	-0.341934
H	 0.9746223974	 2.0173659842	-0.0111729434	 0.14023
H	-0.4109009097	 1.8442680522	-1.1063353799	 0.122119
H	-0.6845707255	 2.0047318514	 0.6366403553	 0.128457
H	-0.9642271422	-0.3622150824	-0.0429171617	 0.089761
H	 0.6351513315	-1.0291868398	-1.7026790436	 0.227197
H	 0.8133942775	-2.5190212539	 0.1935632759	 0.117901
H	 2.4423013837	-1.7810637195	 0.3057589139	 0.130419
H	 3.3367351554	 1.5595594144	 2.9005609543	 0.20806
93.2583	129.2608	146.379	155.4894	212.2236	236.4444	306.9937	407.8624	470.2457	511.8482	534.7677	584.65	590.8962	643.8627	653.4385	667.6628	818.3676	902.6178	946.8511	975.6276	1012.0576	1032.3579	1093.948	1122.0638	1142.4153	1177.375	1218.5445	1272.5369	1346.1873	1374.7871	1387.231	1414.6908	1482.5671	1489.4155	1514.9255	2243.0245	2357.3502	2995.4253	3020.6603	3040.75	3100.282	3106.0968	3137.9067	3499.9159	3533.5407
CC1NCC1(C#C)C#N	C[C@H]1NC[C@]1(C#C)C#N	
InChI=1S/C7H8N2/c1-3-7(4-8)5-9-6(7)2/h1,6,9H,5H2,2H3	InChI=1S/C7H8N2/c1-3-7(4-8)5-9-6(7)2/h1,6,9H,5H2,2H3/t6-,7+/m1/s1
