15
gdb 36069	4.97916	1.19523	1.12527	2.6371	71.03	-0.2318	0.0213	0.2531	1059.3042	0.112736	-379.557836	-379.550777	-379.549832	-379.589963	26.843	
N	-0.9777061557	 0.1490304635	-1.2869618941	-0.306425
C	-0.3197359474	 0.4334364791	-0.381043002	 0.261909
C	 0.53590571	 0.8136990219	 0.7413825801	-0.477901
C	 1.6741442606	 1.6835669992	 0.2971460733	 0.392111
C	 2.6540600379	 1.6283050678	-0.8456184528	-0.159865
C	 3.7110782765	 2.2094556472	 0.1259083419	-0.049548
C	 2.8763657821	 3.4172534089	 0.353620992	-0.049577
C	 1.7888371685	 2.8807976937	-0.6098871701	-0.159884
N	 2.7232108264	 2.2254021725	 1.2670085265	-0.222025
H	-0.0674517858	 1.3401306916	 1.49155903	 0.165574
H	 0.9230531404	-0.0934447139	 1.2221569394	 0.165586
H	 2.6974276303	 0.9889396759	-1.7152361713	 0.115569
H	 4.7657604312	 2.0189092182	 0.2823332337	 0.104455
H	 3.1180750326	 4.4029837113	 0.7318353537	 0.104452
H	 1.0714033325	 3.342818953	-1.2722534705	 0.115569
57.5311	104.1889	250.7484	295.3718	390.3103	453.0011	656.9942	663.5775	759.4627	768.6512	803.5572	843.5093	853.1007	863.4956	870.2701	904.4118	943.249	966.3102	989.804	1010.3156	1031.1732	1052.7417	1073.7101	1147.7947	1165.9056	1212.4088	1219.3529	1278.7712	1316.9902	1336.5466	1441.3581	1467.7365	2366.7571	3029.8094	3065.4173	3180.8397	3194.7651	3223.1623	3232.3095
N#CCC12C3C4C(C13)N24	N#CC[C@@]12[C@@H]3[C@H]4[C@@H]([C@H]13)N24	
InChI=1S/C7H6N2/c8-2-1-7-3-4(7)6-5(3)9(6)7/h3-6H,1H2	InChI=1S/C7H6N2/c8-2-1-7-3-4(7)6-5(3)9(6)7/h3-6H,1H2/t3-,4+,5-,6+,7+,9?
