20
gdb 83614	2.39184	1.93595	1.26335	2.1998	78.35	-0.2117	0.0648	0.2765	1044.528	0.171575	-403.076255	-403.068395	-403.067451	-403.108576	31.034	
C	-0.6586031863	 1.2505167046	 0.2434994629	-0.418139
C	 0.0376395931	-0.0802982468	 0.0113842519	 0.03481
C	 0.8092290222	-0.2598200282	-1.3272900877	 0.018251
O	 0.8373114238	-1.6173779734	-1.8155204779	-0.295287
C	 2.1102994296	-1.8869886556	-1.1684605876	-0.156474
C	 2.0821657005	-0.5210107555	-0.490520458	 0.341744
C	 3.155125737	 0.4497015937	-0.0104316285	-0.36017
C	 2.1862691916	 0.7741721749	 1.1622000639	-0.175871
N	 1.3020936134	-0.385916426	 0.7942400249	-0.171884
H	-0.0546774075	 2.1078049291	-0.0703879225	 0.117885
H	-1.588857735	 1.2785885126	-0.3331836523	 0.125215
H	-0.9129613664	 1.3823087117	 1.3004008729	 0.128403
H	-0.6751256858	-0.8971769646	 0.1640369351	 0.092706
H	 0.6717664414	 0.4743442624	-2.1283855665	 0.072113
H	 2.0705828657	-2.7531434555	-0.498561043	 0.111741
H	 2.9098685451	-2.0221501252	-1.9094695924	 0.100072
H	 4.070250276	-0.0545064198	 0.3117501643	 0.115106
H	 3.4244026992	 1.2646835764	-0.6861187702	 0.108885
H	 2.600992358	 0.6695925921	 2.1685771529	 0.108687
H	 1.7124312344	 1.7567115931	 1.0893491879	 0.102205
69.509	210.8697	219.035	250.5896	300.1505	326.5386	365.0386	499.0945	518.759	671.7558	723.681	742.7169	814.8145	829.7291	872.3768	897.0813	937.6624	950.7044	982.4904	991.7597	1015.3668	1069.5158	1101.4719	1123.3981	1136.6424	1147.211	1169.8851	1189.8193	1198.2314	1222.5016	1241.05	1266.8338	1278.2315	1303.3602	1309.8188	1358.2613	1388.1112	1401.1298	1477.0481	1486.9778	1496.0699	1504.3081	1516.4902	3006.7121	3032.3303	3047.66	3048.9641	3053.4615	3062.4988	3070.1386	3090.3893	3103.261	3105.2491	3116.1397
CC1C2OCC22CCN12	C[C@H]1[C@@H]2OC[C@]32CCN13	
InChI=1S/C7H11NO/c1-5-6-7(4-9-6)2-3-8(5)7/h5-6H,2-4H2,1H3	InChI=1S/C7H11NO/c1-5-6-7(4-9-6)2-3-8(5)7/h5-6H,2-4H2,1H3/t5-,6-,7-/m0/s1
