18
gdb 67382	2.83064	1.57914	1.41749	4.1225	75.67	-0.2315	0.0252	0.2567	998.6952	0.149822	-401.968058	-401.960729	-401.959785	-401.999527	29.506	
C	 0.0058091244	 1.5516756517	-0.0318823825	-0.521957
C	 0.0037421415	 0.0550137145	 0.0157755516	 0.35284
C	 0.4416370479	-1.0136272809	-0.9600556501	-0.115344
C	 1.2684571627	-1.7258173189	 0.1049006843	-0.240754
C	 0.5025910896	-0.8729409532	 1.175011821	-0.091497
N	-0.7033043509	-1.5473977411	 1.6325827297	-0.30959
C	-1.5670609426	-1.7519478507	 0.5623300308	 0.412632
O	-2.5400517323	-2.4713165834	 0.5566074726	-0.383612
C	-1.0403538711	-0.8740587535	-0.5398157136	-0.22277
H	 1.0099086636	 1.9582435836	 0.1336792208	 0.122307
H	-0.3406799018	 1.9074333613	-1.007511939	 0.127497
H	-0.6576974571	 1.9733301834	 0.7315644658	 0.13295
H	 0.6903912571	-0.9117326385	-2.0097533388	 0.095367
H	 1.1933877757	-2.814324261	 0.2011379511	 0.098959
H	 2.320403014	-1.4340649114	 0.0380026186	 0.107094
H	 1.0757499316	-0.4380415942	 1.9925189517	 0.086785
H	-0.6552803893	-2.2720955599	 2.33514692	 0.24441
H	-1.7252615531	-0.5433910377	-1.310016624	 0.104682
140.4488	203.0753	206.1186	263.889	386.7536	436.0964	477.9546	536.6566	592.4738	658.1609	683.7855	705.3405	821.249	846.1931	858.2691	888.6114	907.8443	940.4511	976.031	1013.8106	1044.967	1061.0478	1085.101	1115.2772	1136.4251	1165.1465	1192.4124	1212.4295	1234.7203	1274.198	1314.6979	1342.3327	1393.0324	1415.245	1455.8378	1484.6473	1490.5662	1498.5666	1832.7956	3025.7384	3039.1251	3086.6807	3098.1984	3100.6844	3125.2123	3184.1071	3207.1085	3604.6015
CC12C3CC1NC(=O)C23	C[C@@]12[C@H]3C[C@@H]1NC(=O)[C@@H]23	
InChI=1S/C7H9NO/c1-7-3-2-4(7)8-6(9)5(3)7/h3-5H,2H2,1H3,(H,8,9)	InChI=1S/C7H9NO/c1-7-3-2-4(7)8-6(9)5(3)7/h3-5H,2H2,1H3,(H,8,9)/t3-,4-,5-,7+/m0/s1
