19
gdb 33135	3.0659	1.07401	0.80741	1.1827	78.8	-0.2044	0.0322	0.2366	1430.1665	0.158348	-423.052572	-423.043259	-423.042315	-423.087192	33.616	
C	-0.0030191006	 1.5282955642	-0.0827213499	-0.391149
C	-0.0005771297	 0.0119141301	-0.0348218264	-0.05098
O	 0.6720695346	-0.4700387702	-1.1930282269	-0.267665
C	 0.7587405493	-1.8153685547	-1.2981362325	 0.24822
C	 0.3053551598	-2.8021947452	-0.4724181389	-0.157178
O	 0.6326402381	-4.0211878264	-1.0019664021	-0.157156
C	 1.2927240073	-3.7838002343	-2.1630242214	-0.075601
C	 1.4093391553	-2.4531798029	-2.4125287722	 0.114971
C	 2.0587878667	-1.7662390409	-3.5704547154	-0.500456
H	 1.0197370315	 1.9149359761	-0.0974819322	 0.131227
H	-0.519057915	 1.884629746	-0.9785274441	 0.131226
H	-0.5141849829	 1.9318372494	 0.7961769854	 0.119851
H	 0.5143230768	-0.3561709451	 0.8650741308	 0.103402
H	-1.0259334817	-0.3865108204	-0.0168297349	 0.103402
H	-0.2285499765	-2.8173288321	 0.4605367886	 0.129271
H	 1.6201194377	-4.6566615932	-2.7047957385	 0.131668
H	 1.3443099152	-1.1381469888	-4.1139896577	 0.132711
H	 2.8707897158	-1.1088363703	-3.2404676942	 0.132707
H	 2.4753659983	-2.4919695711	-4.2740544574	 0.121527
72.3512	101.9704	122.5255	128.1486	242.4922	247.2664	255.0312	349.4003	359.0997	501.009	606.5463	628.1859	648.2753	709.4338	763.6836	767.5116	828.2312	891.3236	925.6813	1011.1432	1066.5321	1072.0704	1081.283	1138.2333	1188.1406	1194.9555	1215.2503	1258.8638	1294.8728	1330.8856	1392.1248	1407.4341	1420.506	1440.1132	1478.7913	1483.7901	1498.2557	1500.8317	1526.1781	1597.5041	1667.1473	2986.4278	3019.4802	3032.2279	3047.496	3082.8785	3114.1318	3122.5461	3125.1906	3267.3845	3295.7839
CCOC1=COC=C1C	CCOc1cocc1C	
InChI=1S/C7H10O2/c1-3-9-7-5-8-4-6(7)2/h4-5H,3H2,1-2H3	InChI=1S/C7H10O2/c1-3-9-7-5-8-4-6(7)2/h4-5H,3H2,1-2H3
