23
gdb 115897	3.21291	1.2078	1.0554	1.4629	84.74	-0.2339	0.0836	0.3175	1259.397	0.208068	-388.282795	-388.274468	-388.273524	-388.3155	33.452	
C	-0.191478299	 1.7243851814	 0.2936236122	-0.390184
C	-0.0598047401	 0.1980433377	 0.3434392071	-0.195614
C	-1.302186651	-0.559062521	-0.1482658119	 0.015684
C	-1.6134538918	-0.2342104956	-1.631671958	-0.074927
O	-2.335589236	-1.2583248708	-2.3119300155	-0.280378
C	-2.0254865118	-2.5714087572	-1.866364051	 0.139531
C	-2.5019568353	-2.7555263201	-0.4026487374	-0.244335
C	-1.153029386	-2.0886740248	-0.0105922714	-0.026835
C	-0.5720422896	-2.6861333893	-1.3290108986	-0.260077
H	 0.6991973228	 2.2088443937	 0.7054678438	 0.113648
H	-0.3184771466	 2.0902149054	-0.7304014198	 0.121306
H	-1.0547485659	 2.0646239827	 0.8767200142	 0.115174
H	 0.8112830315	-0.1156704776	-0.2481422895	 0.096279
H	 0.1466309483	-0.1113830908	 1.3758132974	 0.094036
H	-2.1551186029	-0.2515065225	 0.473402436	 0.070821
H	-2.2138967472	 0.6743519044	-1.7283465351	 0.106809
H	-0.663648739	-0.0492687266	-2.1581504211	 0.089432
H	-2.3763505702	-3.2532957087	-2.6435960549	 0.071088
H	-3.4299259632	-2.2495145137	-0.1229455268	 0.092629
H	-2.5445227433	-3.8088966126	-0.1120025257	 0.092288
H	-0.6887510062	-2.3643515564	 0.9402033871	 0.055958
H	-0.2878341871	-3.7338680667	-1.2052993775	 0.099764
H	 0.2261731996	-2.158872611	-1.8569592434	 0.097904
100.3712	133.0667	194.6502	248.1472	281.0107	347.9486	414.2025	440.6214	454.9357	509.1229	582.3164	761.2974	801.266	812.0407	837.6148	882.8985	893.0994	924.6291	950.8934	965.4355	972.3058	1001.7605	1041.9441	1055.699	1067.8071	1084.6369	1116.7169	1137.0427	1165.9626	1173.9011	1197.8936	1240.8332	1255.3809	1272.4196	1274.9156	1296.0364	1324.2503	1332.6756	1356.8026	1378.2006	1382.4279	1412.6167	1422.1068	1468.432	1486.6775	1495.5947	1501.6515	1507.4438	1521.8555	2971.9016	2998.0005	3013.802	3032.1069	3047.469	3050.2464	3060.4181	3070.1865	3081.838	3091.4409	3098.5044	3104.3545	3112.2128	3117.2926
CCC1COC2CC1C2	CC[C@H]1CO[C@@H]2C[C@H]1C2	
InChI=1S/C8H14O/c1-2-6-5-9-8-3-7(6)4-8/h6-8H,2-5H2,1H3	InChI=1S/C8H14O/c1-2-6-5-9-8-3-7(6)4-8/h6-8H,2-5H2,1H3/t6-,7-,8+/m0/s1
