19
gdb 40087	3.89231	1.24668	1.05176	1.9931	83.38	-0.2329	-0.0002	0.2327	1171.2187	0.160139	-385.848393	-385.840855	-385.83991	-385.880394	30.007	
C	-0.0864954508	 1.4787499945	-0.1122470295	-0.263941
O	 1.1657503652	 0.7914783317	 0.0112400663	-0.268124
C	-0.0316127777	 0.0214163869	-0.0078264332	 0.328194
C	-0.3866196163	-0.9559340807	 1.1454145232	-0.338955
C	-0.2767538485	-2.1365964857	 0.1089046622	-0.042035
C	-1.3969074022	-3.1102929931	-0.3045026764	-0.242776
C	-1.5072632864	-2.8890110974	-1.8508093815	-0.237924
C	-1.0535863017	-1.4405684349	-2.0279144018	-0.236383
C	-0.3247070683	-1.0859657232	-0.9741532668	 0.257459
H	-0.3836397875	 2.0691526293	 0.7542737113	 0.114364
H	-0.270212263	 1.946767492	-1.0787110129	 0.115115
H	 0.316097047	-0.9608003708	 1.9818149493	 0.115238
H	-1.4052667612	-0.8081507496	 1.5146489498	 0.108792
H	 0.6968372392	-2.632172609	 0.1996891282	 0.083635
H	-1.2041572827	-4.1531734819	-0.0374645738	 0.095981
H	-2.3427432126	-2.8167383777	 0.1658120634	 0.100831
H	-0.8647867131	-3.5896689542	-2.4031632715	 0.109758
H	-2.5253450345	-3.0472799257	-2.2224276931	 0.103926
H	-1.3707761749	-0.8149072104	-2.8541526231	 0.096844
95.6249	148.5617	239.0923	276.5705	340.4555	372.9183	468.6855	513.7907	602.0797	692.002	769.962	804.0091	812.4418	844.2567	869.0202	894.2601	901.3006	932.4414	954.4975	975.0014	1037.6692	1060.9289	1087.8112	1112.2436	1126.9854	1154.2557	1158.9794	1175.9854	1196.5954	1224.2288	1230.0179	1273.891	1304.5609	1326.9926	1337.3008	1424.5147	1463.0489	1480.3579	1493.6802	1528.9821	1727.1427	3006.56	3033.2608	3037.6084	3059.7127	3066.5833	3076.7325	3094.8855	3123.3748	3162.6548	3198.4146
C1OC11CC2CCC=C12	C1O[C@]21C[C@H]1CC[CH][C]21	
InChI=1S/C8H10O/c1-2-6-4-8(5-9-8)7(6)3-1/h3,6H,1-2,4-5H2	InChI=1S/C8H10O/c1-2-6-4-8(5-9-8)7(6)3-1/h3,6H,1-2,4-5H2/t6-,8+/m1/s1
