16
gdb 123989	4.40534	1.33623	1.11627	2.6289	77.09	-0.2326	0.0216	0.2542	1064.1997	0.127479	-396.878346	-396.871441	-396.870497	-396.909939	26.659	
C	 0.0542282258	 1.5458884119	-0.0377219251	-0.296609
N	 1.2699533138	 0.7079932049	 0.013154631	-0.352498
C	-0.0357131556	 0.0711464886	 0.0011139294	 0.15006
C	-0.5472243204	-0.8917538268	 1.1277387595	-0.226165
N	-1.0388751409	-1.7056666253	 0.0019143317	 0.061342
N	-1.7520554924	-2.7683152092	-0.378228699	-0.29912
C	-1.7603659355	-2.6182738959	-1.71580622	 0.021064
C	-1.0768219819	-1.4572857923	-2.1717255174	-0.423721
C	-0.6276698162	-0.8958489451	-0.9891336486	 0.364034
H	-0.1338316882	 2.1287926789	 0.8596901512	 0.129711
H	-0.210310057	 2.0415568764	-0.9680552444	 0.125866
H	 1.7088933894	 0.6421261978	-0.9016801997	 0.244001
H	 0.2368252678	-1.3689003142	 1.7196632554	 0.143903
H	-1.3392161585	-0.5002611323	 1.7710578852	 0.137846
H	-2.2617493131	-3.3591781935	-2.3221155425	 0.113079
H	-0.9554160471	-1.1234360941	-3.1882265265	 0.107208
90.2897	143.9109	237.3572	297.1849	444.0347	507.0195	518.8804	648.2737	706.8366	741.2023	777.5906	817.2805	858.1289	873.4249	921.0057	957.2292	975.2289	1011.8126	1028.3877	1059.0571	1077.1626	1129.3744	1133.9105	1190.1252	1228.722	1253.551	1259.9497	1307.8742	1325.7543	1387.0891	1446.5911	1472.21	1511.3971	1514.7421	1573.8275	3066.7039	3109.0262	3129.3405	3195.9134	3241.3752	3279.3017	3508.6292
C1NC11CN2N=CC=C12	C1N[C@]21Cn1nccc21	
InChI=1S/C6H7N3/c1-2-8-9-4-6(3-7-6)5(1)9/h1-2,7H,3-4H2	InChI=1S/C6H7N3/c1-2-8-9-4-6(3-7-6)5(1)9/h1-2,7H,3-4H2/t6-/m1/s1
