18
gdb 124525	3.882	1.05325	0.87525	3.5976	73.55	-0.229	0.0171	0.2461	1326.85	0.148801	-435.309997	-435.301166	-435.300222	-435.34407	32.779	
C	-0.0474835704	 1.4467162463	-0.2357568992	-0.38209
C	-0.007623539	-0.0595182919	 0.0826533473	-0.086101
C	 0.6953301467	-0.3402238619	 1.4172971676	-0.416038
C	-1.3919457238	-0.6396117336	 0.0270660526	 0.392586
N	-2.2043901221	-0.6098361889	-1.0235257911	-0.41088
C	-3.3132406115	-1.249485982	-0.5673199915	 0.41336
O	-4.3973553528	-1.4407178595	-1.3312887789	-0.409796
N	-3.2676862678	-1.6788167286	 0.6799140997	-0.294969
N	-2.0137264382	-1.2702555877	 1.040511287	-0.252388
H	 0.968211768	 1.848977224	-0.3004087659	 0.113849
H	-0.5572938967	 1.6243342871	-1.1848402921	 0.144383
H	-0.5828529761	 1.9956817267	 0.54637405	 0.11977
H	 0.56325229	-0.5503032635	-0.7164258639	 0.111436
H	 0.1730692176	 0.1420102901	 2.2520502642	 0.120817
H	 0.7656273147	-1.4131908197	 1.6244438348	 0.121345
H	 1.7127982575	 0.0590502662	 1.397831704	 0.128529
H	-4.1983139928	-1.0478229622	-2.1893432179	 0.309365
H	-1.6807202633	-1.463852601	 1.9692287434	 0.276822
31.7699	138.0224	182.9097	239.3331	268.5322	302.2971	336.7671	391.9392	405.5414	435.5796	529.142	533.6107	615.6024	730.8898	767.0348	781.9332	890.1965	932.3373	970.3537	1031.5159	1052.1268	1103.9522	1126.4207	1159.3288	1192.6842	1219.7653	1306.7404	1331.1627	1335.0753	1396.3432	1416.975	1427.7713	1480.9978	1490.5579	1493.1963	1504.8285	1515.9557	1574.2658	1636.5747	3021.174	3029.322	3038.3756	3094.631	3105.5332	3114.2949	3133.8691	3681.9043	3816.9196
CC(C)C1=NC(O)=NN1	CC(C)c1nc(O)n[nH]1	
InChI=1S/C5H9N3O/c1-3(2)4-6-5(9)8-7-4/h3H,1-2H3,(H2,6,7,8,9)	InChI=1S/C5H9N3O/c1-3(2)4-6-5(9)8-7-4/h3H,1-2H3,(H2,6,7,8,9)
