19
gdb 118827	2.68373	0.93982	0.78827	2.6488	74.78	-0.2586	-0.0417	0.2168	1492.4861	0.154912	-460.13897	-460.128754	-460.12781	-460.174903	35.466	
C	-0.4767720106	 1.3204189084	-0.2151237393	-0.227233
O	-0.3217041455	-0.0800553423	-0.1910481065	-0.234736
C	 0.6236736078	-0.5424999151	-1.1273037535	-0.121755
C	 0.7277387076	-2.0495815548	-0.9944675028	 0.377793
C	 0.9171905177	-2.5681152987	 0.4141374894	-0.458239
O	-0.1553016466	-2.8135799104	-1.8134722444	-0.272887
C	 1.2394549115	-2.8670110118	-2.1293712328	-0.111888
C	 1.6469842717	-2.2783732905	-3.4415564854	 0.131142
O	 2.6928582172	-2.5380121961	-3.9807113024	-0.246129
H	 0.467775778	 1.8383362895	 0.0142557942	 0.107829
H	-0.8338553397	 1.6735799838	-1.1948505055	 0.110994
H	-1.2169536974	 1.5782988467	 0.5454159712	 0.133784
H	 0.3229235405	-0.2697085247	-2.149303136	 0.095276
H	 1.612280138	-0.0890707459	-0.9356730074	 0.098157
H	 0.0762837482	-2.2551861487	 1.0365643079	 0.154202
H	 0.9766907696	-3.6584753894	 0.4151333326	 0.129478
H	 1.8338196868	-2.1623835157	 0.8542631371	 0.126165
H	 1.7532004151	-3.7961583977	-1.8834274551	 0.1135
H	 0.8992555801	-1.5927928569	-3.8951224812	 0.094548
67.9318	80.7324	91.3756	135.5998	186.2458	212.8051	229.3377	259.5149	339.1327	372.7924	413.5375	444.4029	480.0481	554.3712	754.2268	837.9224	927.8125	954.3503	986.2656	1006.0861	1049.2427	1101.5328	1106.3834	1131.4354	1161.3222	1184.8155	1224.7695	1245.1871	1291.6792	1301.4051	1377.6211	1406.9619	1415.0774	1457.3941	1476.0655	1479.9308	1485.8272	1496.7135	1501.8103	1520.3729	1820.9317	2904.3838	2952.5887	2974.9758	3014.3596	3021.2643	3049.6815	3121.7208	3121.8158	3123.8809	3142.8625
COCC1(C)OC1C=O	COC[C@@]1(C)O[C@H]1C=O	
InChI=1S/C6H10O3/c1-6(4-8-2)5(3-7)9-6/h3,5H,4H2,1-2H3	InChI=1S/C6H10O3/c1-6(4-8-2)5(3-7)9-6/h3,5H,4H2,1-2H3/t5-,6+/m0/s1
