15
gdb 6357	5.46819	1.12988	0.94752	4.8697	60.41	-0.2552	-0.009	0.2463	1194.1913	0.116696	-437.007658	-436.998487	-436.997543	-437.042699	30.122	
C	-0.1292611073	 1.294919456	 0.1591119154	-0.23693
O	 0.0082486257	-0.1104192594	-0.0798450245	-0.271219
C	 0.6953901152	-0.4233893998	-1.2075923539	 0.543512
O	 1.1669822938	 0.3698470328	-1.971525649	-0.357518
N	 0.7394394606	-1.8121443449	-1.2943032515	-0.427049
C	 1.349211557	-2.5768937421	-2.2976750033	 0.412808
C	 1.194383064	-4.0710324494	-2.0588086909	-0.502192
O	 1.9289244492	-2.1050610432	-3.2400862249	-0.295143
H	 0.8509025327	 1.7661645923	 0.2655882578	 0.14561
H	-0.6637227946	 1.7759987366	-0.6636885213	 0.145702
H	-0.6970135916	 1.3816345488	 1.0855301801	 0.134168
H	 0.2766426043	-2.2988508012	-0.5420633849	 0.261946
H	 0.1368112154	-4.3540154978	-2.0254583665	 0.143524
H	 1.6856328285	-4.6044647613	-2.8712852955	 0.159087
H	 1.6483498272	-4.3631887273	-1.1057884771	 0.143693
57.7445	77.7915	91.3435	108.1201	153.8784	181.0008	304.3699	348.4711	409.1795	565.888	582.8012	629.169	742.1633	784.1359	915.4645	936.3671	1028.264	1051.7659	1104.5048	1183.4248	1190.3277	1216.1664	1262.7346	1386.1276	1463.6643	1473.1555	1481.5086	1482.6229	1497.9659	1519.3996	1819.3286	1886.0282	3041.6787	3053.7736	3104.1681	3129.482	3159.8306	3168.4683	3631.5132
COC(=O)NC(C)=O	COC(=O)NC(=O)C	
InChI=1S/C4H7NO3/c1-3(6)5-4(7)8-2/h1-2H3,(H,5,6,7)	InChI=1S/C4H7NO3/c1-3(6)5-4(7)8-2/h1-2H3,(H,5,6,7)
