16
gdb 10807	5.13883	1.50498	1.18246	3.5039	68.89	-0.2042	0.0175	0.2218	987.1215	0.132313	-379.984371	-379.976516	-379.975572	-380.017127	28.509	
C	 0.0193082083	 1.4970392888	 0.058597792	-0.474737
C	-0.0045820401	-0.0001267101	 0.0011098877	 0.24439
C	-0.0540390209	-0.6904915912	-1.1402929204	-0.059702
N	-0.0939410128	-2.0812596693	-1.178780113	-0.371163
C	 0.04776671	-2.8769656431	-0.0529835143	 0.457289
O	 0.0881093652	-4.0921589685	-0.1162561034	-0.412621
N	 0.1547118235	-2.1761210959	 1.1188109173	-0.360316
C	 0.0017485398	-0.739652197	 1.3143818436	-0.232244
H	 0.9247547519	 1.8684013805	 0.5575160347	 0.123042
H	-0.01575728	 1.9352616673	-0.9424445004	 0.122961
H	-0.8335771847	 1.8923716812	 0.6274008137	 0.122666
H	-0.0745177564	-0.2043120754	-2.1092034031	 0.108996
H	-0.0905668763	-2.579197205	-2.0519820525	 0.259907
H	 0.2149756243	-2.7703947366	 1.9295860879	 0.252843
H	 0.8253476925	-0.3696855014	 1.9455245289	 0.110845
H	-0.9252469344	-0.5169430644	 1.8731583014	 0.107845
43.792	98.0328	196.2034	270.1712	299.1731	406.4125	454.7009	458.0624	475.7777	548.9619	611.1142	756.556	760.5632	835.9891	874.3197	962.1426	1006.9389	1022.9762	1089.2468	1100.3715	1188.7341	1222.9519	1244.9525	1286.6265	1381.3581	1420.0153	1430.4515	1460.3609	1474.7617	1494.5101	1499.6766	1537.0024	1767.9397	1815.2296	2928.8498	2972.2517	3005.4363	3044.8785	3108.6394	3193.7734	3649.6313	3679.0712
CC1=CNC(=O)NC1	CC1=CNC(=O)NC1	
InChI=1S/C5H8N2O/c1-4-2-6-5(8)7-3-4/h2H,3H2,1H3,(H2,6,7,8)	InChI=1S/C5H8N2O/c1-4-2-6-5(8)7-3-4/h2H,3H2,1H3,(H2,6,7,8)
