18
gdb 6869	2.94594	1.63856	1.4576	1.0967	75.16	-0.242	0.0386	0.2806	971.115	0.150202	-347.762396	-347.753033	-347.752089	-347.79564	34.587	
C	-0.1062231916	 1.556240439	-0.0492485065	-0.444037
C	-0.0161855052	 0.0460411683	-0.0314669423	 0.267119
C	-1.2348947426	-0.6777235957	-0.5692924683	-0.450332
C	 1.3253712361	-0.6021132331	-0.2480227121	 0.086453
O	 2.456570565	 0.1791013257	-0.4539410927	-0.426695
C	 0.6961962762	-0.6481554402	 1.1469297304	-0.317922
C	 1.3459434433	 0.0957314388	 2.1802472526	 0.295588
C	 1.9620657563	 0.7144671487	 3.0110513079	-0.428226
H	 0.8259605126	 2.0191892449	 0.275183803	 0.131522
H	-0.3189165798	 1.9059868889	-1.0654931832	 0.11703
H	-0.9125297125	 1.9068355042	 0.6039321075	 0.115787
H	-1.4375654189	-0.3750619056	-1.6029783643	 0.121902
H	-1.0978618824	-1.7640673704	-0.5606970863	 0.114355
H	-2.1251615508	-0.4490283906	 0.0275348977	 0.121674
H	 1.3498355597	-1.5422534413	-0.797147147	 0.095152
H	 2.8915031753	 0.3118291855	 0.398510846	 0.291538
H	 0.2783539489	-1.6008665279	 1.4597058849	 0.110145
H	 2.4619558504	 1.2652456708	 3.7690531526	 0.198947
115.4811	129.3575	153.3617	199.4174	221.6909	231.6887	281.3484	340.928	356.1203	397.6564	516.1744	538.5314	590.948	642.4491	660.6599	703.9922	816.977	830.5554	964.3295	973.8543	998.0675	1019.3679	1077.51	1113.6442	1149.5484	1173.6233	1242.8519	1323.9055	1348.4307	1373.4586	1408.1664	1415.479	1435.7985	1478.8157	1488.2736	1497.699	1508.581	2221.0529	3023.1538	3036.5337	3087.7053	3093.3552	3095.0357	3112.8718	3144.9612	3145.7659	3501.6614	3750.1734
CC1(C)C(O)C1C#C	CC1(C)[C@@H](O)[C@H]1C#C	
InChI=1S/C7H10O/c1-4-5-6(8)7(5,2)3/h1,5-6,8H,2-3H3	InChI=1S/C7H10O/c1-4-5-6(8)7(5,2)3/h1,5-6,8H,2-3H3/t5-,6+/m1/s1
