21
gdb 70677	2.68416	1.55357	1.14526	1.6575	83.61	-0.2369	0.0305	0.2674	1143.8968	0.183312	-387.091393	-387.082858	-387.081914	-387.124382	33.315	
C	 0.0361666839	 1.5310173648	 0.0353855403	-0.450999
C	 0.0319775764	 0.013567721	 0.0484044746	 0.381984
C	-0.904073411	-0.5823127956	-0.989830069	-0.324696
C	-0.9584106878	-2.0627045982	-1.2607629461	-0.042946
C	-0.481286148	-3.1128437744	-0.5948241206	-0.050395
C	 0.2859580806	-3.1652212428	 0.697037779	-0.243957
C	-0.0122115503	-2.0569009706	 1.712776312	-0.256402
C	 0.4315895034	-0.6715456115	 1.2867596708	 0.006446
O	 1.3419958466	-0.5664686001	 0.1803908363	-0.285573
H	 0.7379162947	 1.9204754879	 0.7765024588	 0.125679
H	 0.3377746985	 1.9064382822	-0.9487524637	 0.123009
H	-0.9605581891	 1.9295099235	 0.2544871898	 0.117269
H	-1.9203924255	-0.229164495	-0.7524866221	 0.114733
H	-0.669761023	-0.0910621638	-1.9461941388	 0.113444
H	-1.4912584043	-2.2813400746	-2.1855689769	 0.082457
H	-0.6530552318	-4.0867469519	-1.0505855068	 0.080822
H	 0.0829833187	-4.1292127927	 1.1783666052	 0.094031
H	 1.3615360847	-3.1590031761	 0.4763817534	 0.128754
H	-1.0847684532	-2.0359390739	 1.9455176289	 0.106937
H	 0.4999812453	-2.3039231247	 2.6504950736	 0.101487
H	 0.694688611	-0.0180568334	 2.1219770711	 0.077914
66.9934	155.8217	190.4971	254.0404	260.3481	327.7336	353.4458	403.8652	425.1094	520.3435	613.84	643.6943	682.6284	762.4591	799.879	848.6183	876.1438	910.8661	940.2994	970.6454	1002.6669	1016.2379	1028.6931	1059.4833	1094.5841	1105.4309	1123.5624	1198.1129	1236.4426	1266.6614	1272.5447	1294.238	1348.2201	1378.3939	1397.2118	1407.1363	1409.2401	1439.459	1458.9433	1465.3218	1475.8108	1485.3268	1491.71	1517.7948	1749.4019	2985.5735	3006.0494	3020.5006	3022.5744	3032.4026	3052.743	3058.7785	3076.5415	3094.3145	3117.4668	3124.0228	3143.6293
CC12CC=CCCC1O2	C[C@]12CC=CCC[C@H]1O2	
InChI=1S/C8H12O/c1-8-6-4-2-3-5-7(8)9-8/h2,4,7H,3,5-6H2,1H3	InChI=1S/C8H12O/c1-8-6-4-2-3-5-7(8)9-8/h2,4,7H,3,5-6H2,1H3/t7-,8+/m1/s1
