18
gdb 110284	2.93521	1.27574	1.10326	1.9854	73.89	-0.2211	-0.0264	0.1947	1169.9473	0.145548	-439.029541	-439.020523	-439.019579	-439.063464	32.531	
C	 0.2444652667	 1.3259417393	-0.1597630623	-0.24737
O	-0.1720850561	 0.0086657085	 0.1671971055	-0.25123
C	 0.525772502	-0.5440173611	 1.249423327	 0.000129
C	 0.0897962139	-1.9980481204	 1.4909477571	-0.070466
C	 1.451358352	-2.5645415831	 1.0624897563	-0.177875
N	 0.9378184554	-2.6759074108	 2.4216785242	-0.08219
C	 1.5730723029	-2.0341523104	 3.5718298856	-0.320773
C	 1.8975793552	-1.1494616447	 0.7716891312	 0.375122
O	 2.8152849489	-0.674653316	 0.1631225717	-0.315596
H	 1.2948228247	 1.3486637845	-0.470590944	 0.143677
H	-0.3887529311	 1.6600526699	-0.984342038	 0.130443
H	 0.1093469041	 2.0060999072	 0.6951281345	 0.106456
H	 0.5194389016	 0.1292717559	 2.1188366175	 0.080695
H	-0.889857113	-2.3938502885	 1.2495497782	 0.120507
H	 1.7133775818	-3.4668753898	 0.5206519646	 0.115498
H	 1.9775899807	-1.0296871008	 3.3942774651	 0.122087
H	 0.8372780889	-1.9740215976	 4.3790872023	 0.133639
H	 2.3926160314	-2.6759743022	 3.9061199235	 0.137246
86.6578	119.9546	140.559	165.3347	178.9396	248.492	310.5105	355.5426	403.0041	456.5626	537.0149	652.675	727.0768	749.4843	875.9796	902.811	923.9346	964.3298	1003.8124	1018.7217	1063.7828	1104.1163	1147.5916	1158.6959	1178.899	1182.6638	1204.5701	1230.9186	1241.8895	1256.7077	1357.7688	1373.9469	1453.9671	1477.9053	1485.3749	1492.808	1499.4119	1513.8724	1867.1022	2988.5363	2994.3903	3017.1159	3072.9985	3089.0265	3118.6117	3128.6725	3175.1338	3190.3454
COC1C2C(N2C)C1=O	CO[C@H]1[C@H]2[C@H](N2C)C1=O	
InChI=1S/C6H9NO2/c1-7-3-4(7)6(9-2)5(3)8/h3-4,6H,1-2H3	InChI=1S/C6H9NO2/c1-7-3-4(7)6(9-2)5(3)8/h3-4,6H,1-2H3/t3-,4+,6-,7?/m0/s1
