20
gdb 124554	2.40558	1.37381	1.0052	3.0722	80.78	-0.2489	-0.0004	0.2485	1257.9334	0.169958	-403.162393	-403.152911	-403.151967	-403.197061	34.624	
C	-0.3051876645	 1.7160937994	-0.2715270831	-0.382699
C	 0.1534192847	 0.2683055908	-0.0527254815	-0.077653
C	-1.0310700295	-0.6365064607	 0.3440243757	-0.386253
C	 0.8641830274	-0.2990381896	-1.2552259562	 0.320321
N	 0.6303175746	 0.1630234854	-2.460698819	-0.211342
O	 1.4183922059	-0.5918443826	-3.3238656057	-0.174909
C	 2.1075071397	-1.4856818405	-2.5989802327	-0.001025
C	 1.8180603209	-1.372734679	-1.2780483063	 0.071096
C	 2.3662003233	-2.1574089694	-0.1282502186	-0.515423
H	 0.5373052463	 2.3657564314	-0.5230362768	 0.121155
H	-1.0249811068	 1.7768980945	-1.0920281841	 0.139454
H	-0.7814402414	 2.1012121693	 0.635509093	 0.104708
H	 0.8729200854	 0.2547102269	 0.7773651274	 0.081773
H	-1.7834617117	-0.6487258182	-0.4509131879	 0.131318
H	-0.7141074109	-1.66856645	 0.5221277504	 0.116216
H	-1.5047091866	-0.2659956066	 1.2587001286	 0.115319
H	 2.7685093659	-2.1337106915	-3.1547302886	 0.145422
H	 2.8121484341	-1.5031081493	 0.6292917775	 0.135627
H	 1.5899004392	-2.7463696542	 0.3729460277	 0.136811
H	 3.141539434	-2.851644836	-0.46292966	 0.130085
41.2971	124.5812	155.9782	174.5019	221.6908	252.5017	264.3905	285.7458	351.5173	428.3319	496.658	604.2227	613.2238	699.1169	749.1646	836.6146	886.7328	921.6557	932.7485	945.7009	970.9641	1017.4914	1067.3646	1106.1688	1121.5774	1149.737	1164.284	1214.5549	1290.5503	1332.5951	1342.4817	1397.3847	1418.9987	1423.8709	1436.7492	1482.9684	1484.687	1489.5863	1498.2938	1500.2253	1502.8323	1519.887	1655.8161	3009.9687	3031.2941	3034.9148	3043.8335	3081.226	3106.2823	3110.4684	3113.3277	3114.5715	3124.821	3256.7514
CC(C)C1=NOC=C1C	CC(C)c1nocc1C	
InChI=1S/C7H11NO/c1-5(2)7-6(3)4-9-8-7/h4-5H,1-3H3	InChI=1S/C7H11NO/c1-5(2)7-6(3)4-9-8-7/h4-5H,1-3H3
