21
gdb 58742	3.42707	1.14098	1.05214	2.3039	79.34	-0.2392	0.0807	0.3199	1254.3235	0.180219	-424.174291	-424.164892	-424.163948	-424.208056	36.274	
C	-0.0659176713	 1.5349386905	 0.0010375599	-0.405064
C	-0.0434083152	 0.0045409248	 0.0165462062	-0.004409
O	 0.5329821825	-0.5023201535	 1.2138427434	-0.434617
C	-1.4223020353	-0.5835930595	-0.1406758068	 0.420818
C	-2.5960379066	-0.2614904775	-1.0967020908	-0.313379
C	-3.1157156681	-1.1730199638	 0.0490472475	 0.400962
C	-4.5181122208	-1.5426645485	 0.4156214334	-0.50776
C	-1.8598548879	-2.0676194945	-0.1140265425	-0.298378
O	-2.3434236963	-0.3310249573	 1.0116442976	-0.394618
H	 0.934843884	 1.9190698381	 0.2129017434	 0.122579
H	-0.3891855478	 1.9170753785	-0.9728277178	 0.112977
H	-0.7565339256	 1.9110004635	 0.76228905	 0.128687
H	 0.5889452354	-0.3655726979	-0.8002147269	 0.090461
H	-0.1478813554	-0.4214412091	 1.8941605698	 0.289927
H	-2.9547183323	 0.7683168011	-1.0673203925	 0.105664
H	-2.5632938258	-0.6762389395	-2.1075663405	 0.093388
H	-4.9665986405	-2.1529184447	-0.3746106572	 0.12759
H	-4.532528853	-2.1172273615	 1.3467209619	 0.133694
H	-5.1300805791	-0.6456927906	 0.550282123	 0.133277
H	-1.7587567943	-2.6474302493	-1.0353071613	 0.091132
H	-1.5621815766	-2.6224920393	 0.7759026601	 0.107069
77.0687	139.7873	153.8631	194.5615	239.7044	289.0341	300.189	363.1648	388.9466	445.337	487.9114	530.0732	608.7779	616.9605	659.7826	709.8057	795.7216	886.6374	909.5862	947.6071	955.6768	987.471	1019.4771	1055.3098	1075.6782	1086.8675	1116.2578	1129.2467	1135.2622	1158.1797	1178.5975	1212.6866	1261.7253	1298.5577	1343.1936	1378.1104	1399.1664	1413.2615	1434.1799	1467.8201	1476.9554	1488.6514	1490.2149	1498.1397	1525.9376	3037.3488	3039.1301	3039.5329	3057.3003	3067.4075	3110.9569	3114.0595	3115.3058	3126.985	3143.1654	3150.0451	3774.4834
CC(O)C12CC(C)(C1)O2	C[C@@H](O)[C@@]12C[C@@](C)(C1)O2	
InChI=1S/C7H12O2/c1-5(8)7-3-6(2,4-7)9-7/h5,8H,3-4H2,1-2H3	InChI=1S/C7H12O2/c1-5(8)7-3-6(2,4-7)9-7/h5,8H,3-4H2,1-2H3/t5-,6-,7+/m1/s1
