18
gdb 100564	2.33805	1.21442	0.88959	2.3248	70.32	-0.2612	-0.0387	0.2225	1307.768	0.146712	-476.201181	-476.191802	-476.190858	-476.235946	33.857	
O	 0.4466699882	 0.3456030215	 1.0198983632	-0.397165
C	 0.0377636917	 0.0381322769	-0.3004677842	-0.111989
C	-1.4369730587	-0.4284312995	-0.4032798332	 0.022355
O	-1.8450314457	-0.3594354235	-1.7401904015	-0.434114
C	-1.6419264158	-1.8475053267	 0.1260905302	 0.355137
O	-2.0464362626	-2.705916784	-0.6414183072	-0.367015
C	-1.3561524018	-2.1487926516	 1.5525808728	-0.109813
C	-2.4557018404	-2.8474657821	 2.3040751844	-0.220085
N	-1.2467917938	-3.5650549784	 1.937635587	-0.30121
H	 0.024407064	 1.1709187708	 1.2794343348	 0.291142
H	 0.1411536003	 0.895363819	-0.9775552594	 0.121115
H	 0.706402115	-0.7494583959	-0.6612632628	 0.128494
H	-2.0423095899	 0.2503152505	 0.2249452435	 0.08365
H	-2.1252798638	-1.2618882562	-1.967585339	 0.29695
H	-0.7045475475	-1.4555303639	 2.0711575338	 0.128751
H	-2.5733621374	-2.6303145718	 3.3617258093	 0.131141
H	-3.3729369863	-3.052748197	 1.7589715309	 0.132659
H	-1.4358255855	-4.1175450482	 1.1006949374	 0.249996
60.2335	84.4739	137.063	172.041	233.4118	251.4032	316.3745	348.0334	369.5727	380.7787	463.7686	517.5605	667.5604	742.4059	806.6727	851.5798	882.8611	966.1531	1002.4132	1004.9851	1037.2616	1070.5364	1095.2336	1123.1595	1149.5976	1161.8588	1176.1076	1185.2884	1283.9662	1287.9806	1321.9824	1324.0776	1385.6445	1397.3566	1408.2505	1447.1418	1499.4855	1503.4537	1754.3686	2942.2057	3028.3755	3093.6314	3112.8486	3193.1624	3207.4239	3469.3633	3662.6999	3817.3037
OCC(O)C(=O)C1CN1	OC[C@@H](O)C(=O)[C@H]1CN1	
InChI=1S/C5H9NO3/c7-2-4(8)5(9)3-1-6-3/h3-4,6-8H,1-2H2	InChI=1S/C5H9NO3/c7-2-4(8)5(9)3-1-6-3/h3-4,6-8H,1-2H2/t3-,4-/m1/s1
