22
gdb 61595	4.48579	0.80724	0.75962	2.052	83.17	-0.2311	0.0629	0.294	1580.2664	0.193438	-404.294078	-404.284512	-404.283568	-404.329151	35.873	
O	-0.1153686206	 1.4152157089	-0.0779398744	-0.427108
C	-0.0569665958	-0.0066963529	-0.0199116771	 0.092081
C	 0.7439521099	-0.5891181152	-1.1904417195	-0.161998
N	 0.0730250609	-0.3671352603	-2.4615929046	-0.054822
C	 0.3781944963	 0.8682122437	-3.1694536793	-0.201018
C	 0.8981147182	-0.4365070405	-3.6628110373	-0.228305
C	 0.4634397745	-0.514729787	 1.3186599786	 0.016393
C	 1.564198609	 0.1991785819	 2.0663307063	-0.275467
C	 0.1494876607	 0.2201427864	 2.5921148219	-0.271803
H	 0.7895304522	 1.7451065188	-0.1054120767	 0.277808
H	-1.0987996064	-0.3267059594	-0.1392181859	 0.102442
H	 1.76910369	-0.1664855333	-1.1705802676	 0.067922
H	 0.8457133308	-1.6719636307	-1.0488152475	 0.102513
H	-0.46147542	 1.3554332992	-3.6558644691	 0.118901
H	 1.0980248256	 1.5512525609	-2.7221170261	 0.096283
H	 1.9644332465	-0.6236300714	-3.5403411092	 0.105074
H	 0.4462896532	-0.9293360911	-4.5190045604	 0.11595
H	 0.4788968943	-1.5998574048	 1.3835659972	 0.083369
H	 2.3068285061	-0.4000812211	 2.5809773706	 0.111566
H	 1.9563396699	 1.1272761626	 1.662219615	 0.095155
H	-0.3944054588	 1.1524844018	 2.4932715737	 0.126546
H	-0.0837461966	-0.3570784665	 3.4797068213	 0.108516
57.4881	65.326	106.4522	155.8687	252.5612	270.3271	313.2946	333.5448	352.7458	418.0071	529.2178	592.2163	758.1245	782.0793	798.0178	827.181	845.8519	888.241	910.4214	938.4697	1001.3947	1025.5076	1028.8114	1052.1345	1059.2589	1080.3563	1085.8863	1114.667	1115.6849	1140.6675	1155.2172	1166.3401	1177.4003	1198.0629	1229.8585	1245.3358	1295.1849	1323.4041	1335.8926	1391.3472	1401.4306	1424.4307	1460.5603	1480.4243	1493.6755	1504.4813	1523.7165	2898.6674	3045.1961	3053.3652	3091.4381	3101.7568	3127.1629	3136.5431	3141.8907	3175.684	3191.614	3207.0297	3231.211	3801.173
OC(CN1CC1)C1CC1	O[C@@H](CN1CC1)C1CC1	
InChI=1S/C7H13NO/c9-7(6-1-2-6)5-8-3-4-8/h6-7,9H,1-5H2	InChI=1S/C7H13NO/c9-7(6-1-2-6)5-8-3-4-8/h6-7,9H,1-5H2/t7-/m0/s1
