15
gdb 33741	3.3735	1.5536	1.31966	4.8954	69.04	-0.2586	-0.0007	0.2579	948.703	0.114556	-416.740255	-416.733749	-416.732804	-416.7711	26.271	
N	 0.0496838387	-1.1376409841	-0.0336671588	-0.33271
C	 0.0438538629	 0.0182931039	-0.0249230958	 0.151755
C	 0.0176416425	 1.4620726574	 0.0160923077	 0.185381
C	-0.3125682745	 2.2725943008	 1.3213609364	-0.261657
C	 0.4848884782	 3.3372042312	 0.5030553065	-0.085308
N	 1.3148855611	 2.2299438563	-0.100646175	-0.317095
C	-0.5221625347	 3.6065541132	-0.6443449168	 0.052787
O	-0.1513481423	 3.0603197272	-1.9122980356	-0.211911
C	-0.8732127199	 2.2369071791	-1.0108320398	 0.014472
H	-1.3645988052	 2.4572852262	 1.5634016872	 0.11287
H	 0.227974955	 1.8980265702	 2.1941326041	 0.120962
H	 1.0072175829	 4.1757706356	 0.9583375759	 0.093853
H	 1.922647864	 1.8797848878	 0.6413804091	 0.232297
H	-1.1951590356	 4.4559362465	-0.640557838	 0.117821
H	-1.8406938033	 1.8573486788	-1.317129487	 0.126483
145.268	168.1045	384.9691	389.3363	503.7087	516.2831	528.9533	548.7391	663.1999	703.8133	800.0876	833.4085	865.7764	886.0589	904.8045	950.5303	962.429	973.4	1013.1342	1024.7255	1065.517	1091.2512	1132.1473	1202.3513	1207.9176	1231.7554	1249.1199	1265.0538	1307.5589	1356.5061	1401.4442	1498.6533	2357.0657	3044.4813	3119.5762	3148.1969	3185.7919	3198.0917	3454.9137
N#CC12CC(N1)C1OC21	N#C[C@@]12C[C@@H](N1)[C@H]1O[C@@H]21	
InChI=1S/C6H6N2O/c7-2-6-1-3(8-6)4-5(6)9-4/h3-5,8H,1H2	InChI=1S/C6H6N2O/c7-2-6-1-3(8-6)4-5(6)9-4/h3-5,8H,1H2/t3-,4-,5-,6-/m1/s1
