13
gdb 50055	3.48931	0.803	0.69437	4.423	79.92	-0.2787	-0.0645	0.2142	1514.0707	0.088356	-415.578427	-415.570032	-415.569088	-415.612634	28.822	
O	 0.0986518884	 0.3939662598	-0.7303652925	-0.264867
C	 0.1339404857	 1.5083722603	-0.2810195579	 0.149584
N	 1.1825422144	 2.0006901706	 0.4995470837	-0.061849
C	 2.5667446314	 1.7699766327	 0.1991270778	-0.227395
C	 1.9896271977	 3.1743847899	 0.1678576857	-0.234006
C	 1.8175049501	 3.8424623315	-1.0883735581	 0.151459
C	 1.6632726472	 4.435229625	-2.1306602274	 0.031424
C	 1.4960604894	 5.0978999227	-3.3119176392	 0.216715
N	 1.3541337529	 5.6636960933	-4.3165248676	-0.325926
H	-0.6884785947	 2.2400708112	-0.3705133263	 0.108038
H	 3.2051773227	 1.4985915366	 1.0344973101	 0.14862
H	 2.7985693918	 1.3003408702	-0.7525590455	 0.16053
H	 2.1969490431	 3.8317497362	 1.0091881973	 0.147673
54.5611	97.606	129.5077	191.1866	227.7671	276.6812	333.9853	465.1915	524.3148	576.0482	581.3631	622.1317	713.917	815.7417	947.0191	969.491	1034.8829	1051.3768	1078.7623	1128.8529	1152.6255	1213.3369	1352.1855	1392.6977	1414.6219	1502.5856	1813.0788	2265.75	2395.3909	2985.1976	3120.716	3137.6497	3217.6401
O=CN1CC1C#CC#N	O=CN1C[C@H]1C#CC#N	
InChI=1S/C6H4N2O/c7-3-1-2-6-4-8(6)5-9/h5-6H,4H2	InChI=1S/C6H4N2O/c7-3-1-2-6-4-8(6)5-9/h5-6H,4H2/t6-,8?/m1/s1
