21
gdb 76887	2.29117	1.83998	1.51844	2.3326	76.32	-0.2441	0.0729	0.317	998.4134	0.185477	-424.240125	-424.232403	-424.231459	-424.271941	31.718	
C	-0.2289699896	 1.5602387881	 0.0615338285	-0.40861
C	 0.0347018264	 0.0585619959	-0.0065538983	-0.01095
C	 0.8080460421	-0.4687101407	-1.2472504215	-0.049437
C	 2.2189365348	 0.1346187971	-1.2776569449	-0.088887
O	 2.8777292089	-0.4576418916	-0.130627543	-0.299791
C	 1.9281916509	-1.3881762257	 0.4358073861	 0.062836
C	 1.1600698475	-1.9001107739	-0.7815977061	-0.241474
C	 0.8944858876	-0.5189529831	 1.1904747073	 0.137098
O	 1.529305994	 0.4493456636	 1.9942840284	-0.43818
H	 0.6928943304	 2.1439219421	 0.1183512555	 0.117123
H	-0.7940036798	 1.895534944	-0.8149842556	 0.104172
H	-0.8111601007	 1.8066207833	 0.9540893775	 0.124359
H	-0.9353488083	-0.4528002225	 0.0007526387	 0.069222
H	 0.2720529385	-0.375757789	-2.1935024772	 0.066252
H	 2.7661107707	-0.1419929108	-2.1878437982	 0.101822
H	 2.2382195304	 1.2245638715	-1.1830376578	 0.10582
H	 2.4817109017	-2.1008208517	 1.0476205872	 0.077851
H	 0.283141649	-2.4995079071	-0.5235756828	 0.102697
H	 1.7935302971	-2.4568511016	-1.4769478165	 0.104356
H	 0.2711417553	-1.120761467	 1.8594450207	 0.077506
H	 2.3558611332	 0.6570876293	 1.5346637921	 0.286213
107.4838	186.8474	258.9588	279.9466	312.4653	410.0596	456.3241	483.586	541.3833	568.2731	622.696	730.7362	780.7914	825.0563	831.6964	905.8592	916.5874	934.9979	942.979	978.568	988.8965	1002.646	1033.3653	1078.0801	1096.3443	1133.0589	1143.3048	1153.8237	1187.4403	1216.7831	1245.8338	1261.7522	1285.715	1298.9255	1321.0125	1344.6762	1350.8537	1366.7603	1385.1609	1416.2705	1445.8408	1489.9098	1493.3038	1496.6533	1531.3223	3020.7348	3021.6746	3039.5702	3056.8556	3064.7248	3077.5735	3099.9745	3105.5081	3117.6846	3119.3635	3121.2427	3727.2318
CC1C2COC(C2)C1O	C[C@H]1[C@H]2CO[C@H](C2)[C@H]1O	
InChI=1S/C7H12O2/c1-4-5-2-6(7(4)8)9-3-5/h4-8H,2-3H2,1H3	InChI=1S/C7H12O2/c1-4-5-2-6(7(4)8)9-3-5/h4-8H,2-3H2,1H3/t4-,5+,6+,7-/m0/s1
