15
gdb 130782	3.24831	1.45836	1.06455	5.3591	65.8	-0.2544	-0.0077	0.2467	1074.3123	0.113549	-453.945325	-453.937907	-453.936963	-453.978143	27.303	
O	-0.1330118188	 0.1387634608	 1.0616308878	-0.395067
C	-0.078793853	 1.2087263056	 0.5260327022	 0.51619
O	-1.1480333938	 2.0184325707	 0.2481189606	-0.238429
N	-0.7120622833	 3.211884143	-0.3824693748	-0.130603
C	 0.5667357471	 3.0834946621	-0.4674934692	 0.071298
N	 1.0325285145	 1.9027363163	 0.042126315	-0.144932
C	 2.3943773192	 1.4760433723	 0.1712644342	 0.018719
C	 2.760924685	 0.1060994559	-0.3234950696	-0.25204
C	 3.2285807485	 1.3214340438	-1.0781024468	-0.282743
H	 1.2072320586	 3.8339748668	-0.9065714903	 0.169222
H	 2.8854285511	 1.8366630204	 1.0699435702	 0.122479
H	 3.4767880463	-0.454002111	 0.2654808568	 0.134333
H	 1.9668037449	-0.4900481438	-0.754191855	 0.149915
H	 2.7518037065	 1.5375175768	-2.0274788907	 0.130926
H	 4.2712572472	 1.6104791502	-1.0184449503	 0.130733
49.0319	117.3274	171.498	243.5946	358.7922	399.953	541.3485	613.281	640.0781	762.3507	766.1101	784.9873	836.1585	890.8041	894.4763	903.0964	941.2845	972.3379	1060.6084	1072.8127	1085.7602	1127.5415	1138.3304	1193.8632	1215.777	1251.1302	1280.616	1394.7139	1433.4101	1466.6793	1501.276	1649.2001	1888.0896	3144.3717	3150.0022	3160.3839	3230.3087	3251.0255	3260.0384
O=C1ON=CN1C1CC1	O=c1oncn1C1CC1	
InChI=1S/C5H6N2O2/c8-5-7(3-6-9-5)4-1-2-4/h3-4H,1-2H2	InChI=1S/C5H6N2O2/c8-5-7(3-6-9-5)4-1-2-4/h3-4H,1-2H2
