20
gdb 78769	2.54855	1.59005	1.28948	2.2445	78.76	-0.2299	0.0683	0.2983	1082.5162	0.169724	-403.093442	-403.084757	-403.083813	-403.12598	34.285	
C	-0.1070886981	 1.6427783456	-0.0391418	-0.427676
C	 0.0662875507	 0.1372956268	 0.0423273193	 0.064975
N	 1.1226613609	-0.4949414832	-0.8251930716	-0.194384
C	 1.317877039	-1.571615864	 0.1872728624	-0.197591
C	 2.3795741522	-0.5508983572	 0.0195843119	 0.353468
C	 3.6897383306	-0.61141649	-0.6996618161	-0.495704
C	 2.0919639233	 0.0726374051	 1.3892099516	-0.369928
C	 0.6870615915	-0.5663263074	 1.2583834555	 0.351198
O	-0.1239002176	-0.8196912954	 2.3473868125	-0.477357
H	 0.8275815901	 2.1814064929	 0.136627241	 0.117492
H	-0.4684242516	 1.9226753381	-1.0337760427	 0.126019
H	-0.8438682085	 1.9809925889	 0.6971309082	 0.125015
H	-0.8755260294	-0.3620469717	-0.2118594966	 0.085214
H	 1.2452155397	-2.6311117311	-0.0246057582	 0.094209
H	 3.591485921	-1.1949774816	-1.6188282114	 0.134454
H	 4.0329753429	 0.3925985027	-0.9738265546	 0.122634
H	 4.4617201112	-1.0726988142	-0.0740959496	 0.115082
H	 2.684570449	-0.4343814432	 2.1593515124	 0.091736
H	 2.1660631233	 1.1560976056	 1.5268625465	 0.097037
H	 0.4183074797	-1.1454795966	 3.0732972897	 0.284108
158.9856	174.1862	192.0209	222.3844	257.9303	293.255	301.6641	386.1355	397.5427	502.3846	568.8736	591.0679	633.2597	710.9643	725.9165	829.1396	857.4172	891.652	926.838	963.6728	974.3035	1017.3428	1023.8996	1064.005	1100.6557	1120.8942	1128.2514	1148.5237	1151.7126	1186.915	1223.8132	1264.3147	1334.7706	1372.1638	1393.3616	1403.0111	1425.1267	1433.169	1484.6638	1489.5954	1490.3992	1494.0004	1513.5324	3029.9391	3034.6678	3040.3328	3047.0151	3084.7495	3090.3463	3106.6991	3118.2082	3121.0867	3191.9876	3811.3183
CC1N2C3C2(C)CC13O	C[C@H]1N2[C@H]3[C@]2(C)C[C@@]13O	
InChI=1S/C7H11NO/c1-4-7(9)3-6(2)5(7)8(4)6/h4-5,9H,3H2,1-2H3	InChI=1S/C7H11NO/c1-4-7(9)3-6(2)5(7)8(4)6/h4-5,9H,3H2,1-2H3/t4-,5+,6+,7-,8?/m1/s1
