21
gdb 74744	2.32988	1.71913	1.28098	0.5001	87.98	-0.2051	0.0096	0.2147	1105.4031	0.183781	-349.962879	-349.954731	-349.953787	-349.99508	32.821	
C	-0.0466093632	 1.4934533878	 0.087767725	-0.511857
C	-0.0455092017	 0.0053698201	-0.0127960077	 0.35589
C	-0.0685661841	-0.7854060952	-1.088116812	-0.190079
C	 0.0240593912	-2.2435891851	-0.5960255572	-0.098322
C	-0.8346223406	-2.1003772623	 0.6966864343	-0.196428
C	 0.0553626988	-0.934382046	 1.2147401441	-0.205191
C	 1.4330653993	-1.640191198	 1.1512787945	 0.355868
C	 2.5362368973	-1.3806252807	 2.1208910824	-0.511837
C	 1.4024649727	-2.4235292984	 0.0707137552	-0.190076
H	 0.8761952314	 1.8636723097	 0.554361228	 0.123415
H	-0.1362495386	 1.9631016882	-0.8961710006	 0.122779
H	-0.8741763524	 1.8537927333	 0.7125960421	 0.122497
H	-0.0845583968	-0.4857694221	-2.128190867	 0.088049
H	-0.264038	-3.0106959154	-1.3146466791	 0.053326
H	-1.8684896633	-1.8019018335	 0.4996939788	 0.08811
H	-0.8044671216	-2.9863663286	 1.3376942751	 0.088114
H	-0.1970592781	-0.4815026071	 2.1755114642	 0.049009
H	 2.2241600249	-1.5934032199	 3.1516440022	 0.12249
H	 3.4169280532	-1.9912457269	 1.9011934261	 0.12278
H	 2.8447889573	-0.3266676612	 2.1032475865	 0.123419
H	 2.2037597544	-3.0340453185	-0.325503335	 0.088042
137.6285	164.4031	189.8105	210.3241	284.5908	325.3521	460.9864	474.6153	531.1133	593.532	602.2003	622.9883	788.9999	806.0985	831.3712	834.7427	881.8115	889.9253	922.4488	934.3673	959.9037	1004.6947	1017.9651	1040.3262	1058.8729	1072.8627	1112.8869	1142.6587	1154.6003	1222.5359	1237.9419	1250.446	1252.5837	1268.3439	1296.9859	1324.7923	1411.678	1416.0939	1477.9022	1481.0309	1485.9167	1488.1782	1493.3047	1685.4899	1710.4164	3008.7016	3010.7649	3046.7587	3052.2237	3054.0724	3094.7871	3102.2986	3103.0549	3106.6858	3114.5022	3209.3936	3211.7069
CC1=CC2CC1C(C)=C2	CC1=C[C@@H]2C[C@H]1C(=C2)C	
InChI=1S/C9H12/c1-6-3-8-4-7(2)9(6)5-8/h3-4,8-9H,5H2,1-2H3	InChI=1S/C9H12/c1-6-3-8-4-7(2)9(6)5-8/h3-4,8-9H,5H2,1-2H3/t8-,9+
