21
gdb 107041	3.93505	1.13138	1.00298	0.9294	84.27	-0.2271	0.0176	0.2447	1274.1435	0.181943	-387.076539	-387.067591	-387.066647	-387.109873	34.439	
C	-0.3605596166	 1.2876344864	-0.0147078824	-0.253489
O	 0.243900408	 0.0170836153	 0.134775192	-0.289738
C	 0.8063399839	-0.4790666415	-1.0366466869	 0.42587
C	-0.0810450554	-1.0126620093	-2.1425833065	-0.344336
C	 0.7934060647	-1.9576856383	-1.3348979746	-0.134162
C	 2.1735632241	-2.3510315523	-1.870947689	-0.043152
C	 2.153373598	-3.1355815617	-3.1915574656	-0.38956
C	 2.8906273381	-1.0134968621	-1.9558416427	-0.074291
C	 2.1582563234	-0.0060437047	-1.4791998382	-0.167685
H	 0.3690482655	 2.0629060083	-0.2900848179	 0.107204
H	-1.1522874993	 1.2718183511	-0.7769795806	 0.108517
H	-0.7982491961	 1.5478412896	 0.9519479333	 0.125016
H	-1.142975585	-1.0729982014	-1.9257327391	 0.112137
H	 0.1662461719	-0.7803193443	-3.1731074558	 0.110134
H	 0.2789084871	-2.6309875375	-0.6598259831	 0.093441
H	 2.6797055493	-2.9797260083	-1.1230843928	 0.083916
H	 1.6433827946	-2.5732868591	-3.9797894875	 0.117357
H	 3.1710051334	-3.3482212826	-3.536103433	 0.110998
H	 1.6347677553	-4.0916295722	-3.0691248038	 0.115672
H	 3.8806756855	-0.9201360539	-2.3901672545	 0.091779
H	 2.4628190293	 1.0331235583	-1.4284671312	 0.094372
92.465	127.9331	171.4034	209.7584	237.566	246.158	342.9465	371.8526	397.1474	482.0271	554.2618	651.5165	699.3812	745.1466	783.4869	815.775	893.8372	922.9697	945.2551	969.8767	974.1707	990.1307	1043.7823	1051.0946	1057.7197	1104.8565	1113.6703	1119.0713	1146.4462	1181.4954	1213.5466	1253.7952	1261.0502	1311.694	1331.9456	1355.3112	1392.6374	1412.6539	1463.8977	1482.1222	1490.4428	1496.9571	1498.7936	1507.2164	1669.1789	2988.5219	2989.1114	3032.9697	3040.0217	3099.5525	3107.9574	3117.0465	3123.4552	3177.9233	3182.8408	3205.3193	3214.6511
COC12CC1C(C)C=C2	CO[C@]12C[C@H]1[C@@H](C)C=C2	
InChI=1S/C8H12O/c1-6-3-4-8(9-2)5-7(6)8/h3-4,6-7H,5H2,1-2H3	InChI=1S/C8H12O/c1-6-3-4-8(9-2)5-7(6)8/h3-4,6-7H,5H2,1-2H3/t6-,7-,8+/m0/s1
