18
gdb 125963	3.64827	1.19759	1.08774	3.3113	78.8	-0.2073	0.0321	0.2394	1161.6737	0.149614	-398.121253	-398.113173	-398.112228	-398.154309	30.557	
C	-0.517417309	 1.4876688975	-0.0049568975	-0.411882
C	-0.2640651107	 0.0063117259	 0.130558623	 0.006855
C	 0.9958655718	-0.606126733	-0.3735996772	-0.249394
N	 0.7620073159	-0.5176383417	 1.0636130102	-0.184731
C	 1.5438630606	 0.3552073921	 1.8210881098	 0.41785
C	 2.8370183206	 0.8333671132	 1.692703735	-0.304217
C	 3.0443478352	 1.600606642	 2.8610613637	-0.000527
N	 1.9814364869	 1.6122425246	 3.6560028711	-0.232961
N	 1.0793670946	 0.8429474875	 3.0013743247	-0.255439
H	 0.4163198457	 2.0554270718	 0.0068125406	 0.140018
H	-1.0360054047	 1.6935851214	-0.9468390124	 0.127096
H	-1.1477903939	 1.8578834823	 0.8107205343	 0.125893
H	-1.1575347268	-0.6146237972	 0.1241555194	 0.099944
H	 1.0042397646	-1.6126956433	-0.7817279851	 0.123249
H	 1.7309598845	 0.0700961938	-0.8049776744	 0.125178
H	 3.524571815	 0.6415632239	 0.8859792245	 0.097157
H	 3.9307247168	 2.1473950741	 3.1493326582	 0.106735
H	 0.185884133	 0.6527955549	 3.422074522	 0.269176
58.3908	114.249	177.8632	221.9623	285.0498	369.9597	426.7314	490.9297	529.5278	576.3342	680.7015	723.8842	773.9696	797.1887	857.0062	888.6653	913.5737	931.9115	994.0476	1039.5885	1047.4232	1067.9985	1118.8323	1131.4833	1134.0171	1166.2433	1193.6107	1227.7375	1278.7897	1338.1326	1375.3639	1399.3357	1422.01	1439.8396	1486.3771	1495.5035	1506.122	1510.3806	1606.9089	3038.4999	3099.6146	3104.1056	3117.7116	3135.8536	3191.5962	3238.6302	3273.3279	3675.9788
CC1CN1C1=CC=NN1	C[C@H]1CN1c1ccn[nH]1	
InChI=1S/C6H9N3/c1-5-4-9(5)6-2-3-7-8-6/h2-3,5H,4H2,1H3,(H,7,8)	InChI=1S/C6H9N3/c1-5-4-9(5)6-2-3-7-8-6/h2-3,5H,4H2,1H3,(H,7,8)/t5-,9?/m0/s1
