16
gdb 45140	2.87403	1.65991	1.11949	6.2407	73.84	-0.2213	-0.0248	0.1965	1040.674	0.126265	-437.897688	-437.890337	-437.889393	-437.929659	28.483	
O	-0.0425936867	-0.1083525491	-0.5627450175	-0.332647
C	 0.0920722834	 0.9987849371	-0.1092697895	 0.381344
O	-0.5060276689	 1.2744008887	 1.1183029057	-0.247479
C	-1.2055448542	 2.4577310686	 1.3270012448	 0.107418
C	-0.923067465	 3.1925032635	 2.6039799069	-0.329362
C	-0.5332488599	 3.8003365192	 1.2708844961	-0.025333
N	 0.8381478612	 3.8880187171	 0.876578816	-0.293978
C	 1.3644695316	 3.1961308864	-0.1737712448	 0.01556
C	 0.9797054142	 2.0026052255	-0.6818804391	-0.242111
H	-2.2321705284	 2.4159285964	 0.9696717466	 0.112854
H	-1.7429609362	 3.6328725994	 3.1589220397	 0.122982
H	-0.1122721159	 2.7870312461	 3.1977086445	 0.139429
H	-1.1528572538	 4.6205649107	 0.9094194188	 0.106471
H	 1.290949928	 4.7608528017	 1.0963663966	 0.252778
H	 2.2165544377	 3.6927902797	-0.632686781	 0.119949
H	 1.5042672528	 1.646384439	-1.5592190438	 0.112124
92.7517	127.3632	267.6804	316.1873	382.963	400.9271	453.0854	526.8457	542.0279	688.9485	739.1432	759.5522	768.7439	832.4429	848.9587	874.447	926.218	981.998	1019.9807	1042.0667	1065.2766	1087.8305	1138.9178	1153.3064	1182.8284	1234.0982	1264.0158	1330.1817	1384.5042	1414.4027	1443.1562	1475.4776	1545.8362	1692.2738	1808.3782	3099.0346	3128.4532	3146.3126	3154.0011	3215.542	3242.7402	3625.1062
O=C1OC2CC2NC=C1	O=C1O[C@H]2C[C@H]2NC=C1	
InChI=1S/C6H7NO2/c8-6-1-2-7-4-3-5(4)9-6/h1-2,4-5,7H,3H2	InChI=1S/C6H7NO2/c8-6-1-2-7-4-3-5(4)9-6/h1-2,4-5,7H,3H2/t4-,5+/m1/s1
