19
gdb 93067	2.1329	1.68421	1.00729	4.1667	77.66	-0.244	-0.002	0.2419	1187.7353	0.15924	-423.065012	-423.056357	-423.055413	-423.09885	32.468	
C	 0.0253725656	 1.4947376157	 0.1206281219	-0.390769
C	-0.0827048174	-0.0132090996	-0.0749346548	 0.148264
C	 0.6286490848	-0.4888549634	-1.3476937464	-0.265433
C	 0.3061285783	-1.9206042142	-1.690634851	-0.071433
C	 0.6554562642	-2.9214519051	-0.8887897842	-0.064195
C	 1.4518125066	-2.7046248775	 0.3745530256	-0.375192
C	 0.8189687317	-1.8327308562	 1.4580166838	 0.392307
O	 0.782109766	-2.1898001251	 2.6048420705	-0.305982
O	 0.4028656429	-0.5753465315	 1.1692600975	-0.248275
H	 1.0745278324	 1.8043379161	 0.1595465452	 0.125579
H	-0.4636995954	 2.021151362	-0.7042141719	 0.11699
H	-0.4536758548	 1.7877528089	 1.0574067272	 0.13751
H	-1.1407254323	-0.2972239005	-0.1469347859	 0.096459
H	 0.3175064459	 0.1759976541	-2.1591388496	 0.110569
H	 1.711572753	-0.3431363584	-1.2252495461	 0.115936
H	-0.252524605	-2.1167807682	-2.6009904867	 0.097482
H	 0.3910578623	-3.945359779	-1.134243288	 0.105117
H	 1.6810124314	-3.649546616	 0.8665918467	 0.136912
H	 2.4140710398	-2.232410912	 0.1247736763	 0.138155
57.1941	72.8367	188.4643	234.409	275.298	305.6543	350.7001	425.1988	470.5595	502.5662	555.9804	599.5481	683.807	727.9711	828.1437	878.5847	909.7788	948.525	965.8367	989.5947	1010.9302	1047.8779	1073.0215	1119.8452	1153.2911	1179.3551	1218.5061	1244.1089	1268.001	1318.3688	1329.4446	1382.7822	1395.953	1406.6561	1410.0568	1461.0709	1476.1442	1486.2605	1498.5988	1727.9206	1825.4222	3001.5542	3007.8264	3024.3217	3044.6525	3082.661	3117.4551	3132.4674	3132.7543	3163.4957	3186.8984
CC1CC=CCC(=O)O1	C[C@H]1CC=CCC(=O)O1	
InChI=1S/C7H10O2/c1-6-4-2-3-5-7(8)9-6/h2-3,6H,4-5H2,1H3	InChI=1S/C7H10O2/c1-6-4-2-3-5-7(8)9-6/h2-3,6H,4-5H2,1H3/t6-/m0/s1
