22
gdb 103484	3.17852	1.17215	1.14076	2.5558	81.22	-0.2264	0.0743	0.3007	1212.4937	0.195573	-404.332559	-404.323492	-404.322548	-404.366226	34.715	
C	-0.178685698	 1.6488277735	-0.1987691036	-0.480899
C	-0.1109111821	 0.1361664994	-0.1454517066	 0.294904
C	-1.2703335214	-0.4778600461	 0.6324468969	-0.103745
O	-1.1169800914	-0.2491655086	 2.0220348331	-0.423892
C	 0.5503301174	-0.7138686091	-1.174049008	-0.08597
C	 1.4906816059	-0.1004407853	-2.2027006804	-0.239175
C	 2.6123577096	 0.5914608771	-1.384339226	-0.229127
C	 2.406763447	 0.1137218162	 0.0799092886	-0.160538
N	 1.1283516698	-0.612325711	 0.1850518127	-0.150725
H	 0.6938769246	 2.1209822228	-0.6482581129	 0.117817
H	-1.056908855	 1.9581265658	-0.7763779572	 0.121629
H	-0.3000130419	 2.0398301687	 0.8165460598	 0.138682
H	-2.2213131699	-0.0174337779	 0.3429360579	 0.09984
H	-1.332515737	-1.5538918146	 0.4124720453	 0.08456
H	-0.2429737819	-0.6020102826	 2.233939284	 0.286426
H	 0.0967382327	-1.6691050818	-1.4313024246	 0.0817
H	 1.897326321	-0.8971410435	-2.8327919707	 0.10883
H	 0.9783382419	 0.5999160893	-2.8698621472	 0.108772
H	 3.6036865255	 0.315803984	-1.7537228808	 0.1033
H	 2.5460004853	 1.6791618311	-1.4622894994	 0.111831
H	 3.1938019576	-0.5887044905	 0.3724128312	 0.108376
H	 2.4337761602	 0.9421077832	 0.795610858	 0.107405
84.0407	137.5876	149.9713	161.0875	219.2134	251.2079	334.2904	357.9884	446.4107	501.9272	554.7053	675.1891	714.6532	719.1227	797.9592	809.4302	868.1196	900.0847	905.9712	939.1446	967.9479	996.1837	1037.7492	1057.6067	1065.4394	1111.683	1131.1128	1143.5364	1194.254	1207.1176	1232.0509	1256.2987	1262.2199	1299.8091	1326.1545	1335.8533	1347.0921	1383.4639	1413.893	1430.4169	1436.6338	1485.3776	1491.2926	1499.2928	1504.2818	1510.3078	1521.4796	2990.9483	3041.0987	3042.9223	3049.5585	3066.7995	3070.2873	3072.7763	3082.7001	3097.9434	3108.2243	3121.2751	3157.6556	3767.9873
CC1(CO)C2CCCN12	C[C@@]1(CO)[C@H]2CCCN12	
InChI=1S/C7H13NO/c1-7(5-9)6-3-2-4-8(6)7/h6,9H,2-5H2,1H3	InChI=1S/C7H13NO/c1-7(5-9)6-3-2-4-8(6)7/h6,9H,2-5H2,1H3/t6-,7-,8?/m1/s1
