23
gdb 118758	2.13027	1.32151	0.96873	2.5298	82.52	-0.2456	0.0764	0.3219	1342.3558	0.203595	-425.414691	-425.404592	-425.403648	-425.449552	38.509	
C	-0.2194304145	 1.510296378	 0.1577373585	-0.387293
C	-0.0340712897	 0.0086514926	 0.0089144694	-0.054377
O	-1.3194788241	-0.5836430948	-0.1108940188	-0.30589
C	-1.379728768	-2.0158884968	-0.0367514502	 0.41248
C	-0.5248103286	-2.6956752909	-1.0938395355	-0.472818
C	-1.2733236633	-2.4901410322	 1.4489558097	-0.296048
C	-2.8139680225	-2.295278263	 1.5724906148	 0.149792
O	-3.1974921386	-1.0545435597	 2.121151653	-0.443839
C	-2.8934093162	-2.3540434726	 0.0199066071	-0.281867
H	 0.752363325	 2.0110114447	 0.2032212077	 0.117321
H	-0.7769756034	 1.91189154	-0.6932056398	 0.129555
H	-0.7719963288	 1.747227017	 1.0719601973	 0.124613
H	 0.5709663633	-0.2096965219	-0.8825361172	 0.097222
H	 0.5041857851	-0.4007149037	 0.8771692666	 0.092844
H	 0.5452432478	-2.5438829208	-0.9203271691	 0.119537
H	-0.7085999697	-3.7739070378	-1.0860442883	 0.116991
H	-0.7695265937	-2.3125833302	-2.0903217443	 0.123862
H	-0.9796517524	-3.5417449239	 1.5191092406	 0.096345
H	-0.6555024519	-1.8980204012	 2.1286485315	 0.100427
H	-3.3625359217	-3.0597046404	 2.1272098018	 0.077767
H	-2.7601271413	-0.3787885273	 1.5864994272	 0.280648
H	-3.56175703	-1.6378513639	-0.463412785	 0.106521
H	-3.0987011128	-3.3618059115	-0.351363297	 0.096205
60.6386	98.5667	150.5675	182.277	230.6734	257.6859	275.2781	306.7609	383.8036	390.0926	416.4731	444.551	490.1495	513.3943	670.3688	780.2213	821.3803	824.1666	838.8718	891.3422	900.8197	955.9118	967.6128	976.1495	1012.3399	1074.5438	1090.552	1131.7162	1142.3266	1166.7656	1188.5105	1202.6828	1222.0624	1254.9962	1270.2127	1299.2402	1302.9295	1335.4877	1398.8933	1406.0873	1424.1427	1447.0945	1453.4975	1475.5648	1486.0001	1487.879	1497.1789	1500.7481	1528.9089	2987.0133	3019.2308	3035.3175	3042.7851	3054.3967	3060.8704	3087.6021	3104.1194	3109.9363	3115.7837	3116.1236	3120.8805	3124.8766	3760.9146
CCOC1(C)CC(O)C1	CCO[C@@]1(C)C[C@@H](O)C1	
InChI=1S/C7H14O2/c1-3-9-7(2)4-6(8)5-7/h6,8H,3-5H2,1-2H3	InChI=1S/C7H14O2/c1-3-9-7(2)4-6(8)5-7/h6,8H,3-5H2,1-2H3/t6-,7+
