17
gdb 92172	2.29478	2.08828	1.55785	1.1858	65.64	-0.2268	0.0681	0.2948	903.5164	0.136703	-458.916079	-458.908913	-458.907969	-458.947235	29.535	
O	 0.0800797443	 1.4175612791	-0.071823425	-0.449519
C	 0.0683298868	-0.0008106876	-0.0050515225	 0.054054
C	 0.7094965662	-0.5679307758	 1.2927853247	-0.251434
C	-0.5097566113	-0.9014078093	 2.1424834893	 0.073543
O	-1.3209141006	 0.3313542948	 2.2703491382	-0.323409
C	-2.1816171369	-0.1608982004	 1.2371399564	 0.005374
C	-1.5504345725	-1.5188457916	 1.1816314238	-0.195224
C	-1.3576131886	-0.5682042348	 0.0222076782	 0.365427
O	-2.0293193721	-0.8473741467	-1.1599018447	-0.482764
H	-0.3325343334	 1.7174796274	 0.7489699241	 0.287388
H	 0.5865152562	-0.3444590184	-0.904307076	 0.090769
H	 1.2811605214	-1.4809199378	 1.0906276808	 0.10732
H	 1.3752471943	 0.1641680033	 1.7576674248	 0.114265
H	-0.3390097133	-1.3597613095	 3.1171432116	 0.089376
H	-3.2122855359	 0.1721295342	 1.2047233896	 0.111233
H	-1.9604189661	-2.5179789753	 1.1453016032	 0.11016
H	-2.1768503986	-0.0085650516	-1.6126859064	 0.293443
133.647	244.3026	301.7183	341.9449	375.7801	408.7454	456.4856	522.4725	568.2383	586.9209	689.5471	743.7507	820.5401	832.6908	847.3506	892.0934	912.0687	941.0474	977.9398	1003.2462	1013.6164	1027.6914	1066.4984	1071.3086	1148.421	1165.6132	1207.2068	1216.0268	1260.6997	1269.8792	1309.8178	1316.7633	1325.247	1347.0773	1442.1854	1446.0442	1469.4995	3044.2292	3080.2118	3105.8078	3110.7912	3186.5661	3219.3325	3766.4003	3788.2309
OC1CC2OC3C2C13O	O[C@H]1C[C@H]2O[C@@H]3[C@H]2[C@]13O	
InChI=1S/C6H8O3/c7-3-1-2-4-5(9-2)6(3,4)8/h2-5,7-8H,1H2	InChI=1S/C6H8O3/c7-3-1-2-4-5(9-2)6(3,4)8/h2-5,7-8H,1H2/t2-,3+,4+,5-,6-/m1/s1
