16
gdb 66825	2.75893	2.23093	1.85215	1.212	73.68	-0.215	-0.0369	0.1781	806.3081	0.125118	-400.621444	-400.615152	-400.614208	-400.651482	27.064	
O	-0.263379836	 1.4986778888	 0.0523430121	-0.48639
C	-0.1575791804	 0.1229409017	-0.0168105436	 0.39602
C	-1.3128014376	-0.8741210477	 0.0778691995	-0.149855
C	-0.8216868898	-1.9978569132	-0.748083068	-0.04208
C	 0.328914643	-1.6149255047	-1.5568699391	-0.106162
C	 0.8293199375	-0.4556817706	-1.0471620741	-0.033911
C	 1.9297586418	-0.703418327	 0.004408567	-0.273236
C	 0.6562345624	-0.7924284115	 0.9322601983	-0.039555
N	-0.4378583154	-1.8652809993	 0.7865945824	-0.192831
H	-0.7103056574	 1.7308067399	 0.8741123288	 0.284796
H	-2.3492995942	-0.7036702851	 0.3481122741	 0.098442
H	-1.4275738641	-2.8807577129	-0.9143492575	 0.107342
H	 0.9597425168	-2.3757119929	-2.006848316	 0.103174
H	 2.5595825782	-1.5817190824	-0.1390431792	 0.115812
H	 2.5308420645	 0.1574425937	 0.314547254	 0.116844
H	 0.7684653707	-0.5755724369	 1.9972535012	 0.10159
252.023	293.5718	349.4007	388.3242	486.744	519.4401	580.0599	599.8798	663.1063	713.7566	731.4219	778.4497	789.3198	833.6307	874.6971	899.0934	975.6695	983.1787	987.5129	1003.0782	1032.7231	1070.372	1088.4538	1096.2308	1133.9639	1163.7428	1185.6607	1220.521	1238.5557	1291.9856	1307.2018	1347.1345	1402.0957	1488.2973	1541.2242	3051.434	3093.0713	3134.8188	3168.6256	3171.7112	3193.0185	3797.085
OC12C3C4C=C1CC2N34	O[C@@]12[C@H]3[C@H]4[CH][C]1C[C@@H]2N34	
InChI=1S/C7H7NO/c9-7-3-1-4-6(7)8(4)5(7)2-3/h1,4-6,9H,2H2	InChI=1S/C7H7NO/c9-7-3-1-4-6(7)8(4)5(7)2-3/h1,4-6,9H,2H2/t4-,5+,6-,7+,8?/m1/s1
