18
gdb 71858	3.02715	1.59217	1.28056	2.7696	76.05	-0.2424	-0.0205	0.2219	1023.9294	0.148635	-401.947327	-401.939893	-401.938949	-401.978998	29.55	
C	-0.0590494381	 1.5082855079	 0.0497846689	-0.493431
C	 0.0616543094	 0.0158885153	-0.0508184488	 0.350865
C	-0.1068548679	-0.7936163952	-1.331141406	-0.31368
C	-0.6513708186	-1.9229822758	-0.4201542852	-0.000903
C	 0.4269357243	-2.9273926051	-0.0429350859	-0.330199
C	 1.4228096463	-2.0549179667	 0.729794518	 0.412862
O	 2.5471213222	-2.3391623892	 1.0562942343	-0.325362
C	 0.6872317333	-0.7914723028	 1.0547618547	-0.201265
N	-0.7666672499	-0.9352426488	 0.7594190681	-0.183109
H	 0.8301472117	 1.9974881656	-0.3630982899	 0.130917
H	-0.9316636151	 1.8620653562	-0.5097521229	 0.127149
H	-0.1710359829	 1.8233898599	 1.0908133804	 0.134573
H	-0.8899359369	-0.360101342	-1.9580952069	 0.114555
H	 0.7723081097	-1.0005116612	-1.9493678682	 0.10781
H	-1.6159121272	-2.3509205268	-0.6861745055	 0.091055
H	 0.0369640861	-3.6898707968	 0.6429559797	 0.137408
H	 0.8983629294	-3.4354979814	-0.8878675647	 0.129969
H	 0.9457376342	-0.2629060531	 1.9653599098	 0.110788
126.4208	180.4003	190.4594	282.0816	377.3799	408.0246	461.6705	525.0372	600.3737	609.84	702.9473	769.7676	805.8493	821.658	844.0578	873.9765	934.0116	950.9423	1005.0875	1010.8994	1036.4253	1063.3077	1080.1056	1132.0649	1160.132	1190.65	1220.822	1241.9794	1260.9992	1280.998	1311.9517	1346.0217	1388.1924	1418.5904	1447.5933	1481.8401	1490.4364	1501.357	1840.6442	3032.3609	3040.8563	3049.4962	3096.7114	3105.0341	3108.9359	3116.9636	3131.5282	3186.2565
CC12CC3CC(=O)C1N23	C[C@@]12C[C@H]3CC(=O)[C@@H]1N23	
InChI=1S/C7H9NO/c1-7-3-4-2-5(9)6(7)8(4)7/h4,6H,2-3H2,1H3	InChI=1S/C7H9NO/c1-7-3-4-2-5(9)6(7)8(4)7/h4,6H,2-3H2,1H3/t4-,6+,7-,8?/m1/s1
