19
gdb 115319	2.56226	1.37734	1.02493	2.2953	72.23	-0.2364	-0.0385	0.1979	1199.8259	0.158342	-460.176298	-460.167214	-460.166269	-460.21054	33.469	
C	 0.1235149517	 1.3088896638	-0.131009873	-0.244309
O	-0.0672550285	-0.0790947277	 0.0908773035	-0.248123
C	 0.6005337532	-0.5910075066	 1.2323020817	 0.015941
C	 0.0883959055	-2.017430663	 1.4858066549	-0.248038
C	 1.0211208747	-2.93432766	 0.6617391049	-0.248467
C	 2.3983051867	-2.3027351596	 0.9017837099	 0.078401
O	 3.4069746852	-2.6540342012	-0.0007820543	-0.443004
C	 2.0904093918	-0.8079422051	 0.8789717856	 0.363335
O	 2.8824887544	 0.0233642732	 0.5030731125	-0.335638
H	 1.1701299918	 1.5510422297	-0.3427228608	 0.142332
H	-0.494497367	 1.5730798623	-0.9922985978	 0.128431
H	-0.2062311018	 1.8949843312	 0.7406289106	 0.105212
H	 0.4750097615	 0.0856606836	 2.0901551269	 0.083501
H	 0.1722685513	-2.2529976508	 2.5524415612	 0.107148
H	-0.9621027617	-2.1021758705	 1.2030492518	 0.12365
H	 0.9725865896	-3.9821982658	 0.9637073077	 0.109859
H	 0.7807829304	-2.8707531844	-0.4042675901	 0.127788
H	 2.7019882544	-2.5347518361	 1.9428539059	 0.090794
H	 3.8803592869	-1.8327134132	-0.2011496609	 0.291189
43.1429	122.3886	166.5118	188.9183	243.6999	281.8153	312.1999	373.4735	395.7924	413.9138	498.5192	590.2583	632.7457	675.6152	808.1378	846.884	914.02	950.2676	974.7905	1026.2595	1061.9722	1099.0975	1131.2688	1153.0225	1181.0095	1185.6286	1206.8016	1227.8478	1262.6844	1288.899	1309.9068	1333.5932	1360.8757	1376.6306	1417.4468	1474.7086	1475.5012	1483.2793	1500.9627	1516.8782	1827.2574	2901.5577	2988.8851	2997.233	3052.5487	3064.3351	3077.1793	3118.4687	3125.2236	3125.6686	3718.1986
COC1CCC(O)C1=O	CO[C@H]1CC[C@@H](O)C1=O	
InChI=1S/C6H10O3/c1-9-5-3-2-4(7)6(5)8/h4-5,7H,2-3H2,1H3	InChI=1S/C6H10O3/c1-9-5-3-2-4(7)6(5)8/h4-5,7H,2-3H2,1H3/t4-,5+/m1/s1
