17
gdb 61336	4.59041	0.60392	0.55262	1.6304	80.99	-0.2642	-0.063	0.2012	1900.1926	0.131774	-421.818824	-421.808471	-421.807527	-421.856619	34.261	
C	-0.0907683474	 1.63234123	 0.5940638412	-0.408389
C	 0.0271882943	 0.2412939908	-0.0525476368	-0.076739
C	 0.7872514544	-0.7777157774	 0.8205109163	-0.372875
C	 2.1776588157	-0.4177462503	 1.0431651335	 0.061234
C	 3.3293764957	-0.0888526579	 1.2048845038	 0.067234
C	 4.707643086	 0.2646212937	 1.422820299	 0.021079
O	 5.223446047	 1.2868486302	 1.0309739659	-0.231137
C	-1.3499590245	-0.2826605903	-0.4118551589	 0.149191
O	-1.7943530816	-1.3474008783	-0.0666134948	-0.240271
H	 0.902131494	 2.0503371447	 0.7753278998	 0.153404
H	-0.6372387389	 2.3232334348	-0.0552063631	 0.127719
H	-0.6197297613	 1.5759615415	 1.551428574	 0.130823
H	 0.5620816129	 0.3619520528	-1.0067575573	 0.118314
H	 0.2771853843	-0.8823783693	 1.7865981195	 0.152401
H	 0.7305176511	-1.7692110082	 0.3569964031	 0.158569
H	 5.2846864926	-0.4903572907	 1.994734594	 0.099854
H	-1.9509874045	 0.4145662036	-1.0394187592	 0.089588
21.6611	54.1834	62.7619	112.371	172.2633	184.6237	224.8931	240.1191	331.0494	386.968	405.7641	454.3748	585.377	689.4172	798.1069	848.7365	871.8178	922.3148	935.1842	1022.9486	1080.1918	1101.8303	1155.1402	1161.8796	1245.821	1283.1574	1316.2685	1369.4702	1405.1446	1422.3091	1423.7845	1447.3027	1496.844	1503.788	1766.0592	1827.7265	2328.0808	2873.5314	2918.8455	3004.7364	3036.6437	3040.0179	3071.6945	3108.0708	3128.613
CC(CC#CC=O)C=O	C[C@@H](CC#CC=O)C=O	
InChI=1S/C7H8O2/c1-7(6-9)4-2-3-5-8/h5-7H,4H2,1H3	InChI=1S/C7H8O2/c1-7(6-9)4-2-3-5-8/h5-7H,4H2,1H3/t7-/m0/s1
