15
gdb 61364	3.77625	0.84477	0.76787	2.3206	70.64	-0.2687	-0.0542	0.2145	1449.4295	0.107899	-457.761854	-457.75215	-457.751206	-457.797732	33.054	
C	 0.0863115612	 1.4371593385	 0.0516665859	-0.407802
C	-0.0023564894	-0.0812146615	 0.0624523885	 0.024154
O	-1.3732318094	-0.5361339811	 0.0936905785	-0.250677
C	-1.9138759356	-0.7278845376	 1.3155676583	 0.312454
O	-1.3393517937	-0.5526053721	 2.3600867942	-0.349061
C	-3.282293937	-1.1768614263	 1.2022233607	 0.219296
C	-4.4231001885	-1.5511014682	 1.1645358449	-0.35097
C	 0.61648625	-0.737065317	-1.1644479638	 0.151061
O	 1.555994699	-0.2813985054	-1.7589499667	-0.2396
H	 1.1248505168	 1.7295226725	-0.1185359448	 0.15074
H	-0.524859521	 1.8502303458	-0.7551646901	 0.136155
H	-0.2522211548	 1.844902123	 1.0060570605	 0.142029
H	 0.5075165073	-0.4840989224	 0.947425826	 0.145253
H	-5.4329618934	-1.8817419908	 1.1318549662	 0.218124
H	 0.1340401183	-1.6955802974	-1.4543911783	 0.098845
43.5846	73.9737	76.9375	136.8236	212.7167	236.9904	250.9956	274.0384	379.6224	420.3929	497.889	607.2113	646.9267	663.4689	707.4356	774.3761	838.6258	887.5821	919.2865	973.7228	1094.6194	1129.4176	1156.8169	1238.9765	1321.4015	1350.8109	1394.4918	1413.3971	1486.1966	1496.2416	1793.6191	1842.5883	2239.1931	2906.6209	3037.6	3057.8349	3136.7147	3146.8816	3496.3295
CC(OC(=O)C#C)C=O	C[C@@H](OC(=O)C#C)C=O	
InChI=1S/C6H6O3/c1-3-6(8)9-5(2)4-7/h1,4-5H,2H3	InChI=1S/C6H6O3/c1-3-6(8)9-5(2)4-7/h1,4-5H,2H3/t5-/m1/s1
