21
gdb 90730	2.46154	1.54403	1.29044	1.7477	83.61	-0.2321	0.023	0.255	1102.7785	0.18369	-387.098704	-387.090344	-387.0894	-387.131478	33.176	
C	 0.5829094973	 1.2187944616	-0.0679590519	-0.495814
C	 0.135515185	-0.2097321581	-0.0267033857	 0.32086
C	-0.0374288905	-1.0317217143	-1.0696199188	-0.186073
C	-0.5438248359	-2.4036235685	-0.682443083	-0.277653
C	-0.4483836776	-2.3745505684	 0.852406136	-0.047225
C	 0.9470480338	-2.7448025257	 1.4791735217	 0.131282
O	 1.9862958139	-3.0517560807	 0.5760448309	-0.428121
C	 1.0135485067	-1.3362993711	 2.1396980579	-0.267249
C	-0.2086408478	-0.8913633811	 1.2806568849	-0.112817
H	 1.4718745508	 1.3787825507	 0.5549185122	 0.12672
H	 0.8178272576	 1.5425157597	-1.0855650773	 0.123163
H	-0.1951023644	 1.8835359398	 0.329224236	 0.126831
H	 0.1346914651	-0.7463503692	-2.1035208212	 0.084167
H	-1.5719112062	-2.5632588307	-1.0342065821	 0.101176
H	 0.0629855145	-3.2126620641	-1.1058514036	 0.116094
H	-1.272273409	-2.8866255119	 1.3526689977	 0.063589
H	 0.9187114012	-3.5832241507	 2.1794931759	 0.084249
H	 2.071648192	-2.3091188297	-0.0333056403	 0.27851
H	 0.8025805673	-1.3572736814	 3.2126197992	 0.099249
H	 1.9530561645	-0.7963070011	 1.9837255077	 0.094459
H	-0.9986603682	-0.362178565	 1.8252539838	 0.064603
68.8034	171.1805	198.3879	230.3424	289.9617	323.5633	390.8519	423.9802	508.7345	530.601	578.3847	701.7249	751.3825	775.0948	816.7896	837.2631	880.68	920.7056	954.583	977.385	986.0114	1022.8669	1024.3914	1047.0876	1059.9635	1096.8748	1126.8429	1164.0879	1175.2834	1195.4452	1239.5342	1258.7646	1266.8355	1270.2738	1291.9877	1328.4384	1331.4393	1357.8045	1413.5237	1440.9121	1473.6501	1479.8914	1482.8763	1489.4442	1704.288	3013.8996	3017.4113	3036.5029	3046.9436	3055.6554	3063.5706	3073.5821	3093.3188	3101.9904	3109.6574	3172.2595	3787.0638
CC1=CCC2C(O)CC12	CC1=CC[C@H]2[C@@H](O)C[C@@H]12	
InChI=1S/C8H12O/c1-5-2-3-6-7(5)4-8(6)9/h2,6-9H,3-4H2,1H3	InChI=1S/C8H12O/c1-5-2-3-6-7(5)4-8(6)9/h2,6-9H,3-4H2,1H3/t6-,7+,8+/m1/s1
