18
gdb 64827	3.72369	0.94631	0.90199	2.278	74.51	-0.2668	-0.0758	0.1911	1350.7684	0.145021	-439.083823	-439.07455	-439.073606	-439.118204	33.833	
C	-0.0153621964	 1.658852289	-0.6428838571	-0.463784
C	-0.0316388596	 0.2314584699	-0.1557842884	 0.457978
C	 1.1612117841	-0.6627563658	-0.3095198579	-0.319104
C	 0.7197880838	-0.2024596433	 1.0666247231	-0.29332
O	-1.260953205	-0.4511176219	-0.4120178658	-0.287724
C	-2.3360482246	-0.1408146699	 0.3325322363	 0.293203
N	-2.371427038	 0.7247327803	 1.256593117	-0.498059
C	-3.5185126672	-0.9875020557	-0.0932219231	 0.108028
O	-4.5947052635	-0.8886102102	 0.4351685574	-0.236162
H	 0.9812933013	 2.086657247	-0.5034540494	 0.120494
H	-0.2580660295	 1.7030571889	-1.7097942023	 0.121736
H	-0.7330496899	 2.2669645763	-0.0881501795	 0.153388
H	 0.9701872615	-1.6965351843	-0.5733658303	 0.123755
H	 2.0602852302	-0.2396499594	-0.7434653573	 0.11767
H	 1.3083459515	 0.5437895819	 1.5881388518	 0.123219
H	 0.2458413604	-0.93250228	 1.7112880489	 0.126013
H	-3.319460101	 0.7329758536	 1.6411439594	 0.245307
H	-3.315755908	-1.6969634664	-0.9197203729	 0.107361
67.6667	86.0401	153.8766	173.2388	219.3059	264.1451	311.4524	333.3895	398.4446	429.9488	466.7726	575.6527	727.5424	734.2243	765.535	871.8437	900.8802	906.1067	934.4903	939.3354	984.2377	1038.1304	1040.4191	1067.4638	1077.5825	1120.4743	1142.28	1185.2267	1264.5717	1343.9459	1354.0599	1414.1757	1429.1648	1456.9037	1480.5195	1497.5328	1512.634	1714.6299	1830.2767	2947.5496	3043.0199	3111.4718	3134.9416	3139.4359	3146.1585	3223.9445	3238.1478	3457.9293
CC1(CC1)OC(=N)C=O	CC1(CC1)O[C]([NH])C=O	
InChI=1S/C6H9NO2/c1-6(2-3-6)9-5(7)4-8/h4,7H,2-3H2,1H3	InChI=1S/C6H9NO2/c1-6(2-3-6)9-5(7)4-8/h4,7H,2-3H2,1H3
