17
gdb 127827	4.47764	1.05122	0.85675	2.7709	79.86	-0.2163	-0.0034	0.2129	1317.107	0.138103	-414.219338	-414.210819	-414.209874	-414.252609	31.717	
C	-0.0397782525	 1.4329250884	 0.0127182334	-0.335859
N	-0.0536435988	-0.0161798864	 0.0296614897	-0.291639
C	 0.5626448524	-0.6192015459	-0.9181156399	 0.267748
N	 1.2676172458	-0.0329993025	-1.9491136768	-0.570002
C	 0.5800671385	-2.0937627856	-0.9224473533	 0.352542
N	 1.1321465531	-2.7679461423	-1.9342835245	-0.321093
N	 0.9625054148	-4.0591939799	-1.6091294917	-0.185778
C	 0.3209468254	-4.2276425367	-0.4231844981	-0.015149
C	 0.0539171424	-2.9674641796	 0.0569179702	-0.286668
H	 0.9819727665	 1.8457455631	 0.0081779379	 0.111257
H	-0.5619456726	 1.8513313528	-0.8654258388	 0.100315
H	-0.5510597688	 1.8138582089	 0.9005900663	 0.118856
H	 1.028923784	 0.9116451375	-2.2009846745	 0.250565
H	 1.5155283672	-0.6428735936	-2.713458237	 0.26478
H	 1.3053970185	-4.7695090078	-2.2331956489	 0.276223
H	 0.1124246104	-5.2096611155	-0.0291342725	 0.137049
H	-0.4429582661	-2.686848935	 0.9689829587	 0.126854
78.2697	142.5377	147.5114	167.4701	300.6654	313.8292	399.0072	414.313	484.2633	500.3078	531.8928	645.2211	681.2029	740.1146	769.4589	799.4	879.2589	947.3786	957.6423	1017.7028	1065.4001	1097.043	1102.458	1115.1833	1195.9901	1216.6642	1240.7541	1358.1764	1404.7895	1432.4999	1478.393	1488.0678	1502.9562	1521.7876	1565.2447	1630.3572	1720.8007	2948.2038	2995.9683	3094.9534	3263.0872	3299.6778	3584.2633	3675.5473	3704.429
CN=C(N)C1=NNC=C1	CN=C(N)c1n[nH]cc1	
InChI=1S/C5H8N4/c1-7-5(6)4-2-3-8-9-4/h2-3H,1H3,(H2,6,7)(H,8,9)	InChI=1S/C5H8N4/c1-7-5(6)4-2-3-8-9-4/h2-3H,1H3,(H2,6,7)(H,8,9)
