17
gdb 61485	2.66229	0.9104	0.82259	4.573	73.18	-0.2693	0.0016	0.2709	1425.1052	0.136047	-414.191445	-414.181442	-414.180498	-414.227105	35.226	
N	 0.6654460251	-0.3910293156	 1.3101410131	-0.502373
C	 0.0487804441	 0.0958555882	 0.0763688925	-0.1309
C	 0.7255111656	-0.3798761818	-1.232551959	-0.212788
C	 0.0431049818	 0.1321287435	-2.5294552319	-0.147688
N	-0.0989810637	 1.5788431036	-2.6726647081	-0.50175
C	 0.7879611763	-0.3990137536	-3.6848377203	 0.30439
N	 1.406375396	-0.8296481712	-4.5602940886	-0.312589
C	-1.3789235909	-0.2678530311	 0.07117536	 0.298984
N	-2.4956935484	-0.5581120051	 0.0103334175	-0.317084
H	 0.6939909271	-1.4067388236	 1.3114534134	 0.2455
H	 1.6264565567	-0.066393404	 1.3575819157	 0.242565
H	 0.0901308681	 1.1914940804	 0.1091997361	 0.129495
H	 1.7661587449	-0.0357213175	-1.2118051647	 0.117415
H	 0.7464050211	-1.4754185281	-1.2465059013	 0.132676
H	-0.966865621	-0.2928343043	-2.5764784744	 0.162832
H	-0.8036947586	 1.9364311776	-2.0384387168	 0.251143
H	 0.7761314756	 2.0601716328	-2.4932427931	 0.240173
40.7417	86.3981	120.6797	167.5486	217.7787	220.45	275.2745	288.333	324.2026	339.7083	423.4678	539.7923	574.1942	596.121	604.3308	772.3904	798.3347	847.4303	858.4708	936.7834	1020.5026	1066.2048	1102.8965	1124.6057	1164.4181	1210.9954	1246.3404	1297.2195	1345.5851	1357.8463	1410.7354	1420.2164	1475.5335	1649.9953	1658.7401	2359.9498	2363.1446	3035.6633	3041.9829	3052.1702	3089.5877	3494.7842	3510.5097	3579.5178	3606.3707
NC(CC(N)C#N)C#N	N[C@@H](C[C@@H](N)C#N)C#N	
InChI=1S/C5H8N4/c6-2-4(8)1-5(9)3-7/h4-5H,1,8-9H2	InChI=1S/C5H8N4/c6-2-4(8)1-5(9)3-7/h4-5H,1,8-9H2/t4-,5+
