18
gdb 31090	2.64066	1.25862	0.88947	1.0936	77.1	-0.1686	0.0582	0.2269	1314.7795	0.146299	-439.106807	-439.097064	-439.09612	-439.141608	34.958	
C	 0.2736544281	 1.1204574222	-0.340345701	-0.244039
O	-0.0815832247	 0.0928631046	 0.5747956221	-0.290836
C	-1.2956178907	-0.5003410266	 0.3198872624	 0.190455
C	-1.4204176039	-1.8391983188	 0.0479370753	 0.286942
O	-0.4944752782	-2.8237332596	-0.0644267129	-0.445395
N	-2.7495724884	-2.1264608904	-0.089064769	-0.35849
C	-3.49835583	-0.9709239828	 0.0845279723	 0.318636
C	-4.986043006	-0.9821385927	-0.0212654098	-0.50073
C	-2.6162463412	 0.0509926402	 0.3440063798	-0.348031
H	 1.2652736154	 1.4761302624	-0.0493467336	 0.122578
H	 0.3057828009	 0.7445710531	-1.3719275315	 0.109953
H	-0.4326382081	 1.9594941866	-0.2970201016	 0.117532
H	 0.3564234061	-2.4154263159	 0.1369390043	 0.307857
H	-3.1126408168	-3.0455315735	-0.2726699014	 0.261427
H	-5.453378376	-1.6518347798	 0.7128284438	 0.122404
H	-5.3749378331	 0.0228309847	 0.1590028649	 0.135186
H	-5.3340051322	-1.296621459	-1.0142525627	 0.121825
H	-2.8851825012	 1.0788333653	 0.5337639986	 0.092727
55.9668	113.5532	144.4132	164.1434	203.7371	254.903	275.779	294.6815	350.2008	382.7335	417.5742	533.7335	582.1568	642.7124	646.377	691.1383	773.1567	812.7377	992.3569	1011.4755	1050.4475	1061.6363	1157.1211	1166.7544	1178.4065	1212.4281	1215.4504	1264.0661	1382.2335	1417.2694	1420.3414	1477.9433	1478.1606	1486.7757	1499.471	1505.9234	1556.4525	1583.6763	1682.271	2999.4767	3006.6805	3046.2469	3058.9503	3116.0827	3119.4451	3246.781	3681.3122	3802.5018
COC1=C(O)NC(C)=C1	COc1c(O)[nH]c(C)c1	
InChI=1S/C6H9NO2/c1-4-3-5(9-2)6(8)7-4/h3,7-8H,1-2H3	InChI=1S/C6H9NO2/c1-4-3-5(9-2)6(8)7-4/h3,7-8H,1-2H3
