16
gdb 49330	2.46641	1.52648	1.02742	5.8739	72.51	-0.2583	-0.0389	0.2194	1132.8207	0.123143	-437.907549	-437.899384	-437.89844	-437.940623	30.014	
O	-0.1476938597	 0.0415719125	-0.0009605982	-0.272321
C	-0.0251684062	 1.2385586199	 0.006890735	 0.152254
N	 1.1770629006	 1.9174794331	-0.0012451916	-0.175084
C	 2.5407687889	 1.5251819802	-0.0185432884	 0.445081
O	 3.0677714528	 0.4575469912	-0.0333044346	-0.308079
C	 2.9910177065	 3.001031111	-0.0127298402	-0.485811
C	 1.4977070855	 3.3491145538	 0.0067950483	 0.392196
C	 0.7619991638	 4.4143039888	-0.7379308928	-0.32428
C	 0.7789056893	 4.4021945608	 0.7845205904	-0.32425
H	-0.8834844307	 1.9412565168	 0.0218308779	 0.082344
H	 3.5576885793	 3.284102338	 0.8766338158	 0.146534
H	 3.537521945	 3.2975858528	-0.9102872295	 0.146605
H	 1.3440380326	 5.168406131	-1.2571647748	 0.131571
H	-0.1654233392	 4.1460243883	-1.2331112041	 0.130832
H	-0.1373507102	 4.1259643098	 1.2958510999	 0.130832
H	 1.3724857417	 5.148027332	 1.3026323568	 0.131575
90.1686	118.9267	157.3192	208.6725	245.6839	299.225	452.0494	492.1489	517.8145	527.8945	545.5898	753.1113	779.7835	846.1092	872.5222	930.6234	958.8583	1019.3389	1034.7313	1039.1697	1054.2201	1081.0325	1086.7943	1142.2613	1184.0118	1196.634	1227.3069	1363.7196	1389.885	1438.769	1458.2135	1459.4043	1509.283	1806.6462	1923.8348	2920.0412	3082.1089	3131.0196	3133.5402	3138.5963	3211.6386	3224.9179
O=CN1C(=O)CC11CC1	O=CN1C(=O)CC21CC2	
InChI=1S/C6H7NO2/c8-4-7-5(9)3-6(7)1-2-6/h4H,1-3H2	InChI=1S/C6H7NO2/c8-4-7-5(9)3-6(7)1-2-6/h4H,1-3H2
