16
gdb 71976	2.83259	1.67858	1.22878	3.536	74.34	-0.2514	0.0126	0.264	1002.8813	0.124113	-400.705872	-400.698312	-400.697367	-400.737754	29.198	
C	 0.0240672345	 1.4353069912	-0.0559664272	-0.510423
C	-0.0134938162	-0.0517667078	-0.0128822598	 0.439157
O	 0.8957940826	-0.8092122009	-0.7991356646	-0.31477
C	 0.1066631689	-1.9848919855	-0.4583932075	 0.053954
C	 0.4510858057	-2.2309969389	 1.0304002547	-0.290768
C	-0.2903239935	-0.9137878524	 1.279729421	 0.127708
C	-0.7109538689	-0.3379516327	 2.5067818459	 0.172517
N	-1.051243859	 0.1482373652	 3.5021783539	-0.359504
C	-1.094633017	-1.0685203058	-0.0284647697	-0.235159
H	 1.0108423134	 1.7982037371	 0.247694154	 0.147833
H	-0.182741946	 1.7955083965	-1.0678565206	 0.140466
H	-0.719314378	 1.854236402	 0.6271620487	 0.152039
H	 0.1245132868	-2.7634826041	-1.2157866686	 0.105155
H	-0.1004487626	-3.0777991842	 1.4446487256	 0.125192
H	 1.5127067733	-2.290609682	 1.2828171233	 0.121892
H	-2.1600597641	-1.0492004276	-0.210058289	 0.12471
129.2425	150.5289	191.7794	252.7956	312.0236	439.9477	480.1561	520.4927	539.616	603.8448	652.1269	705.7085	789.0393	808.2103	901.4563	914.7651	933.4971	944.4416	988.4599	1037.4391	1059.8964	1089.8107	1124.4656	1146.2198	1165.0586	1219.7904	1246.706	1282.1135	1333.3985	1399.6022	1450.4248	1473.746	1485.4664	1497.9216	2335.7937	3045.5318	3066.1713	3114.9709	3129.4593	3131.8655	3166.9147	3218.4462
CC12OC3CC1(C#N)C23	C[C@@]12O[C@H]3C[C@]1(C#N)[C@@H]23	
InChI=1S/C7H7NO/c1-6-5-4(9-6)2-7(5,6)3-8/h4-5H,2H2,1H3	InChI=1S/C7H7NO/c1-6-5-4(9-6)2-7(5,6)3-8/h4-5H,2H2,1H3/t4-,5+,6-,7-/m0/s1
