20
gdb 110290	2.12623	1.45794	1.26129	3.4708	74.62	-0.2372	0.0463	0.2835	1127.8285	0.170422	-440.219219	-440.209885	-440.208941	-440.253198	35.08	
C	-0.0156446292	 1.4164784154	 0.3633620123	-0.443421
C	 0.1786407302	-0.0749405436	 0.168120735	 0.029022
C	 0.5421257433	-0.7802894725	-1.0774945581	-0.106223
C	 1.6358406966	-0.0771586259	-1.8927265301	 0.05833
O	 1.4125660175	 1.2304777757	-2.3821078638	-0.422694
C	 2.5243428365	-0.1666289916	-0.6304606241	 0.020687
C	 3.2086975077	 1.026158508	 0.0190304535	-0.076436
O	 3.7918022518	 0.6318001262	 1.2529896807	-0.42813
N	 1.438560308	-0.8577929571	 0.1703046497	-0.189633
H	 0.501004423	 2.0161506471	-0.3821066068	 0.159113
H	-1.0865092396	 1.6363720209	 0.2852474536	 0.115453
H	 0.3051323557	 1.720825265	 1.365641459	 0.12232
H	-0.5381424553	-0.6491038563	 0.7557339706	 0.100251
H	 0.0001524096	-1.6540707404	-1.4290036318	 0.091146
H	 2.0138429912	-0.7241218884	-2.6941512992	 0.082715
H	 0.7751134688	 1.1830093657	-3.1021343641	 0.286186
H	 3.2942973037	-0.9295272745	-0.7811873625	 0.097484
H	 4.0283243226	 1.3660036109	-0.6235925433	 0.111704
H	 2.5297158227	 1.8740015087	 0.153520518	 0.099647
H	 3.1250697952	 0.1198017266	 1.7255222816	 0.292481
63.5991	129.2909	173.8451	218.7649	236.8608	252.8055	287.7603	323.8501	363.0083	369.8872	523.2535	551.3263	650.6327	680.9319	736.2164	789.7314	849.1821	899.8379	923.8393	975.24	1029.5191	1044.2247	1063.5622	1077.176	1116.255	1125.7178	1155.8836	1161.7813	1197.1835	1232.1677	1270.1768	1302.4474	1318.7035	1339.9079	1367.2311	1390.6796	1407.4604	1422.09	1436.049	1450.601	1495.4145	1509.9326	1525.1559	3017.1815	3036.2327	3046.7897	3057.7914	3084.5399	3089.7479	3103.0685	3146.3655	3179.6143	3793.5739	3812.6537
CC1C2C(O)C(CO)N12	C[C@H]1[C@H]2[C@@H](O)[C@@H](CO)N12	
InChI=1S/C6H11NO2/c1-3-5-6(9)4(2-8)7(3)5/h3-6,8-9H,2H2,1H3	InChI=1S/C6H11NO2/c1-3-5-6(9)4(2-8)7(3)5/h3-6,8-9H,2H2,1H3/t3-,4+,5-,6-,7?/m0/s1
