15
gdb 6688	4.5115	0.80861	0.77061	2.5281	69.87	-0.2753	0.0111	0.2863	1465.7955	0.116722	-362.642739	-362.633535	-362.632591	-362.678599	31.269	
C	 0.3350392834	 0.5184895089	-0.8645182702	-0.388966
C	-0.0202869742	 0.148067572	 0.5823021188	-0.022067
O	-0.2939067101	 1.2993555422	 1.3733519074	-0.409371
C	-1.1260861317	-0.8179553908	 0.6319226312	 0.117993
C	-2.0600169803	-1.5757040554	 0.6586762763	 0.033307
C	-3.185031897	-2.506255513	 0.7059161493	-0.473048
C	-4.2375413103	-2.1870563772	-0.2685263354	 0.278736
N	-5.0703932996	-1.942767229	-1.0298068594	-0.299066
H	 1.1576714111	 1.237963093	-0.8608630069	 0.130056
H	 0.6349647012	-0.3668749746	-1.4323501361	 0.128827
H	-0.5265848484	 0.9685347123	-1.3680780227	 0.124261
H	 0.8587161088	-0.3051495211	 1.0562094714	 0.123733
H	-1.111697126	 1.6901118947	 1.0448387652	 0.285908
H	-2.8417583276	-3.5315026181	 0.5164061806	 0.184575
H	-3.6355232293	-2.5156214238	 1.7068117907	 0.185122
13.6062	67.2322	114.5082	188.1599	252.3557	277.7804	309.2333	341.0111	375.3249	383.7698	491.4897	554.5677	614.7746	740.8888	892.4569	926.7945	935.2075	1018.9936	1066.1829	1102.381	1173.5508	1234.0841	1287.2468	1335.454	1336.4341	1399.5202	1417.9338	1445.9218	1487.655	1491.7508	2368.3215	2375.9561	3026.9467	3039.7383	3043.6555	3057.215	3116.4962	3130.2735	3800.1207
CC(O)C#CCC#N	C[C@@H](O)C#CCC#N	
InChI=1S/C6H7NO/c1-6(8)4-2-3-5-7/h6,8H,3H2,1H3	InChI=1S/C6H7NO/c1-6(8)4-2-3-5-7/h6,8H,3H2,1H3/t6-/m1/s1
