19
gdb 103549	2.75001	1.16108	1.01737	1.8289	71.89	-0.2511	-0.0272	0.2239	1226.7826	0.156081	-460.16127	-460.15129	-460.150346	-460.196051	36.342	
C	-0.177074183	 1.5427963277	 0.149596117	-0.458045
C	-0.0545904431	 0.0246947419	 0.0345595592	 0.234869
C	-1.3883238557	-0.6502683071	-0.2813939183	-0.136749
O	-1.8900317133	-0.327194427	-1.5683169407	-0.418573
C	 1.1514356677	-0.410211956	-0.8730080984	-0.365764
C	 1.9593613933	-0.4935616674	 0.421844159	 0.33617
O	 3.0855630032	-0.2173433843	 0.7347794337	-0.312773
C	 0.7021014468	-0.6008242776	 1.2790265332	 0.021574
O	 0.7049858483	 0.0312020705	 2.5219926249	-0.429949
H	 0.7911613574	 2.0131455163	 0.3488406312	 0.126733
H	-0.5585207009	 1.9737766501	-0.78225548	 0.111908
H	-0.8482773084	 1.8178098716	 0.9687363151	 0.132043
H	-1.2552797061	-1.7381538694	-0.2822857872	 0.106079
H	-2.1182492415	-0.4102838404	 0.5079943754	 0.100127
H	-2.2217588	 0.5751358536	-1.5441214012	 0.288277
H	 0.9902590237	-1.3858149103	-1.3408979564	 0.132154
H	 1.5170750384	 0.2928805338	-1.6231218621	 0.132024
H	 0.3868289309	-1.649028111	 1.3905756155	 0.101131
H	 1.5825962622	 0.4178448449	 2.6383016901	 0.298765
71.5421	93.0528	158.3402	194.589	218.7071	225.8698	269.6051	286.8581	326.7237	348.8696	367.7058	433.7395	566.058	639.4693	667.8037	775.0408	781.5256	848.9466	903.2821	951.5966	968.0184	1017.9094	1066.3798	1093.1219	1116.6543	1133.1627	1157.2062	1195.5936	1216.032	1274.1107	1298.9287	1344.5873	1380.0972	1401.1682	1410.3992	1420.3282	1448.6598	1488.621	1497.6913	1503.7327	1867.776	2982.3858	2998.6261	3033.1916	3061.7065	3067.8965	3097.3458	3110.8786	3132.5256	3766.2175	3831.2212
CC1(CO)CC(=O)C1O	C[C@@]1(CO)CC(=O)[C@H]1O	
InChI=1S/C6H10O3/c1-6(3-7)2-4(8)5(6)9/h5,7,9H,2-3H2,1H3	InChI=1S/C6H10O3/c1-6(3-7)2-4(8)5(6)9/h5,7,9H,2-3H2,1H3/t5-,6+/m1/s1
