18
gdb 92257	2.65543	1.72519	1.3394	2.1818	71.41	-0.215	0.0551	0.2701	994.6635	0.148462	-439.010808	-439.003234	-439.00229	-439.042724	29.973	
O	 0.0133450111	 1.4138443343	-0.1704964304	-0.429859
C	 0.0146795231	 0.0194185078	 0.0118274799	 0.022944
C	 0.1765614999	-0.568285187	 1.4648059857	-0.286743
C	-1.0942038573	-1.4375505136	 1.2544875421	 0.036934
O	-2.2851956483	-0.9371610359	 1.9024190252	-0.303333
C	-2.5736579004	-0.1012763623	 0.7633741036	 0.049572
C	-3.4440504035	-0.7607590668	-0.341171517	-0.195606
N	-2.2141280341	-0.9593279345	-1.1698727065	-0.41038
C	-1.3640742422	-0.6155011708	-0.0477732895	 0.338906
H	 0.9238610166	 1.7242790459	-0.1811048878	 0.286109
H	 0.7082284828	-0.4761107316	-0.6847631486	 0.068636
H	 1.1016245912	-1.1198062765	 1.6451691268	 0.100186
H	 0.0347305597	 0.183979178	 2.2431673732	 0.118221
H	-0.992549404	-2.5228114087	 1.3255546982	 0.07371
H	-2.7635906616	 0.9401210471	 1.0240007009	 0.098329
H	-3.9280124266	-1.6749204517	 0.0200618591	 0.107581
H	-4.186453759	-0.1211439863	-0.8294440278	 0.108688
H	-2.0843862975	-1.8821184775	-1.5723502072	 0.216103
112.7541	147.6865	242.1111	250.3216	338.0512	405.6936	451.7055	492.3979	554.2537	652.8824	655.9162	771.5827	830.8221	852.3058	878.4101	914.8437	957.0447	976.5018	997.2885	1014.5561	1054.2224	1078.9058	1101.3414	1121.7831	1129.8513	1152.0235	1173.4342	1186.9798	1230.2969	1255.0103	1264.7821	1295.6483	1316.7581	1329.2163	1355.7377	1375.473	1438.7474	1468.5232	1501.9376	2983.0239	3029.4562	3069.8431	3080.3274	3086.1996	3115.4886	3136.9088	3515.138	3823.0119
OC1CC2OC3CNC123	O[C@H]1C[C@H]2O[C@@H]3CN[C@]123	
InChI=1S/C6H9NO2/c8-3-1-4-6(3)5(9-4)2-7-6/h3-5,7-8H,1-2H2	InChI=1S/C6H9NO2/c8-3-1-4-6(3)5(9-4)2-7-6/h3-5,7-8H,1-2H2/t3-,4+,5+,6+/m0/s1
