20
gdb 89099	5.20453	0.56109	0.53543	4.7386	80.66	-0.2641	0.0396	0.3038	2005.3345	0.170008	-403.149057	-403.139157	-403.138213	-403.185097	35.445	
O	-0.1180866105	 1.4750413406	 0.3491190771	-0.417349
C	-0.0244682065	 0.0915570452	 0.1633444164	 0.08876
C	-0.685739007	-0.8374323635	 1.1512977096	-0.325528
C	-1.2843340191	-0.6247732115	-0.2288557501	-0.022084
C	-2.5874660059	 0.1292146072	-0.3893170391	-0.209702
C	-3.8131034435	-0.7469069495	-0.1064820527	-0.174025
C	-5.1296691498	 0.033456999	-0.2940419643	-0.341104
C	-6.3126842053	-0.7798000246	-0.0218239911	 0.255848
N	-7.2363430461	-1.4387342809	 0.197954529	-0.3066
H	 0.44652492	 1.7134998644	 1.0914784351	 0.290005
H	 0.9040501054	-0.2407705215	-0.3007562886	 0.088556
H	-0.2127789229	-1.7843302142	 1.387507158	 0.113892
H	-1.199615322	-0.3652894135	 1.9831748478	 0.11314
H	-1.1506760069	-1.4443230689	-0.9308889694	 0.089219
H	-2.5836071059	 0.998739867	 0.2760923387	 0.113729
H	-2.6519827056	 0.5285940716	-1.4106896637	 0.101479
H	-3.817758561	-1.6186505349	-0.7706599711	 0.117381
H	-3.7667018989	-1.1359265469	 0.9162944272	 0.121991
H	-5.1489953032	 0.9072888742	 0.3680020049	 0.151229
H	-5.2004779552	 0.4172106906	-1.3186990237	 0.151163
42.2281	83.1241	91.5848	118.7042	165.2562	259.331	296.6571	311.9563	368.6338	399.6908	467.6645	526.3257	600.8898	740.7783	769.1305	824.6555	847.3123	880.1424	947.0663	967.4734	994.7502	1026.7808	1045.002	1064.1219	1088.0099	1133.2775	1143.6619	1177.7095	1216.5613	1239.409	1261.0552	1291.6732	1305.4276	1324.5254	1342.4805	1384.4321	1408.781	1427.7313	1468.4761	1485.1124	1492.3231	1507.0385	2361.5455	3018.4854	3035.4522	3046.2411	3066.1483	3075.9325	3096.3615	3097.8932	3127.1992	3137.1582	3216.3377	3809.2873
OC1CC1CCCC#N	O[C@H]1C[C@H]1CCCC#N	
InChI=1S/C7H11NO/c8-4-2-1-3-6-5-7(6)9/h6-7,9H,1-3,5H2	InChI=1S/C7H11NO/c8-4-2-1-3-6-5-7(6)9/h6-7,9H,1-3,5H2/t6-,7+/m1/s1
