16
gdb 72776	2.8224	1.82933	1.50827	3.0072	68.34	-0.2417	-0.0054	0.2363	905.4875	0.125297	-437.830516	-437.823549	-437.822605	-437.861517	28.153	
O	-0.1971500833	 1.4088024171	-0.1731387658	-0.47133
C	-0.0692125556	 0.0021078186	-0.1229860566	 0.307129
C	-1.2162687692	-0.5402363136	 0.7859214706	-0.145822
O	-0.2445543782	-0.7525762506	 1.8966804738	-0.265708
C	 0.7592030194	-0.5774499282	 0.9864599381	 0.330739
N	 1.8813932831	-1.1246731143	 0.765840332	-0.286719
C	 2.0049750769	-1.0646703071	-0.6917686492	-0.008068
C	 1.0682334794	-2.0214660526	-1.3765401723	-0.292889
C	 0.6591070831	-0.5688104614	-1.316794923	-0.178787
H	 0.6718939896	 1.7753238618	-0.3739692993	 0.28933
H	-1.9682289514	 0.1990813647	 1.0588610078	 0.14191
H	-1.6516220803	-1.4976030016	 0.4954220665	 0.131927
H	 2.9795452772	-0.8442013711	-1.1098794827	 0.100383
H	 1.3443927161	-2.3876759288	-2.3602568317	 0.122055
H	 0.5673764772	-2.7538988612	-0.7508000742	 0.126762
H	 0.636167146	-0.0022694318	-2.2399730839	 0.099088
176.219	214.099	241.0863	333.9235	370.1873	419.6598	509.0773	539.3833	657.7971	680.0758	732.6568	761.3478	791.6256	860.8313	887.1251	909.4473	929.4651	988.1432	991.4482	1018.9109	1064.8862	1094.6584	1102.3989	1135.2862	1176.2306	1185.46	1193.8633	1216.6751	1300.565	1328.5614	1361.5326	1373.4102	1476.4387	1484.0471	1731.8791	3084.5408	3124.0837	3168.1863	3184.2028	3190.902	3212.195	3796.5928
OC12COC1=NC1CC21	O[C@]12CO[C]1[N][C@H]1C[C@@H]21	
InChI=1S/C6H7NO2/c8-6-2-9-5(6)7-4-1-3(4)6/h3-4,8H,1-2H2	InChI=1S/C6H7NO2/c8-6-2-9-5(6)7-4-1-3(4)6/h3-4,8H,1-2H2/t3-,4+,6+/m1/s1
