23
gdb 73303	3.00648	1.47986	1.29799	0.1854	88.91	-0.2446	0.0913	0.3358	1121.1628	0.206962	-351.15409	-351.14574	-351.144796	-351.186067	34.508	
C	-0.0215446518	 1.4580076955	 0.0554170352	-0.492379
C	-0.0011323014	-0.050340348	-0.021909527	 0.369952
C	 1.0242091622	-0.7263900122	-0.9406712131	-0.299318
C	 0.3438989236	-2.0514468749	-1.3684364535	-0.241691
C	-0.7628624669	-2.2680129973	-0.3217302775	 0.330074
C	-1.7632954175	-3.3592247676	-0.6470183642	-0.488389
C	-0.1256778721	-2.299635986	 1.1135685411	-0.28476
C	-0.4125254075	-0.8053935584	 1.2363993666	-0.100095
C	-1.2870420041	-0.8310950432	-0.0085477964	-0.156288
H	 0.9253409969	 1.8485038379	 0.4470101167	 0.115431
H	-0.1783821345	 1.9036787734	-0.9339030583	 0.112619
H	-0.8219462646	 1.8142808569	 0.7123002768	 0.11335
H	 1.247256574	-0.0905037767	-1.8040286358	 0.091411
H	 1.9756731054	-0.89943981	-0.4244815164	 0.09532
H	-0.1075891489	-1.9450832388	-2.3625484456	 0.089203
H	 1.0407089132	-2.8959152852	-1.4134624383	 0.089081
H	-1.2720962388	-4.3373142415	-0.711556078	 0.112678
H	-2.5421719002	-3.4287150272	 0.1198238471	 0.11223
H	-2.2553748785	-3.1711016508	-1.6086905561	 0.110652
H	-0.7393460112	-2.8826264681	 1.8066880873	 0.09385
H	 0.9145422924	-2.6388503373	 1.193390846	 0.082661
H	-0.577684707	-0.2664649409	 2.1635074589	 0.072845
H	-2.2781280828	-0.4310986594	-0.1861053055	 0.071563
195.7837	197.5664	222.4039	230.5955	261.3413	319.5486	361.6769	383.6682	437.8038	540.8201	582.6494	630.2491	715.9567	788.0061	833.5485	852.9527	868.9979	878.2921	913.8653	937.5943	968.475	990.8407	997.003	1009.4653	1031.5856	1048.4457	1079.5009	1124.8381	1149.4037	1160.1697	1172.2389	1229.1278	1233.3902	1250.3064	1253.9873	1277.1035	1295.9594	1327.2715	1357.86	1408.5481	1412.1022	1418.001	1483.47	1490.1313	1492.1311	1494.727	1496.0133	1502.2167	1513.113	3017.8605	3019.3637	3021.2614	3024.4225	3035.1093	3060.8462	3076.4916	3077.8237	3082.9586	3083.6058	3091.8207	3093.8159	3157.1922	3182.4212
CC12CCC3(C)CC1C23	C[C@@]12CC[C@@]3(C)C[C@@H]1[C@@H]23	
InChI=1S/C9H14/c1-8-3-4-9(2)6(5-8)7(8)9/h6-7H,3-5H2,1-2H3	InChI=1S/C9H14/c1-8-3-4-9(2)6(5-8)7(8)9/h6-7H,3-5H2,1-2H3/t6-,7-,8+,9-/m1/s1
