17
gdb 127512	2.38951	1.60783	0.97325	1.2721	72.97	-0.1921	0.0321	0.2241	1177.0403	0.134749	-455.167008	-455.157223	-455.156279	-455.201705	34.401	
C	-0.0528632918	 1.3741504361	-0.0747416021	-0.322114
N	 0.0871424316	-0.0573974521	 0.0322762647	-0.040731
N	 0.0675914815	-0.8133475604	-1.0981841894	-0.377301
C	 0.0796138324	-2.0600701642	-0.6590337899	 0.327377
O	 0.0933617653	-3.1428388883	-1.475846673	-0.451471
C	 0.0919323472	-2.1311921284	 0.7465954568	 0.088967
O	 0.1173115889	-3.2383142335	 1.5455446977	-0.463764
C	 0.0875631336	-0.8164038732	 1.1701610042	 0.305509
C	 0.0908820082	-0.2619688202	 2.5541885249	-0.51294
H	 0.5519081581	 1.8715857904	 0.6882404633	 0.134404
H	 0.3017784068	 1.6714340106	-1.0620951732	 0.154255
H	-1.095888113	 1.6974249936	 0.0381790423	 0.130986
H	 0.0876489227	-2.8182105281	-2.3842582478	 0.304234
H	 0.1312644199	-4.011579966	 0.9719187361	 0.30466
H	 0.9693316444	 0.3653832808	 2.7472296373	 0.132627
H	-0.7988454762	 0.3442812742	 2.7619024767	 0.131726
H	 0.1073573406	-1.0881617215	 3.2683097314	 0.153574
70.0752	115.3174	127.6296	164.3505	216.6011	236.2358	264.7988	298.6592	306.3459	339.347	385.1972	572.5146	602.1848	619.0148	635.5027	715.6006	745.2815	890.6104	1022.1128	1059.7997	1062.6522	1144.5281	1170.0249	1192.5624	1277.6824	1314.9679	1372.0188	1418.2999	1429.448	1458.3566	1484.2208	1489.4545	1496.0148	1507.7916	1549.7228	1596.2714	1684.1815	3016.4454	3022.802	3069.8959	3092.2502	3128.4021	3150.68	3805.6777	3826.5815
CN1N=C(O)C(O)=C1C	Cn1nc(O)c(O)c1C	
InChI=1S/C5H8N2O2/c1-3-4(8)5(9)6-7(3)2/h8H,1-2H3,(H,6,9)	InChI=1S/C5H8N2O2/c1-3-4(8)5(9)6-7(3)2/h8H,1-2H3,(H,6,9)
