14
gdb 29160	3.08604	1.48727	1.00482	3.6285	72.06	-0.1933	-0.0481	0.1452	1093.0582	0.102188	-470.029462	-470.021757	-470.020813	-470.061625	29.589	
N	 0.0925388947	 1.4292679289	 0.1018650334	-0.574892
C	-0.0215239997	 0.0434928186	-0.035652474	 0.270772
C	-1.1822690068	-0.6278330773	-0.150706042	-0.053229
O	-1.2001948713	-1.986757483	-0.378872397	-0.226699
C	-0.0432633117	-2.702133984	-0.4796426811	 0.33138
N	-0.0103434985	-3.952375093	-0.6931458849	-0.516341
C	 1.1808457521	-1.8898337288	-0.3133079139	 0.373383
O	 2.3217777231	-2.5773965755	-0.3856673572	-0.37111
N	 1.1948494564	-0.6220598478	-0.110923239	-0.385798
H	 0.9307978006	 1.6839274659	 0.6072868326	 0.252025
H	-0.7235674146	 1.8782357831	 0.49364978	 0.24741
H	-2.176930262	-0.2113308335	-0.0991589914	 0.121672
H	-0.9586601764	-4.3226892394	-0.7765463803	 0.226883
H	 3.0353625243	-1.9325757742	-0.2689826152	 0.304542
81.9211	210.8973	230.3432	320.5177	336.8049	350.5107	419.1868	482.3541	538.1726	581.6432	599.2524	628.7505	677.4844	703.3294	747.7362	790.0673	826.1156	870.8151	1001.4642	1012.8698	1123.3114	1204.28	1223.2843	1275.87	1343.9326	1420.9929	1459.7638	1629.5579	1659.0699	1692.6555	1736.256	3244.2097	3478.0283	3549.8065	3652.1963	3752.0604
NC1=COC(=N)C(O)=N1	NC1=COC(=C(O)[N]1)[NH]	
InChI=1S/C4H5N3O2/c5-2-1-9-3(6)4(8)7-2/h1,6H,5H2,(H,7,8)	InChI=1S/C4H5N3O2/c5-2-1-9-3(6)4(8)7-2/h1,6H,5H2,(H,7,8)
