17
gdb 45112	2.68426	1.68937	1.18529	4.2695	74.48	-0.2244	-0.0606	0.1638	1035.3247	0.13839	-418.025563	-418.018046	-418.017101	-418.057781	29.443	
N	-0.1373168295	 1.1134657919	 0.6357874926	-0.512863
C	-0.0473778124	-0.057836299	 0.1349145451	 0.25194
N	-1.1518299746	-0.8702880886	 0.0075069493	-0.320926
C	-1.2251274914	-1.9661451017	-0.9157337139	 0.019944
C	-0.7217956004	-1.8332279678	-2.3390382666	-0.314236
C	 0.0566975618	-2.6354228628	-1.3145901224	-0.049391
C	 1.343999233	-2.1095217029	-0.7151531342	-0.326032
C	 1.2938506827	-0.6475816418	-0.3062711422	 0.332545
O	 2.2808646894	 0.048844489	-0.2827713574	-0.30613
H	 0.8025821854	 1.512286871	 0.6774093768	 0.236512
H	-2.0180661842	-0.3820691432	 0.1924582858	 0.250386
H	-2.0947701305	-2.5883258502	-0.7362966187	 0.107741
H	-1.2333055866	-2.3707096561	-3.1298246615	 0.120757
H	-0.3318396265	-0.8633734403	-2.6333738701	 0.129067
H	 0.0256864075	-3.7143572677	-1.4272149162	 0.100743
H	 1.5656044798	-2.6676597786	 0.2069112553	 0.14258
H	 2.2049073969	-2.2478436112	-1.3762601816	 0.137362
79.2677	102.0701	289.9004	340.423	386.9216	407.4369	441.7454	530.0954	569.0701	581.9378	677.7544	696.4732	744.5399	805.6357	831.3256	863.8499	886.1638	952.0386	1017.5056	1036.5175	1055.6963	1063.2257	1112.3387	1131.7435	1169.4886	1194.4368	1229.3262	1257.0979	1328.3868	1376.0915	1411.6229	1439.2856	1451.5719	1458.5556	1500.565	1698.9347	1810.961	3010.3365	3084.4263	3126.7966	3155.0469	3171.5037	3217.328	3468.9601	3581.9752
N=C1NC2CC2CC1=O	[NH][C]1N[C@H]2C[C@H]2CC1=O	
InChI=1S/C6H8N2O/c7-6-5(9)2-3-1-4(3)8-6/h3-4H,1-2H2,(H2,7,8)	InChI=1S/C6H8N2O/c7-6-5(9)2-3-1-4(3)8-6/h3-4H,1-2H2,(H2,7,8)/t3-,4-/m0/s1
