15
gdb 117620	2.30752	1.27611	1.05608	6.1548	66.01	-0.3143	-0.0217	0.2926	1163.428	0.110762	-453.948233	-453.938891	-453.937947	-453.982632	33.233	
O	 0.3190053647	 0.3072168905	-0.8018677391	-0.419504
C	-0.2427765648	 0.3018081502	 0.5155772012	-0.119447
C	-1.5858786965	-0.4168868684	 0.4550691494	-0.232756
C	-1.4692260399	-1.8917305592	-0.0313225258	 0.072338
O	-1.0319528372	-1.9821039133	-1.3627618641	-0.429537
C	-0.547152537	-2.637449882	 0.8743595871	 0.285495
N	 0.214901139	-3.1634270184	 1.5648730692	-0.331755
C	-2.8064438241	-2.523154453	 0.046502486	 0.317491
N	-3.8652885549	-2.9749042678	 0.126063607	-0.316405
H	 1.2506167345	 0.5402752085	-0.7465827895	 0.308658
H	 0.4267959084	-0.2051123779	 1.2220028413	 0.138168
H	-0.4012566256	 1.328566184	 0.8703873271	 0.119753
H	-2.0495086599	-0.3953023706	 1.4452396563	 0.146524
H	-2.2544262723	 0.090420781	-0.2467108401	 0.151465
H	-0.3679347843	-1.2774427337	-1.4750019262	 0.309511
54.4531	130.4153	146.0648	171.8644	221.9815	267.8654	285.7766	320.6728	368.3793	459.0719	518.1578	535.8229	576.616	592.9093	634.5037	686.5937	872.9651	945.4874	968.4993	1016.8054	1081.0118	1109.7208	1141.2066	1229.1468	1266.1139	1311.7056	1368.3731	1442.504	1457.5748	1479.9827	1522.07	2355.3169	2374.2791	3014.9788	3054.4826	3069.8444	3120.4875	3607.4862	3837.5027
OCCC(O)(C#N)C#N	OCCC(O)(C#N)C#N	
InChI=1S/C5H6N2O2/c6-3-5(9,4-7)1-2-8/h8-9H,1-2H2	InChI=1S/C5H6N2O2/c6-3-5(9,4-7)1-2-8/h8-9H,1-2H2
