23
gdb 120492	2.62311	0.9393	0.86715	1.385	82.27	-0.252	0.0589	0.3108	1503.9653	0.204111	-425.402025	-425.391542	-425.390598	-425.437917	38.082	
C	 0.6318186035	 1.2684107499	 0.0007858438	-0.22651
O	 0.3261958462	-0.1040365987	 0.0343831819	-0.232283
C	 0.7835793759	-0.7410549788	 1.2081689211	-0.070124
C	 0.4012559789	-2.208672055	 1.1329922479	-0.049263
C	 1.1981210325	-3.0522141586	 0.095548928	-0.24445
C	 1.9870099524	-3.7518188318	 1.2450231672	-0.009953
C	 3.4467842467	-3.3303360766	 1.3920511315	-0.421143
C	 0.9874551818	-3.1133553746	 2.2658053765	 0.111764
O	 1.4754726517	-2.5276115261	 3.4521273194	-0.426983
H	 1.7188759439	 1.4475063735	 0.0352835268	 0.100072
H	 0.2391147907	 1.6696023098	-0.9368315029	 0.126648
H	 0.1708250317	 1.812166923	 0.8408863845	 0.103624
H	 1.8784305022	-0.6138719486	 1.2962063989	 0.066997
H	 0.3363460912	-0.2777348485	 2.1032853562	 0.096709
H	-0.6863180376	-2.2637353803	 1.0315980417	 0.076049
H	 0.569980304	-3.7343958587	-0.4811581287	 0.099998
H	 1.8003891496	-2.4691561642	-0.6064939199	 0.102756
H	 1.9394233797	-4.844934826	 1.225843849	 0.06973
H	 3.5727628957	-2.2408566054	 1.3664449412	 0.108541
H	 3.8747593803	-3.698094027	 2.3306788875	 0.124253
H	 4.0451407325	-3.7342413043	 0.568916762	 0.121475
H	 0.2443276798	-3.8429615741	 2.5982241891	 0.088863
H	 2.2346211668	-1.9780248188	 3.2335647972	 0.283231
58.5001	93.3552	101.4122	127.6684	212.191	230.5451	242.4336	264.4046	303.9968	329.4797	359.2232	453.6469	521.5698	545.5517	730.7687	790.0111	838.1447	851.3424	907.3278	942.9063	967.5798	996.8815	1037.2181	1077.289	1100.2833	1136.343	1157.1866	1162.6847	1177.4682	1186.3097	1211.2964	1231.4366	1254.3188	1265.3832	1269.843	1288.0257	1311.5334	1349.8777	1368.8387	1404.8442	1425.13	1437.0038	1479.8401	1485.0963	1488.7889	1495.68	1502.3047	1504.1925	1527.0809	2929.468	2965.7543	2978.9459	3008.3928	3022.8203	3046.3065	3061.1921	3062.6874	3077.6599	3087.324	3100.8	3112.1588	3114.6402	3821.8795
COCC1CC(C)C1O	COC[C@H]1C[C@@H](C)[C@H]1O	
InChI=1S/C7H14O2/c1-5-3-6(4-9-2)7(5)8/h5-8H,3-4H2,1-2H3	InChI=1S/C7H14O2/c1-5-3-6(4-9-2)7(5)8/h5-8H,3-4H2,1-2H3/t5-,6-,7-/m1/s1
