18
gdb 50339	3.82689	1.19098	1.04051	4.5018	79.12	-0.2362	0.0028	0.239	1166.3539	0.14962	-401.970135	-401.962426	-401.961482	-402.00368	28.75	
O	-0.0494079778	 0.0003448454	 0.7480618801	-0.335326
C	 0.0276937126	 1.2102322186	 0.6621265623	 0.12519
N	 1.0785801368	 1.87591768	 0.1418108737	-0.027361
C	 2.3116303786	 1.3763050943	-0.4661109418	-0.184519
C	 2.7632265604	 2.852454002	-0.68920173	-0.041698
C	 2.8527675623	 3.3632863151	-2.1399450609	-0.27831
C	 1.4658714037	 3.901912415	-2.4117702049	-0.051341
C	 0.6700612335	 3.8795399732	-1.3426791966	-0.080553
C	 1.3639163406	 3.2957593923	-0.1375290821	-0.047703
H	-0.7639109125	 1.9018070547	 1.0202771345	 0.06111
H	 2.9261170139	 0.7835153305	 0.2178236639	 0.125844
H	 2.1442839184	 0.7973955425	-1.3816549043	 0.12029
H	 3.6179108432	 3.1353707618	-0.076139126	 0.087029
H	 3.6117803026	 4.1477848662	-2.2541087848	 0.113348
H	 3.1305621985	 2.5672772304	-2.8425632268	 0.114944
H	 1.1758686592	 4.2712678617	-3.3899683537	 0.103831
H	-0.357770527	 4.2232364048	-1.3167780688	 0.104566
H	 1.3226863329	 3.9311628617	 0.7537843562	 0.090659
24.7937	108.6425	177.5178	266.8294	310.3026	380.5531	436.245	526.6904	705.3495	735.6562	761.804	813.5285	825.4746	878.0771	914.9678	949.893	959.0434	979.7872	1010.892	1033.9833	1056.0152	1079.2751	1127.1629	1152.0138	1162.4693	1197.9041	1226.7103	1256.0218	1302.0045	1309.507	1320.7833	1336.4665	1378.7893	1402.1049	1446.9513	1483.474	1513.3014	1678.5395	1787.2345	2910.6778	3021.3327	3035.8364	3046.4474	3047.5355	3084.844	3120.6857	3182.5446	3208.7377
O=CN1CC2CC=CC12	O=CN1C[C@H]2CC=C[C@@H]12	
InChI=1S/C7H9NO/c9-5-8-4-6-2-1-3-7(6)8/h1,3,5-7H,2,4H2	InChI=1S/C7H9NO/c9-5-8-4-6-2-1-3-7(6)8/h1,3,5-7H,2,4H2/t6-,7-/m1/s1
