19
gdb 67729	2.96049	1.85455	1.31967	1.6644	79.43	-0.229	-0.0046	0.2245	1000.8544	0.158005	-385.824019	-385.81624	-385.815296	-385.855443	32.012	
C	 0.0151456436	 1.5442278349	 0.003199071	-0.51772
C	 0.0488339269	 0.0373975785	-0.0516606139	 0.301764
C	 0.4546290737	-0.712048867	-1.3111511857	-0.171967
C	 0.3668515213	-2.0039490533	-0.9888226186	-0.171967
C	-0.0908631771	-2.0186707329	 0.4613276302	 0.301765
C	-0.3144506728	-3.3066666651	 1.213496041	-0.51772
C	 0.6110559014	-0.7946764974	 1.1623628565	-0.010124
O	-0.583212677	-0.5122387146	 1.9691730197	-0.327987
C	-1.0919700676	-0.8131302742	 0.624647605	-0.010089
H	 1.0027332553	 1.9706811382	-0.2040223725	 0.117575
H	-0.6834210586	 1.9523186253	-0.7354517646	 0.117581
H	-0.301607559	 1.8727463447	 0.9967683334	 0.137397
H	 0.7457444935	-0.257465764	-2.2486228834	 0.105976
H	 0.5677530883	-2.8771075522	-1.5950238753	 0.105976
H	 0.6036392995	-3.9024604575	 1.2611617212	 0.117574
H	-0.6385794448	-3.0889389162	 2.2347560824	 0.137398
H	-1.0825475481	-3.9200294314	 0.7298091865	 0.117582
H	 1.5859973536	-0.7375663953	 1.6567479694	 0.083493
H	-2.1749514121	-0.7783078804	 0.4693117379	 0.083493
193.9572	234.1694	243.0176	249.7574	304.6712	327.2813	383.7926	518.637	519.8745	576.3449	658.6123	706.052	724.7419	746.8233	763.0044	795.986	873.246	876.3391	910.0774	916.5959	935.2207	1059.5385	1064.5847	1100.1372	1100.1887	1133.2543	1135.7446	1146.6702	1182.5526	1220.4037	1251.2964	1286.3164	1340.5047	1364.0217	1406.269	1412.3824	1492.8183	1493.2193	1498.7124	1500.1919	1640.1104	3032.0426	3032.29	3066.5606	3075.2113	3091.4322	3091.6002	3118.1341	3118.406	3208.2988	3234.9277
CC12C=CC3(C)C1OC23	C[C@@]12C=C[C@@]3(C)[C@@H]1O[C@@H]23	
InChI=1S/C8H10O/c1-7-3-4-8(2)5(7)9-6(7)8/h3-6H,1-2H3	InChI=1S/C8H10O/c1-7-3-4-8(2)5(7)9-6(7)8/h3-6H,1-2H3/t5-,6+,7-,8+
