21
gdb 95352	3.31657	1.21875	0.97941	1.8518	77.11	-0.2417	0.0713	0.313	1230.6725	0.18487	-424.217383	-424.209142	-424.208198	-424.250599	32.138	
O	 0.7455878766	 0.1642725202	-1.0938066506	-0.438355
C	 0.0233545365	-0.2560873738	 0.0556113788	 0.151772
C	 0.8649511633	-0.1213490337	 1.356178571	-0.227412
C	 0.0300445512	 0.2675811253	 2.5948217755	-0.225975
C	-1.3121066648	-0.4631505507	 2.6160263519	-0.045611
C	-2.4870402807	 0.274762842	 3.2904681082	-0.095157
O	-3.0477250324	 0.6421649688	 2.0109280909	-0.295534
C	-2.1191648229	-0.2204118905	 1.3140959489	 0.139057
C	-1.3382069118	 0.4461654252	 0.1856712631	-0.269818
H	 0.9020984803	 1.1113441404	-1.0088238226	 0.273713
H	-0.1681578129	-1.3195481642	-0.133415955	 0.089434
H	 1.402604792	-1.0584786914	 1.535308563	 0.105755
H	 1.6358493768	 0.6394782047	 1.1856113752	 0.093008
H	 0.596415287	 0.0761521609	 3.5124571065	 0.097172
H	-0.1620215039	 1.3470533005	 2.5755641582	 0.104317
H	-1.1896640153	-1.511672295	 2.8994932027	 0.072429
H	-3.1674296533	-0.369219542	 3.8635786747	 0.095927
H	-2.2341850453	 1.1536498012	 3.8964024273	 0.099752
H	-2.6312790669	-1.1200497003	 0.9438417335	 0.073388
H	-1.1996007238	 1.5080300227	 0.4244369833	 0.095645
H	-1.8720752397	 0.39010368	-0.7671089545	 0.106492
49.8095	126.5567	189.6175	281.29	321.3456	364.6555	391.1263	409.8598	456.4193	518.8619	590.3638	768.2595	789.4454	805.2855	851.8933	913.7651	944.1742	964.9269	990.7664	1015.8997	1041.9371	1057.6494	1072.6654	1096.7208	1124.2007	1130.7313	1155.192	1173.2927	1207.9047	1221.3225	1266.4781	1268.0224	1297.4645	1323.0225	1345.2903	1353.003	1370.2707	1373.4452	1385.0279	1392.4009	1439.5023	1484.9673	1490.2394	1514.8426	1525.8125	2993.042	3005.7617	3023.5509	3029.7438	3036.2505	3040.835	3049.5819	3061.499	3073.6272	3085.3394	3095.7569	3797.8616
OC1CCC2COC2C1	O[C@H]1CC[C@H]2CO[C@H]2C1	
InChI=1S/C7H12O2/c8-6-2-1-5-4-9-7(5)3-6/h5-8H,1-4H2	InChI=1S/C7H12O2/c8-6-2-1-5-4-9-7(5)3-6/h5-8H,1-4H2/t5-,6-,7-/m0/s1
