20
gdb 80525	2.10704	1.50382	1.24511	3.1313	81.32	-0.2414	-0.0253	0.2161	1141.8115	0.169281	-403.115305	-403.106081	-403.105137	-403.149	34.372	
C	-0.2508151146	 1.5891325769	 0.0227474914	-0.428927
C	 0.0487791678	 0.0947214912	 0.0654865839	-0.023922
C	 0.9643726357	-0.5905249256	-1.0022058626	-0.279816
C	 1.7761607216	-1.2524790807	 0.1286190586	-0.090375
N	 2.3666961627	-0.3324919686	 1.0455371219	-0.11951
C	 3.0200946371	 0.9092965563	 0.6536711693	-0.322465
C	 0.9326364863	-0.5019457227	 1.1825280145	 0.192861
C	 0.4236271951	-1.045409758	 2.4553410764	 0.090373
O	-0.7387332469	-1.0101506915	 2.7861281378	-0.273201
H	 0.6501751452	 2.2045456103	-0.0348656679	 0.115441
H	-0.8727467581	 1.828627934	-0.8467526035	 0.117832
H	-0.8047986501	 1.888334658	 0.9183863467	 0.134265
H	-0.9002099083	-0.4478323306	 0.1059224203	 0.104146
H	 0.4321304815	-1.3157405069	-1.6199721301	 0.114061
H	 1.5346603533	 0.0709193536	-1.6610646896	 0.10699
H	 2.0955117639	-2.2897310173	 0.1526868305	 0.107316
H	 2.652993287	 1.3555864537	-0.2780534641	 0.116069
H	 2.9031977691	 1.6401920745	 1.458530737	 0.132202
H	 4.0886258958	 0.7049798313	 0.5325375624	 0.128442
H	 1.209409616	-1.508088418	 3.0913838171	 0.078218
96.2933	139.4331	163.1309	187.2	221.1256	252.5647	263.7914	297.4335	361.1071	469.7867	509.1116	599.217	664.1441	701.4826	728.4912	835.3441	865.4346	947.8273	953.9877	994.6186	1006.5093	1059.7673	1095.958	1108.4375	1120.1794	1152.6155	1159.7763	1186.847	1230.8286	1236.636	1281.4997	1294.6631	1370.2993	1390.189	1402.019	1431.0727	1458.0984	1479.2923	1491.2959	1497.6605	1503.7993	1510.0598	1799.9832	2900.4926	3020.0913	3037.1352	3061.0906	3066.8323	3084.135	3099.5731	3113.9318	3118.1119	3122.6591	3162.7428
CC1CC2N(C)C12C=O	C[C@H]1C[C@H]2N(C)[C@@]12C=O	
InChI=1S/C7H11NO/c1-5-3-6-7(5,4-9)8(6)2/h4-6H,3H2,1-2H3	InChI=1S/C7H11NO/c1-5-3-6-7(5,4-9)8(6)2/h4-6H,3H2,1-2H3/t5-,6+,7-,8?/m0/s1
