17
gdb 51205	3.89437	1.12315	1.0187	3.4026	73.34	-0.235	-0.0278	0.2072	1172.5181	0.135728	-417.893033	-417.88538	-417.884436	-417.926192	28.746	
O	-0.6245199436	 0.6814264298	 0.6777960661	-0.23233
C	 0.1191972924	 0.9519869853	-0.2278985613	 0.152927
C	 1.2790631384	 1.9228006551	-0.1382746777	-0.41429
C	 1.2451136381	 2.9688179684	-1.219869106	 0.355157
N	 0.2482405471	 4.0885730534	-1.2995227115	-0.375403
C	 1.1320868213	 4.3065354771	-2.4905357253	-0.041944
C	 2.4079823796	 3.8934408832	-1.6931126238	-0.058226
N	 2.8970652354	 2.8752712019	-2.6770812708	-0.351139
C	 1.404148721	 2.7889027349	-2.7753315433	-0.085845
H	-0.001004708	 0.4786244987	-1.2306797718	 0.075301
H	 1.2870832639	 2.3822379186	 0.8539792606	 0.13424
H	 2.2065375981	 1.3481377224	-0.2757961915	 0.14639
H	-0.6668321636	 3.7352365868	-1.5935011656	 0.211823
H	 1.0013271721	 5.1296794162	-3.1947948439	 0.08773
H	 3.0595105953	 4.5145305011	-1.0787310774	 0.095831
H	 3.2836426531	 3.3376025809	-3.5038522714	 0.213875
H	 0.8811577594	 2.1063755662	-3.4488060154	 0.085903
56.2696	72.7056	171.0975	231.7781	350.6738	452.8331	495.9835	531.342	662.0907	739.3194	777.8177	804.194	830.7795	863.271	885.6997	901.0145	934.29	956.8139	1015.3196	1054.5549	1079.9485	1088.963	1097.0225	1123.0779	1152.1309	1183.2888	1206.239	1222.8929	1248.3471	1274.0889	1289.8468	1299.4448	1315.7481	1384.8172	1428.6204	1440.5439	1838.2207	2857.2167	3020.1712	3092.0474	3104.7991	3107.8803	3127.5184	3397.3492	3409.7043
O=CCC12NC3C1NC23	O=CC[C@@]12N[C@H]3[C@@H]1N[C@@H]23	
InChI=1S/C6H8N2O/c9-2-1-6-4-3(8-6)5(6)7-4/h2-5,7-8H,1H2	InChI=1S/C6H8N2O/c9-2-1-6-4-3(8-6)5(6)7-4/h2-5,7-8H,1H2/t3-,4-,5+,6+
