18
gdb 71498	2.91868	1.59865	1.44641	2.4242	76.12	-0.2207	-0.0167	0.2041	979.8205	0.148335	-401.914881	-401.907558	-401.906614	-401.946395	29.418	
C	-0.0233742364	 1.4899263681	-0.0294155455	-0.517714
C	 0.0579762865	-0.0089035849	-0.0236675659	 0.333183
C	 0.6046624206	-0.9548291902	-1.1129251998	-0.272507
C	 0.0072206077	-1.8412900739	-0.0116146008	-0.030229
C	 0.6594659795	-0.94802255	 1.0967374896	-0.183142
C	-0.3337431193	-0.9118874224	 2.2279133791	 0.403827
O	-0.1492951708	-0.8926589505	 3.4167007911	-0.327791
C	-1.6573453939	-0.89389863	 1.4452509945	-0.301749
N	-1.1993574734	-0.9047175812	 0.0423136591	-0.154118
H	 0.9784336196	 1.9275549432	-0.0825863782	 0.13203
H	-0.59639611	 1.8325376257	-0.8965926453	 0.138183
H	-0.5084388486	 1.8701548529	 0.8757171429	 0.131203
H	 0.0638709223	-0.9454324078	-2.0615710327	 0.109124
H	 1.687614401	-0.9855592795	-1.2413946587	 0.101107
H	-0.1182574657	-2.9251031184	 0.0102164119	 0.09165
H	 1.7235151413	-0.9756057889	 1.327620609	 0.08619
H	-2.2715786458	-1.7735359	 1.663737978	 0.130822
H	-2.2523767646	-0.001940402	 1.6647824817	 0.129929
115.302	189.8585	230.0282	302.2948	366.3116	390.555	508.5132	576.4368	599.908	647.8774	681.0086	700.8292	812.7803	836.9201	857.0001	902.6029	933.2697	971.5379	1004.4104	1008.141	1044.0425	1086.47	1100.7598	1125.8477	1141.7172	1168.696	1187.2735	1206.7498	1226.442	1228.7832	1280.3255	1285.3747	1328.8352	1410.6661	1461.363	1484.0822	1485.7904	1501.9383	1859.7565	3035.4921	3053.9698	3072.0855	3098.8871	3103.6987	3105.5063	3112.7452	3133.2769	3145.5893
CC12CC3C1C(=O)CN23	C[C@@]12C[C@H]3[C@@H]1C(=O)CN23	
InChI=1S/C7H9NO/c1-7-2-4-6(7)5(9)3-8(4)7/h4,6H,2-3H2,1H3	InChI=1S/C7H9NO/c1-7-2-4-6(7)5(9)3-8(4)7/h4,6H,2-3H2,1H3/t4-,6+,7+/m0/s1
