19
gdb 90927	2.39868	1.75297	1.47825	2.5401	73.39	-0.229	0.0573	0.2863	991.1444	0.15978	-422.993453	-422.98554	-422.984596	-423.02554	31.341	
C	-0.0042903644	 1.555944949	-0.0244977831	-0.517627
C	 0.0522873709	 0.0590713652	 0.016635493	 0.250686
C	 0.7087982475	-0.9032053504	-0.9698711089	-0.146152
C	 1.6420747023	-1.8790269977	-0.2527415678	-0.272182
C	 1.3882335171	-1.6039868242	 1.2571509111	 0.135085
O	 2.3870070549	-0.7930760526	 1.8591376162	-0.440153
C	 0.032272443	-0.8951732342	 1.2404741331	 0.011222
O	-0.9252929753	-1.782293904	 0.5787106718	-0.30949
C	-0.7631445928	-1.0231316537	-0.6218227503	 0.052774
H	 0.9094224601	 2.0123806468	 0.3758703654	 0.114912
H	-0.1206588538	 1.9110897542	-1.0536540252	 0.125497
H	-0.8478803099	 1.9420385254	 0.5583050556	 0.129393
H	 0.9450062728	-0.5379888354	-1.9639380346	 0.08648
H	 1.4217484696	-2.9183296113	-0.5117709492	 0.115493
H	 2.6938999575	-1.6919525858	-0.4888899432	 0.102674
H	 1.3544081598	-2.5228041395	 1.8478822546	 0.094856
H	 2.504655079	-0.0122691265	 1.3065015455	 0.283187
H	-0.3326382027	-0.5349836537	 2.2038042537	 0.082349
H	-1.5822514856	-1.0118904417	-1.3321387576	 0.100995
111.7184	178.9674	196.9649	279.2723	292.1448	324.3322	391.8905	456.7298	520.2702	585.5908	718.1787	745.9506	762.2568	839.1605	851.0882	898.6523	908.5837	927.2832	964.4048	994.1983	1020.3608	1044.3849	1060.5235	1070.2985	1085.9605	1129.3958	1164.1977	1202.5661	1206.4856	1237.4182	1274.1573	1281.1381	1297.6054	1318.4576	1328.6454	1418.4905	1419.6225	1465.6378	1482.5722	1486.0181	1498.6885	3019.7361	3055.834	3077.062	3087.2336	3097.5609	3101.9191	3107.5131	3168.569	3180.4378	3799.17
CC12C3CC(O)C1OC23	C[C@@]12[C@H]3C[C@@H](O)[C@@H]1O[C@@H]23	
InChI=1S/C7H10O2/c1-7-3-2-4(8)6(7)9-5(3)7/h3-6,8H,2H2,1H3	InChI=1S/C7H10O2/c1-7-3-2-4(8)6(7)9-5(3)7/h3-6,8H,2H2,1H3/t3-,4+,5+,6-,7-/m0/s1
