17
gdb 74326	3.54906	0.98732	0.81363	4.9869	74.49	-0.2598	0.0111	0.271	1376.2126	0.136317	-418.04963	-418.04083	-418.039886	-418.084253	30.926	
C	 0.0659244648	 1.4773682348	 0.0378639114	-0.472602
C	-0.0227155646	-0.0075056818	-0.0319231668	 0.40874
N	-1.0464152407	-0.7180037039	 0.2210741161	-0.299367
C	-0.6582008153	-2.1171175658	 0.016092744	 0.002985
C	-1.5622409126	-2.7961266697	-1.033934324	-0.348369
C	-2.9476817384	-2.9340182256	-0.5919777235	 0.278674
N	-4.0400381867	-3.0681757021	-0.241135388	-0.304429
C	 0.8287379118	-2.0424451623	-0.431700907	-0.134785
O	 1.1295105278	-0.6345465984	-0.4057280321	-0.248022
H	 0.8313801638	 1.7751439693	 0.7611365207	 0.150415
H	 0.3611787569	 1.8842505868	-0.9341434241	 0.148789
H	-0.8983404804	 1.888716398	 0.3329996076	 0.159702
H	-0.7640924623	-2.6617280828	 0.9604759791	 0.110384
H	-1.5403356396	-2.2145172988	-1.9623160047	 0.153796
H	-1.1732183099	-3.7951019686	-1.2644607918	 0.149846
H	 1.5121619166	-2.5571132701	 0.2481243244	 0.127061
H	 0.9954338686	-2.413902759	-1.4488490715	 0.117183
48.3434	80.42	138.626	142.1126	193.4372	291.3632	372.5157	392.6073	402.1442	523.6387	633.2266	660.7442	750.6193	861.5821	896.7603	921.0165	949.7846	1008.2953	1030.2842	1040.3341	1067.412	1090.5159	1120.9147	1215.3551	1238.6129	1262.9403	1303.4776	1331.9603	1377.4282	1388.3248	1417.1482	1458.7223	1474.6657	1475.3193	1520.3725	1738.6968	2367.2569	3037.5637	3044.4946	3046.1488	3053.4865	3085.6421	3100.1253	3111.5956	3170.36
CC1=NC(CC#N)CO1	CC1=N[C@@H](CC#N)CO1	
InChI=1S/C6H8N2O/c1-5-8-6(2-3-7)4-9-5/h6H,2,4H2,1H3	InChI=1S/C6H8N2O/c1-5-8-6(2-3-7)4-9-5/h6H,2,4H2,1H3/t6-/m0/s1
