17
gdb 73644	2.40519	1.71137	1.45613	4.335	67.22	-0.2665	0.0076	0.2741	976.9843	0.136733	-458.998535	-458.990837	-458.989893	-459.030656	29.109	
C	 0.0490974605	 1.5951280632	-0.1088642958	-0.484262
C	-0.0176953195	 0.08629864	 0.0488210062	 0.065382
C	-1.4290116594	-0.5282752847	 0.024867424	-0.131705
O	-1.331146628	-1.7634269145	 0.7188954536	-0.248206
C	-0.4237557635	-1.5619147256	 1.7949511876	-0.110207
C	 0.6555033375	-0.6464054672	 1.2410593668	 0.076171
O	 1.5493636913	-1.3488334683	 0.3139984023	-0.261643
C	 0.9898906645	-0.7302901382	-0.7756359955	 0.452827
O	 1.284694362	-0.8574424108	-1.9195162386	-0.332759
H	 1.0732792952	 1.9650616762	-0.0074687088	 0.135875
H	-0.3116430567	 1.8878936882	-1.0998526514	 0.146586
H	-0.573392794	 2.0946482054	 0.640352091	 0.125849
H	-2.1325691776	 0.1559706239	 0.5285619244	 0.095117
H	-1.7975273532	-0.7336032517	-0.9830024648	 0.136593
H	-0.9182670415	-1.0691390089	 2.6489499578	 0.098127
H	-0.0458406009	-2.5359430293	 2.1133212378	 0.134576
H	 1.2266789632	-0.0770971177	 1.9743115632	 0.101678
119.0092	185.7544	197.5395	231.6469	271.6077	292.2591	370.7849	518.8554	598.4201	647.3311	722.6462	770.0926	788.3537	864.5425	896.261	944.876	955.4676	993.7092	1015.9043	1052.3965	1098.1371	1117.6376	1176.0764	1183.1423	1223.4098	1233.026	1280.0672	1289.4251	1343.6744	1357.9699	1399.7038	1417.5752	1489.651	1491.8647	1495.372	1509.7289	1937.3398	2963.7298	2972.5985	3038.452	3104.3698	3108.9144	3112.0686	3114.3942	3122.9243
CC12COCC1OC2=O	C[C@]12COC[C@H]1OC2=O	
InChI=1S/C6H8O3/c1-6-3-8-2-4(6)9-5(6)7/h4H,2-3H2,1H3	InChI=1S/C6H8O3/c1-6-3-8-2-4(6)9-5(6)7/h4H,2-3H2,1H3/t4-,6+/m1/s1
