17
gdb 20141	5.20218	1.39485	1.25579	2.3162	68.24	-0.2306	0.0791	0.3098	983.4248	0.143178	-363.785943	-363.778969	-363.778024	-363.817512	26.609	
C	 0.1425827009	 1.4995688317	-0.0350184327	-0.184764
O	 1.2296183394	 0.5752428178	-0.0696691412	-0.243188
C	-0.1065658712	 0.0525472829	-0.0238773633	 0.084841
C	-0.4893995773	-0.6777914336	 1.2310124536	-0.008091
C	-2.0177292938	-0.9702335333	 1.494366836	-0.25254
C	-1.6847231752	-2.4652794103	 1.528895269	-0.037466
N	-1.1046528206	-2.7791781403	 0.2002097464	-0.332807
C	-0.2461521316	-2.1978419261	 1.2633004106	-0.064087
H	 0.0438879968	 2.0702467925	 0.8884312581	 0.106225
H	-0.0179525334	 2.0711446299	-0.9484121359	 0.111954
H	-0.4316841668	-0.4229672789	-0.9482121211	 0.109357
H	-0.0317849101	-0.1849194656	 2.0927608802	 0.08025
H	-2.3518539422	-0.5695576704	 2.4533200147	 0.105132
H	-2.7151750171	-0.6708335462	 0.7077260034	 0.107308
H	-2.1544951948	-3.2384915767	 2.1236950683	 0.093408
H	-0.9139281581	-3.7805163093	 0.1809330149	 0.229326
H	 0.6429067151	-2.7152941341	 1.601420189	 0.095144
76.2374	145.1014	184.5947	326.7201	385.143	429.5332	565.3437	694.9961	788.6523	811.4728	833.6831	856.2164	905.1625	921.2149	945.884	954.5082	995.2324	1009.0279	1037.974	1094.0798	1104.9468	1113.3103	1144.0394	1153.8083	1176.0778	1187.2798	1223.9288	1249.3187	1272.4741	1287.1648	1315.9985	1323.5071	1380.3935	1452.947	1475.4921	1530.5175	3064.5947	3075.7691	3077.6158	3124.1747	3129.8516	3161.6183	3186.0079	3199.7991	3476.4878
C1OC1C1CC2NC12	C1O[C@H]1[C@H]1C[C@H]2N[C@@H]12	
InChI=1S/C6H9NO/c1-3(5-2-8-5)6-4(1)7-6/h3-7H,1-2H2	InChI=1S/C6H9NO/c1-3(5-2-8-5)6-4(1)7-6/h3-7H,1-2H2/t3-,4-,5-,6+/m1/s1
