19
gdb 90635	3.46135	1.11877	1.04092	5.2195	81.17	-0.2533	0.0245	0.2779	1232.9721	0.158703	-382.044575	-382.035738	-382.034794	-382.077689	33.525	
C	-0.332005637	 1.601235167	 0.6223785178	-0.405322
C	-0.2577329001	 0.1091484669	 0.3615847784	 0.079571
C	 0.7194591816	-0.3351121879	-0.7627504394	-0.292571
C	 1.5031185243	-1.0553311914	 0.3269765945	-0.050026
N	 0.5897203342	-0.5609105771	 1.4279262672	-0.169396
C	 0.6608432007	-2.0157789993	 1.0988619947	 0.158396
C	-0.4886863211	-2.8323265523	 0.5330062567	-0.480418
C	 1.3780219867	-2.7260516412	 2.143946099	 0.263255
N	 1.9412380075	-3.3311518306	 2.9518608669	-0.340334
H	 0.6700405342	 2.0297772945	 0.722869125	 0.126679
H	-0.8456707641	 2.1078011541	-0.2015513956	 0.117603
H	-0.87834644	 1.8011372791	 1.5487735899	 0.132281
H	-1.2666796101	-0.3095836765	 0.3042222474	 0.083817
H	 0.3335746477	-0.9418747611	-1.5864763123	 0.111635
H	 1.2730486959	 0.508050774	-1.181057452	 0.120918
H	 2.5826417301	-1.0515876158	 0.4396237283	 0.115569
H	-0.9152548176	-2.3862101766	-0.3650877089	 0.13392
H	-0.1313149624	-3.8325317459	 0.2735890598	 0.147319
H	-1.2819840105	-2.9414943901	 1.2787139726	 0.147104
125.3982	144.5179	155.4584	206.9864	243.4591	269.8304	321.27	347.1277	434.7292	456.9166	550.8356	580.7017	656.278	716.1663	818.3041	837.963	875.0979	895.162	935.6037	986.0378	1008.938	1017.9758	1084.2848	1092.0004	1102.8644	1138.7237	1198.8972	1236.7087	1261.0446	1269.0729	1296.3835	1373.2252	1382.609	1409.9139	1419.6901	1482.7666	1485.9189	1493.5779	1496.7684	1501.6775	2358.6353	3036.413	3054.0697	3058.7259	3064.4122	3109.8815	3113.8855	3117.6073	3119.2417	3153.5974	3165.0722
CC1CC2N1C2(C)C#N	C[C@H]1C[C@H]2N1[C@]2(C)C#N	
InChI=1S/C7H10N2/c1-5-3-6-7(2,4-8)9(5)6/h5-6H,3H2,1-2H3	InChI=1S/C7H10N2/c1-5-3-6-7(2,4-8)9(5)6/h5-6H,3H2,1-2H3/t5-,6+,7+,9?/m0/s1
