18
gdb 22664	2.69835	1.07171	0.77808	3.0372	82.56	-0.2096	-0.0182	0.1914	1421.7511	0.146705	-439.059019	-439.049689	-439.048745	-439.09404	33.517	
O	 0.0320652409	 1.4102394198	 0.0072552364	-0.409347
C	-0.0199566952	-0.0018044172	 0.0025834317	-0.171271
C	-1.4386716954	-0.4624557456	 0.0122465925	 0.296047
C	-2.5339792489	 0.3128345926	 0.0224531464	-0.241533
C	-3.7396255007	-0.5082327744	 0.0294784078	 0.386887
C	-3.3288535576	-1.9733465766	 0.0232351213	-0.300361
C	-1.7779847421	-1.9369692766	 0.0110307574	-0.319523
N	-4.9716182412	-0.1649315933	 0.0392290538	-0.247774
O	-5.1148672389	 1.238076636	 0.0434242863	-0.39808
H	 0.9547988302	 1.6795092883	-0.0014828164	 0.292319
H	 0.4856264807	-0.4252310777	-0.8847798343	 0.100629
H	 0.4997879373	-0.4315802291	 0.8786467976	 0.100593
H	-2.5413729429	 1.3915367364	 0.0252017247	 0.131799
H	-3.7190705244	-2.4912325784	 0.9034312866	 0.12617
H	-3.7331655477	-2.4878682755	-0.8525458706	 0.126156
H	-1.3580667901	-2.4398623754	-0.8695951659	 0.112374
H	-1.3441242679	-2.444597572	 0.8821158278	 0.11237
H	-6.0719319262	 1.3400345186	 0.0506420769	 0.302544
43.9112	87.5474	140.8622	153.1855	222.6342	257.703	267.6319	371.9824	421.4218	424.8498	499.4666	593.5758	630.5961	705.8887	819.9432	874.5398	897.8042	914.3451	959.7757	995.5138	999.9754	1054.7454	1078.1007	1156.8331	1167.559	1204.2506	1235.1769	1241.036	1256.3677	1275.0634	1313.6984	1346.1767	1399.312	1466.0326	1472.2489	1493.7656	1501.3358	1684.8164	1725.9011	2933.5082	2943.9865	3019.8683	3042.3443	3065.962	3102.9794	3267.8059	3825.1898	3838.7968
OCC1=CC(CC1)=NO	OCC1=CC(=NO)CC1	
InChI=1S/C6H9NO2/c8-4-5-1-2-6(3-5)7-9/h3,8-9H,1-2,4H2	InChI=1S/C6H9NO2/c8-4-5-1-2-6(3-5)7-9/h3,8-9H,1-2,4H2
