23
gdb 110872	2.55724	1.14382	1.02331	1.9766	84.54	-0.2523	0.0708	0.3231	1318.8122	0.20715	-388.287054	-388.277866	-388.276921	-388.321276	35.555	
C	-0.0869668206	 1.5550885454	-0.2599450256	-0.409265
C	 0.0154532656	 0.0316276325	-0.2208571198	 0.077362
C	 0.8693577814	-0.5905108144	-1.3585019687	-0.254491
C	 1.3806991765	-1.9237355768	-0.8063846177	-0.071818
C	 2.6104407215	-1.9371035169	 0.0849448603	-0.037435
C	 3.6140396429	-0.8105433311	 0.118092311	-0.083235
O	 4.5403127746	-0.8951539405	-0.9590671977	-0.42464
C	 1.2325459633	-1.8884131138	 0.7054727613	-0.071535
C	 0.6136348163	-0.5429916846	 1.0916009272	-0.25292
H	 0.9027293589	 2.0184054434	-0.1668761777	 0.114812
H	-0.5289274526	 1.9031383156	-1.1997744917	 0.112112
H	-0.7081758671	 1.9340337253	 0.5586597563	 0.112918
H	-0.9950560159	-0.3866169932	-0.3191581972	 0.073136
H	 0.2769252224	-0.7415734442	-2.2657729568	 0.098288
H	 1.6876695238	 0.0868892136	-1.6364140384	 0.09149
H	 1.1557212998	-2.8271711527	-1.3625667054	 0.081947
H	 3.0933562492	-2.9097830338	 0.1510034941	 0.087973
H	 3.1180912199	 0.1699019814	 0.129754665	 0.085643
H	 4.2169105931	-0.870362891	 1.0310363365	 0.108045
H	 4.0243868066	-0.9994795598	-1.7655323751	 0.282168
H	 0.9074788632	-2.7700482232	 1.2470114398	 0.082109
H	 1.3503082686	 0.1473967047	 1.5191602862	 0.099813
H	-0.1593468213	-0.675059116	 1.854619894	 0.097523
56.5656	78.7866	170.3068	241.0188	248.9794	299.6969	306.4579	332.0661	415.0886	499.7037	516.9498	561.7564	685.1215	751.9207	803.3514	819.061	877.1563	891.3227	930.1444	938.2716	954.3206	1001.5818	1028.0958	1049.1545	1060.0466	1066.7402	1103.8277	1119.9986	1143.4297	1160.683	1193.0442	1208.3908	1239.9748	1259.3907	1290.2108	1302.3658	1332.3261	1343.5739	1356.937	1361.2613	1380.8947	1411.7553	1417.128	1448.8615	1490.8952	1496.5365	1498.102	1505.4545	1520.3065	3002.505	3009.1435	3019.6913	3023.6828	3036.081	3062.9746	3076.4003	3078.8835	3090.4285	3095.5212	3128.8109	3157.4657	3168.913	3808.8584
CC1CC2C(CO)C2C1	C[C@H]1C[C@H]2[C@@H](CO)[C@H]2C1	
InChI=1S/C8H14O/c1-5-2-6-7(3-5)8(6)4-9/h5-9H,2-4H2,1H3	InChI=1S/C8H14O/c1-5-2-6-7(3-5)8(6)4-9/h5-9H,2-4H2,1H3/t5-,6+,7-,8+
