20
gdb 62688	2.42099	1.72482	1.2925	1.701	79.75	-0.2026	0.07	0.2726	1060.0686	0.168765	-403.054202	-403.045266	-403.044322	-403.086842	35.47	
C	-0.1396981609	 1.6210602512	-0.0464949466	-0.477638
C	 0.1124634964	 0.1305425453	 0.0295377431	 0.33502
O	-0.9716317868	-0.5843303552	-0.5433971433	-0.46411
C	 1.4036945207	-0.6536486637	-0.201818839	-0.182101
C	 2.6762931942	-0.1626222012	 0.5305013341	-0.063038
N	 2.4156518929	 1.1256379875	 1.2235416435	-0.344348
C	 1.9669199366	-0.1597094995	 1.8242093585	-0.123444
C	 0.6670439197	-0.7069870946	 1.1556616617	 0.297153
C	-0.0702487075	-1.8394903909	 1.8115501714	-0.493643
H	-0.2059538054	 1.9268520774	-1.0999946603	 0.093323
H	-1.1039768901	 1.8410256765	 0.4243424093	 0.113939
H	 0.6484206137	 2.19510906	 0.4301742017	 0.161704
H	-1.065118868	-0.2709134955	-1.4496753368	 0.27884
H	 1.4225473752	-1.4230185878	-0.9642330734	 0.085347
H	 3.6864050265	-0.4660256418	 0.2856814111	 0.094212
H	 3.2804700968	 1.3761832206	 1.704148502	 0.228046
H	 2.2992444117	-0.4557202751	 2.8117536768	 0.091665
H	-0.5714509637	-1.5005237077	 2.727425729	 0.113799
H	-0.8265850382	-2.247549855	 1.1403551229	 0.146325
H	 0.6177989562	-2.6458787006	 2.0932278841	 0.108948
161.3691	187.2895	188.5177	210.6424	267.7451	288.3438	295.4137	358.7941	385.5644	434.9678	480.4448	601.8454	626.2365	702.1966	719.8345	793.0122	828.699	878.1668	898.6622	906.3109	913.6888	961.7201	971.8938	1012.2679	1076.8322	1087.6796	1111.5783	1123.9265	1141.3124	1192.8859	1204.5214	1222.2185	1286.0624	1295.9635	1309.5312	1368.7233	1395.7847	1405.4272	1459.0924	1487.007	1493.179	1499.5208	1510.5513	3012.1335	3017.3332	3066.0379	3078.9171	3144.5765	3178.6372	3185.6621	3195.8223	3197.5758	3456.9739	3800.0639
CC1(O)C2C3NC3C12C	C[C@@]1(O)[C@H]2[C@H]3N[C@H]3[C@@]12C	
InChI=1S/C7H11NO/c1-6-4(7(6,2)9)3-5(6)8-3/h3-5,8-9H,1-2H3	InChI=1S/C7H11NO/c1-6-4(7(6,2)9)3-5(6)8-3/h3-5,8-9H,1-2H3/t3-,4+,5-,6+,7-/m1/s1
