20
gdb 51800	3.69631	1.01965	0.91412	3.7021	80.21	-0.2434	0.0355	0.279	1322.123	0.173381	-403.179707	-403.171423	-403.170479	-403.213685	31.616	
O	 0.1873131207	-0.4817697712	 0.3154653319	-0.327209
C	-0.0216323993	 0.7122526021	 0.3756521939	 0.150372
N	 0.8844606233	 1.6857911705	 0.0981267378	-0.283891
C	 2.2645004805	 1.4201030425	-0.2789611534	 0.050598
C	 2.5825737359	 1.7303421559	-1.7650573146	-0.248737
C	 4.0974659784	 2.02216267	-1.7987609321	-0.217832
C	 4.4134655484	 2.5965202192	-0.4212789214	-0.022973
C	 3.4998788904	 3.6727494593	 0.1083436144	-0.303229
C	 3.2838807061	 2.2292754297	 0.5114007128	-0.047442
H	-1.0014550505	 1.1382166447	 0.6722854413	 0.069832
H	 0.5991738957	 2.6471936749	 0.2042877978	 0.243645
H	 2.415608988	 0.3554860136	-0.0820788527	 0.122568
H	 2.2883643867	 0.9085490022	-2.4215585807	 0.114792
H	 2.010648461	 2.6081540507	-2.0842420103	 0.098277
H	 4.6611898237	 1.092155757	-1.9363432205	 0.106796
H	 4.3748800872	 2.6912765765	-2.620448573	 0.099693
H	 5.4422355864	 2.5852755528	-0.0792931892	 0.085807
H	 3.9012036411	 4.3352338343	 0.8671239609	 0.114114
H	 2.8042364849	 4.1580426796	-0.5699235989	 0.10481
H	 3.4638880415	 1.9502035357	 1.543363596	 0.090009
26.8605	109.6701	181.5854	220.3514	267.3552	361.3475	421.646	471.9448	540.1451	582.798	628.6788	747.9115	800.6555	829.7198	839.3564	897.5503	928.0255	951.7475	979.5651	999.0138	1031.0596	1032.4526	1063.5772	1075.1454	1098.6319	1114.2387	1140.3637	1186.2786	1206.4977	1221.246	1228.9429	1305.3831	1323.7771	1329.492	1349.8937	1373.9679	1395.8268	1431.5023	1485.7468	1493.0039	1513.5274	1527.3803	1802.4731	2927.8809	3035.6584	3050.2949	3074.0456	3086.8497	3110.2283	3125.61	3167.7869	3176.733	3209.9918	3623.9266
O=CNC1CCC2CC12	O=CN[C@H]1CC[C@H]2C[C@@H]12	
InChI=1S/C7H11NO/c9-4-8-7-2-1-5-3-6(5)7/h4-7H,1-3H2,(H,8,9)	InChI=1S/C7H11NO/c9-4-8-7-2-1-5-3-6(5)7/h4-7H,1-3H2,(H,8,9)/t5-,6+,7-/m0/s1
