17
gdb 39048	2.52335	2.27162	1.81075	0.3328	71.02	-0.2336	0.0012	0.2349	836.7413	0.138625	-421.786621	-421.78042	-421.779476	-421.816843	26.104	
C	-0.0104739075	 1.4830598539	-0.2023650051	-0.271276
C	 1.2936983892	 2.1501504497	 0.1736813598	-0.051718
C	 2.1336767299	 1.7298986843	 1.1208957384	-0.023754
C	 1.830324803	 0.5390233534	 1.9729979824	-0.011433
O	 0.4525737577	 0.5799494353	 2.4825219302	-0.295198
C	 0.0665074897	-0.4565559958	 1.5878126746	 0.0573
C	-0.0420406797	-0.0215977426	 0.0864692894	 0.054998
O	 1.251137851	-0.6422362503	-0.1995020193	-0.29149
C	 1.4968750144	-0.8032836293	 1.1922738888	 0.062551
H	-0.8560413634	 1.9643154572	 0.3089810873	 0.126568
H	-0.1786922162	 1.6335013917	-1.2752855168	 0.112323
H	 1.5495690983	 3.0375968483	-0.3998047599	 0.095494
H	 3.0646696101	 2.25904113	 1.2998903486	 0.090224
H	 2.5318004849	 0.4246021483	 2.8041647344	 0.082713
H	-0.7000160662	-1.1226535967	 1.9863675732	 0.087089
H	-0.8358385178	-0.5183060714	-0.4815648297	 0.084409
H	 2.0723221526	-1.6951892361	 1.4420766136	 0.091199
189.5317	282.1735	333.3429	385.7023	463.0649	563.9671	629.4075	688.4525	699.927	765.2251	817.3602	833.9652	854.7024	894.7988	898.6889	950.3686	976.8861	992.1566	997.4212	1034.8354	1043.1935	1076.6259	1092.4898	1171.0581	1195.8405	1204.3211	1213.3569	1263.1309	1279.7137	1316.7044	1324.5178	1347.2154	1363.8872	1384.7121	1416.672	1457.4672	1710.2648	3016.2531	3046.8776	3058.4647	3067.1617	3099.9885	3114.5731	3152.9523	3179.7049
C1C=CC2OC3C1OC23	C1C=C[C@H]2O[C@H]3[C@@H]1O[C@@H]23	
InChI=1S/C7H8O2/c1-2-4-6-7(8-4)5(3-1)9-6/h1-2,4-7H,3H2	InChI=1S/C7H8O2/c1-2-4-6-7(8-4)5(3-1)9-6/h1-2,4-7H,3H2/t4-,5-,6+,7+/m1/s1
