17
gdb 89627	3.98181	1.13505	0.96931	5.576	68.86	-0.256	0.0029	0.2588	1195.0274	0.137666	-455.135744	-455.127658	-455.126714	-455.168558	30.708	
N	 0.0401385986	 1.0891606967	-0.1164362923	-0.511415
H	-0.104508739	-0.8162560985	 1.3868294191	 0.250112
H	 0.9498890351	 1.5103643393	-0.2835671421	 0.234551
H	-0.5437874438	 1.3320233167	-0.9113178643	 0.237937
C	-0.5493791525	 1.6062470766	 1.1116485815	-0.02067
C	-1.934274248	 0.9687762237	 1.4659100057	-0.311124
C	-1.2922026685	 0.3079010048	 2.6844531378	 0.183467
N	-0.1003193318	-0.4734551326	 2.3479208539	-0.376503
C	 0.0391250193	 0.9678396226	 2.3903994254	-0.073146
C	-1.9303542326	 0.0694024338	 4.0131831703	 0.367953
O	-1.211693252	-0.7301245877	 4.8223941404	-0.380458
O	-2.9774087368	 0.5612468583	 4.3411978485	-0.343515
H	-0.5785020865	 2.7012990951	 1.1881270437	 0.07786
H	-2.679532238	 1.7106923072	 1.7536747436	 0.139618
H	-2.3580874202	 0.2874993118	 0.7222581478	 0.105172
H	-0.4586530688	-1.0526050293	 4.2929231872	 0.309498
H	 0.7557310753	 1.4082211314	 3.0741494838	 0.110664
103.6372	110.5228	160.5228	241.5348	272.2003	361.2558	415.2632	440.1023	521.458	615.3969	710.8946	739.0233	744.6534	753.506	823.6032	868.0212	883.6634	901.3581	953.4827	995.1121	1051.5101	1095.8945	1108.4689	1145.2125	1165.4986	1173.9536	1206.338	1247.7239	1274.6258	1293.6262	1332.893	1364.7055	1388.7082	1446.6406	1480.756	1652.1046	1862.4927	3007.1404	3062.4544	3141.0493	3183.5589	3455.6762	3487.0985	3566.7405	3618.2697
[NH3+]C1CC2(NC12)C([O-])=O	N[C@H]1C[C@]2(N[C@@H]12)C(=O)O	
InChI=1S/C5H8N2O2/c6-2-1-5(4(8)9)3(2)7-5/h2-3,7H,1,6H2,(H,8,9)	InChI=1S/C5H8N2O2/c6-2-1-5(4(8)9)3(2)7-5/h2-3,7H,1,6H2,(H,8,9)/t2-,3-,5+/m0/s1
