12
gdb 23786	4.04113	1.84592	1.2679	6.2666	59.98	-0.2357	-0.0393	0.1964	854.2276	0.084892	-418.829038	-418.822704	-418.82176	-418.859363	24.332	
N	-0.0226431889	 1.3993789589	-0.1315426283	-0.592785
C	 0.0366544213	 0.0323247056	-0.0487870886	 0.362733
C	-1.1421298205	-0.7509572156	-0.0172256274	-0.026589
N	-1.1545373557	-2.0698347034	 0.0188956635	-0.194578
N	-0.0062546226	-2.7555793794	 0.0255170997	-0.267256
C	 1.1125463209	-2.0634555839	-0.0030752332	 0.384698
F	 2.2284244079	-2.7827602836	 0.0075653532	-0.066498
C	 1.2296758726	-0.679837452	-0.0386924778	-0.352527
H	 0.8042048215	 1.9230438312	 0.1069984999	 0.263355
H	-0.8875447015	 1.8451068484	 0.1288750916	 0.265249
H	-2.1183297292	-0.2719565589	-0.022381445	 0.108878
H	 2.2037067942	-0.2056272674	-0.0588535175	 0.115321
206.7152	233.6755	322.1525	394.6106	418.9772	473.2922	480.9501	536.8463	573.7698	668.2175	761.2028	775.2282	872.4874	909.052	1004.7395	1021.286	1080.3161	1170.97	1215.5325	1277.5647	1388.7853	1446.1956	1492.1612	1590.2203	1632.2088	1663.0712	3157.4502	3200.2714	3593.3137	3701.9692
NC1=CN=NC(F)=C1	Nc1cnnc(F)c1	
InChI=1S/C4H4FN3/c5-4-1-3(6)2-7-8-4/h1-2H,(H2,6,8)	InChI=1S/C4H4FN3/c5-4-1-3(6)2-7-8-4/h1-2H,(H2,6,8)
