20
gdb 121216	2.32794	1.11317	0.79665	4.886	78.63	-0.2362	0.0305	0.2666	1458.4302	0.170073	-440.283344	-440.273555	-440.272611	-440.319353	33.727	
C	-0.1545515228	 1.4217731676	-0.2483619413	-0.229781
O	-0.0873911124	 0.0141470057	-0.211286219	-0.233649
C	-1.3206367423	-0.5936696685	 0.0967096199	-0.060525
C	-1.13800523	-2.0978182182	 0.0211835937	 0.02331
C	-2.4215508727	-2.9665158993	 0.179127295	-0.279235
C	-2.1334902673	-3.5614315319	-1.2307149121	-0.162004
N	-0.9956473745	-2.6481431273	-1.3334707482	-0.038411
C	-0.0035517675	-2.6084251629	-2.2543391314	 0.117734
O	 0.0093444555	-3.2805721167	-3.2668019329	-0.336052
H	 0.8442908028	 1.7891595755	-0.4939300883	 0.133828
H	-0.8631808653	 1.7750113527	-1.0131360298	 0.11087
H	-0.4595956839	 1.8392825985	 0.7238175263	 0.106852
H	-1.6555946357	-0.3152945038	 1.1118235242	 0.089804
H	-2.1032512159	-0.2764988323	-0.6129876911	 0.089646
H	-0.3153300276	-2.3872984589	 0.6865781155	 0.096274
H	-2.3994576437	-3.6786459551	 1.0035687243	 0.120419
H	-3.3412290138	-2.3809956833	 0.2370220048	 0.115229
H	-1.8429299852	-4.6170604024	-1.244592949	 0.125005
H	-2.9045399833	-3.4018587319	-1.9903367084	 0.124103
H	 0.7829969755	-1.8794816775	-1.9827039122	 0.086583
52.9583	70.2025	103.1648	109.484	168.4633	209.6651	235.4536	316.3124	344.437	365.5399	473.7686	583.4872	746.7753	799.1432	870.5578	912.225	950.3389	974.8794	1030.8667	1043.355	1069.3918	1139.3589	1154.0165	1169.7944	1186.5013	1187.1903	1213.9746	1229.9655	1252.6141	1270.0702	1284.201	1316.4722	1365.9539	1396.9714	1424.8359	1436.2995	1479.7767	1486.7582	1490.149	1499.1631	1519.9144	1525.3197	1783.3818	2946.6549	2965.4943	2976.8518	2983.3261	3023.2101	3033.2704	3044.8365	3082.7165	3088.1807	3121.1171	3144.5352
COCC1CCN1C=O	COC[C@H]1CCN1C=O	
InChI=1S/C6H11NO2/c1-9-4-6-2-3-7(6)5-8/h5-6H,2-4H2,1H3	InChI=1S/C6H11NO2/c1-9-4-6-2-3-7(6)5-8/h5-6H,2-4H2,1H3/t6-/m1/s1
