18
gdb 54507	3.15272	1.41289	1.12386	2.6911	78.24	-0.241	-0.0218	0.2192	1109.8651	0.147825	-401.956972	-401.948837	-401.947893	-401.98976	31.111	
C	 0.2730924221	 1.4223507891	 0.0905346308	-0.492419
C	-0.1554272072	-0.0266177747	-0.0004167688	 0.3064
O	-0.5929719466	-0.6340514635	 0.9577998491	-0.332415
C	-0.0138388752	-0.7031225921	-1.3235815694	 0.220792
N	-0.7405067521	-1.992775535	-1.4970788656	-0.362382
C	 0.7098393237	-2.0329229994	-1.38150372	-0.065795
C	 1.4580372451	-2.0915974755	-2.7093530304	-0.270236
C	 1.0735194568	-0.791238444	-3.3859557473	-0.073294
C	 0.2965879056	-0.0245543801	-2.617782514	-0.163135
H	 1.2664224055	 1.5639802304	-0.347475601	 0.143262
H	-0.418827417	 2.0510605389	-0.482689846	 0.146553
H	 0.2669689501	 1.7422394857	 1.1328705132	 0.144264
H	-1.1286813358	-2.2117937258	-0.5765765882	 0.246096
H	 1.148598643	-2.4457872322	-0.4790587254	 0.107882
H	 2.5422016028	-2.169029412	-2.5585954875	 0.111608
H	 1.1519071937	-2.9640377561	-3.2989737329	 0.129038
H	 1.3805198408	-0.5522750229	-4.3979009708	 0.102742
H	-0.1090422255	 0.9403884092	-2.8965061758	 0.10104
77.3862	143.5524	164.9823	195.1085	301.3703	364.8909	420.1107	474.715	513.4373	589.2848	635.1085	712.609	745.317	776.6176	854.618	892.7839	926.9776	947.1065	955.4683	975.6972	1000.1062	1030.9916	1042.6336	1088.8864	1133.9093	1172.3983	1186.774	1211.8811	1277.8396	1310.9598	1334.4966	1381.9416	1386.3777	1419.6611	1461.7091	1463.7136	1473.1875	1666.1503	1774.949	3027.9631	3036.795	3064.044	3098.4205	3155.5627	3170.0812	3191.0199	3215.9823	3442.1194
CC(=O)C12NC1CC=C2	CC(=O)[C@]12N[C@H]1CC=C2	
InChI=1S/C7H9NO/c1-5(9)7-4-2-3-6(7)8-7/h2,4,6,8H,3H2,1H3	InChI=1S/C7H9NO/c1-5(9)7-4-2-3-6(7)8-7/h2,4,6,8H,3H2,1H3/t6-,7-/m0/s1
