17
gdb 55985	3.32188	1.08404	0.84911	3.385	70.06	-0.2374	0.0068	0.2442	1295.4459	0.136796	-455.181572	-455.173013	-455.172069	-455.215639	31.42	
N	 0.6267358154	 0.1768419855	-0.7914501337	-0.516761
C	-0.0586624357	 0.1265748715	 0.3789043912	 0.362251
O	 0.1863259465	 0.8432963367	 1.3320243309	-0.364007
C	-1.2039790871	-0.8971803872	 0.4367039484	-0.3133
C	-0.8687609688	-2.2926791655	-0.0954064923	-0.151613
C	-1.9737085568	-3.3759950233	-0.0605309108	-0.10698
O	-1.8842063315	-3.5192790885	-1.5175585737	-0.244544
C	-0.9464744937	-2.5256495007	-1.5939679766	 0.466641
N	-0.3944552109	-1.9931527212	-2.5901037512	-0.559857
H	 1.366456136	 0.8569607741	-0.8587843501	 0.253694
H	 0.4050283492	-0.4038013907	-1.5950000111	 0.289123
H	-1.4876293649	-0.9618301812	 1.4895788157	 0.134579
H	-2.064200126	-0.4899689617	-0.109513199	 0.126403
H	 0.0777883675	-2.6467609564	 0.3224747834	 0.125156
H	-1.7307964068	-4.3154459165	 0.4393951961	 0.131185
H	-2.9686598357	-3.0298353449	 0.2298960566	 0.1305
H	-0.7138706167	-2.3867535601	-3.4750471641	 0.237531
47.9675	95.4293	147.0749	190.7291	235.647	313.988	415.1527	454.9622	474.0134	557.9583	600.29	672.8298	732.1057	764.397	817.788	849.6337	869.6168	902.8711	957.3503	996.7847	1036.1661	1076.2743	1124.8456	1138.0473	1158.1823	1193.8191	1243.163	1256.6105	1304.147	1353.1154	1372.5853	1387.2298	1470.824	1514.2851	1657.9601	1794.0326	1811.4276	3037.1418	3068.8534	3078.4311	3112.2061	3132.817	3454.9611	3494.4913	3678.4087
NC(=O)CC1COC1=N	NC(=O)C[C@H]1CO[C]1[NH]	
InChI=1S/C5H8N2O2/c6-4(8)1-3-2-9-5(3)7/h3,7H,1-2H2,(H2,6,8)	InChI=1S/C5H8N2O2/c6-4(8)1-3-2-9-5(3)7/h3,7H,1-2H2,(H2,6,8)/t3-/m0/s1
