15
gdb 10291	2.62172	1.87341	1.13442	4.4967	63.86	-0.2528	0.0124	0.2652	996.7847	0.117534	-399.798652	-399.790089	-399.789145	-399.831983	31.275	
N	 0.0573248786	 1.1893222274	 0.3817608372	-0.530469
C	 0.0105638021	-0.0247247538	-0.2061881201	 0.449122
O	 0.9260422585	-0.4690132993	-0.8858460123	-0.385373
C	-1.2890953657	-0.8361975035	-0.0075016248	-0.335123
C	-0.9347041679	-2.3464909229	 0.157142383	-0.053648
O	-0.3727133619	-2.8773221183	-1.0097668302	-0.420017
C	-2.1313909896	-0.354780276	 1.0779991783	 0.300242
C	-2.8141666031	 0.0235311179	 1.9937411532	-0.431953
H	 0.8963906167	 1.7374987794	 0.2848774208	 0.267353
H	-0.6757914328	 1.4931264742	 1.0007013551	 0.273258
H	-1.8355905123	-0.754226908	-0.957242582	 0.148243
H	-0.2766434277	-2.4553433743	 1.0342267126	 0.097485
H	-1.8571210011	-2.8962421977	 0.364944824	 0.116429
H	 0.3676729993	-2.2881592017	-1.2297316772	 0.299322
H	-3.4330085332	 0.3456675764	 2.7949137426	 0.205129
44.416	146.2425	153.986	215.9069	263.2657	339.8595	366.4287	423.2999	501.5541	505.1739	551.3498	620.5196	634.4846	642.1121	660.5784	728.281	807.1986	994.0616	1012.0683	1068.4588	1105.5365	1117.7396	1204.0354	1265.0936	1305.1207	1362.2027	1388.0561	1473.9846	1511.5065	1609.1814	1767.9821	2227.452	2976.5475	3025.2171	3085.738	3499.4011	3591.5315	3668.277	3727.4299
NC(=O)C(CO)C#C	NC(=O)[C@@H](CO)C#C	
InChI=1S/C5H7NO2/c1-2-4(3-7)5(6)8/h1,4,7H,3H2,(H2,6,8)	InChI=1S/C5H7NO2/c1-2-4(3-7)5(6)8/h1,4,7H,3H2,(H2,6,8)/t4-/m1/s1
