21
gdb 59432	3.19032	1.03398	0.90981	1.2396	79.26	-0.2534	0.0663	0.3197	1380.5367	0.180488	-424.198476	-424.188816	-424.187872	-424.233553	35.849	
C	 0.0465753449	 1.4104173332	-0.069398886	-0.410143
C	 0.0351048051	-0.0560998078	 0.3563909811	 0.107626
O	 0.6622112646	-0.2572407995	 1.6213159236	-0.430516
C	-1.3706830235	-0.6228294987	 0.376699583	-0.073761
O	-1.9614033873	-0.9134357049	-0.9012824247	-0.29677
C	-1.6804763669	-1.9956197309	-0.0238453407	 0.456098
C	-0.7279219311	-3.1592292203	-0.3151896535	-0.31038
C	-1.6208787472	-4.033375549	 0.6180230877	-0.21163
C	-2.7336237575	-2.943369367	 0.5532776088	-0.312964
H	 1.0695666179	 1.7957428591	-0.0863994343	 0.123909
H	-0.3932053063	 1.5223097045	-1.0647366669	 0.138412
H	-0.5410823505	 2.0220500392	 0.6274594618	 0.104833
H	 0.6281220044	-0.6423635548	-0.3531179818	 0.095399
H	 0.2491142693	 0.341166647	 2.2537067335	 0.279162
H	-2.0502376027	-0.1294099452	 1.0795253674	 0.077671
H	-0.7875906411	-3.4698310617	-1.3624421072	 0.112458
H	 0.3215009893	-3.0362989444	-0.0388450216	 0.117097
H	-1.8873078585	-5.0255655529	 0.2509024805	 0.104054
H	-1.1953549681	-4.1306193289	 1.6189955058	 0.11222
H	-3.2209341494	-2.6521822679	 1.487038775	 0.102909
H	-3.5026624854	-3.1775241488	-0.1889929016	 0.114318
40.1908	93.2393	129.9536	151.8341	241.3424	253.1247	276.7991	362.6751	376.9741	408.6585	491.9962	508.7356	580.7182	717.606	782.0122	836.4445	869.2965	891.6182	919.9892	925.0195	956.8076	1000.5739	1023.4276	1050.5269	1072.4585	1125.6432	1140.1644	1166.5416	1176.8076	1206.3208	1225.9528	1245.524	1259.5479	1270.8713	1280.4944	1330.5523	1369.9167	1397.6353	1408.4478	1467.2831	1479.0896	1487.1387	1492.6127	1495.853	1525.8218	3022.9551	3051.2822	3055.7652	3060.8216	3066.5099	3076.5873	3099.2303	3105.914	3113.7377	3125.2032	3134.4387	3798.5616
CC(O)C1OC11CCC1	C[C@@H](O)[C@H]1OC21CCC2	
InChI=1S/C7H12O2/c1-5(8)6-7(9-6)3-2-4-7/h5-6,8H,2-4H2,1H3	InChI=1S/C7H12O2/c1-5(8)6-7(9-6)3-2-4-7/h5-6,8H,2-4H2,1H3/t5-,6-/m1/s1
