13
gdb 28630	5.38615	1.05179	0.87996	0.9582	70.83	-0.2661	-0.0731	0.193	1196.9822	0.091287	-452.822369	-452.815361	-452.814417	-452.85418	25.732	
O	 0.0764759592	 1.3071581047	-0.0993669214	-0.372721
C	 0.063659347	-0.0241781914	-0.0622572179	 0.474647
N	 0.0122760813	-0.6338008525	-1.247277617	-0.293314
C	-0.0000923663	-1.9608825941	-1.1961272436	-0.036972
C	 0.0372713057	-2.6832597445	-0.0017465538	 0.101933
C	 0.0225254182	-4.1544467764	 0.0272498645	 0.088769
O	 0.0536254749	-4.818730749	 1.0377369806	-0.26995
C	 0.0897902279	-1.9184231753	 1.1702553352	-0.025085
N	 0.1034505579	-0.5932637598	 1.1539217977	-0.346693
H	 0.1144235263	 1.6084185988	 0.8198009119	 0.314147
H	-0.0418470507	-2.4806457464	-2.1528384952	 0.132392
H	-0.0204954749	-4.6333354753	-0.9765200161	 0.079135
H	 0.1210380936	-2.4121566388	 2.1378674651	 0.153711
95.9989	175.1884	188.8761	320.2146	416.0768	426.0105	465.9565	538.2591	607.2773	648.0849	668.921	820.5233	839.5508	898.1744	979.1958	1022.9527	1050.1185	1050.2346	1173.0776	1246.5067	1293.719	1356.9622	1397.2988	1408.5757	1455.3443	1507.6605	1607.0382	1641.7532	1797.1365	2883.1928	3141.538	3179.4585	3769.5206
OC1=NC=C(C=O)C=N1	Oc1ncc(C=O)cn1	
InChI=1S/C5H4N2O2/c8-3-4-1-6-5(9)7-2-4/h1-3H,(H,6,7,9)	InChI=1S/C5H4N2O2/c8-3-4-1-6-5(9)7-2-4/h1-3H,(H,6,7,9)
