25
gdb 60341	2.89958	0.81582	0.75773	0.4672	86.22	-0.2495	0.0763	0.3257	1688.5297	0.224248	-426.636083	-426.624128	-426.623184	-426.673532	43.727	
C	 0.1417048299	 1.4571415974	-0.2515868668	-0.393546
C	 0.0019395439	-0.0411633572	 0.0339897388	 0.167759
C	 0.5620990317	-0.4188556658	 1.4008804132	-0.389897
O	-1.3594628532	-0.4586435843	 0.0280840501	-0.265877
C	-1.9613274688	-0.5515936313	-1.2443570931	-0.065522
C	-3.3451547104	-1.1990833141	-1.0941770537	 0.325414
C	-3.2199025433	-2.6246206713	-0.5451959273	-0.412421
C	-4.249972081	-0.336261753	-0.2066745091	-0.410944
O	-3.8398632564	-1.2226933442	-2.4378943578	-0.472102
H	 1.1949396448	 1.7542636175	-0.2232017978	 0.11357
H	-0.2501506963	 1.7208082956	-1.2378112634	 0.11965
H	-0.4018690635	 2.0375181331	 0.5011372535	 0.120486
H	 0.5448029631	-0.603684772	-0.7447946427	 0.064444
H	 0.0241254689	 0.1142930395	 2.1914026612	 0.121346
H	 0.4516410585	-1.4922781612	 1.5758491858	 0.119281
H	 1.6227782134	-0.1599514977	 1.4697081347	 0.111868
H	-2.0881604203	 0.435113616	-1.7133852356	 0.093713
H	-1.3495412776	-1.1669532012	-1.9230687401	 0.088998
H	-2.7266816173	-2.6207595507	 0.4297371841	 0.13115
H	-4.2083909427	-3.084353945	-0.4295519351	 0.097261
H	-2.6337964326	-3.2418096248	-1.2327172578	 0.115184
H	-4.38433407	 0.6523728391	-0.6556704887	 0.115812
H	-5.2376084318	-0.7988682306	-0.0944074017	 0.096808
H	-3.8134554387	-0.2124695804	 0.7873397386	 0.132252
H	-4.7164369802	-1.6201018233	-2.4181930194	 0.275312
31.4437	63.8206	124.7747	152.4747	206.2915	230.4279	239.9996	241.1171	261.9597	266.1476	308.6439	342.603	369.3621	407.3583	443.6476	464.7514	510.939	532.5577	766.2183	836.1957	913.9798	925.2898	934.96	939.1734	948.8353	965.6294	1003.1247	1045.9184	1111.5743	1143.3931	1161.1457	1168.2524	1197.7183	1206.9359	1225.4301	1296.6462	1357.8954	1367.9935	1383.2557	1392.1536	1396.826	1403.283	1413.6034	1432.2941	1480.2279	1480.9311	1485.2541	1487.5866	1494.4287	1495.0054	1509.0444	1514.8101	1527.3478	2955.1446	2976.2915	3016.7827	3028.9448	3034.3949	3037.013	3042.3048	3097.7842	3101.8944	3107.2866	3113.4539	3115.7868	3121.8271	3127.2762	3131.5456	3815.289
CC(C)OCC(C)(C)O	CC(C)OCC(C)(C)O	
InChI=1S/C7H16O2/c1-6(2)9-5-7(3,4)8/h6,8H,5H2,1-4H3	InChI=1S/C7H16O2/c1-6(2)9-5-7(3,4)8/h6,8H,5H2,1-4H3
