21
gdb 120497	2.14012	1.39167	1.26428	3.8437	73.92	-0.241	0.0516	0.2926	1147.9832	0.183138	-461.340682	-461.331588	-461.330644	-461.374563	35.335	
O	-1.178556867	 0.0495233925	 1.5174962935	-0.409061
C	-0.5641476712	 0.0354620495	 0.2204444623	-0.093771
C	-1.4167216443	-0.79340036	-0.7304057051	-0.216786
C	-1.4274089162	-2.3286331502	-0.5368785337	-0.058635
C	-0.7569919312	-2.9566588789	 0.730629493	-0.279543
C	-2.1496527436	-3.2082768391	 1.3607508082	 0.090991
O	-2.5663715448	-2.2454882877	 2.310893433	-0.45684
C	-2.7980434939	-2.9341798809	-0.0335255573	 0.127003
O	-3.9285920962	-2.1139245455	 0.0024279393	-0.42853
H	-0.5932260635	 0.4958278819	 2.1367869231	 0.296329
H	-0.4941149715	 1.0649755993	-0.1567620239	 0.101201
H	 0.4568316513	-0.3667785229	 0.2861424727	 0.098394
H	-2.4488853817	-0.4297021943	-0.6681960725	 0.131992
H	-1.0700736737	-0.5604707648	-1.7428454024	 0.100096
H	-1.0867096603	-2.7972061564	-1.46292035	 0.069926
H	-0.2324919833	-3.887410153	 0.4993987623	 0.100598
H	-0.0878357535	-2.3304623788	 1.3243001326	 0.096139
H	-2.3309028115	-4.190941609	 1.8047209438	 0.074591
H	-2.0752912833	-1.4207629587	 2.1455555713	 0.300033
H	-3.0408575842	-3.8532380558	-0.5783877221	 0.071283
H	-3.9551389565	-1.7794004972	 0.9145042118	 0.284589
43.2955	148.7023	198.2868	236.5438	270.7192	282.4294	300.4901	360.8139	408.7828	488.5292	515.6585	543.7137	589.7878	730.3145	742.1661	750.2067	828.5884	854.474	900.1486	925.142	949.1064	1012.1443	1044.604	1054.2223	1096.329	1124.6522	1146.9561	1168.4065	1194.9318	1213.9549	1249.2387	1259.2479	1269.2645	1276.3642	1319.6209	1330.2095	1349.8241	1364.7131	1382.4131	1437.6877	1449.2308	1477.3061	1482.6789	1486.3853	1520.2911	2995.5612	3026.1702	3036.8999	3043.8101	3060.4702	3066.0337	3075.8902	3085.3511	3118.6029	3602.2266	3666.9744	3831.865
OCCC1CC(O)C1O	OCC[C@H]1C[C@@H](O)[C@H]1O	
InChI=1S/C6H12O3/c7-2-1-4-3-5(8)6(4)9/h4-9H,1-3H2	InChI=1S/C6H12O3/c7-2-1-4-3-5(8)6(4)9/h4-9H,1-3H2/t4-,5+,6-/m0/s1
