23
gdb 116034	2.61249	1.24338	0.98763	1.7012	87.07	-0.2472	0.0146	0.2618	1313.1285	0.20678	-388.313134	-388.303675	-388.302731	-388.347202	36.41	
C	-0.0839939295	 1.5571610111	-0.0907730296	-0.397062
C	-0.031912762	 0.0289797688	 0.0030733134	-0.173509
C	 0.7411780873	-0.5129898304	 1.2147314711	 0.01259
C	 0.6805025332	-2.0462594901	 1.2910386797	-0.217977
C	 1.3096628073	-2.5658765487	 2.5893408985	-0.265387
C	 2.6266977168	-1.8971758371	 2.878507346	-0.042585
C	 3.0244682701	-0.7703006084	 2.2862104329	-0.101071
C	 2.212371224	-0.0390714415	 1.2476113683	 0.091177
O	 2.8536189874	-0.1259212525	-0.033766777	-0.438535
H	 0.9085371804	 1.9797676232	-0.270979488	 0.132249
H	-0.7297601463	 1.8739924779	-0.9157730034	 0.108149
H	-0.4808369841	 2.0026218992	 0.8290438096	 0.106366
H	-1.0544554735	-0.3673528798	 0.0477016338	 0.083741
H	 0.4197569008	-0.3717201869	-0.9111501365	 0.100556
H	 0.2719967911	-0.1147392802	 2.1279914286	 0.066994
H	-0.3559843586	-2.3903902761	 1.2060966825	 0.092098
H	 1.2161719242	-2.4711463577	 0.4301631828	 0.086282
H	 0.6239914445	-2.3952028358	 3.4334478095	 0.11139
H	 1.4476915381	-3.6534057553	 2.543856481	 0.102368
H	 3.2692817789	-2.3710601897	 3.6177936898	 0.088528
H	 3.9980335316	-0.3436043074	 2.5150189266	 0.089705
H	 2.2281520649	 1.0330263124	 1.4746720735	 0.086971
H	 3.1084311733	-1.0455929149	-0.1622086432	 0.276962
72.2376	109.6309	162.5272	209.1262	247.545	271.5149	286.4336	309.4681	379.3084	461.2759	489.3383	501.5321	611.4944	707.5548	754.0239	762.7091	823.7383	884.8756	898.4975	952.0348	974.2514	1004.4042	1014.3154	1019.3283	1060.2751	1067.2739	1091.1451	1130.456	1138.9415	1173.8895	1221.8513	1245.3253	1264.5208	1291.417	1311.9356	1336.5747	1364.5072	1375.507	1380.6842	1400.0019	1408.8664	1410.8614	1427.6135	1472.8247	1480.981	1496.0009	1498.6923	1510.5761	1716.0938	2982.8623	2994.2635	3008.8103	3023.7239	3030.1764	3042.4405	3042.7444	3063.1018	3069.4054	3095.8867	3111.5302	3139.9851	3165.2284	3811.7224
CCC1CCC=CC1O	CC[C@H]1CCC=C[C@H]1O	
InChI=1S/C8H14O/c1-2-7-5-3-4-6-8(7)9/h4,6-9H,2-3,5H2,1H3	InChI=1S/C8H14O/c1-2-7-5-3-4-6-8(7)9/h4,6-9H,2-3,5H2,1H3/t7-,8+/m0/s1
