19
gdb 68801	2.95589	1.25333	1.06937	0.7712	82.48	-0.2418	0.0483	0.2901	1196.0987	0.156812	-385.831035	-385.821763	-385.820819	-385.864535	35.641	
C	 0.0267976709	 1.5753460379	 0.1270051325	-0.498337
C	-0.0164766022	 0.0766268897	 0.0697070166	 0.29752
C	 1.1664549811	-0.7711509927	-0.3652495422	-0.401295
C	 0.5819108985	-0.9640839387	 1.0049089871	 0.356124
O	 1.2939606762	-0.7460602698	 2.1674747723	-0.46346
C	-0.7023903939	-1.8201619598	 0.9440574576	-0.228445
C	-1.2905476026	-0.7676001399	-0.0748038143	-0.2987
C	-0.5905080973	-3.2085042723	 0.5375918527	 0.309826
C	-0.4769393634	-4.352489624	 0.1817731561	-0.468692
H	 0.998154906	 1.9233366555	 0.4919894227	 0.126655
H	-0.137954205	 2.0190781086	-0.8620230095	 0.119944
H	-0.7428929975	 1.9689433571	 0.8006086628	 0.117927
H	 1.067261396	-1.5316821723	-1.1366512416	 0.114028
H	 2.115398517	-0.2431545178	-0.3625714127	 0.11095
H	 2.0034366195	-1.3965483941	 2.2177792404	 0.290062
H	-1.2314006895	-1.7445562087	 1.8987638463	 0.109808
H	-2.186639934	-0.2804580938	 0.3165561141	 0.107233
H	-1.4992057855	-1.1547036877	-1.0758680305	 0.105687
H	-0.3855257944	-5.3648721671	-0.1247744103	 0.193165
93.7363	127.428	175.0489	191.0771	241.3668	285.6607	331.2496	358.9546	400.8977	467.5447	488.3569	585.4506	594.2681	618.8037	623.4189	693.9987	771.4401	808.3168	854.3293	940.0951	962.9011	990.1377	994.1077	1049.4376	1058.5119	1096.8127	1141.1476	1166.5539	1190.121	1225.9633	1237.852	1303.2755	1333.0542	1340.3952	1410.3356	1429.7682	1479.4286	1486.651	1496.9775	1520.9838	2227.2208	3022.9562	3056.8096	3064.2157	3081.003	3101.339	3105.0091	3114.3886	3199.0357	3504.1598	3790.3649
CC12CC1(O)C(C2)C#C	C[C@@]12C[C@]1(O)[C@@H](C2)C#C	
InChI=1S/C8H10O/c1-3-6-4-7(2)5-8(6,7)9/h1,6,9H,4-5H2,2H3	InChI=1S/C8H10O/c1-3-6-4-7(2)5-8(6,7)9/h1,6,9H,4-5H2,2H3/t6-,7-,8+/m1/s1
