18
gdb 78570	2.44808	1.77876	1.28647	4.4091	75.76	-0.2429	0.0062	0.2492	1040.5361	0.14692	-401.921275	-401.913096	-401.912152	-401.953747	31.312	
C	 0.1950796372	 1.6382951931	-0.0068188519	-0.427853
C	 0.0741043311	 0.1215946403	 0.0118986235	 0.012431
C	 0.6987966141	-0.7354097895	-1.1006573558	-0.109117
N	 2.1770435904	-0.9342954912	-0.8232421281	-0.238169
C	 2.3687037755	-0.3542702527	 0.5015402836	 0.431376
O	 3.3735360388	 0.054951219	 0.9938878017	-0.327516
C	 0.9719946318	-0.715801808	 0.9784130216	-0.265306
C	 1.0885716714	-1.8025921028	-0.1730500525	 0.348091
C	 1.1273038259	-3.290591415	-0.1814209629	-0.52391
H	 1.2321220157	 1.9597503596	-0.1434472324	 0.141012
H	-0.3998605893	 2.0627949214	-0.8221827408	 0.122232
H	-0.1687499553	 2.0704090194	 0.9312847881	 0.125164
H	-0.9699268115	-0.1859743809	 0.1339384874	 0.087349
H	 0.4263550298	-0.7933999139	-2.1476210045	 0.108463
H	 0.7299193776	-0.8530891959	 2.0290630669	 0.094752
H	 0.1605538118	-3.7085713496	 0.1180813116	 0.132337
H	 1.3661040588	-3.6534682067	-1.1848361094	 0.146529
H	 1.8896198162	-3.6675065367	 0.5081424538	 0.142133
117.8594	158.7355	193.2279	212.2896	216.1946	309.8416	378.6259	458.1246	543.9328	621.0906	636.0941	650.0362	711.5455	787.5179	836.275	878.2404	897.9818	927.114	996.6657	1031.2168	1034.1882	1072.5509	1085.3833	1104.9366	1132.5817	1147.2291	1167.2042	1188.6566	1267.8903	1281.3803	1374.5667	1406.7771	1416.6022	1462.6852	1482.0988	1489.5127	1494.2061	1496.5635	1910.9512	3035.5879	3037.0037	3053.2326	3101.5271	3102.1242	3112.2852	3119.8474	3159.1304	3191.3302
CC1C2N3C(=O)C1C23C	C[C@H]1[C@H]2N3C(=O)[C@@H]1[C@@]23C	
InChI=1S/C7H9NO/c1-3-4-6(9)8-5(3)7(4,8)2/h3-5H,1-2H3	InChI=1S/C7H9NO/c1-3-4-6(9)8-5(3)7(4,8)2/h3-5H,1-2H3/t3-,4-,5-,7+,8?/m1/s1
