18
gdb 87585	2.52622	1.63906	1.30985	2.3926	71.31	-0.2379	0.0456	0.2835	1019.1856	0.147144	-439.006797	-438.998625	-438.997681	-439.039218	32.069	
O	 0.0889132148	 1.3551143315	-0.0622923351	-0.439696
C	 0.0203973705	-0.0394442314	-0.0305776918	 0.067579
C	-0.415393158	-0.7734360247	 1.2249446257	-0.40418
C	-1.3072203109	-0.7248942761	 0.0231323394	 0.269793
C	-2.6805366176	-0.054469526	-0.1032963837	 0.027286
O	-2.7600074641	 1.2795615707	-0.5935503942	-0.433194
C	-3.0506567828	-1.2110902681	-1.0225107733	-0.073741
C	-2.0454752432	-1.4052491559	-2.0945933752	-0.254315
N	-1.7263916652	-1.9259834104	-0.7556124247	-0.157972
H	-0.8149469983	 1.6918702157	-0.1380100873	 0.294385
H	 0.809209838	-0.5059749485	-0.6164839224	 0.104953
H	 0.0663867824	-1.7200253886	 1.4473935961	 0.124895
H	-0.6995170217	-0.1784655167	 2.0880358795	 0.119256
H	-3.241012881	-0.0632069543	 0.8343275207	 0.112332
H	-2.6120592963	 1.2526305561	-1.545966281	 0.289214
H	-3.9944727927	-1.7450788257	-1.0132035313	 0.105682
H	-2.257086455	-2.1828018211	-2.8220964102	 0.130109
H	-1.4604320989	-0.5725092866	-2.480704381	 0.117615
101.7624	176.1063	206.335	214.4456	265.9462	349.0286	420.5305	432.5376	508.4106	566.2267	589.6206	634.6062	754.9987	786.8465	798.2951	835.3229	900.6282	960.855	974.0463	996.4079	1009.9457	1035.2581	1061.4072	1082.8446	1097.8331	1120.2813	1148.2062	1160.4764	1186.3305	1215.2571	1247.9493	1277.413	1332.0132	1359.9457	1384.4017	1421.1347	1432.221	1479.7403	1500.6489	3090.9545	3101.6359	3121.9184	3134.2701	3174.2368	3197.8716	3216.2681	3724.4459	3800.687
OC1CC11C(O)C2CN12	O[C@H]1C[C@]21[C@@H](O)[C@H]1CN21	
InChI=1S/C6H9NO2/c8-4-1-6(4)5(9)3-2-7(3)6/h3-5,8-9H,1-2H2	InChI=1S/C6H9NO2/c8-4-1-6(4)5(9)3-2-7(3)6/h3-5,8-9H,1-2H2/t3-,4+,5+,6+,7?/m1/s1
