20
gdb 119253	2.03038	1.16193	0.87964	2.7756	75.72	-0.2498	0.0243	0.2741	1382.3618	0.169669	-440.289625	-440.279654	-440.27871	-440.3253	35.96	
O	-1.8289256924	 1.3571741177	-1.5616204992	-0.417291
C	-1.7691785586	-0.0566920508	-1.4702270331	-0.057358
C	-1.6768441518	-0.5471137268	-0.0225836062	-0.27666
C	-1.6421496181	-2.0610922724	 0.1111450835	 0.357819
C	-2.1811556519	-2.6983039177	 1.3664764966	-0.279061
C	-2.9301352886	-2.847270092	 0.0650782943	-0.32527
N	-0.5008297003	-2.7096079684	-0.4921879543	-0.332111
C	 0.7623957237	-2.6145463316	 0.0087799679	 0.143825
O	 1.0698434978	-2.0262268624	 1.0228025955	-0.320254
H	-1.0147041999	 1.7091103854	-1.1872731819	 0.283113
H	-2.692704167	-0.4215987446	-1.9338127956	 0.108196
H	-0.9300354564	-0.4596973304	-2.0591715021	 0.081679
H	-0.7730692571	-0.1413804889	 0.4489565719	 0.122186
H	-2.5342154489	-0.1538409609	 0.5342071025	 0.104628
H	-1.651835329	-3.5625423576	 1.7479586475	 0.126856
H	-2.5876993819	-2.0430884816	 2.1281242766	 0.122251
H	-3.8512257266	-2.2911737028	-0.0704524545	 0.123097
H	-2.918310308	-3.8192432641	-0.4166941252	 0.11269
H	-0.6171300709	-3.1575479394	-1.3881238806	 0.247944
H	 1.4949365458	-3.1539694808	-0.6264332036	 0.073722
44.4286	92.4136	104.9819	153.4337	175.5449	227.7546	296.5811	326.5834	335.7606	383.6979	430.9779	482.9167	551.3555	715.5103	775.3412	787.1867	837.5983	909.2684	934.0798	960.0976	1000.5366	1032.4414	1038.702	1053.2194	1078.2875	1084.8913	1086.4534	1160.7997	1187.4773	1198.4027	1279.1921	1297.3459	1331.0747	1355.6027	1398.9373	1422.0144	1431.4656	1460.5552	1482.9251	1499.1184	1501.8498	1516.7149	1806.246	2921.5142	2978.9569	3033.0205	3059.9614	3086.4174	3132.0587	3148.6858	3215.8261	3239.3203	3617.8825	3812.4776
OCCC1(CC1)NC=O	OCCC1(CC1)NC=O	
InChI=1S/C6H11NO2/c8-4-3-6(1-2-6)7-5-9/h5,8H,1-4H2,(H,7,9)	InChI=1S/C6H11NO2/c8-4-3-6(1-2-6)7-5-9/h5,8H,1-4H2,(H,7,9)
