25
gdb 93851	2.13971	1.53843	1.15668	1.4857	87.85	-0.2373	0.0715	0.3088	1233.3829	0.227839	-389.514454	-389.504098	-389.503153	-389.548765	39.888	
C	-0.7701640625	 1.2076524228	-0.0494145343	-0.430712
C	 0.1122402346	-0.0392382846	-0.0580789452	-0.002272
C	 1.2677158984	 0.0192729812	-1.0768682459	-0.090479
O	 2.3434608716	-0.743333396	-0.5355848553	-0.282089
C	 1.9115129533	-1.3717586355	 0.6717472636	 0.140236
C	 3.1369378524	-1.6906989897	 1.5122935595	-0.415942
C	 0.841888316	-0.4182376465	 1.2647547844	 0.258
C	 1.4894911698	 0.8026580614	 1.9392633539	-0.43432
C	-0.087120057	-1.1327444995	 2.2507729555	-0.450027
H	-0.1910945053	 2.1153245963	 0.1461296003	 0.120542
H	-1.2641313471	 1.3361384177	-1.0186548416	 0.115869
H	-1.5567402283	 1.1383069321	 0.7094996734	 0.116284
H	-0.5223589599	-0.8974440391	-0.3164978637	 0.070731
H	 0.971569985	-0.3854215431	-2.0542804898	 0.092303
H	 1.615182064	 1.0495271584	-1.2367946258	 0.092794
H	 1.4036058865	-2.3224658773	 0.4256255056	 0.051682
H	 3.7070513918	-0.7874472976	 1.7422866072	 0.123167
H	 2.8482213939	-2.1760263412	 2.4502151818	 0.11232
H	 3.7937265689	-2.3736067984	 0.9661315233	 0.124299
H	 2.2002644746	 1.3037257752	 1.2753919162	 0.124579
H	 0.7325674625	 1.5330332414	 2.2399707341	 0.111054
H	 2.0300414512	 0.507354751	 2.8436009273	 0.11316
H	 0.454973946	-1.4540061321	 3.1470856634	 0.113639
H	-0.8958169152	-0.4717387628	 2.5810804852	 0.114115
H	-0.5442449351	-2.0200090742	 1.798982127	 0.111069
102.5311	115.6146	207.4095	218.0639	219.0243	234.9463	257.7042	268.0845	303.6747	321.0689	354.7717	422.1675	478.0908	515.3519	576.3529	657.642	706.9624	803.3447	873.8111	918.8865	937.9509	949.434	959.7957	1005.2535	1046.2649	1054.3371	1068.7334	1093.1198	1133.1807	1154.9216	1162.1893	1199.9746	1222.403	1240.6319	1276.5323	1328.3157	1357.8775	1368.1548	1389.7754	1394.4371	1404.5895	1409.8459	1417.4545	1429.6327	1480.2453	1485.1787	1488.0562	1497.266	1499.0312	1505.0441	1509.4143	1515.5359	1531.1621	2923.1064	2997.0933	3003.7228	3025.2992	3031.6822	3031.9878	3039.9879	3044.8097	3090.9758	3092.461	3094.5641	3102.5761	3107.9107	3112.3594	3113.2505	3126.5922
CC1COC(C)C1(C)C	C[C@H]1CO[C@@H](C)C1(C)C	
InChI=1S/C8H16O/c1-6-5-9-7(2)8(6,3)4/h6-7H,5H2,1-4H3	InChI=1S/C8H16O/c1-6-5-9-7(2)8(6,3)4/h6-7H,5H2,1-4H3/t6-,7-/m0/s1
