20
gdb 32916	3.96179	0.8908	0.74678	1.1996	86.12	-0.1721	0.0418	0.2139	1572.5826	0.170566	-403.184093	-403.174479	-403.173534	-403.219561	34.75	
C	 0.0324031748	 1.3694951861	 0.2333204905	-0.393724
C	-0.193581781	-0.0697515045	-0.2153901382	-0.121702
N	 0.9057990316	-0.5132232771	-1.0790035491	-0.404001
C	 0.921641729	-1.8290099188	-1.511117751	 0.415253
C	 1.2518631672	-2.4227377834	-2.6934169978	-0.293231
C	 1.1742206118	-3.838149193	-2.451112153	-0.247856
C	 0.7911081977	-4.0063056703	-1.1615856084	 0.347128
C	 0.5031117224	-5.1858842753	-0.3074198505	-0.490821
O	 0.6388561966	-2.7672768325	-0.570256394	-0.213548
H	 0.9833317128	 1.4648000233	 0.7650828783	 0.1307
H	 0.0527600541	 2.0540589912	-0.6229399363	 0.112491
H	-0.7740869212	 1.6952349838	 0.8963900983	 0.120715
H	-0.2189300557	-0.735217996	 0.6511649095	 0.131566
H	-1.1712187284	-0.1618652136	-0.7172092414	 0.092913
H	 1.0648872012	 0.1190567332	-1.8525423532	 0.234107
H	 1.5107855507	-1.9241541181	-3.613754664	 0.089616
H	 1.3693316044	-4.6284569993	-3.1599757886	 0.098809
H	 1.1532002464	-5.2219514097	 0.5752619923	 0.130937
H	-0.5331978886	-5.1876223687	 0.0526019883	 0.129109
H	 0.6622835142	-6.1010953173	-0.8826579818	 0.131539
44.64	60.768	116.3342	143.0557	206.367	252.6105	290.8321	321.88	359.1922	455.5021	612.818	626.4487	652.4842	693.7308	739.5403	766.5966	810.9131	814.7072	916.4846	964.6615	987.3906	1022.4661	1044.1655	1065.1371	1074.9822	1135.16	1161.1648	1229.4502	1240.35	1291.4531	1306.6994	1367.723	1397.8286	1414.3363	1416.2831	1470.3976	1476.617	1493.9677	1496.7746	1500.1603	1522.731	1637.5554	1665.6696	2963.411	3018.9547	3033.2777	3063.6865	3086.8653	3107.7263	3122.4546	3122.8575	3245.7037	3260.7709	3575.8761
CCNC1=CC=C(C)O1	CCNc1ccc(C)o1	
InChI=1S/C7H11NO/c1-3-8-7-5-4-6(2)9-7/h4-5,8H,3H2,1-2H3	InChI=1S/C7H11NO/c1-3-8-7-5-4-6(2)9-7/h4-5,8H,3H2,1-2H3
