17
gdb 10353	2.85506	1.64449	1.10974	6.3635	60.68	-0.2563	0.0134	0.2697	1045.1751	0.14319	-438.16973	-438.16147	-438.160526	-438.202649	30.286	
N	-0.0160977305	 0.9071162946	 0.1083502423	-0.526278
H	 0.169443402	-0.0845763886	 0.2144432119	 0.25249
H	 1.230756168	 2.0983929821	 0.2830860398	 0.318593
H	-0.5611305762	 1.0225043475	-0.7411382339	 0.249991
C	-0.7508358964	 1.4386615301	 1.2739066984	-0.19217
C	-0.7476726917	 2.9773118771	 1.267854409	-0.169231
C	-1.6253067649	 3.5462259414	 2.4001241962	-0.059114
O	-1.7965418642	 4.9371735139	 2.3065062494	-0.426165
C	 0.6685256239	 3.5804786454	 1.3324392023	 0.432419
O	 1.6220817046	 2.9294477545	 0.6726954702	-0.371454
O	 0.908311132	 4.6047924983	 1.9343213494	-0.353571
H	-1.78887128	 1.0816280525	 1.3183853565	 0.113106
H	-0.2461925566	 1.0714268901	 2.1744093894	 0.131583
H	-1.1830897106	 3.3222817284	 0.3177887276	 0.113009
H	-2.6227480936	 3.0953558839	 2.3393562473	 0.09804
H	-1.1907959994	 3.2493799667	 3.3696229668	 0.090486
H	-0.8965878066	 5.2974724022	 2.3358148775	 0.298265
73.5924	127.0823	175.7207	237.2032	293.6431	301.7002	351.9385	407.9674	429.5439	560.1166	590.417	639.7523	734.877	801.9283	875.628	949.2986	992.5179	1019.3662	1050.1263	1076.5113	1096.0047	1104.881	1178.4344	1216.5216	1275.0453	1283.6821	1319.8765	1373.3941	1396.5121	1418.9723	1467.8329	1502.5792	1506.8992	1519.2129	1649.5993	1815.339	2962.9121	3005.9444	3007.9337	3054.8896	3073.1181	3147.8079	3501.2435	3583.4786	3701.9634
[NH3+]CC(CO)C([O-])=O	NC[C@@H](CO)C(=O)O	
InChI=1S/C4H9NO3/c5-1-3(2-6)4(7)8/h3,6H,1-2,5H2,(H,7,8)	InChI=1S/C4H9NO3/c5-1-3(2-6)4(7)8/h3,6H,1-2,5H2,(H,7,8)/t3-/m0/s1
