17
gdb 61326	5.56721	0.56953	0.54357	2.0121	92.44	-0.247	-0.0347	0.2124	1952.4377	0.131849	-384.649594	-384.63937	-384.638426	-384.686069	35.602	
C	-0.0629421188	 1.5524329396	-0.0526052392	-0.408849
C	-0.0326012186	 0.0160520028	-0.0415883342	-0.057571
C	 0.7819052713	-0.5410390325	 1.1604137431	-0.405434
C	 2.1735398136	-0.1231396626	 1.1507446535	 0.342945
C	 3.3325728967	 0.2251191336	 1.1269355974	-0.194914
C	 4.6361045209	 0.6150941816	 1.1040995283	 0.288919
C	 5.7926621169	 0.9615135702	 1.0839545296	-0.552054
C	-1.4515441734	-0.514031143	 0.049453081	 0.155438
O	-1.9977774506	-1.1833123874	-0.7867127335	-0.239138
H	 0.9545835199	 1.9511819622	-0.0646514773	 0.14727
H	-0.591635318	 1.92579244	-0.9339563844	 0.134416
H	-0.5679611526	 1.9434511809	 0.8383702376	 0.122061
H	 0.3997414766	-0.3613318191	-0.9725383775	 0.111793
H	 0.3091887487	-0.2173184233	 2.0986477201	 0.139804
H	 0.7336759766	-1.6376831254	 1.1534384141	 0.150514
H	 6.8099016906	 1.2651259285	 1.0660625959	 0.193257
H	-1.9830038397	-0.2173866863	 0.9869561855	 0.071542
42.4411	51.3798	72.3889	157.0548	202.027	221.0762	282.2678	323.1013	343.9393	357.9486	429.1853	530.7294	541.0517	578.2328	595.8141	604.3694	734.3878	849.4811	897.8784	914.6103	964.6344	1100.1797	1111.4708	1153.8216	1181.5363	1238.3055	1273.3401	1345.9087	1354.6274	1406.2719	1426.861	1465.2661	1496.3339	1500.3042	1839.7458	2182.7152	2363.4745	2834.1178	3007.5011	3035.7512	3044.3236	3080.5259	3108.1633	3126.008	3504.6731
CC(CC#CC#C)C=O	C[C@@H](CC#CC#C)C=O	
InChI=1S/C8H8O/c1-3-4-5-6-8(2)7-9/h1,7-8H,6H2,2H3	InChI=1S/C8H8O/c1-3-4-5-6-8(2)7-9/h1,7-8H,6H2,2H3/t8-/m0/s1
