24
gdb 11467	4.76364	1.08397	0.94546	0.1158	85.29	-0.2965	0.0813	0.3778	1342.9761	0.224568	-314.302021	-314.292789	-314.291845	-314.336171	34.744	
C	 0.0010744948	 1.6009181937	 0.0848598499	-0.382885
C	 0.0166332148	 0.0691978618	 0.0465075425	-0.191729
C	-1.3745327041	-0.5640622909	-0.0463532183	 0.064192
C	-2.1485150283	-0.2430378471	-1.357094832	-0.216643
C	-2.9661677193	-1.5183594074	-1.7044927516	-0.212696
C	-2.7676650376	-2.4908669636	-0.5182375855	 0.053067
C	-2.9326992968	-3.9651608862	-0.880978676	-0.407813
C	-1.3801280891	-2.1013714824	 0.0147152287	-0.221168
H	 1.0145834445	 2.0066936664	 0.1643368656	 0.109019
H	-0.4536586145	 2.0206915802	-0.8185080058	 0.117267
H	-0.571995439	 1.9680885587	 0.9439616588	 0.111137
H	 0.6189456462	-0.2708662006	-0.8076164773	 0.089059
H	 0.5230694918	-0.3082512284	 0.944671202	 0.089204
H	-1.9702253024	-0.1976164073	 0.8025497806	 0.062559
H	-2.7876042812	 0.6366924081	-1.2409649459	 0.095539
H	-1.4432048774	-0.0082920416	-2.1625720289	 0.092937
H	-4.0235052821	-1.3065663923	-1.8898134522	 0.09139
H	-2.5767199196	-1.9806847658	-2.6194806618	 0.092091
H	-3.503709287	-2.2399843068	 0.2591850407	 0.066204
H	-2.2082572179	-4.2611723097	-1.6492039077	 0.109506
H	-2.7789350172	-4.612644775	-0.0108636539	 0.108738
H	-3.9345671094	-4.1707145989	-1.2738050989	 0.109519
H	-0.6030946669	-2.504623144	-0.6517312164	 0.085018
H	-1.1781477825	-2.4893987711	 1.0188326835	 0.086487
47.4646	94.3066	129.9148	202.3083	237.9044	254.9822	287.7775	384.0474	414.387	435.0577	530.6108	595.5728	778.822	782.7332	841.4483	848.6902	920.2799	922.614	945.3599	951.6932	1002.4735	1023.5989	1030.1572	1051.5124	1087.3566	1116.5847	1150.4128	1175.2129	1211.0069	1235.5991	1270.2002	1273.0226	1300.5517	1301.2941	1319.0703	1343.7185	1352.3181	1363.2754	1387.6081	1393.4851	1409.1073	1412.81	1484.145	1490.1764	1490.7572	1497.2412	1499.0703	1501.6483	1507.8513	1514.9587	2987.5296	2992.5661	3004.4633	3011.2679	3022.0024	3028.083	3030.0852	3040.7907	3043.471	3070.1336	3070.422	3087.5712	3091.6987	3093.5539	3095.9656	3102.2238
CCC1CCC(C)C1	CC[C@H]1CC[C@@H](C)C1	
InChI=1S/C8H16/c1-3-8-5-4-7(2)6-8/h7-8H,3-6H2,1-2H3	InChI=1S/C8H16/c1-3-8-5-4-7(2)6-8/h7-8H,3-6H2,1-2H3/t7-,8+/m1/s1
