21
gdb 114922	2.78373	1.2977	0.96841	1.1627	81.31	-0.2364	0.0257	0.2622	1278.7794	0.181862	-424.23278	-424.223203	-424.222259	-424.267453	35.616	
C	-0.0079139874	 1.1552981923	 0.6464448049	-0.251429
O	-0.0928527582	 0.1150766202	-0.3131388268	-0.258251
C	-1.32167265	-0.6017616227	-0.2825013591	 0.076349
C	-1.6166246421	-1.139123636	-1.7014191643	-0.280825
C	-1.3441560078	-2.6172495352	-1.6018355531	-0.17438
C	-1.1154260371	-3.029952598	-0.3549007153	 0.302691
C	-0.8199923401	-4.414785602	 0.1248087611	-0.490884
C	-1.1880781863	-1.8767388772	 0.6294046974	 0.023938
O	-0.0699836851	-1.8123363722	 1.5000897656	-0.429959
H	 0.9589114	 1.6442602058	 0.5007886216	 0.125358
H	-0.8058288472	 1.8975615977	 0.4961149077	 0.109426
H	-0.0675359593	 0.7713148802	 1.6721595554	 0.12788
H	-2.1158790008	 0.0640742914	 0.0754865994	 0.065592
H	-2.6551998301	-0.936904022	-1.9939786122	 0.105102
H	-0.9789350992	-0.6289759863	-2.4318808198	 0.117933
H	-1.3587216821	-3.2656968975	-2.4724315373	 0.086047
H	-0.7090740852	-5.1181188377	-0.704800283	 0.117705
H	 0.0978654608	-4.4237127133	 0.7223171281	 0.136694
H	-1.6194486126	-4.7839550793	 0.7808312409	 0.122933
H	-2.0610591839	-1.9807064087	 1.2868552566	 0.083591
H	 0.6457498436	-1.4479850797	 0.961784592	 0.284491
37.9272	128.2226	160.6377	189.5332	220.3143	255.0224	286.911	308.0807	352.5018	397.3846	492.409	515.1258	584.7791	663.0967	773.7105	790.8148	842.9576	873.9686	931.9825	974.0654	1011.8386	1040.4677	1051.3095	1068.9979	1095.3795	1133.0794	1180.6879	1183.476	1193.0633	1230.946	1259.2322	1280.3223	1291.2304	1325.6121	1357.2839	1392.9619	1409.3024	1436.2979	1474.9663	1476.901	1480.7828	1487.4884	1491.9181	1516.3008	1729.8711	2991.4048	3013.747	3019.606	3021.8678	3037.1765	3059.6887	3064.7774	3076.458	3114.1791	3115.2573	3178.4499	3756.3487
COC1CC=C(C)C1O	CO[C@H]1CC=C(C)[C@H]1O	
InChI=1S/C7H12O2/c1-5-3-4-6(9-2)7(5)8/h3,6-8H,4H2,1-2H3	InChI=1S/C7H12O2/c1-5-3-4-6(9-2)7(5)8/h3,6-8H,4H2,1-2H3/t6-,7+/m0/s1
