17
gdb 115129	2.60013	1.42715	1.08861	4.9101	71.61	-0.2389	-0.068	0.1709	1139.8276	0.136338	-455.151411	-455.142774	-455.14183	-455.185203	31.199	
C	 0.0493988844	 1.3365957606	 0.3263178076	-0.326538
N	-0.068419056	-0.1015019052	 0.0985410072	-0.294254
C	-1.4243728733	-0.55174525	-0.2016418548	-0.095741
C	-1.4305881277	-2.0299501944	-0.5960325466	-0.117964
O	-1.553336418	-2.79813544	 0.621755645	-0.242209
C	-2.0451748581	-2.0339987961	 1.6318378258	 0.343642
N	-2.3620513036	-2.4305036764	 2.7865660185	-0.50603
C	-2.157223468	-0.5986891858	 1.1489541308	 0.346796
O	-2.6835191028	 0.3094365045	 1.7287235153	-0.285272
H	 1.0964440592	 1.5813141402	 0.5225085419	 0.125458
H	-0.3024595181	 1.9461832807	-0.523616028	 0.101003
H	-0.5373630693	 1.621197064	 1.2031069859	 0.159397
H	 0.5554049003	-0.389442249	-0.6473693173	 0.224721
H	-1.9602596314	 0.0790078037	-0.9285222272	 0.0865
H	-2.2798630168	-2.2662798625	-1.2462204795	 0.125689
H	-0.5081269992	-2.3470289845	-1.0892785551	 0.122283
H	-2.2028570715	-3.4361390398	 2.8826013506	 0.232519
60.1745	120.4793	142.2437	177.5104	238.8154	289.8346	332.5612	389.2874	436.7307	531.3351	622.4312	708.7425	723.949	752.1973	840.111	889.8838	912.0651	960.693	1024.8343	1039.6399	1064.6538	1131.8551	1149.7668	1162.2854	1193.3668	1238.4147	1287.3329	1299.6033	1348.6242	1404.9305	1458.5514	1476.3753	1492.8045	1510.7407	1523.9517	1760.0713	1863.5632	2960.6694	2975.1635	3046.5984	3085.7457	3100.7814	3130.6631	3463.235	3521.9873
CNC1COC(=N)C1=O	CN[C@H]1CO[C]([NH])C1=O	
InChI=1S/C5H8N2O2/c1-7-3-2-9-5(6)4(3)8/h3,6-7H,2H2,1H3	InChI=1S/C5H8N2O2/c1-7-3-2-9-5(6)4(3)8/h3,6-7H,2H2,1H3/t3-/m0/s1
