19
gdb 32734	3.16884	0.98889	0.79473	1.8898	79.27	-0.196	0.0128	0.2088	1466.4901	0.16	-419.248376	-419.239066	-419.238121	-419.283397	33.565	
C	-0.2529913471	 1.6152168124	 0.1030705007	-0.380837
C	-0.1582201633	 0.0894701407	 0.0400969405	-0.156703
C	 0.796414042	-0.4913359485	 1.1028687392	-0.317054
C	 0.9025828353	-1.9727187312	 1.0894888622	 0.294681
C	 1.8740570873	-2.8748255237	 0.7729885459	 0.164095
N	 3.1974411833	-2.6736510154	 0.3790432934	-0.599752
N	 1.3953314533	-4.1645421466	 0.9647153761	-0.302115
C	 0.1804392577	-3.9917490065	 1.3762162259	 0.066063
O	-0.2062487516	-2.7108767584	 1.4772376724	-0.185756
H	 0.7248561623	 2.0819228768	-0.0619050154	 0.112821
H	-0.9386356292	 2.002836146	-0.6565023552	 0.114525
H	-0.6162023413	 1.9494179228	 1.0813084549	 0.117041
H	-1.1511411632	-0.3530258719	 0.1803443302	 0.111344
H	 0.1795668385	-0.2260546384	-0.9546634785	 0.095406
H	 1.8037224837	-0.080879109	 0.9604159938	 0.107529
H	 0.471116715	-0.1520047041	 2.0964260835	 0.115656
H	 3.3198573125	-1.9036727065	-0.2643175568	 0.245508
H	 3.5864273326	-3.5220617501	-0.0112077642	 0.253256
H	-0.5434940878	-4.7465048186	 1.6409253412	 0.144292
45.0408	86.5981	104.3389	180.802	239.4813	255.5955	285.1472	312.597	369.7011	466.5999	636.2722	668.2582	704.3052	740.7338	753.6217	795.2811	825.8253	864.1684	895.3012	959.2799	1023.1913	1040.4865	1071.3842	1109.6453	1161.4247	1200.916	1257.959	1268.9055	1307.873	1323.1925	1337.4765	1381.6947	1413.1685	1419.9453	1472.9906	1492.1686	1499.7558	1509.4408	1555.9828	1640.1763	1699.4228	3007.0462	3028.8253	3032.7785	3049.5538	3071.1675	3097.743	3104.4153	3272.5148	3548.6008	3643.0255
CCCC1=C(N)N=CO1	CCCc1c(N)nco1	
InChI=1S/C6H10N2O/c1-2-3-5-6(7)8-4-9-5/h4H,2-3,7H2,1H3	InChI=1S/C6H10N2O/c1-2-3-5-6(7)8-4-9-5/h4H,2-3,7H2,1H3
