14
gdb 130035	3.38544	1.66314	1.12366	2.2638	69.5	-0.2281	-0.0093	0.2188	991.778	0.105095	-429.051445	-429.044704	-429.04376	-429.082381	26.379	
N	 0.0112396599	 1.3422701618	 0.1192669991	-0.574183
C	 0.0082694872	-0.0183738866	 0.0370768707	 0.312739
N	-1.0658767513	-0.7461659459	 0.01547577	-0.333974
C	-0.6827306536	-2.169557803	-0.0055984376	-0.273506
C	 0.819316305	-2.1385852974	-0.0111055891	 0.317237
C	 1.228199995	-0.8321539181	 0.0168228312	 0.232441
N	 2.5827299717	-0.7584419846	 0.0085477645	-0.306398
N	 3.0438285064	-1.977380495	-0.021892236	-0.119412
N	 1.9683094405	-2.8315198596	-0.0327605803	-0.340855
H	 0.8426784643	 1.8236011938	-0.1813714028	 0.269951
H	-0.8644193774	 1.8014129214	-0.0772010848	 0.261875
H	-1.0930109211	-2.6877748925	 0.8701558992	 0.136552
H	-1.1022277058	-2.6610520637	-0.8920503879	 0.135297
H	 2.1457427291	-3.8228651107	-0.0551906562	 0.282236
195.2791	218.1795	262.7697	294.5468	402.8601	484.1707	513.873	564.1484	630.9912	642.1725	654.7198	711.6314	779.2406	803.3484	955.8642	966.704	971.5483	1033.4579	1140.2443	1151.2153	1176.6538	1231.558	1265.6444	1337.6107	1369.2478	1453.1289	1468.0448	1528.6809	1568.5996	1616.3438	1682.6797	3031.1314	3058.0965	3592.6499	3661.8103	3712.687
NC1=NCC2=C1N=NN2	NC1=NCc2c1nn[nH]2	
InChI=1S/C4H5N5/c5-4-3-2(1-6-4)7-9-8-3/h1H2,(H2,5,6)(H,7,8,9)	InChI=1S/C4H5N5/c5-4-3-2(1-6-4)7-9-8-3/h1H2,(H2,5,6)(H,7,8,9)
