21
gdb 80619	2.36394	1.81364	1.36551	1.6541	81.32	-0.2393	0.0822	0.3215	1043.0899	0.183794	-387.055972	-387.048153	-387.047209	-387.087827	32.006	
C	-0.1182465091	 1.5488609737	-0.0484964212	-0.416709
C	 0.0575435874	 0.0331789668	-0.0149078068	-0.070378
C	 1.032612843	-0.5596082673	-1.0670377027	 0.0667
C	 2.4452632104	-0.2981932352	-0.4970704347	-0.239158
C	 1.8857021474	-1.3345272793	 0.5018812708	-0.009313
O	 1.1547047834	-1.9452081047	-0.6123973305	-0.299212
C	 0.7771390102	-0.5705103466	 1.2215070916	 0.412956
C	 0.9804533205	 0.1133382554	 2.5430514749	-0.336317
C	 0.0843061436	-1.1021926318	 2.4375725993	-0.335569
H	 0.8310707273	 2.0754531668	 0.0893044903	 0.117395
H	-0.5465749494	 1.8696028642	-1.0046099152	 0.113996
H	-0.798780434	 1.8861106685	 0.7405828251	 0.117926
H	-0.9163752503	-0.4490887482	-0.1510370648	 0.082819
H	 0.780695208	-0.4559586148	-2.1231258173	 0.075673
H	 3.2212921269	-0.7215033189	-1.1353261423	 0.108709
H	 2.7154815128	 0.6977626268	-0.1386238191	 0.09718
H	 2.5045683804	-2.0274336111	 1.0735770188	 0.073109
H	 1.9397029921	 0.0017326212	 3.0401058318	 0.108442
H	 0.5139380596	 1.0799439949	 2.7030133701	 0.110787
H	-0.9876167859	-0.9510417101	 2.520381654	 0.110216
H	 0.4330965957	-2.0376477603	 2.8643065381	 0.110747
124.8619	209.3698	229.0379	251.5616	267.3932	332.6314	462.8033	519.3418	532.8663	581.5297	720.9429	771.3879	807.2154	823.0762	867.2858	871.4029	914.2333	932.3777	949.2952	957.2645	972.2517	1018.1548	1033.8695	1059.2845	1073.2214	1079.0053	1094.8484	1110.033	1131.6048	1185.1412	1188.9993	1225.7095	1235.5556	1250.2616	1277.6926	1295.9201	1324.2574	1360.2227	1391.8356	1415.0202	1467.5649	1485.9124	1494.359	1501.967	1510.6374	3031.1064	3046.3807	3071.9741	3092.0045	3106.3411	3112.1313	3115.6222	3118.9564	3122.6167	3145.6675	3194.8127	3209.3626
CC1C2CC(O2)C11CC1	C[C@H]1[C@H]2C[C@H](O2)C21CC2	
InChI=1S/C8H12O/c1-5-6-4-7(9-6)8(5)2-3-8/h5-7H,2-4H2,1H3	InChI=1S/C8H12O/c1-5-6-4-7(9-6)8(5)2-3-8/h5-7H,2-4H2,1H3/t5-,6+,7-/m0/s1
