19
gdb 47895	2.75374	1.42658	1.03901	4.2872	81.1	-0.2082	-0.0374	0.1708	1157.3951	0.161834	-419.201424	-419.193253	-419.192308	-419.234132	31.851	
O	 0.0093966097	 0.1865188788	 1.1292728512	-0.33479
C	 0.1506311809	 1.156593189	 0.4067603425	 0.339933
C	-1.0941338992	 1.6139789287	-0.4152714457	-0.292871
N	-1.2328391907	 3.0301181313	-0.7481134482	-0.268371
C	-1.0384590321	 3.4315135466	-2.135307541	-0.17108
C	 0.4409012532	 3.7265133137	-2.448812996	-0.143907
N	 1.2870993839	 2.6520416475	-1.9291308063	-0.275507
C	 1.7531559103	 2.76226723	-0.6222994466	 0.009227
C	 1.3861159221	 1.9532222658	 0.3872144581	-0.184757
H	-1.14620679	 0.9819719618	-1.3189743817	 0.105032
H	-1.9316685013	 1.2922545426	 0.211320012	 0.126581
H	-2.1142581837	 3.3777912432	-0.4030561372	 0.230451
H	-1.3900307411	 2.6517590021	-2.8373912525	 0.087193
H	-1.63599237	 4.3273300439	-2.3374467613	 0.103765
H	 0.5790332086	 3.8329885336	-3.5316239093	 0.103005
H	 0.7522035779	 4.6604818545	-1.9718105015	 0.116632
H	 0.8831985697	 1.7417243076	-2.1114426034	 0.234828
H	 2.511699731	 3.5324971875	-0.482822818	 0.110932
H	 1.9651644008	 1.9271255919	 1.3044684949	 0.103705
72.5522	168.1585	208.1492	253.3732	308.6136	357.6452	414.6567	436.4015	478.2323	507.0941	583.7632	659.8171	680.6895	773.0017	796.1681	825.033	856.8013	907.1097	953.7663	976.1816	989.426	1033.9967	1123.9888	1155.3227	1175.685	1216.3888	1243.8587	1267.8402	1318.7939	1325.8789	1346.4698	1363.5062	1402.4192	1416.9946	1455.4891	1473.8823	1487.4947	1490.774	1495.5539	1674.6589	1748.1424	2920.2746	2952.9408	3031.4843	3062.7239	3077.9369	3096.1603	3125.9106	3188.2939	3556.3177	3601.2849
O=C1CNCCNC=C1	O=C1CNCCN[CH][CH]1	
InChI=1S/C6H10N2O/c9-6-1-2-7-3-4-8-5-6/h1-2,7-8H,3-5H2/b2-1-	InChI=1S/C6H10N2O/c9-6-1-2-7-3-4-8-5-6/h1-2,7-8H,3-5H2
