18
gdb 41768	2.78268	1.76154	1.21773	2.2671	80.09	-0.2231	-0.0051	0.2181	1025.2618	0.15167	-398.129482	-398.12226	-398.121316	-398.161243	28.588	
C	-0.0825330356	 1.5102740836	 0.0006412523	-0.227466
C	 1.4580975676	 1.5541403865	 0.1316438407	-0.222894
C	 1.4447826616	 0.0697549998	 0.6211147187	-0.024444
N	 1.6895418367	-0.0272753421	 2.0317338371	-0.236487
C	 0.9428988846	-0.6074688083	 2.8706676961	 0.089228
N	-0.2907214368	-1.2373763809	 2.7302798605	-0.309788
C	-1.186976883	-1.2606422695	 1.6655923233	 0.086458
N	-1.1090617331	-0.7835095158	 0.4972578372	-0.250853
C	 0.0023803738	-0.046064377	-0.0097466676	 0.037039
H	-0.5772542434	 1.8626803092	 0.9098071181	 0.105616
H	-0.5476324185	 1.9854049331	-0.8650245097	 0.100772
H	 1.9583884985	 1.6633267991	-0.8335962982	 0.100704
H	 1.8838869937	 2.2645463312	 0.8404921556	 0.109215
H	 2.1809041356	-0.5750805163	 0.1277563498	 0.089355
H	 1.2809588142	-0.6538522088	 3.9084601484	 0.109666
H	-0.6418379464	-1.6571309781	 3.5785769735	 0.249699
H	-2.1001826143	-1.7907579064	 1.9450426615	 0.109159
H	 0.1463384348	-0.3617988594	-1.0512908872	 0.08502
106.764	111.0924	301.9028	337.538	350.1161	460.0884	500.6285	528.0192	614.0049	641.3472	742.3588	775.902	789.0252	897.8277	917.0414	928.1693	948.0889	951.3018	966.7409	987.6733	1029.2739	1083.2202	1110.5272	1133.4107	1196.5356	1227.0967	1240.5143	1255.1313	1260.6516	1278.124	1337.8267	1377.8777	1434.7288	1471.6849	1478.1252	1494.1567	1530.7133	1755.1269	1779.6184	3011.4016	3035.9997	3064.188	3072.6511	3100.0655	3102.1071	3119.3592	3137.9777	3601.5103
C1CC2N=CNC=NC12	C1C[C@H]2N=CNC=N[C@@H]12	
InChI=1S/C6H9N3/c1-2-6-5(1)8-3-7-4-9-6/h3-6H,1-2H2,(H,7,8,9)	InChI=1S/C6H9N3/c1-2-6-5(1)8-3-7-4-9-6/h3-6H,1-2H2,(H,7,8,9)/t5-,6+
