20
gdb 87440	4.25106	1.26941	1.15502	1.1543	84.64	-0.2204	0.0964	0.3168	1133.6232	0.171296	-365.897315	-365.889761	-365.888816	-365.929079	30.567	
C	-0.1359178853	 1.4686795129	-0.086514018	-0.314652
N	 0.0239801338	 0.0225500771	-0.0117536548	-0.158349
C	 1.388435994	-0.497562464	-0.2421946148	-0.357112
C	 0.7666619883	-0.5164916522	 1.0980864462	 0.443198
C	 1.1747546568	 0.0817452015	 2.4450706442	-0.159063
C	-0.0870069108	-0.5368297447	 3.1554949905	-0.028978
C	 0.7674037335	-1.1923333793	 4.2575389745	-0.275292
C	 1.6141657531	-1.3318372284	 2.9769546522	-0.029004
C	 0.3505155212	-1.6024377323	 2.0815035669	-0.154452
H	 0.731566472	 2.0310199467	 0.2972392721	 0.096851
H	-0.2968362363	 1.7616330547	-1.1290464027	 0.120707
H	-1.0180187992	 1.7672998269	 0.4895522018	 0.120548
H	 1.4539501916	-1.3936548811	-0.8544801772	 0.112531
H	 2.1804200774	 0.2309919062	-0.417172486	 0.102539
H	 1.6507713802	 1.0321102594	 2.6883218501	 0.073122
H	-1.0710292373	-0.0722129705	 3.2268041402	 0.075321
H	 1.1583621003	-0.5321539393	 5.038533828	 0.091789
H	 0.3812638348	-2.1181362518	 4.6958316396	 0.093353
H	 2.5987590455	-1.7810396693	 2.8409995049	 0.071832
H	-0.1214629037	-2.5677824923	 1.8984166223	 0.075111
123.8104	169.0595	204.28	229.8356	337.5146	429.1658	468.5871	515.8252	586.996	729.5915	801.6434	824.8547	835.1537	841.9496	871.9075	885.3774	912.8698	949.4248	961.387	1011.4702	1027.6784	1042.3806	1061.435	1081.0764	1111.0972	1114.2356	1136.8026	1150.8764	1159.1356	1163.2659	1172.5936	1176.5404	1202.5891	1231.605	1240.2932	1245.4443	1307.2378	1445.9262	1452.7643	1493.3603	1496.5658	1513.1394	1527.2829	2965.0088	3037.2412	3062.8128	3081.3523	3093.6174	3098.1266	3100.9502	3104.4316	3111.5274	3122.8382	3168.1367
CN1CC11C2C3CC2C13	CN1C[C@]21[C@H]1[C@@H]3C[C@H]1[C@H]23	
InChI=1S/C8H11N/c1-9-3-8(9)6-4-2-5(6)7(4)8/h4-7H,2-3H2,1H3	InChI=1S/C8H11N/c1-9-3-8(9)6-4-2-5(6)7(4)8/h4-7H,2-3H2,1H3/t4-,5+,6-,7+,8-,9?
