19
gdb 37437	2.52966	1.99515	1.96704	1.6152	76.31	-0.238	0.0131	0.2511	864.9608	0.163657	-385.886462	-385.880181	-385.879237	-385.916551	27.538	
C	-0.0405639142	 1.5485727	 0.0200515247	-0.191643
C	 1.3997422624	 2.1283357127	 0.0089151169	-0.191643
C	 2.427171602	 0.959186344	-0.0309567751	-0.110046
C	 2.1262161515	 0.0550454299	 1.1546031359	-0.06991
C	 0.8871596787	-0.4437146866	 1.1641748204	-0.06991
C	 0.0280336499	-0.0065337874	-0.012417383	-0.110046
C	 0.7936609971	-0.4220419561	-1.2820177303	 0.051714
O	 1.1546284985	 0.6156260672	-2.2095290588	-0.258686
C	 2.1460912302	 0.1223464791	-1.2924676823	 0.051714
H	-0.5827405992	 1.8533340496	 0.9191595388	 0.091418
H	-0.6012445497	 1.9039198786	-0.8471064284	 0.110562
H	 1.5463068612	 2.7683625419	-0.8637145613	 0.110562
H	 1.5915075335	 2.728534885	 0.9023449412	 0.091417
H	 3.4515953278	 1.337264935	-0.018181795	 0.062122
H	 2.8592062858	-0.1182387191	 1.9345095146	 0.091299
H	 0.4890646223	-1.072298665	 1.9528183578	 0.091299
H	-0.9723659786	-0.4435042412	 0.016000346	 0.062122
H	 0.5564522778	-1.3806056423	-1.7378358893	 0.093827
H	 2.975128343	-0.4070257755	-1.7565206929	 0.093827
252.6037	307.9309	358.4477	367.1972	453.7063	536.394	613.9095	653.5736	658.5634	724.5738	788.6994	805.9917	827.2455	864.9958	874.2934	943.5473	944.5974	957.1953	962.001	991.1534	1013.5292	1029.8222	1064.6792	1081.635	1126.5545	1138.4522	1179.1006	1200.3529	1260.0436	1268.0203	1273.592	1312.3715	1319.0782	1328.0594	1345.896	1368.1006	1384.529	1448.0958	1478.4417	1501.4158	1668.0714	3054.9549	3065.3845	3082.0274	3084.8934	3099.75	3118.9052	3130.6134	3143.0538	3178.4644	3202.4413
C1CC2C=CC1C1OC21	C1C[C@H]2C=C[C@@H]1[C@H]1O[C@@H]21	
InChI=1S/C8H10O/c1-2-6-4-3-5(1)7-8(6)9-7/h1-2,5-8H,3-4H2	InChI=1S/C8H10O/c1-2-6-4-3-5(1)7-8(6)9-7/h1-2,5-8H,3-4H2/t5-,6+,7+,8-
