17
gdb 98881	4.06755	0.9929	0.92071	3.3198	70.82	-0.2409	-0.0343	0.2066	1289.2584	0.13463	-458.967967	-458.959316	-458.958371	-459.002464	30.94	
O	-0.020239503	 1.4258400584	-0.063999407	-0.418934
C	 0.026927017	 0.0461196985	 0.1357761741	-0.137525
C	-1.3583903506	-0.5760094145	 0.0329355232	 0.34361
O	-2.327174895	 0.1344609973	-0.1027424807	-0.313622
C	-1.4604511775	-2.1090218729	 0.0888991387	-0.028966
O	-2.7343896867	-2.5212251803	 0.5383809144	-0.252234
C	-3.4747878577	-3.0983990971	-0.538368221	-0.11488
C	-2.482265904	-3.234297325	-1.6577671335	-0.083064
C	-1.3246341337	-2.6893195816	-1.3039700148	-0.100491
H	-0.9658789521	 1.6369290155	-0.1292781131	 0.295178
H	 0.6946166937	-0.4381174463	-0.5960542788	 0.11485
H	 0.4307681262	-0.209952966	 1.1317023332	 0.118629
H	-0.6890763539	-2.4857442492	 0.7792445237	 0.101271
H	-3.8866986026	-4.0631119227	-0.2106568033	 0.114383
H	-4.3202366899	-2.4497890654	-0.8124049922	 0.124206
H	-2.7128906919	-3.7080277116	-2.6031955361	 0.117913
H	-0.4203354084	-2.6191186472	-1.8933227568	 0.119675
46.5423	74.4317	98.389	193.5757	229.6035	328.4637	360.9261	404.403	443.5424	552.2774	689.0774	738.7312	772.8399	816.1495	885.7166	927.8583	933.8948	953.9228	981.7137	1027.7654	1045.4274	1052.5137	1121.4838	1145.6471	1158.9497	1200.1025	1233.3855	1266.61	1313.2987	1333.0034	1360.231	1386.9539	1451.8905	1488.9512	1512.3049	1683.8572	1811.9407	2954.8946	2981.1141	2984.5954	2993.8136	3022.3592	3214.5361	3238.9246	3679.2105
OCC(=O)C1OCC=C1	OCC(=O)[C@H]1OCC=C1	
InChI=1S/C6H8O3/c7-4-5(8)6-2-1-3-9-6/h1-2,6-7H,3-4H2	InChI=1S/C6H8O3/c7-4-5(8)6-2-1-3-9-6/h1-2,6-7H,3-4H2/t6-/m0/s1
