20
gdb 92057	2.79311	1.4792	1.06866	2.8222	79.03	-0.2199	-0.0099	0.21	1156.6433	0.172138	-403.158643	-403.150374	-403.14943	-403.191466	32.593	
C	 0.0331623006	 1.5777514189	 0.0144758673	-0.409936
C	 0.0675370876	 0.0500086698	-0.0440046137	-0.042287
N	 1.0168752162	-0.4176433274	-1.0532684551	-0.310844
C	 1.0496070994	-1.8503353705	-1.169671686	 0.00278
C	 2.3888111661	-2.5297605553	-1.0283855509	-0.304454
C	 1.4262740694	-2.5098433215	 0.1353523252	-0.023895
C	 1.5993776214	-1.5492196161	 1.3057410651	-0.331957
C	 0.4611024727	-0.5325791963	 1.3276435766	 0.410389
O	-0.1126437458	-0.2003433141	 2.3374035082	-0.322272
H	 1.0409843049	 1.9777984771	 0.1620864429	 0.124304
H	-0.3680162231	 1.9935190049	-0.9157434154	 0.108854
H	-0.600560136	 1.8987776963	 0.8431328544	 0.144807
H	-0.9627958634	-0.3113735129	-0.2287072089	 0.081986
H	 0.8706490523	 0.0411884378	-1.9441270049	 0.221258
H	 0.2898252154	-2.3357392826	-1.785672325	 0.074836
H	 2.5413721406	-3.4732093762	-1.541041656	 0.110658
H	 3.2593914406	-1.885259208	-0.9767218985	 0.117473
H	 0.9273333734	-3.4427306296	 0.374286448	 0.097126
H	 1.6295729403	-2.0597829711	 2.2704654245	 0.120028
H	 2.5327633372	-0.9836985233	 1.1989147823	 0.131145
63.6487	147.6164	226.8855	261.5417	295.4606	343.723	412.0669	449.7072	475.1943	506.8158	558.5136	679.4714	709.1333	758.5084	828.0929	834.0539	876.7028	889.7032	954.5677	998.7377	1015.2171	1054.6222	1073.5724	1088.6158	1114.692	1128.0953	1159.0555	1160.6532	1199.9386	1234.4415	1238.0836	1289.6587	1313.9026	1330.6563	1375.381	1396.2836	1418.1926	1447.8568	1456.085	1486.566	1498.3042	1501.3106	1818.0166	2908.1529	3039.6471	3042.3032	3068.9833	3106.2115	3112.9939	3133.7076	3141.8093	3166.5845	3225.435	3544.6531
CC1NC2CC2CC1=O	C[C@H]1N[C@H]2C[C@H]2CC1=O	
InChI=1S/C7H11NO/c1-4-7(9)3-5-2-6(5)8-4/h4-6,8H,2-3H2,1H3	InChI=1S/C7H11NO/c1-4-7(9)3-5-2-6(5)8-4/h4-6,8H,2-3H2,1H3/t4-,5+,6+/m1/s1
