17
gdb 33973	2.33225	1.76455	1.21275	1.8149	80.75	-0.2281	0.0204	0.2485	1047.4559	0.135739	-380.759027	-380.751059	-380.750115	-380.79132	31.341	
C	-0.0609595916	-1.1942108836	-0.0547121537	-0.422565
C	 0.0086315359	 0.0074492528	-0.0066607153	 0.1674
C	 0.0325059199	 1.4215941281	 0.096268437	 0.162336
N	 0.2560535255	 2.3271904028	-1.0779924908	-0.374449
C	 1.1642784642	 2.4135090123	 0.0794525806	-0.12366
C	 0.4659484978	 3.2952886189	 1.1263957485	-0.296671
C	-0.6947253891	 2.2748644717	 1.1322194889	 0.30558
C	-2.148522388	 2.3942581458	 1.3341858726	-0.30051
N	-1.2821270102	 1.7586637791	 2.3565463803	-0.373344
H	-0.1046497914	-2.2542168341	-0.1029623134	 0.194255
H	 0.7216106807	 1.7634911794	-1.7907320181	 0.237368
H	 2.2243949498	 2.218620527	-0.0223637768	 0.11133
H	 0.9770634802	 3.3108955518	 2.0911633547	 0.121588
H	 0.2377168257	 4.3114372652	 0.7976997157	 0.115049
H	-2.5817345324	 3.3438120735	 1.6357616141	 0.122093
H	-2.7988688531	 1.7649979358	 0.7319320774	 0.118707
H	-1.3616765639	 0.7442903332	 2.3002793984	 0.235492
106.0577	132.6544	176.3932	290.0274	316.5308	403.0667	459.5308	489.3212	549.3452	571.1874	579.9913	621.3133	672.1288	779.2922	837.1817	854.3447	884.549	902.9608	932.924	973.1046	982.7128	1027.919	1043.8089	1062.5848	1113.4674	1138.4747	1176.5522	1213.3308	1235.3266	1265.9247	1283.7506	1329.0345	1393.921	1424.3514	1472.0016	1515.3181	2226.5631	3071.2957	3108.0516	3133.2372	3194.205	3199.0171	3463.0084	3476.3654	3500.2687
C#CC12NC1CC21CN1	C#C[C@]12N[C@H]1C[C@]12CN1	
InChI=1S/C7H8N2/c1-2-7-5(9-7)3-6(7)4-8-6/h1,5,8-9H,3-4H2	InChI=1S/C7H8N2/c1-2-7-5(9-7)3-6(7)4-8-6/h1,5,8-9H,3-4H2/t5-,6+,7-/m0/s1
