19
gdb 88836	3.10783	1.13965	0.93876	1.6041	71.87	-0.2535	0.0555	0.309	1286.1416	0.157606	-460.11515	-460.105966	-460.105022	-460.150162	33.26	
C	 0.3988067625	 1.3464084551	-0.4886461369	-0.423975
C	-0.0566680458	 0.054510285	 0.1359963876	 0.082578
O	 0.9389955027	-0.948350238	 0.3922628965	-0.282519
C	 0.2371068868	-0.3787401416	 1.5125730108	 0.031242
C	 1.115053278	 0.3624970244	 2.4877035435	 0.06269
O	 0.4192133851	 0.7033788095	 3.7065533041	-0.295552
C	 1.3215737044	-0.0966873165	 4.5070526304	-0.082848
C	 2.1142894233	-0.5407610688	 3.267661273	 0.067171
O	 2.0192965754	-1.9246657568	 3.0436710831	-0.429386
H	 1.3230367633	 1.7150920686	-0.0394593503	 0.130445
H	 0.5788824235	 1.2020366206	-1.5588353459	 0.132272
H	-0.3751726783	 2.1134030097	-0.3786862176	 0.130782
H	-0.9673824513	-0.3580755589	-0.3032801832	 0.095085
H	-0.464095267	-1.0588073794	 1.9953775504	 0.106176
H	 1.5760297316	 1.2461807042	 2.0325457299	 0.073721
H	 1.8669854773	 0.5116762325	 5.2370984563	 0.104512
H	 0.8092884783	-0.9203743611	 5.0158644204	 0.117389
H	 3.154195767	-0.1925969805	 3.229989698	 0.077234
H	 2.2078296634	-2.087158298	 2.1117039499	 0.302986
34.0974	79.0006	126.4688	175.8175	210.2331	274.7141	350.0242	381.6031	407.184	422.0511	498.372	593.4975	771.6524	796.3467	845.272	879.6106	911.7321	965.5425	984.073	1011.367	1033.2172	1045.694	1087.4768	1128.9864	1151.8685	1169.9485	1183.6388	1192.293	1226.3707	1261.5515	1291.8598	1309.6213	1336.3556	1345.2863	1403.7805	1420.4761	1429.4631	1467.7412	1490.8006	1508.2895	1514.9165	3015.7198	3029.9393	3040.9472	3046.3682	3084.6718	3086.328	3104.3482	3121.9149	3135.453	3797.1155
CC1OC1C1OCC1O	C[C@H]1O[C@H]1[C@H]1OC[C@H]1O	
InChI=1S/C6H10O3/c1-3-5(9-3)6-4(7)2-8-6/h3-7H,2H2,1H3	InChI=1S/C6H10O3/c1-3-5(9-3)6-4(7)2-8-6/h3-7H,2H2,1H3/t3-,4-,5-,6+/m1/s1
