20
gdb 73410	2.58625	2.28191	1.59512	1.617	80.29	-0.228	0.0852	0.3131	913.5491	0.1735	-365.969016	-365.962123	-365.961179	-365.99974	29.26	
C	 0.0161027391	 1.469504111	-0.0112557259	-0.474183
C	-0.0329150876	-0.0383735662	 0.0941630001	 0.371847
C	-1.4203324686	-0.6832342823	-0.0310372526	-0.25984
C	-1.2550176011	-2.095873713	 0.6022927321	-0.239056
C	 0.2439793093	-2.1662840722	 0.9094654108	-0.030982
C	 1.1525482055	-2.0501591871	-0.3201851169	-0.054694
C	 1.918804367	-0.9130560785	 0.2361734805	-0.06389
C	 0.7450165759	-0.7247975525	 1.2488927389	-0.142227
N	 0.9595873784	-0.6624974361	-0.8777631075	-0.174007
H	 1.0429273583	 1.8373520418	 0.0795065385	 0.118461
H	-0.3715856567	 1.799126891	-0.9809240759	 0.123363
H	-0.5879717567	 1.9335321277	 0.7757009027	 0.109368
H	-2.1762942807	-0.0903031394	 0.4941138824	 0.094605
H	-1.7145702146	-0.7244461216	-1.0847360521	 0.109053
H	-1.8447965897	-2.1887527693	 1.5207144953	 0.095704
H	-1.5738329231	-2.9013970071	-0.0664202511	 0.100977
H	 0.5605674196	-2.9469895727	 1.6032973649	 0.068224
H	 1.4506439882	-2.8163676708	-1.0250724706	 0.090544
H	 2.9657890737	-0.6438767446	 0.2088664512	 0.093889
H	 0.7755189639	-0.3439596182	 2.2683918552	 0.062844
173.9293	235.0649	274.6153	306.1622	368.3937	463.5889	576.4828	660.2662	682.8947	751.8723	780.8803	803.8402	821.4628	852.9383	878.4078	895.4129	925.6122	931.6964	939.7032	957.0511	1001.6659	1024.0956	1031.659	1045.9631	1097.6815	1116.557	1151.6167	1179.9629	1193.9579	1208.8602	1227.373	1237.4763	1267.8321	1275.4926	1296.4012	1331.2896	1346.0116	1355.4427	1413.2569	1475.7934	1486.5296	1494.3755	1499.6459	3031.0167	3037.7109	3048.8556	3074.3762	3094.2019	3099.6381	3101.1495	3104.9299	3127.7918	3188.5002	3210.2027
CC12CCC3C4C(C13)N24	C[C@]12CC[C@H]3[C@@H]4[C@H]([C@@H]13)N24	
InChI=1S/C8H11N/c1-8-3-2-4-5(8)7-6(4)9(7)8/h4-7H,2-3H2,1H3	InChI=1S/C8H11N/c1-8-3-2-4-5(8)7-6(4)9(7)8/h4-7H,2-3H2,1H3/t4-,5+,6-,7+,8+,9?/m1/s1
