19
gdb 122126	2.49093	0.89074	0.71806	1.6157	69.09	-0.2535	-0.0389	0.2146	1567.2401	0.155819	-497.280598	-497.270063	-497.269119	-497.317924	36.119	
O	-0.2287284658	 1.6049937682	 0.1821713999	-0.41653
C	 0.1088945565	 0.3042964085	-0.2527393702	-0.059399
C	-1.1079727804	-0.6057114708	-0.2911454197	-0.08581
O	-2.0203022148	-0.0321869529	-1.224010986	-0.286208
C	-3.3020417195	-0.6344533363	-1.2616102061	 0.009567
C	-4.2023860911	 0.3134506873	-2.0632105427	-0.081478
O	-3.7068315546	 0.5119410923	-3.3710659404	-0.421413
C	-3.2507524585	-2.0014873843	-1.9464470071	 0.152687
O	-4.094278937	-2.8450105859	-1.8000720119	-0.240622
H	-0.9740842911	 1.8836152351	-0.3618089586	 0.2866
H	 0.5784644747	 0.3176248522	-1.2494600773	 0.096028
H	 0.8407639103	-0.0951325692	 0.4564959045	 0.116996
H	-0.8238495052	-1.6261841706	-0.5896042722	 0.101723
H	-1.575504226	-0.6512102195	 0.7034240995	 0.110229
H	-3.7162863794	-0.7666932106	-0.2508044723	 0.098492
H	-5.1981826932	-0.1287986284	-2.1554521473	 0.135993
H	-4.291236996	 1.2599960839	-1.5085128094	 0.099838
H	-2.7997974537	 0.8244534491	-3.2767611759	 0.292576
H	-2.3744763353	-2.1433337581	-2.6172425868	 0.09073
37.6027	52.4618	82.0138	106.8797	144.9484	189.1774	258.6684	280.5205	318.9248	392.7401	412.6519	434.5538	483.5961	588.8151	628.2949	843.6258	874.759	907.4397	943.1232	997.2953	1063.8621	1077.6306	1089.115	1109.0013	1134.9291	1145.3924	1220.2126	1244.0751	1262.564	1283.3675	1323.3295	1381.9641	1386.0363	1400.9053	1414.2468	1423.9952	1438.5638	1495.1492	1498.9701	1506.1077	1839.2644	2889.1436	2980.5144	2985.2354	2989.5496	3008.04	3032.0085	3084.8185	3101.3049	3803.8534	3805.3833
OCCOC(CO)C=O	OCCO[C@@H](CO)C=O	
InChI=1S/C5H10O4/c6-1-2-9-5(3-7)4-8/h3,5-6,8H,1-2,4H2	InChI=1S/C5H10O4/c6-1-2-9-5(3-7)4-8/h3,5-6,8H,1-2,4H2/t5-/m1/s1
