22
gdb 97119	2.71306	1.11283	0.83328	1.9374	85.76	-0.2468	0.0321	0.2788	1455.1819	0.192686	-404.354719	-404.344404	-404.34346	-404.390381	36.946	
C	-0.1833859607	 1.3809599993	-0.0876130558	-0.34039
N	-0.2206073515	-0.0701659668	-0.2107039729	-0.329577
C	 0.5832032456	-0.6398010791	-0.9817125014	 0.463861
O	 1.5733008924	-0.1094882479	-1.7972458222	-0.267511
C	 1.9841105646	-1.4420644885	-2.2252681951	-0.109394
C	 0.8720870128	-2.0816704854	-1.3607485203	-0.143926
C	 1.2777530457	-3.0453439283	-0.2390468396	 0.019903
C	 0.087891871	-3.3282674954	 0.6876841293	-0.396673
C	 1.8581983686	-4.3415820444	-0.8201774782	-0.393509
H	 0.6128041916	 1.8597493851	-0.6692571752	 0.126449
H	-1.1469807288	 1.7932111429	-0.4075657402	 0.126688
H	-0.0576801895	 1.6470681891	 0.9675563167	 0.125573
H	 1.8951334711	-1.5509213265	-3.3088461984	 0.117698
H	 3.009468743	-1.6522649726	-1.9067671818	 0.116019
H	 0.0660565534	-2.5218708536	-1.9580121889	 0.099029
H	 2.0623604233	-2.5509486519	 0.351356636	 0.076863
H	 0.3946115786	-3.9558177085	 1.5307923071	 0.106741
H	-0.3359442834	-2.3984959935	 1.074654755	 0.151177
H	-0.7048533347	-3.8608648965	 0.1482446843	 0.108571
H	 2.7274554687	-4.1511512762	-1.4589797324	 0.110538
H	 2.1756424858	-5.0178542919	-0.020136397	 0.117119
H	 1.1091229624	-4.8689785993	-1.4227129991	 0.11475
74.3931	76.5615	115.6965	120.3749	195.7539	234.6808	238.5247	260.4535	297.4448	349.4731	359.6186	444.7133	564.0752	666.3542	733.241	797.0044	899.5469	925.5452	940.3934	971.4681	974.5032	993.5431	1044.1259	1080.228	1111.5034	1128.7916	1139.8727	1159.0422	1176.1061	1189.5977	1210.1365	1244.7332	1289.3378	1347.824	1348.5648	1388.8975	1401.2919	1422.0862	1439.7552	1490.2902	1491.5098	1495.0124	1497.3442	1504.0069	1514.8989	1516.2089	1839.8172	3002.1061	3017.5629	3025.0093	3029.2761	3052.2623	3055.5042	3081.4545	3088.2329	3089.8382	3093.5531	3101.3715	3111.9437	3126.9284
CN=C1OCC1C(C)C	CN=C1OC[C@H]1C(C)C	
InChI=1S/C7H13NO/c1-5(2)6-4-9-7(6)8-3/h5-6H,4H2,1-3H3	InChI=1S/C7H13NO/c1-5(2)6-4-9-7(6)8-3/h5-6H,4H2,1-3H3/t6-/m0/s1
