18
gdb 133760	1.78375	1.39036	0.95142	1.5366	60.78	-0.273	0.0818	0.3548	1267.9303	0.142725	-570.60177	-570.591975	-570.591031	-570.637052	35.131	
C	 1.0169630506	-0.0706462834	 1.2617463937	-0.397495
C	 0.1115358495	 0.0753398833	 0.035132076	-0.200166
C	 0.7263588603	-0.5065911095	-1.2544372917	-0.143363
C	 0.6711999096	-2.0477956584	-1.2935350154	-0.074452
O	 1.5564345144	-2.629989691	-2.2271525879	-0.426374
C	 0.0294703077	 0.0819881531	-2.4717628942	 0.279508
F	 0.1893609727	 1.410421114	-2.5537344616	-0.074676
F	 0.5074901213	-0.4367819862	-3.6300185931	-0.099787
F	-1.2912347297	-0.1625330471	-2.4599504787	-0.083136
H	 1.2371771597	-1.1170922695	 1.4939613936	 0.126191
H	 1.9717897918	 0.4436221346	 1.1093433125	 0.123931
H	 0.5401162508	 0.3665004862	 2.1438172308	 0.122449
H	-0.8558551864	-0.4065873696	 0.2197319737	 0.113063
H	-0.1012703003	 1.1367605882	-0.1263931327	 0.11872
H	 1.7777340173	-0.2056507138	-1.3316204533	 0.109778
H	 0.9721792166	-2.4342504692	-0.3166122229	 0.11489
H	-0.370789112	-2.3629705016	-1.4607738485	 0.103271
H	 1.3129065161	-2.3076961002	-3.1004780102	 0.287648
60.5854	78.709	122.7244	193.2445	206.1287	236.1946	274.3354	316.2917	354.8194	410.0674	433.2745	488.9902	544.8389	579.7288	660.7855	770.8378	805.976	922.4611	963.0055	998.8997	1057.1752	1084.215	1104.4169	1145.3526	1160.1522	1168.6467	1243.0479	1263.0283	1282.4473	1339.4916	1356.4067	1397.9174	1408.1679	1415.727	1442.3838	1490.4734	1500.0924	1505.6457	1509.5868	2987.628	3037.9643	3040.2311	3057.0345	3079.7745	3095.9742	3109.0389	3112.7128	3832.2255
CCC(CO)C(F)(F)F	CC[C@@H](CO)C(F)(F)F	
InChI=1S/C5H9F3O/c1-2-4(3-9)5(6,7)8/h4,9H,2-3H2,1H3	InChI=1S/C5H9F3O/c1-2-4(3-9)5(6,7)8/h4,9H,2-3H2,1H3/t4-/m0/s1
