20
gdb 107097	3.80041	1.	0.98197	2.8069	80.12	-0.2469	-0.0307	0.2162	1311.9369	0.170283	-403.124263	-403.115228	-403.114284	-403.158373	33.393	
C	 0.1640494089	 1.5933192796	 0.0076043671	-0.379949
C	-0.0491299998	 0.0754488267	-0.0747005836	-0.281284
C	 0.5309431242	-0.5150035298	-1.3276163014	 0.373531
C	-0.0406466264	-0.353818009	-2.752398686	-0.316492
C	 0.4425127221	-1.7961229856	-3.0970895007	-0.099853
C	 1.502217301	-1.9666326554	-4.1445954525	 0.143632
O	 2.2557417013	-1.0833265707	-4.4858224678	-0.257425
C	 1.0223571033	-1.8996885275	-1.6450504423	-0.13724
N	 1.95703369	-0.8203504364	-1.3780675309	-0.355118
H	 1.231562296	 1.8332337055	-0.0045778495	 0.130933
H	-0.3064493249	 2.1086115336	-0.8368325653	 0.116637
H	-0.2660250179	 2.0008296221	 0.9272600734	 0.113397
H	 0.4198382993	-0.4121406815	 0.7865832005	 0.110868
H	-1.1218727112	-0.1527825783	-0.0305754264	 0.093899
H	-1.1305361371	-0.2786889545	-2.777573055	 0.107883
H	 0.3934706004	 0.4487113862	-3.3537323119	 0.119819
H	-0.3762886055	-2.5030171062	-3.2529637675	 0.088283
H	 1.6122168749	-2.994075795	-4.5591622922	 0.082829
H	 1.072061511	-2.8049470996	-1.0502566441	 0.099365
H	 2.4265619803	-0.4824054841	-2.217825664	 0.246285
80.4515	93.8136	111.1031	190.3412	216.6134	250.3654	293.3263	365.3415	432.9278	519.4458	626.8542	686.5571	727.1167	785.9836	813.9485	858.1293	872.7486	943.373	958.8782	997.7749	1003.7184	1012.9125	1067.8249	1079.3912	1104.7135	1131.9218	1139.6048	1189.1796	1203.6726	1245.7079	1257.8501	1282.0988	1323.1205	1349.2952	1354.2552	1406.1136	1419.4288	1450.4954	1476.2561	1484.1718	1499.4411	1509.5889	1800.1608	2877.7038	3025.2739	3036.0779	3063.5263	3072.6388	3082.0163	3104.9753	3114.2388	3120.2004	3174.0521	3458.7965
CCC12CC(C=O)C1N2	CC[C@]12C[C@@H](C=O)[C@H]1N2	
InChI=1S/C7H11NO/c1-2-7-3-5(4-9)6(7)8-7/h4-6,8H,2-3H2,1H3	InChI=1S/C7H11NO/c1-2-7-3-5(4-9)6(7)8-7/h4-6,8H,2-3H2,1H3/t5-,6+,7-/m0/s1
