19
gdb 97676	3.08398	0.78492	0.72304	0.9417	81.24	-0.2518	0.0267	0.2784	1634.8245	0.157324	-422.975386	-422.965386	-422.964441	-423.011647	35.83	
O	 0.2229960334	 1.0693371989	-0.7668700211	-0.400452
C	-0.0227398855	 0.1113977333	 0.2534958033	-0.194419
C	-1.3618153535	-0.4737779515	 0.2033677597	 0.002136
C	-2.4788338891	-0.9272017025	 0.1559623365	 0.045201
C	-3.8394721053	-1.4521220861	 0.1031435516	 0.254529
O	-4.6088001172	-1.0264971801	 1.2134400784	-0.463084
C	-4.4876315634	-1.2939612228	-1.3184193854	-0.266004
C	-4.0853672235	-2.7598427421	-1.625662085	-0.209652
C	-3.9076993119	-2.9937790091	-0.1030008381	-0.248951
H	-0.4929393871	 1.7124099175	-0.7371899927	 0.286135
H	 0.7327948348	-0.6699352177	 0.1144750535	 0.143368
H	 0.1467829475	 0.5384537475	 1.2551566337	 0.119613
H	-4.388736246	-0.1065694317	 1.3948429527	 0.278175
H	-5.567842814	-1.1814850681	-1.195512498	 0.110589
H	-4.1040651333	-0.5020304727	-1.9643481055	 0.100696
H	-4.8187051652	-3.3806200626	-2.1426190333	 0.103016
H	-3.135270184	-2.8178318658	-2.1615564822	 0.114409
H	-3.0571493998	-3.582054238	 0.243890915	 0.107597
H	-4.823554997	-3.3630948864	 0.3652379068	 0.1171
27.4734	78.3218	93.1003	154.9628	192.4442	243.363	275.8852	327.3525	344.4419	369.4684	498.8621	523.6253	564.5964	632.9311	678.3511	793.4325	818.6465	900.3724	934.2779	971.9107	982.0175	1002.4593	1022.3662	1041.8813	1067.3452	1130.7682	1195.6825	1201.5805	1214.8433	1245.8209	1259.5534	1275.0287	1290.2568	1357.7901	1371.3115	1417.1372	1467.3638	1483.3149	1489.5295	1503.3552	2344.7388	2975.3025	3062.8042	3065.1896	3071.7702	3075.7295	3117.9687	3130.5281	3139.8942	3812.3203	3817.7576
OCC#CC1(O)CCC1	OCC#CC1(O)CCC1	
InChI=1S/C7H10O2/c8-6-2-5-7(9)3-1-4-7/h8-9H,1,3-4,6H2	InChI=1S/C7H10O2/c8-6-2-5-7(9)3-1-4-7/h8-9H,1,3-4,6H2
