16
gdb 68628	2.47277	1.67663	1.37247	5.0285	68.55	-0.2642	0.0189	0.2831	972.8893	0.124934	-437.870158	-437.862563	-437.861618	-437.902083	29.38	
O	-0.0829510572	 1.3814729392	 0.0379869713	-0.470782
C	 0.0090279788	 0.0049500773	-0.0212660226	 0.350396
C	 0.3665243611	-0.8207357799	-1.306969728	-0.30886
C	-0.3127569056	-1.9292906375	-0.4739357728	 0.093576
O	 0.5666975285	-2.1121988452	 0.6398043622	-0.262632
C	 0.848460869	-0.7521290304	 1.0271292404	-0.147998
C	-1.3162013906	-0.831716077	 0.0183486242	-0.209943
C	-2.0231725068	-1.0134470766	 1.2713266313	 0.288184
N	-2.5792859091	-1.1561406056	 2.2747467084	-0.334049
H	 0.8001024233	 1.7554719645	 0.1334485074	 0.293338
H	-0.2061411033	-0.5039009303	-2.1794194145	 0.117649
H	 1.4205115351	-0.9687161457	-1.5481778993	 0.11034
H	-0.6386066155	-2.8884545526	-0.8658816378	 0.107988
H	 1.9217247525	-0.541937024	 0.9394484527	 0.102594
H	 0.5202001843	-0.5698934358	 2.0553176026	 0.136746
H	-1.9995834445	-0.5143647105	-0.7708193955	 0.133453
131.0913	144.4365	196.3631	304.2899	341.577	381.7854	420.5677	481.5503	525.7996	596.8169	611.8273	753.7016	794.9165	846.6475	884.5483	914.0038	950.6021	957.0787	1016.7421	1072.2525	1073.3483	1095.8152	1112.4786	1141.4022	1182.0118	1204.7281	1219.7999	1275.2436	1297.088	1346.951	1361.0452	1399.7281	1492.523	1524.8028	2356.3123	3023.9668	3081.0722	3084.2642	3111.0151	3152.2665	3172.0073	3805.1516
OC12CC(OC1)C2C#N	O[C@@]12C[C@@H](OC1)[C@H]2C#N	
InChI=1S/C6H7NO2/c7-2-4-5-1-6(4,8)3-9-5/h4-5,8H,1,3H2	InChI=1S/C6H7NO2/c7-2-4-5-1-6(4,8)3-9-5/h4-5,8H,1,3H2/t4-,5-,6+/m1/s1
