25
gdb 112117	2.57551	1.19417	0.96646	0.2268	94.21	-0.2336	0.0299	0.2635	1381.5442	0.230227	-352.383809	-352.374183	-352.373238	-352.417802	37.606	
C	-0.1944369735	 1.6177621753	-0.0580025096	-0.393065
C	 0.0379318239	 0.1066292607	 0.0456965466	-0.194084
C	 0.8087802644	-0.4906114671	-1.1502667651	 0.002589
C	 2.2662461481	-0.0809752236	-1.1552012977	-0.041244
C	 3.258595384	-0.8514845002	-1.6008867073	-0.064613
C	 3.0492087898	-2.2295570255	-2.1684509892	-0.244598
C	 1.5617830261	-2.5271523675	-2.4166505878	-0.220203
C	 0.6682400728	-2.0306270773	-1.2636068188	-0.004016
C	 0.9689588867	-2.7727896952	 0.0485916381	-0.391619
H	 0.7456963927	 2.177263414	-0.0988460369	 0.119108
H	-0.7649221131	 1.8672724721	-0.9597775521	 0.11348
H	-0.7568213091	 1.9883879275	 0.8048388789	 0.111127
H	 0.5688687462	-0.1187124917	 0.9783257584	 0.099112
H	-0.9357916975	-0.3952244775	 0.1168665814	 0.091119
H	 0.3419314831	-0.0677410982	-2.05549938	 0.074528
H	 2.500506363	 0.9076541545	-0.766750995	 0.078172
H	 4.2832282955	-0.488240678	-1.5544807795	 0.078605
H	 3.6138162307	-2.3381083917	-3.1035337136	 0.099627
H	 3.4837066285	-2.9740700162	-1.4850709812	 0.10623
H	 1.2490638784	-2.0267715646	-3.3417389086	 0.093246
H	 1.413372848	-3.6015123947	-2.5755568308	 0.08598
H	-0.3754392326	-2.2445234505	-1.5306552455	 0.061358
H	 1.9611996493	-2.5253524097	 0.438124018	 0.122221
H	 0.2394203035	-2.5282872752	 0.8256048204	 0.11207
H	 0.929934711	-3.8563691096	-0.1079783427	 0.104871
90.6261	116.6129	181.9454	195.9013	219.7988	244.3762	295.2811	326.4899	369.8944	386.4863	463.0153	550.453	591.2185	678.2645	760.8937	766.1237	802.6634	854.5426	872.0492	929.3339	954.3043	969.9744	997.2429	1006.7337	1017.4019	1047.9983	1065.5393	1098.8393	1114.8285	1132.7464	1143.9652	1202.4384	1232.664	1255.6446	1279.9175	1302.2139	1324.4363	1343.2036	1359.7958	1371.6591	1378.909	1389.6469	1411.4997	1414.6245	1428.9497	1476.0291	1484.7655	1490.4473	1500.2222	1501.2444	1506.2957	1510.9175	1719.4127	2953.8339	2999.9155	3004.2972	3018.2113	3021.9393	3031.4685	3035.9124	3037.9045	3055.8217	3062.3441	3097.9013	3099.9117	3101.6486	3113.0329	3134.5533	3158.8881
CCC1C=CCCC1C	CC[C@H]1C=CCC[C@H]1C	
InChI=1S/C9H16/c1-3-9-7-5-4-6-8(9)2/h5,7-9H,3-4,6H2,1-2H3	InChI=1S/C9H16/c1-3-9-7-5-4-6-8(9)2/h5,7-9H,3-4,6H2,1-2H3/t8-,9+/m1/s1
