15
gdb 11370	6.45769	1.19223	1.01912	3.7026	64.26	-0.2066	0.0021	0.2087	1081.4969	0.118702	-399.838386	-399.830469	-399.829525	-399.871141	28.289	
O	-0.0223716395	 1.422742305	 0.0066541376	-0.415958
C	-0.0036301329	 0.0052293149	 0.0020059647	-0.177432
C	-1.4068557788	-0.4959747117	 0.0124405165	 0.245216
C	-2.5240898976	 0.2387917007	 0.0238091226	-0.0904
N	-3.6693544612	-0.5761278467	 0.0311837226	-0.328209
C	-3.3425550033	-1.9185190777	 0.0247839208	 0.425286
O	-4.117561863	-2.8463048045	 0.0288112381	-0.369809
C	-1.8008416844	-1.9526191042	 0.0117809297	-0.458572
H	 0.8864269767	 1.7350624396	-6.5982*^-6	 0.291945
H	 0.5259084475	-0.384334122	-0.8864094032	 0.095111
H	 0.5410395721	-0.3899692628	 0.878700974	 0.095103
H	-2.6205998032	 1.3132383906	 0.0275925436	 0.142846
H	-4.6212210394	-0.2507820953	 0.0401604028	 0.259856
H	-1.4579391536	-2.5045450423	-0.8716615934	 0.142505
H	-1.4432148894	-2.5092781837	 0.8863733418	 0.142511
55.5129	119.1151	181.3994	211.2274	249.3315	370.6663	401.2555	495.6654	510.9928	581.5089	634.6501	751.4513	841.5582	853.7444	923.3816	941.3445	1047.9347	1060.7067	1087.952	1152.0009	1174.476	1199.8834	1225.9809	1242.905	1299.0364	1349.54	1399.8646	1436.262	1471.682	1515.2035	1718.8843	1838.1378	2932.3141	2940.7278	3039.1114	3071.1281	3264.7037	3670.1792	3842.872
OCC1=CNC(=O)C1	OCC1=CNC(=O)C1	
InChI=1S/C5H7NO2/c7-3-4-1-5(8)6-2-4/h2,7H,1,3H2,(H,6,8)	InChI=1S/C5H7NO2/c7-3-4-1-5(8)6-2-4/h2,7H,1,3H2,(H,6,8)
