14
gdb 130429	4.90149	0.97691	0.82117	4.167	67.61	-0.256	-0.0858	0.1702	1312.6846	0.101527	-466.168805	-466.160653	-466.159709	-466.20253	28.022	
N	 0.5317978764	 1.3760074812	-0.2769874671	-0.504858
C	-0.1301561858	 0.1977672892	 0.2684380892	-0.25849
C	 0.7262772691	-0.4823941844	 1.2858607041	 0.429417
N	 2.0147842272	-0.276560278	 1.4523225107	-0.287561
N	 2.3047518367	-1.1368514387	 2.4424570567	 0.06316
C	 3.6221676369	-1.246319487	 2.9685960369	 0.210331
O	 3.9245116365	-1.9949878697	 3.8444489209	-0.224561
N	 1.2390601878	-1.8412897321	 2.8657619094	-0.081719
N	 0.2442238729	-1.4418467551	 2.1465627209	-0.233124
H	 1.4184247959	 1.1158677845	-0.6972057002	 0.24273
H	-0.039743707	 1.7779905167	-1.0121188897	 0.237212
H	-1.0595669549	 0.5021272702	 0.7635108776	 0.14687
H	-0.4216474893	-0.5657901067	-0.4756153825	 0.120928
H	 4.2852482579	-0.5433281501	 2.4414101432	 0.139666
54.6687	102.7225	142.6734	217.0354	235.5006	261.7396	319.8333	457.6667	505.2073	684.4108	722.0601	744.6892	804.3765	843.9032	984.394	1020.8566	1031.7013	1078.2101	1107.804	1169.612	1191.3513	1250.1692	1296.4223	1336.2668	1395.3958	1413.5756	1465.1795	1496.0633	1576.6412	1657.8855	1863.5157	2939.0461	3037.3006	3060.5496	3507.4278	3589.4066
NCC1=NN(C=O)N=N1	NCc1nn(C=O)nn1	
InChI=1S/C3H5N5O/c4-1-3-5-7-8(2-9)6-3/h2H,1,4H2	InChI=1S/C3H5N5O/c4-1-3-5-7-8(2-9)6-3/h2H,1,4H2
