16
gdb 8224	5.33299	1.21028	1.08264	2.1931	61.31	-0.2544	0.0064	0.2608	1092.2092	0.128855	-420.888564	-420.880156	-420.879212	-420.923225	28.196	
C	 0.0227732967	 1.4332897755	-0.0280616847	-0.479216
C	-0.2147939576	-0.055555274	 0.0024648136	 0.425023
O	-0.8061055371	-0.6620067665	 0.85920998	-0.3495
O	 0.3333930295	-0.6533896556	-1.0827353219	-0.247059
C	 0.1980233034	-2.072710244	-1.1242873136	 0.095096
C	-1.1724135279	-2.6377187168	-1.5347634103	-0.083962
O	-0.5863116281	-3.3026904101	-2.6765352168	-0.273601
C	 0.6916773929	-2.6746674984	-2.4457357894	-0.102729
H	 1.0966909287	 1.6398216661	-0.0023540435	 0.152915
H	-0.3669933617	 1.8576796225	-0.9573554547	 0.152557
H	-0.464408058	 1.896080449	 0.8290635012	 0.151401
H	 0.6119556474	-2.5059340664	-0.213102011	 0.110671
H	-1.6411922326	-3.3386969803	-0.8376952093	 0.119469
H	-1.8970962679	-1.8677956281	-1.8271115631	 0.10714
H	 0.9304665727	-1.9167797873	-3.2023836724	 0.111577
H	 1.5073374295	-3.4030690157	-2.3836720841	 0.110217
45.5405	62.0149	70.8716	123.5525	181.6004	338.7069	373.8768	464.7382	608.9809	623.2077	760.2054	877.5182	885.9796	918.1071	978.0202	1021.2358	1028.4237	1064.8829	1066.6131	1121.917	1143.1345	1153.8882	1185.7685	1257.8097	1268.1252	1306.2144	1354.9564	1392.7571	1414.8307	1468.8059	1475.4847	1500.9267	1527.5012	1823.7085	3018.9639	3030.6515	3057.8829	3072.6815	3085.9062	3111.2731	3122.7386	3170.9268
CC(=O)OC1COC1	CC(=O)OC1COC1	
InChI=1S/C5H8O3/c1-4(6)8-5-2-7-3-5/h5H,2-3H2,1H3	InChI=1S/C5H8O3/c1-4(6)8-5-2-7-3-5/h5H,2-3H2,1H3
