21
gdb 40001	3.34911	1.47125	1.37332	1.3214	81.81	-0.2226	0.0853	0.3079	1044.3643	0.184769	-387.065381	-387.058111	-387.057166	-387.096694	30.849	
C	 0.6301396927	 1.4985275875	 0.0403380548	-0.345247
C	 1.2897434582	 0.1453854279	-0.1520611442	-0.312131
C	-0.2019465222	 0.2586621053	 0.0671026373	 0.469828
C	-0.8335301731	-0.2573543748	 1.3601081872	-0.287828
C	-1.7485809811	-1.4507993136	 1.0337555133	-0.027336
C	-2.8708401762	-0.954044573	 0.0772327855	-0.224505
C	-1.8074397246	-1.0933948445	-1.042261659	 0.122233
C	-1.1635371265	-2.2217233382	-0.189033826	-0.254613
O	-0.9996838338	 0.0799223253	-1.0872153941	-0.319761
H	 0.7912793847	 2.0295471949	 0.9727679713	 0.110395
H	 0.5284333074	 2.1322355269	-0.8333837174	 0.122558
H	 1.6150594001	-0.1059407997	-1.1551769008	 0.116354
H	 1.9107086521	-0.2485301864	 0.6463417877	 0.105202
H	-0.0401434256	-0.5486827654	 2.056873421	 0.098163
H	-1.4223981713	 0.5285870329	 1.8505783924	 0.100672
H	-2.0310630785	-2.0096667692	 1.9284533399	 0.061786
H	-3.6764492961	-1.6854523723	-0.0297674453	 0.094062
H	-3.2868994306	 0.0439816387	 0.2385497135	 0.094693
H	-2.1187738487	-1.2923771039	-2.0692832035	 0.071703
H	-0.0846776552	-2.3731503262	-0.2565350337	 0.106648
H	-1.6800858117	-3.1704786922	-0.3537648897	 0.097123
105.0904	242.4484	285.5545	361.4563	379.6215	428.7327	472.7581	497.8151	539.1257	717.0596	768.3189	804.9262	825.394	840.4299	877.7385	880.0854	915.0985	923.3274	943.2173	949.963	974.9011	1002.9318	1040.9771	1049.0635	1073.8236	1083.8338	1094.9753	1098.186	1136.0171	1189.2397	1190.6326	1215.5807	1242.6329	1259.5965	1262.7425	1290.6712	1310.9203	1344.5597	1377.6946	1384.2133	1450.7726	1468.942	1488.8351	1494.9191	1503.0147	3017.8912	3052.4647	3064.5444	3067.0283	3082.5148	3094.5254	3114.1234	3125.1061	3126.8326	3131.5505	3212.7606	3227.1415
C1CC11CC2CC(C2)O1	C1CC21C[C@H]1C[C@H](C1)O2	
InChI=1S/C8H12O/c1-2-8(1)5-6-3-7(4-6)9-8/h6-7H,1-5H2	InChI=1S/C8H12O/c1-2-8(1)5-6-3-7(4-6)9-8/h6-7H,1-5H2/t6-,7+
