15
gdb 22325	3.58922	1.2044	0.90688	3.484	77.39	-0.2091	-0.0626	0.1466	1222.5038	0.112002	-453.952989	-453.944532	-453.943588	-453.985987	31.224	
C	-0.0055169021	 1.4771817504	-0.0187854604	-0.497479
C	-0.0641782671	-0.0099145761	-0.0088054864	 0.373462
C	-1.1222403392	-0.8380634674	-0.1508894433	-0.322007
C	-0.6393703338	-2.2037742393	-0.0646246101	 0.278278
N	-1.3962084217	-3.239770405	-0.1614116379	-0.232154
O	-0.7134521664	-4.431808974	-0.0485643918	-0.342196
C	 0.8677499724	-2.1227056917	 0.1519585237	 0.377398
O	 1.6946573634	-2.992139938	 0.283161486	-0.345639
N	 1.1108275198	-0.7539642875	 0.168751914	-0.409402
H	 0.6472045573	 1.8422003009	-0.8212620958	 0.142175
H	-1.0014776536	 1.8980329556	-0.1671376147	 0.146687
H	 0.3960567006	 1.8639631109	 0.9258902054	 0.14206
H	-2.1490943969	-0.5470721019	-0.302886424	 0.113774
H	-1.4188913848	-5.0826147605	-0.1428149856	 0.315061
H	 2.0325717922	-0.3726782663	 0.301340041	 0.259981
102.3096	139.5983	173.4054	203.7757	291.2229	304.8577	345.5499	426.592	447.5509	520.4864	525.324	597.7935	624.5763	723.0144	761.5375	765.7738	823.1726	987.9373	1008.9316	1039.7642	1062.0306	1141.6389	1184.233	1268.5428	1304.9587	1406.551	1421.4686	1438.4359	1475.306	1489.7476	1670.4432	1690.4254	1832.0591	3024.8519	3073.4466	3136.8985	3264.7331	3665.1588	3799.1603
CC1=CC(=NO)C(=O)N1	CC1=CC(=NO)C(=O)N1	
InChI=1S/C5H6N2O2/c1-3-2-4(7-9)5(8)6-3/h2,9H,1H3,(H,6,7,8)	InChI=1S/C5H6N2O2/c1-3-2-4(7-9)5(8)6-3/h2,9H,1H3,(H,6,7,8)
