21
gdb 58405	2.2606	1.03831	0.757	4.2755	80.4	-0.2517	-0.0318	0.2199	1521.1506	0.177841	-424.24916	-424.2381	-424.237156	-424.28711	37.944	
C	-0.0037255821	 1.5741017833	-0.1509041728	-0.403413
C	 0.0039609673	 0.0423022605	-0.0548474973	 0.019594
C	 0.5849900841	-0.5654773338	-1.3420113353	-0.402361
C	 0.7765341332	-0.4752622774	 1.186626356	-0.070276
C	 0.226130332	 0.0734426566	 2.5246429474	-0.31542
C	 1.0625272646	-0.3346576865	 3.7222298405	 0.165177
O	 0.6173770479	-0.8001858546	 4.7381597839	-0.236619
C	 0.7076885038	-1.9941296459	 1.2420243661	 0.165194
O	 1.6573095176	-2.7294141087	 1.3119329877	-0.252669
H	 1.017677401	 1.9718371904	-0.1743495972	 0.11914
H	-0.50148828	 1.8903641759	-1.0728570832	 0.121388
H	-0.5328612469	 2.0469219774	 0.6806879495	 0.120403
H	-1.0378772329	-0.2966260872	 0.0423870937	 0.082212
H	 1.62553525	-0.2523459927	-1.4852675065	 0.123976
H	 0.5710975989	-1.6597249406	-1.3280900076	 0.128969
H	 0.0138408512	-0.2367134798	-2.2154352494	 0.118493
H	 1.8364411506	-0.2066788963	 1.0933400041	 0.095637
H	 0.2426433596	 1.1702406072	 2.4922301728	 0.133351
H	-0.8087418954	-0.2395009033	 2.6983028995	 0.125799
H	 2.1553566165	-0.1521576771	 3.6027489946	 0.082656
H	-0.3332793112	-2.3981792973	 1.2325808535	 0.078768
43.6094	50.726	60.7011	63.5053	167.318	205.6115	229.9814	254.9174	304.26	322.9923	380.4125	398.9669	446.6061	504.5512	553.3756	775.2345	840.6026	919.3167	931.6093	946.4272	963.9947	972.245	1032.1593	1063.3527	1112.603	1155.2468	1163.3832	1188.7298	1208.1417	1261.7367	1292.4683	1344.1363	1351.6361	1375.497	1405.0704	1423.2128	1426.7493	1429.2668	1458.3531	1485.4483	1494.6805	1505.4058	1513.076	1831.4341	1839.3851	2844.8001	2869.8548	2999.4256	3030.4563	3031.943	3034.6895	3040.0955	3092.4197	3097.0565	3101.3839	3109.2207	3113.7893
CC(C)C(CC=O)C=O	CC(C)[C@@H](CC=O)C=O	
InChI=1S/C7H12O2/c1-6(2)7(5-9)3-4-8/h4-7H,3H2,1-2H3	InChI=1S/C7H12O2/c1-6(2)7(5-9)3-4-8/h4-7H,3H2,1-2H3/t7-/m0/s1
