23
gdb 112044	2.34399	1.40125	1.02387	0.1094	90.85	-0.2336	0.027	0.2606	1283.8165	0.206448	-351.159145	-351.150154	-351.149209	-351.192874	35.242	
C	 0.0068609564	 1.6158494834	 0.0154414994	-0.388003
C	 0.0041671304	 0.0860872541	 0.0928727497	-0.164451
C	-1.4081138138	-0.5385017511	 0.0406595521	-0.121263
C	-2.1019791049	-0.2868897961	-1.282909746	-0.063856
C	-2.2138658017	-1.3902058212	-2.0206720465	-0.07053
C	-1.6483099468	-2.6012449899	-1.320221805	-0.334663
C	-1.4204468948	-2.0816837978	 0.1066518432	 0.371224
C	-0.6132133855	-2.8657899556	 1.1047490202	-0.321657
C	-2.1130555117	-2.7767739078	 1.2531970905	-0.309955
H	 1.0224975324	 2.0125842078	 0.1106450881	 0.110946
H	-0.3982099594	 1.9740044491	-0.9363279529	 0.116805
H	-0.5966948424	 2.0544299656	 0.8186835951	 0.111264
H	 0.6072836527	-0.3276284477	-0.7249445648	 0.095628
H	 0.4923745982	-0.2255446285	 1.0241138622	 0.090945
H	-1.9855611305	-0.1149493228	 0.8752700336	 0.06754
H	-2.4259398445	 0.7011539825	-1.5904173941	 0.090391
H	-2.6373405999	-1.4367138008	-3.018181218	 0.088719
H	-2.3260321294	-3.4637242063	-1.34450378	 0.100443
H	-0.7144305614	-2.9318655588	-1.7990619934	 0.103696
H	-0.1839767113	-3.8095965411	 0.7828514951	 0.106478
H	 0.0006283741	-2.3261055262	 1.8183859083	 0.108343
H	-2.5067298112	-2.1656308383	 2.0596762897	 0.106638
H	-2.705260775	-3.6601210926	 1.0350537435	 0.10532
69.002	94.5513	180.4582	213.615	261.4498	287.1307	306.7393	373.0641	452.8243	514.1179	538.1459	729.3203	746.0038	772.7779	783.3297	814.1785	863.9597	893.0881	921.9557	955.8888	968.023	979.6261	983.2208	991.9842	1029.398	1054.2948	1059.6379	1082.1196	1105.8842	1125.2376	1136.5589	1183.1341	1189.0121	1248.891	1266.8891	1278.7305	1290.2761	1337.3638	1363.3194	1376.6099	1382.0302	1411.1891	1466.8299	1484.0268	1488.264	1499.506	1504.1804	1507.5685	1685.835	2991.3032	2994.0215	3023.0048	3030.0816	3037.1235	3058.3204	3095.7764	3104.049	3118.5666	3125.2111	3178.973	3196.065	3204.643	3211.7098
CCC1C=CCC11CC1	CC[C@H]1C=CCC21CC2	
InChI=1S/C9H14/c1-2-8-4-3-5-9(8)6-7-9/h3-4,8H,2,5-7H2,1H3	InChI=1S/C9H14/c1-2-8-4-3-5-9(8)6-7-9/h3-4,8H,2,5-7H2,1H3/t8-/m0/s1
