21
gdb 42075	2.33668	1.56812	1.0578	0.8728	89.97	-0.2288	0.0155	0.2443	1193.5167	0.184726	-349.929765	-349.921276	-349.920332	-349.962435	33.458	
C	 0.0473406947	 1.7308588493	-0.1864899388	-0.184689
C	 1.4356264646	 2.3286301977	 0.1190018635	-0.172311
C	 2.0334462944	 2.0001388514	 1.5134714063	-0.331881
C	 2.3894640581	 0.5855056784	 1.5292820181	 0.054608
C	 2.4763444741	-0.569046512	 1.198634169	 0.066228
C	 2.3007822154	-1.8152782045	 0.4594650572	-0.3887
C	 1.6036880011	-1.5243798085	-0.8704155765	-0.057857
C	 0.6218165874	-0.6481424514	-1.0997653072	-0.016811
C	-0.1552252054	 0.1933931364	-0.1144553909	-0.238324
H	-0.683601788	 2.1798359331	 0.4993973143	 0.093589
H	-0.2385599339	 2.072193142	-1.1904305707	 0.094641
H	 2.1546385528	 1.9992214992	-0.6388555614	 0.112053
H	 1.3543027722	 3.418995655	 0.0250999005	 0.09
H	 2.9065558988	 2.638120695	 1.6966087501	 0.120223
H	 1.3103040149	 2.2365323143	 2.3055129521	 0.118218
H	 3.2642802311	-2.2984885619	 0.2586409873	 0.127917
H	 1.7261500821	-2.5455729632	 1.0476025194	 0.134837
H	 1.9881409616	-2.0928511889	-1.7143213751	 0.086564
H	 0.2875379605	-0.5527855366	-2.1332373824	 0.081341
H	 0.0084401807	-0.1535351009	 0.9056461027	 0.11582
H	-1.2202900472	 0.0214555863	-0.3273960576	 0.094535
103.9596	164.5498	209.7189	226.9066	292.1328	312.0717	358.2077	395.9128	425.3115	507.7627	541.5027	655.0257	689.096	785.5213	790.6858	802.8519	848.5088	907.0534	924.4812	958.575	989.6073	1004.5317	1034.6879	1093.0339	1096.2553	1150.1871	1179.8878	1198.0718	1214.0783	1253.5486	1290.8838	1300.5632	1331.6499	1352.9344	1355.93	1386.7613	1392.6741	1421.089	1469.8507	1475.2971	1479.0183	1484.6122	1490.3868	1712.4705	2357.3019	3000.1414	3003.3222	3012.8695	3017.3423	3026.3441	3042.7859	3045.3184	3049.9897	3078.012	3112.0294	3128.191	3153.6444
C1CCC#CCC=CC1	C1CCC#CCC=CC1	
InChI=1S/C9H12/c1-2-4-6-8-9-7-5-3-1/h1-2H,3-5,7,9H2/b2-1-	InChI=1S/C9H12/c1-2-4-6-8-9-7-5-3-1/h1-2H,3-5,7,9H2/b2-1-
