19
gdb 15071	2.27173	1.85555	1.10354	2.5286	72.5	-0.2451	-0.0239	0.2212	1097.9873	0.163489	-365.038906	-365.0299	-365.028956	-365.073246	31.897	
C	 0.2801082631	 1.4906149328	 0.0282651211	-0.395281
C	 0.111146909	-0.0258384312	-0.0982684933	-0.179187
C	 0.615265427	-0.614363259	-1.4320183743	-0.039628
C	 0.4352036054	-2.1262495342	-1.3745451142	 0.158637
O	 1.2231717134	-2.8807112082	-0.8666130115	-0.255864
N	-0.1508553548	-0.1066518295	-2.5664884552	-0.077938
C	 0.3872174108	 1.0536217493	-3.2709633055	-0.215764
C	 0.4559095546	-0.297043629	-3.8866690424	-0.231526
H	 1.3274777579	 1.7868652521	-0.097095302	 0.114356
H	-0.3160114181	 2.0254950743	-0.7154931267	 0.131842
H	-0.0433947757	 1.8270758642	 1.0180305825	 0.118487
H	 0.658586916	-0.52986889	 0.705962346	 0.117105
H	-0.946955826	-0.2896706061	 0.0183020175	 0.108587
H	 1.6979011469	-0.4150734854	-1.5255954192	 0.076636
H	-0.5188535166	-2.4837425171	-1.8234724253	 0.088247
H	-0.3460089797	 1.7785846143	-3.6124915282	 0.121864
H	 1.3193533872	 1.4836264134	-2.9102587222	 0.117409
H	 1.4347428384	-0.7715102528	-3.9344890421	 0.11992
H	-0.2274671088	-0.5778348878	-4.6821922852	 0.122097
48.5163	92.1498	109.1198	184.6777	224.8445	232.5324	291.748	338.7173	441.6843	475.179	534.8772	740.7407	803.8894	863.1133	877.6155	898.6047	983.372	1006.7422	1017.2078	1047.8661	1091.363	1114.3526	1123.0247	1129.9476	1151.3654	1179.0208	1200.7991	1274.4591	1301.1478	1313.3194	1354.8749	1377.0074	1408.4682	1411.4015	1480.2073	1492.2643	1498.7817	1508.2708	1520.2339	1836.0148	2884.0042	2945.0149	3033.5117	3037.6746	3075.9845	3099.0206	3102.4115	3104.3004	3121.9724	3182.7591	3197.0468
CCC(C=O)N1CC1	CC[C@@H](C=O)N1CC1	
InChI=1S/C6H11NO/c1-2-6(5-8)7-3-4-7/h5-6H,2-4H2,1H3	InChI=1S/C6H11NO/c1-2-6(5-8)7-3-4-7/h5-6H,2-4H2,1H3/t6-/m0/s1
