17
gdb 48919	3.12486	1.48932	1.29738	4.591	72.9	-0.2413	-0.0355	0.2058	1011.4569	0.13624	-421.774643	-421.767457	-421.766513	-421.806475	27.925	
O	 0.0866419102	-0.0989056301	-0.0036627514	-0.241277
C	 0.0750601233	 1.1044038604	 0.0043433516	 0.026928
C	 1.2871642934	 1.9643682319	 0.0019170114	 0.348512
O	 2.6179891083	 1.3708836868	-0.0121005005	-0.334159
C	 2.847691013	 2.8229448858	-0.0027602175	 0.04531
C	 1.7185112764	 3.0589042182	-1.046724869	-0.075824
C	 1.0106036039	 4.3752948415	-0.7583829776	-0.251027
C	 1.0219070623	 4.3634866625	 0.8027020394	-0.251027
C	 1.7337123085	 3.0429414518	 1.0608081755	-0.075766
H	-0.8773311601	 1.6841979364	 0.0145863395	 0.076829
H	 3.8806991303	 3.1710625203	-0.0075683418	 0.097781
H	 1.8856127337	 2.7272743461	-2.0706526942	 0.09318
H	 1.5560476957	 5.2278021913	-1.1745381605	 0.112003
H	-0.0010590954	 4.4051682399	-1.1732349903	 0.111663
H	 1.5734885883	 5.2096265024	 1.2237403396	 0.112006
H	 0.016376172	 4.3870487032	 1.2325909125	 0.111666
H	 1.9154600462	 2.6957425016	 2.0770487432	 0.093203
94.9394	149.6815	204.3283	298.5205	316.6001	494.3893	503.2606	636.6783	705.7333	732.2064	742.5256	811.6981	835.7673	902.6503	912.5827	926.906	966.9445	993.1111	996.6518	1006.9728	1036.752	1066.0817	1105.8385	1140.7828	1198.3679	1209.1888	1233.1773	1250.3055	1258.6228	1268.4424	1300.3715	1323.2348	1372.3359	1429.06	1490.7452	1510.5926	1824.8935	2858.6243	3050.5855	3059.6662	3084.0888	3102.8726	3116.4507	3137.5037	3141.8741
O=CC12OC3C1CCC23	O=C[C@@]12O[C@H]3[C@@H]1CC[C@@H]23	
InChI=1S/C7H8O2/c8-3-7-4-1-2-5(7)6(4)9-7/h3-6H,1-2H2	InChI=1S/C7H8O2/c8-3-7-4-1-2-5(7)6(4)9-7/h3-6H,1-2H2/t4-,5+,6-,7+
