22
gdb 6222	3.30111	1.5345	1.42513	1.2811	78.1	-0.2375	0.0803	0.3178	1044.8981	0.199287	-350.235737	-350.226717	-350.225773	-350.269192	34.497	
C	-0.0270539374	 1.542250667	 0.0947114182	-0.399005
C	 0.0839870212	 0.0295743831	-0.0032283225	 0.158993
C	 0.7987920674	-0.5098051912	-1.2461311765	-0.224324
C	 1.2572789865	-1.8918172596	-0.7650775209	-0.275048
C	 1.5434567837	-1.6748400794	 0.7461344643	 0.410174
C	 0.9854794711	-2.8063600227	 1.6138171171	-0.419463
C	 3.0336356214	-1.4549175025	 1.0265243505	-0.410668
O	 0.8616472564	-0.4492891541	 1.0918849989	-0.315277
H	 0.9644807925	 2.0020288687	 0.0354398947	 0.116782
H	-0.6460043678	 1.9354126252	-0.7183231505	 0.110188
H	-0.4834516811	 1.8341715032	 1.0447534585	 0.123314
H	-0.9293253042	-0.4083956252	 0.0457726794	 0.057405
H	 0.1532032312	-0.5491751482	-2.127607229	 0.096128
H	 1.6571163622	 0.1294114717	-1.4841020383	 0.099796
H	 0.4535017927	-2.6242187783	-0.8962878047	 0.09682
H	 2.133910264	-2.267997203	-1.298408555	 0.09982
H	 1.4547767372	-3.7630991296	 1.3595367978	 0.108374
H	 1.1688109036	-2.6049583161	 2.6735803057	 0.117734
H	-0.0943773503	-2.9053344265	 1.4672857319	 0.111678
H	 3.4430732979	-0.6828206482	 0.3680119204	 0.109295
H	 3.1766118744	-1.1270090177	 2.0603297133	 0.120434
H	 3.6029993174	-2.3778806466	 0.874184607	 0.106848
38.7091	150.0878	218.3555	228.3538	244.3158	277.1315	329.9974	336.4703	409.8998	441.4371	480.9529	565.4272	595.6757	758.5989	816.9524	869.9051	902.4525	921.6599	940.2576	954.5202	984.0439	1006.216	1010.9661	1064.9055	1108.5018	1150.3318	1159.8024	1199.2423	1234.1866	1252.4566	1275.9711	1319.7926	1339.8604	1368.8108	1393.94	1396.2076	1410.2042	1414.1136	1474.2733	1480.5721	1483.9414	1487.6549	1494.6158	1498.7687	1500.236	1507.2232	2932.474	3029.8052	3034.8863	3036.2531	3040.5235	3047.6237	3094.2843	3100.7361	3102.4505	3107.2114	3110.3785	3111.4373	3114.5547	3116.1203
CC1CCC(C)(C)O1	C[C@H]1CCC(C)(C)O1	
InChI=1S/C7H14O/c1-6-4-5-7(2,3)8-6/h6H,4-5H2,1-3H3	InChI=1S/C7H14O/c1-6-4-5-7(2,3)8-6/h6H,4-5H2,1-3H3/t6-/m0/s1
