16
gdb 100369	2.56284	1.1068	0.95272	2.6486	66.72	-0.2926	-0.0184	0.2742	1257.3136	0.120768	-475.045862	-475.035959	-475.035015	-475.080912	34.319	
C	 0.022811844	 1.6515677498	 0.031636334	-0.413545
C	-0.0142363449	 0.1214778364	 0.0051733777	 0.183431
C	 0.6588984584	-0.4830281945	 1.268226797	-0.097928
O	 2.0112873402	-0.1169507216	 1.3720288645	-0.407784
O	-1.3649004337	-0.3715580274	 0.0582871241	-0.223924
C	-2.1520336768	-0.2886945614	-1.0454386936	 0.169052
O	-3.3031922796	-0.5924359855	-1.0152707558	-0.25706
C	 0.7037890178	-0.4008379703	-1.1771801502	 0.242044
N	 1.3189876243	-0.8202021435	-2.0614981352	-0.324062
H	 1.0519526623	 1.9851664116	 0.1783678061	 0.162901
H	-0.3636511239	 2.0813190299	-0.8953725283	 0.138514
H	-0.5892812553	 2.0001477074	 0.8675415177	 0.146958
H	 0.1413770494	-0.0743105188	 2.1403598503	 0.13866
H	 0.5060663626	-1.5692071872	 1.254801195	 0.127599
H	 2.5193651269	-0.6295850272	 0.7330478355	 0.305586
H	-1.6148984919	 0.0626355922	-1.9435031189	 0.109557
78.3442	111.3898	129.5154	144.671	173.1887	217.6185	235.4094	295.0705	369.7177	385.4347	403.0256	412.953	526.2454	587.2097	692.2534	759.4682	918.0886	946.2789	981.2136	1040.5589	1089.7305	1126.7642	1142.5628	1151.4827	1208.5362	1280.2008	1380.1812	1403.3728	1412.734	1432.5199	1483.4129	1490.3624	1501.2595	1873.3757	2347.9595	2993.8068	3033.5074	3055.8013	3106.73	3135.5562	3149.1766	3804.4352
CC(CO)(OC=O)C#N	C[C@@](CO)(OC=O)C#N	
InChI=1S/C5H7NO3/c1-5(2-6,3-7)9-4-8/h4,7H,3H2,1H3	InChI=1S/C5H7NO3/c1-5(2-6,3-7)9-4-8/h4,7H,3H2,1H3/t5-/m1/s1
