16
gdb 62375	2.62009	1.87057	1.36721	2.1671	72.23	-0.2572	-0.0234	0.2338	947.7067	0.124159	-400.711399	-400.703929	-400.702985	-400.742976	29.407	
C	-0.1022641526	 1.5211234576	-0.0109230765	-0.463937
C	-0.0327812246	-0.0066133948	-0.0045299901	 0.163904
C	-1.3323280958	-0.5837496945	-0.3412612474	 0.225003
N	-2.3781647551	-0.9954845128	-0.6121284657	-0.338946
C	 1.2604043688	-0.6282761196	-0.6811799559	-0.009468
O	 1.9935223836	-0.2143548735	 0.5123064207	-0.281805
C	 0.7788323107	-0.6422966026	 1.2012176097	-0.009463
C	 0.7385073175	-2.1406007737	 0.8658499094	-0.079961
C	 1.0693873885	-2.1309720456	-0.4273468272	-0.079942
H	 0.8751961625	 1.9329385311	 0.2421779707	 0.14917
H	-0.4038085007	 1.8876779953	-0.9966116145	 0.137739
H	-0.841361557	 1.8749307636	 0.7139420985	 0.137736
H	 1.6635781218	-0.258159395	-1.6222389109	 0.097454
H	 0.6792494929	-0.2868176414	 2.2253491852	 0.097453
H	 0.4791612565	-2.9504316762	 1.5300864973	 0.127532
H	 1.1638038229	-2.930508358	-1.1457645131	 0.127532
146.7344	159.4346	235.6541	279.4355	284.108	446.2611	464.7883	528.6497	587.8673	601.0736	643.1806	728.9198	791.0435	819.8837	860.1775	882.7832	905.444	916.2508	937.7377	951.7201	1002.4805	1109.3146	1116.0865	1133.8976	1172.2845	1230.8899	1233.0114	1252.9888	1297.7587	1302.8667	1401.5833	1489.4237	1498.6896	1613.672	2351.0037	3049.0865	3113.6563	3143.7008	3146.7086	3152.5407	3245.4689	3271.2942
CC1(C#N)C2OC1C=C2	C[C@@]1(C#N)[C@H]2O[C@@H]1C=C2	
InChI=1S/C7H7NO/c1-7(4-8)5-2-3-6(7)9-5/h2-3,5-6H,1H3	InChI=1S/C7H7NO/c1-7(4-8)5-2-3-6(7)9-5/h2-3,5-6H,1H3/t5-,6+,7+
