17
gdb 65836	2.61154	1.32327	1.18663	4.5908	73.68	-0.2731	0.0063	0.2793	1117.4883	0.136574	-418.046025	-418.037596	-418.036652	-418.079164	31.358	
C	-0.1513310125	 1.511397878	-0.0142032169	-0.444969
C	 0.0467537715	-0.0122679743	 0.0224917038	 0.069059
C	 0.9446698028	-0.532757985	-1.13295937	-0.101988
O	 1.5494151652	-1.7329478057	-0.6544507987	-0.233316
C	 1.558340149	-1.7565146201	 0.7174904313	 0.420657
N	 2.0773186483	-2.6621710098	 1.4205396907	-0.5333
C	 0.8495281354	-0.5263775956	 1.2429934649	-0.330637
C	-1.2627668044	-0.6790961247	-0.0347488285	 0.278
N	-2.3010273492	-1.1842702415	-0.0836941846	-0.332598
H	 0.8194420273	 2.0126341527	 0.0382760737	 0.129738
H	-0.6543565229	 1.8195114617	-0.9349829632	 0.143537
H	-0.7599342166	 1.8438959912	 0.8301339869	 0.148792
H	 0.3907547833	-0.7638661462	-2.0442151077	 0.14333
H	 1.7208939142	 0.2091673598	-1.3600003766	 0.115944
H	 2.5120678366	-3.3754959585	 0.8329136959	 0.230061
H	 1.5919955926	 0.2251244891	 1.5334488095	 0.137314
H	 0.2419650493	-0.7581548409	 2.1166892496	 0.160376
76.0984	136.8895	192.4872	209.7804	236.2398	284.3534	370.7125	447.8309	468.0349	532.313	579.535	614.2822	695.1802	764.0855	853.3799	892.1994	903.4869	921.1559	980.0184	1005.3612	1030.5854	1105.1711	1134.7609	1147.0915	1191.513	1220.4639	1273.5119	1303.5503	1312.5575	1396.9134	1417.9695	1468.9188	1489.0583	1498.7497	1517.0368	1790.9157	2355.7731	3026.2462	3046.3007	3057.8769	3120.6654	3123.1709	3129.5331	3149.0114	3478.3803
CC1(COC(=N)C1)C#N	C[C@]1(CO[C]([NH])C1)C#N	
InChI=1S/C6H8N2O/c1-6(3-7)2-5(8)9-4-6/h8H,2,4H2,1H3	InChI=1S/C6H8N2O/c1-6(3-7)2-5(8)9-4-6/h8H,2,4H2,1H3/t6-/m1/s1
