14
gdb 14501	3.87458	2.03128	1.55888	1.6106	64.05	-0.2465	0.0279	0.2744	804.0843	0.104911	-382.422336	-382.415175	-382.414231	-382.453308	27.706	
O	-0.0024691157	 1.4178079755	-0.1139577308	-0.480138
C	 0.0105110425	 0.0151350668	-0.0331744006	 0.26484
C	 0.9600231369	-0.5803014215	-0.9587373485	 0.285873
C	 1.7955232184	-0.966829548	-1.7320435992	-0.454571
C	-0.1178852519	-0.6700132861	 1.3810734909	-0.007686
C	-1.5312211762	-0.0613485113	 1.5270120928	-0.249511
C	-1.3892003928	-0.6583647637	 0.1059432435	 0.011825
O	-0.7124475641	-1.8322781457	 0.692983018	-0.301995
H	 0.8830639147	 1.7084528255	-0.3543442715	 0.291888
H	 2.5187290989	-1.3388394964	-2.4153327463	 0.200545
H	 0.6532362047	-0.8622926345	 2.1271485667	 0.100002
H	-2.1945895719	-0.6253342951	 2.1825220603	 0.11077
H	-1.6225796784	 1.0193941453	 1.6280557724	 0.123966
H	-2.136876105	-0.8343949208	-0.6670243879	 0.104193
149.4376	160.0747	225.2858	312.2463	335.9484	479.5864	507.5299	510.8953	634.6725	638.3911	666.7611	669.7032	775.6773	817.3535	887.2364	915.5258	928.6576	1010.2666	1038.5217	1068.1092	1131.2275	1153.5569	1170.8223	1191.3213	1206.6803	1248.7223	1274.3454	1384.333	1478.7615	2233.9704	3092.0479	3122.104	3130.4069	3173.9888	3500.4411	3825.982
OC1(C#C)C2CC1O2	O[C@@]1(C#C)[C@H]2C[C@@H]1O2	
InChI=1S/C6H6O2/c1-2-6(7)4-3-5(6)8-4/h1,4-5,7H,3H2	InChI=1S/C6H6O2/c1-2-6(7)4-3-5(6)8-4/h1,4-5,7H,3H2/t4-,5+,6+
