20
gdb 59798	2.59858	0.86134	0.75494	4.3537	80.97	-0.2568	-0.0165	0.2403	1600.618	0.166808	-440.325677	-440.314774	-440.31383	-440.363158	37.469	
C	-0.7406493786	 0.9461268624	 0.0846154824	-0.369957
C	-0.3619888865	-0.536864339	-0.0172228458	 0.04353
C	-1.5975568978	-1.4173351751	-0.2419061867	-0.36905
N	 0.536222825	-0.7058623816	-1.1504999036	-0.270716
C	 1.6938256168	-1.1870882125	-1.0533736156	 0.398238
C	 2.4647701782	-1.7402108546	 0.1133921568	-0.478856
O	 2.4868309951	-1.3031137012	-2.1910607312	-0.222715
C	 2.2284190344	-0.5127757351	-3.2779882842	 0.174868
O	 2.8108223899	-0.675827986	-4.3054633126	-0.262862
H	 0.1448261076	 1.5661156741	 0.2536462286	 0.113722
H	-1.2187378162	 1.2810971935	-0.8409593731	 0.126553
H	-1.4356714381	 1.1072492695	 0.9145081141	 0.114614
H	 0.1058232656	-0.8343020443	 0.9330499499	 0.067143
H	-2.088116937	-1.1503235419	-1.182825519	 0.12823
H	-1.3211860614	-2.4746277231	-0.2921512471	 0.115984
H	-2.3138156743	-1.2870155589	 0.5752871421	 0.113872
H	 1.8632036324	-1.7984334132	 1.0190000172	 0.143362
H	 2.8308974981	-2.7392183917	-0.1396945801	 0.15953
H	 3.343023445	-1.11572339	 0.3054894823	 0.154013
H	 1.4702402422	 0.2530286387	-3.0718336744	 0.120497
27.6326	71.8647	94.1197	117.5932	136.1913	186.7702	219.376	244.8027	264.762	334.36	399.0095	459.9815	485.3666	540.9777	569.3103	666.3748	804.4363	899.718	930.3292	956.2163	988.8693	1035.6612	1050.574	1059.2773	1121.8385	1134.1186	1165.3332	1187.0412	1233.8436	1351.4872	1371.8745	1394.9109	1395.4221	1412.6151	1416.3403	1472.8537	1480.6316	1481.4912	1487.2982	1494.4605	1509.6801	1772.8321	1865.5479	2986.305	3035.9601	3040.0931	3055.6103	3073.9988	3110.1497	3112.8441	3113.6096	3114.6114	3119.0152	3164.9252
CC(C)N=C(C)OC=O	CC(C)N=C(C)OC=O	
InChI=1S/C6H11NO2/c1-5(2)7-6(3)9-4-8/h4-5H,1-3H3	InChI=1S/C6H11NO2/c1-5(2)7-6(3)9-4-8/h4-5H,1-3H3
