17
gdb 68567	2.60952	1.62713	1.3797	2.7935	72.38	-0.2289	-0.0205	0.2084	985.656	0.134824	-421.792708	-421.784843	-421.783899	-421.824969	30.588	
O	 0.1810948472	 1.4307063563	 0.0593021312	-0.48579
C	 0.0933284918	 0.0467475403	 0.0013507243	 0.352603
C	 0.3462547381	-0.8013958445	-1.2980528732	-0.276357
C	-0.4993727769	-1.84337963	-0.4855001256	-0.0943
C	 0.4271830261	-2.0638973159	 0.7224675901	-0.052608
C	 0.818804813	-0.8305026869	 1.0436926	-0.180783
C	-1.3384918597	-0.6154008979	 0.0020125983	-0.09794
C	-2.1536370738	-0.6805262332	 1.2618190588	 0.125317
O	-2.3891115374	-1.689983583	 1.8778889357	-0.247315
H	 1.109294579	 1.6776928165	 0.1324240094	 0.285171
H	-0.1680222344	-0.4005248168	-2.1766636332	 0.10001
H	 1.3797988993	-1.0728260029	-1.523532107	 0.094683
H	-0.9679288545	-2.7034608387	-0.9558899164	 0.079423
H	 0.6595260231	-3.0131427556	 1.182103129	 0.113259
H	 1.4504187684	-0.4696721361	 1.8436039733	 0.103325
H	-1.9515580476	-0.167265933	-0.7911251003	 0.098888
H	-2.5543759918	 0.3033594915	 1.5987306957	 0.082413
95.8593	146.0821	209.5897	229.0998	307.6656	363.4382	450.0762	486.5818	561.6772	620.4225	660.246	700.9467	755.8748	823.3436	857.7605	870.4932	903.1234	912.6045	937.6635	990.7766	1012.8971	1036.0722	1061.9896	1081.29	1121.2437	1133.6766	1177.601	1215.6189	1254.4697	1265.2681	1330.774	1349.2647	1375.7099	1419.9468	1493.2918	1632.2051	1820.4301	2866.0887	3032.4986	3054.1349	3126.2027	3157.526	3220.0271	3250.3377	3809.0426
OC12CC(C=C1)C2C=O	O[C@@]12C[C@@H](C=C1)[C@H]2C=O	
InChI=1S/C7H8O2/c8-4-6-5-1-2-7(6,9)3-5/h1-2,4-6,9H,3H2	InChI=1S/C7H8O2/c8-4-6-5-1-2-7(6,9)3-5/h1-2,4-6,9H,3H2/t5-,6-,7-/m1/s1
