22
gdb 110320	1.96555	1.5886	1.0827	2.1556	83.26	-0.2254	0.0698	0.2952	1235.6545	0.192546	-404.306304	-404.296535	-404.295591	-404.340635	37.048	
C	 0.4804637922	 0.1950700373	 1.6253318491	-0.37441
C	 0.1562975151	 0.0031468421	 0.1456321707	-0.122343
N	-1.1513611238	-0.6382319329	 0.0038708284	-0.113285
C	-1.6327648428	-1.2709603768	-1.2030800115	-0.12516
C	-0.5882446344	-2.1096473465	-1.9443108628	 0.118726
O	 0.4106591358	-1.3645030643	-2.6090666345	-0.428424
C	-0.2543028253	-2.8636764653	-0.6118778192	-0.354589
C	-1.3827944495	-2.0616650923	 0.0743242984	 0.33203
C	-2.3454795759	-2.6210991171	 1.0806988869	-0.48433
H	 1.4207754247	 0.7418649824	 1.7468991784	 0.10928
H	-0.3155744856	 0.7528324732	 2.1271794462	 0.121874
H	 0.5864901247	-0.7696850559	 2.1338290398	 0.111534
H	 0.081787341	 0.9759448629	-0.3534629889	 0.10287
H	 0.9667450027	-0.5373348962	-0.3565897929	 0.102487
H	-2.5606798862	-0.9118027337	-1.6378212797	 0.084303
H	-1.0921955714	-2.7928035834	-2.6425228567	 0.074562
H	 0.9996650089	-1.9813229277	-3.0555023203	 0.283396
H	-0.4601234532	-3.93536968	-0.6714197465	 0.098761
H	 0.75308371	-2.7185997345	-0.211595972	 0.099821
H	-1.8442804797	-2.8176849102	 2.0362546906	 0.119951
H	-3.154479604	-1.910133307	 1.2664622194	 0.130406
H	-2.7771602632	-3.5663107041	 0.7334102172	 0.112539
64.1748	141.6197	157.6395	199.2625	210.7943	237.9611	278.035	302.7181	332.8644	401.5344	440.9187	487.6118	573.0888	677.1381	711.6246	756.753	804.7066	864.8342	898.5239	928.2453	947.3388	969.4274	998.8354	1036.1296	1050.9863	1112.1725	1136.5766	1145.7394	1164.8381	1178.679	1197.7807	1216.2741	1247.7537	1283.474	1305.178	1319.8052	1381.044	1401.7755	1408.1515	1418.6426	1448.9358	1478.5461	1483.6431	1489.0083	1494.7702	1500.0984	1522.9405	2997.8216	3025.2009	3033.5922	3034.8236	3056.873	3065.0014	3082.6146	3101.2599	3109.0889	3115.9937	3120.0929	3155.3003	3811.7994
CCN1C2C(O)CC12C	CCN1[C@H]2[C@@H](O)C[C@@]12C	
InChI=1S/C7H13NO/c1-3-8-6-5(9)4-7(6,8)2/h5-6,9H,3-4H2,1-2H3	InChI=1S/C7H13NO/c1-3-8-6-5(9)4-7(6,8)2/h5-6,9H,3-4H2,1-2H3/t5-,6-,7+,8?/m0/s1
