19
gdb 108761	2.50692	1.31679	0.91252	5.6821	83.83	-0.2053	0.0055	0.2108	1297.609	0.159505	-419.241139	-419.231856	-419.230911	-419.275123	34.226	
C	-0.0296614941	 1.4195751445	 0.0834551472	-0.32756
N	-0.043074135	-0.0207530469	-0.0801933279	-0.376279
C	 0.6229208734	-0.6163081489	-1.1057583701	 0.378299
C	 1.2188257163	-0.0780802692	-2.1901217729	-0.338907
C	 1.7283561911	-1.1528219833	-3.0255990556	 0.416587
N	 2.3433704497	-1.061248038	-4.1306691582	-0.571059
O	 1.4346287536	-2.3606510461	-2.4063866927	-0.263824
C	 0.7343151075	-2.1259955709	-1.1845871923	 0.024978
C	 1.4882292354	-2.7731496764	-0.0235946153	-0.400526
H	 0.9851005163	 1.8183011008	 0.2245683668	 0.129892
H	-0.4621176344	 1.898406879	-0.8014369009	 0.146274
H	-0.6385475953	 1.689814471	 0.9482945302	 0.131113
H	-0.1775108733	-0.568459946	 0.7535351174	 0.245824
H	 1.3289576526	 0.9618741756	-2.4513498707	 0.109487
H	 2.5783390616	-1.9906538793	-4.4806602497	 0.212292
H	-0.2661010457	-2.5756373714	-1.2693862713	 0.102309
H	 2.4778535998	-2.3214690507	 0.0871158174	 0.135014
H	 0.9400449005	-2.6587690703	 0.9183749305	 0.107197
H	 1.60992108	-3.8429084134	-0.2111290119	 0.13889
107.9291	118.469	146.2602	178.3788	200.1496	228.7529	272.7525	344.2803	406.6821	428.7933	514.8014	613.5973	648.3152	688.7721	709.9268	814.7539	825.3466	852.4499	900.7794	954.3522	1036.2577	1071.5198	1083.8175	1113.0007	1127.3967	1153.0829	1176.8546	1255.6067	1281.7382	1331.6404	1355.1383	1371.7805	1405.0699	1460.4323	1480.6481	1483.871	1493.7086	1513.0397	1543.7835	1693.8153	1758.5594	2996.863	3002.7032	3036.8531	3073.2413	3108.2265	3130.6157	3131.1541	3266.4327	3483.0402	3639.1262
CNC1=CC(=N)OC1C	CN[C]1C=C([NH])O[C@H]1C	
InChI=1S/C6H10N2O/c1-4-5(8-2)3-6(7)9-4/h3-4,7-8H,1-2H3	InChI=1S/C6H10N2O/c1-4-5(8-2)3-6(7)9-4/h3-4,7-8H,1-2H3/t4-/m0/s1
