15
gdb 79222	2.74302	1.68267	1.34191	3.6586	69.73	-0.2471	-0.0083	0.2388	957.2009	0.113574	-416.741935	-416.734763	-416.733819	-416.773403	28.286	
N	-0.1015543491	 1.5064921927	-0.0236559685	-0.521539
C	-0.0679224827	 0.0776159667	-0.0254816196	 0.007446
C	-1.3923765123	-0.6800248669	-0.0882228845	-0.136469
C	-1.6951436336	-0.8218496064	-1.5858414385	 0.087287
O	-0.6654887044	-0.136902117	-2.3150787153	-0.321666
C	 0.2687176916	-0.7186819041	-1.3623741088	 0.308453
C	 1.6101988243	-0.9017504073	-1.8445196088	 0.157324
N	 2.7088503055	-1.0489355204	-2.1737859896	-0.33398
C	-0.7868374492	-1.800722289	-0.9314645773	-0.198825
H	 0.8274108408	 1.9037080136	 0.0693501585	 0.239392
H	-0.5021132123	 1.8395233833	-0.8959939126	 0.244008
H	 0.5543932712	-0.3007407684	 0.7886842392	 0.1057
H	-2.1551772549	-0.7511368588	 0.6751720764	 0.109947
H	-2.6762733974	-0.9105519872	-2.0296000749	 0.127566
H	-0.7562885876	-2.8755088509	-0.8363238358	 0.125357
127.1539	167.9721	235.5251	299.1988	366.685	479.3609	510.3022	542.0124	598.914	656.7961	755.9933	774.0299	782.0159	828.0141	858.3039	891.549	939.1493	951.4245	963.7136	996.2694	1024.3098	1038.8354	1060.8282	1155.8392	1170.4494	1199.8654	1237.5521	1265.6565	1301.6028	1359.5209	1432.104	1661.987	2353.7848	3097.4838	3215.5312	3226.7271	3241.2334	3499.348	3586.1671
NC1C2C3OC1(C#N)C23	N[C@H]1[C@H]2[C@H]3O[C@]1(C#N)[C@@H]23	
InChI=1S/C6H6N2O/c7-1-6-3-2(5(6)8)4(3)9-6/h2-5H,8H2	InChI=1S/C6H6N2O/c7-1-6-3-2(5(6)8)4(3)9-6/h2-5H,8H2/t2-,3+,4-,5+,6-/m1/s1
