17
gdb 74766	4.03829	1.14196	1.061	5.6354	78.87	-0.2317	-0.0197	0.212	1165.7499	0.137561	-380.839627	-380.831922	-380.830978	-380.871791	29.637	
C	 0.0484985389	 1.4570974232	 0.0615449596	-0.515255
C	-0.0195633371	-0.0276478224	-0.0136844153	 0.329349
C	-0.0317831894	-0.8871536743	-1.0399922672	-0.218017
C	-0.0553600157	-2.255713756	-0.3337164103	-0.049633
N	-1.0219880041	-2.0590504095	 0.7991280066	-0.284492
C	-0.044834137	-0.9938214251	 1.1983330514	-0.105345
C	 1.0684920648	-2.0202300516	 0.7514020499	-0.141071
C	 1.3238119935	-3.1232978369	 1.6648406097	 0.28443
N	 1.5828693293	-3.9918367933	 2.3827815257	-0.328042
H	 0.9531656958	 1.7865211761	 0.5882614942	 0.137029
H	 0.0537603304	 1.9086256014	-0.9340722584	 0.134223
H	-0.8017544554	 1.869124652	 0.619610407	 0.134806
H	 0.0128111843	-0.7062487808	-2.1044551755	 0.112629
H	-0.1165591201	-3.1749967294	-0.9135812538	 0.091645
H	-1.9042935427	-1.6604730402	 0.4753761787	 0.209269
H	-0.094636984	-0.5947835207	 2.2111085833	 0.08862
H	 2.0054535985	-1.5954597125	 0.3916304443	 0.119854
124.4111	146.9447	173.5284	216.4915	299.5071	421.5876	468.0394	518.4155	554.07	586.32	644.7595	784.7618	801.5965	853.8219	893.5226	900.1528	918.8789	937.7525	1010.6772	1024.2327	1043.6768	1064.6519	1108.5983	1126.5972	1175.4468	1193.7103	1229.0562	1239.2644	1278.878	1283.1108	1337.1127	1344.146	1414.6463	1477.2442	1484.1702	1683.5363	2353.6711	3018.3523	3064.2339	3112.7868	3120.9265	3128.8092	3140.218	3235.3471	3444.5138
CC1=CC2NC1C2C#N	CC1=C[C@@H]2N[C@H]1[C@H]2C#N	
InChI=1S/C7H8N2/c1-4-2-6-5(3-8)7(4)9-6/h2,5-7,9H,1H3	InChI=1S/C7H8N2/c1-4-2-6-5(3-8)7(4)9-6/h2,5-7,9H,1H3/t5-,6-,7+/m0/s1
