17
gdb 60883	2.24996	1.38961	1.11344	0.3938	69.5	-0.2621	-0.0435	0.2186	1144.516	0.131969	-458.95645	-458.947024	-458.94608	-458.991651	32.99	
C	 0.5299584419	 1.5295947562	-0.0236401153	-0.416594
C	 0.0634888096	 0.0642651429	 0.1239841735	-0.190316
C	 0.1343904929	-0.624490419	-1.2269617135	 0.16708
O	 0.5857565661	-1.7104050943	-1.4848080627	-0.252964
C	 0.7463751926	-0.5929629223	 1.3099144278	 0.283383
C	 1.5099231192	-1.8670348816	 1.2973945054	-0.223489
O	 2.182642769	-0.6163898056	 1.3382785068	-0.268335
C	 0.174603183	-0.2304726681	 2.6514381825	 0.141324
O	-0.8970996618	 0.293882224	 2.8187673992	-0.266437
H	 1.6116437161	 1.5720649923	-0.1753541311	 0.147672
H	 0.037585216	 2.0112540419	-0.8735628757	 0.124835
H	 0.2799588976	 2.0977815004	 0.8749059488	 0.145965
H	-1.0099076886	 0.0944864555	 0.3680453878	 0.134514
H	-0.3170371001	 0.0000234856	-2.032315923	 0.087179
H	 1.5706800839	-2.4543387947	 2.2140101493	 0.116563
H	 1.5671979071	-2.4086573196	 0.3612946876	 0.171555
H	 0.8488358157	-0.4953363137	 3.4950063627	 0.098065
36.8157	73.4585	132.7374	188.8305	220.2995	229.2851	240.3085	357.3209	365.5894	400.1105	497.5214	561.9614	663.5417	725.0253	852.3301	874.2179	906.963	931.2319	954.7567	1030.5149	1038.5732	1113.0211	1146.7478	1149.1216	1174.2415	1221.692	1283.5647	1343.2812	1375.2481	1403.491	1413.9625	1446.5886	1495.143	1508.1198	1512.4676	1821.2354	1833.2864	2866.7042	2904.9648	3005.1184	3049.1139	3090.8923	3121.6093	3136.1313	3230.3945
CC(C=O)C1(CO1)C=O	C[C@@H](C=O)[C@]1(CO1)C=O	
InChI=1S/C6H8O3/c1-5(2-7)6(3-8)4-9-6/h2-3,5H,4H2,1H3	InChI=1S/C6H8O3/c1-5(2-7)6(3-8)4-9-6/h2-3,5H,4H2,1H3/t5-,6+/m0/s1
