18
gdb 53274	2.66844	1.01777	0.84042	3.0637	83.06	-0.2394	0.0105	0.2499	1445.264	0.144412	-401.927137	-401.916803	-401.915859	-401.964455	34.976	
C	-0.4104012808	 1.2229472967	-0.1693164358	-0.50024
C	-0.2099605737	-0.2121790852	-0.0443877213	 0.065584
C	-0.0564262916	-1.4030328873	 0.0446472413	 0.119961
C	 0.1581179436	-2.8208211797	 0.1383440504	-0.197381
C	-0.5149539505	-3.6156680556	 1.2409516988	-0.253914
N	-0.9136257775	-3.7643463057	-0.1362668506	-0.084158
C	-2.1555334859	-3.4633985357	-0.7018831621	 0.387911
C	-3.3262368517	-4.1405799278	-0.0120476917	-0.477774
O	-2.262629479	-2.7826126825	-1.6940255194	-0.330081
H	 0.4886210852	 1.7135222219	-0.5579220277	 0.152328
H	-1.2335413212	 1.4434813565	-0.8575509258	 0.160429
H	-0.6486382065	 1.6812099853	 0.7968684873	 0.147616
H	 1.1359537841	-3.1647985342	-0.1929470783	 0.123002
H	 0.0046464734	-4.4589683959	 1.689611821	 0.126713
H	-1.1642571994	-3.0568645102	 1.9106406151	 0.132596
H	-3.600866453	-3.581228199	 0.8896210241	 0.140544
H	-4.180488852	-4.1486106671	-0.6890201189	 0.14798
H	-3.0745983934	-5.1593181145	 0.2941717434	 0.138885
26.8125	58.4096	72.1564	97.4485	143.3671	181.2313	218.4051	313.7252	323.8067	404.3964	482.1357	514.3012	588.9042	648.0413	676.8848	731.7027	920.1457	956.7366	1002.4267	1020.1596	1048.2658	1050.4862	1054.5973	1082.1717	1123.0927	1146.9586	1185.3633	1217.1308	1364.4996	1385.1398	1409.8916	1413.0086	1468.691	1475.3291	1476.9655	1479.4699	1505.1143	1804.262	2374.1802	3028.9113	3044.2166	3089.9778	3093.5988	3099.6695	3111.1833	3124.6015	3160.1319	3191.4449
CC#CC1CN1C(C)=O	CC#C[C@H]1CN1C(=O)C	
InChI=1S/C7H9NO/c1-3-4-7-5-8(7)6(2)9/h7H,5H2,1-2H3	InChI=1S/C7H9NO/c1-3-4-7-5-8(7)6(2)9/h7H,5H2,1-2H3/t7-,8?/m0/s1
