14
gdb 77652	2.22058	1.48271	1.31656	4.3554	64.32	-0.2579	-0.0183	0.2396	1021.5111	0.099008	-473.769673	-473.761268	-473.760324	-473.802678	30.618	
O	 0.0043234158	 1.3689178316	 0.0767632717	-0.423693
C	-0.0819635608	-0.0128343434	 0.0584472997	-0.002915
C	-1.37433423	-0.7858200675	 0.0650276904	 0.230586
O	-1.7234800776	-1.786898018	 0.925309863	-0.430373
C	-2.3878679031	-0.0917523619	-0.8293011033	-0.147289
O	-1.4153923833	 0.0319142661	-1.9130687966	-0.326235
C	-0.4569994226	-0.7598779932	-1.202962156	 0.21011
C	 0.3293149609	-1.7205696418	-1.893619027	 0.215028
N	 0.9800745366	-2.519584995	-2.4217276498	-0.344688
H	-0.3402216775	 1.681706141	-0.771440946	 0.307651
H	 0.7113881393	-0.4887023774	 0.6321344196	 0.133979
H	-1.2600644607	-1.6696184033	 1.7614863633	 0.307525
H	-3.2085659688	-0.7486328066	-1.1302518306	 0.143315
H	-2.7671382183	 0.8799358494	-0.4985088385	 0.127
98.8487	149.2803	164.3965	208.5579	246.9484	293.8732	363.8084	404.1095	451.7998	524.3175	548.0739	604.7753	664.4992	730.1056	789.8606	840.8983	960.1752	1016.6276	1045.5772	1088.6824	1106.2042	1148.2518	1184.7919	1254.3129	1275.5326	1317.9701	1368.2527	1401.6118	1475.3095	1513.1855	2340.2407	3052.6306	3114.3077	3144.8993	3752.2484	3814.7305
OC1C2(O)COC12C#N	O[C@H]1[C@@]2(O)CO[C@@]12C#N	
InChI=1S/C5H5NO3/c6-1-5-3(7)4(5,8)2-9-5/h3,7-8H,2H2	InChI=1S/C5H5NO3/c6-1-5-3(7)4(5,8)2-9-5/h3,7-8H,2H2/t3-,4-,5-/m0/s1
