18
gdb 44145	3.48761	1.10055	1.03283	2.6075	77.21	-0.2403	-0.0236	0.2167	1219.3956	0.147801	-401.899576	-401.891747	-401.890802	-401.932549	30.146	
O	 0.0931196991	 0.0076922184	-0.1365679151	-0.307447
C	 0.0489771227	 1.193212737	 0.0236254261	 0.407698
C	-1.0829331045	 2.2396864139	 0.0488696313	-0.2939
N	-0.063024392	 3.3377944974	-0.1100688036	-0.144419
C	 0.8051155784	 3.2879945194	 1.0695061705	 0.001882
C	 0.3713112248	 2.9524416528	 2.4623907591	-0.008715
C	 1.2533336035	 3.3850275355	 3.6110479902	-0.277749
C	-0.0638861639	 4.0736024649	 3.3806294821	-0.267503
C	 1.0684422254	 2.2936597652	-0.0195756616	-0.195227
H	-1.7002402278	 2.1652690054	-0.8504658892	 0.142393
H	-1.7252684769	 2.3221203435	 0.9281072974	 0.132262
H	 1.5049197882	 4.1233978702	 1.0416866146	 0.104913
H	-0.1305666794	 2.0011293512	 2.5959561943	 0.103669
H	 1.3488119721	 2.7130362212	 4.4559707616	 0.12182
H	 2.1610847566	 3.9297244564	 3.3730265362	 0.118515
H	-0.0481605507	 5.0827579876	 2.9830372383	 0.123277
H	-0.8785839111	 3.879424315	 4.0689176799	 0.119817
H	 1.9627360955	 2.3186179549	-0.6328476022	 0.118715
61.1646	94.0148	192.1878	250.7295	319.2578	422.2675	451.6516	524.4378	578.5297	654.6246	738.2934	777.3525	797.4207	833.6838	865.459	884.0902	941.2844	955.2026	967.9639	1008.2197	1025.1294	1059.068	1063.2404	1083.7186	1108.6494	1135.201	1141.8123	1196.7216	1200.0792	1227.9638	1240.7352	1258.3711	1307.3379	1339.9563	1461.025	1469.0076	1471.3696	1506.1275	1889.2048	3069.8115	3107.1417	3127.1391	3134.4183	3138.7755	3174.3221	3179.8564	3214.0124	3229.0356
O=C1CN2C(C3CC3)C12	O=C1CN2[C@@H](C3CC3)[C@@H]12	
InChI=1S/C7H9NO/c9-5-3-8-6(7(5)8)4-1-2-4/h4,6-7H,1-3H2	InChI=1S/C7H9NO/c9-5-3-8-6(7(5)8)4-1-2-4/h4,6-7H,1-3H2/t6-,7+,8?/m0/s1
