19
gdb 116971	13.30779	0.39387	0.38619	1.4028	88.75	-0.249	0.0422	0.2912	2699.5415	0.156015	-385.827217	-385.816186	-385.815242	-385.866126	37.562	
O	-0.0911510791	 1.4661325462	 0.0113958813	-0.415141
C	 0.0367243619	 0.0545772473	 0.0021431122	-0.062561
C	-1.3836436441	-0.5222113451	 0.0122822458	-0.324435
C	-1.3934297167	-1.9796215478	 0.0040987535	 0.076357
C	-1.3617468504	-3.1838365602	-0.0028757571	 0.043542
C	-1.3759328122	-4.6415927824	-0.0101261845	-0.347645
C	-2.8186800229	-5.2154521678	 0.0011119441	-0.338114
C	-2.8336278633	-6.6721677262	-0.0060507829	 0.293984
C	-2.8107652152	-7.8739377349	-0.012681137	-0.439215
H	 0.790474612	 1.8494313667	 0.0050205485	 0.289138
H	 0.56856399	-0.3015934661	-0.8926252199	 0.097965
H	 0.5853402799	-0.3117122683	 0.882584722	 0.097962
H	-1.9048973795	-0.1378707765	 0.897539735	 0.135892
H	-1.9214795813	-0.1279071357	-0.8585575655	 0.135883
H	-0.8518829451	-5.0237628282	-0.8939290508	 0.13866
H	-0.8346886611	-5.0326867036	 0.8592932382	 0.138678
H	-3.3449847511	-4.8379170382	 0.88515302	 0.14165
H	-3.3621626749	-4.8290205259	-0.8685809945	 0.141666
H	-2.8078660267	-8.9356380334	-0.0190167985	 0.195736
10.5625	53.5048	54.0388	96.3289	135.4519	178.8519	228.9864	240.4326	342.5734	348.7752	404.1489	452.91	496.6783	528.7836	619.4877	648.0889	766.0686	794.7658	817.2805	964.4708	1000.6381	1008.2439	1034.8507	1080.5045	1088.3737	1163.3871	1194.4377	1221.4903	1237.9951	1283.6339	1303.4961	1305.6343	1333.0646	1365.8878	1453.2946	1472.4074	1479.8838	1483.4352	1527.7332	2239.279	2369.6287	2983.867	3014.7518	3030.0769	3031.3216	3042.1888	3058.9998	3067.2685	3081.6718	3506.9639	3835.8547
OCCC#CCCC#C	OCCC#CCCC#C	
InChI=1S/C8H10O/c1-2-3-4-5-6-7-8-9/h1,9H,3-4,7-8H2	InChI=1S/C8H10O/c1-2-3-4-5-6-7-8-9/h1,9H,3-4,7-8H2
