16
gdb 8349	5.17624	1.29003	1.25676	2.9518	65.57	-0.2431	-0.026	0.2171	991.0781	0.128982	-383.679348	-383.671991	-383.671047	-383.711961	26.969	
O	-0.5082980239	 0.6656886038	 0.6844930129	-0.239537
C	 0.1154580279	 1.0137188741	-0.2843652715	 0.15676
C	 1.3711970299	 1.8659926845	-0.2291485756	-0.414048
C	 1.3206332382	 3.0188205685	-1.1956614311	 0.404919
C	 0.2463325778	 4.1292365108	-1.3757368283	-0.252409
C	 1.2329651351	 4.1748672534	-2.5623611836	 0.055366
C	 2.4213977214	 4.0420935858	-1.581532741	-0.262487
O	 1.1695196255	 2.6956038263	-2.643114468	-0.343922
H	-0.191963492	 0.7204866036	-1.3106836934	 0.103464
H	 1.5195611157	 2.2199811552	 0.7950031141	 0.130845
H	 2.2231142966	 1.2274477246	-0.502454551	 0.136657
H	-0.756003708	 3.7738408085	-1.61826343	 0.112991
H	 0.2466001836	 4.9623634555	-0.668621918	 0.100811
H	 1.166569743	 4.7289607238	-3.4975694786	 0.101754
H	 2.6207822813	 4.8683486913	-0.8945362567	 0.099355
H	 3.3266349579	 3.6060195202	-2.0059581602	 0.109482
53.3782	69.6089	167.4192	294.1049	367.0822	451.9577	521.8687	596.7754	655.9473	713.7043	793.7143	810.4521	899.1746	908.2569	938.5582	981.5247	985.3375	1020.1638	1048.7337	1097.6583	1115.7219	1128.3863	1161.9226	1211.661	1216.6071	1234.2154	1250.5101	1292.652	1349.9959	1424.8831	1441.7582	1467.4159	1513.1259	1833.653	2913.6556	3022.1541	3061.4772	3069.5479	3103.703	3131.784	3145.7146	3150.4606
O=CCC12CC(C1)O2	O=CC[C@@]12C[C@@H](C1)O2	
InChI=1S/C6H8O2/c7-2-1-6-3-5(4-6)8-6/h2,5H,1,3-4H2	InChI=1S/C6H8O2/c7-2-1-6-3-5(4-6)8-6/h2,5H,1,3-4H2/t5-,6+
