19
gdb 17678	3.78973	1.47845	1.26407	2.4695	71.59	-0.245	0.0768	0.3218	1032.9276	0.16402	-365.01747	-365.008784	-365.00784	-365.050743	31.959	
C	 0.0570236993	 1.1486500851	-0.4595928279	-0.401837
C	 0.3035874245	-0.2090955099	 0.1534878123	-0.028334
N	 1.6878301794	-0.5547250557	 0.5083258263	-0.369961
C	 0.6909067196	-0.4488344518	 1.5809321779	 0.302732
C	 0.9085053482	 0.6765943564	 2.5735561855	-0.466996
C	 0.1801790208	-1.7085831433	 2.2280789844	 0.038752
C	 0.2365608212	-3.0453062671	 1.6278837467	-0.204913
O	 1.154220458	-2.6747694186	 2.6563474368	-0.236271
H	 0.7093526862	 1.909099767	-0.0262936419	 0.129065
H	 0.2541192314	 1.1185158264	-1.5367112564	 0.122253
H	-0.984202989	 1.4580976128	-0.3176550176	 0.115803
H	-0.3001461832	-1.0041251986	-0.2848091477	 0.075543
H	 1.9129105795	-1.5249828479	 0.3052842843	 0.232313
H	 1.3299729664	 1.5575566028	 2.0881886309	 0.129375
H	-0.0316014794	 0.9609345874	 3.0599547358	 0.112505
H	 1.6086795026	 0.3571359092	 3.3528491478	 0.133836
H	-0.603662026	-1.5355804538	 2.9681653459	 0.091261
H	-0.5111941816	-3.7875866098	 1.9051191732	 0.117826
H	 0.672005222	-3.1916481405	 0.6393566535	 0.107048
53.5448	160.5882	167.1413	178.4995	220.6057	272.5681	313.9218	367.2167	473.4568	482.0151	571.2197	683.3945	787.1822	831.5673	843.0224	907.2695	955.9381	981.4635	1000.9717	1027.4762	1073.7074	1090.6835	1094.1057	1120.0122	1154.1628	1166.566	1171.5441	1228.5332	1275.1821	1297.4938	1338.9696	1404.0589	1417.4629	1442.0038	1460.4477	1480.7197	1489.1906	1497.8199	1511.121	1535.4689	3034.5216	3037.5169	3075.4552	3089.8388	3094.7729	3096.079	3099.096	3132.8099	3143.4232	3156.0704	3508.3397
CC1NC1(C)C1CO1	C[C@H]1N[C@]1(C)[C@H]1CO1	
InChI=1S/C6H11NO/c1-4-6(2,7-4)5-3-8-5/h4-5,7H,3H2,1-2H3	InChI=1S/C6H11NO/c1-4-6(2,7-4)5-3-8-5/h4-5,7H,3H2,1-2H3/t4-,5-,6+/m1/s1
