17
gdb 46103	3.06978	1.12293	0.90073	4.9887	73.84	-0.2712	0.014	0.2852	1271.4964	0.137304	-418.048908	-418.040624	-418.03968	-418.082707	30.233	
N	 0.0889848758	 1.1727297374	 0.1716775315	-0.533048
C	 0.0567825016	-0.0810975808	 0.0597595363	 0.418884
C	-1.0137454555	-0.888657025	-0.6428502639	-0.304356
C	-0.7922270862	-2.3102841064	-0.1078553026	-0.255504
C	 0.7027493892	-2.2995866194	 0.2674100312	 0.105132
C	 1.6117384421	-2.8007300237	-0.8731809727	-0.355657
C	 3.0323074366	-2.7098960466	-0.5453802082	 0.271364
N	 4.1549372314	-2.6531806036	-0.2799009285	-0.296499
O	 1.0084372578	-0.9325009906	 0.568324177	-0.236517
H	 0.9261037343	 1.4712932373	 0.6749662211	 0.230197
H	-2.004049451	-0.4814064989	-0.4395837792	 0.146547
H	-0.8540631175	-0.828924918	-1.725029995	 0.136658
H	-1.3910346458	-2.4800004786	 0.7907753825	 0.127515
H	-1.0379717528	-3.0951916528	-0.8263276837	 0.116071
H	 0.9134874994	-2.8795538027	 1.1694655692	 0.115003
H	 1.3687082683	-3.8468574282	-1.0917798873	 0.156876
H	 1.4192121424	-2.2247692696	-1.7854543479	 0.157334
60.3878	100.314	112.8322	162.7816	319.5209	380.2572	398.3591	452.812	514.6229	549.2441	648.1963	706.6611	811.2807	831.5447	899.9243	906.5536	931.6094	943.9368	1001.0544	1004.8782	1057.9165	1084.1834	1099.4683	1168.6236	1223.6771	1242.3925	1269.6114	1294.699	1315.0172	1334.9463	1381.2328	1402.0243	1456.9908	1475.5963	1498.9282	1787.3854	2368.4895	3044.1722	3056.2703	3067.9511	3077.4559	3094.3294	3117.0173	3137.0918	3477.1153
N=C1CCC(CC#N)O1	[NH][C]1CC[C@@H](CC#N)O1	
InChI=1S/C6H8N2O/c7-4-3-5-1-2-6(8)9-5/h5,8H,1-3H2	InChI=1S/C6H8N2O/c7-4-3-5-1-2-6(8)9-5/h5,8H,1-3H2/t5-/m0/s1
