19
gdb 107090	2.45878	1.30532	1.00836	1.4811	81.79	-0.2528	0.0478	0.3006	1227.4248	0.158132	-385.822361	-385.813469	-385.812524	-385.856059	34.149	
O	 0.3528149095	 0.6119257165	-0.9500469822	-0.413948
C	-0.2431900912	 0.3637491631	 0.315022766	-0.173307
C	-1.5070248409	-0.4368854037	 0.2113784062	 0.347347
C	-2.0165202019	-1.3335573813	 1.3029439961	-0.355241
C	-1.6795527506	-1.9441410101	-0.0289352889	-0.101516
C	-2.8165088346	-1.6804979806	-1.039761815	-0.169992
C	-2.6376102129	-0.1339779276	-0.782075647	-0.306361
C	-2.5192089863	-2.0956724061	-2.3968269779	 0.297768
C	-2.2441831834	-2.4356514349	-3.517482484	-0.447215
H	 0.4508635585	-0.2388284535	-1.3922426997	 0.282871
H	 0.45665502	-0.1436698972	 0.999701121	 0.084441
H	-0.447146125	 1.3541651495	 0.7397506757	 0.112736
H	-1.3102821224	-1.5529981459	 2.0982782005	 0.114341
H	-3.0508238518	-1.2649434444	 1.6341655612	 0.107356
H	-0.9311959375	-2.7202555757	-0.1375644217	 0.095616
H	-3.7873208644	-2.0847477402	-0.7296545674	 0.10004
H	-3.5109223603	 0.3908437637	-0.3825851946	 0.097683
H	-2.2775176978	 0.3793934274	-1.6734780899	 0.132481
H	-2.018901927	-2.738455509	-4.5099040682	 0.194901
59.7438	113.997	169.4652	198.3515	275.0428	305.9716	374.5255	403.8233	469.5935	493.7073	526.7823	617.6062	629.8856	642.2351	744.1038	818.7341	825.7227	877.0553	936.1524	964.8596	998.041	1004.1103	1035.0038	1053.0612	1069.4059	1086.1058	1109.09	1143.3445	1191.4612	1212.7702	1245.6892	1258.1386	1290.5552	1339.9704	1363.7086	1396.4627	1432.0236	1478.9291	1497.3039	1500.1208	2233.2362	2966.5396	3031.2395	3052.204	3055.6655	3101.1848	3140.2432	3181.3463	3194.145	3504.6998	3798.9812
OCC12CC1C(C2)C#C	OC[C@]12C[C@H]1[C@@H](C2)C#C	
InChI=1S/C8H10O/c1-2-6-3-8(5-9)4-7(6)8/h1,6-7,9H,3-5H2	InChI=1S/C8H10O/c1-2-6-3-8(5-9)4-7(6)8/h1,6-7,9H,3-5H2/t6-,7+,8+/m1/s1
