21
gdb 64497	3.45125	1.29683	1.15971	1.2685	83.03	-0.2559	0.0718	0.3277	1151.5639	0.183449	-387.0184	-387.010371	-387.009427	-387.050988	32.804	
O	 0.1601282274	 1.3918826354	 0.0878799683	-0.485825
C	 0.2056231535	-0.0248608612	 0.143645219	 0.440737
C	 1.2649040256	-0.5494989377	-0.8065629746	-0.057393
C	 1.4010234125	 0.0367852814	-2.1904264599	-0.256935
C	 2.4852671196	 0.2678088693	-1.1698303618	-0.290716
C	 0.0274472747	-0.6837651505	 1.5622439069	-0.12092
C	-1.4081875294	-0.0742354013	 1.5801079596	-0.230914
C	-1.2212741849	-0.6609027786	 0.1459731124	-0.075728
C	-0.6084509187	-1.9105924818	 0.8436882664	-0.240676
H	 0.9565776959	 1.7297754316	 0.509370525	 0.280768
H	 1.4557955528	-1.6131048781	-0.7396424254	 0.085469
H	 1.5967509624	-0.6356528517	-3.0181567989	 0.106662
H	 0.7684645018	 0.8841726909	-2.4271084228	 0.125375
H	 2.5869779634	 1.2738340425	-0.7785866894	 0.096732
H	 3.427205305	-0.258354487	-1.2787154645	 0.10967
H	 0.7543019005	-0.7003043556	 2.3776686603	 0.062707
H	-2.1316014497	-0.5951464977	 2.2117872331	 0.085181
H	-1.4898091909	 1.0065292699	 1.6635791654	 0.108575
H	-1.9373362856	-0.6464339013	-0.6770939438	 0.070088
H	 0.0327194776	-2.5729952251	 0.2627239208	 0.093795
H	-1.3075567337	-2.4903963037	 1.4503721338	 0.093348
54.3062	159.5216	236.2975	279.0406	323.7327	368.7335	432.9074	467.044	544.7006	585.5549	684.5701	779.7834	788.066	801.3388	828.1568	889.0485	894.9754	899.8417	908.6961	950.6033	999.0047	1014.1499	1021.6803	1051.7859	1060.2441	1073.6103	1084.9487	1087.7408	1109.1428	1135.128	1146.0191	1182.4124	1195.3718	1197.9272	1209.1866	1229.8218	1247.0755	1249.3078	1261.2959	1322.816	1414.8722	1458.4575	1494.1207	1503.5345	1540.4185	3071.0996	3071.3689	3086.8511	3104.6267	3133.7739	3135.1124	3140.4892	3168.5648	3183.7428	3212.4857	3232.8775	3816.91
OC1(C2CC2)C2CC1C2	O[C@@]1(C2CC2)[C@H]2C[C@@H]1C2	
InChI=1S/C8H12O/c9-8(5-1-2-5)6-3-7(8)4-6/h5-7,9H,1-4H2	InChI=1S/C8H12O/c9-8(5-1-2-5)6-3-7(8)4-6/h5-7,9H,1-4H2/t6-,7+,8-
