21
gdb 78304	2.95287	1.42397	1.19029	1.2398	82.17	-0.242	0.0771	0.3191	1132.7507	0.183923	-387.055266	-387.047446	-387.046502	-387.086886	32.804	
C	 0.0153330852	 1.5072107787	 0.051081011	-0.42641
C	-0.0285609704	-0.006346372	 0.0071664379	-0.035684
C	 1.2656784216	-0.7379047363	-0.2679042474	-0.038109
C	 0.6542712949	-0.7588967087	 1.1235313362	-0.065703
C	 0.4497347822	-2.2732170868	 1.2947110515	 0.398372
O	-0.1110179487	-2.617280694	 2.5214347468	-0.488258
C	 1.8428418194	-2.8058670998	 0.7771052632	-0.273919
C	 1.2761785917	-2.2508453853	-0.573369565	-0.057826
C	-0.1070408015	-2.7563397872	-0.074745357	-0.304923
H	 0.9612326994	 1.8657390325	 0.4711698935	 0.113786
H	-0.0859847927	 1.934754862	-0.9524858328	 0.116033
H	-0.7951130392	 1.9071204803	 0.6700678194	 0.119566
H	-0.954108773	-0.3974006785	-0.4018386266	 0.081084
H	 2.1563586609	-0.1606866526	-0.4932948039	 0.08106
H	 1.0756079995	-0.2174745993	 1.9635085155	 0.085356
H	-0.17979449	-3.5764605063	 2.5640297423	 0.277558
H	 2.7457626485	-2.340419221	 1.1811520318	 0.090129
H	 1.9244451923	-3.8977696217	 0.8000604623	 0.080201
H	 1.6756681653	-2.573246142	-1.5335810712	 0.064205
H	-0.1627920482	-3.8477010309	-0.1148376895	 0.084391
H	-1.027741747	-2.332452311	-0.475567438	 0.099092
192.6887	220.9294	224.0055	273.8955	318.5706	366.1069	416.9588	436.0713	503.9717	583.297	599.0996	670.9864	787.2959	814.2171	827.8836	851.16	912.7046	918.7381	939.0735	981.0346	993.828	1000.9909	1017.2776	1024.3471	1066.4597	1094.4819	1110.2128	1117.1528	1130.5954	1141.4323	1161.4914	1202.6894	1214.5395	1223.5369	1253.3289	1282.9326	1296.401	1318.4368	1390.3363	1415.4658	1431.1436	1487.618	1495.6754	1501.4133	1534.1288	3026.9199	3042.0802	3067.7994	3091.4535	3094.2996	3109.2561	3124.4983	3125.3042	3158.434	3160.5315	3171.5878	3816.1416
CC1C2C1C1(O)CC2C1	C[C@H]1[C@H]2[C@@H]1[C@]1(O)C[C@H]2C1	
InChI=1S/C8H12O/c1-4-6-5-2-8(9,3-5)7(4)6/h4-7,9H,2-3H2,1H3	InChI=1S/C8H12O/c1-4-6-5-2-8(9,3-5)7(4)6/h4-7,9H,2-3H2,1H3/t4-,5-,6+,7+,8-/m0/s1
