14
gdb 131094	3.31344	1.1508	1.06137	2.0812	69.55	-0.2641	-0.0268	0.2373	1144.6345	0.099853	-436.63048	-436.622334	-436.62139	-436.664017	29.481	
O	-0.1990784822	 1.3564234712	 0.0875723649	-0.400123
C	 0.0110562244	-0.0445815801	-0.0235050624	-0.177072
C	 0.7697642884	-0.4017031364	-1.228602769	 0.30999
C	 1.4008034122	-0.6720271408	-2.214242419	-0.44537
C	 0.6615260833	-0.6013227359	 1.2155910471	 0.462278
C	 0.2730993702	-1.5007977954	 2.1567738676	-0.352512
C	 1.3650230456	-1.5129112841	 3.0662409428	 0.040929
N	 2.3203173503	-0.6918315325	 2.7082064154	-0.133682
O	 1.8751865594	-0.1113072384	 1.522072859	-0.220221
H	 0.6689343935	 1.7758110219	 0.126765764	 0.299517
H	-0.9910155129	-0.4819487715	-0.087674182	 0.14011
H	 1.9574052678	-0.9141299535	-3.0861642695	 0.208783
H	-0.644435466	-2.0628910698	 2.1995337374	 0.128413
H	 1.484732206	-2.0902234849	 3.9721775237	 0.13896
46.6888	100.3576	167.4324	200.6833	279.0935	351.9938	404.246	448.8142	580.3292	646.641	647.4436	681.2744	732.5525	760.8692	818.8869	918.3739	927.4106	936.6838	950.1936	1021.5843	1051.9549	1055.0185	1206.7498	1240.9158	1271.9707	1297.3886	1390.3027	1418.1729	1508.8523	1635.318	2238.4364	3063.5298	3246.4433	3283.4179	3501.6569	3798.7345
OC(C#C)C1=CC=NO1	O[C@@H](C#C)c1ccno1	
InChI=1S/C6H5NO2/c1-2-5(8)6-3-4-7-9-6/h1,3-5,8H	InChI=1S/C6H5NO2/c1-2-5(8)6-3-4-7-9-6/h1,3-5,8H/t5-/m0/s1
