16
gdb 42896	2.78858	1.61563	1.256	2.8359	69.09	-0.2496	-0.0354	0.2141	1001.382	0.124198	-437.824591	-437.81711	-437.816166	-437.856937	27.917	
O	-0.1643267395	 0.030546685	-0.157435368	-0.309708
C	-0.1294696325	 1.213748246	 0.0189869656	 0.368806
C	-1.1335073782	 2.3250583906	-0.0416360235	-0.165633
C	-0.8487695045	 3.2889405795	 1.0612866777	-0.242004
N	 0.0091873815	 3.3508590126	-0.1168986268	-0.149671
C	 1.0108609097	 2.2463355422	 0.0758066261	 0.140251
C	 2.1300108449	 2.3561959284	 1.124889658	-0.126108
O	 3.1504159556	 2.2176907705	 0.1202304789	-0.269773
C	 2.16883817	 2.1335214568	-0.93245655	-0.132712
H	-2.0251061293	 2.3790711817	-0.6547642213	 0.130491
H	-1.5323559256	 4.1274210662	 1.1525058949	 0.142675
H	-0.4414219842	 2.9306832151	 2.0043422663	 0.132109
H	 2.1668985466	 3.3297267176	 1.6311782774	 0.113332
H	 2.1698638147	 1.5509743716	 1.8678901181	 0.119226
H	 2.2209489687	 1.1805806581	-1.4708313133	 0.125528
H	 2.2251471123	 2.9734490781	-1.6337306702	 0.123192
85.1222	132.4933	180.3652	237.413	272.4417	399.7534	504.4272	578.2041	643.1775	698.3119	770.7517	802.965	854.8903	906.76	927.7178	956.0287	985.9976	1033.1173	1045.8883	1073.9397	1088.3872	1119.4536	1146.2226	1162.1696	1165.5771	1208.274	1217.2389	1244.4574	1299.6863	1305.5475	1371.995	1493.3569	1503.8389	1518.1668	1890.1754	3009.9222	3030.2602	3062.0534	3084.6321	3107.5197	3194.0235	3203.8252
O=C1C2CN2C11COC1	O=C1[C@H]2CN2C21COC2	
InChI=1S/C6H7NO2/c8-5-4-1-7(4)6(5)2-9-3-6/h4H,1-3H2	InChI=1S/C6H7NO2/c8-5-4-1-7(4)6(5)2-9-3-6/h4H,1-3H2/t4-,7?/m1/s1
