14
gdb 34223	3.99585	1.43455	1.41816	4.4566	65.28	-0.2655	0.0016	0.267	919.4399	0.103183	-436.681085	-436.674919	-436.673975	-436.711685	24.698	
N	 0.0324008347	-1.0848857921	-0.0253145549	-0.340778
C	-0.0093119048	 0.0704849755	 0.0097354306	 0.191363
C	-0.0146092032	 1.4935422896	 0.0197212664	 0.337353
O	-1.0194607528	 2.1478385348	 0.7683062554	-0.279531
C	-0.6813764481	 3.4898315843	 0.4212418799	 0.132637
C	 0.8025277609	 3.5974916671	 0.8271657363	-0.239953
C	 1.2267831897	 2.4028299847	-0.012698431	-0.21743
C	 0.2558014986	 2.410460727	-1.1745720801	 0.003598
O	-0.6363486567	 3.4837456388	-1.0039165247	-0.239959
H	-1.4211119999	 4.1907271022	 0.7946150106	 0.11888
H	 1.2535286853	 4.5349888449	 0.4965386161	 0.129354
H	 0.9483283837	 3.4547033992	 1.8988259817	 0.131681
H	 2.2293724511	 2.0062863967	-0.0737502843	 0.12907
H	 0.4342351116	 2.0932211673	-2.190565972	 0.143715
146.2424	167.9754	423.5447	479.8191	511.9135	534.3979	594.6441	620.4254	724.3536	738.0235	835.0995	857.4433	883.5313	893.7546	932.9153	968.0499	981.3814	1014.7587	1043.8228	1043.8865	1088.8499	1129.9677	1157.4999	1206.9063	1234.7029	1293.6004	1311.7609	1331.9934	1392.044	1474.8194	2359.2541	3086.1348	3147.4593	3194.5565	3236.4248	3250.3121
N#CC12OC3CC1C2O3	N#C[C@@]12O[C@H]3C[C@@H]1[C@@H]2O3	
InChI=1S/C6H5NO2/c7-2-6-3-1-4(9-6)8-5(3)6/h3-5H,1H2	InChI=1S/C6H5NO2/c7-2-6-3-1-4(9-6)8-5(3)6/h3-5H,1H2/t3-,4+,5+,6-/m1/s1
