19
gdb 26657	2.22847	1.59501	0.94671	0.9564	81.2	-0.1779	0.0377	0.2156	1248.9257	0.158829	-419.24436	-419.234378	-419.233434	-419.278781	36.5	
C	 0.1774951664	 1.4477811186	 0.0302044698	-0.492097
C	-0.0407330093	-0.0237104889	 0.0140313378	 0.256536
C	-1.1621181211	-0.8010983568	 0.0499208541	 0.135267
C	-2.595013962	-0.3800525012	 0.143206683	-0.518744
C	-0.6956392525	-2.1645678235	-0.0106630017	 0.129937
N	-1.4973839109	-3.3121186595	 0.082403407	-0.613511
C	 0.6621313154	-2.1174004557	-0.0800976951	 0.192721
N	 1.596243619	-3.1537148048	-0.1410517842	-0.605003
O	 1.0783632864	-0.7972421649	-0.0532587017	-0.217487
H	 0.8209106921	 1.7480375645	 0.86542478	 0.133284
H	 0.6594469221	 1.7951554014	-0.8917339633	 0.131844
H	-0.7745219353	 1.9734696017	 0.1301299529	 0.129394
H	-3.1597223377	-0.6382894393	-0.7626392381	 0.117538
H	-3.0973104677	-0.8755598549	 0.9823413118	 0.134719
H	-2.691865394	 0.6993952868	 0.2860499447	 0.122245
H	-2.3018340643	-3.2775074967	-0.5327919607	 0.237139
H	-0.9530077522	-4.1424329983	-0.1236369845	 0.244918
H	 2.1734945132	-3.2173507735	 0.6930312191	 0.241204
H	 2.2180784221	-3.0709202948	-0.9398249908	 0.240095
96.0351	126.9102	141.5125	174.264	229.5161	235.1716	268.3059	276.1065	309.6378	334.8327	354.0846	532.743	584.1178	610.5908	623.1437	685.3135	733.5472	797.7494	815.3822	862.5317	984.8012	1004.087	1057.043	1065.3542	1134.4573	1154.4721	1210.5224	1225.9865	1292.6425	1329.8025	1411.1041	1423.4782	1466.9327	1471.8703	1480.856	1490.8676	1501.5281	1635.6979	1644.3432	1664.5394	1736.4322	3014.0496	3024.577	3063.072	3071.386	3110.3561	3126.6215	3477.2665	3511.205	3538.683	3602.2153
CC1=C(C)C(N)=C(N)O1	Cc1c(C)c(N)c(N)o1	
InChI=1S/C6H10N2O/c1-3-4(2)9-6(8)5(3)7/h7-8H2,1-2H3	InChI=1S/C6H10N2O/c1-3-4(2)9-6(8)5(3)7/h7-8H2,1-2H3
