18
gdb 91988	2.7208	1.53288	1.23547	3.3463	75.18	-0.2372	0.0281	0.2653	1045.408	0.150582	-398.114932	-398.107034	-398.10609	-398.147184	30.676	
N	-0.1693157364	 1.2395270647	 1.0692562304	-0.504376
C	-0.0693558643	 0.1108131796	 0.1442326795	-0.041573
C	 0.8600340127	-0.9924229939	 0.7131359207	-0.159105
N	 0.0569753156	-1.9974437767	 1.4303636602	-0.102271
C	-0.8733713535	-1.4364538735	 2.4286613112	-0.243606
C	-1.3478522725	-1.7743088893	 1.0638049775	-0.039775
C	-1.431970783	-0.6496315769	 0.027133408	-0.143495
C	-2.6008189633	 0.2143823137	 0.1588441477	 0.278324
N	-3.5184172911	 0.9118911886	 0.2498508337	-0.337479
H	 0.7325763819	 1.6983003776	 1.1485804557	 0.234141
H	-0.827176101	 1.9316867429	 0.722015302	 0.247929
H	 0.2586114641	 0.4067411534	-0.8635364106	 0.078218
H	 1.3718772234	-1.5079244636	-0.1066899472	 0.111432
H	 1.6238068041	-0.5709090759	 1.3741314315	 0.112646
H	-1.1031546391	-2.1154293305	 3.2445099303	 0.118684
H	-0.7835513713	-0.3873221832	 2.6880455122	 0.154784
H	-1.9645041473	-2.650184841	 0.8867927378	 0.105543
H	-1.480073819	-1.1103382261	-0.9667380707	 0.129979
105.3564	144.8914	206.6945	274.4629	304.678	383.2958	396.5971	407.6236	511.6357	567.3896	668.753	739.9911	761.0062	806.6444	851.306	889.7048	898.3468	967.49	997.4795	1021.6067	1033.2275	1058.9958	1119.7726	1135.194	1139.3303	1175.6658	1201.5235	1254.3106	1272.5883	1282.0245	1317.7323	1339.9148	1357.507	1389.0441	1399.3211	1486.2415	1502.2684	1655.4885	2354.1421	2973.0307	3041.2408	3046.0635	3091.0662	3120.089	3155.1095	3222.3179	3494.2442	3575.2989
NC1CN2CC2C1C#N	N[C@H]1CN2C[C@H]2[C@H]1C#N	
InChI=1S/C6H9N3/c7-1-4-5(8)2-9-3-6(4)9/h4-6H,2-3,8H2	InChI=1S/C6H9N3/c7-1-4-5(8)2-9-3-6(4)9/h4-6H,2-3,8H2/t4-,5-,6-,9?/m0/s1
