19
gdb 41505	2.96231	1.53556	1.06525	1.3696	85.45	-0.2149	-0.0258	0.1891	1126.0822	0.161664	-385.882864	-385.875421	-385.874477	-385.914656	29.599	
C	 0.0695286973	 1.5091765838	 0.2124863538	-0.16603
O	 1.3960814907	 1.4829148758	-0.3760910066	-0.308976
C	 1.2459256666	 0.0859269039	-0.7574882456	 0.077783
C	 2.3280881256	-0.8540113544	-0.2506135664	-0.236961
C	 2.0431850458	-2.3068568635	-0.6628751392	-0.263633
C	 0.7305519704	-2.9402946205	-0.2660581619	-0.070137
C	-0.411231111	-2.4099811459	 0.2048693573	-0.062534
C	-0.7448403515	-1.0096809004	 0.4681518739	-0.240565
C	-0.04901474	 0.0219857122	 0.0004107199	 0.253896
H	 0.0782979342	 1.8671768426	 1.2501136763	 0.11715
H	-0.6210083498	 2.1349020831	-0.3714790971	 0.109668
H	 1.1444646388	-0.0010400943	-1.8505400246	 0.08333
H	 3.3029043691	-0.5520077607	-0.6503338649	 0.105577
H	 2.3827302301	-0.769298535	 0.8395359436	 0.107658
H	 2.1438643201	-2.4021874337	-1.7551486983	 0.116766
H	 2.8481753473	-2.9366419926	-0.2607291264	 0.113261
H	 0.732438284	-4.0216204838	-0.3959713685	 0.089324
H	-1.2074142838	-3.1140530023	 0.4385739872	 0.085668
H	-1.6185561739	-0.8280226942	 1.0902949975	 0.088752
109.2956	193.6319	245.5135	276.2569	318.1537	383.04	437.1117	499.5486	575.9027	698.1042	726.17	796.3438	820.56	842.0239	883.405	910.0049	969.5023	979.3315	1001.0594	1011.2563	1018.7987	1058.2684	1082.1949	1103.8845	1135.7324	1137.5835	1192.981	1225.4476	1270.7864	1295.7214	1317.6177	1336.6898	1374.2266	1384.4031	1397.1314	1442.7952	1464.3136	1493.7876	1508.341	1686.0402	1774.869	2976.3028	2992.383	2994.4669	3027.1227	3037.0343	3043.3803	3087.4194	3125.3721	3143.7046	3157.0864
C1OC2CCC=CC=C12	C1O[C@H]2CCC=CC=C12	
InChI=1S/C8H10O/c1-2-4-7-6-9-8(7)5-3-1/h1-2,4,8H,3,5-6H2	InChI=1S/C8H10O/c1-2-4-7-6-9-8(7)5-3-1/h1-2,4,8H,3,5-6H2/t8-/m0/s1
