16
gdb 125373	2.45182	1.78371	1.03907	4.3031	78.22	-0.1941	-0.019	0.1751	1095.0722	0.126223	-434.090582	-434.082496	-434.081552	-434.122933	31.014	
C	-0.0317891984	 1.5106482015	 0.0222489025	-0.474722
C	-0.0187534421	 0.012831964	 0.0101117898	 0.239175
C	-0.0533090353	-0.7135315897	-1.136581854	-0.067301
N	-0.0409208038	-2.0740149481	-1.1276037462	-0.257875
N	 0.0072304289	-2.8142408025	 0.0039467897	-0.311956
C	 0.0413490889	-2.1589106182	 1.1184328853	 0.378455
O	 0.0893017359	-2.8666440979	 2.2661794695	-0.408155
C	 0.0329614585	-0.6940534674	 1.279794163	 0.139
N	 0.0689124002	-0.0727321235	 2.4090852042	-0.552593
H	 0.8590351267	 1.8983005381	 0.5283378211	 0.143285
H	-0.0750962563	 1.922852574	-0.9896632001	 0.104268
H	-0.8870588552	 1.8822499568	 0.5969186297	 0.143452
H	-0.0928857025	-0.2605172407	-2.120814334	 0.12497
H	-0.0652922967	-2.6131066218	-1.9748363559	 0.274653
H	 0.0889989435	-3.8032164987	 2.0263563472	 0.303343
H	 0.1032699277	-0.7460146659	 3.1748759482	 0.222001
97.3079	173.1058	256.6421	283.0208	316.6887	318.9437	343.4229	476.4555	483.4765	541.5697	546.5206	561.3496	564.7076	706.0142	781.7574	864.5379	878.2011	894.2968	964.7526	1012.0749	1065.1965	1086.3256	1202.6252	1237.0451	1300.833	1343.9674	1399.3229	1417.3389	1454.0157	1464.1557	1488.014	1537.9082	1632.8927	1663.5144	1675.2168	3033.4645	3087.9902	3115.6875	3197.3864	3480.3229	3680.0485	3777.3104
CC1=CNN=C(O)C1=N	CC1=C(C(=NNC1)O)[NH]	
InChI=1S/C5H7N3O/c1-3-2-7-8-5(9)4(3)6/h2H,1H3,(H2,6,7)(H,8,9)	InChI=1S/C5H8N3O/c1-3-2-7-8-5(9)4(3)6/h6-7H,2H2,1H3,(H,8,9)
