18
gdb 65193	2.6336	1.18921	1.09046	4.6533	73.23	-0.242	-0.0224	0.2196	1200.6049	0.145539	-439.044984	-439.03597	-439.035026	-439.079311	32.89	
C	 0.8678913507	 0.4145170163	-0.3454880288	-0.467379
C	 0.1642580577	-0.4217283053	 0.7000333107	 0.40919
C	 0.9055091943	-1.4019200208	 1.5112716128	-0.216262
O	 0.5168529519	-0.1352160046	 2.0539217988	-0.267567
C	-1.3024007769	-0.6543506772	 0.4394174905	-0.090278
N	-2.1011371525	-1.3012476734	 1.4621939592	-0.335214
C	-2.4189906263	 0.0998511195	 1.1171034189	-0.127668
C	-2.1950625734	 1.1138643356	 2.1932934874	 0.162276
O	-2.7306622502	 2.1956177436	 2.178380797	-0.265043
H	 1.916103292	 0.5574070712	-0.0740722433	 0.134186
H	 0.8240790154	-0.0667551007	-1.3284725345	 0.122585
H	 0.3976540147	 1.3999053312	-0.4309416314	 0.138206
H	 0.3723280178	-2.2555131252	 1.9232629189	 0.128181
H	 1.9754859315	-1.5311021646	 1.3548292502	 0.113535
H	-1.5082570222	-0.9034152086	-0.6020313529	 0.093765
H	-2.7857039818	-1.9322752752	 1.0563027678	 0.245206
H	-3.2935647864	 0.308536312	 0.5043954883	 0.105945
H	-1.5139579862	 0.7907060363	 3.0009832703	 0.116337
54.548	71.9031	186.8302	202.35	214.2588	300.7496	313.9723	343.5982	379.6781	468.725	548.299	561.2827	710.4856	809.9955	859.2562	888.4231	919.2527	930.8428	960.957	1000.1163	1026.7692	1048.8217	1100.2161	1118.4878	1135.4235	1168.7941	1193.9691	1212.1612	1222.9171	1259.4152	1363.7361	1391.5603	1419.0522	1421.5648	1466.6952	1485.6658	1497.5753	1519.657	1812.6481	2984.424	3037.5086	3090.665	3099.5473	3104.4029	3130.2949	3139.7308	3187.2781	3519.6239
CC1(CO1)C1NC1C=O	C[C@]1(CO1)[C@H]1N[C@H]1C=O	
InChI=1S/C6H9NO2/c1-6(3-9-6)5-4(2-8)7-5/h2,4-5,7H,3H2,1H3	InChI=1S/C6H9NO2/c1-6(3-9-6)5-4(2-8)7-5/h2,4-5,7H,3H2,1H3/t4-,5-,6-/m0/s1
