13
gdb 124262	3.97296	1.27935	0.97347	2.8512	66.35	-0.2675	-0.1213	0.1461	1112.6138	0.087265	-448.885323	-448.877454	-448.87651	-448.918544	27.324	
C	-0.0392430643	 1.5096603369	 0.0102599278	-0.483866
C	 0.0397354908	 0.0063942997	 0.0039558576	 0.338193
O	 1.0746189086	-0.6206797005	-0.006954841	-0.276271
C	-1.263715663	-0.7644636112	 0.0120291442	 0.25024
C	-1.2757476004	-2.1599073721	 0.0066932052	 0.013136
N	-2.4253954268	-2.8150174596	 0.0138697125	-0.163439
N	-3.5557794481	-2.103203779	 0.0262765086	-0.040914
N	-3.549713493	-0.7910676049	 0.0313621026	-0.057246
N	-2.4101154562	-0.0993179501	 0.0243342367	-0.234145
H	 0.9692837661	 1.9224627769	 0.0034805004	 0.150134
H	-0.6041312535	 1.8626482977	-0.8584514089	 0.164629
H	-0.5897262637	 1.8560939071	 0.8907715221	 0.164645
H	-0.3581257165	-2.738226941	-0.0033602477	 0.174904
59.597	117.2465	135.3064	193.1082	298.5335	343.9114	351.4911	477.4292	600.8459	625.0175	674.5315	798.7721	843.6903	864.9825	969.0156	991.4187	1051.8173	1063.0754	1081.8706	1139.9555	1211.7049	1306.1766	1352.4378	1394.2578	1451.5539	1462.7061	1530.5926	1579.1131	1801.0261	3050.9361	3111.894	3166.4231	3204.518
CC(=O)C1=CN=NN=N1	CC(=O)c1cnnnn1	
InChI=1S/C4H4N4O/c1-3(9)4-2-5-7-8-6-4/h2H,1H3	InChI=1S/C4H4N4O/c1-3(9)4-2-5-7-8-6-4/h2H,1H3
