18
gdb 42369	2.77316	1.02789	0.78764	3.0714	78.93	-0.2416	0.0282	0.2698	1439.6123	0.145726	-401.93185	-401.922243	-401.921299	-401.968102	34.513	
O	-0.688547284	-0.087851398	-1.5312328578	-0.371207
C	-0.1770581676	 0.6990163456	-0.7605122101	 0.423305
C	 1.3595136969	 0.7161073735	-0.5836293738	-0.481187
C	 1.9096968802	 1.7134676633	 0.321175944	 0.287305
C	 2.3408258092	 2.548321251	 1.0725172901	-0.431716
N	-0.8683986859	 1.5895659371	-0.002133255	-0.33358
C	-2.2880346688	 1.744358195	-0.1081290419	 0.061549
C	-3.1859770346	 0.7069755962	 0.5081548352	-0.239102
C	-3.0554004439	 2.0681277571	 1.1453119129	-0.295987
H	 1.6399589621	-0.2927620517	-0.2598710113	 0.165
H	 1.7794112406	 0.834658582	-1.588651472	 0.165268
H	 2.7400526523	 3.2785945426	 1.7323701186	 0.203734
H	-0.3399699793	 2.2602834833	 0.5355637347	 0.256368
H	-2.6274493366	 2.1949304727	-1.0373169407	 0.106308
H	-4.1017082647	 0.4599093365	-0.0157343388	 0.12189
H	-2.7046243918	-0.1290809343	 1.0003065099	 0.125502
H	-2.4933503546	 2.1362224766	 2.0706702611	 0.11663
H	-3.8804917996	 2.7667366114	 1.068393235	 0.119919
26.4207	48.9692	98.691	113.4563	186.4303	324.6092	332.1052	374.3114	439.3114	494.8066	500.2592	620.0367	625.6363	640.7494	661.3824	768.2456	824.3871	856.2652	897.8399	948.1614	981.6989	1010.8119	1027.4427	1062.8212	1078.1443	1124.3401	1190.147	1193.1556	1215.7405	1230.5309	1276.8104	1302.7781	1400.2935	1443.5333	1462.6956	1500.6292	1534.3709	1793.0189	2231.8328	3047.3123	3081.1707	3133.6831	3137.6953	3151.0084	3220.9508	3241.6352	3502.6641	3607.2876
O=C(CC#C)NC1CC1	O=C(CC#C)NC1CC1	
InChI=1S/C7H9NO/c1-2-3-7(9)8-6-4-5-6/h1,6H,3-5H2,(H,8,9)	InChI=1S/C7H9NO/c1-2-3-7(9)8-6-4-5-6/h1,6H,3-5H2,(H,8,9)
