16
gdb 12745	3.23161	1.81147	1.48649	5.0237	68.91	-0.2341	0.0156	0.2498	893.9715	0.130941	-342.750581	-342.743086	-342.742142	-342.782245	28.151	
C	-0.0806929356	 1.547380894	-0.0196767389	-0.499207
C	 0.0302209737	 0.0531889874	 0.03991735	 0.319568
C	-0.8336346543	-0.8369408516	 0.9070406096	-0.317012
C	 0.6548404713	-0.924181851	 1.0270552868	-0.060869
N	 1.1415926139	-1.8191087509	-0.0514103355	-0.318906
C	 0.6834584776	-0.8065372887	-1.0644342868	-0.194021
C	-0.1757971832	-1.3355979298	-2.1269823626	 0.307352
N	-0.8686402946	-1.7270590477	-2.9651354204	-0.328703
H	 0.8642777465	 2.0125556738	-0.3228175011	 0.11934
H	-0.8524627855	 1.8584190758	-0.7337561523	 0.137829
H	-0.3553897205	 1.9543329423	 0.9583525462	 0.127598
H	-1.3409969852	-0.304753265	 1.7056159019	 0.117807
H	-1.3835311716	-1.6744407918	 0.4866928283	 0.135555
H	 1.2151872736	-0.7661988731	 1.9405400217	 0.103539
H	 2.1549820624	-1.8738618702	-0.0632610874	 0.231021
H	 1.5189598513	-0.2692455636	-1.5259646195	 0.119108
116.9164	132.8244	194.0103	270.196	307.3981	358.185	450.6551	532.1825	551.4009	634.4205	726.0737	814.0593	820.6203	888.5421	930.0517	968.8812	985.615	998.3496	1036.8135	1055.2544	1074.6799	1106.1805	1138.6661	1188.7186	1251.2613	1263.4145	1341.7501	1375.1755	1405.0553	1426.1113	1485.5546	1489.2926	1499.3016	2356.0401	3023.7565	3049.3891	3082.9184	3103.7739	3118.0947	3188.264	3211.2651	3525.4401
CC12CC1NC2C#N	C[C@]12C[C@H]1N[C@H]2C#N	
InChI=1S/C6H8N2/c1-6-2-4(6)8-5(6)3-7/h4-5,8H,2H2,1H3	InChI=1S/C6H8N2/c1-6-2-4(6)8-5(6)3-7/h4-5,8H,2H2,1H3/t4-,5+,6+/m1/s1
