15
gdb 125127	3.30184	1.12353	0.86478	1.8899	71.38	-0.2488	-0.0232	0.2256	1275.7081	0.11167	-453.93208	-453.923624	-453.92268	-453.966399	29.393	
C	-0.1277597908	 1.4278398117	 0.1036456822	-0.499683
C	-0.1010671474	-0.0546278864	 0.0510983024	 0.345797
C	-1.043299534	-0.9867057717	-0.2693619152	 0.119382
O	-2.3154143724	-0.7222851162	-0.6960327344	-0.216157
C	-3.3365129805	-1.3519125119	-0.0468373816	 0.106022
N	-4.5089250672	-1.2221641666	-0.4808928599	-0.42492
C	-0.3739657433	-2.2341185369	-0.1447549661	-0.04901
N	 0.8694214722	-2.0711897435	 0.2321869447	-0.13111
O	 1.0449979693	-0.6931705771	 0.3480237226	-0.207512
H	 0.5771827919	 1.8602831033	-0.6138576164	 0.156813
H	-1.1321681357	 1.7804809595	-0.138563203	 0.158151
H	 0.1458696214	 1.7908470629	 1.099441151	 0.153584
H	-2.9986936758	-1.920002761	 0.8281045839	 0.105852
H	-5.1613575833	-1.7320342891	 0.1109352281	 0.23998
H	-0.7548299343	-3.230288337	-0.3194763282	 0.142811
46.9166	104.2065	112.0858	149.5813	238.3635	247.4539	393.1418	458.4615	486.5236	640.6478	675.6942	690.5596	811.9139	829.2511	898.4638	908.1147	952.7144	1010.5952	1040.3437	1047.0675	1066.141	1168.4158	1226.7951	1266.704	1281.2404	1403.5642	1408.3477	1437.4454	1475.5806	1483.4128	1514.3474	1680.9224	1754.486	3043.0301	3052.0801	3101.2063	3140.9763	3245.0633	3525.7683
CC1=C(OC=N)C=NO1	Cc1c(O[CH][NH])cno1	
InChI=1S/C5H6N2O2/c1-4-5(8-3-6)2-7-9-4/h2-3,6H,1H3	InChI=1S/C5H6N2O2/c1-4-5(8-3-6)2-7-9-4/h2-3,6H,1H3
