16
gdb 47389	2.5123	1.47435	1.21719	5.1919	70.41	-0.2535	0.0208	0.2743	1062.0299	0.125181	-437.897299	-437.889158	-437.888214	-437.930384	30.401	
O	 0.0072656211	-0.0665269602	 0.131444313	-0.387344
C	-0.0447072977	 1.1340533308	 0.0501741019	 0.468557
N	-1.209767236	 1.8472006226	 0.1143311218	-0.359522
C	-1.3738775054	 3.2891070007	 0.0353883021	-0.157362
C	-0.0447921431	 3.9508199855	 0.3762830718	-0.233423
C	 1.0688558025	 3.25108567	-0.410238661	-0.061349
O	 1.1136698615	 1.8518653119	-0.071628349	-0.244624
C	 0.9380346842	 3.4356785342	-1.8570149462	 0.357451
C	 0.8241648134	 3.599563338	-3.0417109825	-0.476548
H	-2.0263874975	 1.2597167571	 0.1574650943	 0.259688
H	-1.693257598	 3.5941060833	-0.9704283285	 0.125371
H	-2.1512081274	 3.6033880448	 0.7398551545	 0.117201
H	-0.0690892663	 5.0151484152	 0.1311951826	 0.125691
H	 0.175099409	 3.8433241495	 1.4429184882	 0.125737
H	 2.0449418888	 3.6303213628	-0.0920989197	 0.130174
H	 0.7369125409	 3.7336057838	-4.0920908233	 0.210302
74.8095	96.1831	160.6051	217.8508	307.7673	410.1183	440.6754	480.6778	517.5695	591.5943	613.9625	645.2751	679.7782	734.1932	760.8787	796.2825	883.827	933.3947	966.3623	1010.1312	1081.3244	1101.9647	1117.502	1237.1291	1244.9431	1298.4852	1329.2499	1370.9759	1384.964	1417.5282	1469.9312	1485.2992	1527.3121	1850.1068	2237.4671	3011.5867	3054.9367	3063.2972	3071.375	3119.0329	3499.9323	3651.8847
O=C1NCCC(O1)C#C	O=C1NCC[C@@H](O1)C#C	
InChI=1S/C6H7NO2/c1-2-5-3-4-7-6(8)9-5/h1,5H,3-4H2,(H,7,8)	InChI=1S/C6H7NO2/c1-2-5-3-4-7-6(8)9-5/h1,5H,3-4H2,(H,7,8)/t5-/m0/s1
