21
gdb 97538	2.4901	0.82815	0.72451	0.6619	94.24	-0.2455	0.0382	0.2837	1716.2461	0.178314	-349.90402	-349.892672	-349.891728	-349.942337	40.606	
C	 0.3583807933	 1.357175489	 0.4186702335	-0.362526
C	-0.3580431569	 0.2097800188	-0.3169418365	-0.315322
C	 0.4264869468	-0.3378701926	-1.419466985	 0.023219
C	 1.1008600327	-0.765185407	-2.3211242361	 0.124865
C	 1.8917387921	-1.317561697	-3.4329266943	-0.125912
C	 2.164229103	-2.8248018141	-3.1795700609	-0.391727
C	 1.1106558235	-1.1452742593	-4.7635054101	-0.391729
C	 3.1756323497	-0.6040693152	-3.5303697546	 0.368398
C	 4.2325650996	-0.042767485	-3.6382259437	-0.501207
H	 1.3079804445	 1.0153945213	 0.8389553595	 0.129723
H	 0.5714376685	 2.1831350938	-0.2651371704	 0.129711
H	-0.2651890491	 1.7351533881	 1.2344164472	 0.112797
H	-0.593835347	-0.5912984734	 0.3954985747	 0.127528
H	-1.3236502514	 0.5658919426	-0.6986269728	 0.127522
H	 1.2158836091	-3.3645795267	-3.109314045	 0.121115
H	 2.7526393253	-3.2415907641	-4.0017650783	 0.121539
H	 2.7161474424	-2.9640729875	-2.2478487288	 0.132148
H	 0.9128719683	-0.0894222528	-4.9588830544	 0.132147
H	 1.69329165	-1.5528650993	-5.5943782233	 0.12154
H	 0.1561908352	-1.6752964764	-4.7024435743	 0.121115
H	 5.1624477604	 0.4632878167	-3.7201493765	 0.195054
8.275	65.8729	105.1889	160.5564	178.1461	216.8301	217.7557	239.4511	281.4142	324.5631	344.0483	443.4082	455.0337	492.317	572.2588	573.4333	628.8873	633.8363	641.1184	786.0224	812.5277	929.054	938.6213	958.8927	1036.1139	1067.3723	1098.0667	1104.2872	1138.8608	1215.4209	1266.5342	1285.934	1349.9088	1389.774	1408.6743	1412.5471	1476.3464	1478.4561	1481.7483	1492.1102	1494.2491	1505.0282	1505.7756	2235.4141	2364.9302	3018.1963	3042.7404	3044.1216	3045.0225	3046.3573	3117.3644	3119.8285	3124.595	3124.8051	3134.052	3135.5302	3502.9356
CCC#CC(C)(C)C#C	CCC#CC(C)(C)C#C	
InChI=1S/C9H12/c1-5-7-8-9(3,4)6-2/h2H,5H2,1,3-4H3	InChI=1S/C9H12/c1-5-7-8-9(3,4)6-2/h2H,5H2,1,3-4H3
