13
gdb 51159	3.31087	1.20358	0.97069	4.1511	59.68	-0.2911	-0.029	0.2621	1137.7466	0.087198	-493.699088	-493.691378	-493.690434	-493.732453	27.187	
O	 0.0602161696	-0.045211587	-0.1876807506	-0.246437
C	 0.0596635515	 1.1423008994	-0.2132538862	 0.162882
O	 1.1338705649	 1.8697931653	 0.2264408985	-0.218857
C	 1.0145874484	 3.2424185379	 0.1549021734	 0.214603
C	 1.1594002362	 4.0542570821	-1.1437175068	-0.347648
C	 2.070181135	 4.3000361066	 0.0066798474	 0.023439
O	 1.3898374902	 5.1535765348	 0.9699157804	-0.257096
C	 0.4596475666	 4.1532316534	 1.2345195028	 0.415308
O	-0.3847224289	 4.1322673737	 2.0634695276	-0.311611
H	-0.7629720348	 1.7819117523	-0.5772941954	 0.10532
H	 1.5777820809	 3.4678098792	-1.9572179754	 0.151409
H	 0.42302063	 4.800431239	-1.4232392223	 0.151562
H	 3.1477258404	 4.2483595533	 0.0501843366	 0.157125
44.5874	128.0395	149.5295	199.1079	290.5869	380.2611	462.6042	471.54	576.7861	671.4132	773.4693	805.6583	854.5032	919.7541	939.7704	981.2012	1027.729	1039.146	1046.1203	1068.4853	1088.3204	1120.8242	1240.6776	1272.222	1388.424	1418.9953	1479.0152	1887.6409	1959.4932	2995.7083	3125.9681	3223.2345	3244.6869
O=COC12CC1OC2=O	O=CO[C@]12C[C@H]1OC2=O	
InChI=1S/C5H4O4/c6-2-8-5-1-3(5)9-4(5)7/h2-3H,1H2	InChI=1S/C5H4O4/c6-2-8-5-1-3(5)9-4(5)7/h2-3H,1H2/t3-,5-/m1/s1
