19
gdb 63605	2.85861	1.05623	0.95011	2.7982	86.06	-0.2582	-0.0558	0.2024	1333.2995	0.155925	-385.869113	-385.859296	-385.858352	-385.90375	36.409	
C	-0.2549388936	 1.5264200326	 0.0864085431	-0.466612
C	-0.0175695027	 0.0306337772	 0.0367856346	 0.339372
C	-1.2290563589	-0.78044002	-0.3838675051	-0.445329
C	 1.3321392471	-0.4822531685	-0.3403128487	-0.324148
C	 0.8804647744	-0.6439144549	 1.1037002629	-0.166298
C	 1.5529515831	 0.1560314182	 2.1569897376	 0.250223
O	 2.1931809661	 1.1704179433	 1.9439230069	-0.324293
C	 1.3943513881	-0.353169839	 3.5115966778	 0.245822
C	 1.2644004782	-0.7846252385	 4.6280223086	-0.413964
H	 0.6270211353	 2.0660251025	 0.4331164607	 0.156762
H	-0.5129601558	 1.8921182117	-0.9141740027	 0.11509
H	-1.0912157196	 1.7686959393	 0.7520631733	 0.11503
H	-1.5583450823	-0.480473871	-1.3856201486	 0.122161
H	-1.0116780116	-1.8525443451	-0.4109934968	 0.115176
H	-2.0686314442	-0.6219680937	 0.3019982932	 0.122336
H	 1.4091926575	-1.3862176706	-0.9350687798	 0.113288
H	 2.1243194085	 0.2439160065	-0.4890832461	 0.138113
H	 0.5511958686	-1.625498515	 1.4253840251	 0.09506
H	 1.1591634718	-1.1502593449	 5.6205274038	 0.212211
51.3079	113.8064	166.5696	198.1709	223.9716	241.9608	264.9377	315.0066	357.3107	381.8453	425.8623	482.0069	606.1552	639.7155	656.6346	697.7674	752.7785	815.7058	832.749	926.8175	947.5676	971.5211	978.0002	1057.3641	1070.0791	1076.5092	1119.6169	1141.8087	1150.0473	1288.2492	1332.6494	1408.0555	1413.1412	1425.5925	1473.9442	1484.5283	1489.2867	1508.939	1510.1466	1735.8428	2210.603	3024.388	3031.1569	3083.9888	3088.7001	3102.8797	3130.3625	3145.2228	3173.6122	3223.7119	3494.4494
CC1(C)CC1C(=O)C#C	CC1(C)C[C@H]1C(=O)C#C	
InChI=1S/C8H10O/c1-4-7(9)6-5-8(6,2)3/h1,6H,5H2,2-3H3	InChI=1S/C8H10O/c1-4-7(9)6-5-8(6,2)3/h1,6H,5H2,2-3H3/t6-/m0/s1
