23
gdb 100139	3.78579	0.71691	0.69365	1.3123	88.48	-0.2527	0.0578	0.3105	1742.733	0.20166	-388.268586	-388.257224	-388.25628	-388.305	42.008	
C	 0.0774934245	 1.5117769716	 0.2493529849	-0.393437
C	-0.0330838216	 0.0143682745	-0.0523221576	-0.203801
C	 0.6651735673	-0.4480910299	-1.3520689883	 0.346868
C	 0.0913700295	 0.2551902468	-2.5849904566	-0.406006
O	 2.0517633828	-0.0765801825	-1.3216548802	-0.458086
C	 0.5399785895	-1.984946263	-1.45675496	-0.206369
C	 1.2921699935	-2.6056304083	-2.6520032325	-0.373827
C	 1.3184100332	-4.0618074163	-2.5987543565	 0.290783
C	 1.3257464169	-5.2622175773	-2.53130787	-0.43497
H	 1.1190010791	 1.8400174962	 0.1930449934	 0.125764
H	-0.5024182779	 2.1154617111	-0.4548049804	 0.118886
H	-0.2980262692	 1.7301025883	 1.2535592287	 0.110152
H	 0.4083920828	-0.5529619655	 0.7796858856	 0.083808
H	-1.0873747697	-0.2866662175	-0.090781182	 0.097146
H	 0.1967195172	 1.3380640621	-2.4924871214	 0.125484
H	 0.624609821	-0.0481303574	-3.4887774068	 0.125368
H	-0.9691577635	 0.0162408561	-2.7087897231	 0.112311
H	 2.4422925541	-0.464383394	-0.5302088662	 0.276306
H	 0.9349327255	-2.4278942258	-0.5332692591	 0.095995
H	-0.5180141062	-2.2668531123	-1.5010375708	 0.106758
H	 0.8304906804	-2.2910658184	-3.5952031852	 0.130244
H	 2.3143694667	-2.2104284197	-2.6651986871	 0.140243
H	 1.340051104	-6.3226797886	-2.4857872289	 0.190379
54.6502	97.3791	107.3076	112.1759	195.287	212.0278	239.1278	291.7835	322.595	347.1975	352.9591	358.3422	396.5441	439.2331	501.2199	598.832	612.9023	632.1472	756.3189	765.3995	787.8426	895.2085	940.3769	958.7158	973.415	1002.1554	1025.7001	1062.57	1077.3024	1138.4317	1166.034	1184.7798	1226.5121	1285.4112	1290.754	1311.6411	1367.5429	1378.439	1388.963	1406.2948	1427.5708	1468.6149	1481.1361	1487.2087	1490.8543	1496.2038	1509.6958	1515.4856	2237.754	3002.9784	3022.7468	3036.3505	3044.0624	3048.91	3053.3932	3061.3945	3081.5336	3108.1614	3120.8805	3126.3626	3133.6271	3507.5932	3794.6701
CCC(C)(O)CCC#C	CC[C@@](C)(O)CCC#C	
InChI=1S/C8H14O/c1-4-6-7-8(3,9)5-2/h1,9H,5-7H2,2-3H3	InChI=1S/C8H14O/c1-4-6-7-8(3,9)5-2/h1,9H,5-7H2,2-3H3/t8-/m1/s1
