20
gdb 101533	2.47463	1.00164	0.82643	0.8124	84.67	-0.2615	-0.0258	0.2357	1484.3599	0.167807	-403.131162	-403.120666	-403.119722	-403.167096	37.854	
C	 0.0459586384	 1.5652580019	-0.0626964093	-0.388749
C	 0.0882309701	 0.03595437	-0.0230931918	-0.179841
C	 0.6968740273	-0.5286510609	 1.2579728611	 0.151811
C	 0.6582654937	-2.0515916127	 1.3253210526	-0.41097
O	 2.077261266	-0.0729960695	 1.2779173454	-0.251449
C	 2.6874676412	 0.0399106689	 2.4680774901	 0.258825
N	 2.1229776029	-0.2502276966	 3.5732292348	-0.537991
C	 4.0347131887	 0.527563644	 2.3249445695	 0.27319
C	 5.1652238282	 0.9311396803	 2.2589134627	-0.40925
H	 1.0519759851	 1.9844437575	 0.0228395987	 0.131589
H	-0.3915738422	 1.9212001779	-1.0001167399	 0.11201
H	-0.5564052178	 1.9659411164	 0.7601983152	 0.114684
H	-0.9260485801	-0.3709110124	-0.1137051379	 0.098969
H	 0.6572124746	-0.3485141923	-0.878627546	 0.105061
H	 0.1987191779	-0.107820527	 2.1371987929	 0.110941
H	 1.1110909521	-2.405797911	 2.2531650446	 0.142146
H	-0.3790925892	-2.3993846277	 1.2950772016	 0.116439
H	 1.1933195921	-2.4885186099	 0.4761696779	 0.119558
H	 2.7569163948	-0.0778725167	 4.349633715	 0.23411
H	 6.163900296	 1.28853111	 2.1971417929	 0.208917
55.0228	77.1771	116.8927	130.1772	214.7002	218.9492	227.7404	263.32	294.8447	368.9488	426.1613	481.8971	533.7382	588.4581	656.2806	661.5576	734.5429	772.5743	838.7037	842.6807	879.1905	934.5449	979.4625	1005.8062	1035.3328	1110.7722	1137.858	1145.1655	1200.3797	1298.6696	1325.5318	1356.214	1396.9012	1401.8354	1405.7367	1412.9383	1474.0782	1487.4869	1496.4336	1503.9557	1509.8233	1675.0042	2235.1208	3028.8827	3037.3604	3043.3664	3059.2069	3072.9692	3103.3369	3112.8337	3121.2456	3138.7943	3500.0515	3528.194
CCC(C)OC(=N)C#C	CC[C@@H](C)O[C]([NH])C#C	
InChI=1S/C7H11NO/c1-4-6(3)9-7(8)5-2/h2,6,8H,4H2,1,3H3	InChI=1S/C7H11NO/c1-4-6(3)9-7(8)5-2/h2,6,8H,4H2,1,3H3/t6-/m1/s1
