17
gdb 66947	2.54721	1.95404	1.40138	1.3263	71.27	-0.2279	0.0693	0.2972	951.8485	0.134769	-421.727417	-421.719962	-421.719018	-421.759047	29.356	
C	 0.0153847637	 1.5101962326	 0.0679157638	-0.519037
C	 0.0013175163	 0.0170862917	-0.0278797148	 0.176214
C	-0.90278031	-0.927267648	 0.7851329825	 0.04451
O	-1.0726654299	-2.1491738438	 0.0567961383	-0.293348
C	 0.3483092938	-2.0529216901	-0.2523301657	-0.069248
C	 0.5713833879	-1.0443663016	 0.939043394	-0.184317
C	 0.4078098243	-0.8489817852	-1.2005553157	 0.469456
C	 0.3141594979	-0.7266101808	-2.6488112192	-0.27925
O	 1.5711782418	-0.555607953	-1.9493462275	-0.289651
H	 0.9740519857	 1.9088844311	-0.2802086166	 0.140063
H	-0.7787895987	 1.9550789932	-0.5423495297	 0.126912
H	-0.1338389424	 1.8437279606	 1.1000172755	 0.123598
H	-1.6883043813	-0.5976530451	 1.4533847313	 0.112935
H	 0.8384522048	-3.002216013	-0.4553195254	 0.095693
H	 1.2612216176	-0.9849857599	 1.768792497	 0.109025
H	 0.247360409	-1.6186791111	-3.2697304273	 0.119834
H	-0.0885576106	 0.1810606722	-3.0956687907	 0.116613
151.9977	184.7231	193.6206	234.5251	300.4596	368.1012	499.4901	558.5855	623.0701	640.5443	761.9673	792.7873	816.1879	849.5144	875.0149	888.2549	916.4438	944.1281	976.2909	1002.5059	1043.5351	1075.2719	1091.9194	1112.8265	1126.0773	1149.461	1173.2887	1180.663	1199.878	1260.0135	1305.2662	1397.6854	1421.2541	1460.9571	1483.641	1500.2499	1546.4942	3027.8383	3085.3711	3090.9597	3100.9144	3155.7463	3171.9292	3198.3301	3218.7766
CC12C3OC(C13)C21CO1	C[C@]12[C@H]3O[C@H]([C@@H]13)[C@]12CO1	
InChI=1S/C7H8O2/c1-6-3-4(6)9-5(3)7(6)2-8-7/h3-5H,2H2,1H3	InChI=1S/C7H8O2/c1-6-3-4(6)9-5(3)7(6)2-8-7/h3-5H,2H2,1H3/t3-,4-,5+,6+,7-/m0/s1
