19
gdb 54269	2.58077	1.50357	1.2875	3.4678	72.75	-0.2371	0.0297	0.2667	1075.2443	0.159354	-456.35485	-456.345894	-456.34495	-456.388753	33.978	
C	-0.0423092726	 1.676877295	-0.2546616868	-0.415135
C	-0.0199872724	 0.1742998556	-0.0404408556	 0.430838
O	 0.8084146349	-0.4214878075	-1.0375997446	-0.283393
C	 1.6570614432	-1.3653248713	-0.4027764684	-0.097396
C	 1.8415420566	-0.7505466215	 0.9801970295	-0.104855
O	 0.5658228943	-0.1632751533	 1.2250354513	-0.31573
C	-1.4275804253	-0.4547986587	-0.1146573039	 0.321119
N	-1.5584853873	-1.6076225654	 0.6325706606	-0.550172
N	-2.2816971949	 0.0712850676	-0.9020383755	-0.517989
H	 0.9813363395	 2.0580865724	-0.2256354358	 0.107774
H	-0.4962519822	 1.9019176448	-1.2194901126	 0.157835
H	-0.6325652183	 2.1584993394	 0.5281163605	 0.123286
H	 1.1800188446	-2.3535223722	-0.3421002702	 0.107149
H	 2.5805522096	-1.4433123158	-0.9817101153	 0.116012
H	 2.0492114159	-1.4753771372	 1.7715638488	 0.11178
H	 2.6286057672	 0.0158318538	 0.9781121218	 0.108927
H	-0.9795225837	-1.6393476205	 1.4586563557	 0.259377
H	-2.4964916227	-1.9595731672	 0.7523860209	 0.242608
H	-3.1569240963	-0.457141418	-0.9114249905	 0.197965
46.7058	87.8091	200.8416	217.8456	266.3749	301.3395	350.3012	386.6698	442.131	486.9561	541.9501	581.0578	643.6323	651.2762	712.4417	773.6556	863.1152	883.1246	906.1163	916.3823	953.3039	1061.816	1078.1912	1101.3911	1121.2567	1129.8289	1152.9355	1204.1014	1222.522	1231.6681	1254.8776	1369.3796	1385.4014	1403.782	1417.5966	1471.2135	1484.211	1513.2781	1520.5229	1608.6494	1733.6127	3007.4529	3016.3319	3060.3973	3096.2535	3104.7636	3136.0143	3165.3277	3439.0089	3564.5551	3678.929
CC1(OCCO1)C(N)=N	CC1(OCCO1)C(=N)N	
InChI=1S/C5H10N2O2/c1-5(4(6)7)8-2-3-9-5/h2-3H2,1H3,(H3,6,7)	InChI=1S/C5H10N2O2/c1-5(4(6)7)8-2-3-9-5/h2-3H2,1H3,(H3,6,7)
