18
gdb 28151	4.89941	1.19471	0.97202	2.0913	87.33	-0.1742	0.0141	0.1884	1206.91	0.149979	-364.861843	-364.854176	-364.853231	-364.89364	30.336	
C	-0.0200165068	 1.4638564855	 0.0673913277	-0.485389
C	-0.0002961643	-0.0285479914	-0.0158425034	 0.301757
C	-0.0326078689	-0.797411432	-1.1262116004	-0.315249
C	 0.0044964449	-2.2120273236	-0.7533109665	 0.329545
C	 0.0604723947	-2.274310155	 0.6228764418	 0.274844
C	 0.0635850893	-0.9106760893	 1.2375495424	-0.464416
N	 0.0960159661	-3.5839175673	 1.00044793	-0.37345
C	 0.0629638322	-4.3694170767	-0.1388419935	-0.072396
C	 0.0056244654	-3.5462766773	-1.2460231796	-0.341625
H	 0.8755946342	 1.8594791358	 0.5653647621	 0.11817
H	-0.0698276733	 1.9105080251	-0.9298612157	 0.12276
H	-0.8814475704	 1.8320174111	 0.6409290707	 0.118105
H	-0.0791659335	-0.416139385	-2.1395881854	 0.086283
H	 0.964493094	-0.6946221295	 1.8284916126	 0.12091
H	-0.793825403	-0.7222255951	 1.8985076408	 0.120917
H	 0.138967765	-3.9381878847	 1.9397745861	 0.257051
H	 0.083023513	-5.4447487744	-0.0618298722	 0.112668
H	-0.0301376184	-3.8814971762	-2.2714035476	 0.089516
132.2488	163.0231	217.612	264.3671	301.2805	436.3165	461.5321	470.0467	519.3255	623.2035	680.1428	712.9059	723.6793	783.9413	810.8927	853.5441	860.1817	933.9465	938.5963	1006.9238	1056.3368	1074.963	1080.7017	1135.2129	1145.9527	1178.4031	1206.784	1287.581	1298.91	1366.4033	1412.7525	1438.7184	1463.1607	1476.6791	1477.1454	1491.8365	1523.9774	1571.701	1656.9011	3004.2994	3014.492	3039.1708	3045.0303	3102.8589	3199.8826	3242.6694	3266.9944	3680.039
CC1=CC2=C(C1)NC=C2	CC1=Cc2c(C1)[nH]cc2	
InChI=1S/C8H9N/c1-6-4-7-2-3-9-8(7)5-6/h2-4,9H,5H2,1H3	InChI=1S/C8H9N/c1-6-4-7-2-3-9-8(7)5-6/h2-4,9H,5H2,1H3
