19
gdb 71632	2.84352	1.55745	1.51005	1.2651	74.57	-0.2329	0.0758	0.3087	987.9667	0.16015	-422.968537	-422.96107	-422.960126	-423.000144	29.843	
C	 0.060896964	 1.4700556145	-0.1115037422	-0.523408
C	-0.0023391585	-0.020640723	 0.0020926419	 0.407115
O	 0.6750448401	-0.8362754779	-1.0359590567	-0.350639
C	 0.0804017205	-1.8160469684	-0.1065609791	 0.04127
C	 0.5901249897	-0.9670850544	 1.0884033967	-0.070397
C	-0.1471702421	-1.0952521869	 2.4155697076	-0.119503
O	-1.4428937826	-1.6437475152	 2.24554181	-0.249353
C	-2.134110026	-1.1090271801	 1.1297668559	-0.119502
C	-1.226723221	-0.9796666809	-0.0873239049	-0.070396
H	 1.0997418268	 1.8132685906	-0.0865793657	 0.135025
H	-0.392225666	 1.8032315439	-1.0502724512	 0.134999
H	-0.4777913073	 1.9404395833	 0.7175910496	 0.126693
H	 0.228604063	-2.8732169179	-0.3242690557	 0.09321
H	 1.6767921885	-0.9088881646	 1.1835278466	 0.079351
H	 0.380566387	-1.777267153	 3.0899387996	 0.114481
H	-0.1967269098	-0.1114251832	 2.9159544755	 0.08861
H	-2.958767231	-1.80042944	 0.9289490081	 0.114481
H	-2.5798880434	-0.1279542355	 1.3737551703	 0.088612
H	-1.7591827419	-0.9326632813	-1.0399833363	 0.079351
163.6079	170.4429	200.2806	247.4761	342.857	396.922	464.5684	486.6848	616.4325	637.0574	729.1354	762.095	783.8596	859.0904	877.9986	892.8627	931.6447	983.5237	1000.564	1009.3232	1050.5923	1085.318	1088.8768	1121.6583	1163.1539	1181.1649	1204.0291	1223.8814	1245.8337	1261.3457	1279.8095	1306.9665	1320.7706	1379.805	1390.0558	1415.8108	1437.8067	1475.7724	1488.9089	1501.2154	1510.394	2943.453	2949.0481	3036.8651	3068.3197	3070.4094	3095.4168	3095.9144	3109.6133	3112.9904	3126.1108
CC12OC3C1COCC23	C[C@@]12O[C@H]3[C@@H]1COC[C@@H]23	
InChI=1S/C7H10O2/c1-7-4-2-8-3-5(7)6(4)9-7/h4-6H,2-3H2,1H3	InChI=1S/C7H10O2/c1-7-4-2-8-3-5(7)6(4)9-7/h4-6H,2-3H2,1H3/t4-,5+,6-,7+
