22
gdb 59313	2.7394	1.15431	0.8734	2.645	84.16	-0.2283	-0.0207	0.2076	1383.9979	0.191291	-404.353156	-404.343015	-404.342071	-404.388053	37.568	
C	 0.9884611641	-0.4267527672	-1.0861595413	-0.39036
C	 0.0296363653	 0.0073749186	 0.0252517678	 0.072211
C	-0.0316647814	 1.5341831916	 0.1269719762	-0.389396
N	-1.3099808426	-0.520913134	-0.2203688208	-0.093948
C	-2.3152003534	-0.3348737116	 0.8552988555	-0.300907
C	-2.7315887757	-1.7925542233	 0.641189046	 0.389954
O	-3.6507036204	-2.4763398728	 0.9795983816	-0.293651
C	-1.4984592441	-2.0009905215	-0.2502329992	-0.069033
C	-1.7126455028	-2.6554433666	-1.6070061925	-0.398287
H	 1.9844046636	-0.0092948864	-0.9102204071	 0.114245
H	 1.0907413982	-1.5147224857	-1.1332343283	 0.116187
H	 0.6307445827	-0.0737642405	-2.0587138507	 0.123981
H	 0.4197763633	-0.3865084845	 0.9877093916	 0.049876
H	-0.4020046905	 1.9620592185	-0.8101632862	 0.123634
H	-0.6951416908	 1.8594567819	 0.9339770406	 0.116116
H	 0.9626137408	 1.944154711	 0.3283282208	 0.113566
H	-1.8866373362	-0.1875484506	 1.8615134978	 0.11498
H	-3.0702080721	 0.4374831324	 0.6770710664	 0.131395
H	-0.7205591317	-2.5373081698	 0.3230362693	 0.087821
H	-2.4611342274	-2.1029965528	-2.1812265788	 0.12673
H	-0.7871374992	-2.6846691001	-2.1886659039	 0.1228
H	-2.0658017996	-3.6823845767	-1.4694764249	 0.132086
72.6522	94.1845	171.2364	184.139	205.4238	223.206	237.5998	271.453	326.728	381.5709	403.3112	450.4457	516.0809	579.3754	635.9347	749.212	794.1013	884.4673	906.273	930.1678	952.3853	997.7905	1029.0537	1061.3098	1088.7059	1095.0049	1137.1096	1138.5676	1170.2472	1189.9638	1220.4368	1259.9623	1294.1878	1338.7637	1365.3095	1382.1891	1399.6708	1401.3622	1417.667	1473.4903	1481.0313	1484.7275	1490.2509	1495.6793	1500.4175	1513.3176	1914.4903	2869.6297	2942.0286	2967.021	3036.3184	3040.6625	3043.1887	3070.9158	3108.6302	3109.8133	3112.1951	3115.5756	3116.873	3123.6567
CC(C)N1CC(=O)C1C	CC(C)N1CC(=O)[C@H]1C	
InChI=1S/C7H13NO/c1-5(2)8-4-7(9)6(8)3/h5-6H,4H2,1-3H3	InChI=1S/C7H13NO/c1-5(2)8-4-7(9)6(8)3/h5-6H,4H2,1-3H3/t6-/m1/s1
