23
gdb 122679	5.04922	0.65858	0.6086	1.3868	83.7	-0.2414	0.0848	0.3262	1898.0651	0.205617	-425.426061	-425.415962	-425.415018	-425.462806	35.55	
C	-0.0338900683	 1.4097186655	 0.041348373	-0.225912
O	-0.0128037392	 0.007703073	-0.056038845	-0.232367
C	-1.2992262386	-0.5673270611	 0.0452702553	-0.053784
C	-1.1560450486	-2.0815687776	-0.0337796274	-0.215334
C	-2.4955961752	-2.8056756948	 0.0178798108	 0.150262
C	-2.410978708	-4.3365829486	-0.0298904637	-0.238588
C	-3.6869662621	-4.7497565923	 0.7155895043	-0.233749
C	-3.7889634675	-3.6586288603	 1.7903884662	-0.056223
O	-3.1595015216	-2.4963426175	 1.2513951468	-0.280231
H	 0.9977657127	 1.7614220351	-0.0412789795	 0.122727
H	-0.6300583311	 1.86877577	-0.7642834834	 0.099482
H	-0.4484827271	 1.7482559477	 1.0046085272	 0.102152
H	-1.7800812061	-0.2837555051	 0.9939131557	 0.105736
H	-1.947634359	-0.2001664931	-0.7706669511	 0.077213
H	-0.6423951924	-2.3408691327	-0.9674742107	 0.1012
H	-0.5257957257	-2.4256561246	 0.7941407429	 0.104949
H	-3.1281248979	-2.4506959651	-0.8146432132	 0.062224
H	-2.3563191683	-4.7222121362	-1.0507882339	 0.102673
H	-1.5204079292	-4.6785091141	 0.5105233734	 0.103674
H	-4.5507187203	-4.707756943	 0.0434483254	 0.106755
H	-3.6401407364	-5.7557658851	 1.1393639207	 0.103369
H	-4.8248172138	-3.4163548481	 2.0549983962	 0.09987
H	-3.2685295263	-3.958469972	 2.7117978402	 0.0939
36.6058	62.8556	88.8425	108.0614	133.8906	213.2304	235.0837	284.3002	309.9535	449.0993	506.2374	590.8427	670.19	789.1181	849.0878	878.8107	897.4679	932.6093	944.3755	991.1681	1020.0281	1040.2009	1055.5352	1112.2008	1127.9746	1160.2486	1166.4783	1186.2344	1192.6189	1206.1837	1230.2892	1238.515	1260.198	1292.4513	1310.0776	1320.7571	1340.3584	1362.7658	1397.1628	1406.0408	1427.7495	1477.4566	1481.5632	1484.8909	1487.1276	1498.8346	1505.5993	1533.194	1533.8465	2938.3302	2945.6351	2964.8656	2993.419	3003.227	3006.2229	3033.5777	3040.124	3042.9596	3056.5683	3081.8536	3101.9865	3108.1447	3110.0583
COCCC1CCCO1	COCC[C@H]1CCCO1	
InChI=1S/C7H14O2/c1-8-6-4-7-3-2-5-9-7/h7H,2-6H2,1H3	InChI=1S/C7H14O2/c1-8-6-4-7-3-2-5-9-7/h7H,2-6H2,1H3/t7-/m1/s1
