16
gdb 96757	4.04025	0.74486	0.63383	1.0851	70.37	-0.2556	-0.084	0.1716	1659.7258	0.119164	-475.02453	-475.014249	-475.013305	-475.062449	33.278	
C	-0.1412506975	 1.488495043	 0.1644366866	-0.313988
N	-0.0191742456	 0.0404073618	 0.0993365488	-0.302821
C	 0.5541077022	-0.5438792694	-0.8623350137	 0.333571
O	 0.6643330281	-1.8954548481	-0.9165202244	-0.259504
C	 0.1005850581	-2.6241999712	 0.1666179327	-0.150758
C	 0.3382011676	-4.0978606987	-0.1020893695	 0.138961
O	-0.0287459518	-4.9648098563	 0.6441781898	-0.232008
C	 1.2079370691	 0.0390757393	-2.0909036658	 0.101554
O	 1.2665255507	 1.2194852386	-2.319745678	-0.235666
H	 0.8357930833	 1.9834444695	 0.169724014	 0.140519
H	-0.6958263675	 1.8929980965	-0.6890470305	 0.140522
H	-0.6719943707	 1.7461326014	 1.0839192497	 0.124483
H	 0.5602720035	-2.3304249996	 1.1179703368	 0.154305
H	-0.973139581	-2.4210250872	 0.2589177719	 0.154306
H	 0.8813426485	-4.3106588352	-1.0489622605	 0.097526
H	 1.6352461829	-0.7237236044	-2.773448808	 0.108998
26.3267	42.8203	58.212	113.723	130.7821	182.8757	222.609	279.87	312.6901	352.8159	425.1265	535.2916	577.5821	725.4355	743.9853	852.3885	1022.8621	1041.0934	1059.7107	1104.8065	1105.1757	1109.1666	1163.4368	1229.3967	1267.1633	1336.7842	1407.5467	1419.71	1435.1768	1469.8725	1479.2731	1499.2178	1724.915	1826.2253	1847.0935	2899.8732	2930.7409	3028.5836	3038.4082	3075.8793	3089.4259	3112.7715
CN=C(OCC=O)C=O	CN=C(OCC=O)C=O	
InChI=1S/C5H7NO3/c1-6-5(4-8)9-3-2-7/h2,4H,3H2,1H3	InChI=1S/C5H7NO3/c1-6-5(4-8)9-3-2-7/h2,4H,3H2,1H3
