18
gdb 106856	2.0627	1.69218	1.12548	3.9149	78.73	-0.2385	0.0201	0.2586	1126.4998	0.147326	-401.926433	-401.917788	-401.916844	-401.959869	32.173	
C	 0.4897836795	 0.5582652835	 0.4779120448	-0.272582
O	-0.5002248991	 0.4683259577	-0.5356297953	-0.266907
C	-1.5538092396	-0.3695199552	-0.3152068761	 0.411827
C	-2.057768835	-0.8702147332	 0.9940939209	-0.392008
C	-1.6524633407	-1.9197592974	-0.0438696829	 0.125031
C	-2.7469047481	-2.0199387163	-1.1159211479	-0.284348
C	-2.6154672935	-0.4896419457	-1.4006142282	-0.286792
C	-0.652268176	-2.8919973192	 0.2231441941	 0.189469
N	 0.17699608	-3.6773020054	 0.4234978636	-0.368167
H	 1.2666296158	 1.2168526413	 0.0865385377	 0.141355
H	 0.0843445894	 0.9912070693	 1.4012216808	 0.12237
H	 0.9300550305	-0.4219245273	 0.6987971468	 0.145031
H	-1.3706383499	-0.7955699039	 1.8293331354	 0.138663
H	-3.1071862459	-0.7798624977	 1.2714880199	 0.119369
H	-2.451572602	-2.6331685601	-1.9678597144	 0.129786
H	-3.7181775784	-2.3635699426	-0.7476391538	 0.110814
H	-3.5070181923	 0.1280597617	-1.2593373438	 0.109329
H	-2.1941202345	-0.2917309493	-2.3873829215	 0.127759
76.7719	111.8719	165.3571	209.2113	240.476	267.2821	384.3489	405.0626	442.4869	563.5814	568.2564	619.266	674.1491	727.3753	787.015	814.7855	937.5072	942.7798	974.7797	1009.1756	1075.5663	1098.7173	1116.4032	1145.2228	1177.5024	1206.0728	1216.9201	1245.2587	1257.0102	1282.3794	1345.9133	1370.3877	1479.1394	1482.3422	1490.9446	1495.0618	1504.8854	1518.0278	2329.1315	3009.9765	3057.3597	3065.0355	3074.4589	3096.4673	3120.9411	3136.8915	3137.7113	3211.2767
COC12CC1(CC2)C#N	CO[C@]12C[C@]1(CC2)C#N	
InChI=1S/C7H9NO/c1-9-7-3-2-6(7,4-7)5-8/h2-4H2,1H3	InChI=1S/C7H9NO/c1-9-7-3-2-6(7,4-7)5-8/h2-4H2,1H3/t6-,7-/m1/s1
