19
gdb 97692	2.90211	0.79659	0.69321	0.9091	93.25	-0.2268	0.0354	0.2622	1712.8492	0.156446	-348.685193	-348.675057	-348.674113	-348.721286	36.779	
C	-0.5375335223	 1.314109428	 0.1263822456	-0.363366
C	 0.4400309929	 0.1529579038	-0.1317740493	-0.318641
C	 1.0313364962	-0.3871401244	 1.0879625241	 0.110985
C	 1.514025176	-0.8129388264	 2.1066448684	-0.038896
C	 2.0922059931	-1.3303302928	 3.322670422	 0.038812
C	 1.1351661151	-1.7363216776	 4.4542239271	-0.286276
C	 1.8263494419	-2.8027492268	 3.6726878528	-0.286174
C	 3.3702497096	-0.782389747	 3.7053601902	 0.256223
C	 4.4356683767	-0.3331549159	 4.034841463	-0.465008
H	-0.0316561284	 2.1422719287	 0.6298761096	 0.130146
H	-0.9499465099	 1.6833272484	-0.8174851312	 0.11318
H	-1.3667049783	 0.9903208343	 0.7614545586	 0.125266
H	-0.0786123252	-0.6503510894	-0.6711649774	 0.127127
H	 1.2424415506	 0.4911100454	-0.800126229	 0.131721
H	 1.4730272439	-1.5316836551	 5.4629000498	 0.133905
H	 0.0825493159	-1.5585066352	 4.2709423447	 0.13217
H	 1.2544897496	-3.3669498234	 2.9461226174	 0.132566
H	 2.6442683728	-3.3386903865	 4.13875418	 0.133987
H	 5.37645071	 0.0699267117	 4.3165703037	 0.192275
32.6351	81.1662	89.7018	172.1877	204.9091	214.324	224.3607	323.4405	407.2047	447.6667	496.4007	550.7815	569.0814	581.8451	594.03	651.2323	778.1888	784.9901	830.6823	834.1753	941.3224	955.3034	978.9086	1062.8905	1067.7357	1086.1045	1099.1507	1103.797	1198.8584	1268.9825	1287.7305	1320.7194	1358.147	1409.7562	1460.8416	1473.0697	1487.8752	1494.9515	1505.276	2238.6501	2364.1511	3018.8666	3043.7971	3045.999	3116.6319	3123.7746	3147.1339	3150.9184	3236.008	3250.8079	3504.7146
CCC#CC1(CC1)C#C	CCC#CC1(CC1)C#C	
InChI=1S/C9H10/c1-3-5-6-9(4-2)7-8-9/h2H,3,7-8H2,1H3	InChI=1S/C9H10/c1-3-5-6-9(4-2)7-8-9/h2H,3,7-8H2,1H3
