17
gdb 16112	4.33277	1.66702	1.45363	1.8189	74.67	-0.2331	0.0403	0.2733	905.3857	0.143142	-326.678036	-326.67091	-326.669965	-326.708998	28.302	
C	 0.0523751738	-1.1858028298	-0.1946211965	-0.371688
C	 0.0442564543	 0.012209093	-0.0911932531	 0.199703
C	-0.0188569008	 1.4400697069	 0.0520077821	 0.157268
C	 0.2453830022	 2.3413583454	-1.1132884898	-0.280582
N	 1.2456893549	 2.2252560185	-0.051988414	-0.124256
C	 1.1632495715	 3.2919606279	 0.9633784769	-0.148979
C	-0.3099521715	 3.4220455161	 1.4162419227	-0.249497
C	-0.8863155472	 2.0125164588	 1.1763023985	-0.275912
H	 0.0762368769	-2.2427574686	-0.2920645603	 0.187169
H	 0.5408388567	 1.9004332213	-2.06002961	 0.125458
H	-0.3431026488	 3.2522841899	-1.1987376168	 0.11056
H	 1.8000120851	 2.9859104944	 1.8001410761	 0.11326
H	 1.572420183	 4.2227418478	 0.5580205434	 0.109069
H	-0.3941982987	 3.7350592114	 2.4595509778	 0.107513
H	-0.8421375691	 4.1671272725	 0.8182129503	 0.109871
H	-1.9489444382	 2.0218163116	 0.9186745062	 0.112799
H	-0.7687752743	 1.3804603728	 2.0620954366	 0.118243
139.1859	157.4908	242.7259	300.502	406.9783	504.6208	524.0163	551.8438	606.9128	637.3233	646.444	690.0549	789.4479	819.833	893.0654	899.357	921.3762	949.9992	999.0551	1035.7075	1080.4928	1116.68	1170.9915	1187.2823	1206.3277	1236.4771	1264.4224	1298.7539	1330.424	1348.016	1373.9641	1486.7981	1491.0296	1498.2811	1522.2536	2239.1835	3044.7236	3055.5324	3061.9457	3086.7322	3096.1805	3105.0128	3113.7986	3197.0744	3503.9345
C#CC12CN1CCC2	C#C[C@]12CN1CCC2	
InChI=1S/C7H9N/c1-2-7-4-3-5-8(7)6-7/h1H,3-6H2	InChI=1S/C7H9N/c1-2-7-4-3-5-8(7)6-7/h1H,3-6H2/t7-,8?/m0/s1
