20
gdb 37480	2.82491	1.69872	1.39545	1.9767	77.35	-0.2214	0.0755	0.2969	1000.2238	0.174662	-403.104292	-403.097156	-403.096212	-403.135704	29.323	
C	 0.0074860927	 1.5087501987	 0.0652285313	-0.205136
C	 1.4407825514	 2.0294079	-0.0224056182	-0.065895
O	 2.0266434604	 1.7314547851	-1.2900638063	-0.271219
C	 1.976439762	 0.3878766107	-1.6817371964	 0.140971
C	 3.0204872889	-0.6307854863	-1.2111182745	-0.092772
N	 2.7773200559	-0.9331247518	 0.2216932552	-0.333475
C	 1.9376699058	-1.5781022436	-0.8140280461	-0.059551
C	 0.8286747586	-0.5641093222	-1.1443230437	-0.05953
C	-0.0110739164	-0.0287691291	 0.0274844515	-0.220107
H	-0.4573603516	 1.868926305	 0.9900784793	 0.092518
H	-0.5665745982	 1.9269618573	-0.7714410559	 0.096578
H	 1.4670423468	 3.120742289	 0.0515894082	 0.095764
H	 2.0475838614	 1.6099131042	 0.7906284591	 0.113397
H	 1.9669460848	 0.3918966511	-2.7766678026	 0.083315
H	 3.9900238643	-0.8263722401	-1.6541016856	 0.089383
H	 3.487612521	-1.6075708109	 0.5038975983	 0.229264
H	 1.9016753638	-2.6562292862	-0.9076389136	 0.091736
H	 0.1965432696	-0.8915007492	-1.9726584101	 0.07261
H	 0.4180564312	-0.398639451	 0.9637070224	 0.115938
H	-1.0396751823	-0.3998704105	-0.0313430124	 0.086211
123.9879	149.0475	285.4932	314.8182	409.1387	438.043	510.6336	578.5174	622.7759	706.4536	768.2148	820.7586	837.6444	866.9835	869.748	903.5531	920.8785	954.0751	994.746	1011.0333	1031.0424	1052.9368	1077.359	1102.1285	1118.8845	1140.7766	1155.3949	1174.4682	1215.4868	1254.0368	1264.5019	1289.6782	1310.0277	1325.4598	1344.1275	1372.1847	1373.7367	1384.905	1394.8912	1422.6717	1476.4633	1485.6486	1503.3387	3021.1138	3024.8228	3039.9485	3050.2679	3067.5904	3078.3103	3083.9207	3094.9892	3178.3523	3196.1636	3475.4301
C1COC2C3NC3C2C1	C1CO[C@H]2[C@H]3N[C@H]3[C@H]2C1	
InChI=1S/C7H11NO/c1-2-4-5-6(8-5)7(4)9-3-1/h4-8H,1-3H2	InChI=1S/C7H11NO/c1-2-4-5-6(8-5)7(4)9-3-1/h4-8H,1-3H2/t4-,5+,6+,7-/m1/s1
