24
gdb 58631	2.52479	1.35477	1.05089	0.8522	88.76	-0.2193	0.0852	0.3045	1273.7723	0.216305	-368.366851	-368.357058	-368.356114	-368.401191	38.275	
C	-0.1670498273	 1.3663692241	-0.389868505	-0.41495
C	 0.3619537735	-0.0515548883	-0.1346231511	-0.005114
C	 1.2728134602	-0.4924924487	-1.2930573694	-0.389169
C	 1.0569927074	-0.2475179004	 1.2209517173	 0.359527
C	 2.1339147863	 0.7186600286	 1.6712942008	-0.318851
C	 0.794836388	 0.6773424799	 2.3764663026	-0.317293
N	 1.1452352189	-1.6688482012	 1.527565836	-0.110606
C	 2.3842483186	-2.3935031841	 1.2574622774	-0.21947
C	 1.9291410011	-2.1531799596	 2.6530300152	-0.244859
H	 0.6325232899	 2.1159927532	-0.3746665943	 0.113134
H	-0.6312321494	 1.4131284133	-1.3801583562	 0.112256
H	-0.9256008754	 1.6624768655	 0.3395722288	 0.116551
H	-0.5009066892	-0.7291617916	-0.1136805102	 0.084157
H	 2.1710085145	 0.1338157893	-1.3449487668	 0.107161
H	 1.5905240211	-1.5318035556	-1.1837107562	 0.123553
H	 0.7492725421	-0.4035563926	-2.2506902856	 0.105324
H	 3.002093856	 0.3362837632	 2.1977697065	 0.108371
H	 2.3551860805	 1.5743146472	 1.0424220739	 0.111088
H	 0.1196143307	 1.5139745679	 2.2482397461	 0.111985
H	 0.7626448312	 0.2328902134	 3.3654643896	 0.112533
H	 2.2733316534	-3.3703212926	 0.7942585342	 0.11353
H	 3.2454608622	-1.8202510482	 0.9195985297	 0.113534
H	 2.5082235015	-1.4495501367	 3.2481185932	 0.112227
H	 1.4656880544	-2.947914816	 3.2317711435	 0.11538
50.735	110.0214	205.6986	216.8356	235.3931	262.1107	278.8591	314.2372	358.9976	380.161	460.0864	477.4091	550.3679	628.5774	752.8641	797.0353	824.6779	878.7828	900.9426	902.1013	927.1394	948.8857	955.233	970.3549	992.2237	1040.9778	1048.8239	1080.1157	1111.2872	1115.8832	1123.4627	1139.0979	1173.207	1178.7897	1179.2474	1189.0983	1223.7153	1312.6379	1339.9577	1352.2763	1367.989	1399.1923	1420.8397	1460.277	1486.6823	1490.5493	1497.0666	1503.6824	1506.8153	1519.5837	1526.3787	3025.0712	3030.2794	3035.8786	3090.9042	3096.7289	3098.2506	3099.8812	3111.0231	3123.2621	3131.0185	3142.7847	3172.0136	3187.2731	3206.1533	3229.1502
CC(C)C1(CC1)N1CC1	CC(C)C1(CC1)N1CC1	
InChI=1S/C8H15N/c1-7(2)8(3-4-8)9-5-6-9/h7H,3-6H2,1-2H3	InChI=1S/C8H15N/c1-7(2)8(3-4-8)9-5-6-9/h7H,3-6H2,1-2H3
