21
gdb 114488	2.60895	1.29508	1.01398	2.7565	82.41	-0.2356	-0.0196	0.216	1258.8314	0.182029	-387.090392	-387.081554	-387.08061	-387.124497	33.546	
C	-0.2521077363	 1.4944161307	 0.0725328545	-0.384869
C	-0.1048490412	-0.0302687304	 0.0386810989	-0.190924
C	 0.7685495752	-0.5604695969	 1.1708417801	 0.043142
C	 0.2272225588	-0.5240321369	 2.6362833322	-0.253923
C	 0.5465148474	-2.0337182224	 2.8108540322	-0.024794
C	-0.6480676184	-2.980383667	 2.5173491133	-0.357402
C	-0.246193169	-2.9606808293	 1.0279576357	 0.418725
O	-0.7110346074	-3.4529223652	 0.0399959825	-0.307703
C	 0.9982588813	-2.1042654365	 1.3004742327	-0.192457
H	 0.7213644441	 1.9886060229	-0.0225444638	 0.113605
H	-0.8871971614	 1.8493012784	-0.7446706015	 0.116121
H	-0.7025786048	 1.831050392	 1.012821768	 0.117429
H	-1.0962579958	-0.4976335904	 0.0859584047	 0.102909
H	 0.3262891511	-0.34061575	-0.9215250835	 0.106093
H	 1.7469105868	-0.0697544897	 1.1259365348	 0.078566
H	 0.7796049018	 0.1404454501	 3.3040030034	 0.104693
H	-0.8371965591	-0.2821805697	 2.7247158063	 0.097609
H	 1.2038503153	-2.3150634199	 3.6318509241	 0.074375
H	-0.5198761933	-3.9860307678	 2.9342946532	 0.130958
H	-1.6557983681	-2.6322572204	 2.7635984974	 0.122384
H	 1.946388943	-2.5028238815	 0.9350625847	 0.085464
58.7945	92.5427	100.9324	203.8518	249.9458	343.34	381.1876	393.2012	435.8164	542.5327	586.6136	696.6396	765.1241	775.4236	810.6792	842.9002	888.8131	906.4148	958.2986	966.6877	984.9068	1020.575	1036.7817	1054.3834	1085.62	1123.5591	1134.2665	1145.0321	1179.4207	1211.8395	1222.8461	1232.763	1275.4911	1288.3402	1300.1477	1305.4502	1343.8672	1389.4308	1412.3589	1432.595	1479.2444	1489.5858	1500.8938	1506.4072	1879.9052	3024.1265	3029.6107	3036.3021	3043.0593	3048.1916	3058.5198	3095.2544	3096.2967	3099.1522	3104.2153	3105.1933	3126.1912
CCC1CC2CC(=O)C12	CC[C@H]1C[C@H]2CC(=O)[C@@H]12	
InChI=1S/C8H12O/c1-2-5-3-6-4-7(9)8(5)6/h5-6,8H,2-4H2,1H3	InChI=1S/C8H12O/c1-2-5-3-6-4-7(9)8(5)6/h5-6,8H,2-4H2,1H3/t5-,6-,8-/m0/s1
