16
gdb 17182	3.93951	1.85873	1.5647	1.8475	64.43	-0.2309	0.0663	0.2972	838.8716	0.130032	-383.634019	-383.627087	-383.626143	-383.665247	26.506	
O	-0.0643081212	 1.4228059394	 0.1412566288	-0.422639
C	-0.0388263961	 0.0112904463	-0.0308929555	-0.231043
C	-1.4547198145	-0.4720294297	-0.0753072721	 0.338931
C	-2.6005658852	-0.1580045613	-1.0631559779	-0.319528
C	-3.2642836633	-1.1266891785	-0.0592049357	-0.099693
C	-1.9477193223	-1.9418417993	 0.1319700209	 0.037668
O	-1.9550922423	-1.8632358159	 1.5881432579	-0.331939
C	-2.4410612537	-0.5610205885	 1.1373055562	 0.063466
H	 0.8441767675	 1.7328740221	 0.1993390038	 0.289927
H	 0.4820511022	-0.2692233782	-0.9610011583	 0.087581
H	 0.4720562719	-0.4926202426	 0.8047315937	 0.103713
H	-2.9664939715	 0.8713480323	-1.0677758636	 0.111193
H	-2.4762947882	-0.5251711555	-2.0862284828	 0.096017
H	-4.2809185102	-1.5165653009	-0.0236333147	 0.084145
H	-1.6169704065	-2.8656508717	-0.3438697648	 0.092309
H	-2.7001348466	 0.1919366521	 1.8804270043	 0.099893
90.8	168.4844	223.4874	278.8004	363.0415	436.3495	574.1804	680.6623	738.635	777.8161	821.6284	843.3042	877.9249	898.1086	925.8571	948.1153	1006.7365	1052.3466	1067.3697	1085.4068	1104.35	1128.4014	1146.6611	1169.3766	1170.0565	1213.7562	1238.1678	1252.153	1282.6695	1318.8928	1358.5873	1468.1963	1511.4468	1518.3254	2964.58	2999.6194	3053.7492	3112.6905	3114.3189	3124.9139	3138.0489	3829.5861
OCC12CC3C1OC23	OC[C@@]12C[C@H]3[C@@H]1O[C@@H]23	
InChI=1S/C6H8O2/c7-2-6-1-3-4(6)8-5(3)6/h3-5,7H,1-2H2	InChI=1S/C6H8O2/c7-2-6-1-3-4(6)8-5(3)6/h3-5,7H,1-2H2/t3-,4-,5+,6-
