16
gdb 14933	4.69249	1.44055	1.144	2.615	69.78	-0.2523	-0.0561	0.1962	1001.9105	0.131292	-383.761698	-383.75455	-383.753605	-383.79326	26.496	
O	-0.0872111787	-0.0308656004	 0.0312109596	-0.272332
C	-0.018472128	 1.1774285568	 0.0388370011	 0.089216
C	 1.2421621348	 1.9383297866	 0.0395156391	 0.217267
C	 1.206878468	 3.2776900061	 0.015938421	-0.148468
C	 2.4533717786	 4.1101253909	 0.0217748145	-0.119455
O	 3.626231813	 3.3711388699	 0.2766041075	-0.245384
C	 3.6682173713	 2.1376483475	-0.4297071023	-0.094162
C	 2.5554087051	 1.1989293034	 0.0378644757	-0.303556
H	-0.9361645784	 1.8087185906	 0.0438949148	 0.066497
H	 0.2560301216	 3.8062915874	-0.0226279557	 0.107083
H	 2.5253824799	 4.6519601941	-0.9411930048	 0.109106
H	 2.39282459	 4.8771790052	 0.803949453	 0.130604
H	 3.5782351131	 2.3170133909	-1.5136511498	 0.093257
H	 4.6574014215	 1.7147302232	-0.2381804163	 0.115265
H	 2.7743506031	 0.8213567999	 1.0440868376	 0.127709
H	 2.4833917452	 0.319633748	-0.611005575	 0.127355
98.8971	164.1086	206.8879	294.1577	317.9213	393.8825	448.3301	537.2499	610.4106	738.7227	794.1286	832.527	859.8763	951.0189	991.3633	1023.401	1036.8733	1038.5928	1095.2069	1155.083	1189.3505	1225.7265	1258.0432	1300.4167	1326.6954	1371.1043	1400.7913	1413.1296	1428.6154	1469.2366	1473.9148	1501.9607	1706.4911	1790.4966	2871.5429	2922.8835	2974.8891	3038.6614	3046.0073	3082.4246	3098.8966	3150.5666
O=CC1=CCOCC1	O=CC1=CCOCC1	
InChI=1S/C6H8O2/c7-5-6-1-3-8-4-2-6/h1,5H,2-4H2	InChI=1S/C6H8O2/c7-5-6-1-3-8-4-2-6/h1,5H,2-4H2
