19
gdb 76414	2.64113	1.19001	1.12831	2.566	71.61	-0.2312	0.0445	0.2757	1196.1969	0.156551	-460.111538	-460.101878	-460.100934	-460.146056	35.46	
C	-0.0223679599	 1.5427487105	 0.5915017339	-0.40626
C	 0.0196029892	 0.0325073165	 0.5293807684	-0.117905
C	 1.0285970052	-0.7043300811	-0.337830248	 0.058163
O	 2.0206663028	-0.0087292387	-1.0270779558	-0.436293
C	 1.1296282245	-0.7661186444	 1.1725754805	 0.298675
O	 2.1847258396	-0.0032880671	 1.7191061119	-0.470668
C	 0.837310077	-2.0233597685	 1.9340820973	-0.005101
C	-0.2494365789	-2.1203453672	 2.9167056444	-0.175112
O	-0.375224774	-2.6986048152	 1.611859652	-0.227169
H	 0.9651490206	 1.9818145479	 0.4413220024	 0.121245
H	-0.6824474492	 1.9337414325	-0.1891857652	 0.122719
H	-0.3991528772	 1.8911191837	 1.5584755723	 0.117122
H	-0.9453252498	-0.4643745032	 0.5872083835	 0.105939
H	 0.6949948431	-1.5808258912	-0.8840048806	 0.111895
H	 2.5609881736	 0.4291747128	-0.3555723892	 0.283058
H	 2.9627839443	-0.5721096833	 1.7742446609	 0.290757
H	 1.6964117088	-2.6899803467	 2.059111326	 0.086379
H	-0.1794638827	-2.8350330844	 3.7346825254	 0.119856
H	-0.876409227	-1.2502440827	 3.10056177	 0.122698
68.7305	117.969	143.9421	181.0679	190.3648	226.5881	256.2648	302.9796	349.2447	440.6463	498.7031	531.3005	596.783	643.8789	692.2699	800.247	857.4364	880.493	902.4091	989.8045	997.6891	1033.7525	1077.3284	1096.2204	1129.6338	1141.7556	1152.4786	1155.3441	1170.1392	1210.0847	1256.102	1279.7961	1313.7297	1332.1781	1402.6569	1415.7469	1438.1746	1475.7645	1489.8207	1506.1566	1523.6924	3042.8542	3056.729	3092.9812	3100.365	3132.5158	3150.9253	3164.9297	3183.9348	3749.1335	3774.06
CC1C(O)C1(O)C1CO1	C[C@H]1[C@@H](O)[C@]1(O)[C@H]1CO1	
InChI=1S/C6H10O3/c1-3-5(7)6(3,8)4-2-9-4/h3-5,7-8H,2H2,1H3	InChI=1S/C6H10O3/c1-3-5(7)6(3,8)4-2-9-4/h3-5,7-8H,2H2,1H3/t3-,4+,5+,6+/m0/s1
