18
gdb 129773	3.12231	1.56614	1.07038	3.0443	79.56	-0.1867	0.036	0.2226	1107.5165	0.152027	-398.156385	-398.148632	-398.147688	-398.188714	29.506	
N	 0.0280418503	 1.4603177017	 0.1496438603	-0.611148
C	-0.0252965275	 0.0574346141	 0.022288658	-0.017242
C	-1.1407596256	-0.7611443655	-0.0235511998	 0.383044
C	-2.6366583577	-0.7735835764	 0.0227435842	-0.365255
C	-2.9592514465	-2.2523734094	-0.3639107822	-0.212664
C	-1.6850983994	-3.0676777195	-0.0253899449	-0.165116
N	-0.6674782951	-2.0359983342	-0.0756111817	 0.051661
N	 0.6602956899	-2.1316030281	-0.0504433592	-0.305687
C	 1.0613903231	-0.8528282611	-0.0004311106	-0.047543
H	 0.9074764163	 1.8332449299	-0.1859114606	 0.241344
H	-0.7224333789	 1.9219240193	-0.3496814724	 0.238236
H	-3.0098136501	-0.5337930134	 1.026920672	 0.121637
H	-3.1088971451	-0.0664850961	-0.6667928696	 0.111712
H	-3.8414216961	-2.6378488573	 0.1507651862	 0.111347
H	-3.1500357653	-2.3116437316	-1.4389821903	 0.12023
H	-1.7299788957	-3.5148953269	 0.9755688128	 0.120858
H	-1.4758085338	-3.8626896717	-0.7452161372	 0.128493
H	 2.117227997	-0.6201943338	 0.0115026649	 0.096093
119.3738	133.8503	167.858	226.8812	253.8162	342.5012	511.5791	574.3789	622.4441	648.3999	670.7137	731.8716	775.8512	811.7855	842.4041	861.7358	898.2292	919.6793	1002.3082	1058.7703	1088.1494	1094.0363	1181.7308	1201.6148	1225.0902	1232.0257	1241.4784	1313.9954	1328.5632	1335.6039	1372.5343	1397.0064	1441.1147	1487.6894	1503.34	1512.632	1532.2181	1644.1198	1659.1095	3020.2605	3026.4011	3060.1653	3072.4557	3096.4035	3121.1518	3230.7183	3525.696	3612.2667
NC1=C2CCCN2N=C1	Nc1c2CCCn2nc1	
InChI=1S/C6H9N3/c7-5-4-8-9-3-1-2-6(5)9/h4H,1-3,7H2	InChI=1S/C6H9N3/c7-5-4-8-9-3-1-2-6(5)9/h4H,1-3,7H2
