21
gdb 103085	2.1199	1.42227	1.18833	2.5416	75.28	-0.2266	0.0695	0.2961	1188.4141	0.177997	-461.32944	-461.31854	-461.317596	-461.364499	40.151	
C	 0.2334876354	 1.2616390933	 0.1999287861	-0.262131
O	-0.0427491631	-0.104155737	-0.0890855334	-0.299521
C	 0.6300759628	-0.6083268823	-1.221979966	 0.295872
C	 0.3962373742	 0.1173777289	-2.5249646207	-0.48364
C	 1.9696666146	-1.2545110082	-0.8908173097	 0.040503
O	 2.4738379538	-1.1583709914	 0.4063853967	-0.438448
C	 0.7813282918	-2.1332667648	-1.2042266763	 0.24881
C	 0.1227811939	-2.9743378708	-0.137456759	-0.443805
O	 0.8865798634	-2.7634275712	-2.4575702164	-0.455103
H	 1.3126723853	 1.4549784096	 0.2591460572	 0.12488
H	-0.2046955456	 1.932789427	-0.548964623	 0.120769
H	-0.2248230282	 1.4735267564	 1.1690545384	 0.129452
H	 0.8645176873	 1.1067898632	-2.537288271	 0.120223
H	 0.8164729151	-0.4651707735	-3.3465881505	 0.141301
H	-0.6773840289	 0.2455386763	-2.7070335162	 0.117928
H	 2.7589500639	-1.2238501495	-1.6359346318	 0.109767
H	 1.7494786811	-0.8365996803	 0.9575624033	 0.291855
H	 0.0687893291	-2.4560701983	 0.8198325744	 0.124809
H	-0.9040080477	-3.2275814135	-0.428977478	 0.10691
H	 0.6807223193	-3.9059720456	-0.004022277	 0.129593
H	-0.0065535077	-2.9249526383	-2.7844173572	 0.279975
98.7875	129.6955	148.0725	167.0471	186.1791	211.9577	254.9768	266.2901	292.3852	317.2997	346.5071	379.2096	419.8715	433.1455	481.4115	560.4164	634.8543	705.9735	733.8103	859.7598	927.3443	984.818	1018.3251	1060.3852	1075.6454	1112.4516	1153.7499	1165.8026	1173.8997	1183.5339	1223.8549	1255.2554	1295.5664	1319.0853	1377.5958	1403.7308	1415.8726	1455.3213	1472.4039	1484.9153	1488.2799	1492.9651	1500.8425	1511.1211	1513.1957	3005.6901	3030.0748	3031.4697	3066.7467	3091.2	3095.6488	3117.459	3137.012	3148.9748	3161.0596	3775.3174	3777.4864
COC1(C)C(O)C1(C)O	CO[C@@]1(C)[C@@H](O)[C@]1(C)O	
InChI=1S/C6H12O3/c1-5(8)4(7)6(5,2)9-3/h4,7-8H,1-3H3	InChI=1S/C6H12O3/c1-5(8)4(7)6(5,2)9-3/h4,7-8H,1-3H3/t4-,5-,6-/m0/s1
