19
gdb 109881	2.39601	1.55421	1.1104	2.4224	71.78	-0.2351	0.0771	0.3122	1147.5116	0.156867	-460.11429	-460.105038	-460.104093	-460.148049	34.245	
C	 0.2304158493	 1.3894460724	 0.1207848416	-0.243692
O	-0.2081277111	 0.0949100562	-0.2544695255	-0.245323
C	 0.5928821533	-0.4950871906	-1.231961299	 0.027807
C	 1.9831361103	-1.1220708142	-0.7715362863	 0.084505
O	 2.2592711846	-1.0717418572	 0.5979034738	-0.433153
C	 1.4649372612	-2.4666500291	-1.3063277881	-0.090032
O	 0.307455211	-2.7436496399	-0.5014949996	-0.296716
C	 0.1441428621	-1.8958373096	-1.6555476698	 0.389433
C	-0.8856007814	-2.2757546324	-2.668194017	-0.513051
H	 1.2373711523	 1.3612449654	 0.5535062997	 0.131939
H	 0.2276379007	 2.0769725342	-0.7394383332	 0.101661
H	-0.4736140815	 1.7601149233	 0.8693737498	 0.127675
H	 0.7277730257	 0.1666934128	-2.1026597832	 0.064188
H	 2.8443465538	-0.7157656527	-1.305906163	 0.088769
H	 1.4885357913	-1.4675284486	 1.0275431068	 0.295739
H	 1.9975655873	-3.3150173312	-1.7216852815	 0.105508
H	-1.887064371	-2.0112760355	-2.3128424279	 0.143361
H	-0.7122767103	-1.7487692808	-3.6119005377	 0.125497
H	-0.8609297675	-3.3523535323	-2.8550890099	 0.135886
114.8675	120.827	167.4701	188.197	201.2113	230.9478	253.7781	336.7703	349.2919	465.2104	532.4361	557.9464	627.3404	729.9913	770.88	816.6357	850.8393	920.585	931.9316	1002.4124	1032.109	1044.4274	1097.4408	1122.1143	1153.0887	1173.8488	1188.2876	1203.2704	1233.0606	1262.917	1274.2111	1311.0317	1369.4896	1403.468	1437.976	1467.5118	1479.7179	1484.622	1487.1049	1494.9917	1512.582	2974.8166	2984.8265	3039.3164	3062.6652	3097.5451	3103.6871	3121.4055	3124.0526	3181.914	3763.6724
COC1C(O)C2OC12C	CO[C@H]1[C@@H](O)[C@H]2O[C@@]12C	
InChI=1S/C6H10O3/c1-6-4(8-2)3(7)5(6)9-6/h3-5,7H,1-2H3	InChI=1S/C6H10O3/c1-6-4(8-2)3(7)5(6)9-6/h3-5,7H,1-2H3/t3-,4+,5-,6+/m1/s1
