21
gdb 63701	2.48505	1.56562	1.21119	2.198	78.16	-0.2419	0.0692	0.311	1122.3557	0.180443	-424.199819	-424.190543	-424.189599	-424.233282	35.884	
C	 0.2455569358	 1.5797225234	 0.0160857458	-0.456339
C	 0.0295412865	 0.0779299224	-0.0041319207	 0.385923
O	-1.3467183773	-0.2686268296	-0.1023098988	-0.479615
C	 0.910980311	-0.7827306128	-0.9762893323	-0.350191
C	 1.3273648685	-1.7126098458	 0.2058148952	 0.307217
C	 1.0802909502	-3.1966118261	 0.075813512	-0.503571
C	 2.594779611	-1.2110202544	 0.9229179426	-0.120531
O	 1.8369295809	-0.2470141603	 1.6924896479	-0.295604
C	 0.5862280494	-0.7480045184	 1.1825467741	 0.057463
H	 1.2851369178	 1.8146973674	 0.2558906627	 0.133059
H	 0.0072338626	 2.0200312104	-0.9603111901	 0.101025
H	-0.3990517588	 2.0439844165	 0.7688080446	 0.123714
H	-1.6769726592	 0.0702965865	-0.941727494	 0.275542
H	 0.31344234	-1.2810724334	-1.7439455169	 0.096158
H	 1.7397329708	-0.2536533258	-1.4559180293	 0.094218
H	 1.7432300119	-3.6420335007	-0.6762735431	 0.117291
H	 1.2548768951	-3.7159929788	 1.0244304139	 0.118357
H	 0.0487434085	-3.3950233801	-0.2325424464	 0.128124
H	 3.0664895213	-1.9550672882	 1.5794272136	 0.096375
H	 3.3676534236	-0.7382844566	 0.303637692	 0.096644
H	-0.1227951096	-1.0323311158	 1.9651557672	 0.074743
68.5503	203.39	213.6905	219.8498	222.3888	271.2401	293.7786	343.0051	365.4696	386.1449	423.932	511.8526	590.3643	654.8994	776.	836.7032	864.3352	899.8315	931.0474	937.7096	952.9136	988.5754	1005.9525	1032.2187	1043.6192	1105.3603	1132.0764	1156.2099	1183.5885	1206.7057	1222.4908	1252.0202	1266.5047	1279.3161	1305.8764	1374.512	1380.6418	1399.5305	1414.2315	1466.0158	1483.0169	1492.0973	1495.0934	1496.4704	1523.18	2998.3043	3021.9044	3025.4975	3045.6408	3049.7116	3074.9889	3084.5466	3095.1237	3100.358	3109.0503	3129.9408	3797.904
CC1(O)CC2(C)COC12	C[C@@]1(O)C[C@@]2(C)CO[C@@H]12	
InChI=1S/C7H12O2/c1-6-3-7(2,8)5(6)9-4-6/h5,8H,3-4H2,1-2H3	InChI=1S/C7H12O2/c1-6-3-7(2,8)5(6)9-4-6/h5,8H,3-4H2,1-2H3/t5-,6+,7-/m1/s1
