15
gdb 10646	2.67247	1.87491	1.35751	3.4769	62.68	-0.2681	0.0054	0.2735	929.3215	0.116741	-399.774919	-399.766517	-399.765573	-399.807673	30.04	
C	 0.1255040213	 1.1647021179	-0.303951877	-0.260764
O	-0.088134444	-0.127519131	 0.2590997177	-0.289728
C	-1.3807161606	-0.6231903761	 0.1083727724	 0.205579
C	-1.7561307875	-1.2310971539	-1.244733323	-0.373577
C	-1.4014888437	-2.1311529474	-0.0922569281	 0.10624
O	-0.1926758885	-2.8005809642	-0.046481943	-0.422802
C	-2.3940498896	 0.027803644	 0.9042547212	 0.258911
N	-3.2063286325	 0.5576638911	 1.5353448497	-0.345879
H	 1.1766122834	 1.4045056113	-0.1366835518	 0.142704
H	-0.0869622237	 1.168209887	-1.3803223891	 0.122978
H	-0.5027573195	 1.9150120417	 0.1902043139	 0.144446
H	-2.7896001735	-1.1661903096	-1.5653334857	 0.14198
H	-1.0115477997	-1.1118336471	-2.0245740177	 0.135916
H	-2.2028898571	-2.6860143733	 0.3843063137	 0.132556
H	 0.4975277253	-2.1300159006	 0.052034867	 0.301442
102.557	145.5906	163.1665	189.3155	201.7615	305.183	347.4875	394.4699	443.8553	501.8542	575.5605	637.654	674.2808	824.8321	893.4095	931.5563	997.6625	1037.9484	1094.2641	1106.1609	1152.7628	1183.621	1216.3607	1246.5327	1273.0054	1357.05	1425.8004	1464.1528	1477.8941	1488.2654	1506.6065	2344.4094	3016.0474	3082.4024	3137.5143	3141.9462	3173.3722	3235.7382	3751.2982
COC1(CC1O)C#N	CO[C@]1(C[C@H]1O)C#N	
InChI=1S/C5H7NO2/c1-8-5(3-6)2-4(5)7/h4,7H,2H2,1H3	InChI=1S/C5H7NO2/c1-8-5(3-6)2-4(5)7/h4,7H,2H2,1H3/t4-,5-/m1/s1
