19
gdb 70443	3.09999	1.30021	1.20022	1.9366	75.2	-0.2331	0.0722	0.3054	1127.5987	0.158233	-422.958737	-422.950424	-422.94948	-422.991657	31.7	
C	-0.2335309181	 1.4802914067	 0.121793524	-0.496605
C	 0.0019342574	 0.0035809277	 0.0085448919	 0.243926
C	-0.7652281456	-1.0572147686	 0.7837450703	-0.35388
C	 0.7248229706	-0.9887269633	 0.8890996728	 0.060255
O	 1.3422268773	-1.6540292138	-0.2231444425	-0.304826
C	 0.7707327468	-0.682274107	-1.1347433367	 0.051879
C	 0.0571820444	-1.2813060756	-2.3183401715	 0.056905
C	 0.2968234874	-2.6679995979	-2.7387817249	-0.175927
O	-0.9193032709	-2.294214313	-2.0840993079	-0.227883
H	 0.6632950628	 2.0517898529	-0.1444177912	 0.117921
H	-1.0475122714	 1.8082702191	-0.5360338599	 0.125127
H	-0.512357295	 1.7553479947	 1.1439656503	 0.123458
H	-1.3053987195	-0.6623014241	 1.639859657	 0.107807
H	-1.2287395414	-1.8952147671	 0.2770803646	 0.146087
H	 1.3074377428	-0.8829354387	 1.7967854177	 0.102297
H	 1.565704102	-0.0224399422	-1.5157181853	 0.079259
H	-0.2297689866	-0.5507697805	-3.0777429934	 0.094871
H	 0.1970991327	-2.9387201057	-3.7885302804	 0.112982
H	 0.9667843344	-3.2824294836	-2.1428345649	 0.136346
85.6708	148.2013	173.7357	201.2028	255.08	296.1208	342.6098	431.0299	490.3503	626.5915	665.056	741.899	807.208	824.6867	892.9802	901.8196	932.4981	945.0101	979.9757	994.6572	1023.9588	1039.5239	1080.1946	1091.6451	1096.6558	1114.1758	1142.9128	1164.6934	1172.4462	1237.3002	1258.6207	1284.82	1288.8298	1377.7244	1397.0944	1421.8664	1436.0031	1483.227	1487.8971	1499.3475	1518.1114	2985.4448	3020.7342	3077.9752	3088.6412	3097.3406	3097.8646	3128.8639	3182.3257	3194.5374	3229.2393
CC12CC1OC2C1CO1	C[C@]12C[C@H]1O[C@H]2[C@H]1CO1	
InChI=1S/C7H10O2/c1-7-2-5(7)9-6(7)4-3-8-4/h4-6H,2-3H2,1H3	InChI=1S/C7H10O2/c1-7-2-5(7)9-6(7)4-3-8-4/h4-6H,2-3H2,1H3/t4-,5-,6+,7+/m1/s1
