15
gdb 81898	3.11437	1.33351	1.10221	3.2557	62.51	-0.262	-0.0505	0.2115	1073.151	0.110365	-494.85592	-494.847678	-494.846734	-494.888926	30.296	
O	 0.0667293424	 1.4324808095	-0.1233114659	-0.436732
C	-0.0355467575	 0.0394475982	 0.0379048895	 0.071703
C	-1.4678766592	-0.5151811896	-0.0193290293	-0.087382
O	-2.015696	-0.0164427336	-1.232415485	-0.288826
C	-1.1941661669	-1.1983848468	-1.3228250841	 0.297509
C	-1.82912431	-2.4340325079	-1.830161148	 0.059391
O	-1.2027864348	-3.3864165891	-2.2210388947	-0.247309
C	 0.2851780599	-0.7800933068	-1.2767339199	 0.031605
O	 0.7999149917	-0.0438275737	-2.3379158552	-0.431468
H	-0.6970579573	 1.6983940895	-0.6550658366	 0.302305
H	 0.5527805505	-0.2516697929	 0.9083882505	 0.108709
H	-2.1569382742	-0.7817306339	 0.7742039005	 0.127406
H	-2.9399749922	-2.412825281	-1.8027964088	 0.094223
H	 0.9054185278	-1.6590854549	-1.0689888571	 0.108961
H	 0.8787761496	 0.8659926531	-2.0163038559	 0.289904
88.8924	142.7098	155.3158	223.9266	251.9267	305.1453	314.1707	471.9192	527.542	579.0624	615.1875	669.6849	745.7415	768.2432	828.034	839.6277	922.8	964.6366	1014.2582	1041.7233	1104.2719	1147.267	1163.3367	1208.7231	1243.0063	1261.8672	1298.2233	1328.3976	1388.3374	1403.5267	1425.9864	1442.7855	1815.4984	2905.2956	3056.4157	3119.0885	3188.7177	3724.1524	3749.3512
OC1C2OC2(C=O)C1O	O[C@H]1[C@H]2O[C@@]2(C=O)[C@H]1O	
InChI=1S/C5H6O4/c6-1-5-3(8)2(7)4(5)9-5/h1-4,7-8H	InChI=1S/C5H6O4/c6-1-5-3(8)2(7)4(5)9-5/h1-4,7-8H/t2-,3+,4-,5+/m1/s1
