18
gdb 72376	2.36381	2.02771	1.48626	1.5606	75.55	-0.2468	0.0056	0.2524	949.7315	0.149717	-401.984748	-401.977435	-401.976491	-402.016343	29.091	
C	-0.0918278831	 1.4805486662	 0.094635529	-0.442379
C	 0.017881371	-0.0403120592	 0.0005197633	 0.286008
C	-1.3673273082	-0.7485224384	-0.0254979055	-0.301707
C	-1.2477226809	-1.8387001088	 1.0059661385	-0.059859
C	-0.0883613837	-1.8196095291	 1.6618343544	-0.097449
C	 0.8005113935	-0.7095824579	 1.1827720581	 0.01427
O	 2.0208469106	-1.218134004	 0.5623693802	-0.234238
C	 1.845145739	-1.0148236679	-0.7627950422	 0.104575
N	 0.8181781139	-0.4074838478	-1.1905265617	-0.297446
H	 0.9004162769	 1.9388446969	 0.1506853864	 0.119938
H	-0.5982081077	 1.8798272184	-0.7888721692	 0.129721
H	-0.6600799947	 1.7749354857	 0.983725139	 0.11248
H	-2.1794458669	-0.0526713569	 0.2221006905	 0.106431
H	-1.5829259104	-1.1390786029	-1.0254219767	 0.126271
H	-2.0477416216	-2.5489487397	 1.1877839969	 0.10264
H	 0.2127507045	-2.5045951268	 2.4456117298	 0.104014
H	 1.1225166499	-0.0237745883	 1.9718595967	 0.090367
H	 2.6459954081	-1.4026018995	-1.3838729474	 0.136364
89.9075	229.1028	249.5269	286.3722	320.0947	394.1169	468.6874	560.4056	615.6804	626.2303	724.6321	775.9047	850.7261	866.5324	926.2604	930.6157	949.2259	956.8261	972.1599	984.0522	991.1102	1038.8546	1105.5647	1119.1361	1133.4494	1175.7569	1205.0735	1233.5405	1286.5864	1314.9396	1345.8245	1350.6037	1376.6346	1407.9448	1476.6873	1486.3438	1496.3864	1681.6801	1698.595	3023.8703	3032.9299	3065.3592	3073.54	3104.0333	3115.1696	3183.4965	3205.8688	3212.0848
CC12CC=CC1OC=N2	C[C@]12CC=C[C@H]1OC=N2	
InChI=1S/C7H9NO/c1-7-4-2-3-6(7)9-5-8-7/h2-3,5-6H,4H2,1H3	InChI=1S/C7H9NO/c1-7-4-2-3-6(7)9-5-8-7/h2-3,5-6H,4H2,1H3/t6-,7+/m1/s1
