21
gdb 82504	3.12626	1.37924	1.28025	1.4983	81.3	-0.2297	0.0697	0.2994	1101.0106	0.183513	-387.06617	-387.057911	-387.056967	-387.09836	33.499	
C	-0.0418985679	 1.547568174	 0.0087318796	-0.480075
C	-0.0108917683	 0.0363136405	 0.0237596324	 0.362458
C	-0.8391173856	-0.7136926627	 1.0375578046	-0.34504
C	 0.6746843541	-0.7582561862	 1.1203778038	-0.079607
C	 1.4810805188	-1.8775983295	 0.4962906076	-0.077827
C	 0.8819685459	-3.0244358934	-0.2761022351	 0.079792
O	-0.4609369951	-3.3932087841	-0.1323754305	-0.407562
C	 1.3173925685	-1.7899405095	-1.0240111641	-0.105337
C	 0.3018616413	-0.6759112458	-1.3090554213	-0.310778
H	 0.8917587608	 1.9643660299	-0.388867182	 0.10926
H	-0.8628460366	 1.9257703147	-0.6131984423	 0.113417
H	-0.1848306078	 1.9495063186	 1.0170191193	 0.112002
H	-1.3394812596	-0.1088693968	 1.7887186844	 0.093777
H	-1.3693528046	-1.6074452151	 0.7460539476	 0.138433
H	 1.1468641544	-0.2479910455	 1.9535598162	 0.075876
H	 2.4512732643	-2.0661091211	 0.9435847641	 0.08191
H	 1.5494717153	-3.8816630601	-0.3833811236	 0.083057
H	-0.7743438564	-3.6887250848	-0.9942015937	 0.287011
H	 2.1626581223	-1.8832927359	-1.6987978358	 0.078844
H	-0.6075097459	-1.05697799	-1.7902571067	 0.092051
H	 0.7479107121	 0.0390658429	-2.0079158346	 0.098336
136.427	167.4149	214.0124	247.8516	284.7925	320.9533	360.429	408.548	515.6387	567.9298	642.9596	696.5978	701.6957	746.0653	774.7347	841.0476	855.2612	909.8568	947.6069	949.2476	974.5598	1009.5282	1021.077	1056.609	1078.0196	1081.4351	1094.5311	1118.8324	1122.3856	1133.2354	1201.7487	1248.5315	1262.6162	1288.3835	1297.6632	1318.0721	1342.3513	1373.2335	1398.2205	1418.0979	1456.5179	1477.732	1487.4411	1494.5527	1501.907	3013.8438	3027.2235	3069.1986	3071.4063	3073.9745	3093.5372	3131.6163	3147.932	3153.4235	3168.0548	3258.4404	3797.8123
CC12CC1C1C(O)C1C2	C[C@]12C[C@H]1[C@H]1[C@@H](O)[C@H]1C2	
InChI=1S/C8H12O/c1-8-2-4-6(7(4)9)5(8)3-8/h4-7,9H,2-3H2,1H3	InChI=1S/C8H12O/c1-8-2-4-6(7(4)9)5(8)3-8/h4-7,9H,2-3H2,1H3/t4-,5-,6-,7-,8-/m0/s1
