21
gdb 84702	2.81523	1.55882	1.09234	0.1577	89.76	-0.2247	0.0232	0.248	1160.8836	0.184813	-349.980094	-349.972232	-349.971288	-350.012172	31.724	
C	 0.0162134843	 1.5735017213	 0.1055520463	-0.393584
C	 0.0053758656	 0.0435437791	 0.0062290059	-0.151255
C	 0.7853693149	-0.5271933826	-1.1782834136	-0.063833
C	 1.5553700121	-1.5686097154	-0.8498812611	-0.11547
C	 1.4044344726	-1.9170706972	 0.6143681474	-0.08746
C	 2.6061942455	-2.0507483789	 1.5774507954	-0.233037
C	 2.0884023002	-1.3909206349	 2.888805171	-0.243573
C	 1.0785619967	-0.3766691755	 2.3760914623	-0.2299
C	 0.7000213803	-0.675225247	 1.1363117281	 0.3503
H	 1.0408036901	 1.9484384755	 0.1884179919	 0.119754
H	-0.4452049097	 2.0268134778	-0.7780260506	 0.10996
H	-0.5422855972	 1.9132023328	 0.9836101999	 0.116081
H	-1.0449402352	-0.2836750027	-0.0769180312	 0.087704
H	 0.6787800199	-0.1163016903	-2.1774683998	 0.088762
H	 2.1626410104	-2.1385646536	-1.5450090172	 0.091109
H	 0.7653203135	-2.812026837	 0.7119855448	 0.078797
H	 2.9447418022	-3.0811165861	 1.7189631277	 0.088706
H	 3.4502579451	-1.4680564433	 1.191809798	 0.101216
H	 1.6180142569	-2.1331184761	 3.5507825693	 0.101463
H	 2.8928306869	-0.9268287947	 3.4700775946	 0.098956
H	 0.763191275	 0.4848972588	 2.9540135711	 0.085305
111.2244	172.4227	230.4864	246.3491	275.9461	334.0153	457.2273	516.4673	579.9698	611.0572	672.2463	747.8376	755.2048	833.9486	836.2154	874.2187	898.2281	913.7641	943.2177	969.8852	981.6929	1020.4327	1053.3233	1065.8619	1086.4461	1113.5474	1130.4864	1155.9782	1167.3229	1215.3822	1250.4727	1265.0386	1283.2172	1311.0579	1315.5105	1329.3611	1348.0657	1375.2149	1406.2619	1484.6677	1495.3042	1498.704	1499.5533	1658.6698	1733.8844	2943.2516	2955.4107	2997.8004	3033.398	3040.6962	3060.1306	3094.5147	3100.59	3110.9957	3172.0643	3190.8657	3198.3623
CC1C=CC2CCC=C12	C[C@H]1C=C[C@H]2CCC=C12	
InChI=1S/C9H12/c1-7-5-6-8-3-2-4-9(7)8/h4-8H,2-3H2,1H3	InChI=1S/C9H12/c1-7-5-6-8-3-2-4-9(7)8/h4-8H,2-3H2,1H3/t7-,8+/m0/s1
