17
gdb 18933	3.67285	2.45119	1.99391	1.9346	66.71	-0.2236	0.0738	0.2974	731.2718	0.145192	-363.800255	-363.794284	-363.79334	-363.829893	25.045	
O	-0.0773211089	 1.4043793235	-0.0459976103	-0.449422
C	 0.0131948668	-0.0067199904	-0.078699564	 0.15906
C	-1.3541517503	-0.6436583588	-0.3793723631	-0.087602
C	-1.6374989974	-0.0336860338	-1.7651500498	-0.163615
N	-0.4984873602	-0.8725503602	-2.2809316926	-0.151552
C	-0.83902523	-1.8987851596	-1.1963927908	 0.004228
C	 0.6564029805	-2.1290921343	-0.9690027474	-0.24496
C	 0.6936528502	-0.6293999673	-1.3267436375	-0.054379
H	 0.8101777102	 1.7565691908	 0.0706385362	 0.28325
H	 0.4594932631	-0.3829961001	 0.8518323948	 0.063523
H	-2.086432813	-0.6941387177	 0.4271042347	 0.064931
H	-2.5608095132	-0.3996954856	-2.2231661208	 0.100634
H	-1.5482844	 1.0457915241	-1.8890033315	 0.120618
H	-1.5543594543	-2.6857644643	-1.4397844384	 0.077884
H	 1.0248169987	-2.4418649024	 0.0107652748	 0.094921
H	 1.0700715874	-2.7599354406	-1.7579123375	 0.115389
H	 1.5689768404	-0.1309508034	-1.7443745867	 0.067095
243.9389	260.9796	333.5314	418.7253	454.2807	540.5018	696.2792	739.2165	754.8216	828.3522	846.417	874.0403	897.2593	936.3112	949.2349	972.6252	1002.1897	1015.675	1036.8071	1058.732	1089.8815	1130.1323	1150.3724	1175.5832	1186.0011	1206.9953	1230.2001	1238.5312	1256.3329	1280.3237	1293.1888	1313.9158	1342.4846	1431.7545	1485.4414	1501.8065	3004.9795	3063.9329	3067.401	3101.8841	3110.3972	3114.6428	3130.8273	3139.2311	3825.58
OC1C2CN3C2CC13	O[C@H]1[C@H]2CN3[C@H]2C[C@H]13	
InChI=1S/C6H9NO/c8-6-3-2-7-4(3)1-5(6)7/h3-6,8H,1-2H2	InChI=1S/C6H9NO/c8-6-3-2-7-4(3)1-5(6)7/h3-6,8H,1-2H2/t3-,4-,5+,6-/m0/s1
