17
gdb 10907	3.15784	2.04605	1.43706	1.9279	69.37	-0.2367	-0.0193	0.2174	907.104	0.140846	-363.845891	-363.837796	-363.836852	-363.878117	29.766	
C	-0.2451000143	 1.5690132636	-0.0384052635	-0.417235
C	 0.1023999939	 0.0915792845	-0.0251404093	-0.055871
N	 0.8006222044	-0.5084329648	-1.2282013465	-0.165299
C	 2.141192197	 0.0722081935	-1.2503532704	-0.282489
C	 1.9028173231	-1.0710746809	-0.3186931437	 0.211103
C	 2.5317253918	-2.4248086368	-0.445552216	-0.496389
C	 1.1899673539	-0.5237702994	 0.8873369878	 0.339846
O	 1.2905976219	-0.7067029473	 2.0672258966	-0.312788
H	 0.6279189543	 2.2103527273	-0.1832376167	 0.12331
H	-0.9643272472	 1.7842709772	-0.834873487	 0.133947
H	-0.7023320545	 1.843010916	 0.9171824532	 0.140686
H	-0.8093200543	-0.4966604424	 0.1379356797	 0.117762
H	 2.7001434373	-0.1603216784	-2.1525666955	 0.13158
H	 2.3131134272	 1.0738844773	-0.8661596899	 0.12229
H	 2.7223640087	-2.6664268809	-1.49473798	 0.133892
H	 3.4856623034	-2.4508729899	 0.09146827	 0.139659
H	 1.8866698134	-3.2005045185	-0.0220520385	 0.135997
116.2295	145.891	177.9024	195.8673	221.1506	295.5592	346.9355	473.5261	518.8213	629.8542	643.8001	718.8683	736.7648	822.3876	863.4654	930.2808	960.7614	1033.0129	1074.1273	1084.3133	1099.1515	1125.3425	1130.9803	1167.8329	1245.7665	1287.7376	1343.9464	1370.2473	1406.0372	1415.3608	1481.2117	1487.4349	1490.127	1494.4521	1510.808	1883.6964	3039.2959	3040.0128	3044.146	3106.6636	3111.437	3113.677	3120.0614	3122.2153	3196.9246
CC1N2CC2(C)C1=O	C[C@H]1N2C[C@@]2(C)C1=O	
InChI=1S/C6H9NO/c1-4-5(8)6(2)3-7(4)6/h4H,3H2,1-2H3	InChI=1S/C6H9NO/c1-4-5(8)6(2)3-7(4)6/h4H,3H2,1-2H3/t4-,6+,7?/m1/s1
