15
gdb 22188	1.93153	1.16006	0.73129	2.9432	81.25	-0.2433	-0.0426	0.2007	1479.3689	0.109396	-416.757241	-416.747148	-416.746204	-416.794785	33.805	
C	-0.2198120985	 1.2068290226	-0.2804395638	-0.507615
C	-0.0145805846	-0.2274640162	-0.1842887663	 0.195328
C	 0.1586077673	-1.4183956572	-0.1029209113	-0.012043
C	 0.2755633918	-2.8292236424	-0.0570495037	 0.188852
C	-0.7981849167	-3.716100154	-0.6832946732	-0.435158
C	-1.9013031646	-2.9907517544	-1.3010506946	 0.263351
N	-2.7863626599	-2.4393128214	-1.7971922089	-0.310671
N	 1.3049209664	-3.340782597	 0.5230390925	-0.162605
O	 1.2636313082	-4.7339545686	 0.4787219056	-0.391477
H	 0.611242332	 1.6893148933	-0.8063760392	 0.15917
H	-1.1421491404	 1.4308795462	-0.8261441675	 0.168801
H	-0.2951359886	 1.6614051781	 0.7134377737	 0.159242
H	-0.3259764586	-4.3672061104	-1.4280791985	 0.182836
H	-1.1897630213	-4.3909740799	 0.0866460324	 0.182846
H	 2.0739719974	-4.9806377688	 0.9378418926	 0.319142
21.2487	37.3804	67.1349	120.1804	163.3794	260.2975	296.9477	319.1282	381.6982	398.7699	454.2858	478.2805	503.0777	561.9327	611.2296	720.7515	936.8392	963.7845	994.3083	1042.6163	1048.0493	1051.5813	1214.6819	1290.872	1306.7184	1408.0252	1419.2636	1441.8533	1471.2975	1471.8858	1662.5243	2357.0002	2372.4827	3031.2662	3048.2355	3078.38	3092.8728	3101.4451	3817.8002
CC#CC(CC#N)=NO	CC#CC(=NO)CC#N	
InChI=1S/C6H6N2O/c1-2-3-6(8-9)4-5-7/h9H,4H2,1H3	InChI=1S/C6H6N2O/c1-2-3-6(8-9)4-5-7/h9H,4H2,1H3
