20
gdb 115409	4.85298	0.82683	0.75379	3.3646	80.28	-0.2728	0.0317	0.3045	1526.7652	0.171795	-403.179271	-403.170113	-403.169169	-403.21431	33.28	
C	 0.3145807203	 1.481617657	 0.3808963852	-0.385165
C	 0.0887174324	 0.0157125884	 0.0022663461	-0.201349
C	-1.3808195403	-0.3778181153	-0.0245064156	 0.161281
C	-1.6599974701	-1.8530761991	-0.4087567926	-0.279553
C	-2.78800975	-2.2865928259	 0.5783075366	-0.144261
C	-3.1400447836	-0.9509234017	 1.2955769187	-0.100734
O	-1.9371106543	-0.2219673151	 1.2824890558	-0.25214
C	-3.9361205033	-2.9177534351	-0.058940062	 0.2579
N	-4.8562368262	-3.4044387454	-0.5620970875	-0.324402
H	 1.3816950782	 1.7211334587	 0.4012857003	 0.114298
H	-0.1649837234	 2.1537037856	-0.3392509474	 0.115266
H	-0.1039949265	 1.6943078102	 1.3678404993	 0.138204
H	 0.5131625636	-0.1893988409	-0.9883523176	 0.102779
H	 0.6054964948	-0.6431501293	 0.711229885	 0.103767
H	-1.9268344553	 0.2830862004	-0.7192805721	 0.072317
H	-1.9700271656	-1.9498113995	-1.4505003562	 0.130823
H	-0.7723342145	-2.4731501055	-0.2627183031	 0.119813
H	-2.3826372862	-2.9862738293	 1.3144718181	 0.133008
H	-3.9376887774	-0.4283687892	 0.745179618	 0.111483
H	-3.4566392225	-1.090058389	 2.3309669311	 0.126666
25.0342	109.4666	137.8665	177.1241	213.2379	244.8273	273.6088	374.6861	449.8518	523.1593	556.7279	592.1544	641.4021	772.8212	834.7953	856.3526	936.1198	949.051	981.8043	1025.2338	1035.0426	1059.3393	1095.6082	1111.9745	1137.0755	1149.1011	1216.5502	1243.0533	1287.3908	1294.5019	1309.0839	1328.924	1340.873	1360.2554	1398.1163	1409.1885	1416.9502	1474.882	1496.1186	1497.2817	1508.2068	1514.1446	2356.7447	2954.4421	2989.7461	3026.969	3038.9294	3064.8669	3068.4576	3076.7439	3104.8876	3115.1108	3125.6101	3127.9118
CCC1CC(CO1)C#N	CC[C@H]1C[C@@H](CO1)C#N	
InChI=1S/C7H11NO/c1-2-7-3-6(4-8)5-9-7/h6-7H,2-3,5H2,1H3	InChI=1S/C7H11NO/c1-2-7-3-6(4-8)5-9-7/h6-7H,2-3,5H2,1H3/t6-,7+/m1/s1
