17
gdb 33826	4.35632	1.08788	1.0036	1.3136	81.18	-0.2405	0.0313	0.2718	1197.1285	0.13448	-384.605608	-384.59764	-384.596695	-384.637964	31.37	
C	 0.0418455445	-1.1913962166	-0.0578428246	-0.398373
C	 0.0341548268	 0.0115351162	-0.0112536295	 0.16044
C	 0.0068557879	 1.4307010485	 0.0652070655	 0.187474
C	 0.271169061	 2.336151387	-1.1143548658	-0.319063
C	 1.2016480289	 2.430112335	 0.0603184281	-0.19403
C	 0.5346514848	 3.1858573063	 1.1803864335	 0.474802
C	 1.1472188139	 3.8804348469	 2.3091983591	-0.271836
O	 0.4731255378	 4.6001274826	 1.2643032887	-0.273915
C	-0.6853766621	 2.2455397288	 1.1824097324	-0.385213
H	 0.0506099888	-2.2519370637	-0.1041134509	 0.186114
H	 0.6822761668	 1.8424017157	-1.9877627494	 0.130882
H	-0.4199761482	 3.1462732632	-1.3320784296	 0.1247
H	 2.258058678	 2.2066566054	-0.0213535418	 0.105781
H	 0.6480882422	 3.8828322348	 3.2776983665	 0.117323
H	 2.2279579817	 4.0151128564	 2.3439749696	 0.117557
H	-1.6443905665	 2.6959387959	 0.9108771231	 0.114366
H	-0.7931587865	 1.6893901074	 2.115629135	 0.12299
82.1935	147.6028	209.7452	280.0616	340.1717	393.6145	443.4695	492.5593	521.0763	553.31	578.2859	638.5007	647.6973	790.0255	800.2526	838.9984	880.4736	933.8585	948.0585	982.7717	995.2377	1012.3734	1087.22	1092.5834	1120.6868	1138.1278	1160.8517	1171.6861	1228.9849	1236.5665	1261.1148	1371.7585	1445.2748	1477.1331	1494.2484	1540.8835	2233.696	3060.3008	3077.4631	3118.9445	3122.7283	3163.4494	3194.4754	3217.3865	3503.9628
C#CC12CC1C1(CO1)C2	C#C[C@]12C[C@H]1[C@]1(CO1)C2	
InChI=1S/C8H8O/c1-2-7-3-6(7)8(4-7)5-9-8/h1,6H,3-5H2	InChI=1S/C8H8O/c1-2-7-3-6(7)8(4-7)5-9-8/h1,6H,3-5H2/t6-,7-,8-/m1/s1
