16
gdb 49470	2.20223	1.87543	1.33894	0.8907	74.49	-0.2454	-0.0383	0.2071	984.955	0.122575	-400.661122	-400.652903	-400.651959	-400.69406	30.566	
O	-0.8890202045	 1.4788849421	-0.2294585434	-0.239404
C	 0.2229757413	 1.0318718186	-0.3549597099	 0.131121
C	 1.489521157	 1.7724569982	-0.0078595698	-0.077186
C	 1.6023181691	 2.8747874087	 0.9572887549	-0.040234
C	 0.6671467279	 2.6968878433	 2.1517722069	-0.275727
C	 1.3874717918	 1.3323928907	 2.3927332315	-0.151558
C	 0.6345713057	 0.0949041121	 2.41355299	 0.362205
C	 0.0214812929	-0.9395020113	 2.4436683545	-0.45776
N	 2.3221211228	 1.548414295	 1.2073821493	-0.162287
H	 0.3955068344	 0.0335496245	-0.8104050525	 0.092251
H	 2.1542409882	 1.8229897726	-0.8712002058	 0.118206
H	 2.160843402	 3.7773636053	 0.7319667514	 0.105888
H	 0.8532736178	 3.4037725191	 2.9607976489	 0.116582
H	-0.3960773075	 2.6643684495	 1.9197675289	 0.147708
H	 2.0202240429	 1.3826492062	 3.2830247903	 0.123048
H	-0.5293958317	-1.8475744247	 2.4625961352	 0.207148
87.2245	118.5054	133.2951	222.4981	243.2696	328.3773	399.1879	495.3536	562.0442	624.3316	664.8694	689.8616	711.404	753.7579	776.0998	860.1028	880.8393	951.7294	980.1844	1018.6581	1053.7639	1072.4546	1076.0105	1100.8381	1158.3561	1226.9746	1251.4086	1269.6569	1337.3514	1359.4715	1416.2555	1438.9855	1488.8901	1816.0279	2229.8242	2906.0893	3067.2704	3096.3567	3107.284	3159.592	3169.1791	3500.7668
O=CC1C2CC(C#C)N12	O=C[C@H]1[C@H]2C[C@@H](C#C)N12	
InChI=1S/C7H7NO/c1-2-5-3-6-7(4-9)8(5)6/h1,4-7H,3H2	InChI=1S/C7H7NO/c1-2-5-3-6-7(4-9)8(5)6/h1,4-7H,3H2/t5-,6-,7+,8?/m1/s1
