18
gdb 56684	2.14182	1.56707	1.11463	3.5623	71.18	-0.2609	0.0028	0.2637	1125.9739	0.145921	-439.066076	-439.056613	-439.055669	-439.101052	33.827	
C	-0.1336114599	 1.5686118578	 0.1054272774	-0.463082
C	 0.0187682237	 0.0544034989	-0.0103936124	 0.246761
C	 1.2250909555	-0.4132802921	-0.8687029453	-0.118093
O	 1.9211069942	-0.899523056	 0.2913609283	-0.26614
C	 0.8056465775	-0.6046728474	 1.1535476251	-0.117783
C	-1.3407666087	-0.5818233662	-0.3638603663	-0.072194
O	-1.8704766486	-0.0893040303	-1.5832240386	-0.408893
C	-1.2860485141	-2.0589843737	-0.3884643456	 0.257619
N	-1.239337464	-3.2122931755	-0.4447835106	-0.321868
H	 0.8344712613	 2.0334741971	 0.3120287671	 0.129455
H	-0.5358021203	 1.9922228805	-0.818290083	 0.137484
H	-0.8150136369	 1.8321529272	 0.9225344465	 0.121253
H	 1.0145633452	-1.2207011653	-1.5845428741	 0.103385
H	 1.7768923855	 0.3834148955	-1.3816353802	 0.107437
H	 1.081258812	 0.0726891208	 1.9705696996	 0.104554
H	 0.3614646981	-1.5151392086	 1.5746893261	 0.119419
H	-2.0703774347	-0.2937747469	 0.4027433471	 0.141736
H	-1.3290875859	-0.426136706	-2.306959751	 0.298951
43.152	62.3911	151.3695	196.919	237.7997	251.444	296.2835	329.0457	352.7447	382.5063	444.399	533.7608	606.3818	714.5609	849.7303	871.9223	921.1261	945.3969	975.6544	1003.0374	1020.54	1048.9719	1068.023	1155.1726	1165.4092	1171.1746	1221.3321	1270.2475	1273.2844	1316.6046	1331.9711	1385.9072	1410.69	1416.5682	1490.4704	1498.999	1510.6689	1533.89	2354.2295	2995.8272	3017.4813	3035.1456	3047.2694	3051.3834	3062.2307	3103.7082	3126.6509	3798.5268
CC1(COC1)C(O)C#N	CC1(COC1)[C@@H](O)C#N	
InChI=1S/C6H9NO2/c1-6(3-9-4-6)5(8)2-7/h5,8H,3-4H2,1H3	InChI=1S/C6H9NO2/c1-6(3-9-4-6)5(8)2-7/h5,8H,3-4H2,1H3/t5-/m0/s1
