18
gdb 98593	3.05019	1.06471	1.02474	5.076	71.64	-0.2273	0.0083	0.2356	1262.1729	0.146731	-476.233254	-476.223854	-476.22291	-476.267976	34.35	
C	-0.1419914962	 1.4850252858	-0.180330785	-0.338119
N	-0.1783215552	 0.0363826166	-0.2575101618	-0.333434
C	-1.1790035479	-0.7113731209	 0.2659532031	 0.513772
O	-2.1445038446	-0.1906593121	 0.8559949246	-0.461779
C	-1.0797941169	-2.1723976176	 0.1091205934	-0.320846
C	-1.6891211924	-3.0251568863	 1.2612194884	 0.08878
O	-2.1351456297	-2.4315974402	 2.4242781217	-0.422798
C	-2.4297704876	-2.9368881409	-0.0284983885	 0.088783
O	-3.6213819217	-2.2544470979	-0.1637613827	-0.422785
H	 0.7486877841	 1.8285515618	 0.3563652468	 0.133208
H	-0.1463730892	 1.9334987123	-1.1795120987	 0.133263
H	-1.0314851576	 1.8082655961	 0.3598895963	 0.176426
H	 0.5748037699	-0.44144728	-0.7237968451	 0.253416
H	-0.2128756247	-2.5616765838	-0.4153156841	 0.084989
H	-1.154478223	-3.9464518478	 1.4734000715	 0.112592
H	-2.387422407	-1.5180420882	 2.2061067675	 0.300966
H	-2.3962910596	-3.7984370952	-0.6889955078	 0.112593
H	-3.5075227406	-1.3847116918	 0.2562424806	 0.300971
56.8393	74.9105	142.3758	175.2275	212.9438	224.418	329.4761	397.6292	440.8181	445.5712	505.9402	526.7545	653.0497	669.0397	693.5137	750.4748	786.2123	810.1795	907.7728	982.9041	990.2676	1066.1212	1094.1546	1102.7642	1148.2541	1154.5702	1170.415	1228.9556	1253.4833	1347.263	1365.5085	1389.2785	1436.9617	1441.8281	1492.3873	1499.2796	1507.1618	1580.9098	1674.2044	3034.3816	3088.5168	3147.9005	3149.7828	3163.2226	3163.811	3626.0952	3650.8111	3653.2129
CNC(=O)C1C(O)C1O	CNC(=O)[C@H]1[C@@H](O)[C@H]1O	
InChI=1S/C5H9NO3/c1-6-5(9)2-3(7)4(2)8/h2-4,7-8H,1H3,(H,6,9)	InChI=1S/C5H9NO3/c1-6-5(9)2-3(7)4(2)8/h2-4,7-8H,1H3,(H,6,9)/t2-,3+,4-
