25
gdb 59110	2.01903	1.38893	0.98111	1.6435	88.31	-0.2382	0.0722	0.3104	1358.0253	0.226977	-389.490341	-389.479556	-389.478612	-389.525852	40.299	
C	 0.4377416367	 1.3183716827	 0.1680087638	-0.394632
C	-0.0430280324	-0.1036194105	 0.5019836024	 0.010803
C	 0.2385630294	-0.406905433	 1.9830174297	-0.394631
C	-1.531477725	-0.265298595	 0.1849513056	-0.04095
C	-2.0783435446	-0.2101501473	-1.2739507726	 0.125609
C	-1.1402360935	-0.3475272261	-2.4636534178	-0.404315
O	-2.8298603865	-1.4290063997	-1.0637403031	-0.308591
C	-2.2446275322	-1.6504867178	 0.2412593991	 0.125608
C	-1.4396639758	-2.9411416203	 0.264787867	-0.404315
H	 1.5050155336	 1.4299969548	 0.3861841944	 0.111383
H	 0.2856900302	 1.5706007736	-0.884541519	 0.117247
H	-0.1016708287	 2.0601377641	 0.769411087	 0.112293
H	 0.5367637183	-0.8099538157	-0.1058055581	 0.072395
H	-0.3059338406	 0.2907109785	 2.6308769856	 0.112293
H	-0.0596580951	-1.4206466129	 2.2622916661	 0.117246
H	 1.3052603494	-0.3003124004	 2.2064649477	 0.111383
H	-2.0808611821	 0.4513979034	 0.8059398145	 0.072465
H	-2.7604179385	 0.6326759852	-1.4497576586	 0.071423
H	-0.3816520262	-1.1184286541	-2.3021740532	 0.116801
H	-1.7282602602	-0.6359227242	-3.3410045094	 0.126105
H	-0.6370064131	 0.5969100945	-2.6927738565	 0.115025
H	-3.0300637981	-1.7029694415	 1.0073045215	 0.071423
H	-0.5881548545	-2.9071390738	-0.4204789175	 0.116801
H	-1.0718750661	-3.1698764111	 1.2698300808	 0.115025
H	-2.0894056444	-3.7641408135	-0.0501680195	 0.126105
68.6421	75.3239	169.1523	198.1324	201.5648	227.3893	228.8482	239.1916	272.2985	321.1946	377.9689	390.5134	445.9635	498.113	518.5925	746.5016	789.9773	828.3552	874.5043	888.3477	930.1276	944.0423	970.1516	1003.8423	1015.3169	1042.2448	1070.0554	1102.2654	1104.0743	1152.5477	1160.8986	1187.2448	1217.4285	1254.8609	1282.4848	1310.7375	1332.2022	1351.638	1374.1639	1396.0354	1398.1305	1402.8975	1404.7161	1413.4759	1425.0365	1478.1203	1485.3857	1489.2161	1489.9805	1494.8107	1495.0519	1506.2262	1510.3603	3001.2181	3001.3137	3020.3102	3027.2325	3031.2054	3038.4657	3040.1643	3044.3121	3088.1719	3095.2825	3105.9135	3106.8711	3114.2685	3118.3919	3119.8989	3122.1498
CC(C)C1C(C)OC1C	CC(C)[C@H]1[C@@H](C)O[C@H]1C	
InChI=1S/C8H16O/c1-5(2)8-6(3)9-7(8)4/h5-8H,1-4H3	InChI=1S/C8H16O/c1-5(2)8-6(3)9-7(8)4/h5-8H,1-4H3/t6-,7+,8+
