17
gdb 71135	3.13541	1.64223	1.33208	3.5877	71.62	-0.2355	-0.0119	0.2236	976.5455	0.135711	-421.82106	-421.813819	-421.812875	-421.85243	29.201	
C	-0.0241708809	 1.5022094623	 0.0451988639	-0.47664
C	-0.0352812157	 0.0024220083	-0.0784126789	 0.397038
C	 0.8265247032	-0.6507770778	-1.1546374756	-0.361033
C	 0.3565943789	-2.1173318745	-1.147790675	 0.428141
O	 0.8663544717	-3.0302742972	-1.7455386833	-0.328831
C	-0.8807718707	-2.1773478839	-0.305977831	-0.210571
C	-0.8137230088	-1.4810768052	 1.0688935206	 0.101198
O	 0.3320249937	-0.6583927665	 1.1951992854	-0.329842
C	-1.3985343571	-0.7612026984	-0.0800797079	-0.21289
H	 0.9867979811	 1.8567774565	 0.2684502794	 0.135906
H	-0.3533537803	 1.966450083	-0.8902754057	 0.123214
H	-0.6882170221	 1.8263189426	 0.851038342	 0.131313
H	 0.6303367501	-0.2174037942	-2.1432957172	 0.126573
H	 1.897254184	-0.5789239655	-0.949754048	 0.13652
H	-1.558197885	-3.0166839275	-0.3991206905	 0.110433
H	-1.2322120692	-1.9317406536	 1.9604771713	 0.120839
H	-2.3868014029	-0.3874829085	-0.3093002495	 0.108633
120.4293	220.7869	252.7729	291.9429	374.3553	411.5096	460.8747	551.151	627.1408	639.8269	702.5575	770.3271	793.6652	814.7419	828.6318	880.3779	929.9136	949.3211	957.0348	1005.6112	1027.852	1049.4394	1062.5838	1101.2377	1165.3805	1187.4741	1203.9645	1226.9795	1237.5078	1308.144	1338.5932	1373.2959	1413.6167	1438.1966	1481.2576	1492.1451	1840.1147	3038.6893	3044.192	3110.8332	3116.059	3120.328	3191.0883	3203.6746	3214.4242
CC12CC(=O)C3C(O1)C23	C[C@@]12CC(=O)[C@H]3[C@@H](O1)[C@@H]23	
InChI=1S/C7H8O2/c1-7-2-3(8)4-5(7)6(4)9-7/h4-6H,2H2,1H3	InChI=1S/C7H8O2/c1-7-2-3(8)4-5(7)6(4)9-7/h4-6H,2H2,1H3/t4-,5+,6-,7+/m1/s1
