27
gdb 100764	2.14249	1.01565	0.90069	1.0233	92.79	-0.2476	0.0761	0.3237	1559.6939	0.248743	-390.694835	-390.682593	-390.681649	-390.733001	44.285	
C	 1.0815173426	 1.4520325593	 2.4410539836	-0.232418
O	 1.5124782132	 0.3624356998	 1.6627882358	-0.245962
C	 0.4821797436	-0.5288736283	 1.2441454904	 0.139336
C	-0.3955341102	 0.0857884152	 0.146593735	-0.416432
C	 1.1725317737	-1.8468513249	 0.8226337599	 0.028649
C	 2.1849888827	-1.5961208369	-0.3081239119	-0.409193
C	 1.8037696159	-2.5677724041	 2.0477649567	 0.050404
C	 0.7369874045	-3.0821679855	 3.0293355103	-0.398187
C	 2.7145747957	-3.7399454326	 1.6489961226	-0.404524
H	 0.4925180175	 1.1234011332	 3.3123794254	 0.10027
H	 1.9771309171	 1.9673188406	 2.7985661362	 0.124284
H	 0.4751128146	 2.170154365	 1.8698999129	 0.105556
H	-0.1698229446	-0.7347649305	 2.1071493233	 0.059464
H	 0.2034980073	 0.4195234173	-0.704471746	 0.126163
H	-1.1281625727	-0.6460365168	-0.2087177144	 0.11426
H	-0.9523010081	 0.9486611927	 0.5234974096	 0.112833
H	 0.37828317	-2.4990086003	 0.4296218574	 0.059696
H	 2.5767039527	-2.5342640091	-0.7067742515	 0.110693
H	 1.7237180994	-1.0618564419	-1.1430004693	 0.106654
H	 3.0248028259	-0.9928629753	 0.0477510012	 0.129204
H	 2.4193488842	-1.8231292183	 2.5679291925	 0.08496
H	 0.0900783541	-3.8261278023	 2.547638879	 0.10767
H	 1.2090324711	-3.5671561641	 3.89017265	 0.108498
H	 0.0952621645	-2.2877342251	 3.4192896761	 0.110798
H	 3.0819419837	-4.2563772224	 2.5420832568	 0.105321
H	 2.1713336776	-4.4777308169	 1.0448611498	 0.106418
H	 3.5871207241	-3.4157850176	 1.0770944084	 0.115587
25.4012	67.5577	75.7462	165.6338	187.1745	198.9799	202.6545	220.5879	238.5891	263.5549	302.9103	348.8155	373.945	408.7656	412.3054	461.2916	493.8883	631.1577	767.5396	823.1566	882.2247	924.3359	933.0235	963.8784	979.2006	996.295	1026.6495	1065.6476	1111.9245	1130.2562	1149.8728	1181.3419	1183.8016	1188.4741	1198.905	1224.8361	1294.6478	1337.0789	1357.6889	1360.8208	1381.7241	1389.8634	1398.217	1404.4585	1411.1983	1423.698	1476.935	1480.8716	1486.4837	1488.1293	1495.0961	1501.6734	1502.9279	1506.0461	1510.4725	1514.5982	1524.5009	2971.7921	2979.4369	2994.8443	3022.4427	3022.5969	3025.2444	3036.1578	3043.2923	3052.7307	3083.7502	3092.3806	3104.5596	3107.1862	3107.8607	3111.6963	3117.2651	3125.7786	3129.0301
COC(C)C(C)C(C)C	CO[C@@H](C)[C@@H](C)C(C)C	
InChI=1S/C8H18O/c1-6(2)7(3)8(4)9-5/h6-8H,1-5H3	InChI=1S/C8H18O/c1-6(2)7(3)8(4)9-5/h6-8H,1-5H3/t7-,8-/m0/s1
