19
gdb 84105	2.61227	1.47733	1.13725	2.3513	76.76	-0.2405	-0.0027	0.2378	1146.3812	0.157915	-423.024155	-423.015283	-423.014339	-423.057219	33.939	
C	 0.0369927352	 1.5210499775	 0.0829989386	-0.499523
C	-0.0299807212	 0.0318379445	-0.027919595	 0.337619
C	-0.0884254749	-0.721653372	-1.1311089643	-0.239561
C	-0.1019623695	-2.2115075042	-0.8318942013	 0.043975
O	 0.9964324522	-2.9105947682	-1.3970211278	-0.436029
C	-0.0770936645	-2.2568005657	 0.7090292874	 0.382378
C	-0.6569747443	-3.4258748227	 1.4490822203	-0.498474
O	 1.1774551002	-1.7378118146	 1.1930588586	-0.310601
C	 0.0070383206	-0.8703247168	 1.1746598952	-0.134994
H	 0.9610499309	 1.8370718845	 0.5830683955	 0.137259
H	-0.0018085833	 1.9982249217	-0.8995151618	 0.129616
H	-0.7933915622	 1.9128407342	 0.68380521	 0.128826
H	-0.0516136301	-0.3512389143	-2.1500048965	 0.100981
H	-0.9979446581	-2.7044545762	-1.2275661429	 0.087143
H	 1.7752820035	-2.569809921	-0.936517188	 0.286295
H	-0.1722035452	-4.3522907095	 1.1222770561	 0.139088
H	-0.5063189394	-3.3174878171	 2.5259741439	 0.128808
H	-1.7297203465	-3.5189843766	 1.2496378048	 0.123766
H	-0.3285981335	-0.5416184033	 2.1548148469	 0.093427
130.2433	146.9527	179.9958	196.9606	235.2518	246.1173	315.5548	383.4066	457.7606	492.3887	521.3213	595.1504	599.6208	651.5163	763.968	822.8561	875.4704	882.8104	917.9577	985.7821	1005.5266	1026.7329	1059.6578	1067.482	1074.3516	1106.5588	1186.3651	1220.5339	1256.6095	1276.5972	1314.1452	1340.4207	1405.1741	1413.9865	1432.3094	1461.3822	1478.8706	1484.8944	1487.2628	1497.4481	1706.7468	3020.4225	3035.404	3043.5929	3067.9179	3100.3426	3115.9087	3124.0753	3151.9443	3191.6395	3761.1816
CC1=CC(O)C2(C)OC12	CC1=C[C@@H](O)[C@@]2(C)O[C@@H]12	
InChI=1S/C7H10O2/c1-4-3-5(8)7(2)6(4)9-7/h3,5-6,8H,1-2H3	InChI=1S/C7H10O2/c1-4-3-5(8)7(2)6(4)9-7/h3,5-6,8H,1-2H3/t5-,6+,7-/m1/s1
