16
gdb 56705	2.77954	1.30293	1.03768	3.9892	74.96	-0.2796	0.006	0.2857	1155.4024	0.121419	-400.704014	-400.694789	-400.693845	-400.738132	33.468	
C	 0.5911946928	 1.6096739	-0.1572090431	-0.396412
C	 0.1329268727	 0.1473255504	 0.022133319	-0.226183
C	 0.4103142799	-0.6326377898	-1.1871550428	 0.278222
N	 0.6139234537	-1.2399094736	-2.1488649488	-0.330899
C	 0.7847636521	-0.4832238237	 1.2655018445	 0.191218
C	 1.3335882052	-1.8551201515	 1.2601036827	-0.220032
O	 2.1929284495	-0.7196553883	 1.155276265	-0.256529
C	 0.3319098881	 0.0905383594	 2.5121908696	 0.273732
C	-0.0775245369	 0.5803885613	 3.5303316999	-0.379776
H	 1.6733829049	 1.6486593096	-0.2995201262	 0.156106
H	 0.1049284907	 2.0606476136	-1.0246488389	 0.139106
H	 0.3306404888	 2.1849039725	 0.7339778358	 0.142592
H	-0.9525896534	 0.1281896286	 0.1782759655	 0.141217
H	 1.3885007387	-2.3956537211	 2.2025736092	 0.130997
H	 1.2447356823	-2.4589043613	 0.3600775902	 0.150604
H	-0.425392809	 1.004807964	 4.4402034883	 0.206036
51.9011	128.7603	165.6646	191.0013	224.4668	234.6636	269.122	358.4456	413.3375	500.1936	550.611	553.5308	593.4955	636.1641	680.6494	714.5455	837.5237	863.6019	910.9312	963.999	1024.897	1093.0022	1114.8707	1136.987	1177.1714	1196.5257	1303.4755	1332.0988	1370.2139	1407.9768	1493.0453	1500.8575	1516.4571	2239.689	2360.8586	3044.8336	3059.1159	3099.843	3140.7257	3144.3031	3198.302	3498.745
CC(C#N)C1(CO1)C#C	C[C@@H](C#N)[C@]1(CO1)C#C	
InChI=1S/C7H7NO/c1-3-7(5-9-7)6(2)4-8/h1,6H,5H2,2H3	InChI=1S/C7H7NO/c1-3-7(5-9-7)6(2)4-8/h1,6H,5H2,2H3/t6-,7+/m0/s1
