18
gdb 68565	2.66445	1.61117	1.24632	4.3123	77.87	-0.2313	-0.0091	0.2222	1045.9368	0.147466	-401.925255	-401.917393	-401.916449	-401.957488	30.766	
C	-0.1282382344	 1.5348788825	 0.044566061	-0.519964
C	-0.0420768882	 0.031986642	 0.045189363	 0.257627
C	 0.5130123041	-0.8283493021	-1.1501713735	-0.23831
C	-0.3334183541	-1.9164377602	-0.4077320515	-0.073049
C	 0.4278188752	-1.9971362427	 0.9255202392	-0.077257
C	 0.6189890118	-0.7118253976	 1.2276359429	-0.102966
N	-1.3000300384	-0.814558455	-0.0814257446	-0.057349
C	-2.4487249461	-0.5456908509	-0.7556850776	 0.123443
O	-3.1138417301	-1.3636127938	-1.3611190658	-0.339752
H	 0.8778850888	 1.9606760212	 0.1130696265	 0.133071
H	-0.5925320516	 1.9131758972	-0.8704185524	 0.131944
H	-0.7063711021	 1.8972145888	 0.9005210971	 0.137824
H	 0.0841175786	-0.5403814132	-2.1148226595	 0.112551
H	 1.5937416674	-0.9755603834	-1.2084141278	 0.104246
H	-0.7328285842	-2.8040911215	-0.8886003772	 0.109786
H	 0.7064015612	-2.8956784133	 1.4554279186	 0.117746
H	 1.0976925483	-0.2470964082	 2.0776229213	 0.113225
H	-2.7598582264	 0.5118208602	-0.6316219997	 0.067187
91.5011	165.4617	215.6943	261.3428	293.4864	324.9483	437.5433	507.3434	572.2176	611.2758	634.9514	713.1274	759.4363	798.1885	827.5942	882.8112	900.0309	909.6657	920.7533	1005.4396	1023.0352	1030.6754	1059.3325	1086.9006	1111.9075	1181.8225	1203.8729	1219.8643	1247.4065	1286.6091	1334.6239	1370.9243	1416.1119	1426.6536	1486.3445	1490.5852	1493.9766	1623.2938	1772.9433	2920.7497	3040.2062	3051.7624	3109.182	3115.6322	3126.9495	3181.616	3228.0818	3256.4136
CC12CC(C=C1)N2C=O	C[C@@]12C[C@@H](C=C1)N2C=O	
InChI=1S/C7H9NO/c1-7-3-2-6(4-7)8(7)5-9/h2-3,5-6H,4H2,1H3	InChI=1S/C7H9NO/c1-7-3-2-6(4-7)8(7)5-9/h2-3,5-6H,4H2,1H3/t6-,7+/m1/s1
