21
gdb 40054	3.08698	1.55834	1.47444	1.4692	81.31	-0.2187	0.0856	0.3043	1014.4896	0.185455	-387.09303	-387.085835	-387.084891	-387.124317	30.429	
C	 0.0327945199	 1.5150041836	 0.0379732732	-0.348936
C	 1.3263396955	 0.7072075797	 0.0227217316	-0.351568
C	-0.0040838995	 0.0231895446	-0.0481362169	 0.507495
O	-0.4320748229	-0.7032946678	 1.1038597867	-0.325971
C	-1.1127705046	-1.8654125499	 0.596588427	 0.108295
C	-2.4757388285	-1.4119405706	 0.0384689402	-0.210869
C	-2.0549187956	-0.6557012464	-1.2648944375	-0.215861
C	-0.5102807322	-0.7770709414	-1.2398024539	-0.111836
C	-0.3186731046	-2.2028237533	-0.6747408735	-0.23738
H	-0.2611458868	 1.9617721166	 0.9812760684	 0.120573
H	-0.2234127154	 2.09829885	-0.8410936753	 0.108947
H	 1.9489982551	 0.7430805904	-0.8656164272	 0.107807
H	 1.868295278	 0.6245834916	 0.9584092898	 0.119519
H	-1.1476806393	-2.6102319553	 1.3920803692	 0.071237
H	-3.1251137698	-2.2672426202	-0.1735065993	 0.093371
H	-2.9870172668	-0.7683199167	 0.757570703	 0.107125
H	-2.4658343029	-1.1361426092	-2.1578883529	 0.092697
H	-2.3806098972	 0.3873356988	-1.2699599085	 0.103304
H	-0.0110119247	-0.5392218428	-2.1796278496	 0.064105
H	 0.7230434051	-2.4584010686	-0.4681419695	 0.105041
H	-0.7815409728	-2.9816843631	-1.286614445	 0.092908
109.3034	221.6929	271.0261	313.1555	401.7017	448.4435	494.8705	541.0581	661.5058	764.0838	783.1675	805.6667	817.5504	844.1076	883.5151	892.7931	908.8808	937.0181	951.2829	957.521	973.0335	979.6027	1007.806	1043.6153	1050.9079	1067.7718	1069.2691	1118.1642	1157.9386	1187.4683	1194.0863	1225.6447	1239.0448	1255.3579	1278.674	1288.7284	1327.5594	1336.3874	1352.4762	1394.4545	1450.5278	1478.947	1486.7557	1498.7107	1510.2029	3048.7019	3058.6939	3065.6991	3094.9215	3111.8149	3115.3125	3118.2831	3123.5823	3124.7908	3128.0407	3209.8174	3224.147
C1CC11OC2CCC1C2	C1CC21O[C@H]1CC[C@@H]2C1	
InChI=1S/C8H12O/c1-2-7-5-6(1)8(9-7)3-4-8/h6-7H,1-5H2	InChI=1S/C8H12O/c1-2-7-5-6(1)8(9-7)3-4-8/h6-7H,1-5H2/t6-,7+/m1/s1
