16
gdb 105731	2.31341	1.52039	1.19175	2.1241	70.79	-0.2606	0.0006	0.2612	1073.5218	0.123678	-437.851634	-437.843111	-437.842167	-437.885173	31.357	
O	 0.0679292704	 1.3614510126	 0.0050172177	-0.415032
C	-0.0067668933	-0.0374388025	 0.0455052899	-0.071884
C	-1.4675705286	-0.5397308526	-0.0590958495	 0.010969
C	-1.5870306749	-2.0744223384	 0.2070495341	-0.154159
O	-2.3849273277	-2.1672828129	 1.4109172036	-0.216184
C	-2.6439751753	-0.8957284477	 1.7757141039	 0.127515
N	-2.2183123501	 0.0722064819	 1.0763939395	-0.2957
C	-2.0667587996	-0.1537082705	-1.3350393494	 0.36386
C	-2.5525732699	 0.1197302658	-2.3990313601	-0.468812
H	-0.5973074844	 1.6856065665	 0.6261835549	 0.298676
H	 0.5802245465	-0.4232700999	-0.7944991068	 0.115215
H	 0.4136885951	-0.4492615513	 0.9788075791	 0.085085
H	-2.1019492586	-2.6068925934	-0.5929323843	 0.140253
H	-0.6187878281	-2.5451190627	 0.4025510567	 0.126066
H	-3.2246590292	-0.8006055956	 2.6867994548	 0.152422
H	-2.9809516122	 0.3821679207	-3.3348584842	 0.201712
61.2175	112.8579	164.366	174.6296	243.0714	342.028	398.1104	461.4324	486.5095	516.1881	578.2074	633.0068	655.252	693.6189	787.7225	878.6549	907.2708	952.8324	967.7149	977.9663	1055.3978	1087.4714	1125.5179	1159.778	1184.7007	1227.0327	1272.6574	1319.5997	1377.0983	1383.4212	1435.4703	1500.3386	1513.1691	1698.6447	2239.9756	2958.7956	3060.9285	3076.3762	3131.6133	3215.8629	3500.9955	3770.6854
OCC1(COC=N1)C#C	OC[C@]1(COC=N1)C#C	
InChI=1S/C6H7NO2/c1-2-6(3-8)4-9-5-7-6/h1,5,8H,3-4H2	InChI=1S/C6H7NO2/c1-2-6(3-8)4-9-5-7-6/h1,5,8H,3-4H2/t6-/m0/s1
