17
gdb 76076	2.28715	1.39661	1.17966	2.8828	77.	-0.2255	0.0046	0.2301	1130.5887	0.133545	-417.968597	-417.958843	-417.957899	-418.003323	35.272	
C	-0.0426628528	 1.3896351265	-0.1663825141	-0.324838
N	 0.3292009542	-0.0180819184	-0.0085819579	-0.111733
C	 1.6742479107	-0.4607890079	-0.3631660229	-0.220694
C	 2.6922669283	 0.4347785669	-0.8377277919	 0.388745
C	 3.5431856049	 1.1331400187	-1.3207763669	-0.46762
C	 1.1972705407	-0.4580938507	 1.0778152732	-0.121839
C	 1.8159055975	 0.4757762897	 2.0855129779	 0.4231
N	 1.977971028	-0.0928845047	 3.3202961466	-0.538138
O	 2.1267189279	 1.6296882596	 1.8584920979	-0.36505
H	 0.7575586062	 2.0960951174	 0.0620939655	 0.164655
H	-0.3751214282	 1.5247530214	-1.1996375305	 0.122443
H	-0.8919177252	 1.5883758278	 0.4937690635	 0.121979
H	 1.6916167827	-1.4356709367	-0.8492890597	 0.117409
H	 4.2966883112	 1.7686416817	-1.7156877788	 0.200504
H	 0.9046770403	-1.4259261132	 1.4845394585	 0.087172
H	 1.8410206925	-1.075056175	 3.4818728776	 0.260605
H	 2.4793556413	 0.4399180066	 4.0123442522	 0.2633
52.0948	114.1259	136.0112	160.0506	209.8983	232.2317	254.7333	321.3802	361.8228	431.0148	491.851	579.1688	596.4068	623.7679	661.0015	667.1905	708.6066	786.8096	832.3645	858.2703	981.14	1048.7686	1078.4191	1101.1285	1133.0301	1171.397	1180.2563	1284.766	1341.5516	1371.7022	1426.6389	1450.0248	1484.462	1504.1695	1615.8549	1788.6536	2236.8655	3043.2902	3097.7605	3108.5697	3112.8166	3135.602	3503.9131	3602.5075	3737.2703
CN1C(C#C)C1C(N)=O	CN1[C@@H](C#C)[C@H]1C(=O)N	
InChI=1S/C6H8N2O/c1-3-4-5(6(7)9)8(4)2/h1,4-5H,2H3,(H2,7,9)	InChI=1S/C6H8N2O/c1-3-4-5(6(7)9)8(4)2/h1,4-5H,2H3,(H2,7,9)/t4-,5-,8?/m0/s1
