21
gdb 39637	4.16452	0.97433	0.90825	1.654	86.	-0.2313	0.0157	0.247	1377.4457	0.184279	-387.087996	-387.079554	-387.078609	-387.121997	31.544	
C	-0.034454029	 1.303013287	-0.1455252772	-0.058034
C	 1.4836666021	 1.4763479035	 0.0355337748	-0.29899
C	 1.4101183109	 0.1051551657	 0.7644807954	 0.03032
O	 0.0123043204	-0.0403062107	 0.3776070781	-0.293688
C	 2.2655636523	-1.017533164	 0.2934042956	 0.367677
C	 3.1543775929	-1.6890428204	 1.0301688792	-0.186805
C	 3.8994212687	-2.7300779741	 0.2317200831	-0.246418
C	 3.0530315945	-2.8374014421	-1.0636225748	-0.20748
C	 2.250587385	-1.5143692561	-1.1397273861	-0.308418
H	-0.6505928205	 1.9628937048	 0.4798787966	 0.097617
H	-0.4181759277	 1.3306075908	-1.1717033282	 0.103639
H	 2.0519799387	 1.4522789994	-0.8958156746	 0.112041
H	 1.818316481	 2.3202189613	 0.6402677217	 0.109674
H	 1.4956058823	 0.2056437578	 1.8552502699	 0.068955
H	 3.3540345265	-1.4969218201	 2.0797399176	 0.085066
H	 4.9270718367	-2.3971821549	 0.0243057373	 0.104168
H	 3.9903356824	-3.6876012668	 0.756865316	 0.102915
H	 3.6593723904	-3.0192601181	-1.9545050136	 0.094565
H	 2.3566931457	-3.6765122885	-0.9691112798	 0.108165
H	 1.2321573518	-1.6522257442	-1.5143694576	 0.117588
H	 2.7341587449	-0.7871688502	-1.8083019535	 0.097443
58.0506	81.8239	119.4795	172.4101	212.7861	322.591	379.5402	526.5184	612.9854	655.4229	765.6503	815.6788	829.9182	848.6087	874.8547	905.4142	914.1416	932.7252	942.9935	968.4488	1005.0282	1029.1848	1037.5508	1067.2103	1094.7031	1148.6359	1167.2497	1184.469	1213.4361	1229.9999	1249.3809	1255.7682	1267.7532	1280.6964	1321.9505	1328.4882	1352.1979	1357.1909	1389.6032	1483.6104	1487.4651	1488.5099	1506.6861	1531.5906	1711.6142	2998.7776	3000.7436	3002.1246	3010.8726	3047.4761	3055.8401	3060.1151	3080.4104	3081.9135	3102.7102	3137.3164	3180.7152
C1CC(O1)C1=CCCC1	C1C[C@@H](O1)C1=CCCC1	
InChI=1S/C8H12O/c1-2-4-7(3-1)8-5-6-9-8/h3,8H,1-2,4-6H2	InChI=1S/C8H12O/c1-2-4-7(3-1)8-5-6-9-8/h3,8H,1-2,4-6H2/t8-/m1/s1
