17
gdb 54281	2.18946	1.44315	1.07096	4.5229	72.98	-0.271	-0.0382	0.2328	1158.0164	0.134636	-418.018285	-418.009109	-418.008165	-418.052703	32.911	
C	 0.2898708619	 1.1260859805	 0.5309563871	-0.512495
C	-0.6628265117	 0.2242167522	-0.219902652	 0.349282
O	-1.8422739719	 0.1584873819	 0.0546017339	-0.318054
C	-0.1195636868	-0.6398680677	-1.3414017525	 0.215966
C	 1.2046722958	-0.2859769325	-2.0089906262	-0.428589
C	 1.1926871875	 1.0334113763	-2.6439625229	 0.274639
N	 1.1785679883	 2.0862501746	-3.1198182752	-0.308283
C	-0.5068278706	-2.0865762016	-1.2328485512	-0.261283
N	-1.1254890812	-1.2261973701	-2.2316633798	-0.324776
H	 1.1494174228	 0.560891806	 0.9083531675	 0.140323
H	 0.6793309366	 1.9035502713	-0.1356038	 0.175773
H	-0.2384626902	 1.5929896976	 1.3622245631	 0.153612
H	 2.0308491162	-0.3178549304	-1.2899138715	 0.153255
H	 1.4149700959	-1.0362878748	-2.7766302809	 0.168772
H	 0.1741272598	-2.8414533125	-1.6181746647	 0.126229
H	-1.086244682	-2.3760503254	-0.3611018951	 0.139892
H	-2.0385630703	-0.9260288857	-1.8875305896	 0.255736
70.1833	72.2202	123.912	178.9227	247.5059	280.5408	327.085	359.1538	388.2092	411.6708	479.64	599.9637	611.5955	700.7439	825.6622	891.8317	910.8424	951.6273	972.0798	1000.1272	1015.0568	1044.1515	1099.1228	1123.5165	1190.7152	1222.6068	1291.4243	1318.3756	1353.1764	1377.2508	1390.5423	1447.7548	1468.6932	1477.9726	1497.6652	1788.3913	2362.5122	3038.4312	3051.7654	3099.4045	3102.2467	3107.9038	3158.5755	3202.8529	3464.6747
CC(=O)C1(CC#N)CN1	CC(=O)[C@@]1(CC#N)CN1	
InChI=1S/C6H8N2O/c1-5(9)6(2-3-7)4-8-6/h8H,2,4H2,1H3	InChI=1S/C6H8N2O/c1-5(9)6(2-3-7)4-8-6/h8H,2,4H2,1H3/t6-/m1/s1
