16
gdb 54650	3.9804	1.02299	0.8221	1.8264	72.61	-0.2468	-0.0371	0.2097	1311.7794	0.123467	-437.95561	-437.946841	-437.945897	-437.989985	31.501	
N	-0.020966283	 1.3322284951	 0.0359040299	-0.543771
C	 0.0411306347	-0.0337218023	 0.019012131	 0.327924
O	 1.1001628476	-0.636307846	 0.0183979729	-0.364405
C	-1.2783116721	-0.7306687375	 0.0179617179	 0.222883
C	-1.3684777267	-2.0667946543	 0.0053573301	-0.134701
C	-2.7825750557	-2.5610790774	 0.0110056804	-0.381308
C	-3.6137741389	-1.2667880987	 0.0310761549	 0.405699
O	-4.8119373046	-1.1924246243	 0.040885951	-0.297085
C	-2.6376758145	-0.0724984108	 0.035546829	-0.474769
H	 0.8459624983	 1.8410978505	-0.0176493084	 0.263619
H	-0.8839390459	 1.8383115938	-0.0520222853	 0.261417
H	-0.4977401147	-2.7106572118	-0.0059234781	 0.135198
H	-3.0420700345	-3.163834058	-0.8691735702	 0.148143
H	-3.0279585785	-3.1821206549	 0.882474207	 0.14848
H	-2.822179749	 0.5468571465	 0.9230467958	 0.143175
H	-2.8397933326	 0.5626027201	-0.8373656779	 0.139501
52.7669	79.1275	116.6002	176.709	193.7668	371.6245	389.5099	428.7614	469.631	521.4607	578.92	626.6379	668.6408	744.5542	782.7436	813.3344	862.65	911.1549	990.9416	1012.0955	1079.9229	1091.2297	1128.874	1138.0084	1184.4087	1252.9751	1283.8989	1327.3177	1372.856	1434.0943	1449.6948	1615.6895	1684.5655	1778.1784	1859.0864	3018.9697	3027.5999	3050.8344	3054.2204	3220.2473	3607.7137	3743.9181
NC(=O)C1=CCC(=O)C1	NC(=O)C1=CCC(=O)C1	
InChI=1S/C6H7NO2/c7-6(9)4-1-2-5(8)3-4/h1H,2-3H2,(H2,7,9)	InChI=1S/C6H7NO2/c7-6(9)4-1-2-5(8)3-4/h1H,2-3H2,(H2,7,9)
