21
gdb 112583	3.288	0.95906	0.8995	1.5853	85.59	-0.2497	0.0329	0.2826	1429.4541	0.179389	-387.052704	-387.042614	-387.04167	-387.087923	37.535	
C	-0.4689931678	 1.3877537319	-0.0119889852	-0.380885
C	-0.0995915443	-0.0976099569	 0.0427435056	-0.19172
C	 0.8797099905	-0.4914620336	-1.0477436501	 0.173488
C	 1.1371767228	-1.9875703067	-1.3114929018	-0.359214
C	 0.6920830388	-1.6726150067	-2.770500649	 0.234406
C	-0.5145912543	-2.4352849667	-3.306358972	-0.435748
O	 0.3266872363	-0.3171056045	-2.3798714915	-0.325126
C	 1.7902651545	-1.6692273129	-3.7369140994	 0.342042
C	 2.6935338166	-1.6761670972	-4.5302811727	-0.492495
H	 0.4128030592	 2.0205625882	 0.1373434024	 0.114245
H	-0.8993135319	 1.6372879354	-0.9859339198	 0.138392
H	-1.1994001869	 1.6432795907	 0.7612377118	 0.111101
H	 0.350044257	-0.3447607405	 1.0140367398	 0.095951
H	-1.0023561238	-0.7131793282	-0.0560768837	 0.095326
H	 1.8068158298	 0.0917205824	-0.9489144938	 0.075995
H	 2.1597798912	-2.3424728772	-1.1895877965	 0.117653
H	 0.4474458801	-2.6559549853	-0.7905923619	 0.107342
H	-1.319684795	-2.4234419621	-2.5668460468	 0.117777
H	-0.8759421073	-1.9680700653	-4.2265596875	 0.136628
H	-0.2444989782	-3.472440889	-3.5274266542	 0.126539
H	 3.4905528027	-1.6738776259	-5.2322751236	 0.198305
43.3144	100.0701	130.6581	169.6405	213.6164	230.0945	244.6826	330.7363	358.095	398.3632	437.3546	531.9128	570.2922	620.262	626.1554	660.0517	750.6398	791.2918	877.8434	898.3149	920.3059	949.9582	961.4252	1001.0701	1028.8956	1077.0074	1107.3072	1138.9005	1194.1379	1202.5165	1255.9263	1260.2622	1280.0505	1314.1998	1345.8098	1400.1928	1406.4746	1413.3276	1473.183	1478.9649	1483.4297	1490.2864	1497.6215	1508.69	2230.3386	2995.366	3016.9405	3036.9775	3041.7806	3057.4679	3074.6264	3103.8622	3119.455	3120.4346	3125.3357	3145.706	3500.8548
CCC1CC(C)(O1)C#C	CC[C@H]1C[C@@](C)(O1)C#C	
InChI=1S/C8H12O/c1-4-7-6-8(3,5-2)9-7/h2,7H,4,6H2,1,3H3	InChI=1S/C8H12O/c1-4-7-6-8(3,5-2)9-7/h2,7H,4,6H2,1,3H3/t7-,8-/m0/s1
