20
gdb 108279	3.03779	1.29632	1.06655	3.8426	78.91	-0.2371	-0.0005	0.2366	1193.6775	0.170847	-403.149744	-403.141137	-403.140193	-403.182991	32.838	
C	 0.0538735917	 1.58195989	 0.0482296695	-0.386875
C	-0.004570747	 0.0503100129	 0.0540513443	-0.264614
C	-1.4220409293	-0.4800601554	-0.020497144	 0.378796
C	-2.2838876907	-0.4173874576	 1.2822047339	-0.305579
C	-2.2882851404	-1.974359238	 1.288109096	-0.184857
N	-1.5990316117	-1.9873551571	-0.0452034486	-0.173777
C	-2.4636216388	-1.8821488242	-1.1685460017	 0.387446
O	-3.2149914634	-2.6808587967	-1.6473938304	-0.320326
C	-2.1687484123	-0.3804062198	-1.3769609969	-0.444625
H	 1.0873144261	 1.9345291961	 0.1093099152	 0.121462
H	-0.3851577901	 1.9931378721	-0.8671490935	 0.1218
H	-0.4926842019	 2.0063289399	 0.8974178559	 0.119848
H	 0.5645945478	-0.3526459272	-0.7927690074	 0.105803
H	 0.4759557282	-0.3392602238	 0.9604534999	 0.101805
H	-1.7953447541	 0.0568179233	 2.136096944	 0.111756
H	-3.2711917841	 0.0322723789	 1.1512100196	 0.114241
H	-1.6664992622	-2.4282453911	 2.0629723058	 0.119737
H	-3.2604549721	-2.4724364692	 1.2717203246	 0.132123
H	-3.0674199189	 0.2385963325	-1.4206639839	 0.134167
H	-1.5305734764	-0.1441852756	-2.2330908222	 0.13167
94.7998	109.4227	161.9818	216.8291	221.8614	331.4393	351.5869	371.01	474.1471	540.863	627.4581	677.3764	751.1411	793.9732	820.4166	846.6536	873.5772	932.3597	940.6425	991.8424	1000.5215	1013.3586	1034.9215	1077.5651	1100.51	1139.1193	1187.8022	1202.9241	1211.1822	1229.5361	1255.2502	1284.0014	1314.2043	1325.6047	1365.9147	1415.7786	1440.3569	1477.5298	1490.0931	1501.3681	1507.6383	1509.931	1887.0384	3024.0327	3035.1667	3057.8752	3063.6868	3065.8829	3068.3319	3100.8004	3110.7216	3110.9461	3125.1174	3128.9376
CCC12CCN1C(=O)C2	CC[C@]12CCN1C(=O)C2	
InChI=1S/C7H11NO/c1-2-7-3-4-8(7)6(9)5-7/h2-5H2,1H3	InChI=1S/C7H11NO/c1-2-7-3-4-8(7)6(9)5-7/h2-5H2,1H3/t7-/m1/s1
