19
gdb 37076	3.30468	1.63008	1.34548	2.6204	73.67	-0.2498	0.0845	0.3343	994.7694	0.161735	-423.026429	-423.019307	-423.018363	-423.057624	28.898	
C	-0.0269509266	 1.5502073216	 0.0243567701	-0.207842
C	 1.4749056894	 1.9567039733	-0.0210062988	-0.316932
C	 2.1143704658	 0.8109129147	-0.7705481074	 0.337007
C	 3.5229718692	 0.2734846815	-0.7280906131	-0.160812
O	 3.4031287161	-1.1204812217	-1.0242559002	-0.262145
C	 2.0818033332	-1.5786067181	-0.7251947153	-0.160812
C	 1.2146552805	-0.3453395984	-0.7687403076	 0.337007
C	-0.0520018016	-0.0055735396	-0.0179379518	-0.316932
O	 1.4117707799	 0.4275823175	-1.9659524704	-0.32834
H	-0.5414961551	 1.9519606901	 0.9006427703	 0.100813
H	-0.5315283106	 1.9414497388	-0.8611477163	 0.125224
H	 1.6254067983	 2.9316251499	-0.4941509743	 0.112239
H	 1.9063258399	 2.0092216743	 0.9861737259	 0.105511
H	 4.1963348033	 0.707632487	-1.4738384749	 0.11682
H	 3.9537429033	 0.4407271853	 0.2728655591	 0.092312
H	 1.8253023276	-2.3394565494	-1.4690741317	 0.11682
H	 2.0270590581	-2.0353152997	 0.2767370603	 0.092312
H	 0.0046303892	-0.4347080543	 0.9899952914	 0.105511
H	-0.9607639301	-0.3919454933	-0.4889537252	 0.112239
180.157	209.8011	211.7072	294.5192	331.0394	456.5888	483.2733	540.0413	634.6659	687.9764	696.3965	816.9851	833.7515	881.2703	888.2218	920.4115	931.7423	987.6917	994.471	1020.6895	1037.8289	1071.5183	1119.5858	1163.8153	1189.7903	1209.2582	1222.2374	1234.6068	1238.6888	1268.0914	1324.3623	1332.5867	1341.0774	1382.2325	1389.6793	1447.9531	1481.8433	1484.1004	1499.0868	1502.192	1512.915	2970.0102	2976.7691	3036.6729	3038.4776	3072.4858	3073.0648	3075.4607	3086.2009	3086.5081	3123.008
C1CC23COCC2(C1)O3	C1C[C@@]23COC[C@]2(C1)O3	
InChI=1S/C7H10O2/c1-2-6-4-8-5-7(6,3-1)9-6/h1-5H2	InChI=1S/C7H10O2/c1-2-6-4-8-5-7(6,3-1)9-6/h1-5H2/t6-,7+
