14
gdb 128142	2.24797	1.35836	0.85128	3.8507	79.94	-0.2254	-0.0685	0.1568	1274.8422	0.097849	-432.839923	-432.830146	-432.829202	-432.875337	33.224	
C	-0.2214755353	 1.432138284	 0.1645379791	-0.338254
N	-0.0061223356	 0.0310367044	-0.1347188258	-0.365091
C	 0.7415829871	-0.3750315814	-1.1955224087	 0.411647
C	 0.8361279053	-1.8609420089	-1.3240616718	-0.047362
N	 1.5581946009	-2.2700444069	-2.3469470264	 0.206274
N	 2.1806117832	-2.5774641455	-3.2362375901	-0.191732
O	 1.2953898984	 0.3695331058	-1.9867542604	-0.406344
C	 0.2464170812	-2.8203428175	-0.4797155017	 0.262739
C	-0.2813035528	-3.5998354114	 0.2755984559	-0.421091
H	 0.3054886719	 2.0132636891	-0.5927839393	 0.174031
H	-1.2868190578	 1.6859181943	 0.133174475	 0.128999
H	 0.1725573697	 1.6927260035	 1.153163884	 0.12901
H	-0.4184725112	-0.6740239708	 0.4552039894	 0.253521
H	-0.740877795	-4.2950687388	 0.9337203108	 0.203653
64.452	88.1647	112.1739	122.8396	135.6828	200.5954	281.0781	377.7987	418.5214	458.2607	479.1718	498.0236	517.7691	542.2287	624.5165	718.8693	745.965	822.1109	1032.171	1153.909	1168.4552	1202.0595	1257.8513	1324.1469	1441.89	1495.4938	1498.8722	1569.4757	1764.1903	2197.2355	2238.8453	3028.7817	3080.8191	3155.9304	3498.8938	3633.4949
CNC1=C(N=NO1)C#C	CNC(=O)[C]([N][N])C#C	
InChI=1S/C5H5N3O/c1-3-4-5(6-2)9-8-7-4/h1,6H,2H3	InChI=1S/C5H5N3O/c1-3-4(8-6)5(9)7-2/h1H,2H3,(H,7,9)
