15
gdb 53760	7.42933	0.49509	0.46682	4.3683	77.71	-0.2648	-0.0318	0.233	2164.5983	0.111086	-416.828196	-416.818049	-416.817105	-416.865626	33.41	
N	-0.0177829235	 1.3477724452	 0.0082577885	-0.520329
C	 0.0600169935	-0.0133063824	 0.0013726843	 0.268356
O	 1.1080825097	-0.6287418901	-0.0107769675	-0.331667
C	-1.2370680995	-0.6793171433	 0.0100411615	 0.108583
C	-2.2758364556	-1.2904814435	 0.0166164118	-0.003831
C	-3.5045811259	-2.0694339996	 0.0242121745	-0.360805
C	-3.2178327635	-3.5940469129	 0.0136720494	-0.324895
C	-4.4513128166	-4.3762949783	 0.0210622044	 0.256426
N	-5.4399905861	-4.9740624467	 0.0276036944	-0.296899
H	 0.8395639842	 1.8755914974	 0.0029953261	 0.269438
H	-0.8998051465	 1.8287355788	 0.0183955514	 0.26823
H	-4.1019099298	-1.8188903002	 0.9083490681	 0.161129
H	-4.1184764826	-1.8099184646	-0.8458698948	 0.161116
H	-2.6312315833	-3.8555799023	-0.8723907147	 0.172564
H	-2.6147271944	-3.8646068074	 0.8858494426	 0.172585
32.1834	54.5007	57.8925	99.9912	152.2288	161.3219	195.2378	369.3075	406.7154	407.4093	480.7659	536.6035	569.2109	611.0876	723.8985	765.3398	772.8736	951.1828	1004.6351	1031.0152	1085.4483	1089.8069	1200.1906	1287.858	1309.3787	1351.8269	1373.8879	1465.2025	1474.7819	1608.6256	1776.4123	2352.0055	2365.1844	3040.7764	3064.6243	3073.5296	3107.8668	3603.9236	3746.2757
NC(=O)C#CCCC#N	NC(=O)C#CCCC#N	
InChI=1S/C6H6N2O/c7-5-3-1-2-4-6(8)9/h1,3H2,(H2,8,9)	InChI=1S/C6H6N2O/c7-5-3-1-2-4-6(8)9/h1,3H2,(H2,8,9)
