20
gdb 63419	3.04965	1.17602	1.08154	4.1141	84.35	-0.2649	-0.0016	0.2633	1216.8917	0.170999	-366.049515	-366.040507	-366.039563	-366.083095	34.41	
C	 0.0610169789	 1.6097763082	-0.0244381858	-0.432437
C	-0.043132611	 0.0769962813	 0.0242677232	 0.263369
C	-1.5258173623	-0.3427093899	 0.1193760444	-0.425999
C	 0.6615195775	-0.5863867341	-1.1972525344	-0.271069
C	 1.4213617403	-1.8331419024	-0.6453142672	-0.194972
C	 1.5129212559	-1.5339375231	 0.8447124855	-0.094406
C	 0.7354755299	-0.5118581118	 1.1858543218	-0.071496
C	 0.7216836678	-3.0991767746	-0.8968200019	 0.275163
N	 0.16618995	-4.0949460852	-1.0898001686	-0.335177
H	 1.1056305603	 1.9366461477	-0.0451045539	 0.115035
H	-0.4365888814	 2.00536465	-0.9167098771	 0.117884
H	-0.417481366	 2.0644601004	 0.8497955839	 0.115523
H	-2.0987877882	 0.0750318505	-0.7158635248	 0.115595
H	-1.6325265049	-1.4311654207	 0.0963944388	 0.137664
H	-1.9774570576	 0.0201571436	 1.0489304618	 0.114014
H	-0.035144178	-0.8449144555	-1.997263054	 0.120144
H	 1.4025371684	 0.1019468543	-1.6130652394	 0.108399
H	 2.4121434557	-1.9238687701	-1.1057940998	 0.125749
H	 2.1180436383	-2.1358907562	 1.5114775342	 0.114913
H	 0.6184693264	-0.1344098924	 2.1969418831	 0.102104
58.5447	129.7915	194.3513	239.0535	265.2708	273.3907	329.4374	350.6779	378.0522	464.6008	503.7079	584.1502	625.5014	753.6004	774.2772	795.7875	838.212	913.3358	929.9075	952.8634	964.4579	979.8813	1005.6556	1031.1948	1042.6568	1124.0717	1159.2155	1202.8766	1237.9257	1262.6494	1266.8491	1305.5621	1339.0699	1373.0749	1398.683	1422.6718	1482.795	1485.9116	1492.9703	1502.9708	1508.7419	1690.1721	2349.192	3025.3851	3029.6882	3037.976	3064.9033	3092.8644	3098.0144	3100.8435	3111.6095	3118.0807	3180.5705	3216.3173
CC1(C)CC(C=C1)C#N	CC1(C)C[C@@H](C=C1)C#N	
InChI=1S/C8H11N/c1-8(2)4-3-7(5-8)6-9/h3-4,7H,5H2,1-2H3	InChI=1S/C8H11N/c1-8(2)4-3-7(5-8)6-9/h3-4,7H,5H2,1-2H3/t7-/m1/s1
