17
gdb 17766	5.38107	1.24289	1.20391	4.0782	72.82	-0.3096	0.038	0.3475	1032.7771	0.144137	-326.689822	-326.682927	-326.681982	-326.721475	26.43	
N	 0.0373984129	-1.1549058327	-0.0255407686	-0.310311
C	-0.0082908157	-0.0080116512	 0.109420815	 0.262926
C	-0.0379933508	 1.4449572734	 0.2747796799	-0.397998
C	 1.3530773149	 2.065251242	 0.0913677698	 0.064113
C	 2.001379862	 2.2260590513	-1.320689827	-0.041049
C	 1.0275126074	 3.4109457017	-1.5916383558	-0.226617
C	 1.5213879935	 3.6024557308	-0.126516441	-0.066878
C	 2.9472347765	 3.2711721938	-0.6582349753	-0.218049
H	-0.7714721498	 1.8548052482	-0.4253973225	 0.15084
H	-0.4093114695	 1.6681568817	 1.2823932699	 0.152027
H	 2.0309843451	 1.6440737431	 0.8408579666	 0.084304
H	 2.2795169577	 1.4248326165	-2.0057273549	 0.087515
H	 1.3704487591	 4.1570165787	-2.3127721215	 0.098643
H	-0.0272264791	 3.1838976358	-1.7564848399	 0.093205
H	 1.244979954	 4.3968009257	 0.5688359415	 0.07479
H	 3.6699169228	 2.8922850249	 0.0693384259	 0.096097
H	 3.396836249	 4.0090712063	-1.326625622	 0.096444
58.9845	121.989	301.867	318.0042	390.3068	464.6368	570.0414	604.1201	758.2683	787.5689	825.4949	891.5829	902.8593	906.2543	946.4835	970.3186	1008.1897	1024.9624	1034.0951	1085.9649	1092.416	1112.6707	1143.0778	1150.1965	1190.8511	1213.225	1223.198	1244.9311	1254.8497	1277.1202	1318.889	1421.182	1462.6716	1507.2086	1547.0066	2360.6125	3044.1803	3051.8626	3055.8708	3065.9192	3096.9775	3099.7562	3114.8046	3122.4595	3124.8716
N#CCC1C2CC1C2	N#CC[C@H]1[C@H]2C[C@@H]1C2	
InChI=1S/C7H9N/c8-2-1-7-5-3-6(7)4-5/h5-7H,1,3-4H2	InChI=1S/C7H9N/c8-2-1-7-5-3-6(7)4-5/h5-7H,1,3-4H2/t5-,6+,7-
