23
gdb 60564	2.34793	1.19157	0.87766	1.9125	85.46	-0.2575	0.0847	0.3422	1401.2586	0.204336	-388.259905	-388.249897	-388.248953	-388.295221	37.231	
C	 1.758356211	 0.4381899982	-0.3067626965	-0.394843
C	 1.2489756679	-0.5023902298	 0.7980140054	-0.037907
C	-0.2020710288	-0.190712409	 1.1118215491	 0.108919
C	-0.7394539404	-0.1377011283	 2.4760860719	-0.185233
O	-0.4667955364	 1.0624979241	 1.7486115353	-0.24701
C	 1.4057311432	-1.9594444473	 0.3923191295	 0.017492
C	 2.7430438059	-2.6581364177	 0.4734856542	-0.310947
C	 1.606922585	-3.1047309946	 1.3626818165	-0.001484
C	 1.6829958957	-2.9310819413	 2.863899279	-0.409452
H	 2.8175178493	 0.2587049419	-0.5126700994	 0.114586
H	 1.2055408946	 0.2807417372	-1.2403842076	 0.109899
H	 1.6302604771	 1.4829049551	-0.0103276706	 0.129873
H	 1.8313229558	-0.3055575959	 1.7058696706	 0.0726
H	-0.9023161733	-0.4258071389	 0.3055905846	 0.08531
H	-1.7935105637	-0.3460646221	 2.6565707621	 0.111348
H	-0.0797734461	-0.3305710805	 3.3207742503	 0.111511
H	 0.8110512184	-2.2135277167	-0.4841096114	 0.077255
H	 3.059504695	-3.2913828769	-0.3482345859	 0.107879
H	 3.5551951984	-2.1159573736	 0.9502106668	 0.107891
H	 1.1236233397	-4.0315984501	 1.0627010709	 0.081262
H	 2.2048756746	-2.0119246854	 3.1453187894	 0.116718
H	 0.6859369612	-2.9022515904	 3.3173744036	 0.116951
H	 2.229221696	-3.7646719582	 3.3194196523	 0.117381
47.9161	82.035	134.9765	194.0797	212.0868	230.9995	240.1833	277.0852	345.5823	395.799	441.7312	462.9698	561.1365	772.6957	796.1198	818.0505	860.0667	866.7843	914.203	936.1835	958.5976	973.2746	1021.7431	1037.1043	1069.4753	1080.6642	1110.3112	1121.8122	1152.1961	1153.3685	1171.9013	1183.999	1199.8231	1201.6117	1250.0289	1274.6107	1295.8868	1329.4704	1393.119	1401.5053	1420.0698	1431.004	1447.005	1493.2518	1494.5458	1495.2364	1501.0622	1506.6968	1530.1495	3029.1114	3031.1873	3040.3463	3072.4259	3082.1074	3086.0983	3099.2124	3104.2204	3110.1567	3119.7033	3121.7131	3134.1435	3167.0023	3205.5941
CC(C1CO1)C1CC1C	C[C@@H]([C@H]1CO1)[C@H]1C[C@H]1C	
InChI=1S/C8H14O/c1-5-3-7(5)6(2)8-4-9-8/h5-8H,3-4H2,1-2H3	InChI=1S/C8H14O/c1-5-3-7(5)6(2)8-4-9-8/h5-8H,3-4H2,1-2H3/t5-,6-,7+,8-/m1/s1
