23
gdb 85999	1.90591	1.44944	1.33949	2.5396	85.46	-0.2463	-0.0218	0.2245	1193.3975	0.203191	-388.303546	-388.293224	-388.292279	-388.338438	38.536	
C	-0.4969460388	 1.4225589367	-0.1040507429	-0.407879
C	-0.0717998009	-0.0409953813	-0.0091912659	 0.013054
C	 1.1274539837	-0.4247902657	-0.9248391775	-0.282825
C	 2.059505208	-0.5475740559	 0.3103568729	 0.222835
C	 2.8828729348	-1.8282716784	 0.4547671373	-0.476411
C	 2.9678577188	 0.6458937676	 0.5047446469	 0.117208
O	 2.9717720854	 1.6521129163	-0.160606079	-0.258894
C	 0.7769926863	-0.4571466117	 1.2393951953	-0.010909
C	 0.7829820299	 0.4143832356	 2.4902028657	-0.427863
H	 0.3621913203	 2.0971447552	-0.0530825312	 0.140909
H	-0.9988218521	 1.6045952296	-1.060718035	 0.112686
H	-1.1972184212	 1.6926117362	 0.6937092887	 0.107731
H	-0.952422774	-0.6764489465	-0.1446048889	 0.065192
H	 0.9981787325	-1.3780990766	-1.4433605955	 0.091809
H	 1.4313339692	 0.3385208799	-1.644552134	 0.118083
H	 3.643562544	-1.9074683908	-0.3304295573	 0.12536
H	 3.3967162865	-1.8677397693	 1.4227016397	 0.118981
H	 2.2365171713	-2.708263927	 0.3838758008	 0.121478
H	 3.6757855801	 0.5371231501	 1.3602770383	 0.072935
H	 0.5158129248	-1.4810523548	 1.5295497788	 0.07243
H	 1.0431971397	 1.4543714702	 2.2721590264	 0.130934
H	-0.2066674229	 0.4141379406	 2.9599604104	 0.119093
H	 1.4956622945	 0.03907929	 3.2330810663	 0.11406
64.4261	85.5157	189.7204	218.4809	224.6385	236.6997	245.5664	252.6551	286.116	314.8553	378.4272	420.0791	494.0541	576.393	642.6853	747.8548	781.0925	835.4999	871.4906	909.5391	931.5725	983.335	1002.4622	1015.0607	1036.881	1066.9915	1117.864	1131.097	1156.9126	1205.5036	1209.7663	1236.3837	1267.5145	1284.7895	1308.0974	1364.1302	1369.3966	1403.6948	1408.2872	1413.6152	1432.6594	1473.2065	1489.8682	1491.002	1493.5381	1497.3201	1504.4952	1510.7075	1815.0895	2850.4697	3021.7661	3028.118	3031.0165	3032.3631	3048.9479	3063.861	3086.0875	3089.613	3093.2297	3101.8767	3107.0993	3117.26	3121.7498
CC1CC(C)(C=O)C1C	C[C@H]1C[C@@](C)(C=O)[C@H]1C	
InChI=1S/C8H14O/c1-6-4-8(3,5-9)7(6)2/h5-7H,4H2,1-3H3	InChI=1S/C8H14O/c1-6-4-8(3,5-9)7(6)2/h5-7H,4H2,1-3H3/t6-,7-,8-/m0/s1
