20
gdb 100587	3.92862	0.77826	0.72782	5.4923	78.28	-0.2464	-0.0289	0.2176	1624.3779	0.16852	-440.344542	-440.333884	-440.33294	-440.382024	36.685	
C	 0.177878916	 1.6433032735	-0.0149787394	-0.400737
C	 0.1129404648	 0.1137965541	-0.0219073669	-0.162237
C	 0.6089259523	-0.5414692946	 1.2784786564	-0.105005
C	-0.2599717611	-0.1888924706	 2.5042499517	-0.392353
C	 0.621217827	-2.0654133876	 1.1198569228	 0.428683
O	-0.1473377203	-2.6705395232	 0.4184811733	-0.308275
N	 1.6026695539	-2.6977091886	 1.9079682626	-0.351546
C	 1.8394270383	-4.0617904228	 2.0586289478	 0.164755
O	 1.236436464	-4.9576790274	 1.5381530779	-0.250834
H	 1.1944870519	 2.0009529399	 0.1862423678	 0.111399
H	-0.1249445285	 2.0430986785	-0.9873082405	 0.12129
H	-0.4843133464	 2.0824268066	 0.7373788788	 0.120182
H	-0.9096755794	-0.2266318914	-0.2128853007	 0.124135
H	 0.7136460053	-0.2708324657	-0.8539144515	 0.106531
H	 1.6360263241	-0.2009034814	 1.4745939554	 0.072932
H	 0.1005484548	-0.6876120836	 3.4095448116	 0.114071
H	-0.2527192321	 0.8872311327	 2.6929682717	 0.128142
H	-1.2949182691	-0.5032751133	 2.3374187659	 0.141995
H	 2.2139264619	-2.0937417008	 2.4378267306	 0.254271
H	 2.6927622727	-4.2221103945	 2.7506315447	 0.082598
22.8942	50.8613	74.2795	142.0624	196.0738	217.2095	231.3204	245.5734	272.1819	310.012	346.1222	451.282	570.8141	614.5395	746.221	754.0023	790.618	855.0739	929.0203	971.0913	984.4084	1027.207	1033.0971	1075.1958	1103.7569	1138.9671	1158.3393	1199.5206	1287.2748	1321.4142	1348.3445	1392.3225	1405.1167	1417.4642	1446.7286	1481.0633	1494.8107	1495.1107	1503.1699	1506.6534	1510.9628	1809.6438	1872.7173	2911.6223	2998.1218	3032.808	3041.2041	3044.6459	3080.4789	3102.776	3107.4944	3110.945	3125.382	3611.8371
CCC(C)C(=O)NC=O	CC[C@@H](C)C(=O)NC=O	
InChI=1S/C6H11NO2/c1-3-5(2)6(9)7-4-8/h4-5H,3H2,1-2H3,(H,7,8,9)	InChI=1S/C6H11NO2/c1-3-5(2)6(9)7-4-8/h4-5H,3H2,1-2H3,(H,7,8,9)/t5-/m1/s1
