17
gdb 79904	4.0778	1.43076	1.24338	1.7404	66.86	-0.2468	0.0705	0.3173	995.601	0.138065	-458.901498	-458.894757	-458.893812	-458.932316	27.594	
O	-0.0095050355	 1.4435143426	-0.0832391844	-0.436821
C	 0.0210511756	 0.0408242704	 0.007240937	 0.123406
C	-0.0320515456	-0.641043933	 1.4026931962	-0.1788
C	-1.5039534764	-0.1329473529	 1.5076799685	 0.149488
O	-2.3587102456	-0.8486081013	 2.3694951564	-0.275407
C	-2.5867897499	-2.1471060194	 1.8841456393	 0.016662
O	-1.4016248343	-2.7605041268	 1.4372947876	-0.274265
C	-0.6377305093	-1.8679542525	 0.6618004986	 0.144675
C	-1.363960351	-0.6334805218	 0.0230912403	-0.18292
H	 0.8695616413	 1.7763119352	 0.1226186965	 0.287915
H	 0.7409541273	-0.3962334384	-0.6977665397	 0.071191
H	 0.7265033861	-0.6530504964	 2.1857071754	 0.075542
H	-1.6609194837	 0.9298155608	 1.6732880293	 0.103614
H	-2.987242103	-2.7489067224	 2.7025978823	 0.119942
H	-3.3114430672	-2.1058917127	 1.0529797862	 0.087823
H	 0.0255853562	-2.4585076766	 0.0256759126	 0.08303
H	-2.1023845952	-0.6159317847	-0.7782158922	 0.084925
226.129	230.4266	282.474	292.1227	362.4899	481.8	493.5745	549.7987	605.1467	736.1188	755.5041	823.714	849.5891	909.0382	940.5927	980.571	996.7407	1023.8871	1034.2366	1046.0473	1087.2201	1120.5996	1131.5373	1151.7606	1178.1517	1199.4533	1218.9324	1226.4116	1240.2122	1265.3449	1282.4551	1318.0467	1366.0466	1404.4467	1443.3002	1452.5295	1525.0475	2954.233	3011.8187	3085.851	3109.0086	3114.9693	3119.6182	3154.7888	3821.8161
OC1C2C3OCOC2C13	O[C@H]1[C@H]2[C@@H]3OCO[C@H]2[C@H]13	
InChI=1S/C6H8O3/c7-4-2-5-3(4)6(2)9-1-8-5/h2-7H,1H2	InChI=1S/C6H8O3/c7-4-2-5-3(4)6(2)9-1-8-5/h2-7H,1H2/t2-,3+,4-,5-,6+
