18
gdb 52078	3.60348	0.78732	0.70809	2.013	74.21	-0.2429	-0.0372	0.2057	1566.6013	0.144385	-439.072666	-439.062959	-439.062015	-439.108829	33.87	
O	-0.6257868533	 0.0413698749	-0.345016548	-0.231597
C	-0.1764797212	 1.1378194289	-0.1407193152	 0.14771
C	 1.2089136474	 1.5920964124	-0.5732620238	-0.23183
N	 1.1883231086	 2.9924103729	-0.9693171822	-0.38755
C	 2.4503827243	 3.6797695859	-0.9827645063	 0.225147
C	 3.6370035937	 3.2078652519	-1.8277725259	-0.283592
C	 2.8870379855	 4.4315546728	-2.2318339629	-0.293092
C	 2.7973401151	 4.3505793587	 0.3077754424	 0.138182
O	 3.8463770365	 4.9042851681	 0.5311103364	-0.270755
H	-0.7497386318	 1.9236485035	 0.4005861004	 0.087112
H	 1.8544059445	 1.497065399	 0.3118782543	 0.139399
H	 1.5949170641	 0.8891454297	-1.3269134813	 0.116035
H	 0.6795401956	 3.1234221932	-1.8335145361	 0.231535
H	 4.6169607389	 3.3383339591	-1.3832962386	 0.144762
H	 3.4915210077	 2.3006651392	-2.4028250275	 0.123249
H	 2.2236532139	 4.3763008451	-3.0890909053	 0.121657
H	 3.3549180518	 5.3956868672	-2.0696735516	 0.144309
H	 1.9796502286	 4.3044382775	 1.0604459912	 0.079319
49.0429	50.1389	84.1269	120.8594	171.5918	243.9635	292.9899	311.2787	389.577	422.448	525.7862	631.8516	658.6408	735.6013	782.1701	789.1847	842.7978	943.8455	961.6306	1005.7711	1055.5514	1059.6231	1070.6525	1083.4899	1102.741	1137.8378	1203.958	1235.5637	1285.3828	1317.0765	1335.4035	1404.1831	1411.4712	1445.2603	1470.6917	1478.1862	1496.6968	1813.2439	1840.6109	2888.9033	2895.6159	2990.2337	3038.5586	3132.7912	3141.274	3224.1032	3241.0844	3564.3306
O=CCNC1(CC1)C=O	O=CCNC1(CC1)C=O	
InChI=1S/C6H9NO2/c8-4-3-7-6(5-9)1-2-6/h4-5,7H,1-3H2	InChI=1S/C6H9NO2/c8-4-3-7-6(5-9)1-2-6/h4-5,7H,1-3H2
