21
gdb 84809	2.59871	1.41095	1.02712	1.6472	82.94	-0.2421	0.0188	0.2609	1211.0108	0.183519	-387.083089	-387.074481	-387.073537	-387.116366	33.595	
O	-0.0804512402	 1.2977956212	-0.4307540197	-0.433754
C	-0.083875218	-0.0797783773	-0.1016905342	 0.098685
C	 0.6875437743	-0.4521048355	 1.1480979227	-0.111027
C	 0.091119588	-1.4361936563	 1.8176513638	-0.061385
C	-1.189218213	-1.878326147	 1.1446560301	-0.271581
C	-1.4913530801	-0.714399384	 0.1595717674	-0.051846
C	-2.4585006631	 0.2746854788	 0.7857898764	 0.013674
C	-3.2206010521	 1.2614161274	-0.0674813477	-0.27279
C	-3.9446157988	 0.1104664364	 0.5827151249	-0.285762
H	-0.6268276352	 1.7532611201	 0.218432869	 0.281154
H	 0.3805775486	-0.5609838111	-0.9736287015	 0.089472
H	 1.6331348845	 0.0177311972	 1.3940768358	 0.095945
H	 0.4738584199	-1.9121208557	 2.7142058852	 0.092874
H	-1.0351942211	-2.8253882833	 0.6090955253	 0.104991
H	-2.012429422	-2.0510748992	 1.847315716	 0.103972
H	-1.927699496	-1.0778412129	-0.7763562362	 0.063811
H	-2.1588438959	 0.6234835601	 1.7723480951	 0.08602
H	-3.3944984167	 2.2607911297	 0.317433363	 0.109737
H	-3.0588972761	 1.2226128269	-1.1389216232	 0.123922
H	-4.2791761954	-0.7028121627	-0.0533576793	 0.112837
H	-4.6060721116	 0.3225565471	 1.4152822372	 0.111052
88.7894	96.7975	175.8829	245.795	255.3502	301.6797	335.9039	386.8157	469.7629	565.6551	659.7327	757.24	764.1876	791.3144	830.5162	837.0894	870.422	919.053	945.0677	961.1905	979.5388	988.7997	1018.1158	1057.539	1067.961	1078.4509	1091.1593	1123.487	1145.2143	1150.1301	1199.5354	1216.6108	1224.8967	1234.4556	1277.9679	1290.8676	1314.153	1321.5733	1368.2938	1421.4904	1433.9762	1471.6248	1489.2743	1505.8213	1680.4046	3006.3528	3010.6901	3053.1482	3056.3097	3122.583	3128.9838	3135.2373	3180.9484	3207.8282	3208.7511	3223.1084	3812.0874
OC1C=CCC1C1CC1	O[C@H]1C=CC[C@H]1C1CC1	
InChI=1S/C8H12O/c9-8-3-1-2-7(8)6-4-5-6/h1,3,6-9H,2,4-5H2	InChI=1S/C8H12O/c9-8-3-1-2-7(8)6-4-5-6/h1,3,6-9H,2,4-5H2/t7-,8-/m0/s1
