16
gdb 74287	2.8785	1.23756	1.17007	4.2909	70.66	-0.247	0.0206	0.2676	1121.3872	0.124892	-434.107284	-434.098644	-434.0977	-434.140867	31.865	
C	-0.0009336208	 1.5040167708	 0.0137983961	-0.420605
C	 0.0158848499	-0.0317737094	 0.0264573261	 0.112369
C	 0.8252305036	-0.6381921508	-1.1733986555	-0.141807
O	 1.728342878	-1.5658280319	-0.5512831114	-0.247353
C	 1.5916221376	-1.3684268315	 0.7866959992	 0.486261
N	 2.4855383087	-2.0610339671	 1.5411599607	-0.578095
N	 0.7048108524	-0.55187383	 1.2158132765	-0.362245
C	-1.376111387	-0.5345049136	 0.0090490648	 0.273696
N	-2.4621581567	-0.927968657	-0.0275831039	-0.345808
H	 1.0282303588	 1.8718917282	 0.0383938904	 0.126881
H	-0.4990659309	 1.8852714769	-0.8828018572	 0.129213
H	-0.5259740474	 1.8793426746	 0.8943429955	 0.149948
H	 0.210034657	-1.1770876535	-1.8950038065	 0.144127
H	 1.4097331368	 0.1308048833	-1.6879070327	 0.123724
H	 2.9060059872	-2.8667677973	 1.1073157608	 0.271863
H	 2.243278823	-2.1565929817	 2.5140560873	 0.277831
45.0982	146.7458	182.8378	220.9074	246.135	313.3981	385.8376	402.1269	439.3337	494.2207	506.292	579.5805	622.0759	713.7867	737.0365	810.1627	897.3101	926.9049	949.2507	995.8174	1061.8142	1120.4777	1158.1206	1185.3657	1197.1004	1258.5861	1348.8942	1405.8533	1440.2449	1481.6094	1492.6106	1519.999	1618.0742	1744.4095	2352.8571	3045.6052	3056.9055	3123.2823	3128.5047	3141.0733	3604.0719	3720.91
CC1(COC(N)=N1)C#N	C[C@]1(COC(=N1)N)C#N	
InChI=1S/C5H7N3O/c1-5(2-6)3-9-4(7)8-5/h3H2,1H3,(H2,7,8)	InChI=1S/C5H7N3O/c1-5(2-6)3-9-4(7)8-5/h3H2,1H3,(H2,7,8)/t5-/m1/s1
