21
gdb 69327	2.84794	1.31869	1.25452	2.9465	77.6	-0.2503	0.0704	0.3207	1142.813	0.180944	-424.233868	-424.224665	-424.22372	-424.266923	36.079	
C	 0.0654757559	 1.5002954494	-0.0623607925	-0.487233
C	-0.0618952558	 0.009301496	 0.0821554111	 0.419107
C	-1.3176884559	-0.7172215453	-0.3855268337	-0.281102
C	-1.1371183545	-2.1551326283	 0.1480631677	-0.286666
C	-0.2719845891	-2.0240831934	 1.4328574312	 0.381371
C	-1.1201486485	-1.7776782535	 2.6875425331	-0.436931
O	 0.5946799008	-3.1343881488	 1.6337579504	-0.48036
C	 0.5719712354	-0.7940742553	 1.1378226363	-0.031519
O	 1.1239322928	-0.7631971306	-0.1825976009	-0.301581
H	 1.0175306664	 1.8480431872	 0.3458886791	 0.131113
H	 0.0219904375	 1.7900895131	-1.1181881797	 0.126939
H	-0.7496547018	 2.014173467	 0.458475552	 0.119113
H	-2.1993874939	-0.2320363266	 0.0511894894	 0.099805
H	-1.4346430928	-0.6812242555	-1.4738298732	 0.106123
H	-2.0891113174	-2.6598264705	 0.3377551858	 0.085703
H	-0.5682811339	-2.7508242368	-0.5679473607	 0.124841
H	-1.7410756442	-2.6550049833	 2.9037183697	 0.107851
H	-0.4796538214	-1.5930135663	 3.5552047133	 0.124652
H	-1.7905866539	-0.9211907571	 2.5616516685	 0.117896
H	 0.0488736033	-3.9048357122	 1.8235652721	 0.274287
H	 1.197039821	-0.3697454294	 1.9209133912	 0.086591
121.9618	182.8981	191.0704	229.983	244.6687	261.7101	326.5834	334.959	374.6314	412.8658	433.3067	545.0994	555.6294	606.6703	715.2125	770.9204	854.1735	860.6948	923.7088	933.1843	952.3422	988.6738	995.6842	1026.249	1041.4508	1077.3642	1131.0081	1163.4911	1185.9235	1216.402	1230.3389	1247.3643	1296.2313	1319.2522	1340.2084	1392.7561	1403.9265	1412.565	1457.4194	1476.8676	1485.9608	1488.6586	1493.9041	1497.6467	1503.8647	3026.4648	3030.64	3035.7379	3062.4369	3074.6714	3093.0387	3095.135	3110.8912	3122.3162	3123.6059	3137.5992	3807.0601
CC12CCC(C)(O)C1O2	C[C@]12CC[C@@](C)(O)[C@H]1O2	
InChI=1S/C7H12O2/c1-6(8)3-4-7(2)5(6)9-7/h5,8H,3-4H2,1-2H3	InChI=1S/C7H12O2/c1-6(8)3-4-7(2)5(6)9-7/h5,8H,3-4H2,1-2H3/t5-,6-,7+/m1/s1
