23
gdb 115629	2.15907	1.38677	1.01015	1.0201	87.28	-0.2406	0.0818	0.3224	1311.5929	0.204546	-388.261816	-388.251986	-388.251041	-388.296527	36.775	
C	 0.1769088732	 1.4910122957	-0.3021207152	-0.237592
O	-0.2896179975	 0.228111499	-0.7208086888	-0.243343
C	 0.73104842	-0.6193477238	-1.1792882577	 0.091105
C	 1.6522406518	-1.3315405029	-0.1420558229	-0.252528
C	 1.4589394936	-2.6556214797	-0.9406140815	-0.314503
C	 0.2657832025	-1.9980773506	-1.6462739794	 0.327212
C	-1.1616535503	-2.4638562538	-1.5770697052	-0.337614
C	-0.4552569393	-2.3600098929	-2.9110892506	-0.072685
C	-0.8474206175	-1.2819480793	-3.898167583	-0.414031
H	 0.8645430445	 1.4129183759	 0.5531831369	 0.10827
H	 0.6983529385	 2.0215813974	-1.1145495254	 0.103516
H	-0.6943333878	 2.0769007032	 0.0007056196	 0.125662
H	 1.3270752201	-0.102527558	-1.9507860943	 0.058291
H	 2.6708523205	-0.9570452997	-0.0193189194	 0.092382
H	 1.1584370721	-1.3723899998	 0.8323504385	 0.110342
H	 2.2944054827	-2.8620459761	-1.6174007126	 0.100045
H	 1.2537240641	-3.5564658921	-0.3570580464	 0.101438
H	-1.3544372081	-3.4504314685	-1.1665921379	 0.102119
H	-1.9144647184	-1.7184277953	-1.3425419225	 0.123894
H	-0.159693916	-3.3061493515	-3.3605214329	 0.075504
H	-1.1131097875	-0.3581386937	-3.374730935	 0.129455
H	-0.0274367738	-1.0524671792	-4.5885963594	 0.109872
H	-1.7115361775	-1.5879374642	-4.4983106649	 0.113189
79.1759	91.4824	148.5349	161.863	202.4775	215.8692	231.8113	316.3233	388.6521	414.9973	444.8308	509.4363	576.5668	728.2214	787.9859	797.8543	869.6595	909.2013	923.0793	936.9791	965.4098	984.9118	1034.1218	1051.7351	1090.8138	1109.3535	1124.7407	1134.3653	1162.3501	1181.9961	1185.5462	1190.8472	1222.1231	1225.3936	1249.1971	1270.5523	1283.4542	1339.3713	1392.8864	1409.6737	1430.0024	1473.8407	1481.2986	1487.7133	1492.6917	1497.8029	1499.9782	1507.9036	1510.7165	2951.1691	2975.0888	3022.7711	3024.834	3046.6025	3062.4832	3083.2801	3095.9825	3100.6707	3113.3111	3122.0975	3122.6018	3126.2683	3212.1599
COC1CCC11CC1C	CO[C@H]1CC[C@]21C[C@H]2C	
InChI=1S/C8H14O/c1-6-5-8(6)4-3-7(8)9-2/h6-7H,3-5H2,1-2H3	InChI=1S/C8H14O/c1-6-5-8(6)4-3-7(8)9-2/h6-7H,3-5H2,1-2H3/t6-,7+,8+/m1/s1
