17
gdb 126783	2.69082	1.34352	0.96515	2.8362	72.29	-0.183	0.0509	0.2339	1214.3374	0.136496	-451.344078	-451.335035	-451.334091	-451.378591	32.995	
C	 0.191713648	 1.5887696468	 0.0432752774	-0.379251
C	 0.0164886872	 0.0695422111	 0.1109449393	-0.135186
N	 0.6754082817	-0.5303478194	 1.2484053644	-0.049382
N	 2.0689053317	-0.6566827306	 1.2784470322	-0.358971
C	 2.3105159017	-1.0829338459	 2.4692624031	 0.487372
O	 3.5067988394	-1.3833247131	 2.987632358	-0.416991
N	 1.1860027444	-1.2322882758	 3.2322216533	-0.414057
C	 0.0819319332	-0.8319617374	 2.4540296642	 0.4513
N	-1.1665754269	-0.7461129253	 2.7198177155	-0.622437
H	 1.2522439721	 1.852100278	-0.0029000561	 0.128547
H	-0.301995903	 1.9880560638	-0.8483792887	 0.113952
H	-0.2487135848	 2.0661514077	 0.9232638573	 0.132456
H	-1.0395445298	-0.1948226242	 0.2045564717	 0.148783
H	 0.411745567	-0.4040027385	-0.7938204021	 0.114472
H	 4.163942066	-1.2189677354	 2.2985081025	 0.320673
H	 1.1511538589	-1.5177882107	 4.1942350677	 0.274822
H	-1.3746968168	-1.0487718714	 3.6663747901	 0.203898
41.9899	67.7539	162.597	206.8439	298.4477	307.5696	337.2207	349.4926	402.5374	428.5351	561.6053	630.0055	639.2708	675.9978	678.0856	730.14	788.2619	835.2836	964.9979	1033.6192	1062.2782	1074.6584	1101.6326	1196.1187	1226.4533	1238.8846	1310.4008	1355.1598	1392.93	1408.3518	1433.8765	1474.1922	1490.8986	1504.4005	1569.883	1699.3316	1755.136	3041.2708	3052.0743	3108.7361	3114.9356	3131.437	3538.8836	3697.5563	3794.8872
CCN1N=C(O)NC1=N	CCN1N=C(O)N[C@@H]1[NH]	
InChI=1S/C4H8N4O/c1-2-8-3(5)6-4(9)7-8/h2H2,1H3,(H3,5,6,7,9)	InChI=1S/C4H9N4O/c1-2-8-3(5)6-4(9)7-8/h3,5H,2H2,1H3,(H2,6,7,9)/t3-/m0/s1
