19
gdb 68423	2.62118	1.63668	1.26056	1.8808	80.82	-0.2443	0.034	0.2783	1055.0869	0.158827	-385.838158	-385.830055	-385.829111	-385.870329	32.514	
C	-0.0170614971	 1.5245378046	 0.043933162	-0.504615
C	 0.0536011654	 0.0179291338	 0.0474003823	 0.287916
C	 0.9328164294	-0.8175259701	-0.9432824656	-0.277733
C	 0.6347898112	-1.9201369175	 0.0967659575	 0.104856
C	 0.7283553354	-0.8251561215	 1.1828230164	-0.276382
O	-0.782202915	-2.1337742695	-0.0461763685	-0.285874
C	-1.2778042867	-0.7712292267	-0.0967451898	-0.105812
C	-2.2632832146	-0.5143145837	 0.9461354011	 0.335305
C	-3.0802685618	-0.2732433983	 1.7944654666	-0.438234
H	 0.9780659967	 1.9635221249	 0.1649834889	 0.118145
H	-0.4361252779	 1.8990980612	-0.8972828299	 0.118963
H	-0.651399522	 1.8866005981	 0.8595889719	 0.13353
H	 0.5672880633	-0.9751304838	-1.9615042028	 0.098488
H	 1.9735686761	-0.4875090898	-0.9477109479	 0.099996
H	 1.1424510679	-2.8816876971	 0.1420035863	 0.082388
H	 1.7504029445	-0.4980738362	 1.3831903496	 0.09881
H	 0.1736152145	-0.9838997621	 2.1095459695	 0.113184
H	-1.7363363396	-0.5931947263	-1.0789109911	 0.100321
H	-3.8055244997	-0.0733477002	 2.5441575636	 0.196747
125.3556	136.6725	218.9794	273.7787	290.854	353.3961	444.7627	477.9378	520.9132	556.2994	618.6475	627.073	659.5603	691.2577	814.8009	860.1159	864.7825	910.6907	924.4929	949.9232	964.7445	991.6495	1018.854	1041.6433	1068.743	1104.6262	1131.3671	1190.5932	1225.1431	1234.4209	1251.2486	1256.7775	1309.0624	1334.9015	1362.4177	1415.4817	1473.056	1492.4536	1494.5677	1511.0496	2234.6201	3009.8716	3029.2967	3061.4177	3074.4296	3093.7771	3106.0939	3128.3722	3140.2871	3143.1469	3502.3908
CC12CC(C1)OC2C#C	C[C@@]12C[C@@H](C1)O[C@H]2C#C	
InChI=1S/C8H10O/c1-3-7-8(2)4-6(5-8)9-7/h1,6-7H,4-5H2,2H3	InChI=1S/C8H10O/c1-3-7-8(2)4-6(5-8)9-7/h1,6-7H,4-5H2,2H3/t6-,7-,8+/m0/s1
