18
gdb 57944	3.28651	0.93699	0.88752	3.1903	70.46	-0.2718	-0.0193	0.2525	1391.8929	0.144101	-476.262703	-476.252418	-476.251474	-476.299194	35.787	
C	-0.6642019038	 1.2847082675	 0.2145274043	-0.395779
C	 0.2472519528	 0.0761204439	-0.0312021503	 0.046592
O	 1.2195258486	 0.3786737822	-0.99963475	-0.437794
C	 0.9379833134	-0.3803370372	 1.2473217911	 0.426337
O	 2.1380396073	-0.432584537	 1.366074003	-0.376217
O	 0.0547176539	-0.7299670874	 2.2028955094	-0.233607
C	 0.5301709201	-1.1744158657	 3.4512439007	 0.382145
C	 1.1997592473	-0.1018771563	 4.2604702279	-0.478749
N	 0.2580942909	-2.3662037811	 3.7382629114	-0.428314
H	-0.0851749546	 2.1255946612	 0.6080380098	 0.123657
H	-1.1064824768	 1.5913514305	-0.7361680618	 0.136802
H	-1.4645074603	 1.0371891618	 0.9157545862	 0.129898
H	-0.3731796996	-0.7698908019	-0.3679148005	 0.11056
H	 2.0766326139	 0.1830158125	-0.5941380239	 0.29601
H	 1.4366332704	-0.4668090443	 5.2613110508	 0.134222
H	 2.1197096317	 0.2156434663	 3.7636559608	 0.177702
H	 0.5426025308	 0.7699160319	 4.3424296197	 0.150223
H	 0.5767258842	-2.5874247967	 4.6813134215	 0.236311
39.1998	61.9764	70.2279	151.5052	167.2013	225.5187	244.4362	314.3336	347.0909	371.4161	437.1804	469.7696	516.6221	574.4082	658.3881	750.1566	821.2582	868.4376	922.2833	962.1584	1001.5282	1051.7801	1064.0722	1080.1555	1104.728	1168.6437	1235.7747	1286.3	1316.6173	1357.5765	1399.9265	1402.1854	1438.3157	1469.3468	1488.7503	1492.4249	1498.782	1772.205	1807.3944	2982.4052	3048.4327	3050.707	3123.3042	3125.382	3138.3996	3147.3721	3497.6626	3729.5022
CC(O)C(=O)OC(C)=N	C[C@@H](O)C(=O)O[C](C)[NH]	
InChI=1S/C5H9NO3/c1-3(7)5(8)9-4(2)6/h3,6-7H,1-2H3	InChI=1S/C5H9NO3/c1-3(7)5(8)9-4(2)6/h3,6-7H,1-2H3/t3-/m1/s1
