16
gdb 32715	6.9407	0.73432	0.67184	3.3784	81.75	-0.1989	-0.0158	0.1831	1614.5217	0.125147	-434.09659	-434.087965	-434.087021	-434.131338	29.854	
C	-0.370611132	 1.2831677704	 0.0337452888	-0.251162
O	 0.447461798	 0.1208727488	 0.1328668079	-0.188529
C	 0.6521610189	-0.5472959865	-1.0113184803	 0.117924
N	 1.2821492313	-1.6461916192	-0.9934332475	-0.339368
C	 1.5681562275	-2.2925671725	-2.1798891387	 0.34219
C	 1.6989841345	-1.9433103159	-3.5102284718	-0.153728
N	 2.0456012257	-3.0356232328	-4.2671045447	-0.250046
C	 2.1311103132	-4.037351015	-3.4200384459	 0.012356
N	 1.862937904	-3.64108744	-2.1455123307	-0.30048
H	 0.0184898037	 1.9826572802	-0.715518643	 0.132672
H	-1.4052460632	 1.0207067134	-0.2157247783	 0.134358
H	-0.3466682046	 1.7584948202	 1.0145279416	 0.151127
H	 0.2473291845	-0.0673776698	-1.9119048217	 0.099516
H	 1.5958153023	-0.9640784611	-3.9526401816	 0.096591
H	 2.3817657662	-5.0576018369	-3.6683690878	 0.127966
H	 1.8604619299	-4.1983067333	-1.3070710964	 0.268612
39.5456	78.1476	107.8966	159.4926	173.9278	312.8384	391.0428	402.3396	514.5205	558.1739	683.5352	695.9538	791.9938	795.7001	827.1727	933.1404	978.0175	1026.786	1065.4369	1105.2262	1152.169	1163.9772	1176.661	1248.2923	1282.0564	1304.7454	1369.0487	1416.8537	1424.3169	1485.503	1493.2129	1494.417	1500.3313	1590.7325	1742.1335	3016.7724	3037.0299	3085.0025	3150.2898	3243.3614	3252.7839	3662.8231
COC=NC1=CN=CN1	COC=Nc1cnc[nH]1	
InChI=1S/C5H7N3O/c1-9-4-8-5-2-6-3-7-5/h2-4H,1H3,(H,6,7)	InChI=1S/C5H7N3O/c1-9-4-8-5-2-6-3-7-5/h2-4H,1H3,(H,6,7)
