20
gdb 112015	2.52233	1.50833	1.13111	2.0259	80.72	-0.2253	0.0061	0.2314	1159.8082	0.170424	-403.114528	-403.105654	-403.10471	-403.148002	33.56	
C	-0.0346004142	 1.3999257782	-0.0624714256	-0.2317
O	-0.048697356	 0.0250129503	 0.2396306269	-0.241447
C	-1.306113172	-0.5952531786	 0.0438362867	 0.077868
C	-1.6791092209	-0.8875648226	-1.4050324031	-0.126065
C	-1.9733684813	-2.1739892273	-1.5928690516	-0.043133
C	-1.7639377404	-2.9495970755	-0.3317278131	-0.147789
N	-0.3315826494	-2.9033191328	 0.0921657605	-0.349813
C	-1.3177694148	-1.9808813167	 0.7007642116	 0.293909
C	-1.6295887016	-2.0757278453	 2.1701490728	-0.499168
H	 0.9571678061	 1.7767022049	 0.1999052942	 0.127402
H	-0.2107711043	 1.5998277818	-1.1300620035	 0.105407
H	-0.7898053321	 1.9541692507	 0.5186452174	 0.098995
H	-2.085355425	 0.035814217	 0.5115438418	 0.060117
H	-1.6854271846	-0.1203110957	-2.1702074152	 0.099021
H	-2.2725316132	-2.628783268	-2.530135765	 0.101076
H	-2.3596257308	-3.8235912894	-0.0902202448	 0.08653
H	-0.1681321262	-3.6564554437	 0.7610101469	 0.220727
H	-0.8454491361	-1.5862145483	 2.7587262067	 0.136391
H	-2.5803391409	-1.5857485624	 2.407856752	 0.12114
H	-1.6991573024	-3.1187698967	 2.4966408645	 0.110532
81.1964	123.5203	168.9889	209.2304	216.7659	287.2461	301.9186	349.4096	464.4095	503.1733	553.7453	604.1859	719.3237	767.6779	818.6914	865.9327	913.7843	920.6911	954.9523	973.7956	993.577	1029.0246	1050.2394	1063.8413	1116.3394	1122.2586	1150.6895	1173.8415	1181.5861	1220.8695	1274.6494	1287.8029	1346.2388	1369.2118	1387.2956	1411.3688	1442.8196	1477.9182	1484.1913	1489.0267	1501.5756	1509.4907	1671.8135	2918.6279	2968.2946	3016.9814	3024.8005	3090.1151	3096.7377	3111.1563	3167.2749	3189.6533	3214.3455	3455.1868
COC1C=CC2NC12C	CO[C@H]1C=C[C@H]2N[C@@]12C	
InChI=1S/C7H11NO/c1-7-5(8-7)3-4-6(7)9-2/h3-6,8H,1-2H3	InChI=1S/C7H11NO/c1-7-5(8-7)3-4-6(7)9-2/h3-6,8H,1-2H3/t5-,6+,7-/m1/s1
