22
gdb 118651	1.73166	1.01135	0.67273	4.6779	85.19	-0.2328	0.0338	0.2666	1733.3639	0.193667	-400.522883	-400.511926	-400.510982	-400.559821	38.295	
C	 0.0030094273	 1.5760073863	 0.0527589109	-0.389618
C	-0.0860864217	 0.0535299058	 0.0728972134	-0.115328
N	 0.7641496522	-0.4978013667	 1.1244679176	-0.285287
C	 0.7888380727	-1.9499151333	 1.1871269001	-0.127044
C	 1.9706563156	-2.4106124623	 2.0646374382	-0.155603
N	 3.2214875933	-1.9557226077	 1.4725778553	-0.290375
C	 4.3765091081	-2.1224215777	 2.3493923127	-0.317477
C	-0.4751071754	-2.4697897205	 1.7388447869	 0.30536
N	-1.4603736395	-2.8976489327	 2.1643311175	-0.331782
H	 1.0250132545	 1.9085825708	-0.1627374755	 0.113455
H	-0.6514129142	 1.9912000809	-0.7190224512	 0.118233
H	-0.2902911856	 1.99112219	 1.0208884932	 0.132149
H	-1.1191621	-0.2538411952	 0.2759124241	 0.12333
H	 0.1690187774	-0.3502994293	-0.9256867513	 0.076089
H	 1.7298336275	-0.2047736803	 0.9979264971	 0.229239
H	 0.9022900892	-2.4189889664	 0.1875494294	 0.092948
H	 1.8664522945	-1.9417931232	 3.048763353	 0.133876
H	 1.9147658516	-3.5019533074	 2.2100783183	 0.103775
H	 3.3842428818	-2.4584162248	 0.6051344376	 0.221844
H	 4.2590066442	-1.48304662	 3.230556374	 0.133347
H	 4.527194326	-3.1565969388	 2.7028270982	 0.103957
H	 5.2809933906	-1.8047104172	 1.8232989405	 0.124911
66.4529	81.7447	92.6696	112.4683	130.5206	180.7954	227.308	249.6532	280.8757	311.0984	336.763	399.3011	467.6603	575.0822	611.07	781.0764	800.523	821.317	870.0401	946.0642	966.6145	1005.2189	1044.2038	1066.5736	1125.5695	1141.1285	1163.1732	1165.983	1187.4768	1212.2636	1288.5823	1293.1985	1317.6723	1355.4235	1390.5199	1397.0747	1416.4262	1460.6133	1481.6378	1484.5078	1491.1716	1498.196	1501.0038	1507.5418	1518.7163	1524.4603	2360.3669	2881.2409	2917.9253	2962.5196	2970.7088	3034.9199	3047.6891	3067.152	3078.1764	3102.9659	3111.8978	3123.0008	3498.1368	3505.7624
CCNC(CNC)C#N	CCN[C@@H](CNC)C#N	
InChI=1S/C6H13N3/c1-3-9-6(4-7)5-8-2/h6,8-9H,3,5H2,1-2H3	InChI=1S/C6H13N3/c1-3-9-6(4-7)5-8-2/h6,8-9H,3,5H2,1-2H3/t6-/m1/s1
