16
gdb 43051	2.47728	2.24787	1.64225	3.2962	66.82	-0.2324	-0.0193	0.2131	849.3415	0.127534	-437.862667	-437.856478	-437.855534	-437.893134	25.417	
O	-0.0029925886	 0.0540858186	 0.0661360681	-0.34074
C	-0.0479771877	 1.2505580673	 0.0404304844	 0.511095
C	-1.2398600315	 2.2021591265	 0.0078761882	-0.194144
N	-0.837246882	 3.0410891479	 1.2081431027	-0.34003
C	 0.248203917	 3.5350786154	 0.2937953388	-0.05427
C	-0.6485221182	 3.3325607271	-0.9421598478	 0.125754
O	 0.1124475458	 2.9473839909	-2.0583274366	-0.278268
C	 1.364591596	 2.4471364501	-1.5404304882	-0.092012
C	 1.1043056125	 2.2789623309	-0.0308899247	-0.184899
H	-2.2437326398	 1.7862480539	-0.0394684608	 0.090602
H	-1.5233076522	 3.7914514703	 1.2990949088	 0.227425
H	 0.7641263724	 4.4616416823	 0.5416361059	 0.08589
H	-1.3624486673	 4.1149141754	-1.203960342	 0.097366
H	 1.6060481895	 1.5037277459	-2.037944977	 0.134922
H	 2.1649561262	 3.1714628981	-1.7421886642	 0.108325
H	 1.9791354878	 2.0608605393	 0.5781155044	 0.102981
141.0784	247.366	352.4512	414.7461	462.7648	562.9693	661.0753	672.41	761.9331	805.5706	808.2385	834.3541	885.4413	906.142	926.4815	949.098	974.0075	998.6668	1039.9314	1057.0817	1075.1587	1118.9134	1143.7591	1159.5466	1190.0202	1200.1496	1223.495	1240.2823	1269.2164	1311.8899	1323.509	1359.1114	1391.1932	1521.7109	1890.3391	3015.1838	3092.0366	3112.2607	3128.349	3148.4904	3155.2923	3449.0251
O=C1C2NC3C2OCC13	O=C1[C@H]2N[C@@H]3[C@H]2OC[C@H]13	
InChI=1S/C6H7NO2/c8-5-2-1-9-6-3(2)7-4(5)6/h2-4,6-7H,1H2	InChI=1S/C6H7NO2/c8-5-2-1-9-6-3(2)7-4(5)6/h2-4,6-7H,1H2/t2-,3-,4+,6+/m0/s1
