21
gdb 113101	3.51389	0.77484	0.69069	3.6566	80.34	-0.245	-0.0217	0.2233	1675.6999	0.180377	-424.227235	-424.217287	-424.216343	-424.263741	35.12	
C	-0.1461355167	 1.3672251273	 0.6651666322	-0.381147
C	-0.0712624163	-0.1058821364	 0.2532017869	-0.190154
C	-1.4078973873	-0.6448148139	-0.2216864603	 0.179097
C	-1.5747953456	-2.1691929342	-0.4101042091	-0.339376
C	-2.7506745593	-2.0213122376	 0.577006697	 0.150784
C	-2.7379715366	-2.8561545578	 1.8558270877	-0.294472
C	-3.77409012	-2.3771168826	 2.8519910528	 0.155238
O	-4.621980525	-3.0777082105	 3.3439012145	-0.240313
O	-2.4192039132	-0.6353308005	 0.823244393	-0.31671
H	 0.8181692774	 1.72335898	 1.0389011658	 0.113994
H	-0.4324500038	 2.0011877319	-0.1811645474	 0.115378
H	-0.8908476512	 1.5052816281	 1.4541779057	 0.137029
H	 0.6589231181	-0.2413906233	-0.5560187146	 0.09848
H	 0.2734688115	-0.71542688	 1.0977718863	 0.095285
H	-1.761018646	-0.0641943819	-1.086720978	 0.074064
H	-1.8209688469	-2.5184269474	-1.4134272845	 0.112753
H	-0.7393593973	-2.7542697285	-0.0166563889	 0.108587
H	-3.7337643552	-2.100740321	 0.0915228606	 0.086094
H	-2.9221933972	-3.9115909509	 1.6318615053	 0.120289
H	-1.7477568664	-2.7575098857	 2.3210674365	 0.117755
H	-3.698827403	-1.2973736251	 3.1041113486	 0.097345
39.6291	60.5384	77.8185	107.0681	189.5041	213.6319	239.0797	344.9983	394.0417	429.101	448.6818	507.2716	685.3741	777.4688	809.5981	839.7751	907.7263	930.5196	960.6732	969.7563	993.1416	1024.4222	1067.3189	1091.3764	1115.2989	1127.337	1151.3306	1197.5169	1228.94	1252.2874	1275.1644	1282.2316	1303.3107	1325.6266	1356.4001	1383.3824	1409.4356	1420.7882	1423.9634	1449.4953	1474.0369	1492.0302	1498.6818	1509.3064	1830.3162	2906.4338	2991.2951	3000.2245	3018.7654	3024.0974	3037.9811	3058.2509	3069.0707	3098.1737	3105.2522	3119.3916	3131.8704
CCC1CC(CC=O)O1	CC[C@H]1C[C@@H](CC=O)O1	
InChI=1S/C7H12O2/c1-2-6-5-7(9-6)3-4-8/h4,6-7H,2-3,5H2,1H3	InChI=1S/C7H12O2/c1-2-6-5-7(9-6)3-4-8/h4,6-7H,2-3,5H2,1H3/t6-,7+/m0/s1
