13
gdb 48450	1.88565	1.71713	1.29446	2.329	64.92	-0.2925	-0.0703	0.2222	1014.3938	0.087987	-452.748485	-452.740298	-452.739354	-452.781915	28.455	
N	 0.0731467115	 1.2031999692	-0.6554230693	-0.521753
C	 0.0597950946	 0.0648275936	-0.1476466672	 0.431829
O	 0.9731740313	-0.6597124992	 0.5669602857	-0.243362
C	 0.0761111488	-1.8112638924	 0.6737582178	-0.116694
C	-1.0297536229	-1.0272070911	-0.0708058917	-0.099516
C	-2.1997255402	-0.5526067291	 0.8158374079	 0.133334
O	-2.2520463946	-0.7745321871	 1.9913410627	-0.223029
C	-1.5089720387	-1.5479931013	-1.3366763486	 0.246932
N	-1.9198619606	-1.9757600281	-2.3283979332	-0.31229
H	 0.9604336357	 1.6873071051	-0.5129860146	 0.250348
H	 0.477676051	-2.6746405498	 0.1436192936	 0.151738
H	-0.1624334038	-2.0338413085	 1.713429276	 0.164398
H	-2.9644397921	 0.0346109487	 0.2739576107	 0.138063
80.5899	112.4573	130.1934	174.6703	210.1685	295.2088	394.0137	506.3486	526.5899	579.2816	644.4735	669.6593	794.3908	855.4348	912.5182	926.1201	966.2459	1009.1042	1062.935	1146.3092	1173.8535	1209.2812	1224.2159	1346.5675	1409.9516	1502.3482	1821.5678	1846.2176	2360.9917	2968.6316	3095.9092	3171.3102	3494.4598
N=C1OCC1(C=O)C#N	[NH][C]1OC[C@]1(C=O)C#N	
InChI=1S/C5H4N2O2/c6-1-5(2-8)3-9-4(5)7/h2,7H,3H2	InChI=1S/C5H4N2O2/c6-1-5(2-8)3-9-4(5)7/h2,7H,3H2/t5-/m1/s1
