20
gdb 31231	2.20378	1.32246	0.88878	2.0692	83.56	-0.192	0.0412	0.2332	1345.6168	0.17151	-403.186156	-403.176667	-403.175723	-403.221161	34.869	
C	 0.1779168564	 1.5016701794	 0.2433143769	-0.359427
C	 0.0265193548	-0.0086070149	-0.0126631575	-0.303101
C	-1.400869169	-0.4769968321	-0.0329206151	 0.185354
C	-2.2063897711	-0.6535129015	-1.142808457	 0.235947
C	-1.9682800724	-0.444022481	-2.5995947703	-0.207694
O	-2.7138016649	-1.4305882635	-3.3166985712	-0.426377
N	-3.4487212427	-1.0450379293	-0.7068662874	-0.276449
C	-3.4532125752	-1.148993296	 0.6583165918	-0.089857
C	-2.2040135644	-0.7901740843	 1.1060811519	-0.237757
H	 1.232738014	 1.796000007	 0.2666372166	 0.103793
H	-0.3206517313	 2.0836554035	-0.5387685895	 0.110129
H	-0.274562818	 1.7824203199	 1.1996406118	 0.118634
H	 0.5157735824	-0.2610275775	-0.9617445749	 0.092809
H	 0.574686896	-0.5566709547	 0.7636509952	 0.100504
H	-2.2891557908	 0.5640217402	-2.9135763764	 0.097734
H	-0.8909568186	-0.5170937917	-2.8096075045	 0.104828
H	-2.7089943317	-1.186548598	-4.2471134806	 0.289215
H	-4.1723183569	-1.3491521125	-1.3354642134	 0.263173
H	-4.3304707178	-1.4816435792	 1.1896505101	 0.112329
H	-1.8851845887	-0.7596511838	 2.1376713337	 0.086214
48.5461	67.2538	153.5131	172.1919	205.4159	255.5672	297.3412	318.7816	382.5993	500.9557	530.1144	612.6589	648.4622	685.2675	716.9927	753.7613	786.5905	820.6624	917.6546	964.3297	1012.9157	1029.6703	1050.1807	1077.5261	1091.7725	1116.7847	1186.0284	1213.7257	1241.418	1263.7746	1297.3297	1319.7772	1359.8765	1405.7722	1425.1184	1458.431	1483.2041	1490.2938	1496.4123	1504.4016	1514.7209	1517.3871	1626.2195	2946.6945	3002.2684	3019.2328	3030.1802	3051.0904	3099.4435	3106.6671	3235.6919	3266.6075	3679.3325	3825.4947
CCC1=C(CO)NC=C1	CCc1c(CO)[nH]cc1	
InChI=1S/C7H11NO/c1-2-6-3-4-8-7(6)5-9/h3-4,8-9H,2,5H2,1H3	InChI=1S/C7H11NO/c1-2-6-3-4-8-7(6)5-9/h3-4,8-9H,2,5H2,1H3
