17
gdb 125992	2.71052	1.53723	1.04127	4.2815	76.13	-0.205	0.0299	0.2349	1134.0829	0.137137	-417.984543	-417.976304	-417.97536	-418.017846	30.299	
C	-0.1789125019	 1.6056436456	 0.0290440776	-0.395544
C	 0.0351219023	 0.0968702117	 0.0709721962	-0.166335
C	 1.1617209718	-0.4847509062	-0.8885296196	-0.178055
N	 1.8361684418	-0.9135591329	 0.3405679539	 0.086455
N	 2.8102639583	-1.657683016	 0.8571261283	-0.305811
C	 2.4793357106	-1.6666914814	 2.1633819521	-0.051117
C	 1.2777654324	-0.959839141	 2.4441096612	 0.062056
O	 0.7339998139	-0.8423264254	 3.6888527961	-0.437112
C	 0.8918119792	-0.4821125903	 1.2017459251	 0.239818
H	 0.7689803082	 2.139847145	 0.1457621107	 0.130449
H	-0.6321308558	 1.9084516052	-0.9207699661	 0.122327
H	-0.8477169073	 1.9276685172	 0.8337204423	 0.121254
H	-0.9157642932	-0.4283545009	-0.0649311162	 0.098107
H	 0.8452174438	-1.3096989574	-1.5325185233	 0.132722
H	 1.7173272192	 0.2563808359	-1.4704687189	 0.127619
H	 3.1097001097	-2.1718403771	 2.8799769972	 0.114704
H	-0.0780992929	-0.3319865621	 3.6288852534	 0.298464
56.6241	123.5136	176.0013	206.3602	250.8484	323.4146	364.6727	436.2566	536.6884	642.0689	655.7852	663.2707	713.315	781.7942	837.4698	852.3271	915.9521	1017.3935	1080.0514	1085.0989	1096.1725	1129.5769	1163.3133	1210.687	1223.2162	1233.8398	1278.9176	1331.6312	1359.5197	1399.5703	1411.332	1439.5849	1493.2798	1494.6544	1497.1396	1518.743	1629.9619	3034.1342	3052.0308	3055.4263	3102.175	3109.3575	3113.6602	3251.0836	3848.4777
CC1CN2N=CC(O)=C12	C[C@H]1Cn2ncc(O)c12	
InChI=1S/C6H8N2O/c1-4-3-8-6(4)5(9)2-7-8/h2,4,9H,3H2,1H3	InChI=1S/C6H8N2O/c1-4-3-8-6(4)5(9)2-7-8/h2,4,9H,3H2,1H3/t4-/m0/s1
