18
gdb 33117	4.80713	0.74633	0.67765	2.0544	75.13	-0.1814	0.0614	0.2428	1614.0896	0.147488	-439.111538	-439.102097	-439.101153	-439.146365	34.373	
O	-0.0751345496	 1.4619550867	 0.0754322099	-0.420297
C	 0.0258150355	 0.0454327563	 0.1066482948	-0.058667
C	-1.3778409987	-0.5306555584	-0.0892141512	-0.301187
C	-1.4014968205	-2.0294062625	-0.0488026112	 0.289829
C	-1.5757306992	-2.8709025197	-1.1183301997	-0.199073
N	-1.5023516459	-4.1746893983	-0.6555005393	-0.295357
C	-1.2888102221	-4.1582614961	 0.6901247323	 0.396369
O	-1.1967715865	-5.3554411501	 1.3252779769	-0.435932
C	-1.215817723	-2.8540298468	 1.1137746544	-0.403607
H	 0.8071231802	 1.8277083225	 0.1853406594	 0.28323
H	 0.6871350067	-0.3304262637	-0.6897571464	 0.085245
H	 0.4391297467	-0.3057700168	 1.0654712473	 0.083669
H	-2.0266761248	-0.1081313095	 0.6878984701	 0.106313
H	-1.7648662527	-0.1716077983	-1.0490707586	 0.102973
H	-1.7481983514	-2.6615163844	-2.1612821437	 0.11306
H	-1.6168551609	-5.0121890447	-1.1984957809	 0.263833
H	-1.0622546682	-5.18783214	 2.2625737422	 0.306901
H	-1.0574307155	-2.5196213162	 2.1281331137	 0.082698
55.3633	91.8162	99.6629	224.4518	248.9934	253.9835	290.5544	337.0131	360.5724	442.3106	449.7051	626.953	640.0569	680.3639	686.4617	745.5894	780.2288	800.11	983.6258	1006.0265	1016.9682	1050.3939	1074.5873	1116.1267	1168.5374	1187.9175	1214.9182	1237.1196	1281.7186	1307.0498	1335.2049	1349.1814	1420.7255	1452.6684	1488.545	1526.1263	1541.0318	1577.5641	1638.717	2969.6496	2997.9282	3030.2683	3077.21	3236.481	3266.9868	3689.358	3831.358	3851.5819
OCCC1=CNC(O)=C1	OCCc1c[nH]c(O)c1	
InChI=1S/C6H9NO2/c8-2-1-5-3-6(9)7-4-5/h3-4,7-9H,1-2H2	InChI=1S/C6H9NO2/c8-2-1-5-3-6(9)7-4-5/h3-4,7-9H,1-2H2
