27
gdb 122000	4.58326	0.49865	0.46721	1.0295	94.72	-0.2492	0.0838	0.3331	2477.6987	0.249598	-390.694096	-390.681846	-390.680902	-390.732882	42.869	
C	 0.1591919118	 1.6333736942	-0.017044875	-0.377894
C	 0.0132369206	 0.1085423448	-0.0061081147	-0.178353
C	 0.6303241479	-0.5529449498	-1.2443980787	-0.158216
C	 0.6065058335	-2.0941021118	-1.2547056583	 0.020207
C	-0.827291922	-2.6470732911	-1.2815716422	-0.391144
C	 1.4489630926	-2.6171143102	-2.4326339696	-0.196621
C	 1.6618477568	-4.1263203139	-2.4497033624	-0.063587
O	 2.5656642265	-4.4328033478	-3.4916323552	-0.229583
C	 2.8082067666	-5.8114855352	-3.6172406061	-0.226027
H	 1.2133190817	 1.9306753077	-0.0502236717	 0.113125
H	-0.3333479491	 2.0715449864	-0.8923800622	 0.113404
H	-0.2861841076	 2.0845417233	 0.8752524067	 0.109489
H	 0.4901492578	-0.2978442094	 0.896159098	 0.092312
H	-1.0498452419	-0.1481946652	 0.0696638033	 0.098041
H	 0.1225123211	-0.1806326017	-2.1462833378	 0.089012
H	 1.6740992433	-0.2215823904	-1.3306642432	 0.088674
H	 1.0840978025	-2.4372126379	-0.3238781615	 0.067296
H	-1.416113713	-2.2821600077	-0.4355265325	 0.114801
H	-1.3426720596	-2.3450996683	-2.2017160022	 0.111533
H	-0.8432179733	-3.7398584946	-1.2362866776	 0.113508
H	 0.9883492236	-2.3159538125	-3.3825731662	 0.099377
H	 2.439742776	-2.1480610794	-2.4071850922	 0.101787
H	 2.0669483499	-4.4677718423	-1.4797621215	 0.079847
H	 0.7127904108	-4.6646185233	-2.6073354026	 0.084208
H	 3.2515931242	-6.2361759818	-2.701773238	 0.100137
H	 1.8856397993	-6.3724496196	-3.8389069156	 0.100289
H	 3.5101934898	-5.9485088626	-4.4437538612	 0.124379
49.3485	59.3415	81.6001	98.781	107.4037	133.0972	202.1041	227.0658	238.2586	252.2764	285.6343	315.9854	344.2904	420.0622	501.654	524.2374	744.6468	795.2442	840.1619	874.4874	902.7644	955.3482	968.8566	989.0599	1031.8495	1048.4978	1059.9123	1085.7307	1147.6371	1161.9045	1173.288	1182.2515	1200.1996	1227.2663	1244.7195	1272.1377	1290.4904	1316.8024	1328.7732	1333.5975	1372.004	1378.9171	1397.8373	1411.0887	1416.3602	1431.3107	1477.3125	1481.4909	1485.3879	1490.2868	1494.5808	1498.8233	1499.7201	1504.4227	1507.9785	1512.8844	1533.4779	2939.5223	2964.1703	2979.2711	2983.473	2999.6581	3004.6191	3017.6015	3024.8964	3028.6355	3031.1013	3032.9968	3060.1473	3069.7695	3096.0744	3097.435	3100.442	3109.4465	3110.8161
CCCC(C)CCOC	CCC[C@@H](C)CCOC	
InChI=1S/C8H18O/c1-4-5-8(2)6-7-9-3/h8H,4-7H2,1-3H3	InChI=1S/C8H18O/c1-4-5-8(2)6-7-9-3/h8H,4-7H2,1-3H3/t8-/m1/s1
