17
gdb 87020	2.11417	1.58848	1.05482	3.1517	76.44	-0.2487	0.0093	0.258	1160.5166	0.134189	-417.991874	-417.982328	-417.981384	-418.025954	35.352	
C	-0.2200942197	 1.5807613078	 0.1913420141	-0.405295
C	-0.1562027178	 0.0758022747	 0.1738838882	-0.011271
N	 1.0584842436	-0.5460002598	-0.3260131364	-0.357371
C	 0.7425374276	-0.7027042832	 1.1138601037	-0.004954
C	 1.5912768646	-0.0309050298	 2.0601785372	 0.234786
C	 2.2717003284	 0.5074102002	 2.8944783156	-0.380785
C	 0.2000202611	-2.0743073636	 1.4877207559	 0.381668
N	 0.3135796552	-2.4178042199	 2.7913188276	-0.56051
O	-0.3109921798	-2.7863269505	 0.6389085996	-0.382486
H	 0.7495201527	 2.0094626888	 0.4520942254	 0.13921
H	-0.5057014938	 1.9520859616	-0.7984501339	 0.127709
H	-0.965511939	 1.9300976723	 0.9129642772	 0.121536
H	-1.0882120755	-0.4410065457	-0.0472218051	 0.112018
H	 0.8150998907	-1.4406702605	-0.7556104311	 0.252411
H	 2.8898055991	 0.9957081563	 3.6071046324	 0.197409
H	 0.8153403044	-1.8336218201	 3.4387248284	 0.270088
H	 0.0015444784	-3.3312616586	 3.0754235212	 0.265836
73.5642	141.3549	158.9178	175.4595	195.2507	252.0948	282.6474	344.8722	408.5431	448.1381	518.7018	553.6134	564.6496	604.5405	612.7286	667.3974	668.6309	744.4449	832.1233	881.8684	973.3419	1029.0349	1051.2742	1092.7475	1112.8212	1141.8271	1232.5459	1269.3443	1344.2238	1377.8295	1405.8802	1445.0207	1485.7672	1493.7947	1609.2016	1781.6761	2228.8481	3041.1759	3104.222	3126.8368	3143.8945	3450.3805	3497.8224	3598.6188	3734.4602
CC1NC1(C#C)C(N)=O	C[C@H]1N[C@]1(C#C)C(=O)N	
InChI=1S/C6H8N2O/c1-3-6(5(7)9)4(2)8-6/h1,4,8H,2H3,(H2,7,9)	InChI=1S/C6H8N2O/c1-3-6(5(7)9)4(2)8-6/h1,4,8H,2H3,(H2,7,9)/t4-,6+/m1/s1
