21
gdb 62680	2.36202	1.7261	1.28953	1.8884	82.41	-0.2207	0.0607	0.2814	1086.4129	0.180017	-387.012017	-387.002915	-387.001971	-387.045	35.703	
C	-0.0888126824	 1.6040135935	 0.0124553586	-0.471257
C	 0.0934326523	 0.0892400814	 0.0388773633	 0.262122
C	-1.0786541746	-0.5814198153	-0.680125283	-0.444
C	 1.3794927922	-0.7006889841	-0.1845076601	-0.194019
C	 2.6555325011	-0.1786997911	 0.5310734704	 0.010476
O	 2.3964927499	 1.0596811876	 1.2035751201	-0.243039
C	 1.9728141701	-0.162833621	 1.8189724783	-0.03871
C	 0.6577447072	-0.7403267812	 1.1759520596	 0.248197
C	-0.0198386865	-1.8704220032	 1.9017086637	-0.495842
H	-0.0135332862	 1.9676119788	-1.0195554301	 0.108867
H	-1.0979203417	 1.8495419327	 0.3660342068	 0.101906
H	 0.635685216	 2.1365936786	 0.6171295818	 0.151042
H	-1.1853187173	-0.1541621884	-1.6831209324	 0.118099
H	-0.9514479479	-1.6608879666	-0.7933006526	 0.112911
H	-2.0180625128	-0.4048011721	-0.1443053572	 0.116649
H	 1.426909382	-1.4849423345	-0.9314122076	 0.082925
H	 3.6825244028	-0.3964654124	 0.262734166	 0.107271
H	 2.3193756997	-0.3634399778	 2.8267881398	 0.1035
H	-0.5116357438	-1.5053926076	 2.8127204355	 0.120817
H	-0.7797773707	-2.3638785131	 1.2924678734	 0.124856
H	 0.7058082605	-2.6340007241	 2.2081401157	 0.117229
119.5742	169.5575	181.2041	204.1358	242.5297	291.2233	318.5535	348.8618	379.7113	396.5517	502.8881	591.0619	620.428	701.3735	742.1055	808.0196	836.3131	874.3056	912.2701	916.6514	932.1428	963.4765	977.5975	1012.1064	1025.9235	1046.0266	1107.0849	1145.056	1153.3133	1182.0853	1207.2622	1231.6438	1262.7793	1291.3904	1364.6269	1400.3868	1410.1866	1423.8664	1442.7531	1482.7323	1488.331	1489.8963	1501.0601	1511.604	1518.019	3016.8033	3023.3026	3031.5836	3065.1579	3072.8298	3091.5707	3110.9579	3125.1517	3170.9616	3176.1509	3191.9146	3213.4462
CC1(C)C2C3OC3C12C	CC1(C)[C@H]2[C@H]3O[C@H]3[C@@]12C	
InChI=1S/C8H12O/c1-7(2)5-4-6(9-4)8(5,7)3/h4-6H,1-3H3	InChI=1S/C8H12O/c1-7(2)5-4-6(9-4)8(5,7)3/h4-6H,1-3H3/t4-,5-,6-,8+/m1/s1
