17
gdb 30329	2.98563	1.61275	1.09184	1.3361	76.48	-0.1724	0.036	0.2084	1069.495	0.139279	-418.022609	-418.014988	-418.014044	-418.054717	29.817	
O	 0.0655237971	 1.4330742304	-0.1505069612	-0.432057
C	-0.0051693575	 0.0129419135	-0.0149149207	-0.052855
C	 0.5583875323	-0.5034686264	 1.3607739936	-0.190569
N	-0.3576875963	-1.5742252047	 1.8460385395	-0.413539
C	-1.5622914408	-1.3516299078	 1.140657674	 0.295095
C	-1.3997544803	-0.4758675556	 0.1024714665	 0.296722
N	-2.5606738166	-0.4567168024	-0.6324046873	-0.375748
C	-3.473772627	-1.2751369718	-0.0124846187	-0.066887
C	-2.8826959204	-1.868715048	 1.0912225024	-0.310463
H	 0.9683546104	 1.6602575699	-0.3964690709	 0.278478
H	 0.5371583781	-0.4489047252	-0.8570410478	 0.07244
H	 1.5804932882	-0.8849523272	 1.2785338102	 0.097979
H	 0.5601604098	 0.3652988171	 2.0321679219	 0.108048
H	-0.4611321724	-1.5598821113	 2.8544511042	 0.226002
H	-2.7622027525	 0.1586640004	-1.4002379611	 0.262738
H	-4.4800057849	-1.3629025858	-0.3910631553	 0.114477
H	-3.3550057672	-2.5765776451	 1.7541399608	 0.090136
83.2376	156.1538	257.4564	283.386	304.5246	428.9001	457.664	501.0212	577.3269	626.0242	654.7629	696.577	710.6531	750.973	794.4627	820.2146	928.4568	960.2631	982.8947	1032.2355	1077.4925	1081.0094	1099.8577	1163.2466	1213.2671	1228.3443	1257.1056	1300.9358	1319.8755	1349.8111	1400.5318	1429.2793	1463.0501	1480.3464	1508.4398	1547.6481	1632.3026	2945.0454	3017.8174	3079.3653	3246.6603	3265.5477	3525.5859	3689.0681	3807.5207
OC1CNC2=C1NC=C2	O[C@H]1CNc2c1[nH]cc2	
InChI=1S/C6H8N2O/c9-5-3-8-4-1-2-7-6(4)5/h1-2,5,7-9H,3H2	InChI=1S/C6H8N2O/c9-5-3-8-4-1-2-7-6(4)5/h1-2,5,7-9H,3H2/t5-/m0/s1
