17
gdb 14961	4.52029	1.53181	1.2124	1.4367	67.66	-0.2475	0.0164	0.2639	997.2566	0.143251	-401.006678	-400.998987	-400.998042	-401.039067	27.853	
C	-0.1449387045	 1.4604026044	-0.0297892983	-0.329124
N	-0.0979358225	 0.0082443714	-0.0559220338	-0.283967
C	 0.5954341305	-0.5889576488	-0.9238705033	 0.38662
C	 0.6251507888	-2.0974476994	-1.0185951647	-0.277171
C	 2.0031230241	-2.5969522798	-1.4582070277	-0.103066
O	 2.4120348899	-1.8811921934	-2.6194517709	-0.220163
C	 2.5192158583	-0.5272456394	-2.3369487591	 0.012904
O	 1.2905728829	 0.0674385635	-1.9148933643	-0.25937
H	 0.6405189916	 1.9480970665	-0.616987201	 0.117985
H	-1.1173610532	 1.796314038	-0.4104083627	 0.127754
H	-0.0802570708	 1.7948408735	 1.0107182976	 0.121767
H	 0.3195529808	-2.5201800252	-0.0601850957	 0.129151
H	-0.1079072184	-2.4010864454	-1.7760825679	 0.132964
H	 2.7445944038	-2.4577716102	-0.6548184884	 0.101476
H	 1.9830186222	-3.6547396486	-1.7284863992	 0.120344
H	 3.2738261053	-0.3524069227	-1.5505867386	 0.093295
H	 2.801843221	-0.0133615944	-3.2569244522	 0.128601
78.3817	106.58	173.3444	243.7298	276.3707	371.025	417.8994	491.6911	557.2691	606.5797	739.1697	776.3173	872.3367	949.93	994.3811	1025.0953	1040.7669	1079.581	1107.8315	1133.7649	1158.1536	1180.1354	1235.5749	1251.3745	1266.0174	1325.5801	1356.2593	1400.678	1435.7181	1452.3612	1461.0039	1491.4584	1497.6112	1501.7651	1520.0494	1778.579	2954.7989	2980.8084	3019.0126	3041.0235	3076.7705	3095.283	3107.3609	3122.8702	3127.5855
CN=C1CCOCO1	CN=C1CCOCO1	
InChI=1S/C5H9NO2/c1-6-5-2-3-7-4-8-5/h2-4H2,1H3	InChI=1S/C5H9NO2/c1-6-5-2-3-7-4-8-5/h2-4H2,1H3
