14
gdb 51380	3.14096	1.25121	1.10523	4.8677	64.24	-0.2791	-0.0101	0.269	1089.3621	0.099811	-473.796963	-473.789374	-473.78843	-473.829829	27.524	
N	 0.0734711768	 1.1120898186	 0.2499329509	-0.539176
C	-0.0443283904	-0.1292029258	 0.2684522151	 0.475217
O	 0.8504964521	-1.125751215	 0.6927510901	-0.267885
C	-0.0327147426	-2.1448119963	 0.1795620222	 0.012241
C	-1.3293753954	-2.1063844457	 0.9120080847	 0.092249
O	-1.4528666194	-1.6880908167	 2.242188591	-0.1891
C	-0.5828326991	-2.2101056928	 3.1507371704	 0.183637
O	-0.6413314379	-1.9343245943	 4.3069734749	-0.26165
C	-1.0814407635	-1.1007546967	-0.1982950165	-0.254444
H	 0.9657247814	 1.4171221421	 0.641016652	 0.243071
H	 0.4122327458	-2.9719580655	-0.3569247103	 0.138507
H	-2.0417952116	-2.8812921507	 0.6377329563	 0.133544
H	 0.149287785	-2.8969781225	 2.6931265758	 0.095719
H	-1.7349843011	-0.9889309987	-1.0504858566	 0.138071
66.0737	131.8141	151.7713	200.2717	305.3228	412.385	437.6678	551.1794	693.9005	703.7333	763.9451	791.4273	842.8135	872.507	911.356	962.5617	988.007	1010.3734	1035.9495	1043.3899	1055.1186	1097.182	1125.9038	1186.3244	1208.3526	1291.3157	1323.1169	1402.5672	1433.4786	1849.2335	1879.5542	2998.3201	3142.5726	3213.2068	3237.7545	3491.7106
N=C1OC2C(OC=O)C12	[NH][C]1O[C@H]2[C@@H](OC=O)[C@@H]12	
InChI=1S/C5H5NO3/c6-5-2-3(8-1-7)4(2)9-5/h1-4,6H	InChI=1S/C5H5NO3/c6-5-2-3(8-1-7)4(2)9-5/h1-4,6H/t2-,3+,4-/m1/s1
