20
gdb 95989	2.46476	1.38711	1.11676	5.1835	74.01	-0.24	0.0207	0.2607	1168.6556	0.172564	-440.326148	-440.317425	-440.316481	-440.360487	32.4	
C	 0.681807724	 1.438922479	 0.4169308336	-0.337295
N	 0.0465305684	 0.2270443186	-0.1043964816	-0.102667
H	-1.4605892094	 0.1700310865	-1.2042955842	 0.297835
C	 0.032180208	-0.8900376557	 0.8649862682	-0.179613
C	 1.366352001	-1.6331594006	 0.6703807887	-0.207859
C	 1.632084354	-1.500439986	-0.8469663926	-0.224449
C	 0.7101129618	-0.3312619129	-1.3032288895	-0.128556
C	-0.3566563497	-0.7956995115	-2.3185968454	 0.418415
O	-1.578722869	-0.3189391025	-2.0538825643	-0.368634
O	-0.1057416679	-1.4976682799	-3.2616523217	-0.344412
H	 1.7261567097	 1.2905355437	 0.7342845072	 0.111839
H	 0.667122972	 2.2162809783	-0.3519763662	 0.132444
H	 0.112451426	 1.8056726528	 1.2755762101	 0.129548
H	-0.1296312091	-0.5137528355	 1.8776280247	 0.10994
H	-0.8070659224	-1.5510002212	 0.6161492862	 0.116905
H	 2.1595153109	-1.1484622132	 1.2482232096	 0.107158
H	 1.3134679788	-2.6729809759	 1.001640362	 0.111421
H	 2.6817113574	-1.2886692745	-1.0590238668	 0.11021
H	 1.3712991351	-2.4062612146	-1.3977145633	 0.137009
H	 1.2761861404	 0.457375695	-1.8078782047	 0.110761
32.5406	93.6469	179.1906	204.0973	225.1078	249.8778	357.7681	412.0372	513.246	564.3503	613.2839	677.2644	730.8741	806.9104	840.4264	889.6523	901.3117	914.0438	930.0215	965.666	1037.7637	1041.4904	1081.2748	1111.2136	1161.827	1186.4356	1213.4072	1219.2163	1227.1907	1274.1484	1299.681	1313.3289	1325.8833	1362.0126	1367.3206	1432.7018	1464.135	1489.5925	1500.0103	1500.7133	1508.0525	1518.8209	1867.0419	2980.8417	3032.2408	3056.5501	3067.4233	3077.9442	3082.4438	3101.67	3108.4026	3117.2184	3127.7957	3389.5728
C[NH+]1CCCC1C([O-])=O	CN1CCC[C@H]1C(=O)O	
InChI=1S/C6H11NO2/c1-7-4-2-3-5(7)6(8)9/h5H,2-4H2,1H3,(H,8,9)	InChI=1S/C6H11NO2/c1-7-4-2-3-5(7)6(8)9/h5H,2-4H2,1H3,(H,8,9)/t5-/m0/s1
