15
gdb 45742	2.98646	1.64895	1.26634	2.8425	65.51	-0.239	-0.0369	0.2021	971.4436	0.114449	-453.959603	-453.952408	-453.951463	-453.991674	26.757	
O	-0.1097506148	-0.0100256594	 0.0073749719	-0.308424
C	-0.0392449951	 1.1761898303	 0.0117495291	 0.400685
O	-1.1769750691	 1.9968652504	 0.0311223635	-0.212184
C	-0.6935985114	 3.2794239726	 0.0306921011	 0.100617
N	 0.5615222119	 3.4600468699	 0.0140610878	-0.293843
C	 1.1460064573	 2.1288072725	 0.0000505639	 0.144814
C	 2.2660407495	 1.8230458691	 1.0416414603	-0.200828
N	 3.1027312927	 1.2444397727	-0.0306095713	-0.299464
C	 2.2372625454	 1.83273037	-1.0743659401	-0.200853
H	-1.4550149459	 4.0499489106	 0.0444587281	 0.15944
H	 2.6311318543	 2.7589272376	 1.4805922463	 0.117094
H	 2.0037891345	 1.1179984655	 1.836669533	 0.124694
H	 4.0641679	 1.5629832622	-0.0422305197	 0.226473
H	 1.953395706	 1.1349622018	-1.8683915553	 0.12469
H	 2.5903959147	 2.7726390042	-1.5144945386	 0.11709
102.3764	103.0583	205.7269	280.3684	307.253	453.8538	541.3443	586.0938	666.3273	728.233	742.9873	822.0268	871.6533	930.1298	933.5943	953.9748	995.7952	1011.78	1043.9894	1053.313	1134.146	1134.673	1178.9048	1216.1669	1270.0216	1281.2593	1341.4055	1354.6529	1381.1291	1494.0876	1517.6504	1684.8008	1921.5784	3023.9696	3030.9218	3083.2125	3083.341	3226.1495	3545.1867
O=C1OC=NC11CNC1	O=C1OC=NC21CNC2	
InChI=1S/C5H6N2O2/c8-4-5(1-6-2-5)7-3-9-4/h3,6H,1-2H2	InChI=1S/C5H6N2O2/c8-4-5(1-6-2-5)7-3-9-4/h3,6H,1-2H2
