18
gdb 41640	3.5398	1.91213	1.57081	2.1566	79.47	-0.2137	-0.0115	0.2021	878.0829	0.150918	-364.721605	-364.715517	-364.714573	-364.751581	26.502	
C	-0.1206184451	 1.5611570133	 0.0489881615	-0.250619
C	 1.3384290532	 2.1538165657	 0.0477152966	-0.234425
C	 2.1839997254	 1.5631065125	-1.1130121723	 0.01132
C	 3.0732012927	 0.2840336288	-1.0413913435	-0.066175
C	 2.1893436554	-0.953083873	-1.1277166751	-0.12435
N	 2.5870481037	-0.2290008659	-2.3705794876	-0.166732
C	 1.3672191624	 0.6720546716	-2.0729384631	-0.099086
C	 0.8447685438	-0.3103501748	-1.0353505181	 0.208013
C	 0.0575745524	 0.0592833957	-0.0260251232	-0.158372
H	-0.6647594337	 1.8738641742	 0.943386483	 0.101763
H	-0.6673563581	 1.9614471708	-0.8130107892	 0.115444
H	 1.2914524074	 3.2442779118	-0.0486370773	 0.097885
H	 1.8061098093	 1.9438433076	 1.0154892714	 0.105853
H	 2.7481631874	 2.3379894091	-1.6396198346	 0.084012
H	 4.1231046398	 0.2239006338	-0.7709028308	 0.094663
H	 2.557987039	-1.9421116077	-0.8807133178	 0.098089
H	 0.7649228498	 1.0600611715	-2.891830776	 0.088976
H	-0.0930233548	-0.5557511752	 0.8562787862	 0.09374
223.6339	283.7645	358.1035	451.1409	490.348	583.1622	643.8092	704.9286	735.8037	789.3037	804.2986	819.2438	843.8219	860.8059	909.8649	918.6995	930.5503	963.4916	985.3994	1023.8941	1031.0008	1052.6238	1056.0434	1085.7413	1127.6553	1145.7246	1186.0968	1190.4966	1220.9244	1245.5022	1274.0395	1304.5938	1315.2364	1331.8852	1349.8851	1352.8023	1481.571	1489.489	1710.4387	3034.7799	3037.6808	3067.509	3081.521	3100.5085	3137.0317	3159.1509	3169.128	3182.1772
C1CC2C3C4N3C2C4=C1	C1C[C@H]2[C@H]3[C@@H]4N3[C@H]2[C]4[CH]1	
InChI=1S/C8H9N/c1-2-4-6-5(3-1)8-7(4)9(6)8/h2,5-8H,1,3H2	InChI=1S/C8H9N/c1-2-4-6-5(3-1)8-7(4)9(6)8/h2,5-8H,1,3H2/t5-,6+,7-,8+,9?/m1/s1
