15
gdb 129782	3.38517	1.50479	1.05745	3.6167	68.71	-0.2192	0.004	0.2232	1060.8849	0.114557	-453.925906	-453.918473	-453.917529	-453.958058	27.797	
N	 0.0646564657	 1.3936075657	 0.1658011746	-0.595839
C	-0.0791535042	 0.032764257	 0.0492242329	 0.30108
C	-1.1446508355	-0.8150292129	-0.0182649261	 0.07526
C	-2.6287389865	-0.9751183279	-0.0510549277	-0.202763
O	-2.819654959	-2.3886986949	-0.2548133751	-0.280692
C	-1.6055021323	-3.1358274509	-0.0955821909	-0.173118
C	-0.5396430488	-2.0852426257	-0.0426699991	 0.34127
N	 0.7635997784	-2.0757230743	 0.0009612719	-0.266483
O	 1.0651545183	-0.682039846	 0.0572529329	-0.218454
H	 0.9805561952	 1.7339701179	-0.0915322827	 0.270164
H	-0.6825683399	 1.937224283	-0.2389964239	 0.266595
H	-3.1170690115	-0.6661870561	 0.8858753886	 0.112426
H	-3.1253626745	-0.4465648352	-0.8753579662	 0.113256
H	-1.6367792129	-3.7321818817	 0.8275266616	 0.124693
H	-1.4990099126	-3.823019318	-0.9424602109	 0.132606
81.9999	168.7044	214.9813	265.2229	297.1251	350.9813	526.3175	575.6363	593.623	625.7838	648.8545	710.858	804.9067	840.3252	883.3196	897.9198	1021.9452	1043.8207	1059.7468	1066.3438	1107.2095	1180.0707	1212.5704	1258.9229	1333.1151	1350.6246	1403.0105	1464.6276	1510.6028	1529.6743	1585.5576	1639.3287	1720.5764	2980.9483	3003.5556	3022.4186	3058.1207	3570.2722	3675.2856
NC1=C2COCC2=NO1	Nc1c2COCc2no1	
InChI=1S/C5H6N2O2/c6-5-3-1-8-2-4(3)7-9-5/h1-2,6H2	InChI=1S/C5H6N2O2/c6-5-3-1-8-2-4(3)7-9-5/h1-2,6H2
