23
gdb 122282	4.56081	0.72186	0.70093	1.6945	87.05	-0.2303	0.0905	0.3208	1744.4338	0.20492	-388.235583	-388.226138	-388.225194	-388.270671	35.553	
C	-0.0008773687	 1.5478343456	 0.0727836498	-0.382614
C	-0.0338063583	 0.0173213702	 0.0555715793	-0.164684
C	-1.4529670051	-0.5502963455	-0.0472300856	-0.160031
C	-1.4886226834	-2.0836755432	-0.0601380261	-0.35362
C	-2.8793486417	-2.6448981109	-0.0949857088	 0.445297
C	-4.0552327603	-2.3722546246	-1.0789295336	-0.255358
C	-4.5795341207	-3.1790459696	 0.1280020949	 0.053703
C	-3.3575206042	-4.1180706477	 0.0339884353	-0.266163
O	-3.8044692761	-2.2974489075	 1.0281770034	-0.347872
H	 1.0238417164	 1.9253131583	 0.1463868661	 0.11054
H	-0.4442959782	 1.9635626927	-0.8389638777	 0.112805
H	-0.5647878125	 1.945384217	 0.9238260812	 0.116472
H	 0.5683208193	-0.3533474876	-0.785039717	 0.091677
H	 0.4455799008	-0.3702269352	 0.9643343918	 0.09587
H	-2.0599354901	-0.1911759181	 0.7923581804	 0.118193
H	-1.9335705211	-0.1674873257	-0.9574336548	 0.093883
H	-0.9392791467	-2.4715693931	-0.9284199292	 0.101648
H	-0.983379463	-2.4773831697	 0.8314590497	 0.108591
H	-4.3948675959	-1.3369420477	-1.1255328267	 0.105414
H	-4.0294836014	-2.8601212377	-2.0572536024	 0.090455
H	-5.6063665884	-3.4054648685	 0.414283287	 0.09236
H	-3.2675441488	-4.7676989498	-0.8409879525	 0.090275
H	-3.0796697118	-4.6125658419	 0.9660010455	 0.10316
60.2783	73.0016	98.0493	134.9022	246.5904	251.5614	310.4231	319.168	438.3415	520.6886	598.5839	682.3828	707.9379	737.7355	785.2926	805.2789	885.0115	900.857	905.1992	947.5381	949.9043	985.9762	991.0708	1022.2896	1059.587	1066.9371	1082.7442	1104.1361	1134.9266	1156.7231	1174.4188	1212.9355	1233.5168	1237.2865	1254.2119	1282.2285	1315.5079	1326.6412	1335.7576	1381.6233	1402.8702	1415.1649	1466.2028	1470.2541	1486.3367	1498.8085	1500.4712	1512.7595	1513.4458	3010.2848	3015.2776	3023.6923	3029.9802	3038.5674	3050.4192	3054.0601	3062.8048	3075.684	3096.8385	3101.5521	3120.9813	3140.2869	3145.4629
CCCCC12CC(C1)O2	CCCC[C@@]12C[C@@H](C1)O2	
InChI=1S/C8H14O/c1-2-3-4-8-5-7(6-8)9-8/h7H,2-6H2,1H3	InChI=1S/C8H14O/c1-2-3-4-8-5-7(6-8)9-8/h7H,2-6H2,1H3/t7-,8+
