21
gdb 59605	2.77089	1.17895	1.08867	4.0832	78.14	-0.2398	0.0584	0.2982	1239.8996	0.18393	-420.468565	-420.459208	-420.458263	-420.502609	35.308	
C	 0.0733040809	 1.5257292223	-0.0736583452	-0.402191
C	 0.0285333606	-0.0014931819	 0.0791322143	 0.026364
C	 0.759466188	-0.4466109792	 1.3530102567	-0.391593
C	-1.4283405479	-0.5172107349	-0.0171957357	 0.034028
C	-1.5682210093	-2.0660699061	 0.0232762112	-0.1971
N	-1.9473680777	-2.3135663975	 1.4044691372	-0.336352
C	-2.5085528742	-1.1812044934	 1.9845959113	 0.426369
O	-3.0740224239	-1.1185204554	 3.0534012176	-0.412756
N	-2.2896445867	-0.1414137649	 1.0958516138	-0.336453
H	 1.1067840208	 1.8840976308	-0.1024211736	 0.119704
H	-0.422398428	 1.8546808401	-0.9933745825	 0.113085
H	-0.4158565178	 2.0271795526	 0.7701475704	 0.112298
H	 0.5477583494	-0.4361150783	-0.7874459735	 0.075423
H	 0.2787404301	-0.0360668556	 2.2468730501	 0.12696
H	 0.7786680007	-1.5341883333	 1.4603367773	 0.125529
H	 1.7942769684	-0.0902289421	 1.3403105824	 0.110723
H	-1.8455671743	-0.1386310954	-0.9583222417	 0.082539
H	-2.3377463622	-2.4006314445	-0.6859427555	 0.107987
H	-0.6274672815	-2.5616955138	-0.2378234735	 0.112813
H	-2.3282429169	-3.2018722696	 1.6878279421	 0.251346
H	-2.3399154185	 0.7999909499	 1.4477368468	 0.251277
79.4103	91.3686	175.4226	214.779	234.4092	250.4836	277.6222	345.2786	418.2964	448.2864	483.5607	514.5723	569.5098	710.8295	753.983	767.3814	797.0397	899.7868	928.6462	963.7469	973.861	1003.6762	1015.4112	1050.1354	1098.8317	1136.5222	1161.0884	1198.6592	1224.5081	1269.5687	1280.6223	1335.7199	1342.2402	1371.5868	1392.2027	1405.0923	1423.9409	1430.5164	1445.4048	1483.2375	1495.6632	1505.205	1509.3224	1531.0102	1848.4571	2998.2881	3000.6056	3023.8345	3026.2703	3041.2745	3061.5337	3088.3764	3102.4835	3106.1234	3118.9645	3648.1259	3663.0609
CC(C)C1CNC(=O)N1	CC(C)[C@H]1CNC(=O)N1	
InChI=1S/C6H12N2O/c1-4(2)5-3-7-6(9)8-5/h4-5H,3H2,1-2H3,(H2,7,8,9)	InChI=1S/C6H12N2O/c1-4(2)5-3-7-6(9)8-5/h4-5H,3H2,1-2H3,(H2,7,8,9)/t5-/m1/s1
