21
gdb 68420	2.56127	1.58694	1.22765	0.6961	88.01	-0.2533	0.0529	0.3062	1104.0806	0.183143	-349.923098	-349.914771	-349.913827	-349.955419	33.904	
C	-0.0220032537	 1.5173257119	 0.0620712479	-0.503677
C	 0.0423858544	 0.0087989264	 0.0550303355	 0.349136
C	 0.9513928578	-0.7928337	-0.9273520648	-0.267636
C	 0.7384461611	-1.9344075307	 0.1041344771	-0.014905
C	 0.7299307129	-0.8183882286	 1.185560338	-0.262524
C	-0.7602971167	-2.239438232	-0.0594118887	-0.235504
C	-1.3082598308	-0.7620813122	-0.1114683597	-0.197128
C	-2.2992834551	-0.4529544784	 0.906918251	 0.322355
C	-3.10933398	-0.1939107706	 1.7582269304	-0.468383
H	 0.9723927431	 1.9543611928	 0.1992312726	 0.11102
H	-0.4282025918	 1.8997916239	-0.8820337467	 0.11289
H	-0.6674685031	 1.8769199365	 0.8702266938	 0.130423
H	 0.5994218781	-0.9449787626	-1.9535106299	 0.083879
H	 1.9761670504	-0.4132086637	-0.9348627423	 0.09378
H	 1.4128372378	-2.7888257587	 0.1637528286	 0.059391
H	 1.7313112946	-0.4438426208	 1.4125102929	 0.092588
H	 0.1704442891	-0.9897498699	 2.1094110369	 0.100237
H	-0.9850289423	-2.7893344358	-0.9775312189	 0.098338
H	-1.1748853953	-2.7951021824	 0.7846711803	 0.110252
H	-1.7368233692	-0.5420121495	-1.0964731419	 0.095135
H	-3.8309921512	 0.0320421845	 2.5034545079	 0.190331
114.1161	139.9905	224.6054	262.6425	295.5249	344.7074	412.733	464.3621	496.2906	553.8439	601.4123	618.1299	625.0289	689.3428	803.0497	825.2574	853.0364	870.9843	900.8934	941.0781	947.5717	976.037	1012.8545	1017.5886	1056.2191	1072.291	1094.7213	1118.7294	1146.0129	1195.0052	1202.8258	1236.7022	1249.1333	1265.4282	1287.6681	1314.7539	1326.5499	1346.6546	1413.512	1484.6248	1492.0498	1495.0388	1495.6664	1524.7629	2228.4483	3025.1513	3029.7317	3040.5033	3055.8085	3060.9927	3088.681	3101.8023	3105.983	3110.1759	3112.9533	3116.768	3504.2422
CC12CC(C1)CC2C#C	C[C@@]12C[C@@H](C1)C[C@H]2C#C	
InChI=1S/C9H12/c1-3-8-4-7-5-9(8,2)6-7/h1,7-8H,4-6H2,2H3	InChI=1S/C9H12/c1-3-8-4-7-5-9(8,2)6-7/h1,7-8H,4-6H2,2H3/t7-,8-,9+/m1/s1
