21
gdb 70819	2.30442	1.65291	1.4836	1.204	83.21	-0.2477	0.0792	0.3269	1052.4496	0.18094	-387.033285	-387.024358	-387.023414	-387.065885	35.38	
C	 0.0007117357	 1.459994157	-0.0247572342	-0.518619
C	 0.0357976528	-0.0421352684	-0.0571822408	 0.319552
C	 0.5935692339	-0.9594374385	-1.1731557816	-0.385052
C	 0.0648886747	-1.9191486182	-0.0919493151	 0.375381
O	-0.010858425	-3.3006384034	-0.1058836005	-0.47975
C	 0.5355674382	-0.9935584186	 1.0878081749	-0.15415
C	-0.8496054724	-1.0456553881	 1.7582606679	-0.326125
C	-1.1708388823	-1.0244554493	 0.2455268486	 0.280256
C	-2.5122589032	-1.0510463335	-0.4347869749	-0.525749
H	 1.0104523989	 1.8803121182	-0.0923257639	 0.118846
H	-0.580905479	 1.8606718934	-0.8627022723	 0.119241
H	-0.4518107474	 1.8285705305	 0.9024877533	 0.120365
H	 0.0685789001	-0.9510709448	-2.1345645856	 0.090837
H	 1.6788658691	-0.9317933856	-1.3271892855	 0.080074
H	 0.8827891393	-3.6556310118	-0.1629109993	 0.282139
H	 1.5294347528	-0.973978674	 1.5401256571	 0.05935
H	-1.0998688387	-1.96602713	 2.2941270179	 0.096995
H	-1.1536869311	-0.1693716586	 2.3406936324	 0.084222
H	-3.1263126782	-0.1950174987	-0.1331561659	 0.115975
H	-2.4090267736	-1.0220999992	-1.5253745041	 0.118069
H	-3.0611324746	-1.9634939885	-0.1776876784	 0.128145
172.8561	200.2627	209.154	213.8685	227.672	258.4339	273.1073	316.5763	441.82	470.322	500.9849	589.3741	642.5884	676.1159	686.759	777.6038	858.9235	871.1192	916.3874	942.8161	980.8994	1005.8798	1014.2359	1054.3952	1089.0331	1106.5879	1131.8113	1148.7874	1152.2198	1159.1025	1183.8339	1223.3753	1250.5557	1275.2281	1305.43	1340.0967	1394.6278	1407.7195	1416.4848	1485.7757	1487.4247	1492.2852	1496.7732	1506.9594	1518.5395	3022.4805	3023.9128	3027.3393	3039.0468	3083.1737	3086.5612	3089.6774	3090.3124	3090.6081	3093.7111	3097.0235	3804.9395
CC12CC3(O)C1CC23C	C[C@@]12C[C@@]3(O)[C@@H]1C[C@@]23C	
InChI=1S/C8H12O/c1-6-4-8(9)5(6)3-7(6,8)2/h5,9H,3-4H2,1-2H3	InChI=1S/C8H12O/c1-6-4-8(9)5(6)3-7(6,8)2/h5,9H,3-4H2,1-2H3/t5-,6-,7+,8-/m1/s1
