18
gdb 92834	2.28362	1.69876	1.55323	2.6556	71.36	-0.247	-0.0007	0.2463	982.8594	0.147765	-439.053426	-439.045318	-439.044374	-439.085642	31.503	
C	-0.1337281533	 1.535686825	-0.1101907866	-0.410644
C	-0.0335662681	 0.0133976931	-0.0022316139	-0.066024
C	 0.9753048553	-0.5793736466	-1.0719710806	-0.173268
N	 2.3372364672	-0.5754371697	-0.4374490717	-0.31133
C	 2.0538486785	-0.5615145576	 0.7897489923	 0.358295
O	 2.6679614637	-0.1619397416	 1.9494512408	-0.278855
C	 1.3308181315	 0.2606769327	 2.4614222955	-0.184565
C	 0.6442740095	-0.5070033863	 1.2798944604	 0.311389
O	 0.0234914596	-1.7167166898	 1.6631483775	-0.48768
H	 0.8526186256	 2.0081929972	-0.0472021405	 0.131366
H	-0.5716428868	 1.8200421713	-1.0717619524	 0.123801
H	-0.7648585519	 1.9529987217	 0.6809208798	 0.117772
H	-1.0252625773	-0.4362317199	-0.0965823628	 0.091252
H	 0.6942603507	-1.5913041344	-1.3836059014	 0.117943
H	 1.0174433414	 0.0464375617	-1.9678903937	 0.11364
H	 1.1430478316	-0.1522595488	 3.4542685294	 0.12362
H	 1.267402376	 1.3502525056	 2.4605880461	 0.133809
H	 0.6535922967	-2.2493907837	 2.162241062	 0.289478
111.4196	206.1324	234.484	243.5395	259.1442	321.2455	340.2311	389.1491	462.1788	545.601	667.1148	689.3422	721.4993	775.893	823.7418	897.1179	903.9057	931.9247	956.2382	990.2863	1015.6103	1065.2896	1106.3236	1134.7297	1143.715	1186.8611	1210.2486	1225.6126	1273.5677	1302.3511	1329.5755	1369.0321	1383.1415	1411.9307	1488.3986	1492.6808	1500.4022	1504.1674	1774.0723	3033.1436	3045.5322	3071.1164	3079.1012	3094.7443	3105.0286	3106.8856	3145.5422	3792.4754
CC1CN=C2OCC12O	C[C@H]1C[N][C]2OC[C@@]12O	
InChI=1S/C6H9NO2/c1-4-2-7-5-6(4,8)3-9-5/h4,8H,2-3H2,1H3	InChI=1S/C6H9NO2/c1-4-2-7-5-6(4,8)3-9-5/h4,8H,2-3H2,1H3/t4-,6+/m0/s1
