17
gdb 114438	3.9699	1.40996	1.25964	2.3268	67.29	-0.2213	0.0621	0.2834	1023.2634	0.136032	-458.89538	-458.888083	-458.887138	-458.927361	28.059	
C	 0.0816554063	 1.3323913125	 0.0983494217	-0.23961
O	-0.0243468109	-0.0754998159	-0.0328082978	-0.234166
C	 0.637792158	-0.5861905064	-1.1272771546	 0.266009
O	 2.0648691691	-0.4001262821	-1.0253781025	-0.288709
C	 2.6728779807	-1.6031545541	-1.420655957	 0.073008
C	 2.2860376926	-2.8709119914	-0.6780724978	 0.063517
O	 1.0663971377	-2.6500157641	 0.0248568786	-0.280767
C	 0.4837261849	-2.1047229878	-1.1968755955	 0.0032
C	 1.6939768306	-2.566054719	-2.0364879883	-0.208262
H	 1.1166503149	 1.6364368022	 0.2891614274	 0.134345
H	-0.2798820928	 1.8450858493	-0.8059853211	 0.104947
H	-0.5446671589	 1.618587437	 0.9454141096	 0.130451
H	 0.2933977148	-0.0930295788	-2.0569939579	 0.056754
H	 3.6761477831	-1.4849198262	-1.8118542795	 0.110234
H	 2.9570007832	-3.6426377916	-0.3181409925	 0.108687
H	-0.5214456778	-2.4787885853	-1.3881142915	 0.095907
H	 1.7209759546	-3.0483335785	-3.0036557916	 0.104455
99.3561	131.5399	183.4011	243.8869	358.8062	458.8216	527.1954	567.4776	709.0115	733.7864	782.5218	811.6117	828.3093	866.5917	922.2779	938.8042	1014.0346	1023.8444	1026.4149	1033.2393	1046.2092	1076.2654	1101.5012	1116.6733	1172.8515	1181.283	1210.7151	1237.0122	1251.7718	1266.7349	1319.6112	1361.0645	1402.4851	1405.5124	1482.3235	1486.234	1511.0684	2915.5087	2992.4135	3073.0341	3129.17	3131.2608	3178.6633	3192.3312	3208.6966
COC1OC2C3OC1C23	CO[C@H]1O[C@H]2[C@H]3O[C@@H]1[C@@H]23	
InChI=1S/C6H8O3/c1-7-6-5-2-3(8-5)4(2)9-6/h2-6H,1H3	InChI=1S/C6H8O3/c1-7-6-5-2-3(8-5)4(2)9-6/h2-6H,1H3/t2-,3+,4-,5-,6+/m1/s1
