17
gdb 81949	2.43221	1.80107	1.2055	3.3704	67.2	-0.2607	-0.0335	0.2272	1029.9627	0.134927	-458.969855	-458.96162	-458.960676	-459.002612	31.023	
C	 0.2629320309	 1.6225181649	 0.0250907103	-0.397491
C	 0.1151423299	 0.1009669248	 0.0245460161	-0.133633
C	 0.6986544118	-0.613612196	-1.1857571861	 0.030671
O	 2.132536409	-0.5922148019	-1.1798875678	-0.251792
C	 1.4730467175	-1.8010912405	-0.7807061659	 0.00974
C	 1.3663128906	-1.9688406184	 0.718945714	 0.04695
O	 2.5361387542	-2.3575164466	 1.3787671438	-0.436001
C	 0.8867267554	-0.5762533367	 1.1619110615	 0.343821
O	 1.1808987915	-0.1010216147	 2.228733891	-0.323109
H	 1.3019999692	 1.8983799095	-0.1731664075	 0.14397
H	-0.3706680355	 2.0787703982	-0.7406402735	 0.117102
H	-0.0172460483	 2.028633229	 0.9999606005	 0.13941
H	-0.9453599384	-0.175299166	 0.1285534753	 0.108481
H	 0.2287558727	-0.5303379293	-2.1620935099	 0.104735
H	 1.6248166356	-2.6578219386	-1.4303311225	 0.11091
H	 0.5432223913	-2.6835425887	 0.9179601531	 0.090165
H	 2.6111218325	-1.773172299	 2.1480019774	 0.296071
82.4207	176.0923	197.7477	218.6714	230.294	293.3553	362.1897	471.4789	514.3044	533.6642	602.7232	621.7274	725.942	831.7813	844.604	859.4763	935.2957	954.7541	1007.3242	1040.6786	1054.657	1093.8845	1120.2661	1149.2927	1179.6211	1218.3892	1251.0999	1280.0165	1304.8079	1341.0703	1371.3019	1404.8419	1415.3468	1435.6978	1490.8702	1501.623	1847.8804	2914.4336	3002.2782	3049.602	3123.2618	3132.3179	3150.8897	3167.6157	3720.5155
CC1C2OC2C(O)C1=O	C[C@H]1[C@H]2O[C@H]2[C@@H](O)C1=O	
InChI=1S/C6H8O3/c1-2-3(7)4(8)6-5(2)9-6/h2,4-6,8H,1H3	InChI=1S/C6H8O3/c1-2-3(7)4(8)6-5(2)9-6/h2,4-6,8H,1H3/t2-,4+,5-,6+/m1/s1
