21
gdb 120942	2.85228	1.07244	0.91654	1.3388	79.33	-0.2307	0.0703	0.301	1379.6838	0.180498	-424.172426	-424.162807	-424.161863	-424.207401	35.055	
C	 0.664745769	 1.2147302845	-0.0308110196	-0.222934
O	 0.7662864591	-0.1739160065	-0.2367632128	-0.236381
C	-0.1065364594	-0.6480050639	-1.2389831183	-0.085309
C	 0.1065247379	-2.1461370844	-1.3423431181	 0.075306
O	-0.7851624814	-2.783999681	-2.2961579079	-0.314585
C	 0.3334491268	-3.4361425292	-2.9119986379	 0.06526
C	 1.2508456335	-2.4278564047	-3.5282782408	-0.353525
C	 1.3433357383	-2.7227089408	-2.0403185612	 0.266616
C	 2.5920919044	-3.1689306905	-1.3399480842	-0.494758
H	 0.9168066054	 1.7824486643	-0.940466745	 0.105212
H	-0.3493810676	 1.5068492733	 0.2845486227	 0.105893
H	 1.3710219756	 1.4815956049	 0.759172283	 0.12703
H	-1.1599814377	-0.4450197922	-0.9805499967	 0.095174
H	 0.094457854	-0.1551364224	-2.203306122	 0.088482
H	-0.0252654434	-2.595113627	-0.3487805907	 0.085131
H	 0.2117203692	-4.4687019009	-3.2188532079	 0.101395
H	 2.074937599	-2.8370368116	-4.1058122337	 0.111144
H	 0.8438778138	-1.4965300025	-3.9124694432	 0.112268
H	 3.1898103415	-2.3076565404	-1.0210598085	 0.132361
H	 2.3577552683	-3.7592536792	-0.4469844589	 0.120077
H	 3.2163745137	-3.7847800696	-1.9952348784	 0.116142
60.999	87.5373	105.6546	178.7474	215.4007	246.5191	262.8546	305.6944	379.9148	385.224	474.3787	550.0332	645.116	740.8992	811.5973	890.6706	896.7293	967.9991	974.6581	995.7037	1025.9763	1034.4531	1055.3993	1070.3873	1098.989	1132.0135	1143.9729	1169.0235	1185.7929	1223.9344	1233.9515	1244.3674	1276.657	1287.3348	1354.172	1403.9692	1421.6969	1435.8258	1480.2518	1485.0974	1485.4492	1489.5662	1500.6965	1503.6274	1524.8681	2959.538	2973.4342	2995.1964	3015.4415	3021.8669	3027.116	3087.8479	3099.1925	3112.8454	3113.5976	3178.1093	3201.4986
COCC1OC2CC12C	COC[C@H]1O[C@H]2C[C@@]12C	
InChI=1S/C7H12O2/c1-7-3-5(7)9-6(7)4-8-2/h5-6H,3-4H2,1-2H3	InChI=1S/C7H12O2/c1-7-3-5(7)9-6(7)4-8-2/h5-6H,3-4H2,1-2H3/t5-,6+,7+/m0/s1
