23
gdb 119576	3.23429	0.97669	0.87097	1.1972	87.01	-0.2399	0.0888	0.3286	1470.8737	0.204762	-388.254763	-388.244949	-388.244005	-388.28971	36.445	
C	 0.8680832595	 1.5411732581	-0.4347360758	-0.219569
O	 1.0912089885	 0.1595601398	-0.5720175766	-0.23427
C	-0.1050913379	-0.5865901265	-0.6565315651	-0.182683
C	 0.2231318749	-2.046962846	-0.7693855761	 0.349138
C	 1.3986312484	-2.6714929422	-0.0712230633	-0.329511
C	 1.323146794	-2.74100123	-1.5735337077	-0.087482
C	 0.3506908224	-3.8498831965	-1.9919710867	-0.247592
C	-0.7959488734	-3.1169315549	-1.2101311835	-0.040855
C	-1.5853682082	-3.8788403296	-0.1516572677	-0.408893
H	 0.3161669486	 1.9544259521	-1.294172109	 0.102905
H	 0.299557296	 1.7750259803	 0.479670889	 0.103313
H	 1.8451586788	 2.0271771295	-0.3769157171	 0.126176
H	-0.7338649184	-0.3977551027	 0.2335645395	 0.083841
H	-0.6937208406	-0.2625383316	-1.534289596	 0.081097
H	 2.1099146384	-1.9520825449	 0.3181201647	 0.124876
H	 1.2901896174	-3.5736935351	 0.5270729737	 0.095399
H	 2.0820244536	-2.2908436467	-2.2014807968	 0.088227
H	 0.1617744906	-3.8963817881	-3.0668002164	 0.098198
H	 0.6053521603	-4.8567169224	-1.6410362391	 0.090658
H	-1.4940247442	-2.6756090746	-1.9308157018	 0.067414
H	-0.9263137272	-4.3311657954	 0.59630505	 0.115776
H	-2.2842519637	-3.2196690847	 0.3755463657	 0.111313
H	-2.170606838	-4.6853155678	-0.6075280738	 0.112526
68.4649	79.3347	128.7069	178.2509	219.7872	230.0515	245.0606	296.9409	356.8383	394.2978	437.9402	536.2997	644.3361	713.6802	811.6144	837.6252	867.7505	893.577	935.9659	975.941	989.648	1015.4115	1037.395	1062.2332	1085.2038	1093.066	1117.7966	1149.5	1157.0736	1184.8152	1189.2971	1208.1235	1234.7783	1244.8605	1260.2229	1270.5006	1291.4298	1365.5181	1396.6543	1411.8782	1431.6323	1478.8	1482.7022	1485.2116	1495.0168	1496.3221	1503.0693	1505.9166	1526.5552	2923.7727	2945.2704	2968.1797	3010.373	3026.3465	3032.8032	3035.4184	3089.6747	3098.6053	3102.6926	3108.9409	3112.5083	3187.3551	3215.0349
COCC12CC1CC2C	COC[C@]12C[C@H]1C[C@H]2C	
InChI=1S/C8H14O/c1-6-3-7-4-8(6,7)5-9-2/h6-7H,3-5H2,1-2H3	InChI=1S/C8H14O/c1-6-3-7-4-8(6,7)5-9-2/h6-7H,3-5H2,1-2H3/t6-,7-,8+/m1/s1
