17
gdb 43081	2.65463	2.0475	1.72788	3.2216	70.66	-0.2287	-0.021	0.2077	857.7241	0.139067	-421.839407	-421.83321	-421.832266	-421.869791	25.99	
O	 0.0026859332	 0.0147861846	-0.0378038132	-0.33372
C	-0.0310425564	 1.2149560863	-0.0018521199	 0.440706
C	-1.2649829082	 2.1281422273	 0.0215153665	-0.159438
C	-1.4094209793	 2.690247823	 1.4706934865	-0.242325
C	-0.2600710307	 3.6536120398	 1.1091563922	 0.105556
O	 1.0055969177	 2.9843361466	 1.2165147848	-0.281464
C	 1.1516080536	 2.2080581149	 0.0104921218	-0.022125
C	 0.7098205178	 3.184345477	-1.0894420829	-0.253064
C	-0.6231488728	 3.5014814263	-0.4049972458	-0.060695
H	-2.1316892035	 1.7065835717	-0.4862535118	 0.088955
H	-2.361153346	 3.2151324254	 1.5964072296	 0.10771
H	-1.2452958288	 2.0107385738	 2.310174034	 0.119682
H	-0.1815263468	 4.62524376	 1.5988855281	 0.081944
H	 2.1447900905	 1.7659177836	-0.0206522108	 0.095465
H	 1.3780548433	 4.0446877363	-1.1768384486	 0.114738
H	 0.5917840495	 2.7039391899	-2.0657730642	 0.115472
H	-1.283248333	 4.2477546036	-0.8407572662	 0.082601
139.9335	280.3502	379.0394	434.4109	465.5998	526.3734	608.1716	707.1487	753.0875	767.2536	817.0227	847.4592	866.5392	912.8018	935.7908	938.1513	959.7727	969.0492	996.9852	1032.1848	1045.9881	1086.8066	1117.505	1137.9035	1169.3713	1200.9782	1221.6519	1240.4225	1251.9334	1280.7071	1291.8051	1301.4251	1309.9654	1349.1533	1478.2283	1480.6066	1863.86	3055.2665	3058.5197	3102.1384	3115.6768	3117.5584	3123.2268	3147.9525	3157.746
O=C1C2CC3OC1CC23	O=C1[C@H]2C[C@H]3O[C@@H]1C[C@@H]23	
InChI=1S/C7H8O2/c8-7-4-2-5-3(4)1-6(7)9-5/h3-6H,1-2H2	InChI=1S/C7H8O2/c8-7-4-2-5-3(4)1-6(7)9-5/h3-6H,1-2H2/t3-,4-,5+,6+/m0/s1
