15
gdb 65834	3.10949	1.22143	1.16202	4.9832	65.87	-0.283	-0.0046	0.2784	1092.193	0.113005	-454.008169	-453.999982	-453.999038	-454.041126	29.963	
C	 0.0681623388	 1.4773963617	 0.0796468087	-0.422684
C	-0.0393512198	-0.045419454	-0.0404891227	 0.228802
C	 0.7493135125	-0.6145031479	-1.2617132962	-0.223416
N	 1.981140382	-0.9926044417	-0.6064233549	-0.368824
C	 1.8088392557	-1.1893566174	 0.7455245947	 0.477109
O	 2.5539508573	-1.6985083949	 1.5285166243	-0.371736
O	 0.5883143032	-0.6569590155	 1.1001235248	-0.261602
C	-1.448816942	-0.4656676941	-0.0734688658	 0.267466
N	-2.560859646	-0.7702660907	-0.134985187	-0.322847
H	 1.1224280375	 1.7652472282	 0.0545782765	 0.14602
H	-0.457026258	 1.964939563	-0.7460699902	 0.142178
H	-0.3690230979	 1.8089880739	 1.0233492181	 0.158608
H	 0.2270320682	-1.4650374505	-1.7156073549	 0.14048
H	 0.8986242698	 0.1559136815	-2.0227442453	 0.137544
H	 2.6876600787	-1.5411644315	-1.0690471402	 0.272902
77.1313	149.0734	186.3569	191.2159	257.8873	334.2712	400.668	467.2618	484.157	514.0935	590.4211	610.2098	724.4741	763.5488	809.9476	921.8206	956.8624	960.3682	990.2614	1094.2989	1142.9261	1156.5701	1203.4037	1233.406	1285.3288	1355.1047	1407.5139	1439.5298	1483.4362	1488.994	1533.5894	1910.4609	2367.604	3031.8931	3052.5118	3091.0233	3132.3966	3146.0292	3657.3889
CC1(CNC(=O)O1)C#N	C[C@]1(CNC(=O)O1)C#N	
InChI=1S/C5H6N2O2/c1-5(2-6)3-7-4(8)9-5/h3H2,1H3,(H,7,8)	InChI=1S/C5H6N2O2/c1-5(2-6)3-7-4(8)9-5/h3H2,1H3,(H,7,8)/t5-/m1/s1
