17
gdb 12595	3.2031	2.09527	1.29735	3.5049	71.33	-0.2032	0.0063	0.2095	933.8262	0.141872	-363.921123	-363.912996	-363.912052	-363.953421	29.707	
C	-0.0218901992	 1.4527832538	 0.012756052	-0.354554
N	-0.0001793508	 0.0079587522	 0.0420122911	-0.127083
C	-0.0179251932	-0.757105105	-1.1152725065	 0.398509
O	-0.0524659695	-0.3203545162	-2.245513315	-0.385684
C	 0.014555131	-2.2186944531	-0.6546871434	-0.388914
C	 0.050293528	-2.1098377549	 0.843905891	-0.222816
C	 0.0402906014	-0.8160921811	 1.1913390041	 0.357514
C	 0.0651624882	-0.2020503444	 2.5510660592	-0.496374
H	 0.8733387863	 1.8819027325	 0.476445084	 0.127941
H	-0.0518692097	 1.7442507684	-1.0387482743	 0.169316
H	-0.9054453703	 1.8560887824	 0.5199801702	 0.127941
H	-0.8661082173	-2.7422615063	-1.0452800625	 0.141997
H	 0.889377378	-2.7170101913	-1.0889878318	 0.141989
H	 0.0794056096	-2.9412149184	 1.5318539768	 0.098938
H	 0.0958900507	-0.9847537994	 3.3116057714	 0.138143
H	 0.9407507836	 0.4431932662	 2.6879844104	 0.136561
H	-0.8213710367	 0.4168556949	 2.7320873532	 0.136575
113.6183	141.307	177.1596	196.3504	242.9113	276.063	332.3803	522.7583	523.9091	569.692	609.8274	711.3651	712.4072	713.7692	944.9725	949.524	976.5673	1029.171	1066.4666	1088.9457	1144.4438	1154.3704	1166.2328	1255.784	1268.2999	1335.4543	1395.3454	1421.6518	1437.7454	1454.3128	1474.5856	1488.5689	1500.4442	1512.6559	1710.1145	1814.4376	3023.6192	3031.1099	3041.3154	3070.8523	3075.5435	3081.4581	3131.319	3141.167	3244.5331
CN1C(=O)CC=C1C	CN1C(=O)CC=C1C	
InChI=1S/C6H9NO/c1-5-3-4-6(8)7(5)2/h3H,4H2,1-2H3	InChI=1S/C6H9NO/c1-5-3-4-6(8)7(5)2/h3H,4H2,1-2H3
