18
gdb 30785	3.18295	1.25628	0.94564	1.1002	76.28	-0.1727	0.0575	0.2302	1250.4323	0.146403	-439.097424	-439.087676	-439.086732	-439.132915	34.294	
C	 0.1706907415	 1.1203235383	-0.432576016	-0.244391
O	-0.0883280131	 0.0670021427	 0.4854324505	-0.290082
C	-1.3134998117	-0.5369890547	 0.3280602223	 0.180944
C	-1.4408819753	-1.8815175391	 0.070862737	 0.28242
O	-0.5025274139	-2.8441541729	-0.1184950391	-0.453436
N	-2.7677966678	-2.2073494537	 0.0549904375	-0.044036
C	-3.2965367383	-3.5221259881	-0.2366430058	-0.335279
C	-3.5008764627	-1.0550316679	 0.2812865569	-0.107459
C	-2.6314942343	-0.007020202	 0.4632876441	-0.282267
H	 1.1819306064	 1.4798284147	-0.2262512865	 0.122884
H	 0.1095172867	 0.7700555908	-1.4717447346	 0.110586
H	-0.5354437668	 1.950339975	-0.302215399	 0.11815
H	 0.3502861912	-2.4186018551	 0.0332333217	 0.30828
H	-4.3135403861	-3.5902315086	 0.1548138203	 0.136247
H	-3.31850183	-3.7247073993	-1.3139238261	 0.135915
H	-2.6806534501	-4.2852276276	 0.2445696166	 0.151453
H	-4.5776520672	-1.0937316159	 0.2926270865	 0.112418
H	-2.9025279886	 1.0135307734	 0.6833038036	 0.097653
43.7978	57.8728	117.2135	157.3353	191.672	260.6981	271.6212	287.0448	356.4297	410.4892	545.6647	572.155	612.0934	625.7203	702.8447	741.6167	769.6418	774.933	989.2062	1031.6429	1101.9508	1106.4099	1151.261	1178.3235	1198.0023	1218.6811	1251.2902	1295.6923	1383.3974	1402.3349	1452.9754	1479.1154	1484.6034	1487.9666	1505.1978	1510.5158	1529.8487	1575.1043	1658.2654	3000.3235	3030.9456	3059.7379	3101.9681	3116.5785	3138.9808	3250.2394	3272.6667	3801.4768
COC1=C(O)N(C)C=C1	COc1c(O)n(C)cc1	
InChI=1S/C6H9NO2/c1-7-4-3-5(9-2)6(7)8/h3-4,8H,1-2H3	InChI=1S/C6H9NO2/c1-7-4-3-5(9-2)6(7)8/h3-4,8H,1-2H3
