23
gdb 122332	4.55768	0.62498	0.59223	1.3784	89.45	-0.2246	0.0346	0.2592	1947.6693	0.206055	-388.306575	-388.296529	-388.295584	-388.342869	36.269	
O	-0.0954076958	 1.4452243078	 0.3940791154	-0.422266
C	-0.0114022813	 0.0745232435	 0.0332945606	-0.072093
C	-1.4077243715	-0.5246924933	 0.1328694375	-0.160283
C	-1.4352978612	-2.0219112455	-0.2250538406	-0.323934
C	-2.799391015	-2.6393018989	-0.1194966878	 0.358749
C	-3.528233943	-3.1477635174	-1.1157102219	-0.17464
C	-4.8349336504	-3.739793038	-0.6470091525	-0.242152
C	-4.9479433821	-3.2180582631	 0.809077375	-0.202368
C	-3.507736287	-2.8158422985	 1.211999405	-0.298739
H	 0.783248032	 1.8291750919	 0.3231552693	 0.284423
H	 0.3729359937	-0.0448827169	-0.9933755836	 0.082835
H	 0.6751526236	-0.4722235115	 0.7012562577	 0.081966
H	-1.7770017393	-0.3671995403	 1.1524510896	 0.109094
H	-2.0787051274	 0.0288958631	-0.5335538858	 0.109006
H	-1.0515591108	-2.1592833766	-1.2433650341	 0.09783
H	-0.742539279	-2.5555590952	 0.4432339987	 0.097462
H	-3.2100883099	-3.1814223832	-2.153191562	 0.077815
H	-5.6893597714	-3.4409226975	-1.2653464732	 0.098411
H	-4.8005365197	-4.8385437582	-0.6871063708	 0.100493
H	-5.588746757	-2.3307616417	 0.825902045	 0.103956
H	-5.391883798	-3.9485673097	 1.4902191392	 0.093508
H	-3.0100338983	-3.602344783	 1.7992309035	 0.098955
H	-3.4861452013	-1.9151197378	 1.8356183359	 0.101973
47.8822	68.3394	81.0888	129.3183	144.0575	239.6214	260.3307	285.8823	323.3671	417.0867	524.3422	606.5844	691.1866	757.9488	810.2003	843.9155	856.2494	891.2634	907.4943	919.5273	958.8413	1021.0008	1028.2975	1038.5403	1063.0188	1080.0784	1098.7903	1149.6987	1171.1804	1208.3619	1224.5874	1234.0339	1245.6272	1276.8447	1304.2628	1306.4712	1315.6026	1321.9032	1327.9734	1369.0628	1377.1374	1461.6575	1478.1394	1482.9958	1488.9322	1499.276	1506.745	1528.0457	1718.5066	2954.655	2979.8778	2991.2629	2995.9147	2998.629	3039.8138	3042.1021	3047.11	3050.6643	3061.6023	3088.158	3099.359	3177.562	3829.6015
OCCCC1=CCCC1	OCCCC1=CCCC1	
InChI=1S/C8H14O/c9-7-3-6-8-4-1-2-5-8/h4,9H,1-3,5-7H2	InChI=1S/C8H14O/c9-7-3-6-8-4-1-2-5-8/h4,9H,1-3,5-7H2
