15
gdb 108996	3.31746	1.17406	1.09221	3.2206	67.93	-0.2512	-0.0041	0.2471	1127.4057	0.111488	-457.722025	-457.714142	-457.713197	-457.755001	28.959	
O	-0.0756513151	 1.375090621	-0.1619615782	-0.409941
C	-0.0473362452	-0.0254839436	 0.0339572481	-0.212385
C	-1.4431068661	-0.5328755825	 0.1039632318	 0.348382
C	-2.6224602142	 0.1206337078	 0.1056774087	-0.179895
C	-3.6265533852	-1.0069426761	 0.0727534306	-0.101111
O	-3.0311300256	-2.0041453299	 0.954370714	-0.260177
C	-1.8777138257	-1.9843223648	 0.0724365643	-0.175543
C	-2.9682748503	-1.8730575751	-1.0907996157	 0.429077
O	-3.2045189576	-2.3037864789	-2.1640111912	-0.293007
H	 0.8256963735	 1.7052701588	-0.1063137531	 0.294339
H	 0.4846190174	-0.5419687936	-0.784772818	 0.108369
H	 0.4848856724	-0.2930335454	 0.9633526789	 0.110536
H	-2.8166073617	 1.1792523777	 0.0380080078	 0.135193
H	-4.6915706003	-0.842610204	 0.2116971478	 0.105719
H	-1.1768197162	-2.8055437714	 0.2040217741	 0.100442
67.0209	123.7595	187.7237	210.9944	240.0474	370.6597	423.3291	518.063	579.4269	625.0691	677.0462	763.7392	820.6893	849.7887	886.2856	913.5842	942.8204	960.7799	1033.6023	1036.507	1078.3172	1104.7746	1151.6486	1178.7907	1207.9715	1245.3459	1252.0799	1293.1871	1307.9124	1465.3456	1501.9993	1648.3531	1931.203	2945.5274	2960.4237	3158.8107	3172.2313	3266.6248	3836.2699
OCC1=CC2OC1C2=O	OCC1=C[C@@H]2O[C@H]1C2=O	
InChI=1S/C6H6O3/c7-2-3-1-4-5(8)6(3)9-4/h1,4,6-7H,2H2	InChI=1S/C6H6O3/c7-2-3-1-4-5(8)6(3)9-4/h1,4,6-7H,2H2/t4-,6+/m0/s1
