15
gdb 16689	4.46452	1.7351	1.62135	4.1812	60.96	-0.2427	0.0201	0.2628	811.4191	0.120568	-399.799562	-399.793045	-399.792101	-399.82988	25.948	
O	-0.0215325351	 1.4127278878	-0.1076431373	-0.435531
C	 0.0388482716	 0.0130513115	-0.028905557	 0.155043
C	 0.0567677339	-0.6123358122	 1.4077604823	-0.062446
C	-1.4467711175	-0.2203640134	 1.5016832416	-0.235076
C	-1.3923556924	-0.6133793394	-0.0224011633	-0.172025
C	-1.0432742847	-2.103177032	 0.1240737141	 0.410813
O	-1.5501729554	-3.0828676328	-0.3593923225	-0.374479
N	 0.0225302848	-2.0363199247	 1.0230038976	-0.317944
H	 0.8704382803	 1.7584597851	 0.0000915701	 0.289565
H	 0.7643459473	-0.415297007	-0.7316290007	 0.083473
H	 0.8070516232	-0.3691373041	 2.1592224033	 0.079701
H	-2.0814299299	-0.819345884	 2.1589155139	 0.104304
H	-1.6115425368	 0.8459940936	 1.6486184093	 0.127286
H	-2.1561187182	-0.3528437559	-0.749824319	 0.095936
H	 0.1766120588	-2.7809622526	 1.6866264575	 0.25138
168.9495	288.2722	301.8023	318.736	393.8999	470.1736	483.4279	549.4326	649.6086	742.8607	801.8419	856.1896	873.7799	901.9223	948.4537	977.9693	1014.205	1043.5911	1075.8354	1111.0248	1118.3455	1177.3956	1192.9102	1225.1314	1235.069	1244.8608	1298.5589	1315.849	1365.0162	1423.1554	1490.9444	1868.0963	3031.7902	3077.0618	3127.6056	3158.2649	3167.6029	3618.4403	3815.2946
OC1C2CC1C(=O)N2	O[C@H]1[C@H]2C[C@@H]1C(=O)N2	
InChI=1S/C5H7NO2/c7-4-2-1-3(4)6-5(2)8/h2-4,7H,1H2,(H,6,8)	InChI=1S/C5H7NO2/c7-4-2-1-3(4)6-5(2)8/h2-4,7H,1H2,(H,6,8)/t2-,3+,4+/m0/s1
