16
gdb 131148	3.73512	1.25881	1.03136	2.1091	70.78	-0.2547	-0.0123	0.2425	1130.8274	0.124284	-437.861159	-437.853446	-437.852502	-437.893954	29.475	
O	 0.2569170625	 1.3302857778	 0.3740340719	-0.454053
C	 0.0624502598	-0.029694904	 0.0918508011	 0.288467
C	-0.7103943193	-0.8685697168	 1.0823749949	-0.321983
C	-1.3661013764	-0.4158294866	-0.1982556858	-0.27938
C	 1.1560970426	-0.6416155335	-0.7045553744	 0.326985
N	 1.2978195093	-1.9440975923	-0.8084462997	-0.218047
O	 2.3961193661	-2.141202566	-1.6414790321	-0.167603
C	 2.8849140354	-0.9463981536	-2.0005918667	 0.085207
C	 2.1551385775	 0.0538133591	-1.4488516232	-0.352312
H	 0.9176783158	 1.3954138278	 1.0729817419	 0.286263
H	-0.4288813833	-1.9102252972	 1.180598032	 0.14502
H	-1.0071002211	-0.3682820863	 1.9973472554	 0.116498
H	-2.0904756525	 0.3881320135	-0.1381740387	 0.128048
H	-1.5356029189	-1.1490588515	-0.9776362229	 0.133895
H	 3.7489471268	-0.9682407288	-2.6468176626	 0.152063
H	 2.2786621157	 1.1179547884	-1.548180741	 0.130933
43.1191	159.9389	188.4296	318.4836	326.6358	360.9953	442.7922	498.7467	540.8366	610.0165	736.7229	778.2796	811.1987	863.478	871.6456	910.7699	916.1118	936.3753	945.9492	984.0013	1004.428	1057.5624	1064.73	1085.1376	1159.4218	1197.3122	1202.0092	1267.393	1332.2268	1360.4104	1439.211	1445.6001	1481.4506	1493.2855	1602.9552	3140.8224	3144.6457	3232.5337	3245.893	3263.1995	3298.6526	3791.0746
OC1(CC1)C1=NOC=C1	OC1(CC1)c1nocc1	
InChI=1S/C6H7NO2/c8-6(2-3-6)5-1-4-9-7-5/h1,4,8H,2-3H2	InChI=1S/C6H7NO2/c8-6(2-3-6)5-1-4-9-7-5/h1,4,8H,2-3H2
