18
gdb 28098	4.88908	1.1971	0.97316	1.3456	89.38	-0.1699	0.0065	0.1763	1205.6753	0.149914	-364.864081	-364.856414	-364.855469	-364.895856	30.398	
C	-0.0207836112	 1.4632501066	 0.0299818148	-0.486023
C	 0.0001826572	-0.0301986731	-0.0189338032	 0.304924
C	-0.0314767137	-0.8164967725	-1.1205881238	-0.31288
C	 0.0073733996	-2.2000231626	-0.6867053084	 0.323288
C	 0.063735238	-2.2916399367	 0.6897643023	 0.282899
C	 0.06400432	-0.8933425847	 1.24330908	-0.463828
C	 0.0985532515	-3.6660052519	 1.0285848977	-0.328462
C	 0.0615818789	-4.3662530841	-0.1641604109	-0.081033
N	 0.0059825716	-3.4619701812	-1.20987053	-0.388056
H	 0.8739811933	 1.8670107725	 0.5224060257	 0.122261
H	-0.0703983589	 1.8924297247	-0.9749744717	 0.120227
H	-0.882152794	 1.8398765372	 0.5976421321	 0.122211
H	-0.0778425084	-0.4647449165	-2.1440598791	 0.08689
H	 0.9618927223	-0.6580231733	 1.8311165317	 0.120322
H	-0.7912487163	-0.6853855111	 1.9008774286	 0.120329
H	 0.1447134137	-4.1141454765	 2.0098460812	 0.088379
H	 0.0702716246	-5.4271240143	-0.3564356928	 0.111918
H	-0.029004318	-3.7090882125	-2.1829190341	 0.256632
133.2481	158.3666	243.5254	265.7522	291.3335	438.4957	451.1256	463.3321	520.4921	617.8249	671.6248	713.4951	721.1693	787.5848	815.4771	839.4105	864.687	924.3701	937.8486	1007.3801	1052.3799	1067.1035	1083.6079	1148.5088	1148.8419	1168.3123	1205.4126	1289.8578	1303.77	1369.1803	1412.0468	1429.9592	1451.1486	1473.5859	1476.8198	1487.7147	1541.691	1570.2159	1644.6146	3006.9873	3018.9471	3042.7637	3049.0324	3102.5314	3202.3353	3239.5066	3267.1379	3684.1535
CC1=CC2=C(C1)C=CN2	CC1=Cc2c(C1)cc[nH]2	
InChI=1S/C8H9N/c1-6-4-7-2-3-9-8(7)5-6/h2-3,5,9H,4H2,1H3	InChI=1S/C8H9N/c1-6-4-7-2-3-9-8(7)5-6/h2-3,5,9H,4H2,1H3
