18
gdb 63902	2.43836	1.69747	1.37828	3.2479	71.37	-0.2406	-0.0307	0.2099	1002.5539	0.147668	-439.089153	-439.080948	-439.080004	-439.121473	32.213	
C	-0.2879110561	 1.5876716422	 0.0763666747	-0.437819
C	-0.0339230037	 0.079544593	-0.0510657354	 0.294901
O	-1.2626282566	-0.6258025769	-0.1107665038	-0.481096
C	 0.8545514309	-0.305744737	-1.2605569273	-0.257028
C	 2.2520038132	-0.53716011	-0.6962802064	-0.039887
N	 2.7411264949	 0.5927261436	 0.0953172937	-0.327022
C	 2.1970077714	-0.6099801928	 0.7981692058	-0.172018
C	 0.7617257133	-0.4502874113	 1.170959983	 0.411437
O	 0.2263098631	-0.8070973606	 2.1930534841	-0.352373
H	 0.6492531233	 2.148472315	 0.078462714	 0.143462
H	-0.9055629328	 1.9152874583	-0.7653242803	 0.122004
H	-0.8309356343	 1.7975744895	 1.0034436182	 0.118454
H	-1.5179188204	-0.7851673925	 0.8097531092	 0.285245
H	 0.4647290559	-1.2355097025	-1.6838031313	 0.12392
H	 0.8558992018	 0.4580181042	-2.0433671113	 0.1113
H	 2.9642265728	-1.1422961412	-1.247814436	 0.101686
H	 3.7556909755	 0.550352073	 0.1649855924	 0.2443
H	 2.8511198378	-1.2247401039	 1.4043568167	 0.110535
95.5104	199.6947	223.8964	254.3303	307.4618	351.487	353.2683	396.5032	441.9718	498.2369	599.7416	625.5915	697.4351	782.5108	807.9316	850.2953	888.176	909.4605	948.3358	962.207	979.142	1017.1128	1094.6657	1121.2511	1131.6019	1151.8833	1170.08	1224.6052	1240.5539	1256.3768	1338.8625	1357.8001	1386.3486	1394.7653	1412.4987	1479.1865	1489.2093	1501.4148	1832.2483	3038.8879	3060.668	3109.5836	3112.2655	3137.8486	3165.5276	3195.2291	3495.6724	3729.2075
CC1(O)CC2NC2C1=O	C[C@@]1(O)C[C@H]2N[C@H]2C1=O	
InChI=1S/C6H9NO2/c1-6(9)2-3-4(7-3)5(6)8/h3-4,7,9H,2H2,1H3	InChI=1S/C6H9NO2/c1-6(9)2-3-4(7-3)5(6)8/h3-4,7,9H,2H2,1H3/t3-,4-,6-/m1/s1
