18
gdb 67263	2.76717	2.18301	1.74774	1.0676	73.22	-0.2275	0.0646	0.2921	855.6829	0.149874	-401.874521	-401.868141	-401.867196	-401.904851	27.022	
C	-0.0630941135	 1.5045924747	 0.0502999959	-0.525995
C	-0.0522514447	 0.0062965429	 0.0084484567	 0.365349
C	 0.5728952592	-0.8282164697	-1.1749035312	-0.124107
C	 1.8255699129	-0.9542811362	-0.2825434984	-0.194168
N	 0.9177203051	-0.7876898417	 0.9051570601	-0.186044
C	-0.0913619308	-1.8848504737	 0.7414349441	-0.061845
C	-0.2498495812	-2.0794417338	-0.8241572851	 0.082283
O	-1.6364296235	-1.6508548406	-0.7703750176	-0.299602
C	-1.2492503235	-0.9267410337	 0.4041670011	 0.02166
H	 0.9184377743	 1.9221394542	-0.1983890912	 0.124394
H	-0.7895274492	 1.8992270059	-0.6686175552	 0.128785
H	-0.3363249997	 1.8617716503	 1.048259754	 0.130032
H	 0.5863468385	-0.5022437024	-2.2151228987	 0.07243
H	 2.3956659385	-1.889591751	-0.3094745423	 0.10111
H	 2.5139349979	-0.1079820445	-0.3510670077	 0.111774
H	-0.0967603156	-2.725028451	 1.4324400555	 0.080825
H	-0.0956616777	-3.0096659807	-1.3681982885	 0.085378
H	-2.0659645668	-0.5849911291	 1.0376935384	 0.087742
209.6393	241.588	263.5975	387.1567	478.4229	540.5537	604.3587	708.6816	733.0089	804.4442	814.835	831.7123	855.7966	861.3418	898.8225	915.1008	949.2447	963.7244	979.4514	1003.3744	1028.1696	1045.2164	1115.9686	1133.6798	1142.9146	1169.3897	1183.2192	1190.2591	1208.275	1232.554	1250.2617	1279.117	1292.2142	1314.606	1351.5547	1414.1822	1482.7901	1489.2307	1509.4035	3030.0559	3042.16	3096.9406	3103.2248	3104.1626	3115.0265	3132.9962	3137.0707	3147.6812
CC12C3CN1C1C3OC21	C[C@@]12[C@H]3CN1[C@@H]1[C@H]3O[C@H]21	
InChI=1S/C7H9NO/c1-7-3-2-8(7)4-5(3)9-6(4)7/h3-6H,2H2,1H3	InChI=1S/C7H9NO/c1-7-3-2-8(7)4-5(3)9-6(4)7/h3-6H,2H2,1H3/t3-,4+,5-,6-,7-/m0/s1
