20
gdb 66252	3.67907	1.1374	1.07877	1.6413	74.07	-0.2381	0.0649	0.303	1193.7146	0.172302	-440.256479	-440.24796	-440.247016	-440.289905	32.609	
O	 0.0467199009	 1.2852158555	 0.1129390284	-0.490186
C	-0.0510630491	-0.137020213	 0.0669277727	 0.375972
C	 0.7040624507	-0.6903026131	-1.1742443271	-0.291894
C	 2.1242184835	-0.9885143309	-0.6274242748	-0.091209
O	 2.1254042463	-0.5675748428	 0.7418753508	-0.264008
C	 0.7911952864	-0.7389333276	 1.2014929257	-0.13603
C	-1.5192639313	-0.499326808	 0.1188655553	-0.028838
C	-2.4652909462	 0.2817294319	 0.9523666546	-0.245637
N	-2.5192625105	 0.3655545715	-0.5196299478	-0.333402
H	 0.9727957772	 1.4930147798	 0.284797241	 0.288485
H	 0.2262033951	-1.5971395598	-1.5535778341	 0.110603
H	 0.698895567	 0.0537456053	-1.9725883501	 0.119917
H	 2.3529582628	-2.0621601847	-0.6869438081	 0.101007
H	 2.9199991857	-0.4422190825	-1.1398255155	 0.113562
H	 0.6755932292	-0.2017983709	 2.1450277283	 0.118348
H	 0.5522457157	-1.8041885648	 1.3555442014	 0.088705
H	-1.7045434862	-1.5628478863	-0.0197786462	 0.085386
H	-3.3131032646	-0.2141764616	 1.4164241897	 0.112255
H	-2.0666028509	 1.1327838205	 1.4948082429	 0.122332
H	-2.0541206318	 1.2260018714	-0.8027672672	 0.244635
75.5747	81.3488	182.587	210.7663	273.0242	363.6607	384.7524	409.4321	416.0637	497.4657	655.5271	698.7143	805.549	813.7338	852.5831	878.2098	928.0493	946.383	964.7483	975.6824	987.8067	1015.1391	1049.1312	1083.8545	1116.8406	1144.4511	1147.4399	1166.7744	1202.2983	1230.5194	1256.9105	1268.4809	1282.9253	1288.4939	1310.7245	1328.216	1373.6041	1392.4639	1450.0832	1482.9625	1498.1386	1500.3425	1524.2501	2972.592	3001.4885	3072.0005	3090.9762	3113.2037	3116.0518	3122.7186	3127.8596	3208.4238	3497.1488	3793.8778
OC1(CCOC1)C1CN1	O[C@]1(CCOC1)[C@H]1CN1	
InChI=1S/C6H11NO2/c8-6(5-3-7-5)1-2-9-4-6/h5,7-8H,1-4H2	InChI=1S/C6H11NO2/c8-6(5-3-7-5)1-2-9-4-6/h5,7-8H,1-4H2/t5-,6+/m1/s1
