17
gdb 12547	3.44778	1.81498	1.25841	1.3402	65.61	-0.2405	0.0171	0.2576	939.4428	0.143631	-400.998665	-400.991119	-400.990174	-401.030624	28.195	
O	-0.1276503102	 1.4588380113	-0.0343663866	-0.43308
C	-0.0038730533	 0.04337647	 0.0253155927	 0.100774
C	-1.4120583747	-0.5262750702	-0.067450655	-0.205406
C	-1.4678686207	-2.0073966875	 0.2671788398	-0.075878
O	-0.8982950643	-2.8986858493	-0.6974114588	-0.227241
C	 0.4072273797	-2.818143869	-1.0746635302	 0.125489
N	 1.2097824813	-1.8585912289	-1.2239189665	-0.254929
C	 0.9043235928	-0.4475982788	-1.1115772763	-0.172182
H	 0.7560608986	 1.8393180187	 0.0030188911	 0.284715
H	 0.4354937715	-0.2642760605	 0.9902167066	 0.0677
H	-2.0473340103	 0.0047695889	 0.6505779599	 0.115316
H	-1.827203865	-0.3437020067	-1.0657451393	 0.112994
H	-0.9798675308	-2.1895231184	 1.2353080891	 0.108352
H	-2.50590271	-2.3378857487	 0.3479945253	 0.121105
H	 0.7485151038	-3.8239196632	-1.3258671955	 0.117454
H	 0.451662202	-0.1149060087	-2.0573115166	 0.122774
H	 1.8625715497	 0.0836457711	-1.0324183199	 0.092043
85.0349	124.2401	275.6143	298.1851	316.3498	333.5861	412.1964	445.5709	500.7795	559.1669	743.5029	826.2895	866.2349	928.9876	965.886	976.4642	986.6122	1052.4741	1092.2926	1101.3653	1126.1501	1161.099	1216.9877	1261.7754	1286.5017	1313.4124	1349.3669	1361.7939	1386.4892	1415.9993	1439.7755	1454.7748	1472.6074	1492.0445	1500.6195	1762.505	2949.5281	2999.2421	3009.7215	3031.1932	3038.9402	3085.0892	3103.5264	3123.0008	3813.5932
OC1CCOC=NC1	O[C@H]1CCOC=NC1	
InChI=1S/C5H9NO2/c7-5-1-2-8-4-6-3-5/h4-5,7H,1-3H2	InChI=1S/C5H9NO2/c7-5-1-2-8-4-6-3-5/h4-5,7H,1-3H2/t5-/m0/s1
