17
gdb 75761	2.50123	1.31599	1.15468	1.5712	77.08	-0.2472	0.0134	0.2606	1144.2112	0.133885	-417.967398	-417.957899	-417.956955	-418.00157	34.985	
C	 0.2058240838	 1.3399641993	-0.3164308099	-0.423913
C	-0.0551496703	-0.1316166855	-0.0405429408	 0.215467
O	 0.7573694366	-0.9862599229	-0.9440120144	-0.282255
C	 1.5570859248	-1.4173109381	 0.0885696144	 0.400843
N	 2.6237292656	-2.0775138752	 0.0839907758	-0.54911
C	 0.7362506868	-0.7483583797	 1.1802187106	-0.152404
N	 1.3509671859	 0.1388006762	 2.131208709	-0.513073
C	-1.4617205976	-0.480022165	-0.1180503973	 0.296503
C	-2.6299341144	-0.7607564032	-0.1502112485	-0.446641
H	 1.2784357396	 1.5481140203	-0.2930754629	 0.120472
H	-0.1861135923	 1.6149773962	-1.2985356012	 0.137331
H	-0.2819915712	 1.9506251659	 0.4469250927	 0.146163
H	 2.9055617568	-2.3309355279	-0.8647522816	 0.229999
H	 0.1038093025	-1.4719199514	 1.6983790376	 0.122884
H	 1.4545323962	-0.3121462071	 3.0314718527	 0.247582
H	 2.2789000093	 0.4137928589	 1.8287113125	 0.245676
H	-3.6616973821	-1.0106134907	-0.1885534388	 0.204477
74.9491	118.5124	138.9353	181.6328	204.4818	249.2578	250.8277	378.4078	415.3787	428.0377	501.1618	589.096	624.2153	633.7155	673.4993	673.8468	773.0835	804.8135	855.402	873.6036	909.5821	952.6032	1016.3573	1091.8596	1138.9281	1164.9757	1200.6244	1219.2492	1275.7349	1297.8735	1406.3498	1427.3006	1475.429	1487.2241	1674.3262	1819.2356	2236.0937	3053.818	3098.3703	3131.89	3138.6566	3473.1965	3500.4713	3527.6099	3607.8932
CC1(OC(=N)C1N)C#C	C[C@]1(O[C]([NH])[C@H]1N)C#C	
InChI=1S/C6H8N2O/c1-3-6(2)4(7)5(8)9-6/h1,4,8H,7H2,2H3	InChI=1S/C6H8N2O/c1-3-6(2)4(7)5(8)9-6/h1,4,8H,7H2,2H3/t4-,6+/m1/s1
