15
gdb 44111	3.49167	1.70806	1.45823	3.3071	70.2	-0.2461	-0.039	0.2071	890.4642	0.115567	-416.78201	-416.77583	-416.774886	-416.812448	25.288	
O	-0.1439955238	 0.0365716836	 0.088282649	-0.327236
C	-0.0747748582	 1.2289984508	-0.0085083638	 0.404972
N	-1.2190304463	 2.0937046075	-0.2590828356	-0.352974
C	-0.6580225937	 3.3101405815	 0.2071208956	 0.185942
N	-0.769739385	 3.7481263776	 1.399469415	-0.206947
C	 0.6085423277	 4.088688788	 1.8234736099	-0.187538
C	 1.50733178	 3.4745662362	 0.7448144507	-0.06562
C	 1.1778010827	 2.1032901212	-0.0250698545	-0.180814
C	 0.6944777826	 3.4490397378	-0.4822811157	-0.129327
H	-2.0542601909	 1.7720474802	 0.2185979359	 0.260091
H	 0.802560762	 5.1672683786	 1.9106134305	 0.119638
H	 0.7375323184	 3.6500092139	 2.8183282543	 0.134609
H	 2.5646997908	 3.7166243172	 0.7214346514	 0.106865
H	 2.0612678116	 1.6274302159	-0.4364571542	 0.121985
H	 0.8434999221	 3.90429369	-1.4532224683	 0.116354
136.6228	269.1962	362.1962	418.0045	483.7102	572.9097	603.3867	694.6941	724.0074	755.6696	783.1945	826.5024	835.6468	864.8711	882.8131	935.8853	970.6651	995.2502	1011.4701	1054.391	1061.9647	1094.328	1147.9412	1201.2597	1238.7895	1293.1129	1303.467	1316.1017	1325.2145	1368.7162	1478.6485	1655.4405	1861.5949	3012.0502	3076.1012	3174.4864	3181.5806	3195.3826	3560.6215
O=C1NC2=NCC3C1C23	O=C1N[C]2[N]C[C@H]3[C@@H]1[C@@H]23	
InChI=1S/C6H6N2O/c9-6-4-2-1-7-5(8-6)3(2)4/h2-4H,1H2,(H,7,8,9)	InChI=1S/C6H6N2O/c9-6-4-2-1-7-5(8-6)3(2)4/h2-4H,1H2,(H,7,8,9)/t2-,3+,4-/m1/s1
