19
gdb 59228	2.57699	1.53134	1.08265	3.8662	76.09	-0.2224	-0.014	0.2084	1144.6941	0.158428	-419.166211	-419.157425	-419.156481	-419.199659	32.741	
C	 0.8607203612	-0.3734154104	-1.1301782862	-0.320483
N	 0.035226952	 0.012899404	 0.0048840662	-0.06868
C	 0.1495502932	 1.4377956153	 0.3021554844	-0.333521
C	-1.3454562086	-0.3800509498	-0.1800414765	-0.103162
C	-1.673676085	-1.8750404175	-0.2188876424	-0.063081
C	-1.3608968755	-2.5201826017	 1.0601216852	-0.239045
N	-2.6473564397	-1.7522849171	 0.9677282548	-0.176131
C	-2.2560370972	-0.3605720188	 1.0711697349	 0.401888
O	-2.6280783492	 0.4692634656	 1.8409273155	-0.302599
H	 1.9050306653	-0.1197733044	-0.9245826051	 0.124922
H	 0.7987123273	-1.4548279325	-1.2868437114	 0.1236
H	 0.5654339909	 0.1298209576	-2.0707208824	 0.095076
H	-0.1422243971	 2.0752926806	-0.5539183186	 0.093833
H	-0.4903591511	 1.6918521051	 1.1494068223	 0.155569
H	 1.1864602061	 1.671600894	 0.5612929042	 0.119475
H	-1.8469710645	 0.1549345843	-1.0111489132	 0.085745
H	-1.9870461473	-2.4205083639	-1.0999082347	 0.116514
H	-1.5348434414	-3.5861489867	 1.1582484879	 0.140551
H	-0.5623908594	-2.1178010638	 1.6758264549	 0.149531
82.4295	118.452	163.8547	220.67	257.3201	259.8039	326.1819	345.1973	396.5737	510.2416	542.2863	657.6789	686.3472	753.4531	822.6486	874.8996	911.712	971.7123	1011.0046	1033.5731	1063.0548	1069.9198	1102.8363	1120.9516	1126.1393	1145.8205	1186.1025	1201.6919	1241.1647	1272.2103	1314.0449	1355.0519	1361.1432	1443.7213	1475.8984	1485.4099	1495.5362	1499.4365	1502.3125	1513.558	1911.308	2906.0596	2926.4529	2935.7378	3064.6087	3075.3706	3108.2907	3130.3644	3136.3684	3199.9326	3225.0982
CN(C)C1C2CN2C1=O	CN(C)[C@H]1[C@H]2CN2C1=O	
InChI=1S/C6H10N2O/c1-7(2)5-4-3-8(4)6(5)9/h4-5H,3H2,1-2H3	InChI=1S/C6H10N2O/c1-7(2)5-4-3-8(4)6(5)9/h4-5H,3H2,1-2H3/t4-,5+,8?/m1/s1
