21
gdb 107330	2.57459	1.51994	1.15848	1.7166	82.43	-0.2416	0.0031	0.2446	1153.4203	0.181977	-387.089789	-387.080854	-387.07991	-387.123376	34.405	
C	-0.3854571534	 1.4596196625	-0.1127230874	-0.382994
C	 0.1471694111	 0.0320782797	 0.0717208505	-0.278046
C	 0.8776263191	-0.5181566603	-1.1308071672	 0.409199
O	 0.0559341261	-0.8842771767	-2.2515113553	-0.307101
C	 0.7920980567	-1.9264571003	-1.5598324086	-0.072025
C	 2.0883637464	-2.2773134288	-2.2085398265	-0.093553
C	 2.8937361109	-1.2134526397	-2.2123142945	-0.078506
C	 2.2645016933	 0.0067487426	-1.560402142	-0.102169
C	 2.2172784354	 1.2098355867	-2.5182065194	-0.399609
H	 0.4244076853	 2.1874962168	-0.2191027964	 0.119552
H	-1.0171961477	 1.5222748505	-1.0037081756	 0.133631
H	-0.985915318	 1.7603522288	 0.7510896526	 0.112247
H	 0.8178285683	-0.0080398897	 0.9397051139	 0.098075
H	-0.6915772608	-0.6380112435	 0.290315356	 0.104783
H	 0.1703797819	-2.6660101461	-1.0624950498	 0.090562
H	 2.3079633923	-3.2516586072	-2.6272812923	 0.101108
H	 3.8743908056	-1.1672236456	-2.6750985339	 0.09828
H	 2.8353225172	 0.2903178703	-0.6642147512	 0.078357
H	 1.5617602368	 0.9842050809	-3.3630657027	 0.139604
H	 1.843882802	 2.1081568192	-2.0196906451	 0.118298
H	 3.2160137715	 1.43487757	-2.906016365	 0.110308
52.5872	138.304	196.2487	224.1363	238.3129	266.7797	314.6254	349.0882	437.1524	502.4963	572.0293	642.2255	701.4216	751.0733	775.1997	804.1017	856.6441	895.5921	916.8495	958.0714	963.2951	985.6448	1024.5834	1046.1324	1060.3849	1091.5216	1103.4665	1124.8102	1147.6828	1207.1609	1261.0868	1295.2671	1312.4842	1333.3907	1357.3571	1374.823	1402.175	1408.4467	1445.8072	1471.7853	1491.2376	1500.5302	1508.725	1510.1521	1666.315	3000.5318	3025.8653	3040.6688	3044.0531	3067.2105	3106.7731	3111.6355	3117.6089	3131.0617	3150.8942	3180.0144	3215.2899
CCC12OC1C=CC2C	CC[C@]12O[C@H]1C=C[C@H]2C	
InChI=1S/C8H12O/c1-3-8-6(2)4-5-7(8)9-8/h4-7H,3H2,1-2H3	InChI=1S/C8H12O/c1-3-8-6(2)4-5-7(8)9-8/h4-7H,3H2,1-2H3/t6-,7+,8-/m1/s1
