25
gdb 121355	3.03952	0.91148	0.77594	1.3069	89.21	-0.2421	0.0798	0.3219	1617.9351	0.229194	-389.512241	-389.501869	-389.500925	-389.548743	37.897	
C	-0.0742820807	 1.5193903762	 0.23623517	-0.383207
C	-0.0370780147	 0.0010657319	 0.0472123707	-0.16528
C	 0.7511772177	-0.4282206534	-1.1962300091	-0.196482
C	 0.7752495661	-1.9372546711	-1.39426999	 0.134136
O	-0.5507703798	-2.3956352019	-1.6516340481	-0.265003
C	-0.4574127266	-3.7394679854	-2.1089109008	-0.066258
C	 0.9610100044	-3.9091075853	-2.7171279565	-0.254735
C	 1.5991687206	-2.5052807864	-2.5715449346	 0.000829
C	 1.4798876602	-1.6830275	-3.8600052391	-0.395881
H	 0.9352211436	 1.9331599065	 0.3426756361	 0.109104
H	-0.5434620284	 2.0140631156	-0.6216759817	 0.113417
H	-0.64237683	 1.7963068212	 1.1299429333	 0.11001
H	 0.4060815353	-0.4689368682	 0.9354623141	 0.08886
H	-1.0561386872	-0.3924428827	-0.0310001682	 0.117223
H	 0.3166195006	 0.0434236025	-2.0850116255	 0.102167
H	 1.7871602059	-0.0710129078	-1.119935406	 0.089248
H	 1.1468787313	-2.4064903925	-0.4629926955	 0.050925
H	-0.6119719335	-4.4381900123	-1.2731330347	 0.088923
H	-1.2611998285	-3.9009347096	-2.8337394736	 0.103879
H	 1.530632886	-4.6586451194	-2.1609022329	 0.100706
H	 0.9273326923	-4.2342211523	-3.7601788636	 0.101738
H	 2.6546807547	-2.5851580913	-2.2909684927	 0.067182
H	 0.4305814022	-1.5424387449	-4.1394030938	 0.126154
H	 1.9366700432	-0.6939944308	-3.7576398788	 0.114236
H	 1.9817292454	-2.1950601387	-4.6874011091	 0.108108
33.2924	74.3257	95.6508	113.7113	170.7105	242.6437	254.9212	290.6558	308.5165	341.9896	408.1415	542.0323	694.7997	718.5619	748.6267	795.1039	818.0922	852.4183	902.6826	910.7908	944.3544	983.6104	994.532	1036.9427	1049.2167	1061.5875	1081.7612	1121.0226	1132.3819	1168.5432	1183.1448	1232.03	1244.0513	1266.1484	1272.3927	1292.5505	1316.7635	1331.6133	1344.699	1374.5749	1379.0163	1398.4654	1410.5242	1412.6316	1422.4035	1473.9959	1493.1669	1494.1924	1499.4483	1503.1247	1505.145	1510.7661	1527.3405	2911.3388	2987.845	3017.9499	3020.7651	3026.8137	3034.2153	3046.4014	3061.8978	3062.8508	3068.487	3076.4607	3097.0598	3099.7064	3100.3398	3103.6599	3108.9376
CCCC1OCCC1C	CCC[C@H]1OCC[C@H]1C	
InChI=1S/C8H16O/c1-3-4-8-7(2)5-6-9-8/h7-8H,3-6H2,1-2H3	InChI=1S/C8H16O/c1-3-4-8-7(2)5-6-9-8/h7-8H,3-6H2,1-2H3/t7-,8-/m1/s1
