25
gdb 122967	5.47964	0.51705	0.49231	0.3298	87.99	-0.2483	0.09	0.3383	2354.4521	0.225341	-426.617219	-426.605136	-426.604191	-426.656108	41.456	
C	-0.3411465821	 1.7406768067	 0.5166353559	-0.382306
C	-0.5087541732	 0.2632018562	 0.8789114152	-0.183498
C	 0.8228934153	-0.4700946981	 0.9623839699	-0.025378
O	 0.5803958584	-1.8202605876	 1.2962525579	-0.251961
C	 1.7536871181	-2.5949843393	 1.3907706508	-0.070073
C	 1.3619364546	-4.0332855168	 1.726536595	 0.118809
C	 0.4837404239	-4.656746032	 0.6416016764	-0.399636
O	 2.5936943533	-4.7178455863	 1.9022331045	-0.24893
C	 2.4915525231	-5.9536760448	 2.5680523698	-0.23328
H	 0.1501724824	 1.8605524999	-0.4553178227	 0.116444
H	-1.3104679316	 2.2443594324	 0.4619053298	 0.117049
H	 0.265259653	 2.2686225046	 1.2609568236	 0.116494
H	-1.0221638576	 0.1630783167	 1.8421158736	 0.105974
H	-1.1372154567	-0.2417819535	 0.136248255	 0.105428
H	 1.3581065853	-0.4051077238	-0.0012688771	 0.083248
H	 1.4734010612	 0.0000617223	 1.7206661505	 0.083236
H	 2.3161965731	-2.5798100491	 0.4419075719	 0.090096
H	 2.4221280669	-2.2108621621	 2.1771269901	 0.091203
H	 0.8074910755	-4.0193698759	 2.6800069085	 0.070479
H	 1.0451828187	-4.7368638606	-0.2953787328	 0.116634
H	 0.1365317955	-5.6548947783	 0.9226972323	 0.110728
H	-0.3909553281	-4.0242617102	 0.4727351107	 0.135017
H	 3.5095766793	-6.3201325482	 2.72380608	 0.125217
H	 2.0003295859	-5.8479199756	 3.548486049	 0.102054
H	 1.9379761157	-6.7049025069	 1.9864204623	 0.10695
40.9533	53.0422	75.3291	85.2552	125.9321	151.9194	194.2132	217.8332	232.3048	237.4571	280.8257	331.075	376.4397	448.5145	516.5713	533.9042	764.9052	839.6989	899.8167	907.9536	932.3826	936.4112	1012.2189	1056.0814	1086.3962	1127.7787	1149.917	1157.3801	1170.9934	1179.0269	1184.5761	1199.334	1228.5448	1257.9057	1269.9911	1313.5166	1328.835	1346.5208	1378.4992	1398.5141	1403.6845	1414.9818	1450.9742	1478.3731	1484.054	1492.3301	1494.2661	1501.0936	1501.9217	1506.64	1512.7616	1516.45	1535.3056	2943.4622	2960.111	2967.5407	2969.4737	2976.3736	3004.4711	3025.6844	3032.175	3038.3741	3042.4886	3070.9761	3099.784	3108.0801	3108.2748	3112.3528	3131.9281
CCCOCC(C)OC	CCCOC[C@@H](C)OC	
InChI=1S/C7H16O2/c1-4-5-9-6-7(2)8-3/h7H,4-6H2,1-3H3	InChI=1S/C7H16O2/c1-4-5-9-6-7(2)8-3/h7H,4-6H2,1-3H3/t7-/m1/s1
