17
gdb 72564	2.43733	1.98372	1.4951	3.8731	66.31	-0.2675	0.0074	0.2748	926.3863	0.137621	-459.015765	-459.008535	-459.007591	-459.047182	28.503	
C	-0.027376361	 1.5084630683	-0.0091175513	-0.484291
C	 0.0339907158	-0.0024556459	 0.0286398146	 0.082379
C	 0.7661089331	-0.6972254078	-1.1547928039	-0.10775
O	 0.9338925671	-2.0590149069	-0.7088957614	-0.255771
C	 0.3626908275	-2.0956723816	 0.5740534585	 0.197745
C	 0.7248757097	-0.7487708756	 1.1975740066	-0.293416
O	-1.0787056008	-2.0059370986	 0.4450995175	-0.23853
C	-1.3292698386	-0.7074633018	 0.0802379167	 0.455044
O	-2.4206749217	-0.282483843	-0.1546030021	-0.351855
H	 0.9752369132	 1.9413828701	-0.0799060511	 0.119014
H	-0.6136952239	 1.8456380388	-0.8687719251	 0.142994
H	-0.5100213484	 1.9017450926	 0.8896647891	 0.135765
H	 0.1924236317	-0.6826105268	-2.0864913203	 0.130184
H	 1.7484821832	-0.2420749069	-1.3295350891	 0.112728
H	 0.6077750382	-3.0325847053	 1.066888286	 0.111462
H	 1.8028938332	-0.583135106	 1.255562156	 0.118956
H	 0.2564572919	-0.5767634335	 2.1683063994	 0.125343
150.1338	186.5837	237.9029	276.8025	306.1582	449.625	482.2035	526.6692	587.5508	626.5056	742.5872	756.3227	826.7099	875.2422	890.7571	915.3315	948.9083	978.298	1012.7851	1024.1331	1060.8014	1091.1359	1118.859	1177.6201	1200.4915	1234.4431	1265.1642	1293.7009	1311.7798	1364.8622	1390.7941	1419.9136	1488.6418	1493.3424	1494.5059	1525.2159	1896.0436	3028.8137	3043.828	3075.9555	3086.4321	3114.6465	3119.4595	3137.896	3173.2474
CC12COC(C1)OC2=O	C[C@@]12CO[C@@H](C1)OC2=O	
InChI=1S/C6H8O3/c1-6-2-4(8-3-6)9-5(6)7/h4H,2-3H2,1H3	InChI=1S/C6H8O3/c1-6-2-4(8-3-6)9-5(6)7/h4H,2-3H2,1H3/t4-,6+/m1/s1
