20
gdb 68883	2.34131	1.79136	1.37444	1.3971	78.58	-0.2432	0.0733	0.3165	1037.0226	0.170851	-403.098132	-403.0897	-403.088756	-403.130707	32.652	
C	 0.0886816203	 1.5570590391	-0.0371090643	-0.491847
C	-0.0393465819	 0.0680956313	 0.0839094505	 0.292371
N	 1.1045094245	-0.7756046645	-0.2783735277	-0.416266
C	 0.5526331209	-0.9229763553	 1.0682262863	 0.280352
C	 1.4154977683	-0.7505720593	 2.2792259958	-0.496932
C	-0.7180748256	-1.7697151209	 0.9946198154	 0.042771
O	-1.6870052072	-1.4120926612	 2.0008742311	-0.28904
C	-2.3509828207	-0.493844535	 1.1049324399	-0.087873
C	-1.3294161731	-0.749450879	-0.0226106829	-0.166006
H	 1.0882171608	 1.8809967962	 0.264012272	 0.134197
H	-0.0667035244	 1.8790728943	-1.0737489258	 0.121958
H	-0.6471672033	 2.0737670545	 0.5879668329	 0.118907
H	 0.8556896571	-1.5426483792	-0.9028798937	 0.22224
H	 2.0941433543	 0.0979164822	 2.1578277652	 0.127372
H	 0.7910555806	-0.5846144678	 3.1622231311	 0.134121
H	 2.0261506651	-1.6436651964	 2.4565492119	 0.121208
H	-0.6353100047	-2.8539476593	 0.8628787932	 0.07306
H	-3.367285512	-0.8361083381	 0.8748309412	 0.103402
H	-2.4010704899	 0.5252629163	 1.5075149744	 0.102917
H	-1.7147854192	-0.9921252581	-1.0151878864	 0.073089
141.4358	176.5771	187.0738	193.8238	202.9098	244.6591	399.5768	433.3151	482.5523	516.9875	579.1725	675.5381	742.8913	813.1776	831.5401	865.8541	899.7489	968.2527	974.6258	1008.686	1014.0652	1059.2389	1066.4585	1091.0708	1111.0009	1148.5687	1163.3577	1177.8041	1182.6251	1201.3951	1253.0716	1286.1072	1306.2324	1337.5285	1356.832	1404.3836	1413.4303	1463.4181	1480.9678	1489.1931	1490.3285	1498.6334	1521.8836	3014.8801	3029.2831	3032.675	3051.3716	3056.9222	3086.8454	3088.5081	3096.3697	3118.6687	3121.7925	3441.5999
CC12NC1(C)C1OCC21	C[C@@]12N[C@]1(C)[C@H]1OC[C@@H]21	
InChI=1S/C7H11NO/c1-6-4-3-9-5(4)7(6,2)8-6/h4-5,8H,3H2,1-2H3	InChI=1S/C7H11NO/c1-6-4-3-9-5(4)7(6,2)8-6/h4-5,8H,3H2,1-2H3/t4-,5+,6+,7-/m1/s1
