16
gdb 51747	2.25059	1.41441	0.94415	6.1692	71.92	-0.2601	-0.0026	0.2575	1212.2673	0.124287	-434.037433	-434.028685	-434.027741	-434.072134	30.467	
N	-0.0710950986	 1.2611670982	 0.0518536163	-0.42924
C	-0.1490110952	 0.0224523892	-0.1525034743	 0.135364
O	-0.953183178	-0.7340612923	 0.6381678563	-0.183215
C	-0.9568028966	-2.1203587908	 0.410335526	 0.111755
C	-1.7948856176	-2.8423353658	 1.4853790771	-0.192256
N	-2.9180821522	-2.9503317258	 0.5251628471	-0.295946
C	-2.0317850843	-2.6452509042	-0.6134586378	-0.171263
C	-2.5558916481	-1.7083116342	-1.6045388451	 0.319315
N	-2.9350352689	-0.9738149539	-2.412003925	-0.322137
H	 0.5660641076	 1.6882916141	-0.6169609686	 0.236948
H	 0.3804709325	-0.5559742346	-0.9209566769	 0.092713
H	 0.0555946736	-2.4934296136	 0.233438142	 0.10188
H	-1.3476372252	-3.7957951208	 1.7935457599	 0.106999
H	-2.0193836942	-2.2391193915	 2.3684935052	 0.140823
H	-3.3938916273	-3.8433343115	 0.4771303506	 0.234353
H	-1.6432762274	-3.5252764925	-1.146392113	 0.113908
53.6044	80.0406	97.0167	146.4224	217.4015	239.1079	355.8719	408.7012	548.0215	553.9416	598.1108	686.92	794.3985	820.4804	882.5223	941.613	987.258	1007.1285	1031.0847	1039.7283	1073.033	1117.3341	1143.6281	1158.8769	1231.9063	1252.2843	1279.3116	1321.2455	1358.0183	1388.6099	1395.0892	1426.9395	1507.8846	1753.6693	2359.1091	2996.6131	3022.7104	3030.9373	3072.4314	3101.4123	3524.3658	3551.0364
N=COC1CNC1C#N	[NH][CH]O[C@H]1CN[C@H]1C#N	
InChI=1S/C5H7N3O/c6-1-4-5(2-8-4)9-3-7/h3-5,7-8H,2H2	InChI=1S/C5H7N3O/c6-1-4-5(2-8-4)9-3-7/h3-5,7-8H,2H2/t4-,5-/m0/s1
