25
gdb 80386	2.08895	1.52169	1.29999	0.1936	92.82	-0.2391	0.0819	0.321	1204.1869	0.227574	-352.341321	-352.331213	-352.330269	-352.375016	39.955	
C	 0.1562959747	 1.6335802763	-0.3750989309	-0.426145
C	 0.2663935432	 0.1349099735	-0.1636011959	-0.049135
C	 1.4994899454	-0.6994114158	-0.37812788	-0.121937
C	 2.7409683619	 0.0070260823	 0.1792900256	-0.290751
C	 2.1164268218	-0.041116539	 1.6210109191	 0.280439
C	 2.8639509784	-1.0784568753	 2.468806782	-0.434171
C	 1.9953785841	 1.2605891356	 2.4178653465	-0.458318
C	 0.82432621	-0.651262688	 1.0058588433	 0.312768
C	-0.0315276262	-1.6786506434	 1.7012111598	-0.501181
H	 1.1007390597	 2.1607352916	-0.2288232622	 0.121995
H	-0.1683053375	 1.8373959614	-1.4019478669	 0.110518
H	-0.5838692285	 2.0814172717	 0.2975633675	 0.114615
H	-0.6183108225	-0.3786807929	-0.5406397347	 0.077255
H	 1.5252106352	-1.5133684805	-1.0947486372	 0.074946
H	 3.6542186289	-0.5881999386	 0.1044014561	 0.094537
H	 2.9512877567	 1.0004929812	-0.2304098742	 0.090051
H	 3.8714416686	-0.7170357317	 2.7040033639	 0.10767
H	 2.3507685703	-1.2707450674	 3.4177306271	 0.109163
H	 2.9647076113	-2.0323417821	 1.9409278669	 0.111655
H	 1.493013682	 2.0539848236	 1.8631499197	 0.114668
H	 1.4294666751	 1.0942409394	 3.3423252139	 0.109162
H	 2.9865624596	 1.6307047805	 2.7066310522	 0.107613
H	-0.6262186391	-1.2249453705	 2.5044070882	 0.115338
H	-0.7345738077	-2.1401049263	 0.9998140891	 0.113797
H	 0.5632921945	-2.4821414855	 2.1477163707	 0.115448
140.4831	173.6486	181.3215	190.6944	215.3696	250.3846	282.7496	290.5482	304.7194	362.1518	390.9294	420.3771	498.4552	552.1651	619.7871	637.0677	734.0374	808.8886	852.6967	887.7852	923.2577	931.6588	956.9456	976.5764	989.361	1022.6937	1029.2459	1062.3213	1101.7734	1114.1587	1125.7236	1164.4561	1174.2483	1234.4843	1244.7837	1248.9824	1272.3465	1311.2133	1343.5769	1397.9314	1412.4817	1412.5744	1421.65	1458.4393	1481.3087	1483.1292	1489.5178	1495.6351	1497.2575	1504.5314	1505.5464	1509.4901	1516.3591	3018.3639	3021.0172	3027.6124	3030.3402	3044.3886	3076.2071	3078.3	3082.4037	3087.8692	3093.4021	3095.2673	3099.0592	3101.0601	3126.2495	3141.5402	3162.2194
CC1C2CC(C)(C)C12C	C[C@H]1[C@H]2CC(C)(C)[C@@]12C	
InChI=1S/C9H16/c1-6-7-5-8(2,3)9(6,7)4/h6-7H,5H2,1-4H3	InChI=1S/C9H16/c1-6-7-5-8(2,3)9(6,7)4/h6-7H,5H2,1-4H3/t6-,7+,9-/m0/s1
