23
gdb 115598	3.10182	0.9736	0.90264	2.0372	81.82	-0.2404	0.0677	0.3082	1435.6702	0.203698	-425.410863	-425.400232	-425.399288	-425.446631	38.634	
C	-0.1469675766	 1.6004571855	-0.2934214264	-0.384431
C	 0.0194621953	 0.0817634778	-0.1785788678	-0.194735
C	-1.2656874798	-0.5900007876	 0.2831323752	 0.098866
O	-2.3378454682	-0.4377863735	-0.6812195762	-0.298385
C	-2.3729904431	-1.8570080733	-0.9395975334	-0.106532
C	-1.3909884398	-2.143500787	 0.2201651015	 0.269069
C	-0.1570689958	-2.9794488933	-0.0993621968	-0.470099
C	-2.1138623248	-2.6743835632	 1.455083762	-0.126816
O	-2.5195933412	-4.0107139842	 1.1956268001	-0.426886
H	 0.7668970057	 2.0727891905	-0.6656611505	 0.109254
H	-0.9625820056	 1.8405104435	-0.9811826014	 0.138148
H	-0.3839846045	 2.0479418066	 0.6784259134	 0.111105
H	 0.3184734126	-0.3297621861	-1.149160192	 0.09891
H	 0.8205950244	-0.1614311013	 0.5318490632	 0.093261
H	-1.5637002373	-0.1637802143	 1.25420126	 0.060658
H	-3.3793626944	-2.2769046514	-0.8355446986	 0.106125
H	-1.9867197759	-2.100252838	-1.9383834122	 0.091423
H	 0.3381991084	-2.6436483323	-1.0140150676	 0.113876
H	 0.5733977764	-2.9346342347	 0.7167401416	 0.110936
H	-0.4433974046	-4.0264248148	-0.2286805629	 0.138265
H	-1.4375188885	-2.6232948145	 2.3251687395	 0.083189
H	-2.9820788547	-2.032472334	 1.6702786203	 0.094969
H	-3.0126429378	-4.3317096503	 1.955853829	 0.28983
56.033	94.8963	122.4965	146.7046	206.2047	216.2266	240.2423	248.9297	289.8919	329.6514	356.5819	367.9201	482.929	560.0755	670.2528	768.9797	852.1956	874.2635	922.0424	949.9442	965.8427	970.8961	1007.985	1025.9543	1067.3617	1070.5014	1102.5887	1134.4707	1158.1208	1172.7861	1215.8132	1228.9107	1267.6157	1279.563	1294.7763	1324.8866	1336.2124	1373.3487	1403.2702	1407.0841	1414.9156	1457.333	1472.8168	1490.7978	1496.8536	1504.6905	1509.8056	1518.2254	1533.3504	2956.4729	2972.9071	2999.1149	3008.5381	3022.6271	3034.8164	3036.7363	3065.9598	3067.6897	3101.3093	3103.8257	3119.5552	3124.2812	3835.9842
CCC1OCC1(C)CO	CC[C@H]1OC[C@]1(C)CO	
InChI=1S/C7H14O2/c1-3-6-7(2,4-8)5-9-6/h6,8H,3-5H2,1-2H3	InChI=1S/C7H14O2/c1-3-6-7(2,4-8)5-9-6/h6,8H,3-5H2,1-2H3/t6-,7+/m1/s1
