13
gdb 131130	3.94583	1.09875	1.02881	2.3519	60.33	-0.2883	-0.0679	0.2204	1129.7189	0.088556	-489.878429	-489.870742	-489.869798	-489.912207	26.694	
O	 0.2419298939	 1.5516371424	 0.0473117715	-0.407797
C	 0.0643607766	 0.1750645338	 0.0891435394	-0.059629
C	 0.6009525994	-0.4816894804	-1.1921066568	 0.126669
O	 1.0835264417	 0.1918551292	-2.0638867038	-0.237349
C	 0.7351486896	-0.4664236883	 1.2745964985	 0.397967
N	 0.3950638802	-1.5799605391	 1.8541212994	-0.31538
C	 1.3753408746	-1.7001807761	 2.8092124926	 0.039093
N	 2.2562145213	-0.7386838419	 2.8269664146	-0.102581
O	 1.8317811045	 0.096918453	 1.7845677036	-0.179755
H	 0.7147429119	 1.7333749433	-0.7817439684	 0.30632
H	-1.0013276028	-0.0993141437	 0.1573606386	 0.1432
H	 0.5111896	-1.581633963	-1.2556628472	 0.133939
H	 1.4273965991	-2.5208474492	 3.509652528	 0.155303
28.9351	89.2536	162.6968	235.28	305.3874	360.2707	426.5608	476.154	656.4414	684.0659	757.6929	787.4297	867.7671	913.0542	932.2106	979.1234	1020.9093	1021.9662	1161.4208	1187.903	1231.2637	1262.5631	1319.1791	1344.0978	1385.6789	1427.9587	1507.8205	1607.1719	1824.8748	2974.6819	2988.7625	3264.3519	3678.4477
OC(C=O)C1=NC=NO1	O[C@@H](C=O)c1ncno1	
InChI=1S/C4H4N2O3/c7-1-3(8)4-5-2-6-9-4/h1-3,8H	InChI=1S/C4H4N2O3/c7-1-3(8)4-5-2-6-9-4/h1-3,8H/t3-/m0/s1
