22
gdb 51885	3.36588	0.92108	0.83637	3.7106	83.9	-0.247	0.0361	0.2831	1462.7464	0.196799	-404.406135	-404.397195	-404.396251	-404.441178	33.839	
O	-0.1579653852	 0.1644888889	 0.7401991186	-0.326635
C	-0.0609504792	 1.2505429789	 0.2076642491	 0.149442
N	 1.0850413731	 1.7907399801	-0.2845679967	-0.286878
C	 2.383160694	 1.1269230738	-0.2392186093	 0.046374
C	 2.9272743915	 0.8718708484	-1.6543111675	-0.195527
C	 4.3037243251	 0.1915362619	-1.6154610232	-0.196036
C	 5.3054426985	 0.9940226436	-0.7737892681	-0.179893
C	 4.7643036756	 1.2460472183	 0.6402671299	-0.19607
C	 3.3885251133	 1.9278491123	 0.6042039206	-0.19534
H	-0.9255607889	 1.930502021	 0.0663143658	 0.06931
H	 1.0312316396	 2.7064633624	-0.7041664472	 0.240525
H	 2.1909558511	 0.1664038992	 0.2492540458	 0.122529
H	 2.209110251	 0.2655741132	-2.216480737	 0.104365
H	 3.0108847018	 1.8337680304	-2.182300046	 0.082666
H	 4.1953474567	-0.8144451081	-1.1874782296	 0.101274
H	 4.6813916011	 0.0552982845	-2.6348593544	 0.093816
H	 6.2657252424	 0.4688258822	-0.7244283675	 0.093103
H	 5.5015125608	 1.9577842072	-1.2643654353	 0.090774
H	 4.6766618699	 0.2878246592	 1.1704107314	 0.101287
H	 5.4680305109	 1.8559990998	 1.2173991446	 0.093817
H	 3.4919936129	 2.9351254904	 0.1733129944	 0.08264
H	 2.9918783739	 2.0577802325	 1.6167094316	 0.104457
16.9622	99.083	175.9652	211.2526	224.9151	332.7154	390.1565	398.9127	447.1397	456.7991	530.5562	535.9859	749.6429	794.6729	824.2171	847.2403	901.9567	914.8319	932.4973	965.8587	1030.324	1034.8406	1063.1866	1075.5231	1088.0034	1097.7227	1170.5442	1208.1794	1209.0373	1274.6398	1287.3231	1287.3963	1335.9779	1339.6127	1368.6076	1378.2284	1380.0269	1381.9255	1395.6563	1432.5134	1481.1914	1485.5798	1487.8354	1493.0912	1506.5951	1530.8238	1803.001	2925.4261	2995.8826	3000.3005	3009.7382	3017.3311	3020.0596	3063.2029	3064.2195	3066.7977	3069.2782	3069.7305	3084.9197	3618.9979
O=CNC1CCCCC1	O=CNC1CCCCC1	
InChI=1S/C7H13NO/c9-6-8-7-4-2-1-3-5-7/h6-7H,1-5H2,(H,8,9)	InChI=1S/C7H13NO/c9-6-8-7-4-2-1-3-5-7/h6-7H,1-5H2,(H,8,9)
