18
gdb 71834	2.46431	1.86502	1.59081	2.5693	74.98	-0.2191	-0.0022	0.2169	943.4783	0.149189	-398.076916	-398.069208	-398.068264	-398.108526	30.733	
C	-0.0611603091	 1.5365036835	-0.0551285867	-0.51811
C	-0.014807032	 0.0454680905	-0.0289071886	 0.320549
C	 0.0598692076	-0.952812385	-1.1368735022	-0.089411
N	 1.2565891086	-1.7646152352	-0.999977467	-0.192
C	 1.6177401132	-1.5818138419	 0.2070645313	 0.003635
N	 0.7751103465	-0.7315171094	 1.0220694263	-0.217353
C	-0.4730404893	-1.6123465322	 1.227267819	-0.237811
C	-1.0569157569	-1.0535954319	-0.0578440047	 0.228728
N	-2.4084608953	-0.961254615	-0.4894292663	-0.603493
H	 0.9090168943	 1.9610945153	-0.335285473	 0.130741
H	-0.8046715533	 1.8702061451	-0.7853606769	 0.135356
H	-0.3360169917	 1.9404724821	 0.9249926064	 0.125855
H	-0.2870755864	-0.7221148384	-2.1354968173	 0.105177
H	 2.4630719472	-2.081805373	 0.6693716613	 0.120314
H	-0.2658125233	-2.6855337246	 1.3189010025	 0.106168
H	-1.0081272546	-1.2642737964	 2.1150193381	 0.111244
H	-2.7394302575	-1.8437467227	-0.8671484046	 0.237655
H	-3.025458038	-0.7035896809	 0.2748511125	 0.232758
166.1615	181.5487	216.03	261.6624	330.3701	333.9706	374.4367	501.6649	547.3663	608.208	643.6656	749.1669	784.8187	808.8924	820.8648	851.638	876.9388	920.2175	958.9571	984.2074	1013.3786	1030.1976	1055.5059	1111.7532	1135.5272	1156.259	1167.8377	1240.4405	1245.6457	1270.054	1308.4963	1338.591	1407.6058	1470.2959	1478.4553	1495.3893	1512.5412	1653.1449	1657.9385	3025.8038	3031.0041	3091.1515	3093.6378	3111.98	3193.5474	3211.4605	3490.915	3567.1906
CC12C3N=CN1CC23N	C[C@@]12[C@H]3[N][CH]N1C[C@@]23N	
InChI=1S/C6H9N3/c1-5-4-6(5,7)2-9(5)3-8-4/h3-4H,2,7H2,1H3	InChI=1S/C6H9N3/c1-5-4-6(5,7)2-9(5)3-8-4/h3-4H,2,7H2,1H3/t4-,5+,6+/m1/s1
