15
gdb 47758	2.03863	1.8147	1.3286	4.0623	66.91	-0.2843	-0.0182	0.2661	998.9534	0.113747	-453.948368	-453.940417	-453.939473	-453.981758	28.512	
N	 0.2176805857	 1.0230546546	-1.0997974995	-0.509684
C	 0.0683656727	 0.0693937021	-0.2889611844	 0.403697
O	 1.0398923581	-0.3956175115	 0.5356488154	-0.241908
C	 0.644080145	-1.4403655658	 1.4388467295	-0.134755
C	-0.0447165464	-2.5570395689	 0.673181382	-0.06697
O	-1.1024833322	-2.0762730166	-0.1632097469	-0.255694
C	-1.2635337763	-0.6739914418	-0.2159804042	-0.10412
C	-2.0823058976	-0.1791227181	 0.9164893519	 0.282708
N	-2.7193908759	 0.1825161032	 1.810137859	-0.327866
H	 1.1567659377	 1.4196622037	-1.0253083368	 0.233718
H	 1.5624726445	-1.8043946838	 1.9026325421	 0.139075
H	-0.0002663121	-1.026527599	 2.2218595159	 0.153457
H	 0.681670534	-3.0654955469	 0.0277469027	 0.127478
H	-0.4607064476	-3.2888380571	 1.3751217488	 0.129698
H	-1.8002176095	-0.449269174	-1.1396966251	 0.171166
47.9231	98.289	145.0378	230.1435	295.2076	388.417	426.4081	457.7981	532.9982	574.0857	670.3443	729.8049	834.3779	885.2691	900.5958	914.1615	966.9122	1010.0155	1052.6287	1124.5864	1148.1914	1158.3318	1257.0805	1276.7665	1281.803	1330.0579	1347.9633	1409.9462	1423.9023	1508.318	1512.0887	1768.6606	2353.1417	3029.2775	3054.2038	3076.4363	3109.6664	3126.8138	3471.6112
N=C1OCCOC1C#N	[NH][C]1OCCO[C@H]1C#N	
InChI=1S/C5H6N2O2/c6-3-4-5(7)9-2-1-8-4/h4,7H,1-2H2	InChI=1S/C5H6N2O2/c6-3-4-5(7)9-2-1-8-4/h4,7H,1-2H2/t4-/m0/s1
