17
gdb 56796	3.07134	1.04775	0.9648	4.2052	75.4	-0.2468	-0.0153	0.2315	1268.4176	0.136603	-418.0054	-417.996522	-417.995578	-418.039852	31.458	
N	 0.034988567	 1.4668654953	 0.1256479677	-0.498002
C	 0.0021578323	 0.0011001666	-0.0177874216	-0.244988
C	-1.3932469636	-0.4545188562	 0.1236459523	 0.298132
N	-2.4852607562	-0.8235389181	 0.198881636	-0.320721
C	 0.6037523015	-0.5400619406	-1.2942242106	 0.320956
C	 1.7088200086	-1.2696819169	-1.4168918502	-0.228322
C	 1.9781741734	-1.5533023658	-2.8658143651	-0.10105
O	 0.9456059599	-0.8751102549	-3.577006525	-0.263127
C	 0.0287631951	-0.2797603453	-2.6667815175	-0.157072
H	 0.991391291	 1.7811522504	-0.013219851	 0.241315
H	-0.5253365927	 1.9013530328	-0.60208253	 0.246091
H	 0.5613117109	-0.418021534	 0.8273748713	 0.140127
H	 2.3363786814	-1.6317920431	-0.6115085132	 0.111214
H	 2.9604714072	-1.1814958664	-3.1956298363	 0.112258
H	 1.9498929474	-2.6322923962	-3.088012437	 0.114258
H	-0.9723575168	-0.7247195961	-2.7803719824	 0.127826
H	-0.0664401964	 0.7938976985	-2.8924564275	 0.101104
55.1061	92.1628	114.2595	177.2805	207.0343	260.7429	308.0027	364.9023	448.692	532.1394	601.9509	692.3017	774.3087	834.9391	865.5465	881.188	921.2614	936.1631	977.8312	1028.9796	1064.4827	1103.2667	1114.0631	1176.3324	1190.1456	1206.0775	1227.1232	1258.4007	1334.7074	1373.495	1391.5304	1399.1167	1515.8888	1528.3924	1656.3161	1721.0496	2363.1556	2971.8119	2978.3119	2993.7107	2996.481	3044.6252	3210.3264	3491.3994	3576.6446
NC(C#N)C1=CCOC1	N[C@@H](C#N)C1=CCOC1	
InChI=1S/C6H8N2O/c7-3-6(8)5-1-2-9-4-5/h1,6H,2,4,8H2	InChI=1S/C6H8N2O/c7-3-6(8)5-1-2-9-4-5/h1,6H,2,4,8H2/t6-/m0/s1
