18
gdb 94914	2.17278	1.75879	1.42395	5.0344	75.75	-0.2627	0.0301	0.2928	1011.7397	0.148839	-401.960894	-401.952882	-401.951938	-401.993332	30.542	
C	-0.0583998534	 1.5400025366	-0.0696142843	-0.413341
C	-0.001446248	 0.025829668	 0.0537979335	 0.119459
O	 0.6358599241	-0.5138719307	-1.1050201964	-0.25653
C	 1.1484775323	-1.8016258516	-0.792538712	-0.10389
C	 1.5044907087	-1.7536802282	 0.6844641871	-0.08387
C	 2.3067404352	-0.5464306505	 1.1477414326	-0.192101
C	 3.0704773418	 0.2669466966	 0.2397737333	 0.317855
N	 3.7393693621	 0.9156382363	-0.4462602913	-0.359718
C	 0.7852740489	-0.5515380477	 1.2244838807	-0.08118
H	 0.9448717383	 1.9682608716	-0.1211179182	 0.152142
H	-0.5992634991	 1.818697654	-0.9779067331	 0.132307
H	-0.5855205834	 1.9686955259	 0.7883090243	 0.114055
H	-1.0288456946	-0.3723933974	 0.1327960935	 0.074411
H	 0.3945305793	-2.5880082575	-0.9574363774	 0.1011
H	 1.9985339207	-1.9868812874	-1.4558727606	 0.129864
H	 1.6084286424	-2.6788889845	 1.2380302596	 0.107464
H	 2.8007814758	-0.6708331309	 2.1064600561	 0.136536
H	 0.3394333489	-0.5362957828	 2.2118059626	 0.105436
114.5176	135.7755	190.0997	222.9066	250.6569	349.3636	354.4644	488.0627	555.86	575.9213	715.6239	720.1482	766.8543	803.1346	848.091	885.7598	968.9784	983.301	998.255	1008.3745	1059.5502	1080.4493	1097.2856	1124.2274	1134.55	1158.1683	1189.685	1242.7798	1321.8795	1337.3116	1348.6912	1361.433	1391.4931	1415.9089	1427.1604	1486.8019	1501.459	1511.9471	2350.8921	2941.6557	2979.6016	3049.672	3084.4058	3119.5029	3140.3758	3159.9337	3184.8453	3194.957
CC1OCC2C(C#N)C12	C[C@H]1OC[C@H]2[C@@H](C#N)[C@@H]12	
InChI=1S/C7H9NO/c1-4-7-5(2-8)6(7)3-9-4/h4-7H,3H2,1H3	InChI=1S/C7H9NO/c1-4-7-5(2-8)6(7)3-9-4/h4-7H,3H2,1H3/t4-,5-,6+,7-/m1/s1
