22
gdb 122901	4.24456	0.55818	0.51346	4.6735	84.95	-0.2758	0.0208	0.2965	2185.6256	0.191506	-404.361824	-404.350643	-404.349699	-404.399745	38.54	
C	 0.0515776461	 1.5648719995	 0.0076398623	-0.380298
C	-0.0091020439	 0.0358248401	-0.0420176706	-0.168948
C	 0.7308349942	-0.5473843235	-1.2504838835	-0.17955
C	 0.6696684195	-2.0669915226	-1.2983420107	-0.065215
O	 1.3871724489	-2.5032058156	-2.4451207964	-0.253225
C	 1.4782639411	-3.9071402492	-2.5791351055	-0.004904
C	 0.2490571205	-4.5214400957	-3.2655571412	-0.39785
C	 2.6995381312	-4.1942114974	-3.3545749804	 0.279869
N	 3.6455376178	-4.452822769	-3.96422197	-0.31665
H	 1.0870528806	 1.9173443155	 0.0661400564	 0.118854
H	-0.3977056382	 2.0074596612	-0.8880033276	 0.117714
H	-0.4838710458	 1.9561833952	 0.8779378906	 0.114273
H	 0.4171305118	-0.37714044	 0.8817960233	 0.098555
H	-1.0580439349	-0.2882208613	-0.0640256107	 0.097312
H	 0.3051675246	-0.151007055	-2.1802104989	 0.10938
H	 1.7835833614	-0.2412346963	-1.2338248936	 0.112137
H	 1.1183498263	-2.501614074	-0.3895623553	 0.094138
H	-0.3778837628	-2.4046010087	-1.3396595828	 0.093048
H	 1.612494782	-4.3726970567	-1.5890617492	 0.114759
H	 0.3742559097	-5.6013255744	-3.38249474	 0.13918
H	-0.644601549	-4.3410827136	-2.6630555177	 0.12951
H	 0.1096331988	-4.0718269686	-4.2511908184	 0.147908
37.6043	50.4351	88.2688	119.8627	126.3366	181.3899	213.6662	229.327	251.6901	307.2146	358.169	391.2006	472.7519	569.2426	590.927	746.025	815.6517	827.9686	897.1394	923.676	954.3413	1027.0162	1047.5588	1069.677	1094.6766	1113.2617	1148.0911	1153.7414	1193.5573	1251.6976	1292.9271	1314.803	1325.1826	1339.6871	1357.4948	1389.6175	1401.2696	1414.2185	1439.554	1486.2839	1488.0256	1490.9314	1496.0888	1500.6777	1509.9475	1526.2972	2366.6586	2961.985	2977.4297	2996.5212	3014.2691	3031.4695	3036.5621	3041.4026	3053.2086	3079.7609	3100.8409	3105.7822	3129.4836	3140.9799
CCCCOC(C)C#N	CCCCO[C@@H](C)C#N	
InChI=1S/C7H13NO/c1-3-4-5-9-7(2)6-8/h7H,3-5H2,1-2H3	InChI=1S/C7H13NO/c1-3-4-5-9-7(2)6-8/h7H,3-5H2,1-2H3/t7-/m0/s1
