19
gdb 57732	2.77991	0.81466	0.74055	2.2522	73.47	-0.2516	-0.0396	0.212	1563.64	0.153952	-460.179817	-460.169046	-460.168102	-460.217293	37.042	
C	 0.2220212309	 1.6069447945	 0.1850796953	-0.416853
C	 0.0665683311	 0.0863192437	 0.0806187029	 0.247131
O	 0.7402068983	-0.4465020621	 1.2230019487	-0.454936
C	-1.3939058883	-0.3837024552	-0.000868956	-0.234111
C	-2.2456056138	 0.0047416826	 1.2192065413	-0.288791
C	-3.6494445282	-0.5438705786	 1.0989790529	 0.158121
O	-4.1676146066	-1.2915203929	 1.8870600924	-0.235087
C	 0.8462272173	-0.3704069612	-1.1602711119	 0.128635
O	 0.3596100531	-0.7697958337	-2.1847799416	-0.249261
H	 1.2790052508	 1.8838910961	 0.1309463255	 0.132794
H	-0.3151814183	 2.1111433571	-0.6226546819	 0.131224
H	-0.1610417833	 1.9555603889	 1.1473058993	 0.140524
H	 0.6262080893	-1.4040203275	 1.2257832168	 0.288752
H	-1.8339761737	 0.0048788175	-0.9251100932	 0.126344
H	-1.3934541513	-1.4759355117	-0.1137979002	 0.110587
H	-1.7986023054	-0.3597404832	 2.1470037377	 0.129197
H	-2.3261778599	 1.09849939	 1.2821999718	 0.120482
H	-4.1972110686	-0.2037077738	 0.188155775	 0.072917
H	 1.9486767665	-0.3096629305	-1.0111579148	 0.092331
41.6337	52.734	61.9106	102.9801	145.1102	219.3499	249.3864	294.0196	322.4221	351.0763	363.6561	413.3236	478.3403	514.2425	631.508	762.4604	770.0687	866.6713	902.6674	967.9755	971.4745	1017.4269	1041.832	1078.8486	1121.2612	1166.9143	1209.3077	1221.8123	1280.6817	1298.3715	1363.4399	1378.5907	1400.373	1405.3339	1430.5601	1465.5248	1479.9732	1488.2867	1500.5208	1833.7326	1837.9416	2852.5732	2879.3145	3020.9161	3031.3212	3046.9058	3080.8205	3115.6908	3119.313	3132.2677	3794.2953
CC(O)(CCC=O)C=O	C[C@@](O)(CCC=O)C=O	
InChI=1S/C6H10O3/c1-6(9,5-8)3-2-4-7/h4-5,9H,2-3H2,1H3	InChI=1S/C6H10O3/c1-6(9,5-8)3-2-4-7/h4-5,9H,2-3H2,1H3/t6-/m1/s1
