19
gdb 51311	3.5448	0.98647	0.84894	3.3773	79.69	-0.2406	-0.0322	0.2083	1372.48	0.159108	-423.041548	-423.032815	-423.031871	-423.076316	31.683	
O	 0.0908426088	-0.092520085	-0.6264564077	-0.233266
C	 0.0638286005	 1.0260991358	-0.1839772655	 0.157821
C	 1.2818809143	 1.9270976106	-0.0332851283	-0.365108
C	 1.2678061625	 2.963366133	-1.134706439	 0.263694
C	 0.8697764938	 4.2240620741	-0.954988342	-0.159801
C	 0.874834712	 5.2301168077	-2.0748337884	-0.25093
C	 1.7132319899	 4.7076455891	-3.2437961712	-0.080206
O	 1.3765967252	 3.3650713469	-3.5486675589	-0.241542
C	 1.7018091254	 2.4781012437	-2.5002056086	-0.154914
H	-0.8948866588	 1.5091350504	 0.1122839941	 0.082676
H	 1.2395764963	 2.4185065339	 0.9448566387	 0.117268
H	 2.179135841	 1.3010678771	-0.0857037099	 0.124104
H	 0.5386127718	 4.556950592	 0.0264231431	 0.08392
H	-0.1529823791	 5.4325537202	-2.4062522093	 0.119302
H	 1.2798823132	 6.1887997012	-1.726619028	 0.105587
H	 1.5341222339	 5.2836954363	-4.1555500755	 0.109193
H	 2.7851796971	 4.7852303087	-2.9965627881	 0.089733
H	 2.7900628463	 2.2767865655	-2.4823863848	 0.097122
H	 1.2127367157	 1.5258896488	-2.7368146005	 0.135349
36.8209	60.1445	119.8861	209.0519	266.9657	299.7714	343.8128	439.2488	499.0704	505.0147	529.9784	644.0789	801.257	860.085	863.4668	902.4738	932.0691	956.1094	1012.9149	1031.722	1057.3987	1074.8417	1094.1939	1139.0542	1157.2793	1205.5826	1229.3217	1261.2655	1284.4467	1317.0758	1352.4013	1365.304	1400.8989	1417.2749	1422.0996	1465.3114	1469.7641	1485.9374	1501.4688	1732.3681	1829.9752	2876.9155	2925.0006	2968.5687	3013.4507	3036.7848	3049.1657	3059.3921	3091.3084	3096.401	3146.2798
O=CCC1=CCCOC1	O=CCC1=CCCOC1	
InChI=1S/C7H10O2/c8-4-3-7-2-1-5-9-6-7/h2,4H,1,3,5-6H2	InChI=1S/C7H10O2/c8-4-3-7-2-1-5-9-6-7/h2,4H,1,3,5-6H2
