19
gdb 97848	2.87119	0.82412	0.76681	2.4112	80.87	-0.2496	0.0229	0.2725	1573.5087	0.158233	-422.977349	-422.967603	-422.966659	-423.013842	34.963	
O	 0.5367019027	 0.0918761151	-0.8924334196	-0.400533
C	-0.0851414041	 0.0765153066	 0.3853447465	-0.196427
C	-1.4234064856	-0.5166430328	 0.3760722631	 0.05426
C	-2.5487374708	-0.9532110295	 0.3359716432	 0.052676
C	-3.8654809578	-1.5583870698	 0.2767548889	-0.231026
C	-4.6438313405	-1.2736254367	-1.052673314	-0.225698
C	-4.1070078332	-2.6079862547	-1.6319946039	-0.25078
C	-3.8006709473	-3.0691436101	-0.1817221492	 0.167962
O	-2.6634340124	-3.821536829	 0.099843516	-0.425508
H	-0.0654899579	 0.5339180527	-1.5000910598	 0.2871
H	 0.5820082266	-0.5044263464	 1.0316302233	 0.142293
H	-0.1404719186	 1.0883671878	 0.8177463998	 0.120359
H	-4.4098148926	-1.3680405944	 1.2061788409	 0.100785
H	-5.7228100079	-1.2963010739	-0.881988583	 0.108837
H	-4.3863836194	-0.3533299278	-1.5775485033	 0.108835
H	-4.7814484563	-3.2242359456	-2.2299409467	 0.102646
H	-3.1771748756	-2.4566312867	-2.1885092756	 0.107966
H	-4.6497135771	-3.6133567025	 0.2424336152	 0.093167
H	-1.8965161822	-3.2530252721	-0.0511305118	 0.283086
17.8841	72.0572	89.818	140.0593	226.3671	241.2493	328.0449	361.0095	389.4893	420.2781	437.664	564.2962	607.2135	665.7755	735.3438	752.4701	886.0078	916.8233	945.7753	967.3344	988.222	1039.0709	1053.3353	1076.4399	1139.4486	1158.8271	1188.5361	1213.5874	1221.5537	1243.6005	1257.0445	1260.593	1338.6354	1351.3448	1360.7435	1416.5411	1442.3168	1480.4253	1492.3193	1496.1498	2340.9983	2977.5132	3058.3334	3062.1418	3063.6748	3070.1612	3077.3294	3117.5682	3136.0665	3754.2174	3814.644
OCC#CC1CCC1O	OCC#C[C@H]1CC[C@H]1O	
InChI=1S/C7H10O2/c8-5-1-2-6-3-4-7(6)9/h6-9H,3-5H2	InChI=1S/C7H10O2/c8-5-1-2-6-3-4-7(6)9/h6-9H,3-5H2/t6-,7+/m0/s1
