16
gdb 45159	3.10479	1.85815	1.6236	3.212	68.59	-0.2463	0.0244	0.2707	865.1067	0.128135	-437.903141	-437.897099	-437.896155	-437.933444	25.328	
N	-0.0633034764	 1.2362357655	 0.3839297267	-0.548461
C	-0.0165389993	 0.0289164547	 0.00858644	 0.428515
O	 1.1629449914	-0.6187867764	-0.2708629655	-0.258566
C	 0.9998328925	-1.982517476	-0.6735952261	 0.157794
C	 0.1144255914	-2.0348483835	-1.9299353128	-0.25972
C	-1.2449761872	-1.843227651	-1.2834636101	-0.12912
C	-1.0544374586	-2.293338371	 0.1314815	 0.089987
O	 0.2884609486	-2.6880078197	 0.3177087859	-0.2389
C	-1.2280711003	-0.8114545786	-0.14689474	-0.167924
H	 0.8801440759	 1.6251206317	 0.4373130597	 0.219669
H	 2.0017499036	-2.3984177688	-0.7571096597	 0.108612
H	 0.3962020429	-1.2586258699	-2.6440786615	 0.127952
H	 0.1851252028	-3.0146199898	-2.4118143923	 0.120278
H	-2.1612634773	-2.0055254465	-1.8350506631	 0.107965
H	-1.7558045324	-2.8595489293	 0.7284169857	 0.121229
H	-2.1569432776	-0.3291224515	 0.1257713731	 0.120687
131.6421	362.5777	393.7319	420.385	492.7708	554.0554	622.7695	675.8709	769.6509	776.7236	800.9354	851.5235	874.0676	891.3981	907.3435	948.751	956.2169	986.0623	1029.3348	1034.1247	1071.864	1080.2319	1091.6061	1131.5761	1144.0961	1189.2987	1262.9544	1282.9425	1301.0005	1341.5166	1363.6222	1401.1833	1412.638	1485.2548	1759.8518	3064.0515	3123.2063	3150.4514	3203.4167	3212.4172	3221.8952	3469.8982
N=C1OC2CC3C(O2)C13	[NH][C]1O[C@@H]2C[C@H]3[C@@H](O2)[C@@H]13	
InChI=1S/C6H7NO2/c7-6-4-2-1-3(9-6)8-5(2)4/h2-5,7H,1H2	InChI=1S/C6H7NO2/c7-6-4-2-1-3(9-6)8-5(2)4/h2-5,7H,1H2/t2-,3-,4+,5-/m1/s1
