14
gdb 25401	2.72937	1.57212	0.99754	5.8609	75.11	-0.2348	-0.0808	0.1541	1090.0467	0.103373	-432.916973	-432.909634	-432.90869	-432.949096	27.116	
N	 0.2477336897	 1.3748845954	-0.4583122599	-0.54203
C	 0.1409566619	 0.1241608486	-0.2205449668	 0.313658
N	 1.2271283297	-0.7871001839	-0.1818471294	-0.351905
C	 1.0933625358	-2.1110305584	 0.0722573959	 0.123953
N	-0.0314586162	-2.7105918345	 0.3103519118	-0.29054
C	-1.1366215831	-1.8956169564	 0.291194614	-0.036274
C	-1.1231653137	-0.5530644604	 0.0476456579	 0.08632
C	-2.3895720262	 0.2172121785	 0.0552123027	 0.095292
O	-3.4725454449	-0.2828853184	 0.2700297504	-0.279404
H	 1.2112106645	 1.6657127471	-0.6220964399	 0.205356
H	 2.1510524026	-0.415352056	-0.3556536316	 0.262628
H	 2.0184332626	-2.6832772759	 0.0684709296	 0.144194
H	-2.0901874328	-2.3760630263	 0.4880216668	 0.15049
H	-2.27376741	 1.2959276705	-0.1529861517	 0.118262
109.3996	132.2481	212.1926	239.2357	369.5914	376.6747	507.2137	531.3993	569.5582	649.1283	666.2283	765.877	798.4445	824.3085	896.4988	957.5066	1011.7096	1047.9011	1059.2856	1113.4463	1174.5372	1229.3035	1290.7312	1370.625	1409.7251	1446.6107	1475.3539	1565.3913	1643.8392	1734.4798	1785.2501	2981.7626	3165.0072	3192.0822	3478.3885	3594.4994
N=C1NC=NC=C1C=O	[NH]C1=C(CN=CN1)C=O	
InChI=1S/C5H5N3O/c6-5-4(2-9)1-7-3-8-5/h1-3H,(H2,6,7,8)	InChI=1S/C5H6N3O/c6-5-4(2-9)1-7-3-8-5/h2-3,6H,1H2,(H,7,8)
