18
gdb 63326	2.54598	1.47284	1.17647	2.5687	73.3	-0.2746	-0.0128	0.2617	1108.1894	0.146987	-439.155743	-439.146996	-439.146052	-439.189207	32.787	
C	-0.198041456	 1.6010581014	 0.0097803238	-0.433602
C	 0.0529277215	 0.0907056393	-0.0439484351	 0.11883
C	-1.2823091609	-0.6851324119	-0.0158306953	-0.426697
C	 0.9468983272	-0.367145885	-1.2121718234	-0.342766
C	 1.8562314135	-1.4046080254	-0.6000804194	 0.404442
N	 2.5518594423	-2.2571936443	-1.205202716	-0.515942
O	 1.830884237	-1.2664847671	 0.7824705238	-0.219113
C	 0.8630813868	-0.3602424254	 1.175538259	 0.431237
O	 0.7235294009	-0.0534330558	 2.3188920497	-0.328601
H	 0.7405699855	 2.1631062157	-0.0165455489	 0.124187
H	-0.8081460096	 1.9154737206	-0.8426046426	 0.121791
H	-0.7235940746	 1.865597338	 0.9306686869	 0.144518
H	-1.8964053613	-0.3942056872	-0.873651763	 0.126625
H	-1.1216293213	-1.7669164143	-0.0652627455	 0.13182
H	-1.8360291902	-0.4630710827	 0.9001236953	 0.14331
H	 0.4022613953	-0.7817709839	-2.061602323	 0.142949
H	 1.5622031569	 0.4585100714	-1.5865053237	 0.140343
H	 3.0900514871	-2.8263345933	-0.5497898526	 0.236669
57.2273	135.0204	211.7798	220.2867	254.6357	294.7499	323.1233	353.3295	398.0522	515.5924	568.2765	602.5271	635.3781	745.9701	760.1493	869.7459	900.7737	918.7476	932.9531	964.8341	984.3449	1035.9112	1055.9378	1102.8833	1130.1606	1214.6594	1245.8792	1259.9379	1316.7964	1333.539	1399.2605	1421.7101	1471.0258	1483.7664	1488.7108	1501.7922	1509.2587	1792.2549	1906.5196	3036.3368	3040.4975	3054.374	3106.9229	3109.6264	3121.4865	3125.1838	3127.4555	3480.497
CC1(C)CC(=N)OC1=O	CC1(C)C[C]([NH])OC1=O	
InChI=1S/C6H9NO2/c1-6(2)3-4(7)9-5(6)8/h7H,3H2,1-2H3	InChI=1S/C6H9NO2/c1-6(2)3-4(7)9-5(6)8/h7H,3H2,1-2H3
