18
gdb 56803	2.96371	1.04401	0.96818	3.6291	78.65	-0.2564	-0.0129	0.2435	1296.2678	0.148063	-401.970056	-401.961128	-401.960184	-402.00439	32.316	
O	-0.0917989938	 1.4160285732	 0.0162517653	-0.40457
C	 0.0416084904	 0.0007281292	 0.0050633222	-0.141251
C	 0.7119260252	-0.4455201484	-1.2395094085	 0.256341
N	 1.2664575071	-0.7755716503	-2.1984572086	-0.328171
C	 0.7616660551	-0.5399594537	 1.2126365274	 0.366606
C	 0.2447484159	-1.3689773723	 2.119464367	-0.178878
C	 1.2106984962	-1.6681159968	 3.2379846275	-0.2484
C	 2.5567714663	-1.1166587169	 2.6970451921	-0.209253
C	 2.1758883942	-0.1254974902	 1.5670275605	-0.329846
H	 0.7884605489	 1.8030972531	-0.0521790049	 0.298325
H	-0.9820511017	-0.3865519476	-0.0108363258	 0.141373
H	-0.7650437463	-1.7652754406	 2.0901807303	 0.098658
H	 0.8955821193	-1.1575430733	 4.1589838861	 0.114646
H	 1.2610783529	-2.7347434157	 3.4822264195	 0.112117
H	 3.1682197467	-0.6538440934	 3.474778831	 0.10429
H	 3.1400940226	-1.9389043287	 2.272377219	 0.1166
H	 2.8612991963	-0.1805737828	 0.7134141365	 0.122359
H	 2.1924980348	 0.9162133352	 1.9179859536	 0.109053
54.9049	91.6148	142.9637	174.518	207.3615	263.3687	322.1694	363.5719	437.7358	541.5173	603.2083	650.6019	726.9815	812.6757	839.5392	875.3946	908.7248	913.1043	939.2645	970.6583	1033.3338	1046.5206	1070.9386	1155.5776	1176.1246	1230.8123	1240.0829	1249.0864	1277.558	1312.8596	1322.2597	1331.5301	1373.5696	1411.1028	1483.4829	1488.0478	1507.256	1716.8557	2350.7661	3005.1009	3011.5858	3051.1648	3059.0485	3069.8543	3072.7916	3110.7717	3187.3724	3806.6632
OC(C#N)C1=CCCC1	O[C@@H](C#N)C1=CCCC1	
InChI=1S/C7H9NO/c8-5-7(9)6-3-1-2-4-6/h3,7,9H,1-2,4H2	InChI=1S/C7H9NO/c8-5-7(9)6-3-1-2-4-6/h3,7,9H,1-2,4H2/t7-/m0/s1
