19
gdb 74367	2.76182	1.22741	0.91266	1.7977	85.02	-0.2426	0.0167	0.2593	1304.5542	0.158189	-385.863082	-385.854192	-385.853248	-385.89661	33.807	
C	-0.0219445613	 1.5381902696	 0.0747593409	-0.475303
C	 0.0038339692	 0.0381209535	-0.0105284949	 0.296488
C	 0.0206808062	-0.619501486	-1.1693882124	-0.166781
C	 0.0046677224	-2.1345866533	-1.2578026032	-0.07331
O	-0.2904175812	-2.7551608363	-0.0142032469	-0.263292
C	 0.4351856102	-2.1776037821	 1.0583160715	-0.076876
C	 0.0103248063	-0.7283828055	 1.2918611039	-0.294086
C	-0.9790787677	-2.592021399	-2.2417659717	 0.310106
C	-1.7643638023	-2.9433238588	-3.0796434151	-0.443848
H	 0.8559779171	 1.9190004032	 0.6123161236	 0.12309
H	-0.0459686268	 2.0007960681	-0.9154066923	 0.123141
H	-0.9019298301	 1.8825445074	 0.633373761	 0.127476
H	 0.0408235048	-0.0930083864	-2.1191091102	 0.09727
H	 1.002455698	-2.4744539172	-1.59981387	 0.10094
H	 0.2312588618	-2.8038291977	 1.9310234296	 0.108876
H	 1.5179425585	-2.2208724234	 0.8538583288	 0.090375
H	 0.6951857454	-0.252322421	 2.0064352485	 0.100682
H	-0.9866695117	-0.6940965882	 1.7521656199	 0.118188
H	-2.4657741188	-3.2606843268	-3.810899251	 0.196864
79.0267	120.091	169.7885	196.9725	274.9784	309.3419	324.9198	421.2916	447.437	460.6739	520.6944	588.6035	613.5214	669.5254	707.5949	801.2108	829.7665	893.8667	918.7796	980.97	1002.8225	1031.6412	1043.842	1078.567	1108.0179	1145.5614	1182.052	1237.6697	1288.6724	1301.2017	1318.8273	1357.3345	1381.3622	1412.2635	1414.3405	1467.9226	1478.8345	1489.4178	1497.5503	1743.3051	2243.6553	2898.8645	2968.7758	3010.7445	3016.9965	3044.2973	3062.7543	3090.4938	3112.7145	3171.8745	3505.587
CC1=CC(OCC1)C#C	CC1=C[C@@H](OCC1)C#C	
InChI=1S/C8H10O/c1-3-8-6-7(2)4-5-9-8/h1,6,8H,4-5H2,2H3	InChI=1S/C8H10O/c1-3-8-6-7(2)4-5-9-8/h1,6,8H,4-5H2,2H3/t8-/m0/s1
