15
gdb 19800	4.35194	2.0379	1.85532	2.8272	64.78	-0.2586	0.0222	0.2808	751.8327	0.120549	-362.61425	-362.608287	-362.607342	-362.644173	24.094	
N	-0.0172063256	 1.2486859279	 0.0091608798	-0.552273
C	-0.0332653101	-0.0043231304	 0.0348405485	 0.422335
O	 1.0208896349	-0.9136105733	 0.07142617	-0.276114
C	 0.0907224403	-2.0486621316	 0.0007905985	 0.098957
C	-0.3547270891	-2.6602763038	 1.3420025822	-0.06569
C	-0.4716657536	-1.6074729442	 2.4085453238	-0.296822
C	-1.5479499663	-1.6875188904	 1.370237458	-0.055578
C	-1.1016277796	-1.0816471396	 0.0081753244	-0.159794
H	 0.9392395624	 1.6085760648	 0.0242938516	 0.227672
H	 0.3351586814	-2.722199624	-0.8185967888	 0.098458
H	-0.3171582345	-3.7172034116	 1.5731616843	 0.093991
H	-0.7540631201	-1.9907824455	 3.3835283909	 0.119738
H	 0.2208875684	-0.7731340675	 2.4419883268	 0.139503
H	-2.5818465648	-1.8837314148	 1.6212530752	 0.101363
H	-1.8504446234	-1.0467589761	-0.7791579051	 0.104252
136.3414	242.8915	349.959	439.7356	535.2046	648.547	687.2631	742.9301	787.0901	794.5684	868.6242	880.825	896.4244	904.907	942.5506	975.3207	987.581	1007.9856	1036.1395	1049.7717	1073.9879	1085.7969	1172.8129	1184.9831	1196.1567	1244.9462	1254.0546	1298.4007	1323.2182	1355.6412	1493.2002	1817.8465	3133.2929	3134.0698	3152.9709	3190.4668	3201.5033	3218.3092	3468.4574
N=C1OC2C3CC3C12	[NH][C]1O[C@H]2[C@H]3C[C@H]3[C@@H]12	
InChI=1S/C6H7NO/c7-6-4-2-1-3(2)5(4)8-6/h2-5,7H,1H2	InChI=1S/C6H7NO/c7-6-4-2-1-3(2)5(4)8-6/h2-5,7H,1H2/t2-,3+,4-,5+/m1/s1
