16
gdb 7429	3.31377	1.70707	1.14299	8.7929	64.41	-0.2235	-0.0305	0.1931	1007.9659	0.129275	-417.091698	-417.082822	-417.081878	-417.125473	31.156	
C	-0.133882227	 1.4771024718	 0.2091168948	-0.373277
N	-0.1099706636	 0.0146265774	 0.0740235074	-0.076378
C	-0.0593480668	-0.7588422918	 1.313721375	-0.366373
C	-0.1320703453	-0.6083063384	-1.0914450671	 0.287696
N	-0.1098538927	-1.9244325132	-1.1818575687	-0.478394
H	-0.133661265	-2.2009055482	-2.17171606	 0.300394
H	-0.0753057964	-2.5744346112	-0.415637716	 0.265286
C	-0.1877849034	 0.0533996589	-2.5837821251	 0.379904
O	-0.211341566	 1.2800184586	-2.6411331608	-0.42893
O	-0.1964463547	-0.8492345988	-3.431310689	-0.452618
H	 0.765705097	 1.8042982986	 0.7407634798	 0.130235
H	-0.1706978375	 1.907829909	-0.7911256511	 0.229067
H	-1.0133521361	 1.7705227547	 0.7917108553	 0.130231
H	-0.9375196009	-1.4086666881	 1.407533747	 0.14825
H	 0.846677591	-1.3749720207	 1.355687818	 0.148256
H	-0.0476901225	-0.0728793588	 2.1600369904	 0.15665
60.7007	80.5658	148.4694	198.1441	266.5631	269.5239	321.3342	387.616	402.5867	404.2862	524.9433	557.6719	651.6514	771.7542	805.5394	848.6844	857.1847	1072.7552	1097.1165	1125.0763	1180.2757	1208.798	1292.7414	1303.5391	1385.3949	1440.9404	1448.5873	1489.9925	1492.6853	1507.9608	1515.3371	1540.0776	1689.9464	1853.7225	3021.0228	3027.2684	3080.3215	3094.6184	3149.1908	3153.9846	3335.6491	3680.9225
CN(C)C(=[NH2+])C([O-])=O	CN(C)C(=[NH2])C(=O)[O]	
InChI=1S/C4H8N2O2/c1-6(2)3(5)4(7)8/h5H,1-2H3,(H,7,8)	InChI=1S/C4H8N2O2/c1-6(2)3(5)4(7)8/h5H2,1-2H3
