18
gdb 116764	4.94611	0.59499	0.55127	6.0816	79.07	-0.2514	-0.0038	0.2477	1953.8524	0.146162	-435.260337	-435.249878	-435.248933	-435.297426	35.231	
C	 0.0898084233	 1.3804519836	-0.0662775239	-0.252219
O	-0.0950913341	-0.0314175778	 0.0046974345	-0.189962
C	 0.5936807842	-0.6631857076	 0.966530344	 0.134762
N	 0.4834283838	-1.9090731228	 1.1211257855	-0.228524
C	 1.2470816898	-2.5283270461	 2.1811667458	-0.159387
C	 0.2837182704	-3.3926909567	 3.0419067869	-0.110281
N	-0.4535934033	-4.4159319098	 2.3013120241	-0.505943
C	 1.0316768618	-4.0075830726	 4.1468930238	 0.284823
N	 1.6564199552	-4.4728692988	 5.0000420072	-0.318764
H	 1.1398417421	 1.6368977927	-0.2485908248	 0.133672
H	-0.5140572999	 1.724858298	-0.9059328099	 0.153505
H	-0.2528583964	 1.8740917266	 0.850435514	 0.133773
H	 1.2416575088	-0.0125423237	 1.5744556085	 0.084515
H	 1.9994575017	-3.1966265015	 1.7425787807	 0.118341
H	 1.7760075429	-1.8063995904	 2.8251497008	 0.101036
H	-0.4552423944	-2.7132406469	 3.4866945693	 0.131827
H	-0.8544492524	-3.9565617922	 1.4864929466	 0.252883
H	 0.1978876363	-5.1114220642	 1.9459718167	 0.235945
41.268	56.7876	71.1988	137.3082	154.2387	194.6487	235.4957	252.1055	298.4919	349.7464	416.3664	445.3363	541.1976	578.861	629.2183	855.6083	907.6696	943.5941	993.4301	1032.3534	1061.1048	1086.0775	1153.7124	1176.4917	1181.5334	1201.8327	1263.7929	1283.8816	1316.731	1364.5335	1412.0572	1420.4926	1484.9953	1487.8997	1495.6207	1499.3195	1661.9018	1771.7679	2363.3016	2966.6626	2996.539	3022.7322	3025.1153	3046.9108	3087.93	3152.3657	3478.675	3559.0122
COC=NCC(N)C#N	COC=NC[C@@H](N)C#N	
InChI=1S/C5H9N3O/c1-9-4-8-3-5(7)2-6/h4-5H,3,7H2,1H3	InChI=1S/C5H9N3O/c1-9-4-8-3-5(7)2-6/h4-5H,3,7H2,1H3/t5-/m0/s1
