22
gdb 107646	3.09337	1.26111	1.03746	1.5886	87.69	-0.2303	0.0197	0.25	1257.4588	0.196009	-367.207872	-367.199167	-367.198222	-367.241165	34.075	
C	 0.3458299845	 1.4729111395	-0.3633835344	-0.38136
C	-0.1460039018	 0.0909077498	 0.0886287495	-0.267593
C	 0.573557361	-0.4482311781	 1.3161337938	 0.325007
N	 1.9583246983	-0.9641607833	 1.137057568	-0.373396
C	 0.8489732839	-1.9045798014	 1.4237576779	-0.100078
C	 0.8656959666	-2.5675563853	 2.796707491	-0.209701
C	-0.0978659277	-1.8859711915	 3.7880665591	-0.264277
C	-0.0104224274	-0.3805079146	 3.7146467954	-0.053615
C	 0.319762385	 0.2701516302	 2.5993724728	-0.109325
H	 1.4203898079	 1.4624353589	-0.5739174226	 0.120425
H	-0.1719580767	 1.7900188571	-1.2737007712	 0.113212
H	 0.1660579877	 2.2359754839	 0.3999349892	 0.123388
H	-1.2231442023	 0.1348201184	 0.2937090691	 0.103731
H	-0.017055449	-0.6259491038	-0.7329845658	 0.089647
H	 2.1744088836	-0.9905765416	 0.1409634626	 0.218574
H	 0.5086238944	-2.5235247878	 0.5961573203	 0.075752
H	 0.6200886286	-3.63099339	 2.7065159911	 0.09078
H	 1.884761851	-2.5022146901	 3.1901971048	 0.117788
H	-1.132949176	-2.2014853211	 3.5894255625	 0.108083
H	 0.1209422004	-2.2241324964	 4.8069489789	 0.102194
H	-0.2261445334	 0.1788366033	 4.621704461	 0.086734
H	 0.3897262012	 1.354632974	 2.5955621171	 0.084028
76.6982	116.2594	167.1397	213.3732	260.2411	306.9536	374.0888	429.8257	493.8958	510.064	558.9431	647.9276	729.2019	771.2634	776.4158	820.0332	872.5736	899.7987	935.0014	952.0058	974.9954	997.2675	1009.9679	1046.8212	1057.487	1086.5503	1113.4367	1124.1502	1172.2587	1196.15	1220.8232	1264.9574	1277.1848	1285.7956	1336.4389	1345.8766	1366.9892	1388.6806	1410.7705	1432.6728	1448.7402	1477.0972	1479.009	1486.659	1499.2308	1506.521	1714.1716	2998.9776	3014.4201	3037.3723	3041.0578	3051.1666	3058.9428	3088.2586	3105.1216	3109.3325	3123.6032	3146.4939	3169.703	3461.2882
CCC12NC1CCC=C2	CC[C@]12N[C@H]1CCC=C2	
InChI=1S/C8H13N/c1-2-8-6-4-3-5-7(8)9-8/h4,6-7,9H,2-3,5H2,1H3	InChI=1S/C8H13N/c1-2-8-6-4-3-5-7(8)9-8/h4,6-7,9H,2-3,5H2,1H3/t7-,8+/m0/s1
