20
gdb 71680	2.72346	2.22224	1.65833	1.6331	80.65	-0.2197	0.0804	0.3	896.3234	0.173915	-365.952572	-365.945975	-365.945031	-365.983008	28.449	
C	-0.0335845075	 1.4811186453	 0.0542980422	-0.50675
C	-0.0107289899	-0.0294103064	 0.015938133	 0.342013
C	 0.2681660558	-0.8008623593	-1.3057717804	-0.299443
C	-0.5044143476	-1.9496077326	-0.6433934081	-0.059876
C	 0.156332113	-2.1948728414	 0.7357266135	-0.001547
C	 0.7760207679	-0.7948452417	 1.1000539773	-0.098463
C	-0.1780454201	-0.8253061156	 2.312333195	-0.186208
N	-1.0795727124	-1.7091057222	 1.4991879827	-0.153973
C	-1.3103353621	-0.9417442637	 0.2218291475	-0.044308
H	 0.9541661805	 1.8955999929	-0.1809238604	 0.116595
H	-0.7420183685	 1.8856093017	-0.6768151065	 0.115318
H	-0.3251413679	 1.8597996586	 1.0398332988	 0.117656
H	-0.2808849387	-0.3739750888	-2.1508897245	 0.09699
H	 1.3124296276	-0.9641331665	-1.5942202512	 0.089923
H	-0.937072467	-2.7906765832	-1.1811229535	 0.072889
H	 0.6323733947	-3.1225246152	 1.0522497723	 0.071932
H	 1.8475528184	-0.6013159123	 1.180367409	 0.05967
H	 0.2121151381	-1.3920574551	 3.1629290332	 0.104025
H	-0.6216878565	 0.1107704728	 2.6685276446	 0.096967
H	-2.3038451076	-0.5481377272	 0.0106719855	 0.066591
191.823	255.1942	263.8228	386.8818	440.3955	477.0374	583.5488	691.2776	738.9261	774.5468	798.2823	822.0188	849.9379	873.8659	890.1182	896.6641	930.7379	948.6371	970.6613	994.3107	1002.7734	1015.338	1041.6391	1065.5701	1120.2692	1130.1568	1155.1552	1170.3877	1196.1596	1204.2834	1214.0809	1215.1523	1234.5412	1251.5964	1267.189	1293.6042	1300.8438	1344.5185	1414.4927	1490.1672	1492.6671	1497.7465	1507.6129	3022.4816	3036.5931	3040.1065	3083.7835	3090.8015	3091.4532	3094.1017	3098.5276	3116.5743	3120.4217	3140.2101
CC12CC3C4C1CN4C23	C[C@@]12C[C@H]3[C@H]4[C@@H]1CN4[C@@H]23	
InChI=1S/C8H11N/c1-8-2-4-6-5(8)3-9(6)7(4)8/h4-7H,2-3H2,1H3	InChI=1S/C8H11N/c1-8-2-4-6-5(8)3-9(6)7(4)8/h4-7H,2-3H2,1H3/t4-,5-,6-,7+,8+/m0/s1
