20
gdb 96294	2.04596	1.81558	1.14487	2.4131	76.65	-0.2552	0.0252	0.2804	1128.8857	0.172009	-440.302612	-440.293921	-440.292977	-440.336383	32.881	
C	 0.7932330803	 1.2591084039	 0.2085359	-0.403779
C	-0.1548435057	 0.1345979321	-0.1671902333	 0.193314
O	 0.3988355637	-0.5576795951	-1.2461636682	-0.242073
C	-0.2284902595	-1.8058289118	-1.530178662	-0.078978
C	 0.4640479311	-2.9471046757	-0.7514344267	-0.218337
C	 1.2255509486	-2.4254399247	 0.4809064837	-0.26361
C	 0.358611258	-1.6692094264	 1.4572963067	 0.383108
N	 0.3160458735	-1.994967898	 2.6808347332	-0.498942
O	-0.4708813212	-0.6886732635	 0.968478073	-0.268914
H	 1.758697246	 0.8537344183	 0.5236308397	 0.133002
H	 0.9533544226	 1.9108298715	-0.653990186	 0.133043
H	 0.3696009035	 1.8447920352	 1.0272021263	 0.131078
H	-1.1459435871	 0.5278290263	-0.4391774798	 0.085427
H	-1.2959449838	-1.7525362153	-1.284174383	 0.111011
H	-0.1405549833	-1.9548545535	-2.6097003911	 0.112187
H	-0.2785593942	-3.6935227119	-0.4499560795	 0.114986
H	 1.1832132579	-3.4598826147	-1.398005677	 0.107502
H	 1.6703413364	-3.2525550587	 1.0358712377	 0.127574
H	 2.0396922052	-1.7778786551	 0.1406375317	 0.127079
H	-0.3247214321	-1.3753118826	 3.1819811746	 0.215324
49.2423	96.835	179.8923	219.7972	266.3668	316.2602	367.9405	388.6545	468.719	480.9049	574.8477	685.5402	689.3443	727.014	814.3305	858.9228	876.781	925.6021	944.5564	964.9362	1010.5272	1070.8714	1094.7813	1097.6369	1120.1468	1149.4543	1181.2617	1215.9196	1264.6427	1302.8708	1323.0214	1353.313	1375.038	1382.3412	1406.4386	1418.8102	1429.7346	1471.2284	1484.5261	1487.2768	1493.0704	1509.7352	1740.2698	2994.0499	3028.5922	3046.3723	3054.1481	3061.3739	3080.5715	3099.825	3128.7352	3132.3749	3140.5906	3457.2647
CC1OCCCC(=N)O1	C[C@H]1OCCC[C]([NH])O1	
InChI=1S/C6H11NO2/c1-5-8-4-2-3-6(7)9-5/h5,7H,2-4H2,1H3	InChI=1S/C6H11NO2/c1-5-8-4-2-3-6(7)9-5/h5,7H,2-4H2,1H3/t5-/m0/s1
