15
gdb 25084	3.3525	1.66731	1.1337	3.0958	68.45	-0.1862	0.0522	0.2384	1004.42	0.11512	-453.954078	-453.946991	-453.946047	-453.985872	26.83	
N	-0.1404088742	 1.2870991992	-0.1722604032	-0.609123
C	-0.0537597238	 0.0241863203	-0.1099513146	 0.462972
O	 1.0827038533	-0.7562484044	-0.1259440711	-0.240188
C	 0.7224319511	-2.1102193391	 0.060212486	-0.22159
C	-0.6092605289	-2.1485509171	 0.1430679675	 0.395563
O	-1.5939689705	-3.0315931858	 0.3874694614	-0.277783
C	-2.8469871497	-2.3137308662	 0.2223490175	-0.109362
C	-2.5018225243	-0.8040870227	 0.3301976623	-0.190025
N	-1.10371614	-0.865855951	-0.0214129842	-0.13835
H	 0.7838850826	 1.7061210549	-0.2348508433	 0.225862
H	 1.5133640555	-2.832884231	 0.0985010227	 0.149377
H	-3.2562699116	-2.5572612593	-0.763614993	 0.13385
H	-3.5324725945	-2.6602915062	 0.9965177834	 0.138006
H	-3.078709197	-0.1965701377	-0.3703684432	 0.146509
H	-2.650262328	-0.4105657239	 1.3434014317	 0.134282
103.8929	152.4425	169.7766	300.5286	346.2013	569.8598	584.3517	625.4417	630.6698	661.4295	713.8522	748.321	749.5702	817.4002	879.6837	947.57	980.7856	1013.5106	1048.4267	1112.6757	1139.9492	1191.3179	1209.4978	1248.1208	1272.015	1294.8929	1373.5395	1403.5926	1457.4818	1515.4072	1530.2367	1754.4316	1792.8948	3029.8385	3054.4408	3106.0145	3133.3663	3329.5978	3538.7025
N=C1OC=C2OCCN12	[NH][C@@H]1OC=C2OCCN12	
InChI=1S/C5H6N2O2/c6-5-7-1-2-8-4(7)3-9-5/h3,6H,1-2H2	InChI=1S/C5H7N2O2/c6-5-7-1-2-8-4(7)3-9-5/h3,5-6H,1-2H2/t5-/m0/s1
