18
gdb 50370	4.3701	1.09359	0.92273	3.4143	83.41	-0.217	-0.0097	0.2074	1254.2347	0.149305	-401.950808	-401.943093	-401.942149	-401.98337	29.365	
O	-0.0699874767	 0.0912699903	-0.4333738897	-0.316839
C	 0.0059177869	 1.271407972	-0.1727080688	 0.136416
N	 1.1350518069	 1.8810479992	 0.2852828341	-0.150136
C	 2.5305369284	 1.3695802962	 0.4061321863	-0.212209
C	 2.9340461977	 2.8198551981	 0.8665803063	-0.077525
C	 3.8166617649	 3.8710348913	 0.1768009361	-0.246967
C	 2.8444811072	 5.1029772524	 0.0952289193	-0.227558
C	 1.4607414547	 4.4608491104	-0.0628540128	-0.247259
C	 1.5686084011	 3.2156164732	 0.3932871736	 0.372763
H	-0.8402351174	 1.981156404	-0.2576131554	 0.081876
H	 2.6466271237	 0.5652609708	 1.1340697455	 0.132754
H	 2.9289790243	 1.061369175	-0.5651499487	 0.131698
H	 3.0377332027	 2.8477659987	 1.9571470094	 0.096139
H	 4.746555726	 4.0939051474	 0.7068989073	 0.099825
H	 4.0718672756	 3.5507919971	-0.8393530841	 0.108953
H	 2.9233768523	 5.725329946	 0.998100393	 0.107598
H	 3.0843076943	 5.7539537024	-0.7518897586	 0.108495
H	 0.6255513275	 4.9348992354	-0.5587629327	 0.101976
69.1892	155.2672	181.1524	268.9833	311.249	343.7547	406.5833	485.3314	601.7508	681.7094	758.9383	784.1892	810.1973	860.9846	882.293	902.7351	935.6087	970.845	1027.3469	1033.1051	1061.1013	1094.6664	1144.8377	1158.7516	1182.5454	1191.9547	1224.2781	1274.5805	1287.5262	1303.2997	1328.5603	1351.0461	1389.1984	1433.9934	1483.1796	1494.7735	1501.2956	1736.232	1793.7595	2945.2099	3004.5626	3040.7961	3046.9539	3060.8975	3071.0442	3102.5582	3130.6094	3227.7642
O=CN1CC2CCC=C12	O=CN1C[C@H]2CC[CH][C]12	
InChI=1S/C7H9NO/c9-5-8-4-6-2-1-3-7(6)8/h3,5-6H,1-2,4H2	InChI=1S/C7H9NO/c9-5-8-4-6-2-1-3-7(6)8/h3,5-6H,1-2,4H2/t6-/m1/s1
