16
gdb 6657	7.10076	0.75028	0.69442	6.8656	66.1	-0.2589	0.0184	0.2772	1518.169	0.12952	-379.978385	-379.969039	-379.968095	-380.014276	31.277	
N	-0.0411123969	 1.3280968438	 0.2130896521	-0.523
C	 0.0546332739	 0.0220247139	-0.1684200884	 0.411649
O	 1.0928191157	-0.4688091615	-0.5649184355	-0.351515
C	-1.2516005072	-0.770751258	-0.0767770335	-0.323042
C	-0.9929858036	-2.272768422	 0.0474608999	-0.165118
C	-2.2977746333	-3.0860284401	-0.0456026807	-0.34925
C	-2.0759204951	-4.5239861737	 0.0934394499	 0.25985
N	-1.8896754722	-5.6585749696	 0.2078933732	-0.302023
H	 0.7694416742	 1.9162351453	 0.1084909527	 0.264492
H	-0.9065023667	 1.7440187595	 0.5080950665	 0.258969
H	-1.861806715	-0.4046856392	 0.7580837798	 0.10754
H	-1.8237478942	-0.5617051468	-0.9916682344	 0.131087
H	-0.2990323061	-2.5793468493	-0.7382574606	 0.151357
H	-0.4961547176	-2.4885264957	 0.9984165487	 0.129671
H	-3.0046937873	-2.7721087441	 0.7320828275	 0.14829
H	-2.7919619185	-2.9042935424	-1.0076934572	 0.151043
25.3847	76.0662	93.8631	109.2822	131.6062	227.1604	299.9498	399.1344	421.0652	512.453	554.8356	614.2587	667.6549	744.6158	838.9048	861.8148	954.2123	1028.8725	1063.6651	1072.8881	1103.1622	1170.7021	1243.1078	1291.7807	1310.8739	1323.481	1376.7163	1408.6846	1464.6394	1470.2528	1499.7908	1618.4652	1801.0732	2364.2824	3015.4305	3033.2486	3054.1435	3065.42	3072.0437	3123.4366	3603.7173	3740.7838
NC(=O)CCCC#N	NC(=O)CCCC#N	
InChI=1S/C5H8N2O/c6-4-2-1-3-5(7)8/h1-3H2,(H2,7,8)	InChI=1S/C5H8N2O/c6-4-2-1-3-5(7)8/h1-3H2,(H2,7,8)
