17
gdb 51693	3.26744	1.06616	0.91819	3.3941	72.32	-0.2716	0.01	0.2816	1288.0102	0.13673	-455.17042	-455.162063	-455.161119	-455.204581	30.119	
N	-0.3914102857	 1.1249165773	-0.6762993123	-0.431747
C	-0.196691563	-0.0428949611	-0.2478752558	 0.128289
O	-1.2339605063	-0.9149222321	-0.1882033836	-0.192903
C	-0.9226038745	-2.2373681533	 0.2037070149	 0.193797
C	-2.2328612895	-3.0069789075	 0.3676061635	-0.257553
C	-2.4714480808	-3.5293360544	-1.0564165456	-0.305604
C	-1.0715470335	-3.6421401456	-1.6179555414	 0.422117
N	-0.7151032845	-4.2994657437	-2.6293642975	-0.532844
O	-0.2080032196	-2.9067461186	-0.8250938007	-0.237663
H	 0.4744458764	 1.6590804904	-0.6388170564	 0.23437
H	 0.7505741397	-0.4647160908	 0.1108874652	 0.099972
H	-0.2747864235	-2.2251880023	 1.0860062734	 0.098769
H	-2.0793503709	-3.8325265077	 1.0676509874	 0.123563
H	-3.0235162211	-2.361828648	 0.7498415102	 0.135137
H	-2.9910139066	-4.4857343483	-1.1088638373	 0.141198
H	-3.0349043366	-2.8053112759	-1.6531645221	 0.154289
H	 0.2860222099	-4.1916788985	-2.800083582	 0.226813
54.8366	96.3722	116.3282	124.0076	235.2321	386.5931	423.3521	482.6702	529.5807	616.5921	661.8172	778.3441	813.9985	828.6597	874.2215	898.7031	938.5746	971.6492	978.3818	1042.6862	1046.8026	1064.2524	1079.9425	1126.8605	1182.5035	1218.0025	1267.8646	1281.8706	1310.6867	1339.78	1377.27	1395.962	1431.1387	1468.9655	1487.9142	1753.856	1795.4999	3041.1714	3062.6878	3071.1943	3079.8854	3138.9653	3146.7176	3477.0003	3518.0494
N=COC1CCC(=N)O1	[NH][CH]O[C@H]1CC[C]([NH])O1	
InChI=1S/C5H8N2O2/c6-3-8-5-2-1-4(7)9-5/h3,5-7H,1-2H2	InChI=1S/C5H8N2O2/c6-3-8-5-2-1-4(7)9-5/h3,5-7H,1-2H2/t5-/m1/s1
