17
gdb 71209	2.39906	2.06714	1.6269	1.1814	71.62	-0.2176	-0.0222	0.1954	897.9321	0.137949	-417.961701	-417.954589	-417.953645	-417.993022	28.308	
C	 0.0027375061	 1.5151216121	 0.0389089636	-0.510898
C	 0.0462003205	 0.015662585	 0.0627647473	 0.193084
N	 0.8781415821	-0.7244168886	-0.9517868197	-0.349949
C	 0.8138196224	-1.8611313004	-0.0109575412	 0.003882
C	-0.6861672305	-2.1425804659	 0.4429689694	-0.155749
N	-0.28388837	-1.7688665532	 1.8379337571	-0.318713
C	 0.7187690011	-0.8976606619	 1.1863262217	-0.04638
C	-1.257892505	-0.803061312	-0.0473689333	 0.416768
O	-2.3563176973	-0.4797745573	-0.4081221723	-0.343563
H	 1.0113722222	 1.9341142254	-0.0075426127	 0.129918
H	-0.5645055699	 1.8715698974	-0.8274078492	 0.136153
H	-0.4955836193	 1.8978617413	 0.9357438543	 0.125657
H	 0.4124485767	-0.8688458743	-1.8501006609	 0.219154
H	 1.5066377362	-2.6930004624	-0.1172497911	 0.096824
H	-1.2369805998	-3.0672089842	 0.2869349059	 0.089692
H	-1.0126390663	-1.283954258	 2.3652456468	 0.221273
H	 1.5507494807	-0.5011884429	 1.7660838942	 0.092847
137.8016	170.4843	223.7241	264.5944	410.3035	440.5739	504.0293	617.0896	657.3487	728.1372	767.7068	795.1117	807.3975	821.6116	863.4997	870.4414	949.2087	966.4786	992.5649	1047.4846	1061.0891	1062.5615	1106.3548	1132.9821	1145.7735	1193.9512	1205.7755	1237.7225	1268.3686	1290.4953	1318.2732	1341.5969	1360.1348	1414.4625	1482.1219	1487.7665	1871.3692	3037.1844	3102.4033	3118.9882	3130.2784	3142.61	3152.2138	3425.0293	3427.3001
CC12NC3C(NC13)C2=O	C[C@@]12N[C@@H]3[C@@H](N[C@H]13)C2=O	
InChI=1S/C6H8N2O/c1-6-4-2(8-6)3(7-4)5(6)9/h2-4,7-8H,1H3	InChI=1S/C6H8N2O/c1-6-4-2(8-6)3(7-4)5(6)9/h2-4,7-8H,1H3/t2-,3-,4+,6-/m1/s1
