14
gdb 20634	3.90872	1.86779	1.27381	3.8225	69.65	-0.2368	-0.0695	0.1673	909.5698	0.107325	-378.711668	-378.704625	-378.70368	-378.743005	26.044	
C	-0.0058858652	 1.5121115372	 0.0335830204	-0.496158
C	-0.0365215892	 0.0129980366	-0.0092103946	 0.28135
C	-1.1360305827	-0.7336651391	 0.1973568814	-0.229153
C	-1.0762855202	-2.180984583	 0.1372952301	 0.409759
N	-2.0870594798	-2.9257431295	 0.3253900878	-0.527504
O	 0.1669362511	-2.744621702	-0.1424065647	-0.288528
N	 1.3129742067	-1.9886883949	-0.3584572502	-0.064126
C	 1.1897199091	-0.7118111422	-0.2906859388	-0.01464
H	 0.6944955586	 1.8674052744	 0.7984850014	 0.145962
H	 0.3336208589	 1.9239770643	-0.923983587	 0.145942
H	-0.9932507239	 1.9230291484	 0.2539595391	 0.141135
H	-2.1083367412	-0.3079149529	 0.4156546705	 0.13284
H	-1.831764108	-3.9107180729	 0.2394636674	 0.228339
H	 2.1175421359	-0.1740870444	-0.4680494025	 0.134782
119.167	144.6832	191.3484	289.7925	370.8849	446.8214	489.5531	571.2931	598.8144	710.0613	721.4118	854.7527	875.7568	906.6737	925.9814	941.2236	986.6375	1043.7583	1068.8659	1096.5116	1193.0919	1286.8154	1356.0219	1374.0808	1415.861	1478.2262	1485.5289	1622.1946	1694.0303	1741.3725	3031.1133	3083.727	3130.5228	3171.9718	3209.7183	3481.8447
CC1=CC(=N)ON=C1	C[C]1C=C([NH])ON=C1	
InChI=1S/C5H6N2O/c1-4-2-5(6)8-7-3-4/h2-3,6H,1H3	InChI=1S/C5H6N2O/c1-4-2-5(6)8-7-3-4/h2-3,6H,1H3
