17
gdb 41059	3.24666	2.15949	1.90276	1.7339	73.48	-0.2257	0.0547	0.2804	796.3195	0.138063	-384.551711	-384.545929	-384.544985	-384.581354	25.479	
C	 0.022538632	 1.5129781442	-0.1739130041	-0.189323
O	 1.4408113833	 1.5035257927	 0.2035693977	-0.33527
C	 1.3134783791	 0.1335791642	 0.5872022361	 0.380021
C	 0.7782219902	-0.2867142883	 1.9883309321	-0.308684
C	-0.2755465695	-1.0396097215	 1.1329415485	-0.124721
C	 0.5493294188	-1.9709604236	 0.1782756747	-0.054927
C	 1.7449733041	-1.0807755199	-0.2253911861	-0.143546
C	 0.4556045945	-1.0783057832	-1.0343592397	-0.154119
C	-0.0905702346	-0.0135926616	-0.0466154149	 0.156549
H	-0.5784601066	 2.0937777307	 0.5364462489	 0.111968
H	-0.1187220657	 1.9164963166	-1.1815618235	 0.118446
H	 1.4190698318	-0.8662754214	 2.6574702095	 0.098528
H	 0.3563995143	 0.5704288553	 2.5194986505	 0.108584
H	-1.2193160737	-1.4178565684	 1.5289219721	 0.067344
H	 0.6225927098	-3.0491830019	 0.2063700288	 0.09409
H	 2.722909559	-1.4918494838	-0.4474511137	 0.086351
H	 0.2436153331	-1.3239312701	-2.066834787	 0.088709
252.3635	342.3971	389.0706	479.0967	551.8017	582.2264	702.7225	754.0853	786.6414	800.0735	805.5876	833.0003	857.1738	879.5424	918.1038	926.0601	961.4524	979.6466	997.5637	1004.6313	1040.1541	1055.3783	1080.4277	1108.5697	1121.6419	1153.678	1170.9724	1182.189	1214.8633	1226.845	1262.65	1273.9736	1289.446	1325.5716	1338.9404	1483.9456	1503.8358	3021.8704	3059.4007	3079.3624	3097.7987	3120.5942	3174.4322	3194.8231	3218.0765
C1OC23CC4C5C2C5C134	C1O[C@]23C[C@@H]4[C@@H]5[C@H]2[C@@H]5[C@]134	
InChI=1S/C8H8O/c1-3-4-5-6(4)8(1)7(3,5)2-9-8/h3-6H,1-2H2	InChI=1S/C8H8O/c1-3-4-5-6(4)8(1)7(3,5)2-9-8/h3-6H,1-2H2/t3-,4+,5-,6+,7-,8-/m1/s1
