23
gdb 108792	3.2482	0.9388	0.90327	1.3808	88.98	-0.2333	0.0211	0.2545	1469.7919	0.204292	-388.318082	-388.307845	-388.3069	-388.353324	38.466	
C	 0.29750403	 1.4657657859	-0.4005353622	-0.373051
C	-0.1871990012	 0.100804117	 0.1202535548	-0.288661
C	 0.6024225954	-0.4117272114	 1.2893282986	 0.338125
C	 0.1565513997	-0.6170995099	 2.5307278704	-0.240263
C	 1.2006728662	-1.2246305826	 3.4446814589	 0.368298
C	 1.2444017522	-0.6074359594	 4.8442899085	-0.434014
O	 1.0059873473	-2.6499122917	 3.5608389392	-0.474604
C	 2.5022281891	-1.0290637287	 2.6324525637	-0.234732
C	 2.0582278361	-0.820941308	 1.1673090777	-0.31255
H	 1.3380572415	 1.4219618054	-0.7366260977	 0.120459
H	-0.311594671	 1.795317476	-1.2477859142	 0.113651
H	 0.2310010589	 2.2276092232	 0.3825128367	 0.119568
H	-1.2445506979	 0.1724170311	 0.3988494145	 0.100023
H	-0.1292922574	-0.6293807593	-0.6994857274	 0.10416
H	-0.862566105	-0.4357439539	 2.8628309394	 0.074902
H	 0.2955256107	-0.7708580578	 5.3694838234	 0.099156
H	 2.0402240411	-1.0681098521	 5.4376367441	 0.120385
H	 1.418282172	 0.4723858001	 4.7979140335	 0.112531
H	 0.1101723781	-2.7960785903	 3.8834303683	 0.268575
H	 3.0241525166	-0.1373602333	 2.9922453136	 0.096477
H	 3.166368496	-1.885048433	 2.7701355699	 0.109557
H	 2.1380477482	-1.7436787811	 0.5764676138	 0.112236
H	 2.6697230333	-0.073199006	 0.6501382328	 0.099772
53.6125	91.8338	111.8409	200.1162	227.1142	237.2698	241.6781	296.0687	341.296	360.3291	433.6959	508.2359	510.9947	581.3754	609.9911	766.9439	791.9959	841.9998	874.6763	885.308	926.1206	934.882	959.4182	988.1417	1007.3391	1064.1288	1073.1906	1107.4112	1120.7059	1165.3584	1189.9384	1208.6835	1253.6924	1277.083	1303.5322	1324.1846	1348.9799	1356.018	1382.7579	1401.668	1407.4945	1471.5681	1480.3732	1488.6889	1489.7708	1492.7405	1498.3017	1507.9875	1712.8719	3007.8544	3018.225	3024.0971	3037.4429	3051.8591	3059.584	3065.4428	3090.0624	3108.3914	3109.864	3110.5777	3115.791	3161.387	3803.7361
CCC1=CC(C)(O)CC1	CCC1=C[C@@](C)(O)CC1	
InChI=1S/C8H14O/c1-3-7-4-5-8(2,9)6-7/h6,9H,3-5H2,1-2H3	InChI=1S/C8H14O/c1-3-7-4-5-8(2,9)6-7/h6,9H,3-5H2,1-2H3/t8-/m0/s1
