19
gdb 73935	2.71225	1.25658	0.92619	2.6495	80.64	-0.2255	0.0075	0.233	1278.8095	0.158328	-423.009199	-423.000196	-422.999252	-423.043849	32.091	
C	 0.1658484789	 1.5410776199	 0.1136854505	-0.503847
C	 0.0296879122	 0.0607470805	-0.0402995084	 0.153398
C	-1.066371692	-0.6975881107	-0.1471543068	 0.221824
C	-0.6666912783	-2.1484913515	-0.2615737884	-0.160217
O	 0.7565939863	-2.1546377403	-0.240142129	-0.266278
C	 1.2447000049	-0.8290575602	-0.0964654753	-0.137306
C	-2.4743858188	-0.2678782209	-0.130369929	-0.038024
C	-3.5227655282	-0.9131012222	-0.9464150571	-0.185719
O	-3.4240827421	-1.1849573082	 0.4471184231	-0.23315
H	 0.7626732926	 1.7876477216	 1.0006548786	 0.133641
H	 0.6884810416	 1.9800363563	-0.7457817867	 0.134373
H	-0.7997053786	 2.0432914051	 0.2069304178	 0.13066
H	-1.0645586918	-2.7470552574	 0.5703656601	 0.120771
H	-1.0215355813	-2.6150595752	-1.1943304452	 0.099246
H	 1.905770668	-0.5759794621	-0.942489246	 0.100428
H	 1.8548588682	-0.7445810719	 0.8189776854	 0.101476
H	-2.6484733168	 0.7700787628	 0.1507543802	 0.091382
H	-4.3889729572	-0.3273991771	-1.2527932289	 0.118392
H	-3.2654835776	-1.7390664887	-1.6069179849	 0.118949
51.2	88.0106	145.7616	159.4416	174.421	225.3832	278.6932	385.391	456.3979	569.2682	587.9548	648.5094	813.4736	831.8013	901.9148	936.0316	953.661	963.3848	988.93	1050.6156	1079.8412	1091.9025	1094.7185	1119.8299	1151.781	1167.9077	1173.7089	1214.6153	1224.186	1276.56	1303.3056	1381.1999	1391.1044	1418.2509	1423.3728	1478.1564	1489.7547	1516.9731	1524.311	1530.5887	1748.0226	2954.9298	2968.1618	2975.4044	3010.1512	3021.3152	3065.8507	3083.84	3113.6994	3121.5016	3172.5976
CC1=C(COC1)C1CO1	CC1=C(COC1)[C@H]1CO1	
InChI=1S/C7H10O2/c1-5-2-8-3-6(5)7-4-9-7/h7H,2-4H2,1H3	InChI=1S/C7H10O2/c1-5-2-8-3-6(5)7-4-9-7/h7H,2-4H2,1H3/t7-/m1/s1
