23
gdb 111057	3.23042	1.01614	0.9069	1.8751	86.28	-0.2288	0.0863	0.3151	1437.1364	0.204511	-388.236358	-388.226699	-388.225755	-388.271162	36.464	
C	-0.0606988586	 1.6712220621	-0.0146827298	-0.372364
C	 0.0648985147	 0.1589828082	 0.2134484711	-0.235864
C	-1.2761308175	-0.5541138662	 0.1087877302	 0.006048
C	-1.9823510569	-0.8832478464	-1.2370782348	 0.032337
C	-0.97315907	-2.0144127822	-1.5240778993	-0.278343
C	-1.4271593374	-2.1026224751	-0.0370414636	 0.405002
C	-1.210966109	-3.1849038716	 0.9803558872	-0.317287
C	-1.6319059958	-4.571116849	 0.4801403771	-0.381127
O	-2.8233173512	-1.8599821565	-0.5113071123	-0.348004
H	 0.9054463654	 2.1715703446	 0.1018670343	 0.112864
H	-0.4312967069	 1.8905349264	-1.0217231798	 0.117537
H	-0.7590199863	 2.1217501366	 0.6988722637	 0.118233
H	 0.792731493	-0.2558828393	-0.4918922337	 0.097391
H	 0.4767602197	-0.0224759001	 1.2149884291	 0.100449
H	-1.9938544771	-0.1613271026	 0.836852358	 0.074537
H	-2.4888323385	-0.2184728715	-1.9375382782	 0.087298
H	-1.355186222	-2.8086794504	-2.166563802	 0.104907
H	 0.0652342192	-1.7608467571	-1.7464906138	 0.092956
H	-0.1504266241	-3.1839549522	 1.2628552182	 0.104497
H	-1.7766240634	-2.9205767167	 1.8823944658	 0.110783
H	-1.512083377	-5.3230511238	 1.2653654942	 0.111028
H	-2.6793202383	-4.5631204957	 0.1668558035	 0.139856
H	-1.0277741222	-4.8823613615	-0.378089495	 0.117265
63.6027	76.113	130.4514	196.6581	207.4925	217.5014	286.6288	311.9834	350.8216	490.8393	557.8893	609.5513	622.5864	704.2572	751.4882	785.2835	840.7234	881.6526	899.5137	919.7699	964.9383	968.4117	998.0323	1021.104	1054.027	1067.9501	1099.7411	1124.065	1129.6915	1160.0365	1180.7963	1214.8364	1227.04	1251.9466	1284.9684	1289.0639	1317.7167	1342.1751	1379.7471	1408.611	1411.3229	1420.0258	1469.8719	1483.5004	1496.6136	1498.6434	1501.85	1507.7977	1510.5529	3022.6601	3025.6751	3032.7063	3041.7311	3052.873	3060.8832	3067.1318	3077.2232	3101.6145	3105.4503	3108.9628	3112.7532	3123.3629	3146.9332
CCC1C2CC1(CC)O2	CC[C@H]1[C@H]2C[C@]1(CC)O2	
InChI=1S/C8H14O/c1-3-6-7-5-8(6,4-2)9-7/h6-7H,3-5H2,1-2H3	InChI=1S/C8H14O/c1-3-6-7-5-8(6,4-2)9-7/h6-7H,3-5H2,1-2H3/t6-,7+,8-/m0/s1
