14
gdb 129888	5.51818	1.32086	1.06699	1.6617	71.22	-0.1875	0.0123	0.1998	1038.8966	0.105039	-429.072796	-429.065857	-429.064913	-429.10377	27.179	
N	 0.045149063	 1.3695678586	 0.1509297966	-0.592596
C	-0.0370377658	-0.0135831961	 0.0594251933	 0.305782
C	-1.1753469587	-0.7999345032	 0.0239691983	-0.257056
N	-0.6772612907	-2.1073646485	 0.0084393004	-0.015679
C	-0.9607746134	-3.4480724875	-0.0263080504	 0.010198
N	 0.1324807001	-4.1709503951	-0.0246144199	-0.216931
N	 1.1586746929	-3.2635845199	 0.0105352728	-0.366538
C	 0.6926199158	-1.9883593419	 0.0322620106	 0.521906
N	 1.1343108633	-0.7515532087	 0.0608200242	-0.451267
H	 0.9445755775	 1.7104490686	-0.1599100773	 0.253646
H	-0.7133373815	 1.8644376444	-0.2959050746	 0.245567
H	-2.2251178469	-0.5720110179	 0.0276031832	 0.121446
H	-1.9540106497	-3.8631079344	-0.0502790712	 0.154847
H	 2.1101928141	-3.5817483284	 0.024098354	 0.286674
158.9514	259.7299	277.2674	322.2025	337.2288	374.8773	535.3346	549.6173	583.0255	640.029	650.6069	731.6761	755.2431	804.0563	806.1378	873.6992	983.7071	1003.3356	1076.1859	1098.8189	1202.8678	1231.3841	1264.2081	1353.5763	1391.6097	1406.8562	1438.0106	1565.9477	1592.7735	1644.775	1672.8255	3289.6693	3300.7198	3558.3593	3659.2817	3712.1411
NC1=CN2C=NNC2=N1	Nc1cn2cn[nH]c2n1	
InChI=1S/C4H5N5/c5-3-1-9-2-6-8-4(9)7-3/h1-2H,5H2,(H,7,8)	InChI=1S/C4H5N5/c5-3-1-9-2-6-8-4(9)7-3/h1-2H,5H2,(H,7,8)
