16
gdb 42479	3.22554	0.91729	0.77764	6.541	72.12	-0.2722	-0.0446	0.2276	1428.1541	0.124947	-434.071802	-434.062944	-434.062	-434.106855	30.996	
O	 0.0390392068	-0.0514431913	 0.0884065852	-0.349902
C	 0.1907527663	 1.1449474497	-0.047570386	 0.349475
N	 1.3448738542	 1.8269525479	 0.1167714563	-0.326799
C	 2.593845583	 1.1802699486	 0.4700530971	-0.168606
C	 3.7617749487	 1.8967169591	-0.1848605959	-0.013965
C	 3.723398749	 2.3875208888	-1.5829794515	-0.227001
N	 3.558041423	 3.3264909897	-0.4573544785	-0.327634
H	 1.3842620445	 2.8297744629	-0.0180666452	 0.282764
H	 4.4045957557	 3.8623732682	-0.2950167428	 0.244538
C	-0.9380108245	 2.0214875686	-0.4343512537	 0.213775
N	-1.8410468356	 2.6752373072	-0.7376270957	-0.315842
H	 2.7290409376	 1.1856978071	 1.5606474475	 0.126051
H	 2.5414498568	 0.1346054465	 0.155076574	 0.153208
H	 4.7304716332	 1.5861167471	 0.199507867	 0.101175
H	 4.6538908406	 2.4038444667	-2.142775638	 0.126297
H	 2.8314881906	 2.2427995832	-2.1852705199	 0.132466
38.386	77.2801	99.8609	169.6782	226.5994	265.6057	332.95	362.4429	504.478	556.9147	614.1339	634.0953	771.4171	787.7431	818.9745	888.5796	933.7727	960.8263	991.2859	1054.2914	1075.5502	1126.8431	1138.6626	1189.8816	1235.962	1240.1512	1280.4309	1282.316	1389.1568	1431.421	1506.6972	1513.3196	1531.4084	1783.565	2350.6793	3011.3355	3100.7539	3118.9808	3139.7111	3206.1412	3528.7296	3574.5872
O=C([N-]CC1C[NH2+]1)C#N	O=C(NC[C@H]1CN1)C#N	
InChI=1S/C5H7N3O/c6-1-5(9)8-3-4-2-7-4/h4,7H,2-3H2,(H,8,9)	InChI=1S/C5H7N3O/c6-1-5(9)8-3-4-2-7-4/h4,7H,2-3H2,(H,8,9)/t4-/m1/s1
