12
gdb 130192	3.61502	1.67144	1.14465	3.0534	63.56	-0.226	-0.06	0.166	947.0194	0.079604	-464.937695	-464.930728	-464.929784	-464.968956	26.037	
N	-0.0459804117	 1.3993811602	 0.1657068166	-0.592601
C	 0.0473918968	 0.0210678779	 0.0435922711	 0.242125
N	-1.0340754709	-0.7608117825	 0.0096937154	-0.277305
N	-0.6096988612	-2.0614466851	-0.0248032258	-0.340843
C	 0.7421546683	-2.0930874457	-0.0236600773	 0.380164
C	 1.2024201067	-0.8004686479	 0.0212864504	 0.278075
O	 2.5369910373	-0.82493352	 0.0184549128	-0.25757
N	 2.8716893579	-2.2581659536	-0.0315819068	-0.024685
N	 1.809217485	-2.9384708133	-0.0528027785	-0.218077
H	 0.6456314056	 1.9055295537	-0.3702157946	 0.260393
H	-0.9803738871	 1.7350061149	-0.0288179503	 0.261101
H	-1.2859665167	-2.8027321986	-0.023541383	 0.289224
167.2126	192.8637	247.7254	273.2113	297.9207	455.8751	502.322	582.0625	638.0851	646.1401	653.4602	686.5754	720.926	772.3132	864.5045	993.3122	1054.8959	1175.0657	1184.4654	1304.9423	1362.2044	1413.1632	1451.6752	1534.1762	1596.497	1609.5027	1654.5181	3549.742	3648.8211	3708.0089
NC1=NNC2=C1ON=N2	Nc1n[nH]c2c1onn2	
InChI=1S/C3H3N5O/c4-2-1-3(6-5-2)7-8-9-1/h(H3,4,5,6)	InChI=1S/C3H3N5O/c4-2-1-3(6-5-2)7-8-9-1/h(H3,4,5,6)
