19
gdb 74293	2.66312	1.16316	1.10302	4.7757	82.87	-0.2462	-0.0024	0.2438	1233.8092	0.159659	-382.099293	-382.09009	-382.089146	-382.13315	34.446	
C	 0.008813932	 1.5366284812	 0.0676851589	-0.490499
C	 0.0432658677	 0.0428713846	 0.0164637255	 0.334122
C	-0.0467476232	-0.7308694764	-1.0666732919	-0.234567
C	 0.0157899651	-2.2190072664	-0.745146586	 0.117417
N	 0.9530964016	-3.0286277171	-1.541514438	-0.54499
C	 0.4456165747	-2.2119353556	 0.7576090876	-0.241343
C	 0.1472792516	-0.7908995767	 1.2771493288	-0.306962
C	-1.3267258843	-2.8130087589	-0.9114653059	 0.276878
N	-2.3903596947	-3.2452549661	-1.0466003789	-0.34285
H	 0.9179687885	 1.9350247163	 0.5352436959	 0.129942
H	-0.0875175855	 1.9767067794	-0.9279955812	 0.12918
H	-0.8330031092	 1.8857403063	 0.6787011059	 0.136319
H	-0.182757709	-0.3854037129	-2.0859242504	 0.096902
H	 0.630368864	-3.0904828455	-2.5035890691	 0.238485
H	 1.8468972117	-2.5437007916	-1.5658722994	 0.229706
H	-0.0399908208	-3.0039446355	 1.328991318	 0.127771
H	 1.5215082748	-2.407890383	 0.7783893473	 0.112927
H	 0.9205836549	-0.4223157966	 1.9610830293	 0.107656
H	-0.7988566101	-0.7506836953	 1.8334423937	 0.123907
71.2105	119.5231	177.6256	191.5173	220.2415	267.3784	289.2581	385.2517	396.3162	475.8883	492.9677	553.3274	608.0731	644.677	735.7347	830.8958	860.3815	878.3987	897.2487	947.2066	985.7393	1005.7042	1028.048	1065.7126	1104.2266	1129.0346	1168.8067	1222.0798	1244.9415	1279.3112	1313.2833	1339.7498	1362.3061	1413.865	1478.4255	1480.9308	1485.6481	1496.4317	1652.5883	1716.532	2350.8893	3019.3988	3023.5551	3053.5281	3069.3926	3071.3126	3117.3639	3128.8726	3190.7189	3478.0634	3562.7142
CC1=CC(N)(CC1)C#N	CC1=C[C@@](N)(CC1)C#N	
InChI=1S/C7H10N2/c1-6-2-3-7(9,4-6)5-8/h4H,2-3,9H2,1H3	InChI=1S/C7H10N2/c1-6-2-3-7(9,4-6)5-8/h4H,2-3,9H2,1H3/t7-/m0/s1
