16
gdb 53851	4.36656	0.7295	0.63226	4.2157	70.65	-0.2588	-0.1001	0.1587	1667.9635	0.120629	-437.936383	-437.926323	-437.925378	-437.973455	33.445	
C	 0.3280892261	 1.4458609507	 0.0657693967	-0.475829
C	 0.2260968796	-0.0570281455	 0.0643307841	 0.311893
O	 0.1961203986	-0.7463913319	 1.0562365182	-0.268569
C	 0.156540492	-0.7353286537	-1.3268960235	 0.267378
O	 0.1849467011	-0.0671681879	-2.3341270166	-0.279746
C	 0.05393307	-2.2460678779	-1.325127472	-0.297046
C	-0.0082144756	-2.8077186128	-2.75296047	-0.347263
C	-0.107354816	-4.2645425013	-2.7662667301	 0.257032
N	-0.1855696388	-5.4172684815	-2.7642129919	-0.299591
H	 1.2170213611	 1.7618327004	-0.4896439778	 0.160002
H	-0.5282808392	 1.8802460162	-0.460033708	 0.159998
H	 0.3702313685	 1.8106880672	 1.0919249459	 0.148141
H	 0.904732836	-2.6540624391	-0.7678342172	 0.164425
H	-0.8251286688	-2.5365356269	-0.7387997375	 0.164419
H	-0.8648392819	-2.3848508938	-3.2873962013	 0.167378
H	 0.8793122473	-2.5032593621	-3.3167400691	 0.167379
35.2426	62.8269	71.8226	97.1993	99.6647	213.7231	265.6641	332.8548	351.9136	394.9339	497.743	563.1868	582.0464	601.8013	769.4715	781.264	913.0702	966.3784	969.8968	1039.4971	1056.3145	1079.0333	1170.2238	1234.2219	1293.6867	1310.5622	1383.7516	1390.9358	1436.8161	1451.4827	1459.1777	1462.3524	1801.9489	1810.7607	2365.844	3049.7009	3055.6914	3065.3625	3082.7163	3104.1937	3110.383	3164.8386
CC(=O)C(=O)CCC#N	CC(=O)C(=O)CCC#N	
InChI=1S/C6H7NO2/c1-5(8)6(9)3-2-4-7/h2-3H2,1H3	InChI=1S/C6H7NO2/c1-5(8)6(9)3-2-4-7/h2-3H2,1H3
