21
gdb 115827	2.96602	1.25704	1.05146	0.5347	79.19	-0.2331	0.0905	0.3236	1236.586	0.182401	-424.219503	-424.210637	-424.209693	-424.25352	33.649	
C	-0.5952424412	 0.9840561051	-0.084037137	-0.240867
O	-0.1276501301	-0.343415143	-0.2270082764	-0.245867
C	 0.8770721048	-0.4852724559	-1.1986757893	 0.218382
C	 1.2682687255	-1.9608336451	-1.2542652478	-0.251458
C	 0.2001856807	-2.5224392345	-2.2080597637	-0.308274
C	-0.0287045405	-1.3501839599	-3.1512153081	 0.466917
C	 0.2031599867	-1.40811622	-4.6324351213	-0.330672
C	-1.200269219	-1.2250712675	-4.0712383094	-0.330318
O	 0.416740745	-0.1657274241	-2.4977960132	-0.299673
H	 0.2188828519	 1.6653815118	 0.2087417228	 0.102057
H	-1.0433799088	 1.355877878	-1.012758435	 0.123902
H	-1.3497979771	 0.9750175957	 0.705638737	 0.123201
H	 1.7032245637	 0.2078835686	-0.9833892785	 0.066618
H	 2.2689254247	-2.0541444083	-1.6862776301	 0.108029
H	 1.2637698217	-2.4172800844	-0.2639413674	 0.114016
H	 0.5195151432	-3.42490393	-2.7335970891	 0.103937
H	-0.7131257182	-2.7521976236	-1.6511144801	 0.119728
H	 0.6690474649	-0.5423787177	-5.0898666053	 0.12001
H	 0.4632619772	-2.3604864287	-5.0831236591	 0.109037
H	-1.9001416846	-2.0523124319	-4.1350021115	 0.111038
H	-1.6473958904	-0.2419854949	-4.1673756974	 0.120255
48.5294	110.466	137.5628	190.9412	274.1319	292.0776	320.2003	412.1427	436.3551	500.8391	576.9774	707.1837	763.0354	783.3853	859.7339	860.9949	895.9476	915.9973	941.2605	964.2269	976.6593	1013.9141	1045.2604	1068.0404	1071.2323	1104.4863	1134.74	1174.237	1180.702	1187.7527	1194.5984	1227.7892	1254.5373	1313.9225	1334.2036	1370.8945	1378.7536	1396.3896	1450.8299	1476.1039	1479.4757	1483.6975	1494.6117	1502.4846	1514.5057	2985.3754	3004.2799	3058.7722	3062.4894	3068.4757	3110.8116	3122.5025	3126.6156	3129.7472	3135.6463	3212.0027	3226.3791
COC1CCC2(CC2)O1	CO[C@H]1CCC2(CC2)O1	
InChI=1S/C7H12O2/c1-8-6-2-3-7(9-6)4-5-7/h6H,2-5H2,1H3	InChI=1S/C7H12O2/c1-8-6-2-3-7(9-6)4-5-7/h6H,2-5H2,1H3/t6-/m1/s1
