20
gdb 78854	3.33154	1.57421	1.38491	1.6731	81.15	-0.2184	0.0819	0.3003	1027.0582	0.171896	-365.968345	-365.960679	-365.959735	-365.999985	31.052	
C	-0.260540455	 1.4858681682	-0.0134753277	-0.398275
C	 0.0597105925	-0.0108265119	-0.0113641864	-0.006908
C	 1.0646451082	-0.4200347949	-1.0703897125	-0.056468
C	 2.4567846348	-0.3099736824	-0.5623339039	-0.04683
C	 2.3465025215	-0.3434449438	 0.9661921973	-0.169651
C	 0.8415994509	-0.498011931	 1.1959795466	-0.126247
C	 1.6806567259	-1.6888959793	 0.8230017517	 0.363697
C	 1.8117704889	-2.9911950846	 1.5402975574	-0.506324
N	 1.8116284804	-1.6579545716	-0.6969992764	-0.204548
H	 0.6507557817	 2.0770415215	 0.1226567417	 0.120506
H	-0.7251106764	 1.7906453229	-0.957116681	 0.113716
H	-0.953782836	 1.7412075532	 0.7944286689	 0.113395
H	-0.8664926862	-0.5890578763	-0.1246385601	 0.078595
H	 0.844757934	-0.3244492663	-2.128600438	 0.090179
H	 3.326454719	-0.0348331448	-1.14734509	 0.091488
H	 3.0536227209	 0.026182884	 1.6953491825	 0.088391
H	 0.456636594	-0.4147835392	 2.2055350779	 0.085105
H	 1.7962811527	-2.8397195528	 2.6243259484	 0.11701
H	 0.9861858437	-3.6633946553	 1.2784654753	 0.124704
H	 2.7482657944	-3.4934773755	 1.2770223282	 0.128465
151.982	193.2171	221.0701	228.9031	251.672	327.8303	501.094	579.954	611.772	700.9224	714.3122	760.2932	780.1344	841.0552	857.0614	886.1449	894.3346	909.6633	946.8049	965.7044	996.321	1005.3891	1034.2489	1053.8324	1062.5679	1113.494	1118.641	1123.9324	1151.2031	1197.8782	1217.762	1238.0107	1289.2401	1309.7615	1353.507	1380.848	1406.4317	1408.4827	1459.8163	1476.199	1496.383	1498.1816	1499.3143	3026.6546	3027.5756	3032.1718	3090.0987	3098.6528	3105.6841	3106.5554	3168.6927	3180.8241	3188.8272	3212.6309
CC1C2C3C4C1C4(C)N23	C[C@H]1[C@H]2[C@H]3[C@H]4[C@@H]1[C@@]4(C)N23	
InChI=1S/C8H11N/c1-3-4-5-7-6(3)9(7)8(4,5)2/h3-7H,1-2H3	InChI=1S/C8H11N/c1-3-4-5-7-6(3)9(7)8(4,5)2/h3-7H,1-2H3/t3-,4-,5-,6+,7-,8-,9?/m1/s1
