18
gdb 30317	3.06815	1.57598	1.1076	2.6251	78.95	-0.1987	0.0413	0.2401	1090.0461	0.150031	-401.980282	-401.972508	-401.971564	-402.012643	30.004	
C	 0.1035220367	 1.5691081822	-0.0923366892	-0.387231
C	-0.041470744	 0.0586562835	 0.091921197	 0.028225
O	 0.508637376	-0.6204376417	-1.0532251499	-0.296198
C	 1.4659473978	-1.638488193	-0.6927450059	-0.189132
C	 1.6040476268	-1.5081160238	 0.7904982486	 0.255531
C	 0.7390942108	-0.5424137647	 1.2148207781	 0.258768
N	 0.8353264969	-0.4261066872	 2.5719117073	-0.379937
C	 1.7810058094	-1.330425652	 3.0173004772	-0.073876
C	 2.278254083	-2.0218527313	 1.9312373807	-0.329694
H	 1.1595182106	 1.8471112384	-0.1477935317	 0.122576
H	-0.3919867115	 1.8826657196	-1.0153927155	 0.12662
H	-0.35992318	 2.1066511818	 0.743025461	 0.10045
H	-1.1155898021	-0.1866418119	 0.1588706978	 0.078886
H	 1.0843074514	-2.6206659468	-1.0104766293	 0.103027
H	 2.3958987323	-1.4524774309	-1.247975829	 0.106362
H	 0.3231844714	 0.2086300448	 3.1587237762	 0.26128
H	 2.0216399494	-1.4011997978	 4.0661945654	 0.118072
H	 3.0310975152	-2.7939929493	 1.9725464012	 0.09627
79.2023	142.186	224.1796	237.5393	290.632	436.5221	448.2742	462.5735	600.2886	623.6776	659.9537	694.9236	722.3045	786.4955	815.4096	858.0447	931.3278	992.8406	1026.5102	1045.3083	1077.0785	1080.348	1102.1304	1113.8468	1164.6971	1189.3502	1256.8956	1303.423	1331.2736	1370.8859	1393.5362	1399.1301	1456.8271	1481.0026	1489.1932	1494.0329	1526.7464	1536.3477	1617.1693	2941.8047	2983.1125	3010.8401	3033.1504	3105.11	3125.8405	3244.8342	3266.7753	3682.6095
CC1OCC2=C1NC=C2	C[C@H]1OCc2c1[nH]cc2	
InChI=1S/C7H9NO/c1-5-7-6(4-9-5)2-3-8-7/h2-3,5,8H,4H2,1H3	InChI=1S/C7H9NO/c1-5-7-6(4-9-5)2-3-8-7/h2-3,5,8H,4H2,1H3/t5-/m1/s1
