20
gdb 54758	2.59353	1.39331	1.1575	3.8907	80.33	-0.2323	-0.0218	0.2105	1163.131	0.16954	-403.089769	-403.08076	-403.079816	-403.123807	33.733	
C	-0.0574213009	 1.5141173315	-0.3845390193	-0.485802
C	 0.0811163117	 0.0698235845	 0.0711339372	 0.357449
O	 1.1567568363	-0.4128325708	 0.3448162241	-0.295775
C	-1.2257525793	-0.6940261125	 0.1419521392	-0.089765
N	-1.1985171921	-2.2143003159	 0.3537888409	-0.147963
C	-0.9189415953	-1.895820394	 1.8389187145	-0.212559
C	-2.0130752362	-0.8557713247	 1.4937102938	 0.287485
C	-2.6404332429	 0.2110881373	 2.3554686393	-0.520989
C	-2.67609841	-2.038871667	 0.7525915688	-0.20188
H	 0.8908616153	 2.0353594157	-0.2492750712	 0.144215
H	-0.3370613633	 1.5436085765	-1.4443830156	 0.146335
H	-0.8524206235	 2.0276007435	 0.1677845318	 0.136324
H	-1.8524982062	-0.4059203096	-0.7115103456	 0.076664
H	-1.2065339207	-2.7112999027	 2.5085558067	 0.096202
H	 0.0981496436	-1.5596390316	 2.0266246127	 0.136438
H	-1.8872175936	 0.9098827878	 2.7353525074	 0.126035
H	-3.3861050969	 0.7856450733	 1.7950092916	 0.121561
H	-3.1435252393	-0.2375941115	 3.2189718595	 0.127597
H	-3.3393279445	-1.8205726783	-0.0900186107	 0.097145
H	-3.0559280622	-2.8677186816	 1.3564117649	 0.101282
53.3352	115.3264	129.3767	191.5001	227.499	297.0438	307.2673	354.9569	446.3185	559.2353	583.5638	623.9661	645.2803	766.6579	795.7372	865.6337	901.1882	908.3469	921.9719	953.3354	999.5664	1007.6383	1039.9475	1053.8499	1092.7286	1131.0507	1169.9109	1189.1932	1199.0049	1204.6331	1207.3278	1256.754	1321.6879	1377.6541	1402.6817	1411.0759	1462.8483	1474.4697	1487.2962	1489.4745	1514.0999	1553.3165	1805.0345	3025.7835	3027.2857	3034.7462	3044.1811	3066.5837	3093.4112	3096.4625	3097.2962	3111.2625	3152.29	3171.1516
CC(=O)C1N2CC1(C)C2	CC(=O)[C@H]1N2C[C@]1(C)C2	
InChI=1S/C7H11NO/c1-5(9)6-7(2)3-8(6)4-7/h6H,3-4H2,1-2H3	InChI=1S/C7H11NO/c1-5(9)6-7(2)3-8(6)4-7/h6H,3-4H2,1-2H3/t6-/m1/s1
