17
gdb 96903	4.55693	0.98846	0.90027	3.0252	85.45	-0.241	-0.0031	0.2379	1315.6531	0.133972	-380.790475	-380.781754	-380.78081	-380.823821	32.677	
C	-0.0141051869	 1.3802250916	 0.0733040977	-0.335764
N	-0.0825818454	-0.060320536	-0.0861119683	-0.273824
C	 0.5462613561	-0.5920581903	-1.0278258954	 0.397989
C	 1.4118003866	-0.1705510521	-2.2209609535	-0.412285
C	 1.5031062467	-1.6733693829	-2.5248209873	 0.130273
C	 1.9688221194	-2.413889171	-1.3311419743	-0.264561
N	 0.5417031909	-2.0095038693	-1.3482127979	-0.184949
C	 1.3714319409	-2.2495709722	-3.8192216015	 0.220301
C	 1.2881425347	-2.7066392586	-4.9286850298	-0.393499
H	 0.6180265267	 1.8935415937	-0.666238537	 0.10648
H	-1.0259968838	 1.7961680859	 0.0131436133	 0.135515
H	 0.3642729112	 1.6127105407	 1.0748054748	 0.133514
H	 0.8419510306	 0.3794443893	-2.9733526622	 0.145965
H	 2.3532388618	 0.3508564847	-2.0278904341	 0.126802
H	 2.0964043239	-3.4862607133	-1.4312602405	 0.143574
H	 2.6422818404	-1.9314471723	-0.6259867437	 0.127064
H	 1.2042616662	-3.1200409777	-5.9033534802	 0.197405
78.4415	133.8448	145.8066	203.7664	229.0274	282.2804	387.0395	445.8701	515.797	529.9408	584.2368	587.5709	611.9265	658.2274	664.508	752.2178	831.3172	925.1485	959.2558	1002.1195	1060.62	1061.796	1110.7087	1126.3767	1133.0763	1152.3725	1197.6047	1220.2174	1246.2207	1356.645	1441.0294	1464.6901	1484.2638	1496.8863	1500.8584	1832.0307	2238.3986	2989.9469	3063.0336	3069.7839	3085.2061	3109.6282	3121.1767	3213.8259	3502.1713
CN=C1CC2(CN12)C#C	CN=C1C[C@]2(CN12)C#C	
InChI=1S/C7H8N2/c1-3-7-4-6(8-2)9(7)5-7/h1H,4-5H2,2H3	InChI=1S/C7H8N2/c1-3-7-4-6(8-2)9(7)5-7/h1H,4-5H2,2H3/t7-,9?/m0/s1
