23
gdb 114236	3.52144	0.89552	0.86658	1.475	87.11	-0.2194	0.0833	0.3027	1518.4403	0.204071	-388.272184	-388.262289	-388.261345	-388.307432	37.085	
C	 0.0999000621	 1.2695405031	 0.5441147952	-0.380683
C	-0.0407416046	-0.1815361247	 0.0762598687	-0.186627
C	-1.4670128172	-0.5311618082	-0.3089446087	 0.159554
C	-1.8220125688	-2.023008117	-0.5103587475	-0.396203
C	-2.7877502161	-1.791072535	 0.6452494813	 0.46234
C	-4.2143376776	-2.2114961827	 0.8047442076	-0.366463
C	-3.1517260244	-2.6580137287	 1.8058390238	-0.069574
C	-2.7115134848	-4.102516946	 1.8808585571	-0.406218
O	-2.3836528823	-0.4311691947	 0.817613899	-0.324369
H	 1.1255560651	 1.488959757	 0.8550620945	 0.110176
H	-0.1653825225	 1.9714747876	-0.2544038598	 0.112124
H	-0.5637012637	 1.4602963708	 1.3922937746	 0.137302
H	 0.6061522559	-0.36990775	-0.7913282139	 0.093621
H	 0.2845730141	-0.8649312989	 0.8705584364	 0.097461
H	-1.8096703393	 0.1175044183	-1.1273150047	 0.072544
H	-2.2764070303	-2.2800035214	-1.4688995135	 0.108589
H	-1.0014421845	-2.7142803139	-0.3002515487	 0.107245
H	-4.9229258159	-1.4541614059	 1.1229777469	 0.118975
H	-4.6149129282	-2.9502803693	 0.1157842807	 0.10634
H	-3.1791621185	-2.1313975804	 2.7570118189	 0.093804
H	-2.6696885253	-4.5565320815	 0.8848113684	 0.113906
H	-1.7159236388	-4.1955376231	 2.329378795	 0.117056
H	-3.4059788545	-4.6985175355	 2.4833316387	 0.1191
36.7392	98.1049	147.2069	183.407	188.8797	232.3883	246.9042	336.5237	375.2076	412.0332	439.1892	496.2343	568.2185	757.8996	783.3241	807.3342	858.2699	876.6182	899.9536	924.4251	952.7041	978.8618	993.3997	1004.8059	1027.9433	1076.7557	1107.8053	1114.9977	1119.482	1143.1596	1175.8987	1197.3974	1210.602	1243.8536	1280.2042	1306.3303	1335.3133	1351.3398	1397.5525	1407.803	1413.5033	1424.3955	1474.6994	1480.4778	1491.8975	1497.6381	1499.0432	1507.4722	1509.5539	3001.7437	3016.9081	3024.4383	3035.8359	3057.539	3063.5044	3086.8772	3091.0907	3102.3018	3116.6751	3118.6248	3118.848	3139.2156	3209.6649
CCC1CC2(CC2C)O1	CC[C@H]1C[C@]2(C[C@H]2C)O1	
InChI=1S/C8H14O/c1-3-7-5-8(9-7)4-6(8)2/h6-7H,3-5H2,1-2H3	InChI=1S/C8H14O/c1-3-7-5-8(9-7)4-6(8)2/h6-7H,3-5H2,1-2H3/t6-,7+,8+/m1/s1
