19
gdb 124571	4.14224	0.91081	0.8688	1.9156	76.72	-0.2835	-0.0241	0.2594	1404.0076	0.160043	-415.38997	-415.38097	-415.380025	-415.425153	32.289	
C	 0.1588441176	 1.531637295	-0.0083495414	-0.38378
C	 0.0139538302	 0.0053671242	 0.0285031163	 0.043192
C	 0.711034409	-0.5867297574	 1.2590575095	-0.394257
C	-1.4706069903	-0.4296752365	-0.0017314577	-0.291324
C	-2.1750102957	-0.0648796264	-1.265292264	 0.385924
N	-3.1313074245	 0.8558294768	-1.3605775051	-0.261962
N	-3.4101499996	 0.8041393813	-2.657277181	-0.071316
N	-2.6969853594	-0.074510573	-3.3442939144	-0.100645
N	-1.9039415748	-0.6373970142	-2.4718597082	-0.251639
H	 1.214073245	 1.8217116822	-0.0318971262	 0.113547
H	-0.3274059674	 1.9651172916	-0.8872463622	 0.119526
H	-0.2928961979	 1.9883207971	 0.8804963974	 0.113134
H	 0.4888109175	-0.4086222972	-0.8701137473	 0.098614
H	 0.2558863666	-0.2148804914	 2.1849849753	 0.112985
H	 0.6462635303	-1.6797788083	 1.2699846571	 0.113343
H	 1.7706359045	-0.3127309296	 1.2782730103	 0.113938
H	-1.5236902019	-1.5175428845	 0.1183625881	 0.122355
H	-2.0095674126	 0.0202653684	 0.8385877199	 0.118326
H	-4.1150126866	 1.382193752	-3.0896979665	 0.300038
25.5837	67.6425	113.0037	219.2176	244.5961	295.3721	318.4991	353.3399	411.9531	432.5174	574.6204	718.5538	739.2724	798.9193	837.0533	890.9695	931.3118	956.4949	968.3422	1032.896	1067.1122	1107.4581	1128.0171	1139.1648	1190.8906	1192.0007	1237.7402	1275.1879	1312.6518	1355.224	1371.0053	1376.5882	1401.2545	1422.2009	1464.6826	1480.9555	1485.9324	1493.1854	1504.45	1507.7986	1543.3341	3024.0481	3025.7409	3030.8558	3043.604	3088.6121	3090.5435	3098.7797	3102.5675	3108.7573	3650.3896
CC(C)CC1=NNN=N1	CC(C)Cc1n[nH]nn1	
InChI=1S/C5H10N4/c1-4(2)3-5-6-8-9-7-5/h4H,3H2,1-2H3,(H,6,7,8,9)	InChI=1S/C5H10N4/c1-4(2)3-5-6-8-9-7-5/h4H,3H2,1-2H3,(H,6,7,8,9)
