20
gdb 101213	4.13241	0.87133	0.85951	2.5831	77.19	-0.2649	0.0253	0.2902	1448.5958	0.169911	-440.292008	-440.282536	-440.281592	-440.326729	34.993	
C	-0.2604194997	 1.5572631651	 0.1138588471	-0.383601
C	-0.0020705214	 0.0500915422	 0.0619761217	-0.19364
C	 0.6392602065	-0.4004293313	-1.2580847017	 0.109888
O	 1.8605362491	 0.2763857387	-1.5185306269	-0.434922
C	 0.8469023834	-1.9097988883	-1.3018611931	 0.109976
C	 1.6683766257	-2.5018350254	-2.4660520489	-0.379934
C	 2.6433938292	-2.8959934555	-1.3796290598	 0.43646
N	 3.7279925606	-3.5204471494	-1.3386500999	-0.535499
O	 1.9053133285	-2.3171727302	-0.3577771917	-0.28486
H	 0.6655409537	 2.1128085711	-0.0543839543	 0.131163
H	-0.9745000621	 1.8611501144	-0.6596651527	 0.11434
H	-0.6710437844	 1.8534877435	 1.0833815895	 0.113089
H	 0.6565256536	-0.2531782151	 0.8864829528	 0.108621
H	-0.941570104	-0.4999336756	 0.2016059704	 0.096474
H	-0.0234333892	-0.1334022704	-2.0927635866	 0.093918
H	 2.4806789015	 0.0020570927	-0.8315621453	 0.290042
H	-0.0783511757	-2.4457819551	-1.0697516005	 0.093104
H	 1.2181939509	-3.3324275369	-3.0105044647	 0.134889
H	 2.0619121682	-1.7584852209	-3.1601708663	 0.152853
H	 4.0837643658	-3.5877105236	-0.3835073989	 0.227639
71.0975	73.0775	114.655	172.4371	218.3709	268.7532	294.0689	352.1361	411.0143	452.911	491.0582	509.7195	659.0684	717.7002	780.7162	816.4425	868.306	895.144	922.4952	971.374	977.6659	1010.6137	1014.6754	1058.501	1073.9466	1103.9808	1130.478	1166.1188	1217.4013	1240.6836	1258.022	1275.1684	1330.3152	1337.7216	1374.7268	1392.5675	1410.1681	1424.2882	1451.9963	1485.4511	1497.3204	1509.3142	1828.6298	3018.8862	3026.3165	3038.6983	3057.0169	3070.1601	3095.1274	3104.5877	3125.4616	3154.8152	3476.0272	3784.717
CCC(O)C1CC(=N)O1	CC[C@@H](O)[C@H]1C[C]([NH])O1	
InChI=1S/C6H11NO2/c1-2-4(8)5-3-6(7)9-5/h4-5,7-8H,2-3H2,1H3	InChI=1S/C6H11NO2/c1-2-4(8)5-3-6(7)9-5/h4-5,7-8H,2-3H2,1H3/t4-,5-/m1/s1
