14
gdb 48067	2.15453	1.70951	1.17956	2.5262	64.57	-0.2586	-0.0988	0.1598	1034.6737	0.097657	-473.809155	-473.80028	-473.799336	-473.843799	30.167	
O	-0.6920569518	 1.2336430328	 0.4401189835	-0.224035
C	 0.4731415421	 1.0277396043	 0.6454885506	 0.100447
C	 1.5635744914	 1.9534746543	 0.0935115443	 0.244854
O	 2.5493030314	 1.430464399	-0.3785799694	-0.294111
C	 1.2798265261	 3.4257679869	-0.0136751761	 0.116199
C	 2.4281815317	 4.279581475	-0.4903630772	-0.250404
N	 1.3065353383	 4.0299299531	-1.3698807012	-0.329605
C	 0.3358551972	 4.0439100474	 0.964426401	 0.115003
O	 0.1675990451	 3.6032946924	 2.0733231281	-0.264574
H	 0.865460557	 0.1038659074	 1.114917309	 0.119274
H	 2.5056914161	 5.2951958912	-0.1130483992	 0.143294
H	 3.362140289	 3.7489631783	-0.6501667729	 0.158017
H	 1.5455082659	 3.3085083081	-2.0482735035	 0.258299
H	-0.1552677598	 4.9697736998	 0.5993278029	 0.107343
38.9603	89.9429	149.3113	156.1115	181.7214	270.3919	298.6579	331.5543	440.1829	482.2394	584.7941	682.7117	734.5043	809.8585	923.0528	931.5042	985.6968	1001.514	1043.6817	1101.6689	1124.4549	1165.7801	1271.6217	1322.9063	1353.4569	1377.42	1406.6561	1490.4917	1777.9601	1812.3802	1827.2596	2926.3047	2946.3485	3116.726	3215.979	3492.5279
O=CC(=O)C1(CN1)C=O	O=CC(=O)[C@]1(CN1)C=O	
InChI=1S/C5H5NO3/c7-1-4(9)5(3-8)2-6-5/h1,3,6H,2H2	InChI=1S/C5H5NO3/c7-1-4(9)5(3-8)2-6-5/h1,3,6H,2H2/t5-/m0/s1
