17
gdb 17411	4.2896	1.62827	1.57579	2.5207	68.58	-0.2285	0.0858	0.3142	885.6098	0.14151	-363.781906	-363.77471	-363.773766	-363.813117	27.798	
C	-0.1844248831	 1.4159455121	-0.0292154225	-0.314957
N	 0.0317342756	-0.0217118698	 0.0499817292	-0.123702
C	 1.4016109778	-0.503630681	-0.1442011717	-0.32516
C	 0.7543570591	-0.533385688	 1.1914319475	 0.372931
C	 1.2701872401	 0.1821940106	 2.4772738452	-0.351367
C	 0.8489783162	-1.0846930011	 3.243718531	 0.035284
O	-0.5556367456	-1.2489050592	 3.0386198847	-0.244274
C	 0.338328468	-1.7319693612	 2.0218877971	-0.06563
H	 0.6574232919	 2.0143545893	 0.3565634781	 0.099551
H	-0.3506740703	 1.6950998588	-1.0743007437	 0.124039
H	-1.0811085172	 1.6759010689	 0.5415462878	 0.13161
H	 1.5071031115	-1.4068736512	-0.7406268433	 0.115813
H	 2.1914845663	 0.23355742	-0.2905143276	 0.105398
H	 2.3482046453	 0.3602560523	 2.4655522435	 0.111408
H	 0.7463164075	 1.0900174055	 2.7858959408	 0.11651
H	 1.2836293003	-1.5158775665	 4.1370549397	 0.107236
H	 0.2564436566	-2.7746259994	 1.7388103441	 0.10531
115.2756	180.7453	225.0373	245.9981	376.5454	414.3485	454.405	513.5764	593.7416	781.7011	798.5482	846.7197	865.2876	882.8249	896.078	947.9214	972.2041	1022.6601	1046.0862	1063.6098	1111.6121	1126.0217	1149.7893	1167.3966	1196.4822	1208.4465	1219.0092	1235.6706	1266.556	1371.1678	1423.6278	1449.8309	1470.2693	1493.7615	1495.7985	1516.3506	2968.3786	3065.3473	3070.3132	3080.1689	3107.5899	3122.1119	3167.2604	3187.2245	3202.3268
CN1CC11CC2OC12	CN1C[C@]21C[C@H]1O[C@@H]21	
InChI=1S/C6H9NO/c1-7-3-6(7)2-4-5(6)8-4/h4-5H,2-3H2,1H3	InChI=1S/C6H9NO/c1-7-3-6(7)2-4-5(6)8-4/h4-5H,2-3H2,1H3/t4-,5-,6-,7?/m1/s1
