20
gdb 68455	2.37306	1.90822	1.29193	2.5623	78.07	-0.2159	-0.0088	0.2072	1031.7698	0.172449	-403.158107	-403.149951	-403.149007	-403.19067	32.187	
C	-0.0766456771	 1.5206467646	 0.1230268155	-0.47948
C	 0.0172866095	 0.0131317962	 0.0130383798	 0.200965
C	 1.105634333	-0.6434931157	-0.9087447491	-0.271379
C	 1.1060147636	-1.8364580817	 0.0930311071	 0.007534
C	 0.6398233122	-0.8342872627	 1.1747316616	-0.260786
N	 0.04403846	-2.8052254681	-0.1704579229	-0.297602
C	-1.2865544035	-2.1868643258	-0.3086405408	-0.277184
C	-1.3007238969	-0.6488139332	-0.3548127164	 0.375545
O	-2.3064359497	-0.0397021667	-0.6320759789	-0.333622
H	 0.9021326891	 1.9490893523	 0.3611316801	 0.104417
H	-0.4312886643	 1.9595007062	-0.8139320859	 0.131011
H	-0.7829695345	 1.8152570367	 0.9053018156	 0.126767
H	 0.8507127302	-0.8497885033	-1.9530612764	 0.094975
H	 2.0316332425	-0.0613903202	-0.870419101	 0.103489
H	 2.0438769101	-2.3730667011	 0.2522085053	 0.072832
H	 1.4837230797	-0.3019166504	 1.6200890957	 0.10748
H	-0.0150336861	-1.2061957537	 1.9671185011	 0.107661
H	 0.2690380818	-3.3125244503	-1.0186517368	 0.220093
H	-1.8066103751	-2.5536175774	-1.1983037239	 0.130175
H	-1.9252637446	-2.4631884756	 0.54327109	 0.137109
68.0158	165.4379	194.8349	268.0932	303.3643	386.7815	404.4299	418.8771	500.7477	542.7715	596.2452	663.7268	750.32	781.0852	833.1987	857.2765	868.578	918.2609	942.4859	972.8646	1011.0302	1034.6741	1071.3693	1073.9232	1111.0919	1118.1455	1185.616	1213.0592	1226.5651	1249.5525	1258.6802	1265.2635	1320.127	1343.6241	1384.135	1411.7589	1468.7986	1471.8817	1475.9363	1482.9465	1487.7909	1507.6559	1814.5301	3000.5929	3037.3364	3040.5714	3059.3998	3082.3612	3083.6072	3097.6651	3107.4938	3114.4365	3117.4483	3529.9721
CC12CC(C1)NCC2=O	C[C@@]12C[C@@H](C1)NCC2=O	
InChI=1S/C7H11NO/c1-7-2-5(3-7)8-4-6(7)9/h5,8H,2-4H2,1H3	InChI=1S/C7H11NO/c1-7-2-5(3-7)8-4-6(7)9/h5,8H,2-4H2,1H3/t5-,7+
