17
gdb 109048	2.91265	1.31731	1.02368	1.1724	68.67	-0.2485	-0.0115	0.2371	1152.5718	0.135789	-458.934533	-458.926316	-458.925371	-458.967491	31.136	
O	 0.1578114168	 1.3851761041	 0.0062970684	-0.408731
C	 0.0171606215	-0.0146478213	 0.1668582624	-0.164761
C	-1.401776457	-0.4923274945	 0.1611338521	 0.225964
C	-2.5129897408	 0.2505678362	 0.1349284	-0.200473
C	-3.7189349394	-0.6229145982	 0.009056445	 0.006533
O	-3.7278601113	-1.4173736683	-1.2144054442	-0.273047
C	-3.2509719668	-2.0099988389	 0.001478932	-0.005306
C	-1.7199102205	-1.9893385831	 0.0662087773	 0.017946
O	-1.1228470402	-2.5975168047	-1.0690340552	-0.430644
H	-0.1851258287	 1.6109023667	-0.8648543976	 0.284579
H	 0.5794563704	-0.5798714583	-0.5932585256	 0.118042
H	 0.4847659705	-0.2537794739	 1.1316316084	 0.12639
H	-2.5493974096	 1.3320255192	 0.1655382963	 0.110062
H	-4.7012632832	-0.3213239004	 0.3570996742	 0.104932
H	-3.8199219428	-2.857841277	 0.3710048636	 0.104668
H	-1.345706617	-2.5418194114	 0.9361507638	 0.093357
H	-1.6216267918	-2.2626028262	-1.827018171	 0.290488
90.3955	120.2907	183.8366	218.3913	279.9221	317.2247	395.8884	475.877	495.2615	570.677	572.7077	705.8096	733.8759	799.6182	851.5408	879.2625	894.3945	912.8486	986.5634	998.1055	1050.8202	1073.7641	1081.1664	1111.5838	1165.0788	1206.9287	1244.0017	1266.0418	1267.0511	1304.7947	1322.8105	1389.2829	1412.0126	1420.1358	1430.6732	1487.9081	1699.4056	2986.6152	3035.0591	3046.8717	3158.7073	3177.1354	3217.1234	3755.9327	3811.1643
OCC1=CC2OC2C1O	OCC1=C[C@H]2O[C@H]2[C@H]1O	
InChI=1S/C6H8O3/c7-2-3-1-4-6(9-4)5(3)8/h1,4-8H,2H2	InChI=1S/C6H8O3/c7-2-3-1-4-6(9-4)5(3)8/h1,4-8H,2H2/t4-,5+,6-/m1/s1
