20
gdb 102606	2.43018	1.02155	0.90716	2.3368	72.79	-0.2385	0.0364	0.2749	1397.5066	0.169492	-477.451928	-477.441294	-477.44035	-477.488637	37.332	
C	-0.1486088072	 1.482216527	-0.0141417969	-0.480823
C	 0.0191556743	-0.027353688	-0.0918397863	 0.412366
O	 1.1095133545	-0.5538782198	-0.2520578712	-0.39209
N	-1.1260250366	-0.7503710012	 0.0381214796	-0.304524
C	-1.1425938177	-2.2004767279	-0.0378617576	 0.012174
C	-2.4058696235	-2.703392833	 0.6795700642	-0.089179
O	-3.5737987554	-2.0337073623	 0.2340177344	-0.428684
C	-1.050965454	-2.7078295298	-1.4813276949	-0.097243
O	-2.2504562227	-2.3428115917	-2.1708259243	-0.429754
H	 0.4891882173	 1.8651485442	 0.7867517544	 0.150762
H	 0.2032664945	 1.9251343965	-0.9499304468	 0.148473
H	-1.1786250968	 1.7996375178	 0.1661504134	 0.114916
H	-2.0278565802	-0.3034114835	 0.0933979677	 0.252986
H	-0.2526104012	-2.5751948098	 0.4795629771	 0.10969
H	-2.4852813112	-3.7937473254	 0.5507769027	 0.092404
H	-2.3244251455	-2.4990516379	 1.7517226092	 0.115016
H	-3.6031632873	-2.165958156	-0.7244454935	 0.294849
H	-0.1692096519	-2.2648608068	-1.9586761237	 0.128183
H	-0.9280310011	-3.8013516929	-1.4667793231	 0.092861
H	-2.1965665387	-2.6576623094	-3.0771321443	 0.297619
50.2048	60.9296	85.1417	126.4499	146.9803	202.9938	242.1281	273.077	293.8595	337.0323	441.2138	486.0076	514.4515	607.8225	625.8319	663.2853	752.8524	820.2651	927.3386	955.5548	984.4561	988.4952	1036.7817	1052.9793	1081.4437	1125.8625	1157.6845	1206.9574	1236.5654	1249.391	1279.6658	1332.8467	1383.607	1391.4236	1398.7098	1442.9235	1463.293	1471.8628	1484.0586	1499.5488	1522.4615	1525.5242	1763.8685	2986.4557	2994.1663	3050.5947	3061.7101	3062.6962	3080.667	3126.1917	3132.1041	3631.8899	3735.4011	3842.7539
CC(=O)NC(CO)CO	CC(=O)NC(CO)CO	
InChI=1S/C5H11NO3/c1-4(9)6-5(2-7)3-8/h5,7-8H,2-3H2,1H3,(H,6,9)	InChI=1S/C5H11NO3/c1-4(9)6-5(2-7)3-8/h5,7-8H,2-3H2,1H3,(H,6,9)
