22
gdb 6838	3.01471	1.42292	1.25776	1.2682	78.14	-0.2505	0.0763	0.3268	1119.8219	0.198832	-350.206833	-350.197495	-350.196551	-350.240206	35.574	
C	 0.0328052224	 1.6038270788	 0.0247702788	-0.380931
C	-0.0948628909	 0.0765618117	-0.0144854434	-0.209842
C	 0.661623753	-0.5464739199	-1.180285713	 0.042344
C	 2.216573658	-0.5495400834	-1.1970099133	-0.241977
C	 2.1699237132	-1.9446355731	-1.8744352771	-0.27673
C	 0.6927456616	-2.0891604552	-1.3917182677	 0.384638
C	 0.556111686	-2.9292367489	-0.1250885874	-0.446886
O	-0.2619925938	-2.4858907121	-2.3615447779	-0.479521
H	 1.079631185	 1.912865082	 0.117922856	 0.116665
H	-0.3642909645	 2.0565812835	-0.8905160862	 0.114965
H	-0.5153324115	 2.0280390441	 0.8718322765	 0.109276
H	 0.2706386846	-0.3411316502	 0.9323578043	 0.088436
H	-1.1551521229	-0.1992390995	-0.0851289865	 0.10116
H	 0.2967422514	-0.1182231279	-2.1214910134	 0.080032
H	 2.7176882814	 0.2550340243	-1.7385916887	 0.09786
H	 2.634234622	-0.5963360008	-0.1858280573	 0.095601
H	 2.1997403619	-1.8702853871	-2.9643181539	 0.103891
H	 2.8886630936	-2.7001871213	-1.5441813304	 0.085563
H	 1.2685106778	-2.6231022933	 0.6470539179	 0.119265
H	-0.4547241967	-2.8542312764	 0.2864245226	 0.123608
H	 0.7574323811	-3.9845444552	-0.3507679165	 0.101957
H	-0.2439439926	-3.4468413	-2.4289105233	 0.270627
95.2788	124.8526	164.2475	224.5425	265.7767	268.7786	276.4702	300.2867	352.1895	395.9897	473.4672	517.8415	604.2575	736.0336	768.7581	811.7801	886.5789	896.5877	938.1152	949.1437	959.4862	983.7362	1012.3132	1065.2054	1097.6732	1146.5395	1163.7294	1188.239	1203.6448	1216.639	1246.8422	1268.9958	1289.8926	1309.8632	1342.7782	1369.4263	1400.6084	1407.3397	1413.3986	1477.3202	1484.2352	1492.521	1497.1982	1500.7754	1501.0369	1508.5171	3016.0209	3020.7476	3030.0115	3035.0472	3048.292	3054.6052	3055.2248	3086.5464	3097.8419	3100.9572	3103.2609	3112.9847	3119.3228	3797.2763
CCC1CCC1(C)O	CC[C@H]1CC[C@]1(C)O	
InChI=1S/C7H14O/c1-3-6-4-5-7(6,2)8/h6,8H,3-5H2,1-2H3	InChI=1S/C7H14O/c1-3-6-4-5-7(6,2)8/h6,8H,3-5H2,1-2H3/t6-,7-/m0/s1
