17
gdb 43726	4.43739	1.12195	1.08027	4.2648	73.08	-0.2566	0.0093	0.2658	1141.6245	0.136641	-421.871568	-421.864156	-421.863212	-421.903797	28.796	
O	 0.6691208544	 0.315577627	-0.6712560042	-0.320105
C	 0.2347906765	 1.2709316052	-0.1122463916	 0.442165
C	-1.1277418385	 1.8996950233	 0.1679418721	-0.49603
C	-0.3110538615	 2.9777817559	 0.9052383022	 0.429783
C	-0.2609831075	 4.4133717413	 0.3511908278	-0.317667
C	 0.1011621307	 5.2404692104	 1.560435885	-0.060628
C	 0.0092450942	 4.5385670401	 2.6885830879	-0.060628
C	-0.4306656574	 3.1176228705	 2.4338100666	-0.317667
O	 0.9332802799	 2.2436762901	 0.5498805518	-0.271576
H	-1.6635550871	 2.226399292	-0.725261391	 0.140729
H	-1.7866425728	 1.2864319222	 0.7855194166	 0.140729
H	 0.4629776917	 4.4825965736	-0.4674965793	 0.129194
H	-1.2363026856	 4.7110575193	-0.0584097352	 0.115122
H	 0.3745134904	 6.2866040063	 1.4894385112	 0.101133
H	 0.1955931791	 4.9203200246	 3.6854274275	 0.101133
H	-1.4662380345	 2.9551998527	 2.7637286896	 0.115122
H	 0.1856449381	 2.3647977555	 2.9363795031	 0.129194
80.5557	95.9405	271.3158	336.6047	372.0917	425.9762	445.3365	525.0846	539.2152	682.5595	753.4204	785.6472	815.3511	839.6902	884.0486	941.1624	959.5512	969.4585	978.4703	983.1807	1033.2662	1081.6679	1121.6005	1141.1368	1162.4858	1163.9559	1233.3257	1235.1447	1269.2905	1296.8712	1357.7228	1368.2033	1456.8211	1464.0703	1472.3477	1687.5495	1937.1043	3013.9361	3015.4047	3073.4826	3073.9138	3083.6863	3139.8727	3193.2292	3217.5375
O=C1CC2(CC=CC2)O1	O=C1C[C@]2(CC=CC2)O1	
InChI=1S/C7H8O2/c8-6-5-7(9-6)3-1-2-4-7/h1-2H,3-5H2	InChI=1S/C7H8O2/c8-6-5-7(9-6)3-1-2-4-7/h1-2H,3-5H2
