22
gdb 122831	3.96981	0.6219	0.58874	1.4496	80.27	-0.2237	0.0153	0.239	1998.861	0.192387	-441.512913	-441.501747	-441.500803	-441.550878	38.12	
C	-0.7957658908	 0.9627041007	 0.6548039046	-0.380184
C	 0.2746883533	-0.0072771002	 0.1490249968	-0.177355
C	 0.8259703437	-0.9075876191	 1.2534746392	-0.111621
N	 1.8789960237	-1.7836516361	 0.7347042951	-0.276356
C	 2.4325607501	-2.6845377337	 1.721741079	-0.292334
C	 1.5079591583	-3.8340192757	 2.1248465858	 0.432343
O	 0.5168043304	-4.1626045024	 1.5210656273	-0.363222
O	 1.962963329	-4.46372435	 3.2239246682	-0.226418
C	 1.1945293497	-5.5980773974	 3.6485479665	-0.23878
H	-0.3951612237	 1.6279306713	 1.4279234954	 0.113739
H	-1.1775178275	 1.589694677	-0.1565002496	 0.113322
H	-1.6464514519	 0.425950678	 1.088872368	 0.116866
H	-0.1478622054	-0.6361571876	-0.6464203753	 0.09583
H	 1.1073911448	 0.5441306131	-0.3025817072	 0.10553
H	 1.2702630976	-0.285789345	 2.0431144941	 0.09499
H	-0.0043663737	-1.4675189586	 1.7178291074	 0.091457
H	 1.4906034233	-2.3411293866	-0.021302562	 0.22287
H	 3.3542770459	-3.1428097952	 1.3379376569	 0.131352
H	 2.7225417983	-2.1302615471	 2.6204118388	 0.131603
H	 1.6986706979	-5.9844860423	 4.534282453	 0.134143
H	 0.1709386641	-5.3005893134	 3.8896028364	 0.141514
H	 1.1630183231	-6.3578822399	 2.8635397016	 0.140712
40.4164	59.9469	68.6809	112.7301	140.0502	158.674	203.2931	216.7109	234.6938	303.6048	356.0234	399.7453	522.6365	579.6019	684.9195	762.0325	790.7665	888.1496	897.7507	912.0504	967.8845	1012.0611	1045.0775	1072.4452	1144.1895	1157.9972	1178.013	1192.2522	1206.8017	1226.9536	1257.198	1295.301	1326.5728	1340.5272	1369.251	1411.253	1418.1908	1454.1636	1472.4311	1481.9143	1490.7655	1496.9367	1499.0235	1504.813	1514.9304	1519.2492	1815.6906	2954.5918	3014.2139	3022.8982	3025.676	3031.5684	3052.1982	3063.3107	3083.182	3097.4193	3104.8995	3126.8489	3159.6547	3507.3805
CCCNCC(=O)OC	CCCNCC(=O)OC	
InChI=1S/C6H13NO2/c1-3-4-7-5-6(8)9-2/h7H,3-5H2,1-2H3	InChI=1S/C6H13NO2/c1-3-4-7-5-6(8)9-2/h7H,3-5H2,1-2H3
