17
gdb 81751	3.29144	1.24216	1.07443	3.9574	74.74	-0.2623	0.0046	0.2669	1143.2141	0.136202	-417.978276	-417.96981	-417.968866	-418.011276	31.808	
C	-0.1657949206	 1.5663134569	-0.0311861455	-0.410174
C	-0.0008089833	 0.0550809477	-0.0159556414	-0.024394
C	 0.7309850842	-0.6163815353	-1.1830708473	-0.117235
N	 2.1290904488	-0.1519953603	-1.1392714452	-0.378707
C	 1.7090454235	-1.2813844224	-0.2597029384	 0.222762
C	 2.3184885165	-2.5647845167	-0.342624967	 0.149315
N	 2.8051523144	-3.6143560678	-0.3918462813	-0.342363
C	 1.0797051329	-0.5778823007	 0.9658090067	 0.064551
O	 1.9173197617	 0.2741264144	 1.6778062235	-0.420469
H	 0.771599164	 2.0643566905	-0.2909618207	 0.128926
H	-0.9223028271	 1.8682460756	-0.7628122498	 0.118514
H	-0.481412388	 1.9281402912	 0.9516655488	 0.132378
H	-0.9609593632	-0.4410540713	 0.1543463437	 0.088806
H	 0.3121893696	-1.019223748	-2.0970578077	 0.121905
H	 2.6301773857	-0.5419762889	-1.9362426153	 0.254955
H	 0.6356934713	-1.2762473162	 1.6765952866	 0.112887
H	 2.4310274595	 0.7635012413	 1.0210676105	 0.298344
101.3517	137.4601	169.2076	195.0633	225.6326	288.0652	392.2619	467.9177	500.5064	542.76	563.314	615.3353	679.629	698.1327	798.1279	849.499	886.4764	935.3969	989.5682	1025.6777	1030.9918	1075.7767	1131.8997	1138.561	1157.9789	1200.8283	1228.4448	1257.9585	1297.0771	1337.3412	1374.726	1391.256	1413.2696	1446.5571	1488.8536	1501.721	2343.3981	3042.6416	3065.448	3108.6929	3112.2953	3124.8805	3198.3012	3494.6558	3760.9129
CC1C2NC2(C#N)C1O	C[C@H]1[C@H]2N[C@@]2(C#N)[C@H]1O	
InChI=1S/C6H8N2O/c1-3-4-6(2-7,8-4)5(3)9/h3-5,8-9H,1H3	InChI=1S/C6H8N2O/c1-3-4-6(2-7,8-4)5(3)9/h3-5,8-9H,1H3/t3-,4+,5-,6+/m0/s1
