18
gdb 86234	2.39355	1.36354	0.95319	3.3866	73.	-0.2844	0.0089	0.2933	1245.9765	0.146635	-439.109931	-439.10087	-439.099926	-439.144312	32.712	
C	 0.0154885595	 1.5483528647	-0.0369480853	-0.409657
C	 0.1057863735	 0.0422759363	-0.0446762199	 0.221658
O	 0.8360698227	-0.4170405414	-1.1542107838	-0.254947
C	 1.2516148377	-1.730165357	-0.8182657699	 0.094444
C	 2.4626701853	-2.1310571099	-1.6354862588	-0.422078
C	 1.5064449072	-1.6011932593	 0.7227625022	-0.041334
O	 0.833208281	-0.4137697645	 1.1005341161	-0.265865
C	 1.0140074128	-2.7692086313	 1.4692239042	 0.268868
N	 0.6388120833	-3.7021095249	 2.038288437	-0.31967
H	 1.0194294667	 1.9783450507	-0.0568609997	 0.135748
H	-0.5427939565	 1.8911414009	-0.9115538919	 0.134835
H	-0.5022323748	 1.8829831287	 0.8649272952	 0.138808
H	-0.8949546659	-0.425562786	-0.0355742797	 0.078825
H	 0.424435587	-2.4372685603	-0.9806448072	 0.099132
H	 3.2833984346	-1.4256544668	-1.4761022776	 0.133206
H	 2.7960629612	-3.1340302668	-1.3527371238	 0.13711
H	 2.2140482776	-2.140294355	-2.6995475064	 0.14094
H	 2.5760202271	-1.4824340479	 0.9344664794	 0.129977
43.6943	128.6304	145.9655	207.0797	219.6803	239.2594	269.3917	352.2195	443.6648	479.7405	541.5549	544.2167	667.0791	705.1452	840.0139	878.4397	883.7441	947.065	982.1946	1071.481	1093.3711	1111.2426	1134.9906	1138.4886	1167.7093	1186.2995	1275.0783	1341.8965	1349.3841	1387.0838	1391.4817	1402.2412	1414.7852	1448.1734	1484.0548	1485.8244	1486.7098	1498.2043	2358.7378	2946.6156	2994.6141	3037.9048	3046.9566	3058.2414	3122.6174	3129.362	3139.0037	3144.2093
CC1OC(C)C(O1)C#N	C[C@H]1O[C@@H](C)[C@@H](O1)C#N	
InChI=1S/C6H9NO2/c1-4-6(3-7)9-5(2)8-4/h4-6H,1-2H3	InChI=1S/C6H9NO2/c1-4-6(3-7)9-5(2)8-4/h4-6H,1-2H3/t4-,5-,6-/m0/s1
