22
gdb 64211	2.91902	1.22187	1.11433	2.0803	81.55	-0.2401	0.0692	0.3094	1229.0487	0.193867	-404.308496	-404.299049	-404.298104	-404.343065	35.456	
C	-0.1729418697	 1.5635502484	 0.0156048104	-0.457347
C	-0.0424193544	 0.0415011468	 0.0266697973	 0.261857
C	-1.3168473618	-0.6270176724	-0.4852150421	-0.450852
C	 1.2626454926	-0.50489875	-0.6053432289	-0.108941
O	 1.71376887	-1.0511417957	 0.6543890944	-0.299184
C	 0.5209940848	-0.6028138653	 1.3384827745	 0.075253
C	 0.847537002	 0.2698420504	 2.5266343615	-0.013302
C	 1.9839885007	-0.0867073451	 3.4083876562	-0.249343
N	 2.0640129299	 1.0938132851	 2.5238801924	-0.321131
H	 0.7143639688	 2.0565259659	 0.4203563361	 0.140516
H	-0.3271357533	 1.9220097179	-1.0085587405	 0.112104
H	-1.033817158	 1.889928782	 0.6094213073	 0.116829
H	-1.5496832692	-0.2992486033	-1.5046260623	 0.116214
H	-1.2201043398	-1.7175845133	-0.4965429801	 0.119139
H	-2.1739275551	-0.3718295754	 0.1483779524	 0.117187
H	 1.1296644397	-1.2896077536	-1.360398774	 0.100505
H	 1.9579846805	 0.2499983932	-0.9933494919	 0.099029
H	-0.0817045613	-1.459269703	 1.6756898381	 0.074108
H	-0.020645019	 0.7548688551	 2.9704340534	 0.091205
H	 1.9386089061	 0.1329362574	 4.4710762523	 0.114987
H	 2.5720691216	-0.9594355209	 3.1390375837	 0.125851
H	 2.6124707148	 0.8164367857	 1.71039132	 0.235317
39.4183	102.3266	158.8267	213.2736	236.7435	254.6444	282.3379	319.7739	352.7186	383.6715	488.7829	598.2335	669.6092	783.2803	853.8876	862.5779	882.6318	929.5001	957.4797	962.9999	970.1291	993.5733	1010.9143	1025.4766	1044.4271	1077.5969	1127.0188	1142.9318	1161.1855	1188.0001	1214.4928	1230.9929	1268.386	1286.5555	1298.0532	1306.0117	1361.3561	1371.139	1406.6089	1414.2773	1428.2864	1484.7015	1488.6939	1502.1236	1505.5755	1507.5516	1526.6232	2987.9342	3010.351	3023.9354	3032.1652	3055.6804	3088.1496	3093.5504	3098.3949	3112.8425	3120.7164	3122.1527	3202.4509	3474.2219
CC1(C)COC1C1CN1	CC1(C)CO[C@H]1[C@H]1CN1	
InChI=1S/C7H13NO/c1-7(2)4-9-6(7)5-3-8-5/h5-6,8H,3-4H2,1-2H3	InChI=1S/C7H13NO/c1-7(2)4-9-6(7)5-3-8-5/h5-6,8H,3-4H2,1-2H3/t5-,6+/m1/s1
