17
gdb 69869	2.67705	1.67166	1.19726	4.327	77.67	-0.2281	0.0157	0.2439	1037.4538	0.135988	-380.809372	-380.80148	-380.800536	-380.841495	30.855	
C	-0.0616476576	 1.5363848873	 0.0741170433	-0.519723
C	 0.0765746809	 0.0492758066	 0.033307983	 0.278076
N	-0.8466518851	-0.8853733716	 0.7100077942	-0.374448
C	 0.6152883923	-0.9384262135	 0.9883522928	-0.113008
C	 1.3016566163	-1.7433830013	-0.146745931	-0.104882
C	 0.3450459527	-2.1995530277	-1.1989848367	-0.333727
C	 0.7359606071	-0.7318393687	-1.1676413325	 0.165617
C	 1.4241825463	-0.0809018533	-2.2252153319	 0.196747
N	 1.9811208877	 0.4765603128	-3.0753360996	-0.363254
H	 0.8596800001	 2.0233357304	-0.2601316009	 0.150111
H	-0.8727959237	 1.8747436469	-0.5806326503	 0.141163
H	-0.2787192599	 1.8764718719	 1.0919395678	 0.121478
H	-1.2828939157	-0.3744902662	 1.4767924815	 0.23436
H	 1.0066360562	-0.8057422545	 1.9881650504	 0.106124
H	 2.3281765598	-2.0795358367	-0.0968822687	 0.120479
H	 0.7920849015	-2.7557626329	-2.01583592	 0.135857
H	-0.6698589091	-2.4684240496	-0.9380290615	 0.159028
125.9407	134.1179	207.3772	242.6552	303.9136	406.651	434.5314	492.7226	534.0211	552.9518	598.0972	638.5669	782.5282	795.614	840.8627	864.9224	899.6424	930.936	946.0501	993.3052	998.6156	1025.7279	1048.1019	1107.4171	1112.9334	1127.2353	1185.6949	1253.6785	1272.6496	1323.3816	1345.4157	1413.0415	1446.1105	1459.5509	1479.6269	1499.0774	2333.4797	3030.5207	3095.7654	3109.2654	3149.882	3203.7588	3217.39	3247.2398	3480.8368
CC12NC1C1CC21C#N	C[C@]12N[C@H]1[C@H]1C[C@@]21C#N	
InChI=1S/C7H8N2/c1-6-5(9-6)4-2-7(4,6)3-8/h4-5,9H,2H2,1H3	InChI=1S/C7H8N2/c1-6-5(9-6)4-2-7(4,6)3-8/h4-5,9H,2H2,1H3/t4-,5+,6+,7+/m1/s1
