19
gdb 116282	2.19563	1.40578	0.97962	2.6543	72.65	-0.2483	-0.0222	0.2262	1237.8088	0.158458	-460.172965	-460.163652	-460.162708	-460.208326	32.411	
C	-0.072191766	 1.2302877076	-0.5579300213	-0.245455
O	-0.1715777964	-0.1832434745	-0.5161812477	-0.255879
C	-1.2500279514	-0.6504787442	 0.2551171791	 0.206086
O	-2.4965101891	-0.3041070375	-0.2889631617	-0.255645
C	-2.8909345699	-1.2863121181	-1.2578702534	-0.081677
C	-1.9149048397	-2.4736688323	-1.1134957983	-0.269396
C	-1.213530513	-2.1904857354	 0.2315816278	-0.116212
C	 0.179976522	-2.7736037518	 0.3299227328	 0.15902
O	 0.5652012258	-3.4472003766	 1.2510228303	-0.258564
H	 0.798893036	 1.470902607	-1.1705211682	 0.129702
H	-0.9677037936	 1.681177614	-1.0001475995	 0.128548
H	 0.071883223	 1.6478749849	 0.4495586434	 0.11159
H	-1.2126310534	-0.2145355095	 1.2626224816	 0.085817
H	-3.9254667087	-1.5687278419	-1.0362406675	 0.112505
H	-2.8622918507	-0.8525569492	-2.263343513	 0.111287
H	-2.4254145583	-3.4384267367	-1.1215241116	 0.1199
H	-1.1804653707	-2.47234744	-1.9242978514	 0.123218
H	-1.8004450244	-2.5633731517	 1.0745572454	 0.102718
H	 0.8388146886	-2.534446694	-0.5305805069	 0.092436
52.8181	71.7784	105.1542	124.6104	188.3127	190.0432	303.577	331.3091	422.5155	479.2148	550.2367	683.7413	760.0665	858.5163	904.2861	937.0577	945.8028	968.4423	997.0854	1042.9604	1086.9385	1107.6121	1133.6964	1139.4819	1181.5336	1206.3735	1219.6842	1237.7194	1273.9922	1310.9552	1325.8361	1351.7154	1388.4435	1398.0187	1425.2605	1476.6201	1484.78	1492.4662	1513.486	1529.9597	1828.3619	2918.3871	2996.9211	3023.8017	3036.9158	3062.7411	3070.1968	3075.2285	3088.407	3122.0145	3129.7893
COC1OCCC1C=O	CO[C@H]1OCC[C@H]1C=O	
InChI=1S/C6H10O3/c1-8-6-5(4-7)2-3-9-6/h4-6H,2-3H2,1H3	InChI=1S/C6H10O3/c1-8-6-5(4-7)2-3-9-6/h4-6H,2-3H2,1H3/t5-,6-/m0/s1
