18
gdb 48882	3.2887	1.50773	1.28195	2.0164	75.54	-0.2488	-0.029	0.2198	1009.1055	0.149138	-401.921514	-401.914311	-401.913367	-401.953259	28.472	
O	-0.0831421986	-0.0143411827	-0.0000824793	-0.254075
C	 0.0219475714	 1.1873531937	 0.0154941696	 0.065952
C	 1.3160064684	 1.9340780107	-0.0097190542	 0.222774
C	 1.424964381	 3.1546352843	 0.9738846906	-0.306541
C	 1.9508936866	 4.0035203227	-0.1883395481	-0.037402
C	 1.5505807188	 2.9637307229	-1.1824026741	-0.104844
N	 2.9477270286	 3.2985535182	-1.0071252656	-0.088203
C	 3.670545639	 2.1773541272	-0.359694327	-0.177074
C	 2.6056046367	 1.1156636715	 0.017551884	-0.26851
H	-0.8831423123	 1.8387772121	 0.0414202396	 0.071575
H	 0.4397304062	 3.5057725	 1.2952686091	 0.113362
H	 2.058754721	 3.0111579522	 1.8550248447	 0.106108
H	 1.927855944	 5.0854371032	-0.2551259299	 0.098976
H	 1.065468976	 3.0054132829	-2.1501664925	 0.10091
H	 4.4056580161	 1.788113185	-1.0688689304	 0.116126
H	 4.2188811403	 2.552167936	 0.5097365034	 0.11099
H	 2.7856835576	 0.6613835373	 0.995940846	 0.110621
H	 2.5572959092	 0.3080038229	-0.7184602258	 0.119255
82.3567	185.4646	213.8623	310.9801	380.1889	410.8048	469.594	608.2936	709.0856	737.3717	755.4577	793.3846	823.5724	863.6742	884.9659	932.6921	962.8455	969.574	988.0764	1021.4593	1043.948	1055.6852	1104.485	1124.8597	1156.7055	1191.1746	1214.1151	1231.2891	1256.1278	1259.6358	1273.6545	1324.2488	1336.6042	1368.4486	1431.3772	1487.1441	1490.2843	1515.5769	1815.2408	2854.9407	3042.7367	3056.0392	3063.4875	3092.7665	3096.6383	3112.6646	3172.1788	3188.4038
O=CC12CC3C1N3CC2	O=C[C@]12C[C@@H]3[C@H]1N3CC2	
InChI=1S/C7H9NO/c9-4-7-1-2-8-5(3-7)6(7)8/h4-6H,1-3H2	InChI=1S/C7H9NO/c9-4-7-1-2-8-5(3-7)6(7)8/h4-6H,1-3H2/t5-,6-,7+,8?/m1/s1
