17
gdb 6447	3.89624	1.42435	1.24973	1.6853	71.62	-0.2141	0.0318	0.2459	1021.6987	0.139529	-363.79243	-363.783849	-363.782904	-363.825103	31.97	
C	-0.0247645903	 1.5266784753	 0.051169121	-0.321115
N	-0.0121726563	 0.0840851614	 0.1077161258	-0.068516
C	-1.2469443525	-0.6164897754	 0.499421482	-0.195028
C	-0.3966711439	-1.6279854917	 1.3168841177	 0.2308
O	-0.1967246112	-2.7948097199	 0.5397476439	-0.464364
C	 0.7494195675	-0.5710068822	 1.1831903295	-0.216328
C	-0.8299018605	-1.9503339662	 2.6688164243	 0.290811
C	-1.1554764629	-2.2454475534	 3.7883076486	-0.485048
H	 0.9803118549	 1.8979392666	-0.1754970153	 0.122061
H	-0.6923119802	 1.8610068304	-0.7501205494	 0.122927
H	-0.3596850132	 1.9989871482	 0.9955833824	 0.088973
H	-1.913793208	-0.0246752942	 1.1443672793	 0.095036
H	-1.8169685033	-1.0569009111	-0.3242535226	 0.11944
H	 0.3462657033	-3.4015293696	 1.0550994717	 0.283239
H	 1.7275652603	-0.9662905087	 0.8876247277	 0.104626
H	 0.8541175566	 0.0387224509	 2.0942660824	 0.092008
H	-1.4556364302	-2.4997637106	 4.774905641	 0.200478
79.8546	162.5481	188.3664	231.2013	266.2716	292.1416	316.4324	385.8278	404.8796	498.2956	554.5924	605.9046	633.1229	663.4334	745.0578	912.2187	933.7102	944.1895	995.2189	1023.6386	1096.757	1113.5276	1130.8406	1182.9037	1229.9372	1241.8814	1256.7136	1296.3438	1330.2001	1381.3771	1451.8465	1483.4567	1485.0816	1498.9281	1513.5151	2231.2272	2915.6027	2977.758	2991.8362	3055.8827	3060.3424	3079.3029	3098.3204	3499.789	3805.939
CN1CC(O)(C1)C#C	CN1CC(O)(C1)C#C	
InChI=1S/C6H9NO/c1-3-6(8)4-7(2)5-6/h1,8H,4-5H2,2H3	InChI=1S/C6H9NO/c1-3-6(8)4-7(2)5-6/h1,8H,4-5H2,2H3
