21
gdb 59377	4.45088	0.80025	0.72281	1.6307	85.91	-0.2533	0.0492	0.3025	1588.0222	0.180388	-387.048128	-387.038169	-387.037225	-387.083076	37.418	
C	 0.4263626317	 1.3323027851	-0.4167662991	-0.406077
C	 0.0294911794	-0.1140642214	-0.1175538848	 0.132134
O	 0.9622313235	-0.7283043968	 0.769666256	-0.43177
C	-1.3994239409	-0.2314888974	 0.4216914296	-0.009681
C	-2.5178233738	-0.056306704	-0.6468321395	-0.249866
C	-2.6796892002	-1.6118151468	-0.7015128082	-0.144855
C	-1.8706731449	-1.6956959538	 0.6354750135	-0.24602
C	-4.0168689596	-2.1648257553	-0.7409020318	 0.297234
C	-5.1345560825	-2.6100445048	-0.753963441	-0.44935
H	 1.451752046	 1.3734799421	-0.7935084931	 0.125131
H	-0.2352590371	 1.78834008	-1.1597121157	 0.119972
H	 0.3718207907	 1.9412636558	 0.4946544933	 0.105712
H	 0.1119125531	-0.7046758223	-1.0397876731	 0.086187
H	 0.9534284449	-0.227340212	 1.5932381497	 0.275139
H	-1.495234736	 0.4191671803	 1.2993430714	 0.056714
H	-3.4113720991	 0.4229587198	-0.2423537318	 0.113411
H	-2.2493950835	 0.4364537646	-1.5849239205	 0.103161
H	-2.0891245335	-2.0238777994	-1.5262505714	 0.103499
H	-1.0871190001	-2.4528719483	 0.6929829487	 0.120068
H	-2.5365088112	-1.8018128183	 1.4942499393	 0.107438
H	-6.1182170969	-3.0087431771	-0.7715398616	 0.191818
58.9369	87.5318	123.8894	198.7849	221.7774	233.0934	279.2939	311.2047	358.6516	453.2968	469.2874	519.1463	524.0982	612.0573	623.499	645.7066	794.1157	825.0062	873.5886	914.9647	942.6906	972.3178	987.1428	1010.138	1067.308	1079.0138	1090.3243	1123.4541	1148.1387	1202.0025	1227.0121	1248.7343	1262.4246	1274.1936	1288.5546	1328.9148	1353.0364	1396.7054	1402.5058	1419.3971	1475.8777	1490.7014	1493.7625	1497.211	2231.6788	3016.4375	3024.0091	3035.2312	3048.382	3064.1052	3077.3437	3095.7919	3120.1012	3123.297	3135.418	3506.1682	3793.5628
CC(O)C1CC(C1)C#C	C[C@@H](O)[C@H]1C[C@@H](C1)C#C	
InChI=1S/C8H12O/c1-3-7-4-8(5-7)6(2)9/h1,6-9H,4-5H2,2H3	InChI=1S/C8H12O/c1-3-7-4-8(5-7)6(2)9/h1,6-9H,4-5H2,2H3/t6-,7-,8-/m1/s1
