19
gdb 76249	2.43503	1.41474	0.97518	4.7901	79.25	-0.2526	-0.0238	0.2288	1232.0852	0.158537	-419.239853	-419.230424	-419.22948	-419.274291	33.995	
C	-0.5004046351	 1.3514132736	 0.1835556104	-0.404702
C	-0.0458435895	-0.0831442579	-0.0366795726	 0.020688
C	 0.8344943811	-0.4210334151	-1.3012641086	-0.11619
C	 1.1669999252	 0.6719828374	-2.3093560233	-0.405049
C	 1.9393865597	-0.8044819111	-0.3199831198	 0.402114
N	 3.1208825327	-1.2132624563	-0.4560028981	-0.545073
N	 1.1096245575	-0.51057012	 0.7889890344	-0.104431
C	 1.3099454278	-0.6567125528	 2.1312523784	 0.132884
O	 2.3457948855	-1.0484265441	 2.6244959179	-0.306823
H	 0.3349763691	 2.0530612578	 0.1177136126	 0.133109
H	-1.2481558229	 1.6301249142	-0.5655649092	 0.131479
H	-0.9617146797	 1.4651242148	 1.1696947037	 0.12749
H	-0.8933583592	-0.7680703408	 0.0741500659	 0.097931
H	 0.449907922	-1.3030604878	-1.8220809752	 0.108142
H	 1.5695808057	 1.566284135	-1.826145938	 0.126274
H	 1.9266850892	 0.304179332	-3.0043221818	 0.147181
H	 0.2846681709	 0.9601090436	-2.8892325439	 0.119385
H	 3.5564152007	-1.364712231	 0.4554811369	 0.249246
H	 0.4184998594	-0.3775083614	 2.7267270203	 0.086343
62.6515	103.4793	166.9687	197.3095	215.7536	231.7293	251.0716	270.4236	343.7859	455.7545	475.2532	555.4498	647.0971	730.5392	776.4754	793.3429	917.2269	929.6838	994.4567	1012.1408	1031.6802	1044.8523	1079.8938	1137.2382	1159.496	1174.0866	1243.3193	1257.5126	1291.9987	1353.6229	1380.5273	1393.7565	1409.9183	1417.1225	1433.3442	1484.2182	1490.6253	1498.9588	1507.361	1754.6254	1818.7414	2939.7123	3040.8905	3043.9204	3046.4484	3068.9008	3108.1687	3114.5183	3122.0988	3129.1152	3482.3433
CC1C(C)C(=N)N1C=O	C[C@H]1[C@@H](C)[C]([NH])N1C=O	
InChI=1S/C6H10N2O/c1-4-5(2)8(3-9)6(4)7/h3-5,7H,1-2H3	InChI=1S/C6H10N2O/c1-4-5(2)8(3-9)6(4)7/h3-5,7H,1-2H3/t4-,5+/m1/s1
