17
gdb 51813	4.74682	0.94924	0.82378	2.5767	72.5	-0.2628	0.0077	0.2705	1355.1516	0.137105	-455.15622	-455.147993	-455.147049	-455.190023	29.579	
N	-0.1044066986	 1.2828667006	-0.1505764263	-0.431819
C	-0.0556932031	 0.0355410716	 0.008981877	 0.128712
O	-1.1917179219	-0.6982137327	-0.115521017	-0.179384
C	-1.0539119998	-2.0866002833	-0.015208412	 0.22249
C	-2.4207917946	-2.7143294583	 0.1715455719	-0.268486
C	-2.2908191377	-4.2372578014	 0.0533588999	-0.168353
N	-1.5058981092	-4.657946689	-1.1034151049	-0.255294
C	-0.7165384548	-3.8190072866	-1.617285915	 0.134587
O	-0.4382189466	-2.5426612896	-1.2247787576	-0.24089
H	 0.817653677	 1.6895086866	-0.0065894891	 0.234958
H	 0.8273631236	-0.5663685342	 0.2572027284	 0.101184
H	-0.3736357024	-2.3418199951	 0.8115057304	 0.091769
H	-2.8342380583	-2.4118084428	 1.137362373	 0.120351
H	-3.0772151009	-2.3239851715	-0.6127145533	 0.136249
H	-1.8323830577	-4.6626036257	 0.9565189292	 0.117212
H	-3.2830511398	-4.6922546791	-0.0241874499	 0.123755
H	-0.1291929953	-4.0620647494	-2.4999615848	 0.132959
65.8581	90.6846	107.0498	176.261	252.6344	360.5842	436.934	459.1932	534.5098	561.7519	665.6636	794.7684	826.0728	861.7925	888.9596	943.9622	964.5778	1007.3254	1040.6966	1052.1594	1072.4861	1119.0752	1137.6955	1184.2612	1233.7713	1251.8965	1284.8179	1339.3713	1362.4535	1387.0107	1406.4391	1414.7763	1433.2249	1481.4317	1494.1895	1739.5109	1757.5076	2990.1909	3020.3058	3043.8401	3059.1603	3075.596	3112.3643	3169.7192	3519.5067
N=COC1CCN=CO1	[NH][CH]O[C@H]1CCN=CO1	
InChI=1S/C5H8N2O2/c6-3-8-5-1-2-7-4-9-5/h3-6H,1-2H2	InChI=1S/C5H8N2O2/c6-3-8-5-1-2-7-4-9-5/h3-6H,1-2H2/t5-/m1/s1
