18
gdb 19660	4.43477	2.04426	1.92262	1.5207	70.73	-0.2382	0.09	0.3282	783.5634	0.155938	-347.764944	-347.758728	-347.757783	-347.794895	25.802	
C	-0.1080606567	 1.6092489218	-0.0569063375	-0.426317
C	 0.0343979447	 0.0989280844	 0.0214992047	 0.032978
C	 1.179192676	-0.6189943925	-0.7450649403	 0.057214
O	 2.3515040119	 0.0654996544	-0.2761376235	-0.268101
C	 2.2619520477	-0.3497232896	 1.0977128738	 0.077439
C	 2.4756674306	-1.8751716724	 0.9868995291	-0.242449
C	 1.1028419588	-1.8090745382	 0.3022880016	-0.062538
C	 0.6957292128	-0.6008751946	 1.2226968537	-0.082516
H	 0.8633818393	 2.0945258801	 0.0636400411	 0.131387
H	-0.5229567669	 1.9172297258	-1.0232153106	 0.111526
H	-0.7798688764	 1.9807985379	 0.7246008404	 0.110271
H	-0.9154211272	-0.4074135784	-0.1879022071	 0.070747
H	 1.2064085521	-0.7450593511	-1.8266235899	 0.07321
H	 2.8401997272	 0.3068781659	 1.7453141903	 0.077573
H	 3.3538280503	-2.2114551713	 0.4301123434	 0.09997
H	 2.4050879716	-2.3828569218	 1.9528780602	 0.098811
H	 0.4600659009	-2.6609555121	 0.0896444822	 0.072232
H	 0.2547830533	-0.7044995882	 2.2128524083	 0.068564
195.3775	211.7758	253.7431	449.8931	494.7157	581.642	679.0314	695.8734	773.4788	798.8339	827.4703	858.3219	898.3229	923.0753	925.9531	946.9169	992.657	1023.0535	1024.1492	1047.5449	1070.8468	1077.6972	1119.8994	1128.8948	1162.482	1178.7827	1196.4292	1229.036	1244.4256	1257.2254	1277.8551	1283.6507	1343.0516	1385.8597	1408.1644	1482.6543	1491.5283	1504.5552	3032.1134	3043.1802	3057.4317	3090.9745	3119.6243	3124.9696	3127.1291	3128.4572	3136.8446	3143.2278
CC1C2OC3CC2C13	C[C@H]1[C@H]2O[C@@H]3C[C@H]2[C@H]13	
InChI=1S/C7H10O/c1-3-6-4-2-5(6)8-7(3)4/h3-7H,2H2,1H3	InChI=1S/C7H10O/c1-3-6-4-2-5(6)8-7(3)4/h3-7H,2H2,1H3/t3-,4+,5-,6+,7-/m1/s1
