19
gdb 66487	2.89837	1.75026	1.38388	1.1817	78.46	-0.2265	0.079	0.3056	987.9646	0.159437	-385.818046	-385.810658	-385.809714	-385.849197	30.937	
C	-0.0230184551	 1.4923218156	 0.0038442559	-0.509796
C	-0.0356370292	-0.0136112232	-0.0465561375	 0.361303
C	 0.2833717715	-0.8298798277	-1.3290183522	-0.284976
C	-0.4921615064	-1.9728576036	-0.631379363	-0.053591
C	 0.2286955193	-2.2633126823	 0.7030652771	-0.172877
C	 0.5648261364	-0.8131466313	 1.1379210972	-0.169567
C	-0.7343582376	-1.4442896156	 1.5355493736	 0.378162
O	-1.2492498999	-1.6043134615	 2.7968796729	-0.458315
C	-1.3241319285	-0.9091403098	 0.1837986758	-0.200034
H	 0.9978528969	 1.8820581271	-0.092182204	 0.115137
H	-0.6215813275	 1.9242771512	-0.8056625748	 0.111599
H	-0.4277006376	 1.8572782834	 0.9546059011	 0.121983
H	-0.2648966944	-0.4389793012	-2.1931303792	 0.091857
H	 1.3311671344	-0.9956112693	-1.6003112661	 0.087957
H	-0.9393524502	-2.8012839802	-1.179838991	 0.060241
H	 0.8567807201	-3.098361572	 0.9856528975	 0.084795
H	 1.4290761014	-0.5844396216	 1.7485934889	 0.083892
H	-1.8127525864	-2.3866659812	 2.7985558143	 0.28655
H	-2.3398133473	-0.5959151967	-0.0482669465	 0.065682
189.5867	230.2463	268.4394	296.7032	304.8401	372.2358	447.7496	573.1414	581.0081	582.9458	738.6859	763.904	786.0203	829.1488	834.6663	871.5411	879.6709	903.1999	931.0435	957.0954	999.6125	1006.6181	1030.5071	1058.0597	1078.6724	1097.4583	1106.7453	1159.2763	1171.7377	1195.0388	1219.5713	1240.2074	1247.6836	1269.1756	1301.0025	1342.7086	1413.2025	1477.6595	1490.0263	1492.5559	1493.16	3019.2314	3035.5313	3081.3439	3089.57	3092.2201	3116.1531	3141.2736	3191.6997	3201.2604	3783.9416
CC12CC3C4C1C4(O)C23	C[C@@]12C[C@H]3[C@H]4[C@@H]1[C@@]4(O)[C@@H]23	
InChI=1S/C8H10O/c1-7-2-3-4-6(7)8(4,9)5(3)7/h3-6,9H,2H2,1H3	InChI=1S/C8H10O/c1-7-2-3-4-6(7)8(4,9)5(3)7/h3-6,9H,2H2,1H3/t3-,4-,5+,6-,7-,8-/m0/s1
