15
gdb 46201	3.28691	1.57626	1.21184	2.1893	64.84	-0.2546	-0.0096	0.2451	980.7002	0.112886	-457.706576	-457.699693	-457.698749	-457.738079	26.392	
O	-0.1799169705	 0.0528191067	-0.2579396238	-0.333098
C	-0.0843004083	 1.2101389998	 0.0008942016	 0.390905
O	-1.0539715379	 2.0546485876	 0.4815702067	-0.247304
C	-0.1370160502	 3.2036794905	 0.5079328936	-0.17566
C	 0.9768256854	 2.3060593044	-0.0262034096	 0.201513
C	 2.4269916593	 2.2258061893	 0.5023673527	-0.017378
C	 2.8281488241	 1.4313808217	-0.761637498	-0.238355
C	 1.9566099769	 2.6397241191	-1.1740332138	-0.017372
O	 2.7125268019	 3.490320262	-0.2208256142	-0.317651
H	-0.4886999206	 3.9943065098	-0.1571430755	 0.13522
H	-0.0164986174	 3.5788476124	 1.5256873842	 0.135221
H	 2.7698563017	 2.1387000185	 1.5330325216	 0.112212
H	 3.8794109045	 1.5172754239	-1.0354034788	 0.117692
H	 2.4105626189	 0.4315835493	-0.8913264661	 0.141843
H	 1.7340125522	 3.050196245	-2.1586028705	 0.112211
134.7162	165.8119	166.1619	323.2623	369.0064	456.2176	622.6482	661.3633	670.6414	744.2294	800.0594	830.9093	881.2472	885.9935	925.3366	939.5671	1018.0203	1022.7931	1061.8296	1098.7315	1102.7694	1138.6558	1155.9959	1164.2069	1178.2539	1211.7236	1218.7867	1271.5437	1313.6624	1368.6936	1483.7179	1511.9035	1926.0254	3078.2649	3082.7902	3126.0756	3130.7953	3139.4521	3169.5766
O=C1OCC11C2CC1O2	O=C1OC[C@]21[C@H]1C[C@@H]2O1	
InChI=1S/C6H6O3/c7-5-6(2-8-5)3-1-4(6)9-3/h3-4H,1-2H2	InChI=1S/C6H6O3/c7-5-6(2-8-5)3-1-4(6)9-3/h3-4H,1-2H2/t3-,4+,6+
