20
gdb 11472	5.07022	1.23448	1.07127	1.11	71.84	-0.2489	0.0905	0.3394	1173.0262	0.176501	-386.157697	-386.14888	-386.147936	-386.191701	31.629	
C	-0.054716851	 1.6371259508	 0.1340950101	-0.38393
C	 0.0840977712	 0.1438633147	-0.1697431886	-0.200169
C	-1.2424170015	-0.589078875	-0.0980560402	 0.234817
O	-2.1522240469	-0.090089358	-1.0746848069	-0.27497
C	-2.8511412828	-1.1970436434	-1.6297394312	-0.0936
C	-2.3328612674	-2.4159809899	-0.8412067027	 0.119312
C	-2.1578594799	-3.6914090907	-1.6425864783	-0.414022
O	-1.0671245595	-1.9555341646	-0.3784364083	-0.266803
H	 0.9149280023	 2.1391429903	 0.0721342948	 0.113079
H	-0.7344003968	 2.1146118977	-0.5766529628	 0.136353
H	-0.4514368526	 1.8031305092	 1.141893213	 0.113641
H	 0.4940159512	-0.0135434906	-1.1730676716	 0.106306
H	 0.7671315903	-0.3336894307	 0.5418582128	 0.105291
H	-1.7033338149	-0.4688630795	 0.9024149414	 0.055212
H	-3.9333378761	-1.0581222908	-1.5213235233	 0.101484
H	-2.6137095511	-1.2822927083	-2.6987834172	 0.097972
H	-2.991405898	-2.6002132589	 0.0239958125	 0.071024
H	-1.4890503193	-3.5183577293	-2.4909114094	 0.128189
H	-1.7309545105	-4.4821038459	-1.0199252177	 0.13081
H	-3.1237153668	-4.0393629473	-2.0223091164	 0.120006
52.8173	80.7121	115.5211	197.7225	226.1383	249.8924	297.9196	405.8542	464.8355	486.4806	634.8771	716.5266	781.9495	868.9099	888.835	919.7297	945.7241	956.2415	1035.8627	1056.8303	1115.5274	1116.0363	1146.1978	1154.4983	1162.7054	1191.644	1228.5007	1283.1139	1324.3394	1341.1788	1366.099	1380.2629	1403.0655	1409.9712	1414.5637	1447.3223	1477.6283	1485.1129	1498.6782	1499.4434	1510.5439	1528.4713	2904.2935	2961.5722	3008.0053	3038.3576	3042.9043	3043.582	3054.4999	3084.0975	3106.2042	3116.0145	3123.2161	3123.8503
CCC1OCC(C)O1	CC[C@H]1OC[C@@H](C)O1	
InChI=1S/C6H12O2/c1-3-6-7-4-5(2)8-6/h5-6H,3-4H2,1-2H3	InChI=1S/C6H12O2/c1-3-6-7-4-5(2)8-6/h5-6H,3-4H2,1-2H3/t5-,6+/m1/s1
