16
gdb 21190	6.74577	1.29436	1.10709	3.6789	68.	-0.2096	0.0434	0.2529	1072.1866	0.132108	-376.135959	-376.127771	-376.126827	-376.168604	29.	
C	-0.0106607837	 1.3807243857	 0.2373129139	-0.3421
N	-0.015119438	-0.0237615484	-0.1259134274	-0.380742
C	-1.1603795114	-0.7680888069	-0.0189004979	 0.458864
N	-1.2157929814	-2.0875480862	 0.0413413527	-0.393202
C	-2.5629110487	-2.337658732	 0.0813956417	 0.351687
C	-3.1211045542	-3.7189522984	 0.1518807425	-0.480439
N	-3.3344188573	-1.2669632968	 0.0566436888	-0.27957
N	-2.4099736909	-0.2511593246	-0.0027974144	-0.268148
H	 1.0032965156	 1.7699006044	 0.1297561218	 0.141957
H	-0.6487549552	 1.9527533398	-0.4465898346	 0.132425
H	-0.3501607643	 1.5695929668	 1.2669897228	 0.125633
H	 0.8038384062	-0.5554782346	 0.1262743245	 0.259717
H	-2.7598874405	-4.2376576003	 1.0457158037	 0.133406
H	-4.2114227413	-3.6822240247	 0.1781739587	 0.135722
H	-2.8046180982	-4.3088656139	-0.7142792574	 0.134646
H	-2.7179172565	 0.70350027	-0.0540455295	 0.270145
84.574	118.5095	157.629	203.5239	230.5144	317.6326	341.8225	429.9151	472.6898	538.893	679.6826	699.1702	755.9497	764.9364	1004.174	1018.5685	1039.4163	1069.349	1108.1459	1126.3595	1157.0912	1189.99	1319.4573	1374.2341	1391.6362	1428.8529	1467.7405	1477.5912	1480.4907	1490.4663	1513.0505	1524.63	1580.8843	1648.717	2989.2912	3044.2415	3057.6964	3099.0287	3130.6604	3143.0498	3627.8228	3690.5139
CNC1=NC(C)=NN1	CNc1nc(C)n[nH]1	
InChI=1S/C4H8N4/c1-3-6-4(5-2)8-7-3/h1-2H3,(H2,5,6,7,8)	InChI=1S/C4H8N4/c1-3-6-4(5-2)8-7-3/h1-2H3,(H2,5,6,7,8)
