18
gdb 66859	2.55992	2.06748	1.82909	2.2542	73.36	-0.2132	0.066	0.2792	861.5408	0.1499	-401.888598	-401.882003	-401.881059	-401.919023	28.081	
O	-0.0948121093	 1.404275512	-0.0546212841	-0.495129
C	 0.0001492677	 0.023231122	 0.0035708063	 0.404078
C	-1.3072727854	-0.7740387467	 0.0915143428	-0.095982
C	-0.9173415584	-2.0979391513	-0.4177642628	-0.022635
C	 0.186710496	-1.9821770852	-1.4520918407	-0.235016
C	 1.0074609811	-0.7947232334	-0.9361159929	-0.124314
C	 1.7919429226	-1.2377876462	 0.3332693224	-0.24115
C	 0.5586860877	-0.8545207241	 1.1585583406	-0.038854
N	-0.6530768318	-1.7726170179	 1.0227178681	-0.173884
H	 0.7916230751	 1.780283925	-0.0394090218	 0.283767
H	-2.3061761794	-0.3837565896	 0.250457231	 0.098045
H	-1.6555484093	-2.8891103044	-0.5100971185	 0.095416
H	 0.7940789541	-2.888830581	-1.5446250631	 0.103824
H	-0.2649162368	-1.7829705499	-2.4316844604	 0.104252
H	 1.5446471702	-0.2410197052	-1.7085623749	 0.065362
H	 2.1348109278	-2.2759288732	 0.3666517875	 0.100795
H	 2.634438014	-0.5778072335	 0.5655869306	 0.093871
H	 0.6442460043	-0.5301100973	 2.1969071398	 0.077553
216.8858	248.9903	312.2703	346.8201	431.0761	467.2845	584.8853	610.8765	652.8654	703.0373	741.6999	780.8765	853.984	867.8791	892.0522	935.9574	939.9514	963.3203	1015.7246	1026.3947	1043.6412	1044.8729	1053.7947	1099.7335	1117.6631	1141.8016	1168.2034	1196.4803	1228.2093	1239.9339	1268.5205	1282.231	1302.4549	1325.0246	1337.9714	1396.2729	1408.6449	1478.6399	1498.4823	3029.1347	3041.8324	3073.6201	3089.5417	3095.4039	3098.3369	3156.6764	3178.4394	3810.0083
OC12C3C4CC1CC2N34	O[C@@]12[C@H]3[C@H]4C[C@@H]1C[C@@H]2N34	
InChI=1S/C7H9NO/c9-7-3-1-4-6(7)8(4)5(7)2-3/h3-6,9H,1-2H2	InChI=1S/C7H9NO/c9-7-3-1-4-6(7)8(4)5(7)2-3/h3-6,9H,1-2H2/t3-,4-,5+,6-,7+,8?/m1/s1
