15
gdb 18120	4.48752	2.11465	1.52978	2.4935	61.37	-0.2557	0.0163	0.272	798.1677	0.121916	-399.805616	-399.799561	-399.798617	-399.835787	23.31	
C	 0.005786544	 1.4042258454	 0.0660615341	 0.013557
O	 1.3040186981	 1.9341995693	-0.0699369083	-0.262871
C	 2.0086944814	 0.9166086093	-0.7834850445	 0.023155
C	 3.4692114775	 0.6122170032	-0.4720677135	-0.273599
C	 3.4338654273	-0.9577649297	-0.4976584358	-0.163337
N	 2.0747391499	-1.3554886802	-0.0486393275	-0.312603
C	 1.3709326899	-0.3200774296	-0.2181140052	 0.422393
O	 0.1220218381	-0.0364897393	 0.1914007178	-0.256486
H	-0.4536772179	 1.7983392065	 0.9746261178	 0.139063
H	-0.6181324812	 1.6155795183	-0.8153694189	 0.111552
H	 1.826604601	 1.0206511241	-1.8658036249	 0.09373
H	 4.1838958804	 1.0464885531	-1.1735851778	 0.108351
H	 3.7042071369	 0.961847107	 0.5376782321	 0.127309
H	 3.6332341363	-1.3464169174	-1.5048800095	 0.111274
H	 4.1795137085	-1.3986783699	 0.169196654	 0.118512
161.0406	201.1143	277.1187	390.9976	458.7608	616.8837	649.6705	721.3781	736.8298	842.5496	862.5986	910.205	931.9242	977.2315	1029.9624	1058.3553	1085.2689	1116.0779	1146.0007	1181.626	1203.6918	1228.0939	1263.9491	1283.5066	1323.7348	1338.6098	1374.8362	1441.5846	1485.3987	1508.2782	1534.7876	1780.3512	2971.1632	2994.5615	3025.2373	3067.1854	3090.5114	3116.5551	3127.2145
C1OC2CCN=C2O1	C1O[C@H]2CC[N][C]2O1	
InChI=1S/C5H7NO2/c1-2-6-5-4(1)7-3-8-5/h4H,1-3H2	InChI=1S/C5H7NO2/c1-2-6-5-4(1)7-3-8-5/h4H,1-3H2/t4-/m0/s1
