21
gdb 92637	3.09872	1.35155	1.05394	1.6814	85.	-0.2329	0.0208	0.2537	1205.6462	0.184136	-387.090338	-387.082162	-387.081218	-387.122853	32.282	
C	 0.1478471324	 1.5459138622	 0.0132583928	-0.398609
C	 0.0066975135	 0.0374699798	 0.0325244263	 0.07368
O	 0.9665450511	-0.6452383927	-0.8409636142	-0.333886
C	 1.2692049415	-1.6223968005	 0.1949714415	 0.108631
C	 2.7101015624	-1.8770217665	 0.6083669341	-0.241706
C	 2.6316375683	-2.4381651816	 2.0471970194	-0.210098
C	 1.9914663965	-1.4572299448	 3.0619504152	-0.230566
C	 0.9034160384	-0.5916803513	 2.4651270068	-0.212388
C	 0.5689533632	-0.7503458345	 1.1940912725	 0.22039
H	 1.16066196	 1.8409176153	 0.2991769562	 0.122094
H	-0.0623297531	 1.9337603728	-0.9884214417	 0.127417
H	-0.5636040703	 2.0016787825	 0.7103966989	 0.117406
H	-1.0171292393	-0.2540178426	-0.2492719822	 0.077834
H	 0.7619468572	-2.5728542715	-0.0330330059	 0.073616
H	 3.2228928819	-2.5822246072	-0.0535704574	 0.096206
H	 3.2609951038	-0.9301117876	 0.5884009154	 0.103491
H	 2.043150739	-3.3642924831	 2.0217342746	 0.104383
H	 3.628788006	-2.7207913031	 2.3983413734	 0.099319
H	 1.6212141768	-2.0170235996	 3.9308332333	 0.107101
H	 2.7638609187	-0.7843262655	 3.4622713572	 0.109703
H	 0.4934208021	 0.2083261994	 3.0772526135	 0.085982
104.869	149.1192	205.5943	240.7906	263.8245	348.0592	412.6233	426.0097	480.7229	535.929	612.2966	749.1773	788.9973	818.2522	835.7979	860.766	872.0864	925.0751	958.5206	998.1378	1003.7407	1064.0917	1077.909	1091.0152	1096.4364	1109.8579	1143.716	1169.0652	1202.5796	1259.3149	1273.7098	1294.5204	1315.7422	1348.3061	1362.7522	1367.4393	1377.1329	1397.1268	1411.8615	1475.7096	1482.8101	1491.2407	1491.9064	1497.2588	1787.6864	2972.2835	2979.4979	3002.4716	3021.5796	3037.3784	3037.8889	3041.2126	3079.1647	3090.3486	3107.2414	3125.1605	3152.5635
CC1OC2CCCC=C12	C[C@H]1O[C@H]2CCC[CH][C]12	
InChI=1S/C8H12O/c1-6-7-4-2-3-5-8(7)9-6/h4,6,8H,2-3,5H2,1H3	InChI=1S/C8H12O/c1-6-7-4-2-3-5-8(7)9-6/h4,6,8H,2-3,5H2,1H3/t6-,8+/m1/s1
