23
gdb 122076	2.11971	0.83419	0.62611	4.4275	87.74	-0.2425	0.0319	0.2743	1862.9261	0.204453	-384.484654	-384.47341	-384.472466	-384.522152	39.401	
C	 0.1055105772	 1.5865037444	-0.1490364121	-0.381384
C	-0.0457214955	 0.0758806749	 0.0448643373	-0.183737
C	 0.7858099662	-0.4538845732	 1.2119645548	-0.120501
N	 0.6345928518	-1.9032984573	 1.3446446979	-0.304769
C	 1.3557465328	-2.4884141229	 2.4703220532	-0.097193
C	 0.9685661319	-3.9681717955	 2.6833526261	-0.189746
C	-0.4802518768	-4.159441955	 3.1408961745	-0.406767
C	 2.8074603427	-2.3919123994	 2.2251694795	 0.306623
N	 3.9486289234	-2.323298793	 2.05764417	-0.334623
H	 1.1470183122	 1.8561818078	-0.3545229251	 0.122856
H	-0.5011091474	 1.9394601951	-0.9880832151	 0.11661
H	-0.2091837522	 2.1373565056	 0.7441563787	 0.115834
H	-1.1038479634	-0.1677491246	 0.21574272	 0.089561
H	 0.2507943112	-0.4572466101	-0.8652911399	 0.1146
H	 1.8467407914	-0.2403192163	 1.0337355909	 0.128523
H	 0.5100857954	 0.083443289	 2.1397726781	 0.077144
H	-0.3493258406	-2.1273154851	 1.4477901048	 0.220926
H	 1.1705539897	-1.9456198248	 3.4189560808	 0.098412
H	 1.1508357964	-4.5066345545	 1.7478776286	 0.128528
H	 1.646530428	-4.3874303845	 3.4333180009	 0.12281
H	-0.6704144362	-5.2136240026	 3.3615883244	 0.129387
H	-0.6908814633	-3.5861751443	 4.0504229697	 0.122998
H	-1.2043055549	-3.8603744737	 2.375908672	 0.123909
51.3522	66.6668	93.1883	114.1397	140.8649	154.2103	220.0263	237.1554	250.5826	305.4059	347.573	389.0993	471.1936	547.7917	605.3873	733.2232	762.5068	787.1678	864.0998	902.5448	908.3364	954.6094	1013.8445	1042.7026	1060.0926	1106.2325	1112.7388	1156.0799	1165.2103	1196.8617	1265.433	1280.1193	1318.1383	1325.855	1331.8785	1359.6649	1385.5278	1412.5961	1414.4256	1416.5456	1480.3096	1484.5296	1490.664	1499.9906	1500.9526	1505.4517	1514.3853	1523.4725	2359.1053	2898.3171	2918.2851	3010.4101	3033.2116	3034.563	3050.3466	3054.0826	3068.1968	3086.4257	3100.8178	3108.1354	3109.4536	3111.0389	3531.2967
CCCNC(CC)C#N	CCCN[C@@H](CC)C#N	
InChI=1S/C7H14N2/c1-3-5-9-7(4-2)6-8/h7,9H,3-5H2,1-2H3	InChI=1S/C7H14N2/c1-3-5-9-7(4-2)6-8/h7,9H,3-5H2,1-2H3/t7-/m0/s1
