19
gdb 111253	2.63841	1.37984	1.30687	0.3763	69.92	-0.2398	0.0543	0.2942	1072.5335	0.160661	-460.126853	-460.118818	-460.117873	-460.159619	30.713	
O	 0.6752419856	-0.0085816943	 1.4019211602	-0.417337
C	 0.1793201034	 0.0195599002	 0.0668810438	-0.126644
C	-1.2248850442	-0.5644981817	-0.0227025029	 0.000052
C	-2.0339597004	-0.6540940686	-1.3413307964	 0.027831
C	-1.186621172	-1.1457632283	-2.5069045816	-0.074341
O	-0.2036113631	-2.0801374884	-2.063228714	-0.269844
C	-0.5766750807	-2.8607851923	-0.9297168104	-0.074775
C	-1.5262741425	-2.0868939998	-0.0242477732	 0.034723
O	-2.7240584916	-1.8260644979	-0.8130331065	-0.299702
H	 0.8824718147	-0.9220588999	 1.6207885584	 0.282948
H	 0.1424759673	 1.0801482815	-0.2079331026	 0.110447
H	 0.8635808387	-0.4780781008	-0.6293335005	 0.117751
H	-1.8509410965	-0.0926047136	 0.7389127375	 0.099537
H	-2.7171651474	 0.152779004	-1.6206759779	 0.083395
H	-1.8549132914	-1.6049072782	-3.2507130044	 0.107219
H	-0.6375933372	-0.3280758916	-2.9879333071	 0.108415
H	-1.0740423375	-3.7919097401	-1.2401812996	 0.108926
H	 0.3573265698	-3.1229488257	-0.4172172069	 0.098697
H	-1.7425809248	-2.6076580044	 0.9129361641	 0.082701
74.1335	153.6612	214.5733	216.1011	270.1854	310.864	410.7994	442.1263	484.7507	608.6507	671.533	793.2584	843.176	852.9217	885.243	907.2509	950.5358	1002.3198	1011.6281	1032.1961	1044.9168	1066.5634	1087.1064	1128.8649	1152.1468	1178.4373	1211.5638	1238.5804	1250.6862	1267.4715	1318.776	1332.7683	1351.633	1361.002	1372.2726	1403.7106	1420.4407	1422.689	1488.3112	1498.5876	1514.7797	2992.9027	2999.2956	3032.6506	3050.4501	3062.9557	3068.9699	3074.5016	3077.0252	3091.4691	3824.427
OCC1C2COCC1O2	OC[C@H]1[C@H]2COC[C@@H]1O2	
InChI=1S/C6H10O3/c7-1-4-5-2-8-3-6(4)9-5/h4-7H,1-3H2	InChI=1S/C6H10O3/c7-1-4-5-2-8-3-6(4)9-5/h4-7H,1-3H2/t4-,5+,6-
