17
gdb 43696	5.40299	0.68263	0.65641	3.7426	75.15	-0.2689	0.0073	0.2762	1665.8266	0.134266	-421.824743	-421.815841	-421.814897	-421.859348	32.208	
O	 0.1703108715	 0.2200910359	-0.9241253359	-0.310959
C	-0.0086217205	 1.1962487004	-0.2725417926	 0.451775
C	-1.183325995	 2.064337668	 0.1807384785	-0.444545
C	-0.0902078593	 2.8947108093	 0.878761215	 0.130883
C	-0.0893932954	 2.9514213083	 2.3920009361	-0.200853
C	 1.2380633291	 3.4997338737	 2.9548709328	-0.355941
C	 1.2455133111	 3.5629222761	 4.4104615385	 0.288937
C	 1.2236372199	 3.6056189586	 5.6112343583	-0.430531
O	 0.9350009543	 1.9656387539	 0.3638099713	-0.252089
H	-1.7221992829	 2.5498087946	-0.6341927926	 0.147193
H	-1.8909082817	 1.5557824891	 0.8384854876	 0.14587
H	 0.078808395	 3.8816928413	 0.4372049832	 0.100658
H	-0.9210930955	 3.5858930037	 2.7196736146	 0.12185
H	-0.2705187655	 1.9489675845	 2.7951364731	 0.122117
H	 2.0598141102	 2.8647942419	 2.6034148683	 0.15671
H	 1.4250928131	 4.5002720852	 2.5427235121	 0.13128
H	 1.2200834714	 3.6469714956	 6.6721983516	 0.197646
52.4676	91.8146	105.9659	143.0429	222.8968	342.1095	351.2872	425.2475	518.0403	525.66	529.859	621.7108	645.2334	720.9282	782.6602	843.1869	886.9092	931.6937	963.5996	1012.2149	1035.5371	1057.9911	1100.6683	1121.2728	1149.7969	1218.5962	1226.1043	1264.0308	1309.6916	1328.813	1370.8786	1410.7611	1456.9297	1471.533	1485.4087	1943.4128	2241.8203	3021.1529	3042.4035	3059.6615	3066.2458	3088.9511	3093.4827	3147.0432	3507.2217
O=C1CC(CCC#C)O1	O=C1C[C@@H](CCC#C)O1	
InChI=1S/C7H8O2/c1-2-3-4-6-5-7(8)9-6/h1,6H,3-5H2	InChI=1S/C7H8O2/c1-2-3-4-6-5-7(8)9-6/h1,6H,3-5H2/t6-/m1/s1
