16
gdb 123930	3.4863	1.58811	1.13253	3.8927	70.4	-0.2216	-0.0073	0.2143	1024.5575	0.127453	-437.885275	-437.878621	-437.877677	-437.916365	26.276	
C	-0.0136141098	 1.5155298964	-0.0186942539	-0.226976
C	 1.4147095537	 2.0739324418	 0.0381330265	-0.085241
O	 2.110350216	 1.7181713604	 1.2443037762	-0.276955
C	 1.9399902999	 0.4077387869	 1.5442683808	 0.203615
C	 1.0069655305	-0.4231103147	 1.0079640272	 0.310646
C	-0.0261759689	-0.032073045	 0.0139807924	-0.344512
O	 1.1349560074	-1.6504898012	 1.5463474038	-0.224315
N	 2.1784874927	-1.6321148093	 2.4719812139	-0.138568
C	 2.6510399227	-0.406621436	 2.4623114233	-0.085922
H	-0.57749255	 1.9050393781	 0.8356708753	 0.125749
H	-0.4990690827	 1.8852725407	-0.926750884	 0.113462
H	 1.9965697816	 1.7087749577	-0.8207043624	 0.110045
H	 1.410855453	 3.1654781387	 0.0162907107	 0.122048
H	-1.0155040986	-0.4068929062	 0.2970741838	 0.132527
H	 0.1968329924	-0.4487767053	-0.9766541659	 0.127731
H	 3.4766121601	-0.1467579829	 3.1084375521	 0.136666
120.8652	214.9511	300.4163	371.8808	389.7191	453.1689	517.3845	628.4006	681.8862	697.9619	712.2097	863.1588	880.4212	894.4121	903.4868	931.9654	958.9894	1004.8872	1063.0698	1096.4385	1179.4341	1204.8836	1218.2914	1219.6415	1278.2555	1298.0438	1349.0929	1366.5823	1402.3574	1451.4138	1475.8104	1486.4607	1499.488	1521.7608	1689.1715	3005.2648	3024.3871	3050.445	3073.084	3100.2782	3113.5727	3252.0554
C1COC2=C(C1)ON=C2	C1COc2c(C1)onc2	
InChI=1S/C6H7NO2/c1-2-5-6(8-3-1)4-7-9-5/h4H,1-3H2	InChI=1S/C6H7NO2/c1-2-5-6(8-3-1)4-7-9-5/h4H,1-3H2
