18
gdb 69709	3.84508	1.32028	1.20657	4.3447	76.	-0.2183	-0.0123	0.206	1072.4334	0.147199	-401.903113	-401.895342	-401.894398	-401.935198	30.696	
C	-0.0593404867	 1.5360043111	 0.056668807	-0.514562
C	 0.127286909	 0.0522358823	 0.0144302739	 0.350892
N	-0.7799633888	-0.877420345	 0.7280356614	-0.375335
C	 0.6823415472	-0.918743121	 1.0004358537	-0.107785
C	 1.3274735334	-1.7664480474	-0.1187364446	-0.163596
C	 0.7316581447	-0.7606788311	-1.1672577421	-0.086567
C	-0.1379980177	-1.8851878377	-1.7985070934	-0.365424
C	 0.4301935493	-2.8656689175	-0.7452449042	 0.431558
O	 0.2963253343	-4.0357314553	-0.5467564565	-0.302061
H	 0.8415190973	 2.0562103407	-0.2859945488	 0.128027
H	-0.8900467494	 1.8475134761	-0.588058622	 0.131791
H	-0.2780961708	 1.8774919829	 1.0745491497	 0.119726
H	-1.212371294	-0.3565532976	 1.4903675032	 0.228348
H	 1.0563441657	-0.777450706	 2.0073633998	 0.097542
H	 2.3947693947	-1.9651353713	-0.0211317836	 0.090396
H	 1.3892578414	-0.1957173687	-1.8259295334	 0.076752
H	-1.2213886577	-1.7582340837	-1.7695363517	 0.138326
H	 0.171037478	-2.1612289408	-2.8122259481	 0.121974
89.1807	173.8895	206.3902	272.9283	303.8612	398.1329	425.5112	478.4495	557.293	625.5274	656.5826	746.5617	783.4436	823.0949	839.7698	880.438	909.9713	949.8914	966.9343	978.3623	1016.657	1037.8922	1064.9653	1085.0732	1101.6936	1117.7646	1151.6428	1195.7984	1220.5053	1229.8265	1258.1486	1283.8047	1337.4127	1408.9786	1420.1961	1447.1949	1480.8776	1496.7721	1895.4238	3021.5732	3057.542	3084.3671	3095.6387	3117.8252	3128.0595	3132.6168	3184.3911	3474.1537
CC12NC1C1C2CC1=O	C[C@]12N[C@H]1[C@@H]1[C@H]2CC1=O	
InChI=1S/C7H9NO/c1-7-3-2-4(9)5(3)6(7)8-7/h3,5-6,8H,2H2,1H3	InChI=1S/C7H9NO/c1-7-3-2-4(9)5(3)6(7)8-7/h3,5-6,8H,2H2,1H3/t3-,5-,6+,7-/m1/s1
