23
gdb 59411	2.42847	1.03473	0.96352	2.7962	87.49	-0.2465	-0.0194	0.2271	1415.3969	0.202506	-388.30651	-388.295693	-388.294749	-388.342336	39.408	
C	 1.4066935716	 0.90360833	-0.8665479595	-0.383511
C	 1.7823461104	-0.5046065975	-0.3765509524	 0.00059
C	 3.306906051	-0.678813258	-0.3173018654	-0.388184
C	 1.146877693	-0.7662633386	 0.9774828483	 0.015161
C	-0.266763868	-1.2096418045	 1.1323343136	-0.332695
C	 0.8535910312	-2.1789763469	 1.508360043	 0.208025
C	 1.0923457203	-3.4265394351	 0.6806510657	-0.491451
C	 1.080355019	-2.3358932984	 2.9714877986	 0.09773
O	 0.8892553891	-1.4752612062	 3.799155171	-0.275453
H	 1.7843984551	 1.6688074962	-0.1786247209	 0.116914
H	 1.8368450843	 1.1017459372	-1.8537644197	 0.110214
H	 0.3214154089	 1.0246607829	-0.9365621305	 0.116402
H	 1.3808262509	-1.2247864032	-1.100654149	 0.06975
H	 3.7496053748	 0.0218388865	 0.4001708938	 0.117728
H	 3.5840069213	-1.6909046824	-0.0072911122	 0.114071
H	 3.7635684514	-0.4869867224	-1.2937439098	 0.111336
H	 1.4949293198	-0.0996340864	 1.764407151	 0.104542
H	-0.8489296991	-0.8035845812	 1.9520806903	 0.133264
H	-0.8281349805	-1.4594507576	 0.2368885517	 0.111633
H	 0.4329013721	-4.2395643574	 1.0052863548	 0.123895
H	 0.8956602796	-3.2549866788	-0.3795278038	 0.127082
H	 2.1247627672	-3.7822963026	 0.7729890023	 0.124666
H	 1.4583237165	-3.3394141654	 3.2753508889	 0.068291
63.9753	93.9447	129.4623	141.0383	169.9834	219.0491	240.4162	248.9852	301.4113	331.7668	353.811	370.4717	469.4997	478.6426	625.2485	738.8745	759.4984	839.0533	907.8418	926.0195	929.5884	953.5983	962.7942	984.7697	1032.8907	1071.4614	1090.7081	1114.0877	1124.4482	1143.916	1188.4429	1216.0738	1266.9113	1306.574	1323.9376	1346.5317	1397.4369	1413.599	1420.1849	1428.9814	1435.6051	1475.2188	1484.8375	1490.9252	1492.0617	1499.994	1503.5216	1511.2596	1804.1002	2863.7448	3023.8417	3027.1818	3031.1391	3031.7837	3084.8567	3092.8357	3099.2964	3105.3346	3107.6233	3122.2661	3125.6899	3130.963	3220.0317
CC(C)C1CC1(C)C=O	CC(C)[C@H]1C[C@]1(C)C=O	
InChI=1S/C8H14O/c1-6(2)7-4-8(7,3)5-9/h5-7H,4H2,1-3H3	InChI=1S/C8H14O/c1-6(2)7-4-8(7,3)5-9/h5-7H,4H2,1-3H3/t7-,8-/m1/s1
