13
gdb 15483	3.6773	1.80757	1.22116	3.5818	63.96	-0.2606	-0.0814	0.1792	908.7793	0.095932	-398.6304	-398.623555	-398.622611	-398.661746	24.55	
N	 0.2539580689	 1.3100156993	-0.5024863954	-0.543081
C	 0.1274459134	 0.0824538632	-0.2279532016	 0.354382
O	 1.1515482085	-0.8293807641	-0.1347761871	-0.248443
C	 0.6209553248	-2.1176847681	 0.1927020151	-0.137269
C	-0.8567942264	-1.9124939892	 0.2952397223	-0.179785
C	-1.1360001081	-0.6265083362	 0.048413635	 0.15209
C	-2.4676456078	 0.0184930935	 0.0425823192	 0.077124
O	-3.4934089835	-0.5797314983	 0.271810813	-0.261104
H	 1.2324592812	 1.5574201968	-0.6521767612	 0.230295
H	 0.8960103429	-2.8349674978	-0.5923770805	 0.142688
H	 1.0669403936	-2.4665469279	 1.1339201223	 0.142686
H	-1.5696399621	-2.690964304	 0.531955213	 0.153222
H	-2.4530049152	 1.0999668729	-0.189671474	 0.117193
120.3709	174.4296	179.8558	242.4031	371.4583	375.8503	544.079	664.7097	731.1577	783.9608	842.7874	863.9041	873.2478	944.1412	988.261	1031.7598	1055.0661	1082.4724	1166.1445	1197.2191	1240.1192	1335.7442	1387.0437	1432.3829	1490.5814	1672.5409	1765.5495	1797.0576	2966.9464	3014.5888	3043.6606	3238.3994	3491.5225
N=C1OCC=C1C=O	[NH]C1=C([CH]CO1)C=O	
InChI=1S/C5H5NO2/c6-5-4(3-7)1-2-8-5/h1,3,6H,2H2	InChI=1S/C5H5NO2/c6-5-4(3-7)1-2-8-5/h1,3,6H,2H2
