20
gdb 35906	2.90697	1.34245	1.03118	4.3462	82.08	-0.2849	0.0429	0.3278	1184.7242	0.174179	-366.036028	-366.028076	-366.027132	-366.068562	31.25	
N	-0.0434142745	-1.1648653452	-0.1117086513	-0.329346
C	-0.02019485	-0.010710627	-0.0509416397	 0.270116
C	 0.0081879462	 1.4541443965	 0.0353582512	-0.165922
C	-0.815415548	 1.9571620229	 1.2451215678	-0.211104
C	-0.6821848616	 3.4772544295	 1.3727680787	-0.206954
C	 0.758076646	 3.898702579	 1.7047006399	-0.218741
C	 1.8088885523	 3.2013175774	 0.8379475014	-0.040597
C	 2.3339355853	 1.8404155334	 1.2325377835	-0.281696
C	 1.4456510914	 1.9731790066	 0.0261125381	-0.009743
H	-0.486131342	 1.8325073904	-0.8699130008	 0.122614
H	-1.8600194444	 1.664402778	 1.1045457532	 0.117228
H	-0.474181768	 1.4633003853	 2.1624111551	 0.117937
H	-0.9949713284	 3.9406232303	 0.4274955589	 0.09976
H	-1.3651662717	 3.8487961788	 2.1436801172	 0.10089
H	 0.8533089804	 4.9825483008	 1.5856988384	 0.103503
H	 0.9582716521	 3.6920406229	 2.7634103415	 0.105845
H	 2.5299428739	 3.8646846733	 0.3709976166	 0.090672
H	 3.3809870149	 1.6116937376	 1.0693407424	 0.11734
H	 1.9192576141	 1.3886214113	 2.1283572672	 0.118594
H	 1.9324629522	 1.8640168184	-0.9379125394	 0.099603
84.1969	139.6975	189.6462	265.2164	339.7363	358.89	430.2894	437.0501	549.3492	594.2619	609.4757	744.824	777.3885	835.7331	861.5879	884.2253	911.3813	936.2491	970.0247	1005.1453	1042.7195	1063.6718	1067.3549	1101.1251	1123.6439	1138.0507	1154.2007	1195.952	1222.1332	1246.3366	1287.1943	1319.0462	1334.3772	1351.6596	1370.3892	1377.7741	1391.3912	1414.7443	1484.5527	1492.2767	1495.4942	1506.9437	2354.3137	3014.121	3018.9746	3027.1356	3044.4196	3071.3935	3078.1751	3090.545	3130.4706	3147.9214	3157.7282	3215.1302
N#CC1CCCC2CC12	N#C[C@H]1CCC[C@H]2C[C@@H]12	
InChI=1S/C8H11N/c9-5-7-3-1-2-6-4-8(6)7/h6-8H,1-4H2	InChI=1S/C8H11N/c9-5-7-3-1-2-6-4-8(6)7/h6-8H,1-4H2/t6-,7+,8+/m0/s1
