21
gdb 91170	2.61457	1.68881	1.66771	0.3156	85.3	-0.2266	0.0114	0.238	982.9674	0.185948	-349.973023	-349.965762	-349.964818	-350.004041	31.137	
C	-0.1363484477	 1.5490889637	 0.0252461958	-0.414565
C	 0.0319552373	 0.0272877104	 0.0013772177	 0.071685
C	 0.7735321771	-0.481591246	-1.266114241	-0.2133
C	 1.9835736524	-1.3900435572	-0.832886499	-0.107878
C	 2.8615965874	-0.4999223656	 0.0310331696	-0.068296
C	 2.2514659986	-0.0409395057	 1.1224042371	-0.067628
C	 0.8155784344	-0.5148418113	 1.2660935287	-0.108854
C	 0.7837503162	-2.0284263957	 1.1333151927	-0.080876
C	 1.3889609244	-2.4847488586	 0.0388448904	-0.068266
H	 0.8352005547	 2.0531786737	 0.0020049343	 0.118475
H	-0.7108402319	 1.8919750351	-0.8421035268	 0.110502
H	-0.6677493416	 1.8763507351	 0.9261113751	 0.105354
H	-0.9635833825	-0.427198609	 0.0364950047	 0.068981
H	 0.0995017815	-1.0525691661	-1.9111695245	 0.094624
H	 1.1540994886	 0.3599404272	-1.853682126	 0.093265
H	 2.5077325002	-1.7815726315	-1.7059444695	 0.057218
H	 3.8732772464	-0.2495347358	-0.2668183831	 0.088425
H	 2.6982461048	 0.6344538174	 1.8425296682	 0.08944
H	 0.3439286203	-0.161635665	 2.1850101567	 0.054312
H	 0.267142606	-2.6444327118	 1.8602014212	 0.08847
H	 1.4400996634	-3.5268608533	-0.2544569924	 0.08891
143.3648	253.5889	281.7225	360.7581	387.3001	426.5609	468.6727	499.9982	635.2258	655.595	681.1557	704.0793	723.8435	791.5289	821.4761	907.9259	914.9685	932.9786	946.407	953.4415	962.5063	964.8503	993.865	1007.6605	1063.6907	1101.8814	1118.5041	1119.6973	1153.7596	1189.1656	1230.4946	1251.9459	1286.4006	1315.1617	1318.9078	1335.925	1357.1106	1368.8685	1386.3892	1406.6184	1495.3217	1497.4782	1503.8625	1652.781	1696.9772	3025.9709	3036.6973	3046.2306	3086.3356	3087.9688	3092.0649	3095.3981	3104.2872	3180.8477	3182.6324	3204.8948	3208.003
CC1CC2C=CC1C=C2	C[C@H]1C[C@H]2C=C[C@@H]1C=C2	
InChI=1S/C9H12/c1-7-6-8-2-4-9(7)5-3-8/h2-5,7-9H,6H2,1H3	InChI=1S/C9H12/c1-7-6-8-2-4-9(7)5-3-8/h2-5,7-9H,6H2,1H3/t7-,8-,9+/m0/s1
