20
gdb 61181	2.49682	1.01585	0.76415	3.8182	85.42	-0.268	0.03	0.298	1493.2114	0.168165	-366.005196	-365.994687	-365.993743	-366.040912	38.057	
C	 0.0031064286	 1.5720686061	-0.0254066426	-0.417587
C	 0.0056308329	 0.0394238804	-0.0064054144	 0.031299
C	 0.783010565	-0.4980363489	 1.2227493617	-0.380318
C	 2.1897205718	-0.1176430081	 1.2235362557	 0.296802
C	 3.3495336119	 0.1978157189	 1.2034965842	-0.432656
C	-1.4403475055	-0.5337425264	-0.0249039146	-0.134562
C	-2.2824139267	-0.0605102598	-1.2279455279	-0.410574
C	-1.4181093129	-2.002005144	-0.0015621877	 0.275853
N	-1.4007166591	-3.1580548619	 0.0019939602	-0.333809
H	 1.0247504231	 1.945581072	 0.0778651951	 0.142733
H	-0.405800759	 1.9711462105	-0.9563891594	 0.122908
H	-0.5875515279	 1.9750137729	 0.8065944508	 0.115079
H	 0.5172248437	-0.3248824443	-0.9055905756	 0.104368
H	 0.3036262121	-0.1287485265	 2.1403471117	 0.127941
H	 0.7078661717	-1.5911596262	 1.2544415992	 0.159595
H	 4.3769388771	 0.4659869793	 1.197835251	 0.197588
H	-1.9432187866	-0.2115102669	 0.8978814501	 0.124132
H	-1.7815744121	-0.3014761886	-2.170135922	 0.138339
H	-3.2590418255	-0.5502773873	-1.2280603919	 0.140531
H	-2.4421761928	 1.018187299	-1.1834648936	 0.132338
63.151	68.7259	123.1417	161.3106	209.1599	212.6808	262.6604	293.2813	345.7674	351.9999	366.2646	411.8917	489.4282	574.547	594.3337	618.5146	646.24	805.6104	855.2489	893.011	916.8224	975.5958	981.428	1055.1073	1092.1089	1114.8834	1144.9386	1154.5565	1239.065	1284.9262	1327.2995	1331.247	1362.2442	1373.9627	1410.1887	1416.7634	1471.6084	1493.3685	1493.9041	1498.9049	1513.0515	2238.2737	2352.1929	3011.75	3012.6572	3030.8875	3043.7069	3053.1278	3065.6641	3107.8707	3126.4848	3127.9782	3140.5197	3505.8392
CC(CC#C)C(C)C#N	C[C@@H](CC#C)[C@@H](C)C#N	
InChI=1S/C8H11N/c1-4-5-7(2)8(3)6-9/h1,7-8H,5H2,2-3H3	InChI=1S/C8H11N/c1-4-5-7(2)8(3)6-9/h1,7-8H,5H2,2-3H3/t7-,8-/m0/s1
