17
gdb 51031	2.01255	1.46217	1.02229	2.9125	74.27	-0.2529	-0.0344	0.2185	1187.9294	0.133026	-421.770897	-421.761649	-421.760705	-421.806217	32.66	
O	-0.6773574021	 1.3857466441	 0.879200295	-0.240487
C	 0.0535477222	 1.1198976654	-0.041388953	 0.1556
C	 1.3916379209	 1.7930557628	-0.2704990039	-0.338421
C	 1.2834190465	 2.895931299	-1.3518269942	 0.066323
C	 0.5286683303	 4.1606929888	-0.8348437655	-0.113934
O	 1.7708935063	 4.8518603111	-0.6073764968	-0.267693
C	 2.5100188132	 3.8585657811	-1.3346795415	-0.116395
C	 0.8854306759	 2.3665554294	-2.6432651785	 0.27094
C	 0.5623038338	 1.9319374314	-3.7170134264	-0.440768
H	-0.2371293036	 0.3699289248	-0.8080437904	 0.096219
H	 1.7179532993	 2.2496615434	 0.6679249018	 0.135957
H	 2.1282993811	 1.0482555882	-0.5930905353	 0.120645
H	-0.0838469275	 4.6491822507	-1.6016939682	 0.112102
H	-0.0530892089	 4.0281679324	 0.082525804	 0.133552
H	 3.392070834	 3.5073539235	-0.7877620344	 0.111958
H	 2.8047101097	 4.2038956445	-2.3333426599	 0.111586
H	 0.2717536389	 1.5524713893	-4.6657003128	 0.202815
34.4868	75.9632	103.286	157.157	178.237	236.9707	346.0954	359.371	504.3226	524.5446	540.1334	610.5049	640.2494	642.6468	824.3695	870.5126	917.8788	954.3257	973.7245	981.8098	1033.8168	1042.4032	1093.1279	1150.5521	1158.9583	1170.1848	1223.0432	1283.9419	1306.1965	1315.1142	1372.0129	1424.915	1469.3814	1508.7523	1533.2178	1825.6996	2232.8176	2905.1681	3016.6313	3031.0458	3041.8174	3073.475	3092.1043	3111.6024	3499.2123
O=CCC1(COC1)C#C	O=CCC1(COC1)C#C	
InChI=1S/C7H8O2/c1-2-7(3-4-8)5-9-6-7/h1,4H,3,5-6H2	InChI=1S/C7H8O2/c1-2-7(3-4-8)5-9-6-7/h1,4H,3,5-6H2
