14
gdb 25421	6.93677	0.86017	0.76527	3.8683	85.04	-0.2213	-0.0377	0.1836	1378.5467	0.101136	-399.573024	-399.565121	-399.564177	-399.605585	29.305	
O	-0.0245841306	-0.0749093685	-0.0028179235	-0.286736
C	 0.0021047831	 1.1375733091	 0.0075352221	 0.06954
C	 1.2182713901	 1.9439681948	 0.0008501598	 0.195575
C	 2.515351126	 1.4441003297	-0.0182111428	-0.140561
N	 3.365554805	 2.4951091817	-0.0186672312	-0.3143
C	 2.65839173	 3.6928441347	-0.0000720824	 0.211701
C	 1.3169512902	 3.3635890168	 0.0122038041	-0.379455
C	 3.3170963412	 4.9371586879	 0.0034082767	 0.26069
C	 3.8977521317	 5.993107753	 0.0061149579	-0.436067
H	-0.9401733815	 1.7300040738	 0.0233631469	 0.065011
H	 2.8590611316	 0.4228920801	-0.0310697838	 0.159299
H	 4.3707337444	 2.439727924	-0.0305621748	 0.277023
H	 0.5009132047	 4.0692289082	 0.0276381717	 0.120878
H	 4.3983525041	 6.9295480946	 0.0086817593	 0.197401
90.5778	125.5261	191.1617	215.6818	276.4538	425.5112	456.1236	530.6788	538.6856	565.0865	636.1984	649.0933	682.4152	687.1863	770.5931	809.2019	845.4566	981.7054	1004.4707	1042.5378	1136.5088	1160.4998	1242.104	1349.1443	1377.9964	1433.8824	1460.3421	1514.6902	1597.3787	1785.0297	2228.9383	2878.4143	3259.316	3278.4999	3501.7662	3664.773
O=CC1=CNC(=C1)C#C	O=Cc1c[nH]c(c1)C#C	
InChI=1S/C7H5NO/c1-2-7-3-6(5-9)4-8-7/h1,3-5,8H	InChI=1S/C7H5NO/c1-2-7-3-6(5-9)4-8-7/h1,3-5,8H
