21
gdb 41239	2.83059	2.02843	1.64402	0.0632	85.63	-0.256	0.0962	0.3522	922.7306	0.186562	-349.892397	-349.886073	-349.885129	-349.92253	28.409	
C	-0.0216335037	 1.4942324721	-0.255630518	-0.271755
C	 1.4985069282	 1.5974716211	 0.1271208696	-0.35271
C	 1.3223840937	 0.2856323611	 0.9144195374	 0.338122
C	 1.9498789695	-1.1057004083	 1.1192936692	-0.330848
C	 0.6820717036	-1.3040456639	 1.9973137269	-0.027425
C	-0.6720595166	-0.7850379159	 1.2661630368	-0.079218
C	-0.7914016512	 0.2674076983	 2.3934414574	-0.248522
C	 0.7416387786	 0.2027901209	 2.3917832938	-0.060533
C	 0.0322163169	-0.0207817126	 0.1367151885	 0.026358
H	-0.6560017532	 2.1054213755	 0.3889181804	 0.106727
H	-0.2792665967	 1.7089303041	-1.294971722	 0.094593
H	 2.1463479889	 1.4793454324	-0.7472014974	 0.102149
H	 1.8238041867	 2.4801512749	 0.684532508	 0.094886
H	 2.1186617915	-1.7203731048	 0.2292430267	 0.088015
H	 2.8377433684	-1.1269859497	 1.7604763354	 0.092469
H	 0.5815263613	-2.1013372841	 2.7333711368	 0.066749
H	-1.4928675056	-1.4640006541	 1.0333098765	 0.054428
H	-1.3180900886	 1.2028271772	 2.1852468178	 0.089482
H	-1.1858294806	-0.1676036305	 3.3171463897	 0.093517
H	 1.3754296565	 0.5780674327	 3.1961242034	 0.060614
H	 0.2085085724	-0.6422931266	-0.746165467	 0.062902
209.0425	289.3612	384.9993	425.8364	467.2481	545.5192	623.1303	674.6147	693.2803	771.6728	782.8805	817.2409	850.8445	868.7213	899.4099	915.4235	921.2535	938.7684	977.6702	1003.6572	1013.4388	1026.9753	1038.694	1052.3693	1069.9387	1103.5135	1135.8267	1150.684	1175.7703	1185.9978	1197.6808	1216.2905	1226.0618	1233.5663	1247.4099	1255.9176	1262.1161	1283.0962	1301.889	1319.9875	1354.8867	1474.1335	1488.18	1497.7038	1514.6999	3034.8148	3047.6587	3048.1943	3057.1845	3072.4253	3089.477	3095.0341	3096.494	3105.7425	3105.9506	3123.2028	3127.7691
C1CC23CC4C(CC24)C13	C1C[C@@]23C[C@@H]4[C@@H](C[C@H]24)[C@@H]13	
InChI=1S/C9H12/c1-2-9-4-6-5(7(1)9)3-8(6)9/h5-8H,1-4H2	InChI=1S/C9H12/c1-2-9-4-6-5(7(1)9)3-8(6)9/h5-8H,1-4H2/t5-,6-,7-,8+,9+/m1/s1
