19
gdb 58848	2.5698	1.43804	1.07898	4.1393	74.75	-0.272	0.004	0.276	1165.8847	0.157912	-423.032144	-423.023279	-423.022335	-423.065853	33.272	
C	-0.040928488	 1.5871840621	 0.259850343	-0.393246
C	 0.0198918352	 0.0653590044	 0.043903245	-0.082258
C	 0.912276174	-0.6196837417	 1.0863619154	-0.406212
C	-1.3796176714	-0.5025815859	-0.0028768296	 0.131654
C	-2.2359556786	-0.9519622392	 1.199198882	-0.339627
C	-1.9961838715	-1.8790872552	 0.0652573792	 0.025285
O	-2.9353316567	-1.5656469821	-1.0036443909	-0.266663
C	-2.3428441091	-0.3173458469	-1.1540714358	 0.441827
O	-2.5679140933	 0.4944833314	-1.9924425478	-0.336333
H	 0.9612682862	 2.0243900654	 0.2103096041	 0.112493
H	-0.6626338049	 2.0635239183	-0.502946509	 0.146019
H	-0.4650973203	 1.8234457588	 1.242172479	 0.115185
H	 0.4635593219	-0.1133511241	-0.9450818827	 0.092641
H	 0.5638880753	-0.4226749807	 2.1060626771	 0.120115
H	 0.9487250929	-1.7044912046	 0.9409323158	 0.114725
H	 1.9353400133	-0.2391914585	 1.0127188136	 0.123406
H	-1.6658307237	-1.1368471264	 2.1043981065	 0.131672
H	-3.2319424773	-0.5493140673	 1.3542683975	 0.137132
H	-1.5681120242	-2.8711799778	 0.0702138175	 0.132187
54.0905	134.0615	193.8348	203.7998	242.95	267.3138	296.0001	369.9444	429.2087	474.086	556.4825	644.3801	694.2268	784.7246	847.8616	871.4842	906.1666	922.717	934.9529	937.491	968.8213	1019.0113	1041.3877	1066.409	1080.1799	1131.1896	1142.4893	1181.8967	1236.9998	1259.9022	1344.8477	1359.2332	1398.5155	1401.0195	1423.6474	1480.1811	1490.0416	1493.6411	1506.1338	1514.556	1932.1185	3011.1467	3031.2243	3034.973	3098.1404	3102.1025	3108.2196	3120.8354	3125.7291	3216.5384	3228.6605
CC(C)C12CC1OC2=O	CC(C)[C@]12C[C@H]1OC2=O	
InChI=1S/C7H10O2/c1-4(2)7-3-5(7)9-6(7)8/h4-5H,3H2,1-2H3	InChI=1S/C7H10O2/c1-4(2)7-3-5(7)9-6(7)8/h4-5H,3H2,1-2H3/t5-,7-/m1/s1
