13
gdb 23934	8.95966	0.68051	0.63247	6.0337	96.81	-0.2268	-0.0562	0.1706	1622.4596	0.091713	-378.50394	-378.496447	-378.495503	-378.536589	27.337	
N	 0.1653122235	-3.7060091323	-0.0199519053	-0.341832
C	 0.0979882162	-2.5442363006	-0.0126050538	 0.155297
C	 0.0247038431	-1.1859354657	-0.0040874738	 0.207377
C	-0.0447822329	 0.0266466828	 0.0035679202	-0.018022
C	-0.1070270974	 1.4218735024	 0.0121435346	 0.112892
C	-1.199824932	 2.2844706404	 0.0314190854	-0.244795
C	-0.7025279575	 3.6031854217	 0.0321568784	-0.125762
C	 0.6782860858	 3.5255018848	 0.0134174553	-0.086927
N	 1.0301082455	 2.2119699336	 0.0014617655	-0.305263
H	-2.2317651064	 1.9716622128	 0.0433579637	 0.119242
H	-1.2825035383	 4.5123966445	 0.0448965714	 0.114175
H	 1.4277438175	 4.3007026891	 0.007787661	 0.135696
H	 1.969316863	 1.8521666364	-0.0129770027	 0.277922
77.0108	83.6546	210.1416	232.9093	432.8744	456.4838	509.9208	512.7327	569.0093	595.3423	622.9039	678.5356	750.506	822.8015	881.8993	887.5588	915.1368	1026.257	1069.8988	1132.5929	1147.3122	1274.4921	1327.679	1425.6226	1454.3313	1481.6455	1591.6485	2248.5202	2363.5653	3253.9508	3266.6877	3277.5092	3676.2918
N#CC#CC1=CC=CN1	N#CC#Cc1ccc[nH]1	
InChI=1S/C7H4N2/c8-5-1-3-7-4-2-6-9-7/h2,4,6,9H	InChI=1S/C7H4N2/c8-5-1-3-7-4-2-6-9-7/h2,4,6,9H
