19
gdb 107560	2.26528	1.6411	1.23462	2.2395	76.07	-0.229	0.0186	0.2476	1098.4193	0.16	-419.21155	-419.202968	-419.202024	-419.244495	33.097	
C	 1.0815474545	-0.6368887083	 1.5779984283	-0.387259
C	 0.228269393	-0.299210877	 0.3480845876	-0.300364
C	 0.9246215647	-0.5900400562	-0.9549305573	 0.332207
O	 0.0955692438	-0.8128974841	-2.1181400257	-0.30067
C	 0.9593223151	-1.871185239	-1.6803763394	-0.036881
C	 2.2809552096	-1.9119690847	-2.4319713654	-0.188779
N	 2.9314070488	-0.6129518811	-2.2100042458	-0.302113
C	 2.2187661404	 0.065611655	-1.390009966	 0.331991
N	 2.599613718	 1.2831830294	-0.8738471752	-0.575257
H	 1.3394262884	-1.7005445787	 1.5965339161	 0.120987
H	 2.0135404852	-0.0646298038	 1.5796621494	 0.138583
H	 0.5392446734	-0.4056598291	 2.499245658	 0.117483
H	-0.707785048	-0.866854991	 0.3573048912	 0.118015
H	-0.0618798233	 0.7602740008	 0.3768389175	 0.097228
H	 0.4581291217	-2.7685399866	-1.3263761881	 0.095892
H	 2.9181624709	-2.724521829	-2.0584384843	 0.106467
H	 2.1360644475	-2.0804178265	-3.505551575	 0.119097
H	 3.389777648	 1.6973649721	-1.3494701657	 0.258376
H	 1.8567546184	 1.9381709976	-0.6800399705	 0.254999
89.5621	141.0105	191.2253	219.8327	279.0389	303.6347	370.5519	419.4481	442.4595	479.4357	563.4108	619.491	674.8	726.9523	776.791	795.5167	835.2986	904.8409	932.1147	964.8802	972.7234	1007.3781	1066.0969	1077.8743	1121.5689	1172.7276	1204.4442	1212.184	1269.5498	1303.4579	1323.7787	1355.3271	1412.3681	1420.2635	1441.7306	1476.6938	1489.2101	1500.1807	1513.2094	1626.884	1714.2474	3014.6869	3021.8456	3041.941	3061.3891	3074.9295	3111.1226	3120.3582	3146.4148	3558.5734	3668.3745
CCC12OC1CN=C2N	CC[C@]12O[C@H]1CN=C2N	
InChI=1S/C6H10N2O/c1-2-6-4(9-6)3-8-5(6)7/h4H,2-3H2,1H3,(H2,7,8)	InChI=1S/C6H10N2O/c1-2-6-4(9-6)3-8-5(6)7/h4H,2-3H2,1H3,(H2,7,8)/t4-,6-/m0/s1
