22
gdb 100196	2.28526	1.28161	1.16821	1.7287	83.03	-0.2172	-0.0286	0.1886	1238.5059	0.191069	-404.324774	-404.314382	-404.313437	-404.360393	38.015	
C	 0.2934951463	 1.1813474628	 1.2257086415	-0.407015
C	-0.0029956572	-0.2012193608	 0.6343432695	-0.186481
C	-1.3790971312	-0.403452227	-0.0642614298	 0.155543
C	-2.5462523338	-0.1241115869	 0.9024247924	-0.418059
C	-1.4800314265	 0.6063382809	-1.2113974326	 0.152107
O	-1.358122616	 0.3726823894	-2.3880529963	-0.269087
N	-1.4500804685	-1.8247307503	-0.4074870536	-0.091258
C	-2.2668405174	-2.343720112	-1.4954508789	-0.236639
C	-0.7760014876	-2.4171507157	-1.5567847093	-0.22928
H	 1.2677625501	 1.1673575261	 1.7236486529	 0.123017
H	 0.3333037705	 1.9650122872	 0.4627723065	 0.121654
H	-0.4489756395	 1.4775697699	 1.9726148184	 0.122388
H	 0.7764521785	-0.4627076484	-0.0908717039	 0.110534
H	 0.0420194422	-0.9617641764	 1.4216319327	 0.115539
H	-2.5883035054	 0.9257706637	 1.2046503856	 0.118358
H	-3.5002581819	-0.3791944097	 0.4305563164	 0.125972
H	-2.4345843555	-0.7429956749	 1.7959485393	 0.132746
H	-1.6864664466	 1.6479708859	-0.8693015016	 0.081941
H	-2.8539300029	-3.2256352923	-1.2504366335	 0.108648
H	-2.7402722921	-1.6483261193	-2.1815988552	 0.126945
H	-0.2949654362	-1.7682449704	-2.2795533005	 0.135777
H	-0.2648036395	-3.3549974018	-1.3519429401	 0.106651
41.6205	86.0177	104.0892	199.1158	219.3853	237.1588	253.2315	287.5199	321.6557	323.059	370.0594	397.0525	482.8174	613.0278	681.3112	780.0458	832.6443	851.005	874.5354	925.0896	951.6684	986.6623	1013.259	1033.7164	1045.5644	1079.3699	1115.2218	1133.8601	1166.8662	1175.0387	1176.0129	1204.7818	1220.2798	1309.1432	1337.9728	1361.7744	1399.1656	1416.5938	1434.6228	1481.8912	1482.5709	1488.618	1499.349	1506.8256	1507.3488	1511.3194	1821.059	2845.6511	3035.4242	3040.8336	3044.6019	3073.2692	3105.725	3106.0657	3110.0861	3110.6694	3115.5736	3128.7759	3196.033	3215.7783
CCC(C)(C=O)N1CC1	CC[C@@](C)(C=O)N1CC1	
InChI=1S/C7H13NO/c1-3-7(2,6-9)8-4-5-8/h6H,3-5H2,1-2H3	InChI=1S/C7H13NO/c1-3-7(2,6-9)8-4-5-8/h6H,3-5H2,1-2H3/t7-/m0/s1
