20
gdb 15337	3.51185	1.02506	0.85869	0.1859	85.45	-0.2246	0.0576	0.2823	1420.0067	0.175319	-311.843143	-311.833386	-311.832442	-311.879503	34.105	
C	-0.0798964118	 1.5566617638	-0.3461227153	-0.373568
C	-0.0502156974	 0.1383031513	 0.2345565581	-0.196852
C	-1.4025621498	-0.5387454999	 0.1869999411	 0.021528
C	-1.8707277514	-1.2444490299	-1.0537768304	-0.288057
C	-1.5340163302	-2.0585288519	 0.1896765035	-0.206443
C	-0.3796130017	-2.9108250537	 0.2151501086	 0.097035
C	 0.5811911753	-3.6383684773	 0.2502985579	 0.046253
C	 1.7386690983	-4.5209438116	 0.2891116266	-0.497847
H	 0.9082157491	 2.0248350316	-0.296926489	 0.110234
H	-0.3968924252	 1.5470026054	-1.3943121319	 0.116611
H	-0.7787294793	 2.1969105541	 0.203839724	 0.111675
H	 0.6774862814	-0.4743094543	-0.3087804015	 0.106844
H	 0.3005615033	 0.1726394631	 1.2740866305	 0.098459
H	-2.1772221581	-0.0288491136	 0.7557478946	 0.083647
H	-2.9133913307	-1.1772607204	-1.3440952839	 0.111915
H	-1.1745687163	-1.318410979	-1.8823525158	 0.119852
H	-2.3895140571	-2.4458265743	 0.7366482822	 0.103938
H	 1.4612956131	-5.5216385527	 0.6394202587	 0.146333
H	 2.1897889464	-4.6345558644	-0.703261849	 0.144319
H	 2.514469762	-4.1400634762	 0.963171571	 0.144125
16.2944	73.0744	82.81	133.1336	199.4856	223.7738	270.2991	303.5621	377.8129	409.6041	509.5785	586.2418	702.2234	760.3165	795.1685	848.2929	909.8893	939.2044	971.4156	1023.7428	1051.498	1053.9186	1065.2068	1078.1957	1108.9642	1137.2031	1182.4709	1200.4348	1245.5087	1291.4798	1343.0374	1388.838	1409.1599	1415.3146	1423.3431	1477.9899	1480.3802	1480.8352	1491.7177	1498.3667	1508.2551	2364.7467	3021.9774	3025.112	3029.9458	3065.9379	3079.7604	3082.2653	3097.7745	3103.2604	3125.9143	3131.9712	3138.5467	3221.1048
CCC1CC1C#CC	CC[C@H]1C[C@H]1C#CC	
InChI=1S/C8H12/c1-3-5-8-6-7(8)4-2/h7-8H,4,6H2,1-2H3	InChI=1S/C8H12/c1-3-5-8-6-7(8)4-2/h7-8H,4,6H2,1-2H3/t7-,8+/m0/s1
