19
gdb 115668	2.32331	1.04847	0.78817	2.001	81.61	-0.2405	0.0297	0.2702	1512.2162	0.156436	-422.963331	-422.953021	-422.952076	-423.001033	34.65	
C	 0.3531788946	 1.5196690248	 0.0410854214	-0.240655
O	-0.2583840753	 0.3318904225	-0.4146783511	-0.23043
C	 0.5807966552	-0.4485466056	-1.2057388563	 0.098393
C	 1.6233510537	-1.3533914684	-0.5109227956	-0.105044
O	 1.0902047945	-2.5242240449	-1.1625168743	-0.274178
C	-0.0458205308	-1.7865356428	-1.6972179025	-0.150669
C	-1.3205041446	-2.1710830731	-1.1213492371	 0.16558
C	-2.3789288102	-2.5114637244	-0.6594174021	 0.044514
C	-3.6545502471	-2.9173547955	-0.0904751628	-0.499169
H	 1.2194119409	 1.3156091329	 0.6882612737	 0.110971
H	 0.689072561	 2.1495820313	-0.7974755196	 0.10807
H	-0.3953271863	 2.0662685781	 0.6187059954	 0.13336
H	 1.0044207019	 0.1418968444	-2.0311767805	 0.076367
H	 2.6785871496	-1.1927248456	-0.757540139	 0.101665
H	 1.4972252353	-1.3929754164	 0.5791878795	 0.106879
H	-0.0790724515	-1.885672603	-2.7892408341	 0.102599
H	-4.4097374835	-3.0697151655	-0.8693886243	 0.148318
H	-3.5549596029	-3.8576951071	 0.4629664731	 0.152503
H	-4.0378393445	-2.1621831819	 0.6045025763	 0.150924
21.28	60.2106	70.5603	89.5429	140.1185	189.816	213.8197	299.4341	330.2316	399.4907	439.3882	482.6249	578.2821	738.5122	797.7252	884.2233	964.0251	967.0942	1015.7268	1050.5505	1053.6781	1058.8137	1084.0205	1160.8411	1173.3254	1183.9477	1196.6561	1230.6345	1262.8184	1274.2429	1334.0264	1359.2787	1401.1942	1412.9753	1475.7472	1477.8853	1483.1324	1489.7369	1507.3987	1514.0449	2369.7366	2975.0823	2993.884	3011.9325	3024.5134	3027.2261	3027.6373	3070.1808	3089.0739	3089.7126	3121.5861
COC1COC1C#CC	CO[C@H]1CO[C@H]1C#CC	
InChI=1S/C7H10O2/c1-3-4-6-7(8-2)5-9-6/h6-7H,5H2,1-2H3	InChI=1S/C7H10O2/c1-3-4-6-7(8-2)5-9-6/h6-7H,5H2,1-2H3/t6-,7-/m0/s1
