14
gdb 19927	4.54025	2.20566	1.79184	2.4246	62.44	-0.2504	-0.0193	0.231	726.3652	0.108476	-382.46671	-382.460975	-382.46003	-382.496414	22.679	
C	-0.0683724785	 1.4114901167	 0.0909980939	-0.139208
O	 1.3927902334	 1.4507355052	 0.0420534272	-0.297942
C	 1.4414501121	 0.2074308846	-0.7332840508	 0.097967
C	 2.1629688112	-1.0624286227	-0.3019222963	-0.012236
O	 2.0050206847	-1.4788889592	 1.0453560204	-0.238387
C	 1.0870984314	-2.0250945223	 0.0709689025	 0.008349
C	-0.2100754464	-1.2670818141	 0.1331251654	-0.204109
C	 0.0197673734	-0.0369371878	-0.3262674998	 0.145415
H	-0.4595207033	 1.6220912178	 1.0909717598	 0.128214
H	-0.5052210255	 2.1050265987	-0.638841315	 0.110299
H	 1.6534662998	 0.4279324693	-1.7878047175	 0.083155
H	 3.0842061179	-1.3755364393	-0.7847200507	 0.100131
H	 1.1671030584	-3.0966384942	-0.083238766	 0.1055
H	-1.0659605987	-1.6110222527	 0.7004871069	 0.112852
194.2073	205.1176	358.2053	456.3029	526.4198	671.0587	724.2023	770.1118	817.5227	837.4765	872.1728	890.0491	910.761	951.395	968.1709	1005.5836	1021.5304	1059.6592	1101.3465	1131.3988	1138.6888	1224.5394	1247.8596	1277.9857	1314.3531	1324.5942	1335.5322	1398.212	1510.6122	1710.9629	3015.2481	3021.6353	3086.5738	3155.3565	3169.5559	3210.9425
C1OC2C3OC3C=C12	C1O[C@H]2[C@H]3O[C@H]3[CH][C]12	
InChI=1S/C6H6O2/c1-3-2-7-5(3)6-4(1)8-6/h1,4-6H,2H2	InChI=1S/C6H6O2/c1-3-2-7-5(3)6-4(1)8-6/h1,4-6H,2H2/t4-,5+,6-/m0/s1
