20
gdb 57868	2.13624	1.3275	0.94851	1.9789	78.49	-0.2431	-0.038	0.2051	1309.8946	0.16786	-440.324438	-440.313541	-440.312597	-440.361018	37.255	
C	 0.2513900602	 1.3585170278	 1.2520423601	-0.400611
C	-0.1646777428	 0.5022429194	 0.0492115286	-0.197191
C	 0.7302439406	-0.7248977875	-0.0529528859	 0.169133
O	 1.2314743535	-1.1318516921	-1.0706900539	-0.251044
C	-1.6261357628	 0.0191872142	 0.2273358704	 0.394671
O	-2.1261978689	-0.0033972376	 1.3400824729	-0.377461
N	-2.2960193832	-0.3881287289	-0.8938096709	-0.085282
C	-3.6972878012	-0.7634313957	-0.7680085113	-0.345891
C	-1.7792870046	-0.3507768786	-2.2543760999	-0.3591
H	 1.2919151665	 1.6814735945	 1.151106	 0.116025
H	-0.3825673979	 2.2449319356	 1.3257344782	 0.133966
H	 0.1365467862	 0.79659977	 2.1807638343	 0.147719
H	-0.0563540396	 1.0650284363	-0.8802776122	 0.107608
H	 0.8924930141	-1.2454442095	 0.9170743792	 0.099329
H	-4.3351801274	-0.0705289336	-1.3317437022	 0.122826
H	-3.8568143674	-1.7735705666	-1.1627807378	 0.125859
H	-3.9711560487	-0.7338593319	 0.2846280822	 0.170804
H	-0.6927705663	-0.3993305091	-2.2777184678	 0.173782
H	-2.1556937457	-1.2245702372	-2.7965557881	 0.132615
H	-2.1181624547	 0.5465620205	-2.7913968359	 0.122241
58.8972	79.79	97.5193	125.3754	148.6554	175.5036	209.2878	245.7163	264.1858	301.6158	353.6353	405.0705	475.8544	490.044	626.1829	710.9722	761.0943	904.6449	955.8343	973.6212	1078.4008	1087.3898	1090.3858	1131.7402	1144.3001	1158.3752	1179.6222	1255.9893	1280.8436	1339.9968	1404.8491	1412.0855	1424.5004	1435.4225	1482.1974	1487.2888	1493.3466	1497.2097	1504.8694	1510.2546	1537.5704	1749.1332	1818.8847	2890.8431	3003.8696	3018.0617	3051.4542	3067.73	3075.352	3091.9002	3124.5128	3143.6832	3170.968	3175.3213
CC(C=O)C(=O)N(C)C	C[C@@H](C=O)C(=O)N(C)C	
InChI=1S/C6H11NO2/c1-5(4-8)6(9)7(2)3/h4-5H,1-3H3	InChI=1S/C6H11NO2/c1-5(4-8)6(9)7(2)3/h4-5H,1-3H3/t5-/m0/s1
