21
gdb 119459	4.92166	0.78027	0.75412	1.236	79.25	-0.2461	0.0767	0.3228	1583.9056	0.180803	-424.190239	-424.180574	-424.17963	-424.225168	35.6	
C	 0.0059722863	 1.6190621432	 0.1659164548	-0.403306
C	-0.0078619524	 0.0988234545	 0.10140018	 0.011113
C	 0.8460579599	-0.6138738603	-1.0145503952	-0.318224
C	 1.6190976039	-1.3454542536	 0.1001802665	 0.429523
C	 2.2966936835	-2.6782269281	 0.061668887	-0.307047
C	 3.5911076921	-2.6512090299	-0.7490172654	-0.07076
O	 4.1174836024	-3.9690586203	-0.7543224821	-0.42049
O	 2.2093613383	-0.3113376441	 0.9138635579	-0.295508
C	 0.836549348	-0.6597854543	 1.1426870418	-0.065531
H	 1.0346086103	 1.9834225117	 0.2373706834	 0.132631
H	-0.4520814163	 2.0565205632	-0.7275203184	 0.112548
H	-0.5481400032	 1.984856985	 1.0375498963	 0.112155
H	-1.0334627775	-0.2843837976	 0.089582949	 0.074916
H	 0.2501596024	-1.2791728931	-1.6444494065	 0.103447
H	 1.4561952657	 0.0374630108	-1.6460045152	 0.103552
H	 2.5247000015	-3.0023153539	 1.0822824892	 0.116879
H	 1.6229864527	-3.4234549388	-0.3778193856	 0.109999
H	 3.3832414485	-2.3001227113	-1.7729479549	 0.087421
H	 4.2904033068	-1.9363049256	-0.2907226561	 0.105719
H	 4.9596015794	-3.9543431827	-1.2180192286	 0.286363
H	 0.5708096677	-0.9679448548	 2.1489467419	 0.094599
65.4755	90.8695	92.5653	180.2179	236.7565	251.5787	261.1178	324.0255	359.7462	388.3215	437.7892	592.0422	691.98	722.7243	787.0806	811.2391	862.6209	904.6179	920.685	936.147	1000.1431	1008.0057	1032.2561	1068.2777	1077.6178	1111.5622	1121.2936	1182.8987	1193.7528	1217.7358	1232.668	1247.3359	1260.4456	1287.194	1319.6177	1334.8878	1362.7707	1401.8169	1452.7397	1461.8995	1475.1637	1486.9114	1494.1027	1504.0955	1528.7695	2968.3999	3009.1399	3031.3809	3040.064	3053.0847	3060.5729	3090.6521	3093.5654	3115.0557	3118.8132	3168.6315	3832.4426
CC1CC2(CCO)OC12	C[C@H]1C[C@@]2(CCO)O[C@@H]12	
InChI=1S/C7H12O2/c1-5-4-7(2-3-8)6(5)9-7/h5-6,8H,2-4H2,1H3	InChI=1S/C7H12O2/c1-5-4-7(2-3-8)6(5)9-7/h5-6,8H,2-4H2,1H3/t5-,6-,7+/m0/s1
