21
gdb 118886	3.00465	1.09289	0.97433	1.0827	78.86	-0.2494	0.0859	0.3353	1319.2151	0.180443	-424.176242	-424.166807	-424.165863	-424.210615	35.003	
C	-0.0875616098	 1.3903950236	 0.109964806	-0.223232
O	-0.0404959145	-0.015374276	 0.1241225565	-0.242057
C	-1.3014764543	-0.6117015486	-0.1105711385	-0.10747
C	-1.1402633237	-2.1229782078	-0.04067271	 0.288807
C	-0.2237133519	-2.6560439813	-1.1388967008	-0.459503
C	-0.7879393315	-2.7037045804	 1.3858907984	-0.298446
C	-2.1201361842	-3.4606557746	 1.3585319358	 0.036273
O	-3.1641202317	-2.4850996757	 1.2256034162	-0.250624
C	-2.4740388287	-2.9038700998	 0.0440902637	-0.030834
H	 0.9226638706	 1.7554408396	 0.3118472238	 0.12468
H	-0.4170391729	 1.7790719375	-0.8670128933	 0.102067
H	-0.7691306705	 1.7847749693	 0.8803057977	 0.104971
H	-2.0316603012	-0.2824262926	 0.6431659418	 0.103063
H	-1.6867376195	-0.3148439892	-1.1030516946	 0.076476
H	 0.768986281	-2.2069193612	-1.0541676056	 0.138971
H	-0.1206977194	-3.7445630397	-1.0772249996	 0.109585
H	-0.6214603055	-2.4123524938	-2.1312739234	 0.110262
H	 0.0884932909	-3.355174248	 1.360359133	 0.105386
H	-0.6804800574	-1.9786940431	 2.1953000988	 0.113131
H	-2.3887798039	-4.4044124643	 1.818869525	 0.102846
H	-3.0722467421	-3.3062541739	-0.7670266509	 0.095649
75.0221	97.1351	138.1769	189.1531	226.8574	239.8118	275.4974	340.5061	363.4301	401.6031	467.7804	547.3783	684.606	798.3562	839.0684	863.6435	877.0272	921.0916	960.1419	979.2666	983.0758	992.599	1012.7475	1047.8936	1120.1234	1151.8193	1165.436	1172.4666	1197.5145	1224.7363	1229.5969	1245.1338	1270.124	1282.9038	1311.5774	1381.9211	1399.8122	1422.682	1475.4202	1481.0125	1484.8119	1491.161	1500.2144	1504.734	1529.6624	2939.9441	2969.2984	3011.1035	3014.823	3027.1152	3071.4021	3089.2856	3110.7194	3121.7354	3128.6627	3167.5577	3188.8672
COCC1(C)CC2OC12	COC[C@@]1(C)C[C@H]2O[C@@H]12	
InChI=1S/C7H12O2/c1-7(4-8-2)3-5-6(7)9-5/h5-6H,3-4H2,1-2H3	InChI=1S/C7H12O2/c1-7(4-8-2)3-5-6(7)9-5/h5-6H,3-4H2,1-2H3/t5-,6-,7-/m1/s1
