17
gdb 93378	3.22396	1.43353	1.10635	3.1063	69.04	-0.2444	-0.0399	0.2045	1088.3684	0.135198	-458.960592	-458.952599	-458.951655	-458.993316	30.066	
C	-0.1736981003	 1.4870267815	 0.045733656	-0.404421
C	 0.0167818484	-0.0244768597	 0.02807639	 0.089477
O	 0.6856490499	-0.342202227	-1.1806830755	-0.249581
C	 0.9250602202	-1.7162727075	-1.3819286263	-0.177794
C	 1.6150881574	-2.4434527942	-0.2285061573	 0.35317
O	 1.9949818295	-3.5852597841	-0.3396983149	-0.301868
C	 1.6740502728	-1.7122300447	 1.0807401063	-0.067493
O	 2.2350801734	-0.3890505346	 1.0735778007	-0.230052
C	 0.8305270682	-0.5067893998	 1.2210604469	 0.028552
H	 0.800191186	 1.9836776594	 0.0416726425	 0.144475
H	-0.7319276029	 1.8041289264	-0.8381524098	 0.131763
H	-0.7253418085	 1.7966249084	 0.9382238705	 0.118197
H	-0.9675533862	-0.5264493428	 0.0630194455	 0.07336
H	-0.0152611043	-2.2658796461	-1.5697696932	 0.121488
H	 1.5396570019	-1.8090165344	-2.281149109	 0.148527
H	 1.937133143	-2.3261390052	 1.9397218149	 0.113773
H	 0.4387456115	-0.2618279255	 2.2088043327	 0.108426
64.2666	174.0895	209.2179	230.7169	274.5195	330.6774	416.5917	423.6741	477.9804	592.2157	640.5741	680.5643	756.1886	845.0887	876.4578	890.9267	940.4353	1002.5902	1027.0717	1049.3688	1111.0949	1133.6274	1151.6998	1171.5248	1244.3339	1261.5024	1277.5524	1331.6369	1350.4897	1365.8157	1385.3917	1406.8962	1439.46	1454.3349	1483.8609	1500.1637	1815.2282	2939.7065	2951.6349	3049.1882	3101.5105	3110.9808	3125.4156	3134.3345	3144.4793
CC1OCC(=O)C2OC12	C[C@H]1OCC(=O)[C@H]2O[C@@H]12	
InChI=1S/C6H8O3/c1-3-5-6(9-5)4(7)2-8-3/h3,5-6H,2H2,1H3	InChI=1S/C6H8O3/c1-3-5-6(9-5)4(7)2-8-3/h3,5-6H,2H2,1H3/t3-,5+,6-/m1/s1
