18
gdb 129873	2.97584	1.32457	0.99823	3.0205	75.15	-0.1938	0.043	0.2368	1184.2723	0.149056	-435.276697	-435.267656	-435.266711	-435.311058	33.005	
N	 0.4848145202	 1.4260666889	-0.0721925255	-0.622829
C	 0.181233792	 0.0699826473	-0.0386827268	 0.373681
C	-1.047516631	-0.5673123546	 0.0236145637	-0.290193
C	-0.7396824524	-1.9395682175	-0.0362667935	 0.003224
N	 0.5643562634	-2.163491451	-0.1358150448	-0.289194
N	 1.1231423401	-0.9173279948	-0.1201641616	-0.011383
C	 2.5676246378	-0.810196432	-0.1033702688	-0.15278
C	 3.1916029594	-0.3680004977	-1.4226749829	-0.082715
O	 2.9949533474	 1.0373432255	-1.5690805549	-0.408988
H	 1.4396583913	 1.6346939786	-0.3339410746	 0.258884
H	 0.1586544728	 1.95326542	 0.7245470917	 0.248066
H	-2.0142227737	-0.093375124	 0.0704054569	 0.090859
H	-1.4219530707	-2.7779303384	-0.0244249209	 0.101817
H	 2.8765671115	-0.1095255676	 0.6820909661	 0.121037
H	 2.9337830019	-1.8040615888	 0.1592248743	 0.140867
H	 4.2669131423	-0.5995704441	-1.403551042	 0.100019
H	 2.7330468595	-0.9274363712	-2.2471250638	 0.120819
H	 2.9810867582	 1.2589584915	-2.5037764326	 0.298809
41.1113	120.695	129.783	174.9095	240.7692	275.2612	294.5289	346.066	464.0267	487.88	622.5627	653.3363	665.2148	695.2084	739.6799	771.2824	886.3056	890.8886	935.782	970.7918	1041.1846	1066.8789	1074.8489	1109.6717	1155.5385	1239.694	1254.2025	1275.9119	1292.5335	1345.5256	1380.5955	1397.0098	1439.7994	1440.5358	1463.08	1507.8974	1531.6533	1606.9404	1641.747	2994.8027	3037.1158	3060.1742	3130.0908	3233.5308	3268.7695	3535.6891	3646.2992	3850.3841
NC1=CC=NN1CCO	Nc1ccnn1CCO	
InChI=1S/C5H9N3O/c6-5-1-2-7-8(5)3-4-9/h1-2,9H,3-4,6H2	InChI=1S/C5H9N3O/c6-5-1-2-7-8(5)3-4-9/h1-2,9H,3-4,6H2
