17
gdb 16231	2.9361	2.29652	1.49478	1.6304	68.96	-0.2374	0.0078	0.2452	858.7239	0.143675	-363.840604	-363.833445	-363.832501	-363.872168	27.959	
O	 0.3137482232	 1.1168740533	-0.6080867542	-0.424019
C	 0.0781865134	-0.1606770077	-0.02655193	 0.012292
C	 0.5400595662	-0.2910778838	 1.4040963752	-0.115813
C	-0.3884691618	-0.8321835415	 2.1921381612	-0.06853
C	-1.6505612196	-1.1838058346	 1.4460993485	-0.324465
C	-1.4071130259	-0.5829457996	 0.0577125297	 0.301937
C	-2.4409495122	 0.1901341947	-0.6760359161	-0.285365
N	-2.0934350911	-1.1807064814	-1.0931932309	-0.364402
H	-0.0809272489	 1.7725941323	-0.0214356489	 0.27542
H	 0.6311180536	-0.8476035539	-0.6830184482	 0.09547
H	 1.5343812959	 0.0189867197	 1.7050541499	 0.100898
H	-0.2659783722	-1.0346309387	 3.2509303509	 0.100268
H	-1.7884879518	-2.2704056424	 1.3751183148	 0.125017
H	-2.5514705974	-0.7891278353	 1.9316714708	 0.108012
H	-3.4345458533	 0.2993637461	-0.248149772	 0.112378
H	-2.1063828211	 1.0178995551	-1.2938738928	 0.119784
H	-1.487904907	-1.1365830021	-1.9110928278	 0.231118
50.8697	243.1796	278.3395	310.8093	357.1261	403.8413	456.4987	521.0791	571.9358	709.2853	760.1254	798.5562	856.8043	914.1913	934.553	969.2915	981.7782	987.2848	1012.3896	1031.8072	1059.8423	1091.9486	1136.1373	1140.0202	1173.397	1254.9928	1272.9758	1283.5457	1293.6565	1299.366	1373.6146	1394.6332	1428.7556	1483.4503	1504.2088	1683.9881	3005.8095	3023.5868	3050.744	3105.6629	3181.3973	3198.3389	3207.9355	3475.7725	3792.5226
OC1C=CCC11CN1	O[C@H]1C=CC[C@]21CN2	
InChI=1S/C6H9NO/c8-5-2-1-3-6(5)4-7-6/h1-2,5,7-8H,3-4H2	InChI=1S/C6H9NO/c8-5-2-1-3-6(5)4-7-6/h1-2,5,7-8H,3-4H2/t5-,6+/m0/s1
