23
gdb 90436	2.10697	1.60648	1.31531	1.6335	84.79	-0.2339	0.0708	0.3047	1146.4772	0.205494	-388.26439	-388.25506	-388.254116	-388.298204	36.029	
C	 0.2251522774	 1.1741894609	-0.8446265164	-0.41512
C	 0.1914048108	-0.1979152629	-0.201992626	 0.165569
O	 0.9442814467	-1.2012824262	-0.9369252353	-0.31236
C	 1.4752735239	-1.7565192556	 0.2846641022	 0.114541
C	 2.9284805391	-1.3112424694	 0.5907336746	-0.017953
C	 3.8197889438	-1.004189901	-0.6050237565	-0.401967
C	 2.3486353586	-0.1257952569	 1.4589892242	 0.012004
C	 2.839867299	 1.3024268202	 1.2449283998	-0.419335
C	 0.8916199311	-0.5829371171	 1.1217464811	-0.13978
H	 1.2428226389	 1.5219418268	-1.0226727163	 0.126043
H	-0.2931996782	 1.1384760217	-1.8085302663	 0.124368
H	-0.2904548396	 1.9045201119	-0.2116971305	 0.116118
H	-0.8605127592	-0.5212529973	-0.1393181911	 0.072158
H	 1.211477164	-2.811444929	 0.407351044	 0.066021
H	 3.4278923545	-2.0434888656	 1.2346955673	 0.06583
H	 3.3066957897	-0.3703452615	-1.3315440132	 0.128629
H	 4.7417273681	-0.5035521502	-0.2911216419	 0.107637
H	 4.1025928643	-1.9279979255	-1.1214450529	 0.113283
H	 2.5082160358	-0.3675158542	 2.5154078698	 0.076391
H	 2.8984592229	 1.5820904125	 0.1913549398	 0.124324
H	 2.1846631883	 2.023138366	 1.74657164	 0.11275
H	 3.8437039461	 1.4239143619	 1.6671484939	 0.112793
H	 0.2293832441	-0.7114078395	 1.9784595696	 0.068055
56.2191	160.191	186.6513	212.5652	238.5292	252.9151	273.5473	291.5898	382.452	462.8239	506.3204	591.6836	611.0821	690.9428	756.3395	839.0362	857.9393	872.4737	899.7522	921.1397	985.0533	1004.9169	1031.0931	1065.3202	1081.8648	1091.8759	1107.1591	1161.1197	1171.7238	1174.6004	1186.5656	1219.5211	1246.1804	1290.3463	1307.0716	1328.2184	1344.9871	1358.9519	1373.5104	1398.1023	1408.4898	1412.1525	1417.7699	1477.2882	1485.314	1491.9245	1494.8455	1510.7168	1516.8272	2959.4492	3025.0273	3033.8788	3035.7448	3042.3208	3044.6069	3059.1475	3088.9258	3094.9483	3100.5715	3102.5327	3124.4156	3129.6141	3152.4764
CC1OC2C(C)C(C)C12	C[C@H]1O[C@H]2[C@@H](C)[C@@H](C)[C@@H]12	
InChI=1S/C8H14O/c1-4-5(2)8-7(4)6(3)9-8/h4-8H,1-3H3	InChI=1S/C8H14O/c1-4-5(2)8-7(4)6(3)9-8/h4-8H,1-3H3/t4-,5+,6-,7+,8+/m1/s1
