20
gdb 91596	2.1876	1.99314	1.44437	3.1106	78.84	-0.2518	0.0334	0.2852	1001.6968	0.174173	-403.186966	-403.179477	-403.178533	-403.218647	30.473	
C	-0.1920274927	 1.5526408485	-0.0212633105	-0.412385
C	 0.0299562947	 0.042002718	-0.0077182799	 0.033874
C	 0.8986282637	-0.5092395854	-1.1895890461	-0.237812
C	 1.9616489223	-1.3421181232	-0.4535223705	 0.096951
C	 1.1922474931	-1.9216080881	 0.7413216825	-0.247088
C	 0.7953427986	-0.5139424583	 1.2393773836	-0.110874
C	 2.160501842	 0.1357429277	 1.2537165127	 0.437532
N	 2.596166566	 1.0102767933	 2.0526052938	-0.567499
O	 2.8606729875	-0.3994283616	 0.1964556857	-0.262937
H	 0.7561295643	 2.096910993	 0.0187636999	 0.13482
H	-0.721276632	 1.8568005499	-0.93035499	 0.111845
H	-0.7908153968	 1.8711022824	 0.8381779219	 0.119534
H	-0.9472288664	-0.4538131037	-0.0227060449	 0.07592
H	 0.315659521	-1.1252131168	-1.8803253301	 0.102361
H	 1.3729575655	 0.2893470828	-1.7660544945	 0.113689
H	 2.5668236414	-2.013673498	-1.0607116696	 0.084804
H	 0.3386601011	-2.5394366816	 0.4515181564	 0.104496
H	 1.8345023982	-2.4730692954	 1.4319757784	 0.115011
H	 0.263764025	-0.4236137357	 2.1840443772	 0.089493
H	 3.5535898834	 1.2714785322	 1.8066528241	 0.218267
125.9459	153.1969	222.8963	310.3576	396.2355	414.8854	446.0642	474.536	556.7646	678.3823	708.7241	801.9336	825.3545	852.7968	866.1961	897.2196	912.8543	947.6352	953.0982	964.7082	973.6877	1009.7558	1047.0758	1070.2722	1089.642	1133.2674	1149.6152	1201.9712	1205.8014	1234.5721	1264.4765	1282.5907	1304.497	1322.5334	1346.0986	1368.8736	1382.4899	1417.6448	1479.7065	1494.7439	1497.1559	1498.5543	1784.6555	3031.5316	3035.8071	3058.7274	3068.7845	3100.5468	3106.7412	3114.1982	3125.0291	3133.9194	3149.2064	3459.0461
CC1CC2CC1C(=N)O2	C[C@H]1C[C@@H]2C[C@H]1[C]([NH])O2	
InChI=1S/C7H11NO/c1-4-2-5-3-6(4)7(8)9-5/h4-6,8H,2-3H2,1H3	InChI=1S/C7H11NO/c1-4-2-5-3-6(4)7(8)9-5/h4-6,8H,2-3H2,1H3/t4-,5+,6+/m0/s1
