18
gdb 40615	3.70986	1.27461	1.15307	3.6481	74.61	-0.2149	0.0628	0.2777	1095.9697	0.147872	-401.821152	-401.813769	-401.812825	-401.853518	29.265	
C	-0.2667997548	 1.2310491082	-0.3071512711	-0.163823
O	 0.9428586013	 1.1962999826	 0.4520372312	-0.258619
C	 0.3559533122	-0.0502973839	 0.0307680679	 0.073612
C	-0.1521940196	-0.8987282442	 1.1682933426	-0.043948
C	-1.515407689	-1.5200930096	 1.3796181189	-0.087355
C	-2.1024461891	-2.2244443272	 0.1269239709	-0.054481
N	-1.1745857975	-2.0256929057	-1.0162324428	-0.334063
C	-0.9018676593	-3.0699057326	 0.0050631238	-0.055322
C	-0.2657974827	-2.3987613823	 1.2557378592	-0.104618
H	-1.1531629658	 1.5510309799	 0.2401455516	 0.102803
H	-0.1798124692	 1.6286640937	-1.3179952767	 0.105852
H	 0.9198887708	-0.5618539139	-0.7426575963	 0.103357
H	 0.2133719137	-0.4958482108	 2.1121887947	 0.110914
H	-2.1063778073	-1.320619979	 2.2646388665	 0.090939
H	-3.1472496022	-2.4563180429	-0.0315502884	 0.096258
H	-1.5869232772	-2.495616087	-1.822184191	 0.229911
H	-0.7969451618	-4.111495786	-0.2678351768	 0.096258
H	 0.2284750675	-2.9724445394	 2.0295809458	 0.092324
50.0258	153.7273	195.26	328.9341	346.0254	417.5823	557.8334	661.5747	711.9829	717.9387	743.2663	820.4645	839.6843	845.8427	868.0537	884.7189	909.8442	937.454	971.6837	991.4104	999.4147	1037.7639	1048.7061	1077.5783	1087.7968	1117.5482	1132.7727	1153.6218	1160.9252	1201.4819	1249.1075	1253.0143	1293.6253	1315.18	1335.5482	1349.2113	1392.7745	1452.1697	1528.0982	3075.4928	3122.5475	3153.6109	3166.7309	3182.7923	3193.006	3196.9749	3209.7959	3467.8339
C1OC1C1C2C3NC3C12	C1O[C@H]1[C@H]1[C@H]2[C@H]3N[C@H]3[C@@H]12	
InChI=1S/C7H9NO/c1-2(9-1)3-4-5(3)7-6(4)8-7/h2-8H,1H2	InChI=1S/C7H9NO/c1-2(9-1)3-4-5(3)7-6(4)8-7/h2-8H,1H2/t2-,3-,4+,5-,6+,7-/m1/s1
