21
gdb 115636	2.44333	1.15144	0.98217	2.1999	79.02	-0.2505	0.0708	0.3214	1306.7427	0.181443	-424.187015	-424.177454	-424.17651	-424.221692	35.9	
O	 0.1510446183	 1.3743517472	-0.6548593569	-0.42009
C	 0.1514397096	-0.0195769309	-0.3802869911	-0.064837
C	-1.1979391658	-0.5182474953	 0.1230143507	-0.09637
C	-2.3430262258	-0.4477158923	-0.9331924451	-0.219178
C	-2.2943634029	-1.998087915	-1.0861091384	-0.305808
C	-1.3677374946	-2.0468807784	 0.1344869816	 0.345495
C	-0.3608233192	-3.1045376749	 0.5225741427	-0.404308
C	-1.5872495136	-2.8577893395	 1.3692095461	 0.040644
O	-1.4573049212	-2.1791223194	 2.5854243332	-0.421592
H	-0.0780787506	 1.8306824478	 0.1614469066	 0.280215
H	 0.4050407457	-0.5059577103	-1.3292328408	 0.104945
H	 0.9422436578	-0.2839241209	 0.3400270248	 0.08351
H	-1.4237701904	-0.0447306978	 1.0851127306	 0.075275
H	-3.2873231926	-0.0916194216	-0.5156972145	 0.101123
H	-2.1136395499	 0.1399867097	-1.8244375778	 0.109623
H	-3.2461251581	-2.528942197	-0.992275897	 0.097465
H	-1.8083125261	-2.3259056697	-2.010225638	 0.101518
H	-0.3101219233	-4.0140550307	-0.0687464143	 0.109768
H	 0.5887416932	-2.7716429366	 0.9300364523	 0.112806
H	-2.3812468836	-3.6061446062	 1.3430604487	 0.08151
H	-1.0277816669	-2.7699245083	 3.2127046667	 0.288285
54.5792	96.2235	145.8351	178.8276	214.9769	272.6473	296.3937	312.7032	406.3348	434.4143	458.0635	516.8414	588.2756	737.39	803.6989	833.8533	872.5388	887.5958	920.529	937.4435	948.3417	998.5233	1033.5879	1057.4499	1078.8371	1098.4131	1114.7048	1136.3807	1168.3954	1191.2375	1210.8954	1231.8353	1246.6252	1258.8515	1273.5123	1301.1565	1339.4922	1354.7951	1388.4565	1418.3866	1422.0544	1478.0565	1486.4574	1496.6003	1507.0249	2974.0082	3038.1652	3045.8216	3065.6964	3070.333	3082.73	3090.1138	3119.3016	3123.8898	3207.8171	3806.7815	3810.3285
OCC1CCC11CC1O	OC[C@H]1CC[C@]21C[C@H]2O	
InChI=1S/C7H12O2/c8-4-5-1-2-7(5)3-6(7)9/h5-6,8-9H,1-4H2	InChI=1S/C7H12O2/c8-4-5-1-2-7(5)3-6(7)9/h5-6,8-9H,1-4H2/t5-,6-,7-/m1/s1
