13
gdb 5178	7.4733	1.20659	1.07486	3.2759	62.07	-0.2164	-0.0081	0.2083	1023.7409	0.096318	-398.649298	-398.642393	-398.641449	-398.681011	24.894	
O	 0.3440245418	-0.0917657586	-0.1584287487	-0.253713
C	 0.5169807069	 1.0643181652	-0.3770261948	 0.156545
O	 0.4258335966	 2.0069807735	 0.6110780703	-0.217011
C	 0.7357349566	 3.2983627905	 0.2764406051	 0.363205
C	 1.8610157554	 3.8674617444	-0.2651258986	-0.257074
C	 1.5988190408	 5.2679607489	-0.3467008672	-0.130291
C	 0.338864915	 5.4915851124	 0.1506457425	-0.089153
N	-0.186996042	 4.2756276757	 0.5252459759	-0.289132
H	 0.76687559	 1.5178367253	-1.3518478814	 0.103212
H	 2.7642746194	 3.3488012812	-0.5436654406	 0.109513
H	 2.2718897945	 6.0221369065	-0.7232758648	 0.104023
H	-0.2258944898	 6.4002541497	 0.2773032674	 0.126214
H	-1.089544235	 4.1110397253	 0.9366382848	 0.273663
65.208	140.5501	160.7335	363.7809	428.4788	469.5412	492.0884	629.5527	656.4336	714.7819	787.6608	816.4686	852.003	893.5967	1002.1113	1044.7706	1048.6743	1104.1914	1114.6044	1144.8365	1275.0191	1285.9227	1399.8428	1431.5514	1478.2968	1510.4179	1614.052	1878.968	2996.7986	3251.2886	3264.3238	3280.0429	3682.1208
O=COC1=CC=CN1	O=COc1ccc[nH]1	
InChI=1S/C5H5NO2/c7-4-8-5-2-1-3-6-5/h1-4,6H	InChI=1S/C5H5NO2/c7-4-8-5-2-1-3-6-5/h1-4,6H
