20
gdb 121018	3.13724	0.96255	0.79397	0.6313	75.23	-0.2487	0.0209	0.2696	1450.1453	0.170987	-440.297614	-440.288144	-440.287199	-440.333207	34.017	
C	 0.1254649878	 1.5381330222	-0.2685007905	-0.386852
C	 0.0010401413	 0.0477810625	 0.0540866305	 0.001662
N	 0.4029032727	-0.7548468322	-1.1227227219	-0.269365
C	 1.3836316235	-1.4620201132	-0.7493628713	 0.114251
O	 1.8202589357	-1.4021405592	 0.5295979959	-0.236657
C	 0.89489996	-0.5046390592	 1.216604033	 0.083246
C	 1.6908953415	 0.4839567822	 2.0559472967	-0.219781
C	 2.5222376048	-0.1980379505	 3.1477597665	-0.070687
O	 3.1912301201	 0.7353818856	 3.9806098761	-0.418237
H	 1.1536828598	 1.808294434	-0.5261078391	 0.120493
H	-0.5047109953	 1.7709620453	-1.130440301	 0.131939
H	-0.1982385237	 2.1589624472	 0.5723119322	 0.11493
H	-1.0504727017	-0.1674457802	 0.272616699	 0.091128
H	 1.9443628441	-2.1430972698	-1.3808326554	 0.138631
H	 0.2933225276	-1.1403970962	 1.8781589521	 0.091684
H	 2.3512422241	 1.0697336775	 1.4046943803	 0.097473
H	 1.0009944901	 1.1884586293	 2.5341804119	 0.114668
H	 1.8636892169	-0.7689078373	 3.8124928402	 0.110594
H	 3.2226041211	-0.9120323151	 2.6927003428	 0.10889
H	 3.8671339297	 1.1708344173	 3.451772242	 0.281988
29.7877	94.7859	100.6751	130.655	246.0769	275.6156	296.1474	317.9793	357.4961	413.8608	534.0771	574.0773	724.7154	777.0438	822.4519	856.1226	871.3795	943.5613	965.6184	1010.9144	1054.9599	1065.2045	1076.3859	1095.4066	1116.8167	1133.186	1153.4241	1197.3203	1277.2569	1296.1508	1316.8087	1322.919	1353.5028	1374.7295	1385.0285	1406.2264	1414.5819	1419.8278	1471.3413	1490.553	1499.4071	1513.3391	1709.4453	3010.0669	3018.0191	3032.5903	3044.4661	3045.8874	3060.8098	3087.1937	3116.4497	3124.6847	3209.7976	3817.9141
CC1N=COC1CCO	C[C@H]1N=CO[C@H]1CCO	
InChI=1S/C6H11NO2/c1-5-6(2-3-8)9-4-7-5/h4-6,8H,2-3H2,1H3	InChI=1S/C6H11NO2/c1-5-6(2-3-8)9-4-7-5/h4-6,8H,2-3H2,1H3/t5-,6+/m1/s1
