18
gdb 41600	4.14347	1.30674	1.18519	2.0444	75.4	-0.2329	0.0243	0.2572	1072.0638	0.149608	-401.926469	-401.91927	-401.918325	-401.958367	28.253	
C	-0.1043548534	 1.4150648705	-0.0823319924	-0.240974
C	 1.4561059093	 1.5474697464	-0.0217120788	-0.240969
C	 1.5714761517	 0.0238380952	 0.0877021463	-0.130393
C	 0.0301715184	-0.1069366931	 0.0278320296	-0.130376
C	 0.8948877055	-0.6318422952	-1.0741746941	 0.424893
C	 0.9203101638	-0.2514952968	-2.5602156735	-0.26549
N	 1.0567639093	-1.5385953588	-3.2679499898	-0.267788
C	 1.0966311378	-2.4229473448	-2.361771061	 0.105508
O	 1.0159646303	-2.0663745149	-1.0582201212	-0.259313
H	-0.5866810391	 1.8584299676	 0.7908150801	 0.112534
H	-0.6024936006	 1.7956544784	-0.9800565536	 0.102545
H	 1.9507566967	 2.0122920007	-0.8808741924	 0.102545
H	 1.7882655438	 2.0599470702	 0.8830717543	 0.112535
H	 2.2827971677	-0.5309771202	 0.6873713139	 0.097307
H	-0.621710884	-0.777429282	 0.5745395492	 0.097307
H	 0.003559357	 0.2540473606	-2.8844012792	 0.120652
H	 1.7613472682	 0.4028915924	-2.8162322331	 0.120649
H	 1.1934642174	-3.4903043763	-2.5259036243	 0.138829
72.4234	181.8205	183.9423	291.9045	425.9054	426.6238	527.5575	527.9007	710.977	773.5609	781.4465	841.0914	881.311	883.7376	930.2004	952.0642	968.4588	977.9278	988.8658	991.3815	1023.4727	1067.0521	1076.7622	1105.3706	1148.1832	1161.8459	1211.118	1224.1342	1243.0532	1248.8317	1258.3399	1288.0027	1316.2433	1337.389	1444.4553	1482.6289	1498.1711	1504.5812	1706.1206	3030.244	3046.3123	3054.3475	3059.9585	3101.361	3119.035	3183.5517	3193.1285	3217.6773
C1CC2C1C21CN=CO1	C1C[C@H]2[C@@H]1[C@]12CN=CO1	
InChI=1S/C7H9NO/c1-2-6-5(1)7(6)3-8-4-9-7/h4-6H,1-3H2	InChI=1S/C7H9NO/c1-2-6-5(1)7(6)3-8-4-9-7/h4-6H,1-3H2/t5-,6+,7+
