18
gdb 14374	3.80258	2.36937	1.97052	1.5045	71.28	-0.2351	0.086	0.3211	757.517	0.156473	-347.753949	-347.748004	-347.74706	-347.78351	25.5	
C	-0.028004242	 1.5011788071	 0.1961719583	-0.255713
C	 1.511465015	 1.5616412474	-0.1421869964	-0.341536
C	 1.2869118245	 0.2595858697	-0.9134036704	 0.431996
C	 1.7776591375	-1.1011903181	-1.4271492113	-0.332524
C	 0.4096212874	-0.9245321444	-2.1738370144	 0.073656
C	-0.7266535716	-0.9200662218	-1.1037806206	-0.260097
C	 0.0279846862	-0.0387894548	-0.0761872176	 0.011428
O	 0.6990492486	 0.5007046494	-2.2364490727	-0.322534
H	-0.3260259153	 1.8155314707	 1.1983257095	 0.094825
H	-0.6191184171	 2.0370092639	-0.5469203015	 0.122159
H	 1.8916064784	 2.4116325758	-0.7122614374	 0.111769
H	 2.1235992892	 1.4153991156	 0.7515442223	 0.109608
H	 2.6054252395	-1.0505893551	-2.1358799591	 0.110789
H	 1.9070908213	-1.9126358624	-0.7054547654	 0.092896
H	 0.2209045635	-1.3860243218	-3.1437474618	 0.078873
H	-1.6266596496	-0.4655839223	-1.5253937315	 0.110222
H	-0.9840076841	-1.9093753822	-0.7146048952	 0.093434
H	 0.2534333585	-0.5738961968	 0.8504267153	 0.070749
225.6973	309.2894	376.3767	394.9265	500.4077	598.1393	664.3784	682.6747	776.5651	808.5926	816.593	850.2823	869.7966	881.5743	899.6444	949.2091	976.5299	989.4858	1027.3318	1070.3665	1089.6868	1092.8405	1148.0741	1174.505	1190.8258	1211.6541	1225.0736	1227.2838	1240.0553	1266.7185	1279.5613	1296.6501	1326.8124	1355.4861	1468.6527	1476.1832	1486.0333	1488.9715	3057.2675	3059.5591	3066.6401	3070.2225	3079.6103	3110.8096	3118.23	3124.2026	3138.5411	3145.8304
C1CC23CC(CC12)O3	C1C[C@@]23C[C@@H](C[C@H]12)O3	
InChI=1S/C7H10O/c1-2-7-4-6(8-7)3-5(1)7/h5-6H,1-4H2	InChI=1S/C7H10O/c1-2-7-4-6(8-7)3-5(1)7/h5-6H,1-4H2/t5-,6+,7+/m0/s1
