18
gdb 112957	3.7481	0.79631	0.72778	6.4666	69.19	-0.2603	0.0138	0.2741	1547.8865	0.146486	-476.207233	-476.197675	-476.196731	-476.243596	33.959	
N	 0.0836634023	 1.018958832	-0.0314691307	-0.520305
H	 0.5774691919	-0.5418970018	 1.3576859072	 0.290136
H	 0.8608419853	 1.6531644673	-0.1898238487	 0.237461
H	-0.4863335476	 1.0355889887	-0.8692257153	 0.242244
C	-0.6905538251	 1.432424902	 1.1449120764	-0.181453
C	 0.0711883755	 0.9699955094	 2.3983989176	 0.143606
C	-0.6872206298	 1.1954308617	 3.7120243111	-0.255693
C	-1.8608398949	 0.2616905065	 3.8753502026	-0.077427
O	 0.3751181483	-0.4039656825	 2.2966361994	-0.431184
C	-1.9197391929	-0.7864786201	 4.8748678386	 0.480491
O	-2.5518960853	 0.331266928	 5.2432861761	-0.24385
O	-1.6928017944	-1.8618345956	 5.3217729671	-0.331006
H	-0.8842522191	 2.514918006	 1.2033240087	 0.092699
H	-1.6594472179	 0.9245898624	 1.0931927374	 0.111664
H	 0.9994798042	 1.5688710999	 2.4531635966	 0.064055
H	 0.0000794352	 1.0543734571	 4.5506347144	 0.129065
H	-1.0455087281	 2.2321105754	 3.752813994	 0.117404
H	-2.5943624874	 0.2382698635	 3.0723961676	 0.132093
16.186	68.2577	101.2298	169.9969	226.5806	262.2071	273.1762	327.3085	363.4637	502.2063	530.4026	591.3566	610.8983	673.9948	728.3434	819.2202	871.3374	887.4024	947.4283	983.2737	1024.8287	1039.2779	1075.2494	1121.6469	1148.7899	1182.6916	1192.0685	1252.9349	1289.9657	1319.6424	1346.0893	1385.2295	1400.5465	1412.4181	1455.8341	1482.9243	1494.4929	1657.3163	2023.4392	2922.2399	2981.549	3036.0826	3074.6439	3095.0243	3145.134	3505.7679	3590.1296	3689.4767
[NH3+]CC1CC(O1)C([O-])=O	NC[C@@H](C[C@H]1C(=O)O1)O	
InChI=1S/C5H9NO3/c6-2-3-1-4(9-3)5(7)8/h3-4H,1-2,6H2,(H,7,8)	InChI=1S/C5H9NO3/c6-2-3(7)1-4-5(8)9-4/h3-4,7H,1-2,6H2/t3-,4+/m1/s1
