21
gdb 38638	2.7892	2.01921	1.74153	0.2173	84.52	-0.2261	0.0243	0.2504	903.9625	0.18856	-349.988939	-349.982782	-349.981838	-350.018918	27.769	
C	-0.0375406188	 1.5609258833	-0.0394030088	-0.221423
C	 1.4643703851	 1.9339965473	 0.025763404	 0.005278
C	 2.0666892168	 1.5063772521	 1.3872031252	-0.221423
C	 1.9495122644	-0.0627759839	 1.3550851797	-0.046722
C	 0.7627648279	-0.564329991	 2.1525361654	-0.081839
C	-0.3398009411	-0.5357424469	 1.4050339407	-0.081839
C	-0.0201254113	-0.0117146053	 0.0197329907	-0.046723
C	 1.5055743902	-0.3150260763	-0.1210079481	-0.015359
C	 2.0711438254	 0.8695393473	-0.9099231536	-0.227301
H	-0.6243897824	 1.9985978853	 0.7730651035	 0.091574
H	-0.4654108769	 1.9118870487	-0.9848241642	 0.089299
H	 1.6681140409	 2.9754253466	-0.2349357492	 0.051279
H	 3.1151235833	 1.8190688043	 1.4426744589	 0.089299
H	 1.5447093464	 1.9423644522	 2.2436523809	 0.091574
H	 2.8944689521	-0.5421257348	 1.6239190923	 0.059373
H	 0.8195464168	-0.8311754709	 3.2020120588	 0.087736
H	-1.3447240669	-0.7750636128	 1.7347083192	 0.087737
H	-0.6359894902	-0.4506044781	-0.7696200854	 0.059373
H	 1.7260568071	-1.3199815763	-0.4846464307	 0.055884
H	 1.6930815434	 0.927732473	-1.9360194128	 0.087111
H	 3.165686038	 0.889557706	-0.9376359966	 0.087111
243.7398	288.1116	405.4752	436.0359	482.7727	565.3693	604.3508	741.5835	766.8246	772.6915	805.5731	816.144	827.071	860.634	929.8651	932.6123	944.4598	950.129	958.8586	962.2072	982.3962	992.4329	1017.4632	1061.8727	1087.9697	1120.086	1129.7764	1143.9573	1149.5563	1179.1319	1238.3063	1257.8351	1277.1701	1285.9139	1292.7263	1305.9138	1309.8686	1340.7069	1343.8517	1350.7746	1366.383	1485.782	1486.0521	1510.4103	1672.336	3036.796	3037.4516	3041.9213	3065.627	3065.8154	3080.8736	3086.0382	3090.673	3091.4288	3102.3282	3179.9228	3206.4188
C1C2CC3C=CC1C3C2	C1[C@H]2C[C@H]3C=C[C@@H]1[C@H]3C2	
InChI=1S/C9H12/c1-2-8-4-6-3-7(1)9(8)5-6/h1-2,6-9H,3-5H2	InChI=1S/C9H12/c1-2-8-4-6-3-7(1)9(8)5-6/h1-2,6-9H,3-5H2/t6-,7-,8+,9+
