18
gdb 56034	4.16211	0.9627	0.81611	4.8937	68.92	-0.2389	0.0345	0.2734	1370.4016	0.148156	-476.258541	-476.249589	-476.248644	-476.29406	31.86	
N	 0.605092005	 0.1461924538	 0.7571337534	-0.507016
C	 0.0046213754	 0.0430195519	-0.4619951122	 0.359794
O	 0.356528871	 0.682074624	-1.4343087123	-0.358416
C	-1.1966931834	-0.908215209	-0.5063380466	-0.315142
C	-0.9209954088	-2.3157167197	 0.0013569748	 0.207788
O	-0.6325017344	-2.3232270745	 1.4059965901	-0.279374
C	-1.3682398824	-3.3858628701	 2.0120102489	-0.09215
C	-1.9661361415	-4.1315543268	 0.8113434717	-0.109037
O	-2.0670823653	-3.1098860198	-0.1684506805	-0.243785
H	 1.4408861065	 0.7043704356	 0.8183502941	 0.255383
H	 0.384032884	-0.5074407671	 1.4921994309	 0.271298
H	-2.0178017043	-0.4928837002	 0.0879717853	 0.127493
H	-1.5168009885	-0.9665262683	-1.5475216669	 0.140873
H	-0.0614544513	-2.7686357594	-0.5241824878	 0.082013
H	-0.6959164902	-4.0080509449	 2.6114200382	 0.114077
H	-2.1463997404	-2.9698638275	 2.6632300515	 0.113653
H	-1.2997193458	-4.938088179	 0.4710413637	 0.106481
H	-2.9617938357	-4.540226059	 0.9922167736	 0.126067
33.3214	43.2484	94.8214	160.6469	232.9871	308.4839	368.0025	383.6927	477.4264	572.7459	595.4493	672.3652	705.5246	743.8347	833.1174	877.2977	897.124	951.7943	993.2814	1020.2873	1055.174	1081.4693	1133.4625	1149.7171	1167.3254	1210.3129	1226.7548	1249.2273	1295.8956	1342.1986	1361.9382	1381.982	1397.3409	1428.4239	1461.1634	1512.5296	1528.5007	1620.3951	1803.5617	2946.9015	2997.6758	3028.5182	3060.7539	3079.0864	3120.0298	3138.2784	3573.8631	3714.9034
NC(=O)CC1OCCO1	NC(=O)CC1OCCO1	
InChI=1S/C5H9NO3/c6-4(7)3-5-8-1-2-9-5/h5H,1-3H2,(H2,6,7)	InChI=1S/C5H9NO3/c6-4(7)3-5-8-1-2-9-5/h5H,1-3H2,(H2,6,7)
