19
gdb 65775	3.1081	1.06967	1.00595	2.7613	71.67	-0.2449	-0.0213	0.2236	1252.1628	0.157405	-460.173395	-460.164141	-460.163197	-460.208479	32.996	
C	 0.0489550488	 1.7024269902	-0.0939638034	-0.434386
C	 0.0490764343	 0.1770556237	-0.0811993593	 0.3474
C	-1.3813330291	-0.4083739844	-0.0966049762	-0.305387
C	-2.1653065326	-0.0923233732	 1.1590677076	 0.153675
O	-3.2574417628	 0.4181595826	 1.1671101011	-0.24784
C	 0.9088090041	-0.4468861395	-1.2015865066	-0.150949
O	 1.4349683881	-1.6154120051	-0.5939827618	-0.237138
C	 1.7216687384	-1.2158509443	 0.7211619504	 0.01713
O	 0.7168492293	-0.294162326	 1.1078456378	-0.30266
H	 1.0712692485	 2.0835894193	-0.025042871	 0.123821
H	-0.4042168099	 2.0799565453	-1.0166184929	 0.125124
H	-0.5234373505	 2.1009042274	 0.7481506643	 0.140537
H	-1.9460547915	-0.04569135	-0.9606856509	 0.115237
H	-1.288637852	-1.5004837439	-0.1682512645	 0.127993
H	-1.6526428104	-0.3754588331	 2.1021340596	 0.095701
H	 0.3385971856	-0.7406004382	-2.0846495861	 0.123802
H	 1.7154352428	 0.2408764108	-1.5002256889	 0.096622
H	 1.6986345494	-2.0962813774	 1.3711389285	 0.120588
H	 2.7110016694	-0.7282861344	 0.7790302322	 0.090729
46.299	68.7857	96.9317	184.1259	228.7728	248.3042	319.3082	327.397	390.904	455.7706	512.6105	641.6261	735.4512	764.588	841.5626	902.6815	922.5266	977.6204	990.8533	996.326	1047.5162	1058.3756	1115.1524	1147.9293	1164.3671	1193.0425	1207.6851	1230.0329	1266.709	1287.1776	1319.777	1367.8222	1414.2452	1417.1673	1433.3879	1457.068	1487.8546	1494.0056	1509.1536	1547.4968	1826.0413	2918.7917	2945.5136	2986.7619	3025.9438	3041.8888	3075.2329	3098.9159	3113.6584	3117.1662	3124.4623
CC1(CC=O)COCO1	C[C@@]1(CC=O)COCO1	
InChI=1S/C6H10O3/c1-6(2-3-7)4-8-5-9-6/h3H,2,4-5H2,1H3	InChI=1S/C6H10O3/c1-6(2-3-7)4-8-5-9-6/h3H,2,4-5H2,1H3/t6-/m1/s1
