15
gdb 75845	2.66622	1.65381	1.24405	2.8059	60.34	-0.2719	-0.0099	0.2621	984.5145	0.111769	-494.910877	-494.903073	-494.902129	-494.943069	29.958	
O	 0.2155379593	 1.2297565008	-0.435244178	-0.433989
C	 0.0081850004	-0.1169069776	-0.0762497085	-0.106368
C	 0.5243668451	-0.3770927774	 1.350393278	 0.409373
O	 1.5693016364	 0.0059526166	 1.7912186311	-0.343954
O	-0.3924485189	-1.0671401401	 2.0740909802	-0.208332
C	-1.602932787	-1.1690647262	 1.3325289255	 0.027497
C	-2.3058972877	 0.1302885522	 1.0379016858	-0.366409
C	-1.4411483075	-0.5363453732	-0.0155839443	 0.375569
O	-2.0208665588	-1.1406298033	-1.1236157921	-0.469001
H	 1.0761354255	 1.4796069144	-0.071834273	 0.29962
H	 0.5297635521	-0.8042182989	-0.7624418884	 0.111403
H	-2.1308301548	-2.0966588135	 1.5052084061	 0.13385
H	-3.3754466735	 0.0695095741	 0.8721154636	 0.132843
H	-1.951845416	 1.0362915325	 1.5178352442	 0.141697
H	-2.2623145947	-0.4465813004	-1.7477254401	 0.2962
87.5079	201.2785	227.6707	290.6139	308.6296	362.2172	394.2581	450.4581	501.4451	517.8153	582.8845	675.2602	713.9593	752.0002	879.9991	915.9986	922.182	972.9758	1011.4333	1035.3827	1073.8116	1116.8971	1119.54	1174.0391	1200.0351	1270.9358	1287.8538	1329.7007	1360.2569	1392.3121	1435.6097	1486.916	1880.0849	2978.171	3139.2299	3220.3736	3236.9464	3759.0777	3795.2257
OC1C(=O)OC2CC12O	O[C@H]1C(=O)O[C@H]2C[C@@]12O	
InChI=1S/C5H6O4/c6-3-4(7)9-2-1-5(2,3)8/h2-3,6,8H,1H2	InChI=1S/C5H6O4/c6-3-4(7)9-2-1-5(2,3)8/h2-3,6,8H,1H2/t2-,3-,5-/m0/s1
