17
gdb 123912	3.5748	1.59875	1.15317	6.2156	74.3	-0.2044	0.0215	0.2259	1025.2982	0.140571	-414.19524	-414.188131	-414.187186	-414.226905	27.539	
C	-0.0328811095	 1.4962640456	 0.014168152	-0.227871
C	 1.3818141836	 2.0941581828	-0.0074265531	-0.164155
N	 2.2231578667	 1.5860459841	 1.0800455579	-0.409687
C	 1.9469586546	 0.3255318996	 1.5758104727	 0.391209
C	 2.488073936	-0.4620735781	 2.5755281325	-0.180728
N	 1.8137865616	-1.6444759606	 2.597191209	-0.185072
N	 0.8981274235	-1.6519812819	 1.6764559851	-0.176957
N	 0.9670872313	-0.4442302229	 1.0439782092	-0.001716
C	 0.0472467642	-0.0345927478	 0.0007931259	-0.148783
H	-0.5640734836	 1.8281589275	 0.9130482705	 0.120587
H	-0.5963228996	 1.8434345424	-0.856400568	 0.115848
H	 1.8547612293	 1.8580685265	-0.9712241589	 0.119555
H	 1.3423478509	 3.1833671062	 0.0686912303	 0.117056
H	 2.489322303	 2.2597972119	 1.7797807714	 0.251717
H	 3.29321413	-0.2461230853	 3.2579738961	 0.10843
H	-0.9193051735	-0.5012191381	 0.201252694	 0.142831
H	 0.4001391116	-0.394365862	-0.9737076867	 0.127735
83.6627	176.9048	256.1468	314.4202	394.6166	405.4046	475.6774	531.2905	678.5276	710.1675	717.0758	738.8305	785.0152	876.1632	889.2766	953.0861	987.1114	1009.372	1077.4437	1116.606	1133.182	1164.1068	1217.646	1235.0881	1272.3084	1299.7197	1319.0374	1346.9905	1362.1718	1382.576	1406.7504	1434.3059	1480.301	1494.4187	1509.2399	1542.7462	1624.1371	3004.3756	3030.813	3049.9634	3097.9057	3103.8419	3115.1902	3270.769	3629.0145
C1CNC2=CN=NN2C1	C1CNc2cnnn2C1	
InChI=1S/C5H8N4/c1-2-6-5-4-7-8-9(5)3-1/h4,6H,1-3H2	InChI=1S/C5H8N4/c1-2-6-5-4-7-8-9(5)3-1/h4,6H,1-3H2
