19
gdb 80585	3.48432	1.10286	1.03215	3.3113	75.86	-0.2332	0.0356	0.2688	1232.3815	0.159774	-419.200143	-419.191381	-419.190437	-419.23397	33.173	
C	-0.0895666761	 1.6853526429	-0.4423155675	-0.424506
C	 0.305821634	 0.3917112065	 0.2307650818	 0.028079
C	 0.6640840681	-0.875843344	-0.44464417	-0.045157
C	 1.4273667729	-0.6675389726	-1.751459879	-0.262536
C	 2.4208720967	 0.187180477	-0.9278040781	-0.042606
N	 1.6973880002	-0.0954929949	 0.3662949083	-0.180486
C	 3.8534456648	-0.3391614292	-0.9303856587	 0.368496
N	 4.3381911613	-0.6230136313	 0.3035647246	-0.519445
O	 4.4792485505	-0.4528141301	-1.968086886	-0.377508
H	 0.3006321168	 1.7839273575	-1.4571099177	 0.130557
H	-1.1810417811	 1.7445497279	-0.5025523731	 0.127016
H	 0.2579015372	 2.5451948803	 0.1406079864	 0.130692
H	-0.207782169	 0.2385354162	 1.1789291599	 0.098843
H	 0.2842218496	-1.832673404	-0.0987939424	 0.095738
H	 1.8926749804	-1.575900182	-2.1350994266	 0.13202
H	 0.8880960214	-0.1809201298	-2.5681712045	 0.109269
H	 2.4700574132	 1.2510929335	-1.1810620335	 0.104318
H	 3.7033519653	-0.6098525312	 1.0872821424	 0.270083
H	 5.2615203537	-1.0138025527	 0.3873405338	 0.257131
43.7504	117.5651	183.6241	192.4792	272.428	289.201	352.4934	418.8997	456.7417	508.0171	573.4604	641.3489	703.6754	729.4896	776.7256	806.6465	833.7123	920.7474	937.8871	986.1862	990.9487	1041.4134	1076.0791	1079.1367	1103.5872	1117.644	1161.0364	1170.8387	1233.3366	1250.0073	1273.1198	1315.9073	1357.1078	1375.7204	1415.6873	1440.7982	1490.8823	1499.775	1505.7298	1587.9864	1799.1472	3041.4309	3058.5066	3069.5963	3100.0961	3114.5841	3132.4469	3135.4267	3155.7941	3572.263	3721.3775
CC1C2CC(N12)C(N)=O	C[C@H]1[C@H]2C[C@@H](N12)C(=O)N	
InChI=1S/C6H10N2O/c1-3-4-2-5(6(7)9)8(3)4/h3-5H,2H2,1H3,(H2,7,9)	InChI=1S/C6H10N2O/c1-3-4-2-5(6(7)9)8(3)4/h3-5H,2H2,1H3,(H2,7,9)/t3-,4+,5+,8?/m0/s1
