17
gdb 31347	3.42157	1.14161	0.90978	4.4125	78.64	-0.2304	-0.0319	0.1985	1278.3166	0.136701	-421.884362	-421.876206	-421.875262	-421.917612	30.312	
C	-0.011224096	 1.5675422496	 0.1906151522	-0.377782
C	-0.0186693474	 0.0516691263	-0.0722180752	-0.271609
C	-1.4001645939	-0.5240182706	-0.1402356917	 0.396147
C	-1.9903427173	-1.0785643638	-1.2168542334	-0.339902
C	-3.3586057371	-1.6028339252	-1.1792455811	 0.386468
O	-3.9187452468	-2.1106938003	-2.1403217715	-0.378338
C	-3.9834542948	-1.4500835985	 0.1410692717	-0.270403
C	-3.3143775449	-0.8834819858	 1.1549776221	 0.068526
O	-2.0465851355	-0.4181017152	 1.0568799938	-0.230844
H	 1.0157594673	 1.9378033221	 0.2510700229	 0.12365
H	-0.5221026229	 2.1058889535	-0.6131887742	 0.129397
H	-0.5148339528	 1.8025299394	 1.13174426	 0.134521
H	 0.4920920531	-0.1749126055	-1.0118070976	 0.123129
H	 0.5322523287	-0.4591103926	 0.7274124118	 0.125827
H	-1.445340358	-1.1460084982	-2.1507909373	 0.115673
H	-4.9969387133	-1.8027904523	 0.2865902891	 0.123164
H	-3.7023685284	-0.7359993028	 2.1555135084	 0.142378
59.0784	131.3518	165.891	206.1936	288.0367	329.1303	419.4051	478.6136	510.141	529.8711	664.3577	743.5096	751.9479	788.9971	852.0626	891.9412	903.6942	935.5899	969.3195	982.4073	1046.2798	1084.6542	1105.5792	1177.5074	1228.0377	1263.3024	1297.2922	1354.6884	1385.9907	1410.3932	1421.5356	1474.5404	1497.0476	1508.0346	1632.8868	1692.791	1753.2517	3035.5944	3046.9965	3096.1343	3119.7234	3129.1941	3206.6697	3208.8449	3226.2966
CCC1=CC(=O)C=CO1	CCc1cc(=O)cco1	
InChI=1S/C7H8O2/c1-2-7-5-6(8)3-4-9-7/h3-5H,2H2,1H3	InChI=1S/C7H8O2/c1-2-7-5-6(8)3-4-9-7/h3-5H,2H2,1H3
