21
gdb 90196	2.93316	1.69111	1.51434	0.4326	87.41	-0.2115	0.0708	0.2824	998.6301	0.183055	-349.817291	-349.809837	-349.808893	-349.848543	31.297	
C	-0.2659128972	 1.4874385235	 0.014585801	-0.406924
C	 0.0172802305	-0.0108074412	 0.0111922362	-0.062786
C	 1.1982811044	-0.5162618991	-0.9261608212	-0.34616
C	 2.0723395346	-0.739371898	 0.3397046601	 0.24299
C	 2.7946180886	 0.3614533792	 1.145589035	-0.29736
C	 1.986053901	-0.415160055	 2.1980169175	-0.098401
C	 2.2627333966	-1.8105005688	 1.4737734247	-0.085205
C	 0.7758990353	-2.1894953307	 1.4691235898	-0.297191
C	 0.7817849923	-0.6664507756	 1.2137178711	 0.225432
H	 0.6385467189	 2.0857247074	 0.1504591844	 0.122409
H	-0.7203184185	 1.7912648164	-0.9353632041	 0.113863
H	-0.9627800798	 1.7488344766	 0.8179158495	 0.119023
H	-0.9230979851	-0.5415544371	-0.1717982531	 0.077973
H	 0.9466414057	-1.4286377106	-1.472751861	 0.109515
H	 1.5959397867	 0.2127613219	-1.6386016248	 0.102932
H	 3.8859995119	 0.2861595533	 1.2082045093	 0.087164
H	 2.502656053	 1.3997685549	 0.9687353594	 0.093851
H	 1.9572121067	-0.2702631568	 3.2841928236	 0.062535
H	 3.1344305779	-2.4474374204	 1.6640573925	 0.061904
H	 0.4414340335	-2.827786493	 0.643765811	 0.087432
H	 0.343057563	-2.5362691469	 2.4133958592	 0.087003
160.6224	207.1771	216.3807	323.2077	366.9021	390.8143	434.2189	497.2991	569.0282	701.4094	728.131	769.9291	800.066	828.7412	875.8485	881.6449	901.7823	924.6649	949.5303	968.6373	1005.6268	1017.1494	1032.5893	1051.1225	1089.1601	1118.1818	1132.6124	1141.127	1153.4182	1170.8947	1201.6726	1217.9089	1224.1571	1236.38	1250.0002	1251.3111	1275.9338	1284.9388	1353.5011	1409.1129	1461.418	1489.8171	1496.6765	1510.4878	1514.9163	3025.5986	3029.8654	3031.5434	3036.2292	3040.4477	3047.5499	3055.0261	3082.2959	3092.5841	3096.7424	3108.0679	3119.8728
CC1CC23CC4C2CC134	C[C@H]1C[C@]23C[C@@H]4[C@H]2C[C@]134	
InChI=1S/C9H12/c1-5-2-8-3-7-6(8)4-9(5,7)8/h5-7H,2-4H2,1H3	InChI=1S/C9H12/c1-5-2-8-3-7-6(8)4-9(5,7)8/h5-7H,2-4H2,1H3/t5-,6+,7+,8-,9+/m0/s1
