20
gdb 52449	12.06841	0.39196	0.38737	2.8613	80.66	-0.2556	-0.0266	0.229	2661.668	0.168078	-440.291299	-440.280445	-440.279501	-440.330126	35.548	
N	-0.1157122835	 1.3383705588	-0.1418639673	-0.436466
C	-0.0476785031	 0.0822332506	-0.0418459422	 0.12922
O	-1.1695496923	-0.6603195058	-0.0942591644	-0.183067
C	-0.9967153618	-2.0767657706	-0.0345995551	-0.076755
C	-2.3773156463	-2.7105288603	 0.049500006	-0.192852
C	-2.3140849655	-4.2403167358	 0.0983597061	-0.200907
C	-3.7075861019	-4.8839485924	 0.2026243561	-0.274131
C	-3.6358453122	-6.392554718	 0.1343423246	 0.159458
O	-4.0687749912	-7.1451772389	 0.96745335	-0.233443
H	 0.8155908809	 1.7429711236	-0.0715251249	 0.229443
H	 0.867216834	-0.5119611383	 0.0957907558	 0.082953
H	-0.4637429312	-2.4259626238	-0.9304537203	 0.108372
H	-0.3927266192	-2.3461234845	 0.8434338083	 0.108485
H	-2.887233141	-2.3233913887	 0.9390067225	 0.121019
H	-2.9660206679	-2.3845198946	-0.8158894894	 0.118947
H	-1.8054512721	-4.6177176823	-0.7991802119	 0.106144
H	-1.7058452846	-4.5601584074	 0.9541950436	 0.11518
H	-4.2150153347	-4.598223379	 1.1285089995	 0.126214
H	-4.3233355801	-4.5436465614	-0.6429166882	 0.122213
H	-3.1252608762	-6.7827783411	-0.7787486986	 0.069974
29.4842	47.4594	54.0693	88.0894	101.0301	121.0287	158.8016	217.5153	266.0899	362.5504	472.5761	520.2137	638.6184	744.8667	785.9812	823.2053	851.9493	955.7437	988.2869	1015.3236	1036.8506	1045.5722	1066.7869	1119.0957	1142.1091	1159.1972	1207.5031	1249.7528	1275.9758	1297.3008	1322.1834	1324.7768	1333.5829	1391.8882	1413.8639	1430.6632	1437.4517	1465.0453	1489.924	1503.3417	1522.0421	1750.6011	1839.0849	2846.1573	2990.5058	3010.5865	3015.9316	3017.3139	3032.2922	3041.0761	3048.885	3087.234	3101.6033	3518.6457
N=COCCCCC=O	[NH][CH]OCCCCC=O	
InChI=1S/C6H11NO2/c7-6-9-5-3-1-2-4-8/h4,6-7H,1-3,5H2	InChI=1S/C6H11NO2/c7-6-9-5-3-1-2-4-8/h4,6-7H,1-3,5H2
