15
gdb 48313	2.17096	1.97356	1.18502	2.1844	70.88	-0.2598	-0.0639	0.1958	1003.2187	0.112618	-416.744054	-416.736402	-416.735458	-416.776487	28.391	
O	-0.2631655917	 0.085912954	-0.302613948	-0.23762
C	-0.049492094	 1.1708787301	 0.1693677316	 0.090592
C	 1.2653321092	 1.9298455301	 0.0232751248	 0.089472
C	 1.58396414	 2.5732963394	 1.2911950573	 0.209378
N	 1.8094005641	 3.0729126334	 2.3099895484	-0.324601
C	 2.4708204623	 1.3456995829	-0.7979073778	-0.057347
C	 1.6606340836	 1.543852799	-2.1051304404	-0.221544
C	 1.5295168196	 2.83870785	-1.272246763	-0.062797
N	 3.0140946346	 2.7448975768	-1.0387086855	-0.32162
H	-0.8198815089	 1.713705445	 0.7575566256	 0.109817
H	 3.1063356255	 0.5134734869	-0.4985900114	 0.113652
H	 2.2784898634	 1.659283681	-2.9938094236	 0.126874
H	 0.7825551717	 0.9239723821	-2.2579768868	 0.139419
H	 1.0246068938	 3.7769680655	-1.5023272594	 0.112722
H	 3.2697510167	 3.1910345938	-0.1525994119	 0.233602
88.8617	149.1963	163.5011	213.4469	270.9134	424.255	507.7144	523.7577	543.5046	634.8757	677.4716	741.6709	805.4703	864.4309	894.4453	919.3501	1017.3523	1038.9135	1052.2183	1065.5132	1092.2934	1154.9103	1164.9522	1177.581	1193.8234	1214.2416	1240.0433	1298.7922	1311.2463	1425.1409	1502.8359	1824.2232	2342.682	2907.7941	3115.825	3125.0185	3136.1864	3208.1384	3401.1637
O=CC1(C#N)C2CC1N2	O=C[C@@]1(C#N)[C@H]2C[C@@H]1N2	
InChI=1S/C6H6N2O/c7-2-6(3-9)4-1-5(6)8-4/h3-5,8H,1H2	InChI=1S/C6H6N2O/c7-2-6(3-9)4-1-5(6)8-4/h3-5,8H,1H2/t4-,5+,6+
