22
gdb 123233	5.85779	0.4394	0.42894	3.9384	82.07	-0.2502	0.0323	0.2825	2534.2214	0.192506	-441.502783	-441.491574	-441.49063	-441.541997	37.589	
C	-0.0632098811	 1.3630889809	 0.2412934662	-0.227634
O	-0.0309312895	-0.0170600423	-0.0269015849	-0.230371
C	-1.2991194557	-0.6261986115	 0.070921574	-0.050446
C	-1.1482740706	-2.1127387844	-0.2226277559	-0.194022
C	-2.4803427138	-2.8651725066	-0.1598178802	-0.187587
C	-2.3134846861	-4.3634400276	-0.4420380411	-0.165672
N	-3.5690110265	-5.0975280436	-0.4084448141	-0.27325
C	-3.9527785274	-5.862070251	 0.6488078346	 0.153621
O	-3.2961863434	-6.0545677359	 1.6502240514	-0.322629
H	 0.9573286233	 1.74103995	 0.1420333361	 0.126706
H	-0.7122217056	 1.9036505442	-0.4666955715	 0.101088
H	-0.4223191912	 1.5744418568	 1.2614023154	 0.103247
H	-1.7219202765	-0.4754006208	 1.0799342662	 0.086231
H	-2.0038979101	-0.1625419588	-0.6426458931	 0.080423
H	-0.6939483478	-2.2266176572	-1.214676883	 0.105343
H	-0.4396701087	-2.5404118346	 0.4966466282	 0.114761
H	-2.9376599701	-2.7464566723	 0.8299100991	 0.116851
H	-3.185743922	-2.4349830548	-0.8842568669	 0.088735
H	-1.8390705941	-4.5128902267	-1.4195680392	 0.107345
H	-1.6710538357	-4.8203912392	 0.3145119334	 0.15034
H	-4.2227829531	-4.9785422307	-1.1659218347	 0.24525
H	-4.9538438144	-6.3103591339	 0.4872160099	 0.071669
16.3384	52.4641	69.6947	93.1917	126.8503	135.5862	196.072	235.9673	254.6373	305.258	337.2441	448.967	514.0318	537.245	726.4202	761.0296	826.7345	938.662	974.918	983.991	1030.4178	1039.3822	1059.0517	1096.0083	1165.8479	1167.1822	1184.6204	1211.0081	1223.3202	1232.8956	1276.3961	1294.6747	1316.0929	1338.5382	1365.9389	1407.9788	1429.094	1431.8762	1477.1017	1482.0428	1485.5404	1489.2841	1500.9456	1508.2826	1532.9624	1535.1376	1807.0233	2929.8225	2937.4946	2963.548	2966.9963	3007.8262	3011.8654	3029.466	3033.1887	3055.5793	3078.6931	3112.1513	3116.4156	3633.2107
COCCCCNC=O	COCCCCNC=O	
InChI=1S/C6H13NO2/c1-9-5-3-2-4-7-6-8/h6H,2-5H2,1H3,(H,7,8)	InChI=1S/C6H13NO2/c1-9-5-3-2-4-7-6-8/h6H,2-5H2,1H3,(H,7,8)
