16
gdb 53634	3.85928	0.64101	0.57327	4.05	83.28	-0.2504	-0.0266	0.2238	1896.4594	0.120996	-400.714743	-400.704219	-400.703274	-400.753595	35.112	
C	-0.0875949629	 1.4056820025	 0.1905782104	-0.496984
C	-0.0316527178	-0.0338702809	-0.0173424698	 0.077154
C	 0.024654643	-1.225399989	-0.1778427714	 0.036049
C	 0.0806175514	-2.6662494833	-0.3966781493	-0.292567
N	-1.2461005449	-3.2739554333	-0.3763636433	-0.319478
C	-1.4876151917	-4.4478275921	 0.2729788182	 0.298254
O	-0.6284349964	-5.1081253894	 0.8296150977	-0.362714
C	-2.8883681607	-4.8507575834	 0.2368288919	 0.217111
C	-4.0349266036	-5.2118643212	 0.222779962	-0.399831
H	 0.724131579	 1.7411464035	 0.8451084644	 0.154675
H	-0.0005406046	 1.9512421164	-0.7552600549	 0.150272
H	-1.0328323555	 1.7000143134	 0.6594336301	 0.152448
H	 0.5834418779	-2.8816762583	-1.3501198666	 0.139685
H	 0.6608847356	-3.1700762503	 0.3829922214	 0.173906
H	-2.0176249377	-2.7673315802	-0.7794193722	 0.261711
H	-5.044821831	-5.5429169744	 0.2186596913	 0.210308
16.9436	20.0936	53.4991	135.2307	151.8951	198.5525	263.1869	270.813	320.2966	374.512	461.1264	467.53	558.7916	609.6518	659.2729	677.9371	759.7072	766.4554	917.3893	1024.3947	1051.5322	1055.2596	1073.253	1173.4842	1229.7951	1257.0078	1378.1192	1414.8284	1476.5835	1478.5011	1492.1453	1521.7087	1755.0064	2227.6811	2377.4184	3003.7941	3029.4096	3080.6662	3091.2337	3092.1146	3496.4376	3647.881	16.9584	20.0921	53.4991	135.2302	151.8951	198.5521	263.1865	270.8121	320.296	374.5102	461.1259	467.529	558.7916	609.6516	659.2716	677.9356	759.707	766.4551	917.3895	1024.3948	1051.5319	1055.2593	1073.2526	1173.484	1229.7955	1257.0084	1378.1197	1414.8282	1476.583	1478.5006	1492.1462	1521.7093	1755.0062	2227.6812	2377.4181	3003.794	3029.4097	3080.6661	3091.2337	3092.1147	3496.4373	3647.8807
CC#CCNC(=O)C#C	CC#CCNC(=O)C#C	
InChI=1S/C7H7NO/c1-3-5-6-8-7(9)4-2/h2H,6H2,1H3,(H,8,9)	InChI=1S/C7H7NO/c1-3-5-6-8-7(9)4-2/h2H,6H2,1H3,(H,8,9)
