23
gdb 115596	3.11259	0.97222	0.90642	2.605	81.38	-0.2448	0.0724	0.3172	1434.4282	0.204221	-425.416534	-425.406213	-425.405268	-425.451957	38.174	
C	 0.3018823524	 1.6353959763	 0.1384807507	-0.384556
C	 0.1072635188	 0.1150790168	 0.1532245484	-0.202417
C	 0.4778788001	-0.5307111197	-1.1785638104	-0.086232
C	 1.9860591269	-0.6623260821	-1.4858361833	-0.083439
O	 1.9225127441	-2.1045985522	-1.4698503079	-0.33653
C	 0.4676760869	-2.0841645122	-1.3012322699	 0.376823
C	 0.0439978022	-2.9288366434	-0.1117698319	-0.442713
C	-0.1446600953	-2.5987526034	-2.6097258638	-0.086461
O	 0.3743051529	-3.8721806651	-2.9337594399	-0.42402
H	 1.342981629	 1.9033172036	-0.0735967652	 0.118968
H	-0.3229442313	 2.1068457726	-0.6281781169	 0.116895
H	 0.0374842677	 2.0775480353	 1.1036386465	 0.116644
H	 0.7100216611	-0.322095829	 0.9581918698	 0.103513
H	-0.9384911312	-0.1159407911	 0.3916848784	 0.100737
H	-0.0889843735	-0.0489667715	-1.9828765923	 0.070449
H	 2.3139130636	-0.2750723346	-2.4582118682	 0.100737
H	 2.6621877675	-0.282203912	-0.7093825274	 0.100984
H	 0.6118114034	-2.6709088818	 0.7845886072	 0.117611
H	-1.0227868607	-2.7945960966	 0.0970945314	 0.114838
H	 0.213824082	-3.9838623874	-0.3427398224	 0.136714
H	-1.2316916161	-2.7028245799	-2.5157434168	 0.103585
H	 0.055497995	-1.8711468679	-3.4131868266	 0.077512
H	 1.3340333644	-3.7748808748	-2.8702241893	 0.290359
55.7708	94.4559	118.3524	160.4694	212.4289	229.8014	249.1083	294.619	326.472	349.3739	382.5663	455.8198	509.4674	573.3394	690.7927	776.1973	820.119	867.3129	897.1933	930.4298	954.0035	968.9704	984.6798	1020.7138	1063.4219	1072.336	1105.0731	1135.3667	1155.0808	1175.087	1206.9746	1219.7693	1267.7438	1276.163	1304.0878	1333.1734	1357.0882	1383.1294	1399.7858	1408.958	1413.8442	1433.5148	1477.3542	1488.9811	1497.5151	1500.0687	1502.9284	1506.5709	1528.0083	2968.9077	3011.4968	3024.2048	3029.8817	3037.0311	3043.5172	3053.5373	3063.5928	3065.3516	3096.6706	3105.8592	3114.7867	3132.9934	3760.2869
CCC1COC1(C)CO	CC[C@H]1CO[C@]1(C)CO	
InChI=1S/C7H14O2/c1-3-6-4-9-7(6,2)5-8/h6,8H,3-5H2,1-2H3	InChI=1S/C7H14O2/c1-3-6-4-9-7(6,2)5-8/h6,8H,3-5H2,1-2H3/t6-,7+/m0/s1
