18
gdb 74020	2.47203	1.9266	1.26741	2.5497	78.7	-0.2276	0.0019	0.2295	1015.3744	0.148854	-401.881044	-401.873518	-401.872574	-401.912893	29.378	
C	 0.0268126608	 1.452570853	 0.0146065099	-0.495177
C	-0.2060415041	-0.0228056346	 0.012253988	 0.238618
C	-0.3285630936	-0.8581120583	-1.0225518493	 0.0264
C	 0.3292515899	-1.1540748218	-2.3509137757	-0.137113
O	 0.7697990685	-2.4280993883	-1.7889835424	-0.301887
C	-0.1777274665	-2.3068557465	-0.6727298637	 0.135725
C	 0.2049213537	-2.2886671837	 0.7958289161	-0.098683
N	 1.3610459214	-1.4541743497	 1.1703776627	-0.320796
C	-0.0051528377	-0.8688193898	 1.2461685928	-0.138786
H	 0.9919887001	 1.6886982343	 0.4794567766	 0.13938
H	 0.0197320625	 1.8625540282	-0.9987803687	 0.12561
H	-0.7425537417	 1.9797135777	 0.5929699222	 0.126948
H	-0.3395678981	-1.3133428846	-3.2072863198	 0.101626
H	 1.1670741479	-0.5141568916	-2.647289647	 0.118028
H	-1.0308786937	-2.9776014019	-0.8442873596	 0.073099
H	-0.0612333566	-3.1207148495	 1.4386231901	 0.086087
H	 1.6548590827	-1.7372169436	 2.1040149105	 0.231684
H	-0.4169917955	-0.6193586293	 2.2193924473	 0.089236
147.7238	169.7769	196.3371	208.5956	248.6778	415.7365	512.392	556.0259	586.9594	688.2405	728.3202	789.5343	846.6401	862.7302	883.3637	900.629	938.0159	961.5798	970.0681	1034.442	1049.8802	1075.0084	1101.6125	1123.6849	1135.2205	1149.5474	1170.8917	1221.9812	1227.0057	1263.958	1320.5206	1355.4888	1369.3856	1402.0873	1409.5662	1478.8383	1487.5564	1510.7258	1749.7819	3003.3896	3010.6837	3019.4301	3068.0256	3071.6996	3112.3774	3155.3959	3171.038	3478.5662
CC1=C2COC2C2NC12	C[C]1[C]2CO[C@H]2[C@H]2N[C@@H]12	
InChI=1S/C7H9NO/c1-3-4-2-9-7(4)6-5(3)8-6/h5-8H,2H2,1H3	InChI=1S/C7H9NO/c1-3-4-2-9-7(4)6-5(3)8-6/h5-8H,2H2,1H3/t5-,6-,7+/m0/s1
