19
gdb 115438	4.80452	0.81691	0.73822	4.8932	76.28	-0.2474	0.0226	0.27	1497.6516	0.161014	-419.213178	-419.204105	-419.203161	-419.248449	32.892	
O	 0.00593932	 1.4123976148	-0.2168628595	-0.422081
C	 0.0515851083	 0.0110575568	 0.0025120674	-0.094327
C	-1.3833945354	-0.491396863	 0.0470705833	 0.033915
C	-2.1730042454	-0.2468745909	-1.2606842165	-0.177845
N	-3.238400935	-1.2565728946	-1.3038652214	-0.306246
C	-2.6044737554	-2.4716535972	-0.7595302104	-0.079761
C	-1.4993566693	-2.0202006837	 0.2632818764	-0.280119
C	-3.5893799961	-3.3832231705	-0.1804684095	 0.253864
N	-4.3617544506	-4.0955957216	 0.3005358488	-0.319537
H	 0.9069869104	 1.7471662967	-0.2434083094	 0.29077
H	 0.5919736134	-0.504562892	-0.8101318786	 0.084329
H	 0.567910598	-0.2311992729	 0.9447673213	 0.093506
H	-1.8963619042	 0.0313868008	 0.8621828882	 0.087437
H	-2.5918323035	 0.7571624612	-1.3349366461	 0.125501
H	-1.5137148415	-0.3949422768	-2.1271869155	 0.106559
H	-3.9911120825	-0.9745408436	-0.6818229441	 0.232042
H	-2.1200157558	-2.9974591123	-1.5919079189	 0.131201
H	-0.5586112828	-2.5372653301	 0.0499941172	 0.111644
H	-1.7821246527	-2.267506981	 1.2880124673	 0.129148
17.2722	113.8872	148.4398	164.7932	226.4577	271.1254	286.8676	378.2595	418.2795	538.0752	555.9556	608.4115	639.6167	799.8451	823.9165	865.9014	929.3446	946.0331	1005.3462	1021.8103	1061.3663	1072.4763	1091.2389	1107.9449	1124.5907	1203.5856	1218.8804	1248.9006	1278.8961	1297.4769	1310.6144	1330.3784	1338.1342	1360.8401	1387.8848	1458.7099	1474.3259	1493.5939	1499.7136	1521.8399	2361.8299	2953.7004	2990.5241	3016.8889	3025.4848	3046.2107	3059.1405	3116.2709	3129.5018	3505.2061	3831.0538
OCC1CNC(C1)C#N	OC[C@H]1CN[C@@H](C1)C#N	
InChI=1S/C6H10N2O/c7-2-6-1-5(4-9)3-8-6/h5-6,8-9H,1,3-4H2	InChI=1S/C6H10N2O/c7-2-6-1-5(4-9)3-8-6/h5-6,8-9H,1,3-4H2/t5-,6+/m1/s1
