20
gdb 14027	3.11368	1.61239	1.29772	1.2528	75.68	-0.2539	0.0714	0.3253	1028.0799	0.177003	-348.973339	-348.964918	-348.963974	-349.006562	31.543	
O	 0.2370397945	 0.4157926131	 0.9766028159	-0.421158
C	-0.1524428635	 0.1090210216	-0.3591118408	-0.098578
C	-1.4974778435	-0.5617279288	-0.3170354066	-0.04688
C	-1.8546944706	-1.587896703	-1.371800815	-0.38138
C	-1.6029148816	-2.0180673216	 0.0425947805	 0.389911
C	-0.4669704388	-2.8845202223	 0.6103163688	-0.29265
C	-1.39302481	-3.2204176194	 1.8172960394	-0.19938
C	-2.6010798221	-2.6087738627	 1.0476067666	-0.295397
H	 1.0537220708	 0.9230957034	 0.9403334783	 0.284396
H	-0.2061806748	 1.0224102639	-0.9727338494	 0.087214
H	 0.5783308891	-0.5624057673	-0.8380876628	 0.080996
H	-2.302906615	 0.0778629279	 0.0368433715	 0.084193
H	-2.8744694645	-1.6074061466	-1.7436190367	 0.107671
H	-1.1050731055	-1.8268723784	-2.1215017621	 0.104939
H	-0.2428744732	-3.757652229	-0.0110595021	 0.091862
H	 0.4658535536	-2.3685470076	 0.8487530349	 0.108635
H	-1.4731448107	-4.2730999505	 2.0967575685	 0.092767
H	-1.1332063195	-2.6414946608	 2.7062784811	 0.110546
H	-3.2281323704	-1.8993704248	 1.5953768968	 0.096822
H	-3.2481551141	-3.3720440468	 0.6024457631	 0.095473
56.1689	109.2407	139.861	196.7381	281.2591	319.3871	356.6773	416.3277	489.0743	573.6616	709.6276	782.929	787.6478	851.4286	877.055	902.5167	939.9701	956.0022	985.3232	1011.3552	1041.7765	1067.2057	1080.4386	1095.4717	1139.0436	1167.7104	1191.34	1223.1262	1238.8519	1247.2714	1255.746	1269.186	1278.3309	1289.0593	1332.6003	1411.3197	1465.9319	1474.3634	1477.0675	1493.7714	1505.8799	1515.0524	2964.6448	2991.9254	3039.5238	3046.6116	3068.086	3087.0356	3102.582	3114.3658	3124.6394	3133.4769	3197.7754	3821.7985
OCC1CC11CCC1	OC[C@H]1CC21CCC2	
InChI=1S/C7H12O/c8-5-6-4-7(6)2-1-3-7/h6,8H,1-5H2	InChI=1S/C7H12O/c8-5-6-4-7(6)2-1-3-7/h6,8H,1-5H2/t6-/m1/s1
