17
gdb 79975	3.0799	1.33603	1.19362	3.4887	75.4	-0.24	-0.03	0.21	1084.4685	0.137026	-418.028732	-418.020817	-418.019873	-418.061435	29.448	
C	-0.0884156795	 1.555770861	-0.0314499741	-0.418867
C	 0.0555043998	 0.0539582895	 0.0359191181	-0.046489
C	 1.360342549	-0.6943693262	-0.1889018476	-0.029572
N	 2.6013350513	 0.0345041722	-0.0761753893	-0.245923
C	 2.6939349403	 0.4437396305	 1.1306239398	 0.048687
N	 1.6484045447	 0.0612732206	 1.9799898478	-0.053707
C	 1.5838387557	 0.3222297425	 3.3297428898	 0.150969
O	 2.4168048703	 0.9459946773	 3.9440538448	-0.308388
C	 0.6928842882	-0.6826162097	 1.1914711609	-0.070529
H	 0.8140763071	 2.0744846884	 0.2982234877	 0.138154
H	-0.2915456512	 1.8724097786	-1.0590692854	 0.130391
H	-0.9192312935	 1.8934404906	 0.597090136	 0.122549
H	-0.7940383935	-0.4923370431	-0.3669826975	 0.10113
H	 1.3724942107	-1.552929101	-0.8496400136	 0.106993
H	 3.4940304537	 1.0492188428	 1.5353326717	 0.168553
H	 0.6748356032	-0.1083598353	 3.7892770184	 0.089995
H	 0.2197244738	-1.5281388388	 1.6758196724	 0.116054
79.9341	138.8258	206.4645	224.8694	241.6154	269.2765	461.5781	469.0722	559.6433	681.6265	694.9364	762.8555	806.8347	821.5814	896.4081	944.2356	951.7061	981.098	1009.9078	1030.8673	1066.8339	1089.5467	1122.6764	1142.7614	1207.5595	1247.6713	1285.4244	1295.1878	1334.6388	1393.8353	1425.0093	1430.9875	1437.8265	1490.9358	1499.708	1656.4856	1802.5308	2962.936	3042.5855	3102.3744	3126.1424	3143.003	3178.1498	3185.9284	3243.2133
CC1C2N=CN(C=O)C12	C[C@H]1[C@H]2N=CN(C=O)[C@@H]12	
InChI=1S/C6H8N2O/c1-4-5-6(4)8(3-9)2-7-5/h2-6H,1H3	InChI=1S/C6H8N2O/c1-4-5-6(4)8(3-9)2-7-5/h2-6H,1H3/t4-,5+,6-/m0/s1
