16
gdb 22013	2.44265	1.60367	0.97384	2.7537	80.78	-0.1835	-0.0247	0.1589	1150.6729	0.125318	-434.036527	-434.028246	-434.027302	-434.069167	31.245	
C	 0.0807359611	 1.5006958686	 0.0576334116	-0.481328
C	 0.0112585341	 0.0054163073	 0.0341006358	 0.207181
C	-0.0968276542	-0.7070536964	-1.1101219716	-0.060059
N	-0.1586080766	-2.0776548418	-1.1028322005	-0.247105
N	-0.1188241323	-2.8279718285	 0.01243045	-0.191412
C	-0.0154963223	-2.1943413624	 1.1389424387	-0.05195
C	 0.059856283	-0.7424779095	 1.2816608071	 0.255604
N	 0.1633050078	-0.0931346223	 2.3993823565	-0.267415
O	 0.1956957165	-0.9816612728	 3.4986323639	-0.405048
H	 1.0056462211	 1.8342347245	 0.5410308217	 0.142377
H	 0.0329516218	 1.9209118961	-0.9504913411	 0.109095
H	-0.7384706006	 1.9134417358	 0.6567300662	 0.142382
H	-0.1408526601	-0.2471823156	-2.0907464727	 0.125186
H	-0.2388499659	-2.6038161379	-1.9554913401	 0.273616
H	 0.0150902742	-2.8132378448	 2.0253373365	 0.146371
H	 0.2723765825	-0.3736009604	 4.2400177381	 0.302507
108.328	177.8429	208.2799	217.0949	294.6869	312.5131	354.3357	394.9126	489.3719	507.4802	541.8493	563.1802	626.9248	751.1025	790.7575	871.142	873.067	940.1439	980.8937	986.0776	1061.2241	1063.8581	1180.2955	1226.0455	1300.7981	1348.4134	1381.7522	1414.4418	1442.0559	1462.5456	1488.2058	1506.2118	1621.2371	1651.6055	1698.7681	3031.6871	3085.0397	3116.8219	3198.7431	3233.3285	3671.4324	3833.8431
CC1=CNN=CC1=NO	Cc1c[nH]ncc1=NO	
InChI=1S/C5H7N3O/c1-4-2-6-7-3-5(4)8-9/h2-3,9H,1H3,(H,6,8)	InChI=1S/C5H7N3O/c1-4-2-6-7-3-5(4)8-9/h2-3,9H,1H3,(H,6,8)
