19
gdb 87153	2.90161	1.24617	1.09193	1.8818	71.72	-0.2305	0.0547	0.2852	1172.0816	0.156557	-460.115438	-460.106128	-460.105184	-460.149258	36.284	
O	-0.4252253162	 1.5064046547	-0.1644856826	-0.435394
C	-0.1075675029	 0.1512694197	-0.2398366413	 0.073473
C	 0.1125878952	-0.676278182	 1.0073929457	-0.362693
C	-1.1461443259	-0.8630316492	 0.1948046264	 0.275855
O	-2.2858911817	-0.290502658	 0.7957452637	-0.472664
C	-1.3841968289	-2.1518513204	-0.5515939066	 0.337974
O	-0.2664659573	-2.5911932013	-1.2792955387	-0.457115
C	-2.1796987307	-3.2488157405	 0.083977352	-0.284554
C	-2.7486508545	-2.4950940818	-1.1038770746	-0.346042
H	-1.1571922814	 1.5776697219	 0.4624764214	 0.281513
H	 0.5190426884	-0.0523567683	-1.1011340875	 0.095157
H	 0.8521537028	-1.4680077312	 0.9711090371	 0.130036
H	-0.0004087298	-0.177593322	 1.9643645085	 0.119135
H	-2.8749908877	-0.0111843925	 0.0838303336	 0.288541
H	-0.208940872	-2.060629939	-2.0817593544	 0.285998
H	-1.8302938024	-4.2608349594	-0.0820817402	 0.124147
H	-2.6142656219	-3.0536730088	 1.057415963	 0.127905
H	-3.5889890508	-1.8320843284	-0.9288755435	 0.101545
H	-2.7664490422	-3.0054822234	-2.0604950722	 0.117183
47.5251	152.678	201.8668	247.0883	262.9017	299.8865	320.0151	356.4836	403.0082	439.4231	462.5461	504.0501	530.0122	580.4155	678.0111	770.7277	800.8736	858.6052	875.5543	918.4065	930.2652	953.3808	988.1495	1014.5953	1041.9397	1055.6186	1082.2298	1095.5438	1130.2986	1179.1745	1190.6873	1239.4461	1269.3953	1312.8439	1337.21	1354.6331	1387.7878	1422.8061	1443.9581	1474.3917	1498.6656	3132.9131	3133.9408	3145.0723	3171.7577	3217.9945	3231.0973	3240.7584	3760.409	3776.8062	3796.6077
OC1CC1(O)C1(O)CC1	O[C@H]1C[C@]1(O)C1(O)CC1	
InChI=1S/C6H10O3/c7-4-3-6(4,9)5(8)1-2-5/h4,7-9H,1-3H2	InChI=1S/C6H10O3/c7-4-3-6(4,9)5(8)1-2-5/h4,7-9H,1-3H2/t4-,6+/m0/s1
