15
gdb 130141	3.4179	1.28606	0.93761	1.1596	80.71	-0.1904	-0.0068	0.1836	1177.0157	0.113536	-412.973911	-412.964918	-412.963974	-413.007196	33.293	
N	-0.0371513202	 1.3877838816	 0.1012597775	-0.609655
C	 0.0296335793	-0.0084720088	 0.0215347815	 0.328048
N	-1.0488394887	-0.7860936474	 0.0559717307	-0.283006
N	-0.5692352422	-2.0424078615	 0.0373030038	-0.324405
C	 0.8020399122	-2.0906575239	-0.0202591835	 0.229941
C	 1.54663826	-3.2819850214	-0.0437893821	 0.242277
C	 2.20328684	-4.2937702582	-0.0597967589	-0.429552
C	 1.2249230978	-0.7656550123	-0.0266316648	 0.016111
N	 2.5202190544	-0.2458858486	-0.1219959057	-0.633716
H	 0.5022509246	 1.8338316769	-0.6330661904	 0.248813
H	-0.998435466	 1.7045402433	 0.0536305012	 0.250172
H	-1.2035188216	-2.8207649286	 0.03637535	 0.273308
H	 2.7769611147	-5.1869115411	-0.0787757377	 0.192102
H	 3.2297691971	-0.9549265356	 0.0175373869	 0.249097
H	 2.6696549987	 0.5160333955	 0.5306892116	 0.250464
115.0192	123.5376	153.0399	226.6558	235.7606	280.5953	343.1535	380.2561	406.0849	470.8583	514.9713	522.1144	590.7972	668.3314	690.3872	710.4526	720.2351	791.1415	802.8826	839.5323	1004.4133	1106.9597	1221.9363	1240.0387	1270.2351	1303.303	1457.7302	1507.4346	1570.5405	1609.404	1643.2565	1658.1024	2220.1918	3501.4586	3510.688	3512.2825	3607.3156	3609.0407	3696.4135
NC1=NNC(C#C)=C1N	Nc1n[nH]c(C#C)c1N	
InChI=1S/C5H6N4/c1-2-3-4(6)5(7)9-8-3/h1H,6H2,(H3,7,8,9)	InChI=1S/C5H6N4/c1-2-3-4(6)5(7)9-8-3/h1H,6H2,(H3,7,8,9)
