19
gdb 90900	2.44946	1.93382	1.43535	2.052	73.35	-0.2396	0.0644	0.304	961.9811	0.160472	-423.002202	-422.994571	-422.993627	-423.033699	31.531	
O	-0.0846032379	 1.436305709	-0.0934741247	-0.45126
C	 0.0040799669	 0.0233369459	 0.0259140734	 0.07315
C	 0.6336392721	-0.5195240337	 1.3338121841	-0.289614
C	-0.2454171601	-1.7255200062	 1.670829268	-0.039065
C	-1.7211102387	-1.4914706325	 1.9498791002	-0.065718
C	-2.1681631312	-0.1515151851	 1.3601226924	-0.298642
C	-1.4178153245	-0.5451582116	 0.039031392	 0.426193
O	-2.1021809231	-0.3869134163	-1.1682840854	-0.513039
C	-1.2646317741	-1.9848545007	 0.588120011	-0.137594
H	 0.7957052148	 1.7895095867	-0.2505899443	 0.288436
H	 0.5233500154	-0.400690339	-0.8477029399	 0.068503
H	 1.6780343099	-0.8133969754	 1.1911934775	 0.094255
H	 0.6094520753	 0.2509124866	 2.1121144969	 0.105286
H	 0.1948282655	-2.5781933617	 2.1754530409	 0.083384
H	-2.232941987	-2.0470374493	 2.7269799375	 0.081688
H	-3.2430815346	-0.1421860057	 1.1664572639	 0.105711
H	-1.8733794882	 0.7750326144	 1.8624030902	 0.096387
H	-1.9897018916	 0.5374378698	-1.4236370064	 0.282874
H	-1.4398596989	-2.9127123451	 0.0614653727	 0.089065
130.5395	231.891	272.9314	296.4961	352.5337	387.5025	391.1647	471.1969	533.2879	551.577	642.7541	688.5258	747.7632	785.8594	816.3338	890.6183	916.4501	956.6283	977.0195	982.1557	1004.6343	1032.3904	1047.4273	1069.925	1071.2953	1115.8489	1127.4746	1163.3373	1187.8873	1213.079	1239.817	1245.8947	1272.1873	1294.1332	1316.567	1353.0854	1381.5128	1409.8292	1430.5978	1487.2641	1505.4822	2979.7968	3042.5364	3051.6137	3085.023	3114.7132	3170.3113	3179.2419	3212.5316	3778.2335	3832.2291
OC1CC2C3CC1(O)C23	O[C@H]1C[C@H]2[C@H]3C[C@]1(O)[C@@H]23	
InChI=1S/C7H10O2/c8-5-1-3-4-2-7(5,9)6(3)4/h3-6,8-9H,1-2H2	InChI=1S/C7H10O2/c8-5-1-3-4-2-7(5,9)6(3)4/h3-6,8-9H,1-2H2/t3-,4+,5-,6-,7+/m0/s1
