16
gdb 16872	3.39148	2.05578	1.55349	3.7157	63.83	-0.2431	-0.0154	0.2277	834.0833	0.131743	-383.755521	-383.748738	-383.747794	-383.786791	25.806	
O	 0.0794134344	-0.1915103467	 0.1670202475	-0.303108
C	 0.0112899865	 1.0126361597	 0.1927449855	 0.391354
C	-1.3066948313	 1.7720266519	 0.1968989101	-0.300776
C	-1.4283654744	 2.7723277784	 1.3672328725	-0.236829
C	-0.1276976195	 3.4803875229	 1.698790524	 0.041859
O	 0.8169863579	 2.7173839932	 2.461598088	-0.249138
C	 1.162592099	 3.0636195549	 1.1190016361	 0.051661
C	 1.2539123945	 1.9000636	 0.1576651248	-0.333089
H	-1.3496467615	 2.330644297	-0.7486870288	 0.117954
H	-2.1271598572	 1.0518308238	 0.1976018984	 0.125183
H	-2.1973469904	 3.5147739065	 1.1310824035	 0.10955
H	-1.7616561006	 2.25113135	 2.2714220796	 0.134308
H	-0.2224851541	 4.5127545657	 2.0363727008	 0.097187
H	 1.9600179942	 3.8037574152	 1.0388417562	 0.094902
H	 2.1328506339	 1.2849836636	 0.3707150092	 0.135623
H	 1.3616200786	 2.287417494	-0.8657695773	 0.12336
81.8588	120.7916	324.1376	360.2473	394.2601	480.808	525.4226	553.6114	705.2482	755.9547	789.9464	807.6547	867.1844	922.711	953.8638	1001.444	1031.8118	1046.9623	1066.1499	1151.3264	1180.9054	1222.7314	1225.9658	1251.6752	1293.0373	1320.7832	1331.1763	1376.8197	1386.7621	1449.9352	1469.3629	1476.5162	1486.4481	1829.7739	3015.1503	3021.7683	3044.9283	3084.3168	3094.6212	3098.0471	3110.9085	3115.5351
O=C1CCC2OC2C1	O=C1CC[C@H]2O[C@H]2C1	
InChI=1S/C6H8O2/c7-4-1-2-5-6(3-4)8-5/h5-6H,1-3H2	InChI=1S/C6H8O2/c7-4-1-2-5-6(3-4)8-5/h5-6H,1-3H2/t5-,6+/m1/s1
