13
gdb 128445	4.72702	1.10997	0.90402	1.644	62.21	-0.3003	-0.0786	0.2216	1201.2425	0.089118	-489.89968	-489.891815	-489.890871	-489.933362	26.495	
C	 0.0175528024	 1.2935344015	 0.1282281357	-0.246915
O	 0.1214773199	-0.1345581401	 0.0041240253	-0.222272
C	 0.693045065	-0.5643134082	-1.1253227687	 0.37505
O	 1.1122976702	 0.1255622056	-2.0138676491	-0.336871
C	 0.7504880141	-2.05773249	-1.1516496906	 0.335884
N	 1.2422136287	-2.795773437	-2.1015909846	-0.28423
C	 1.0340025222	-4.0549241374	-1.6051366142	 0.041263
N	 0.4555071339	-4.1015070692	-0.433088033	-0.094727
O	 0.2613071477	-2.7602535873	-0.1210806707	-0.177979
H	 1.0096830854	 1.7501515	 0.1031368277	 0.152042
H	-0.5834822599	 1.702891318	-0.6870084209	 0.152071
H	-0.464124904	 1.4684222616	 1.0890740825	 0.147688
H	 1.3188765944	-4.9565491475	-2.1269760294	 0.158996
46.7411	113.5701	132.3938	154.6739	246.2427	310.5994	403.8658	477.9118	652.9239	671.444	814.4849	821.9705	931.2748	934.4019	977.6651	982.3563	1037.493	1177.3704	1178.2939	1199.8568	1232.1853	1277.4677	1326.6639	1469.5236	1482.6805	1488.2081	1495.5991	1611.3472	1833.1083	3058.3995	3136.2469	3173.4995	3267.8885
COC(=O)C1=NC=NO1	COC(=O)c1ncno1	
InChI=1S/C4H4N2O3/c1-8-4(7)3-5-2-6-9-3/h2H,1H3	InChI=1S/C4H4N2O3/c1-8-4(7)3-5-2-6-9-3/h2H,1H3
