17
gdb 11816	3.55558	1.72795	1.36368	2.4812	70.48	-0.2307	-0.022	0.2087	949.8577	0.141365	-363.846685	-363.838761	-363.837817	-363.879048	29.466	
C	-0.6266736909	 1.3568048174	-0.0575186048	-0.38311
C	 0.083145426	 0.0126333992	-0.0169135208	-0.072196
N	 1.3580512612	-0.0664764201	-0.8129819961	-0.393841
C	 2.1168289697	-0.503607545	 0.3736645518	 0.243408
C	 3.1567160461	-1.5921194023	 0.4748654861	-0.326194
C	 3.5446288165	-0.1574159633	 0.7065287311	-0.296612
C	 0.9103269427	-0.3190530473	 1.2448478015	 0.320471
O	 0.6883673291	-0.3766496775	 2.4202805182	-0.31398
H	 0.0729900781	 2.1675124969	 0.1632473912	 0.127783
H	-1.0574925717	 1.5383736173	-1.0468182112	 0.121679
H	-1.4334156919	 1.3783227891	 0.6819110515	 0.129844
H	-0.6181292045	-0.8026150854	-0.2425103789	 0.098604
H	 1.313783351	-0.7836420978	-1.5303319265	 0.22066
H	 3.094477098	-2.2641261741	 1.3244764293	 0.136032
H	 3.4679109485	-2.0579584797	-0.4550369546	 0.123024
H	 4.1063555357	 0.349931792	-0.0700703804	 0.129588
H	 3.7492534162	 0.1683257106	 1.7209440725	 0.134841
66.9598	172.1616	197.2416	209.3859	217.1033	328.5078	395.6993	489.5462	563.0355	687.933	722.2556	757.5967	790.853	835.1957	873.7788	915.0653	957.4129	978.7817	1016.4132	1053.3217	1067.6374	1072.3404	1082.9879	1141.6753	1194.7095	1211.9524	1282.3041	1320.1634	1338.7836	1387.9861	1406.2851	1451.0056	1483.2824	1485.8075	1495.7156	1896.8738	3013.6526	3040.118	3112.7103	3121.8201	3125.8051	3133.7648	3211.7975	3230.7361	3514.0076
CC1NC2(CC2)C1=O	C[C@H]1NC2(CC2)C1=O	
InChI=1S/C6H9NO/c1-4-5(8)6(7-4)2-3-6/h4,7H,2-3H2,1H3	InChI=1S/C6H9NO/c1-4-5(8)6(7-4)2-3-6/h4,7H,2-3H2,1H3/t4-/m1/s1
