18
gdb 12969	2.28846	2.18717	1.79333	1.2407	67.55	-0.2397	0.0723	0.312	873.7301	0.152388	-384.903671	-384.895285	-384.894341	-384.93578	31.89	
C	-0.2515576301	 1.5786393623	-0.0312576548	-0.425163
C	 0.035082403	 0.0814052086	-0.0236571672	-0.014373
C	 1.1860028785	-0.5130289936	-0.905062422	-0.249811
C	 1.7424863219	-1.2510764979	 0.3192420065	-0.177205
C	 2.1217037971	-0.2571111467	 1.3863271899	 0.023629
O	 2.642966534	 1.0166187769	 1.11623022	-0.419724
C	 0.6746047085	-0.5747861983	 1.2087832242	 0.344097
O	-0.0726228326	-1.1506159912	 2.2254340885	-0.462072
H	 0.6566413083	 2.1520078039	 0.1644879938	 0.139782
H	-0.6614824611	 1.8921777726	-0.9980120025	 0.107119
H	-0.9920048849	 1.8365631409	 0.7351039182	 0.106023
H	-0.8837864579	-0.4744818283	-0.2384596534	 0.081225
H	 0.8278623997	-1.1768313861	-1.6938445832	 0.101492
H	 1.8628249064	 0.2260296337	-1.3433536268	 0.092809
H	 2.1149948227	-2.2685568598	 0.3338733448	 0.090471
H	 2.5328253361	-0.7298654692	 2.2804027177	 0.08779
H	 3.5275316555	 0.903133859	 0.7517641609	 0.286747
H	-0.1134686852	-0.5300624066	 2.9611118155	 0.287162
147.9226	174.0614	201.2622	217.817	254.0051	273.2434	317.5877	363.7082	400.9006	529.5759	588.7188	644.9674	714.2929	797.6872	838.2334	869.5304	907.666	963.1498	1000.0289	1017.274	1076.9142	1108.8887	1118.891	1146.4248	1179.9861	1211.1277	1229.7807	1247.6162	1290.2099	1295.7216	1329.7668	1341.4491	1381.3022	1402.9002	1467.1936	1493.4832	1500.7883	1509.0373	3027.9555	3049.2296	3057.831	3083.6946	3089.5821	3114.8821	3134.8154	3182.0505	3798.3178	3799.0188
CC1CC2C(O)C12O	C[C@H]1C[C@H]2[C@@H](O)[C@@]12O	
InChI=1S/C6H10O2/c1-3-2-4-5(7)6(3,4)8/h3-5,7-8H,2H2,1H3	InChI=1S/C6H10O2/c1-3-2-4-5(7)6(3,4)8/h3-5,7-8H,2H2,1H3/t3-,4-,5+,6+/m0/s1
