19
gdb 101509	5.57752	0.55955	0.54152	5.4356	91.68	-0.2364	-0.0437	0.1927	2028.6631	0.157569	-382.043563	-382.033288	-382.032344	-382.079714	35.912	
C	 0.0759866141	 1.5399412722	 0.0295822073	-0.399888
C	-0.0294431264	 0.0160944346	 0.0134945884	-0.10399
N	-1.4114783709	-0.4672139338	-0.0332639289	-0.057224
C	-2.0907343138	-0.1325899197	-1.2799521608	-0.333814
C	-1.4601907719	-1.9023567818	 0.2322728483	-0.325452
C	-2.8139077311	-2.3884045229	 0.4797806292	 0.037537
C	-3.9262951672	-2.8123698988	 0.6846208945	 0.122395
C	-5.1845571573	-3.2889954615	 0.9165855272	 0.202896
N	-6.2551738143	-3.6953374464	 1.1121225147	-0.336335
H	 1.1142039377	 1.8356184087	 0.2075331169	 0.120612
H	-0.2319766046	 1.9890531813	-0.9184400085	 0.124618
H	-0.5455391764	 1.9578087917	 0.8267333294	 0.131482
H	 0.5681957333	-0.3899904213	-0.8270193411	 0.080357
H	 0.4199815249	-0.3756108304	 0.933396912	 0.103157
H	-1.5848439941	-0.5555463532	-2.1690406672	 0.095147
H	-3.1141281405	-0.5149446503	-1.2550778112	 0.137719
H	-2.1444597039	 0.9508579026	-1.3995013507	 0.131477
H	-1.0203693638	-2.5072015188	-0.5878949188	 0.122152
H	-0.8559947935	-2.1111399623	 1.1239143794	 0.147155
44.7819	68.499	98.2615	157.5905	200.9591	215.3124	258.1374	287.7037	361.2893	366.1781	376.1586	402.9121	533.0237	577.4238	587.68	746.1694	812.2776	825.997	955.4959	996.6496	1060.093	1077.4801	1121.5934	1161.2414	1169.142	1199.6802	1250.1204	1292.6697	1335.6131	1370.3407	1402.5184	1426.6256	1459.0492	1467.8688	1486.678	1492.1706	1501.0382	1506.6276	1516.3495	2266.5409	2403.6573	2888.7571	2905.9912	2928.7491	3042.4909	3046.2069	3049.1102	3090.5904	3115.533	3122.6893	3135.1205
CCN(C)CC#CC#N	CCN(C)CC#CC#N	
InChI=1S/C7H10N2/c1-3-9(2)7-5-4-6-8/h3,7H2,1-2H3	InChI=1S/C7H10N2/c1-3-9(2)7-5-4-6-8/h3,7H2,1-2H3
