18
gdb 78089	2.81163	1.28384	1.04613	4.407	77.04	-0.2584	0.0036	0.262	1192.6314	0.146158	-401.925836	-401.916938	-401.915994	-401.959308	32.917	
C	 0.0122719198	 1.5828832685	 0.065251934	-0.427226
C	 0.0699173431	 0.0719491944	 0.0485054902	-0.078764
C	 1.3003021595	-0.7568810566	-0.2955102453	-0.196269
C	 2.5300863968	-0.1253837252	 0.3594578441	-0.055515
O	 1.8687705015	-0.0743589876	 1.6456094259	-0.31185
C	 0.7164594256	-0.7701454803	 1.1074389236	 0.440775
C	 0.0910520201	-1.8086667672	 1.9771108464	-0.490951
C	 3.7053496531	-1.0006578541	 0.3962229571	 0.295948
N	 4.6322568612	-1.690338248	 0.4021325699	-0.317011
H	 0.8467269933	 2.0061357748	 0.6295419125	 0.138986
H	 0.032465814	 1.9937367443	-0.949370529	 0.12301
H	-0.9108359762	 1.9230907118	 0.5453865575	 0.124891
H	-0.820844434	-0.4092515892	-0.3529919862	 0.098409
H	 1.3296340142	-1.5155981167	-1.0652974134	 0.119105
H	 2.8347304707	 0.8684616842	 0.0111342383	 0.126328
H	-0.341182804	-1.3474581313	 2.8721144851	 0.138686
H	-0.7122389959	-2.3203476822	 1.4395022219	 0.129403
H	 0.8296618672	-2.5494560395	 2.2969198475	 0.142044
94.1781	148.4955	162.9765	194.2166	204.4723	257.5212	288.4236	325.2075	456.0818	509.2819	548.1658	571.4949	684.9714	751.8933	834.5911	887.3676	915.1644	916.3723	948.5064	983.1522	1015.0385	1046.6279	1083.1079	1119.3596	1131.2543	1149.8598	1193.8773	1238.3394	1268.574	1324.5185	1360.5185	1410.9353	1412.39	1472.7344	1477.4322	1493.2789	1497.9431	1511.5091	2360.0308	3036.8464	3039.4533	3045.1095	3099.8348	3103.3035	3116.6896	3121.3293	3132.47	3211.1656
CC1C2C(OC12C)C#N	C[C@H]1[C@H]2[C@@H](O[C@@]12C)C#N	
InChI=1S/C7H9NO/c1-4-6-5(3-8)9-7(4,6)2/h4-6H,1-2H3	InChI=1S/C7H9NO/c1-4-6-5(3-8)9-7(4,6)2/h4-6H,1-2H3/t4-,5-,6-,7-/m0/s1
