16
gdb 125815	2.96029	1.22483	0.9707	2.8768	75.39	-0.2574	-0.0069	0.2505	1204.0321	0.122904	-400.716688	-400.708046	-400.707102	-400.750569	31.393	
C	-0.2720271384	 1.4478189501	 0.0904757308	-0.50335
C	-0.0655600805	-0.0312680354	 0.0405495018	 0.32954
N	 0.0343207947	-0.6502130649	-1.1116922244	-0.197962
O	 0.2188925261	-1.9985704642	-0.8101274451	-0.16961
C	 0.2216550238	-2.1423635272	 0.5214546393	-0.004283
C	 0.0487668704	-0.9465966534	 1.1378175932	 0.089308
C	-0.0018893938	-0.6489984779	 2.6125396331	-0.481236
C	-1.2909077209	-0.1166493122	 3.0558741627	 0.31108
C	-2.3499221281	 0.3263787955	 3.4107192352	-0.452245
H	 0.5664010014	 1.9437527914	 0.5922204917	 0.134754
H	-0.3573180921	 1.8482361551	-0.9211793892	 0.150472
H	-1.1781065097	 1.6916793332	 0.6531605626	 0.151929
H	 0.3549953334	-3.1485304381	 0.8895785624	 0.149872
H	 0.2253762865	-1.5631579665	 3.1734773379	 0.143248
H	 0.7881562389	 0.0670297439	 2.8773637507	 0.145569
H	-3.2871274717	 0.7103865706	 3.7299270073	 0.202913
51.6587	103.7354	134.3395	218.8054	251.9062	309.8911	331.4395	396.6384	456.4499	612.7239	625.6713	642.3015	658.7627	692.5732	754.6735	848.5893	903.2622	931.5407	949.4283	956.222	1031.7003	1069.0581	1157.2181	1183.8937	1229.5093	1295.4684	1341.9504	1405.6616	1437.2505	1462.427	1478.9628	1482.2287	1528.5841	1655.6869	2240.1343	3014.1651	3041.287	3056.5734	3100.1815	3143.5416	3257.5841	3505.0476
CC1=NOC=C1CC#C	Cc1nocc1CC#C	
InChI=1S/C7H7NO/c1-3-4-7-5-9-8-6(7)2/h1,5H,4H2,2H3	InChI=1S/C7H7NO/c1-3-4-7-5-9-8-6(7)2/h1,5H,4H2,2H3
