14
gdb 131798	6.68224	0.77577	0.70111	4.3052	59.89	-0.2845	-0.0171	0.2674	1488.8939	0.099691	-510.973226	-510.964909	-510.963964	-511.007517	28.652	
O	-0.2242564889	 1.4809139715	 0.0125685111	-0.4174
C	 0.0284095183	 0.0879746677	 0.0032495069	-0.079916
C	-1.3418252209	-0.5861432227	 0.0111687898	-0.30884
C	-1.2684448091	-2.0676229501	 0.0027399548	 0.44418
N	-0.2057521867	-2.7850312428	-0.0089462021	-0.177032
O	-0.6813057702	-4.1233845179	-0.012467675	-0.231585
C	-2.0375345541	-4.1138262039	-0.0023558312	 0.512218
O	-2.7669886047	-5.0466893657	-0.0018766904	-0.355057
O	-2.4214297727	-2.7817443096	 0.0075037574	-0.227968
H	 0.6198539404	 1.9414057146	 0.0092438436	 0.295488
H	 0.5903045813	-0.2229953618	-0.8887854976	 0.115671
H	 0.6051084324	-0.2321829936	 0.882483289	 0.115699
H	-1.9069725883	-0.2651443771	 0.8941415488	 0.15727
H	-1.9216452267	-0.2559286487	-0.8587927251	 0.157272
42.0823	81.5883	127.7996	188.3008	248.1942	321.5027	334.2054	365.6905	557.7276	640.3007	723.9795	771.8638	790.7537	803.2482	889.3305	959.0224	987.0563	1034.7704	1085.4004	1096.8055	1151.3586	1219.0568	1230.9203	1287.2606	1301.1901	1409.5959	1469.8324	1473.4648	1527.868	1689.9389	1953.9932	2997.9372	3029.2567	3046.6352	3083.9317	3837.2967
OCCC1=NOC(=O)O1	OCCc1noc(=O)o1	
InChI=1S/C4H5NO4/c6-2-1-3-5-9-4(7)8-3/h6H,1-2H2	InChI=1S/C4H5NO4/c6-2-1-3-5-9-4(7)8-3/h6H,1-2H2
