22
gdb 32903	4.12422	0.7876	0.69789	1.8402	92.17	-0.1849	0.0486	0.2335	1715.5494	0.194411	-367.269634	-367.25964	-367.258696	-367.305411	36.481	
C	-0.2050938601	 1.5289795568	-0.0406306729	-0.379363
C	-0.1458996423	 0.0004429518	-0.0831132597	-0.151111
C	 0.8381979467	-0.5311361372	-1.1451278619	-0.310478
C	 0.9297260178	-2.0223499328	-1.2075103468	 0.301177
C	 1.9237446568	-2.8893479785	-0.8135013235	-0.228537
C	 1.4785069961	-4.2164322894	-1.0786737524	-0.214684
C	 0.2203641267	-4.1371338369	-1.630779416	 0.297228
C	-0.7153874557	-5.1981654252	-2.10747654	-0.505258
N	-0.0991236143	-2.7985741154	-1.7002686684	-0.338554
H	 0.7770377104	 1.9559085808	 0.1916255636	 0.115771
H	-0.522606353	 1.9417940236	-1.0050118001	 0.111515
H	-0.9089693572	 1.8808058524	 0.719956208	 0.112109
H	 0.1484781685	-0.3933808228	 0.896696024	 0.105509
H	-1.1478118832	-0.4022154586	-0.2810843214	 0.086249
H	 0.554128314	-0.1230602015	-2.1267625456	 0.093974
H	 1.8389647892	-0.1378820829	-0.934330991	 0.110182
H	 2.869959701	-2.597463877	-0.3824732535	 0.08275
H	 2.0203543319	-5.1315988861	-0.8912926524	 0.08321
H	-1.6706026021	-5.1863405651	-1.5665154946	 0.122026
H	-0.9469434913	-5.1013264064	-3.1762396564	 0.122103
H	-0.2658988043	-6.1825144215	-1.9574191639	 0.135988
H	-0.9601472256	-2.4362577882	-2.0730396053	 0.248194
44.753	78.1385	95.2906	116.9818	220.0704	239.7467	261.7796	306.7249	362.9479	396.8151	468.9522	625.3075	640.9224	672.7483	741.1419	745.3362	783.1664	819.5804	868.8706	893.5993	980.5536	1001.8613	1017.9238	1043.1829	1062.3422	1062.5416	1091.2267	1109.3888	1203.6165	1243.6911	1278.2198	1286.4902	1311.1734	1327.0171	1380.8744	1411.6824	1416.1793	1431.4407	1450.6111	1477.9385	1480.3034	1491.0853	1499.1321	1502.6939	1508.9157	1546.9441	1639.6788	2993.4706	3010.66	3020.8199	3028.1864	3051.9141	3053.8493	3071.3098	3095.6742	3102.0078	3120.4312	3233.0883	3248.5328	3667.1462
CCCC1=CC=C(C)N1	CCCc1ccc(C)[nH]1	
InChI=1S/C8H13N/c1-3-4-8-6-5-7(2)9-8/h5-6,9H,3-4H2,1-2H3	InChI=1S/C8H13N/c1-3-4-8-6-5-7(2)9-8/h5-6,9H,3-4H2,1-2H3
