18
gdb 73222	2.23144	1.91387	1.40755	2.0803	72.1	-0.2614	0.0182	0.2796	989.2684	0.148733	-439.089649	-439.081708	-439.080764	-439.122186	30.11	
C	-0.0883407517	 1.5348425534	-0.0275427902	-0.477291
C	 0.0116946139	 0.0207876798	-0.0014553657	 0.158286
C	-1.2278833299	-0.79473021	 0.4512491864	-0.10652
O	-0.4320893122	-1.5620277482	 1.3815527636	-0.295099
C	 0.7269782242	-0.7406486445	 1.1400502951	 0.070845
C	 1.8653987572	-1.5005313585	 0.4760843719	-0.115563
O	 1.5743643173	-1.5072628489	-0.9320493876	-0.247258
C	 0.6378121004	-0.5660366931	-1.252498806	 0.38465
N	 0.3165421368	-0.2431281673	-2.4298072644	-0.548154
H	 0.9010414253	 1.9963836549	-0.1074119186	 0.123518
H	-0.6686763963	 1.8496946566	-0.8990694584	 0.153785
H	-0.5723532442	 1.9127130923	 0.8780074824	 0.116652
H	-1.9847203745	-0.1902133907	 0.9669618986	 0.104294
H	-1.7107085966	-1.4210139846	-0.3052687597	 0.123789
H	 1.0340207914	-0.1863372041	 2.0331057151	 0.084069
H	 2.8311888908	-1.0057410286	 0.6371087178	 0.112001
H	 1.9238167519	-2.5351402971	 0.8229150971	 0.133537
H	 0.8645543061	-0.7676470915	-3.1135364973	 0.224457
79.5717	157.5389	207.8101	226.4624	265.4477	293.7308	381.3061	471.1418	590.2446	630.6905	709.5189	742.3254	807.3157	866.2953	894.6918	899.3619	933.0557	972.3514	999.6708	1011.3711	1034.5606	1084.2825	1107.4569	1151.7833	1179.2898	1189.6917	1223.8515	1239.9742	1271.7926	1303.7989	1352.1395	1361.7001	1405.1062	1415.4882	1488.5009	1494.5843	1501.712	1526.3357	1771.1686	3018.3671	3029.6013	3038.9597	3058.3926	3083.608	3107.0645	3107.8945	3123.3284	3475.8801
CC12COC1COC2=N	C[C@]12CO[C@H]1CO[C]2[NH]	
InChI=1S/C6H9NO2/c1-6-3-9-4(6)2-8-5(6)7/h4,7H,2-3H2,1H3	InChI=1S/C6H9NO2/c1-6-3-9-4(6)2-8-5(6)7/h4,7H,2-3H2,1H3/t4-,6-/m0/s1
