19
gdb 30252	2.62899	1.54326	1.03334	2.1242	85.16	-0.1697	0.0534	0.2231	1177.1965	0.16099	-382.068346	-382.059748	-382.058804	-382.101694	32.575	
C	-0.3416873471	 1.5406108098	 0.038444539	-0.391439
C	 0.0086133488	 0.0560056257	 0.0814581096	-0.155128
C	 1.1381172374	-0.4310610088	-0.9138674911	-0.183965
N	 1.9412997544	-0.7673309617	 0.2721533967	 0.011979
C	 2.9149307469	-1.5106059085	 0.8636565888	-0.154733
C	 2.5628174345	-1.5878840161	 2.2054991057	-0.190431
C	 1.302864859	-0.9325001242	 2.4094712163	 0.05209
N	 0.6477731029	-0.77799527	 3.6504580516	-0.607163
C	 0.9581055153	-0.4332114356	 1.1703925963	 0.280994
H	 0.5603803717	 2.1566348325	 0.1066147761	 0.12401
H	-0.8670657634	 1.7953983556	-0.8889111944	 0.110618
H	-0.9931423364	 1.8101481921	 0.8760404364	 0.120291
H	-0.9021598204	-0.5460256732	-0.0188126164	 0.082137
H	 0.8668364765	-1.297986936	-1.5239810469	 0.120193
H	 1.58205417	 0.3428556769	-1.5482461636	 0.115038
H	 3.7869180558	-1.8725874262	 0.3432876171	 0.11289
H	 3.1646412367	-2.036954452	 2.9832032302	 0.082142
H	 0.78939469	-1.5828487044	 4.2487678661	 0.237069
H	-0.3490305028	-0.6373588262	 3.5400980124	 0.233408
72.623	116.7928	159.1604	202.346	248.9718	302.3131	351.3766	420.2194	525.4001	609.08	633.7518	657.3651	695.8492	713.8581	766.902	779.4245	800.6385	842.8072	913.7919	1006.7458	1043.8594	1062.2974	1082.2877	1091.4763	1130.3201	1170.0897	1211.3974	1226.52	1256.661	1279.0233	1350.9632	1354.9016	1407.7094	1430.6554	1448.7989	1479.4075	1494.1139	1496.3236	1515.7442	1636.1368	1659.4923	3028.1986	3030.4143	3040.6588	3092.6274	3096.4521	3108.5682	3226.6165	3263.5641	3521.9418	3609.7779
CC1CN2C=CC(N)=C12	C[C@H]1Cn2ccc(N)c12	
InChI=1S/C7H10N2/c1-5-4-9-3-2-6(8)7(5)9/h2-3,5H,4,8H2,1H3	InChI=1S/C7H10N2/c1-5-4-9-3-2-6(8)7(5)9/h2-3,5H,4,8H2,1H3/t5-/m0/s1
