15
gdb 45336	2.54059	1.84265	1.21633	5.1441	66.88	-0.2544	0.0016	0.2561	983.0235	0.115064	-453.98434	-453.97724	-453.976296	-454.016241	26.971	
N	-0.1381738114	 1.1974114659	-0.6102858166	-0.526318
C	-0.0667388546	 0.0601637456	-0.0992097962	 0.439382
O	 0.9742166797	-0.577790786	 0.5609400859	-0.268518
C	 0.2111796231	-1.8220910632	 0.650005799	 0.111693
C	-0.1573496697	-2.1846101861	 2.09109369	-0.191591
N	-1.415431216	-1.491206479	 2.294339632	-0.310685
C	-2.0186266669	-0.9701073729	 1.1780305916	 0.41747
O	-3.1191099706	-0.479082042	 1.1216142013	-0.362473
C	-1.0109867211	-1.1231194827	 0.0249987516	-0.296472
H	 0.7324795021	 1.7188764364	-0.4970167785	 0.234486
H	 0.7131711294	-2.618240081	 0.100665595	 0.108089
H	-0.2653660172	-3.2716236498	 2.2046783985	 0.117859
H	 0.6226461058	-1.8420142891	 2.7798774732	 0.135779
H	-1.9180271069	-1.5079377875	 3.167716085	 0.259388
H	-1.4764855559	-1.4869989885	-0.8880011317	 0.131909
97.7803	143.8037	161.9338	338.3435	445.904	450.1051	506.2837	571.1332	621.7426	715.465	727.5627	805.1971	849.3233	864.7339	889.1341	935.0504	986.5313	992.0471	1012.7856	1064.4232	1084.6251	1192.1809	1211.0752	1221.4367	1231.9979	1251.3006	1297.2997	1340.2023	1372.495	1450.8522	1517.1668	1822.7576	1853.6253	3013.3199	3067.7605	3118.9539	3154.716	3483.5884	3642.8337
N=C1OC2CNC(=O)C12	[NH][C]1O[C@H]2CNC(=O)[C@@H]12	
InChI=1S/C5H6N2O2/c6-4-3-2(9-4)1-7-5(3)8/h2-3,6H,1H2,(H,7,8)	InChI=1S/C5H6N2O2/c6-4-3-2(9-4)1-7-5(3)8/h2-3,6H,1H2,(H,7,8)/t2-,3+/m0/s1
