17
gdb 45277	2.75496	1.7758	1.27511	4.0013	72.8	-0.2376	-0.0295	0.2081	990.2933	0.136385	-421.788691	-421.781504	-421.78056	-421.82045	28.132	
O	 0.0393507434	-0.0014764978	-0.1597666852	-0.304315
C	 0.0446862014	 1.1873658996	-0.0286125227	 0.329266
C	-1.0753131923	 2.2616369343	 0.0928728158	-0.361773
C	-0.0423025598	 3.3777530906	-0.2388357092	-0.106042
C	 0.5143004398	 4.1653938256	 0.9730133065	-0.249448
C	 1.539957425	 3.031458442	 1.2274171838	-0.13631
C	 2.8841127318	 3.1055927091	 0.4621547823	-0.103249
O	 2.3790633445	 2.292013003	-0.6327890904	-0.323967
C	 1.0932648077	 2.2746363198	-0.0689383747	 0.359654
H	-1.8523739665	 2.1266889299	-0.6635666011	 0.140683
H	-1.549918721	 2.3177459444	 1.0762963244	 0.126382
H	-0.2103118466	 3.8922593714	-1.1840010119	 0.087303
H	 0.9754764405	 5.1244358604	 0.7204978376	 0.108428
H	-0.2034440405	 4.3344722644	 1.7804688741	 0.107944
H	 1.5730599564	 2.553227674	 2.2055429702	 0.095348
H	 3.1799299061	 4.1060067592	 0.1244543364	 0.109422
H	 3.7322788902	 2.61743061	 0.9520736042	 0.120672
100.9447	128.178	261.6878	286.9581	389.3892	430.3623	492.8766	556.3567	630.562	739.2803	780.6341	807.586	831.5194	877.8689	924.4629	944.9062	979.6644	986.6179	1025.0083	1036.1126	1041.0127	1081.3774	1114.8313	1140.087	1162.4741	1169.1148	1206.5764	1212.2127	1262.5895	1273.5603	1298.8244	1328.1924	1352.4278	1437.1797	1483.3462	1516.4156	1881.582	3026.9214	3053.3619	3065.3222	3082.703	3099.5106	3116.3442	3121.0811	3128.2686
O=C1CC2CC3COC123	O=C1C[C@H]2C[C@@H]3CO[C@]123	
InChI=1S/C7H8O2/c8-6-2-4-1-5-3-9-7(4,5)6/h4-5H,1-3H2	InChI=1S/C7H8O2/c8-6-2-4-1-5-3-9-7(4,5)6/h4-5H,1-3H2/t4-,5-,7-/m1/s1
