23
gdb 92366	2.12897	1.89	1.49414	1.4578	84.01	-0.2344	0.0776	0.312	1052.2308	0.207605	-388.320049	-388.311674	-388.31073	-388.352263	34.213	
C	-0.2090708443	 1.5298849657	 0.0132269503	-0.414565
C	-0.0008135114	 0.0173092562	-0.0176914273	 0.020863
C	 0.8848816281	-0.4886972156	-1.2084743874	-0.239904
C	 2.0061304633	-1.286098386	-0.5021412156	-0.043023
C	 2.8738337024	-0.2825376801	 0.2707669685	-0.072876
O	 2.0137431858	 0.1781863474	 1.3270318137	-0.312975
C	 0.7708360243	-0.5528149694	 1.2088681562	 0.418177
C	 0.0569486359	-0.5031681535	 2.5418332531	-0.477909
C	 1.2426892195	-1.9183415325	 0.6777670899	-0.26343
H	 0.7462531932	 2.0459239116	 0.1437399437	 0.129016
H	-0.667471554	 1.8790254808	-0.9178605462	 0.106266
H	-0.8662235597	 1.8298664571	 0.8364157529	 0.109792
H	-0.9815652046	-0.4726799846	-0.0586463221	 0.063244
H	 0.313933232	-1.1292446023	-1.8873995973	 0.092747
H	 1.2867250972	 0.3389256566	-1.8022231166	 0.093273
H	 2.5730637409	-1.9580239153	-1.1482980102	 0.062074
H	 3.7687161759	-0.7493468577	 0.7053650646	 0.090812
H	 3.1940000548	 0.5665437986	-0.3463862874	 0.092348
H	-0.1659816824	 0.529207322	 2.8268582704	 0.1261
H	-0.8856117166	-1.0572974418	 2.4947622929	 0.111854
H	 0.6808840628	-0.9403685187	 3.3264868259	 0.120114
H	 0.421317666	-2.5702660893	 0.3676625386	 0.092504
H	 1.881835181	-2.4467381692	 1.3909019792	 0.095499
120.5098	208.1258	216.8487	249.4215	272.0845	313.4991	370.7722	397.7748	466.2785	511.4698	581.3553	611.5628	734.4908	801.392	833.5156	857.4852	879.4103	906.5217	910.746	947.3464	968.2171	986.8304	1014.2924	1029.5031	1038.384	1084.3475	1105.5489	1128.7399	1154.9428	1189.7864	1206.1134	1215.8163	1229.2176	1279.8115	1283.908	1309.4202	1330.0032	1349.8365	1362.2846	1382.0926	1404.7962	1412.5268	1481.8902	1487.0912	1489.8696	1498.089	1501.4519	1504.9934	1532.5782	2999.4818	3019.4076	3033.9308	3038.483	3041.637	3044.9695	3056.6524	3085.2345	3095.2116	3104.5686	3109.3099	3113.2068	3115.6091	3117.5234
CC1CC2COC1(C)C2	C[C@H]1C[C@H]2CO[C@]1(C)C2	
InChI=1S/C8H14O/c1-6-3-7-4-8(6,2)9-5-7/h6-7H,3-5H2,1-2H3	InChI=1S/C8H14O/c1-6-3-7-4-8(6,2)9-5-7/h6-7H,3-5H2,1-2H3/t6-,7+,8+/m0/s1
