18
gdb 10659	2.90441	1.68873	1.34747	2.8942	70.35	-0.24	-0.0195	0.2205	995.0946	0.151006	-384.929686	-384.920727	-384.919783	-384.962959	32.109	
C	 0.1545782405	 1.2881552252	 0.2319054282	-0.2577
O	-0.2288376271	-0.0278226554	-0.1516454266	-0.281231
C	 0.4919950153	-0.5593819483	-1.2046837097	 0.329912
C	 1.8886800577	-1.1304223184	-0.9284466114	-0.355698
C	 0.7410245868	-2.0638796177	-1.1550589887	-0.057947
C	 0.1501784346	-2.8773761547	-0.026057269	-0.402005
C	 0.2698013632	 0.0260333918	-2.5516162206	 0.12436
O	-0.451539587	 0.961766621	-2.7931296189	-0.278085
H	 1.2192384785	 1.3293936369	 0.5019693573	 0.103114
H	-0.0470205316	 2.0087445022	-0.5658335223	 0.144232
H	-0.4445383028	 1.5390156888	 1.1098072327	 0.128166
H	 2.6567940852	-1.0280064123	-1.6875843332	 0.122184
H	 2.2324543201	-0.998418285	 0.0918935981	 0.131683
H	 0.7213962491	-2.5529649769	-2.1262165048	 0.097472
H	 0.1206219407	-2.2972306458	 0.8979363915	 0.135483
H	-0.8734794132	-3.1859710919	-0.2597268643	 0.128128
H	 0.7458720207	-3.7800778788	 0.1447099096	 0.120018
H	 0.8478196892	-0.4870406706	-3.3570997277	 0.067914
113.2462	121.0592	166.3421	179.5256	200.0251	232.5323	266.1139	330.6227	389.1673	427.7998	546.5845	576.6327	754.4439	816.0537	868.2525	916.7406	926.7453	1005.0833	1042.6206	1057.6095	1063.2483	1103.1311	1144.9606	1179.0438	1199.4002	1221.3415	1244.1754	1332.4282	1396.9919	1419.5765	1432.8533	1469.7473	1483.066	1484.047	1493.2829	1501.3755	1514.6294	1817.9372	2845.5122	3004.6414	3042.3147	3091.0175	3102.9683	3127.6108	3131.8487	3132.1409	3144.6185	3223.0007
COC1(CC1C)C=O	CO[C@]1(C[C@H]1C)C=O	
InChI=1S/C6H10O2/c1-5-3-6(5,4-7)8-2/h4-5H,3H2,1-2H3	InChI=1S/C6H10O2/c1-5-3-6(5,4-7)8-2/h4-5H,3H2,1-2H3/t5-,6-/m1/s1
