23
gdb 106594	4.34047	0.90958	0.90009	1.1809	86.97	-0.2452	0.0883	0.3335	1448.5681	0.205094	-388.245347	-388.23585	-388.234906	-388.279673	36.167	
C	-0.0017214675	 1.5231280834	-0.0100105033	-0.380753
C	-0.0808171012	-0.0074441426	-0.0093284065	-0.303133
C	-1.4910735745	-0.5391201709	 0.0240533342	 0.350631
C	-2.6237842146	-0.3025793706	-1.0306520192	-0.317474
C	-3.2368334935	-1.2086096007	 0.0542598149	 0.444673
C	-1.9146399972	-2.0407498957	 0.0355506336	-0.342013
C	-2.569290645	-0.2906964411	 1.128479971	-0.328106
O	-4.5363746557	-1.6608397157	 0.0025110575	-0.285615
C	-4.9077724153	-2.4790600152	 1.0941527362	-0.26218
H	 1.0381432346	 1.8627935745	-0.0352588502	 0.111707
H	-0.5125736309	 1.9460569925	-0.8813194702	 0.119716
H	-0.4694618457	 1.9442583106	 0.8860543896	 0.118816
H	 0.4256681181	-0.40331374	-0.8994386113	 0.098389
H	 0.4676609723	-0.4044958921	 0.8551353139	 0.097112
H	-3.0280385199	 0.7106043379	-1.1033765454	 0.090742
H	-2.4757406271	-0.7530540218	-2.0161333931	 0.08902
H	-1.7093375724	-2.6130140823	-0.8737300205	 0.088546
H	-1.6631167414	-2.6068457109	 0.9371146156	 0.084501
H	-2.3658431959	-0.7304283377	 2.1092374862	 0.084483
H	-2.963942666	 0.725467492	 1.2132057672	 0.090419
H	-5.9484341583	-2.7702975211	 0.9362070063	 0.127262
H	-4.2885347154	-3.3855228331	 1.151658514	 0.111745
H	-4.8287848573	-1.9415711793	 2.0498081296	 0.111512
71.4742	96.7277	146.8484	171.2267	202.1496	228.3978	305.8794	361.6251	440.2856	444.9508	552.6029	561.75	602.1564	642.3524	752.9117	787.4026	820.2849	929.1163	957.9204	965.8128	983.477	1011.1342	1032.1118	1050.1133	1086.4504	1092.7369	1125.3961	1131.9861	1135.7495	1157.2133	1171.7253	1182.0835	1185.8024	1199.6674	1241.6655	1299.3382	1307.666	1333.3885	1381.5697	1411.8572	1481.0747	1485.2982	1489.6973	1494.2168	1495.602	1498.9583	1507.02	1507.6968	1564.5077	2990.9322	3014.1474	3034.707	3039.5875	3044.1919	3044.901	3045.6291	3054.5316	3103.2297	3105.6861	3108.7923	3113.8809	3116.8443	3121.5187
CCC12CC(C1)(C2)OC	CC[C@@]12C[C@@](C1)(C2)OC	
InChI=1S/C8H14O/c1-3-7-4-8(5-7,6-7)9-2/h3-6H2,1-2H3	InChI=1S/C8H14O/c1-3-7-4-8(5-7,6-7)9-2/h3-6H2,1-2H3/t7-,8-
