16
gdb 38543	3.19171	1.82386	1.29408	2.7572	70.35	-0.2446	0.0161	0.2607	948.5439	0.125905	-437.83145	-437.824746	-437.823802	-437.862348	26.954	
C	-0.0469001872	 1.4254182347	 0.1826491687	-0.367552
C	 1.2720695836	 0.7413556754	-0.0236222784	-0.03088
O	 1.6569757843	 0.0496874524	 1.212872893	-0.284833
C	 0.5879521991	-0.8105706794	 1.0210942495	 0.436828
N	 0.3772334377	-1.9677306987	 1.4520085497	-0.351572
C	-0.7259432964	-2.615118208	 0.7132449661	-0.166848
C	-1.5483239455	-1.707203428	-0.2315246788	-0.118836
O	-0.7365864984	-0.7985296678	-1.011696007	-0.292393
C	-0.0076901616	-0.0679194691	-0.1034629337	 0.298516
H	-0.3110344823	 1.8258501982	 1.1579251294	 0.130832
H	-0.3832530552	 2.0065175925	-0.6725467293	 0.134306
H	 2.065579403	 0.9842419576	-0.7161011166	 0.139881
H	-0.2775454585	-3.4374252014	 0.1422017626	 0.124665
H	-1.4186435952	-3.0735513931	 1.4285019691	 0.11819
H	-2.0958294233	-2.3151169899	-0.9547177798	 0.120675
H	-2.2728904341	-1.1178464353	 0.3475067655	 0.109022
147.905	226.5843	268.0903	387.2027	424.2572	448.8132	485.795	564.2609	644.5585	718.0331	771.264	841.5744	857.3297	874.1382	897.1361	929.893	949.5791	1016.6306	1035.8503	1047.1902	1078.1458	1094.8187	1103.6995	1148.322	1254.3937	1259.8037	1268.9627	1303.9691	1356.9866	1377.6172	1421.9202	1477.8318	1488.0617	1502.2815	1833.9648	3009.0417	3030.3109	3066.2288	3109.0119	3113.9479	3203.5325	3226.89
C1C2OC3=NCCOC123	C1[C@H]2O[C]3[N]CCO[C@]123	
InChI=1S/C6H7NO2/c1-2-8-6-3-4(6)9-5(6)7-1/h4H,1-3H2	InChI=1S/C6H7NO2/c1-2-8-6-3-4(6)9-5(6)7-1/h4H,1-3H2/t4-,6-/m1/s1
