21
gdb 117126	2.9849	0.84838	0.6716	0.9564	83.4	-0.2584	-0.0189	0.2396	1691.9509	0.181706	-420.445114	-420.434746	-420.433802	-420.481284	36.874	
C	 0.3036676543	 1.3551808027	-0.0162047752	-0.390761
C	 0.2083884031	-0.1721998699	 0.0174894452	-0.161588
C	-1.2446425579	-0.6549033695	-0.0209902336	-0.278994
C	-1.3890338837	-2.1665214741	 0.0102246739	 0.401422
N	-0.3388299737	-2.884168193	 0.0629446474	-0.509849
N	-2.7005511217	-2.6983604194	-0.0215178275	-0.130164
C	-2.8746808373	-4.1481569041	 0.0074564132	-0.374727
C	-3.847519048	-1.9240753529	-0.0796120503	 0.162019
O	-4.9723643742	-2.3694828068	-0.1074775179	-0.324134
H	 1.3473140258	 1.6821306034	 0.0120649082	 0.117011
H	-0.1474436762	 1.7670830376	-0.9263851107	 0.112293
H	-0.2086788635	 1.8098836862	 0.8395624415	 0.112286
H	 0.7533537439	-0.606628025	-0.8255655559	 0.117474
H	 0.6931980334	-0.5643930572	 0.9161852023	 0.117412
H	-1.7944973325	-0.222569048	 0.8256722054	 0.123327
H	-1.7342876307	-0.2646380773	-0.9232562988	 0.123336
H	-0.5397588677	-3.8818639297	 0.0800844998	 0.218759
H	-2.4530843727	-4.5716208443	 0.9245366909	 0.141326
H	-3.9444439823	-4.3456450067	-0.0241944197	 0.176664
H	-2.3925261872	-4.6144938291	-0.8575039704	 0.141325
H	-3.6430170511	-0.8461607927	-0.0986347877	 0.105562
44.3653	81.7612	107.8301	139.2383	183.2992	222.5689	254.2832	290.8583	335.546	335.7257	388.8448	425.5307	520.5222	551.4945	720.3308	755.1789	851.8757	876.1807	904.6979	907.2847	969.6384	1028.281	1052.2224	1084.149	1123.5116	1128.0112	1154.2046	1214.8866	1258.6682	1283.2484	1329.4946	1331.4433	1372.3762	1405.7421	1415.5809	1441.0653	1452.6286	1476.6716	1486.3617	1501.9657	1504.0289	1508.1659	1513.7149	1705.0838	1795.3753	3012.3754	3027.0825	3038.7552	3044.5219	3061.985	3064.4798	3079.3107	3098.5373	3105.4083	3109.7109	3173.4364	3509.9747
CCCC(=N)N(C)C=O	CCCC(=N)N(C)C=O	
InChI=1S/C6H12N2O/c1-3-4-6(7)8(2)5-9/h5,7H,3-4H2,1-2H3	InChI=1S/C6H12N2O/c1-3-4-6(7)8(2)5-9/h5,7H,3-4H2,1-2H3
