17
gdb 118379	1.69257	1.26838	0.76018	1.423	74.13	-0.3013	-0.0073	0.2939	1458.4463	0.133899	-418.025749	-418.015754	-418.014809	-418.061942	33.899	
C	-0.0345146496	 1.5140568646	-0.0060587554	-0.388764
C	-0.002386428	 0.0072131453	-0.176559891	-0.058806
O	-1.3010496105	-0.4995069157	 0.1424500546	-0.235695
C	-1.4171870725	-1.89127162	 0.0784653978	-0.018892
C	-2.7569923766	-2.2747403274	 0.7407323179	-0.356533
C	-2.7573719649	-1.9481885484	 2.1640743785	 0.271117
N	-2.7514469032	-1.7074617599	 3.2933978245	-0.294172
C	-1.3893960429	-2.3862325044	-1.3192916966	 0.272701
N	-1.3633823787	-2.7622655759	-2.4112438372	-0.31054
H	 0.9480376503	 1.9360172671	-0.2352673718	 0.127022
H	-0.769960033	 1.9615252004	-0.6798908279	 0.136707
H	-0.2977761415	 1.7796468966	 1.0211510131	 0.140104
H	 0.259366639	-0.2679020293	-1.208232013	 0.119695
H	 0.7405138064	-0.451417545	 0.4937175858	 0.105298
H	-0.5932302176	-2.3843751399	 0.6183117628	 0.134656
H	-3.5628879817	-1.7309291905	 0.2388030512	 0.181741
H	-2.9432082151	-3.3452046475	 0.6115479567	 0.174359
55.5746	75.9777	80.4143	122.0412	170.7272	206.5788	247.449	273.0881	379.9652	388.9967	403.2277	507.1665	573.745	611.7121	823.409	830.9246	926.1314	938.5521	972.8872	1053.2117	1060.5837	1135.5184	1150.7351	1187.0474	1246.4667	1297.7578	1303.7812	1352.0692	1372.3146	1406.0726	1437.8737	1453.4085	1483.4591	1499.2401	1524.984	2356.5464	2372.1657	2986.3393	2989.5701	3029.0888	3050.8242	3066.4275	3113.4322	3127.1061	3130.4494
CCOC(CC#N)C#N	CCO[C@@H](CC#N)C#N	
InChI=1S/C6H8N2O/c1-2-9-6(5-8)3-4-7/h6H,2-3H2,1H3	InChI=1S/C6H8N2O/c1-2-9-6(5-8)3-4-7/h6H,2-3H2,1H3/t6-/m0/s1
