27
gdb 115590	2.67043	0.96183	0.88451	0.1083	95.94	-0.2726	0.0802	0.3528	1557.0605	0.250955	-353.56398	-353.552995	-353.55205	-353.599748	41.595	
C	-0.0763797848	 1.6469119017	-0.0900461296	-0.379907
C	 0.0270107234	 0.1255131242	 0.0713795189	-0.20379
C	-1.33197294	-0.563876207	 0.0199995094	 0.025293
C	-2.1211142696	-0.6095350048	-1.3168356441	-0.242112
C	-2.6060413346	-2.0342341347	-0.9448407181	-0.255624
C	-1.4599263951	-2.1306715053	 0.1153019622	 0.331464
C	-0.2400286949	-2.8687269204	-0.4461126622	-0.447296
C	-1.8574501476	-2.6548096364	 1.5006904054	-0.236717
C	-2.2739096835	-4.1300370426	 1.5482930514	-0.391261
H	 0.9100694246	 2.1199840317	-0.0553521696	 0.108729
H	-0.5393706819	 1.9132764816	-1.0463749459	 0.117671
H	-0.6866347574	 2.0886523909	 0.7057503521	 0.112108
H	 0.6797477239	-0.2764586231	-0.7131008835	 0.091668
H	 0.5187803055	-0.1051743995	 1.0261930138	 0.09158
H	-1.9741924787	-0.1260142595	 0.7958629479	 0.058551
H	-2.8844055761	 0.1549023275	-1.4810751939	 0.091929
H	-1.4532340256	-0.6145339503	-2.1846771654	 0.095532
H	-3.5941901314	-2.019910912	-0.474020022	 0.092097
H	-2.6139724126	-2.7864624412	-1.7387037469	 0.089086
H	 0.0509438445	-2.4815518928	-1.4276135981	 0.110937
H	 0.6267053859	-2.7761797119	 0.2180393038	 0.109472
H	-0.4521807078	-3.9351411769	-0.5718140073	 0.111788
H	-1.0246619317	-2.488475903	 2.1988087792	 0.088532
H	-2.6899031032	-2.0430595444	 1.8721229019	 0.086663
H	-2.6310123697	-4.4002150977	 2.5470824463	 0.110249
H	-3.0849139344	-4.3358911963	 0.8407464777	 0.116574
H	-1.4438703273	-4.8004693075	 1.3060334165	 0.116784
75.	86.8563	109.1083	169.2706	188.2704	218.9572	240.1664	267.0162	301.8768	319.8366	352.6529	363.2067	451.4989	527.0359	600.6978	721.2977	762.9222	785.1213	810.0945	888.1446	908.0622	918.0241	941.2168	947.5976	974.9145	1003.3331	1016.3261	1039.1877	1070.0753	1083.7994	1127.9734	1162.1783	1177.0992	1209.3537	1225.8243	1247.435	1263.4142	1267.5742	1292.322	1307.5047	1336.6621	1344.5248	1367.8922	1395.6398	1408.629	1411.1263	1415.8497	1477.0033	1482.1111	1484.7116	1495.6313	1497.1455	1499.0592	1502.9029	1506.119	1507.6231	1513.095	3002.8661	3009.6755	3012.8217	3028.9764	3029.333	3033.6841	3038.6552	3043.7763	3047.9019	3052.1198	3088.5506	3093.8598	3096.2218	3097.6437	3098.3148	3100.6227	3105.6195	3107.9747
CCC1CCC1(C)CC	CC[C@H]1CC[C@]1(C)CC	
InChI=1S/C9H18/c1-4-8-6-7-9(8,3)5-2/h8H,4-7H2,1-3H3	InChI=1S/C9H18/c1-4-8-6-7-9(8,3)5-2/h8H,4-7H2,1-3H3/t8-,9-/m0/s1
