15
gdb 46851	2.74738	1.84377	1.21493	4.7292	67.12	-0.2605	-0.0533	0.2072	972.6732	0.114678	-453.947847	-453.940753	-453.939809	-453.979527	27.095	
N	 0.0336299782	 0.8935177289	-1.0018428555	-0.480892
C	 0.059995213	-0.1132959053	-0.2309834966	 0.179625
N	-1.099418717	-0.7595063576	 0.2114168532	-0.065173
C	-1.9373015057	-1.543775666	-0.6828176393	-0.245571
C	-1.0344884701	-2.2121739932	 0.3098535299	-0.039536
C	 0.2963972243	-2.7710758722	-0.1283395731	-0.113398
O	 1.3692296991	-2.0363272453	 0.5064853695	-0.228488
C	 1.3527267702	-0.6914089534	 0.3408454459	 0.396594
O	 2.3092037063	-0.0206635163	 0.6082801801	-0.322829
H	 0.9837797167	 1.2532769703	-1.1121859533	 0.246318
H	-3.0029628386	-1.4908964077	-0.4852960928	 0.141201
H	-1.6584424499	-1.5701141757	-1.7328104123	 0.140267
H	-1.4586169264	-2.6249981569	 1.2218056928	 0.119061
H	 0.4381896682	-3.808574308	 0.1754249261	 0.142286
H	 0.4192766718	-2.7065301916	-1.2155232145	 0.130536
89.8858	183.5318	244.7093	329.05	356.6661	425.6107	485.6112	494.8358	589.9761	700.0383	719.8471	809.6845	841.3281	903.3279	922.7931	939.4504	981.7568	1033.0415	1061.2123	1105.7838	1128.3381	1143.6787	1164.0241	1186.807	1279.9655	1291.936	1375.9091	1418.3922	1426.5966	1499.1604	1510.6651	1715.8474	1850.8501	3045.0895	3120.6773	3129.2853	3145.874	3214.0906	3472.328
N=C1N2CC2COC1=O	[NH][C]1N2C[C@H]2COC1=O	
InChI=1S/C5H6N2O2/c6-4-5(8)9-2-3-1-7(3)4/h3,6H,1-2H2	InChI=1S/C5H6N2O2/c6-4-5(8)9-2-3-1-7(3)4/h3,6H,1-2H2/t3-,7?/m0/s1
