14
gdb 131561	3.12879	1.62996	1.16936	2.551	63.31	-0.2383	-0.0281	0.2102	983.7385	0.102171	-473.788719	-473.781703	-473.780759	-473.820473	26.484	
O	 0.2026440279	 1.4022680481	 0.1649778409	-0.417886
C	 0.0346488349	 0.0031820841	 0.0355925374	-0.014163
C	-1.4532227139	-0.4393477644	-0.1963567416	-0.130252
O	-1.6308564847	-0.7907305438	-1.6033616605	-0.285164
C	-0.381840655	-0.9678122163	-2.086333814	 0.231047
C	 0.2551857893	-1.40937814	-3.1968686036	-0.083423
O	 1.5972489308	-1.2812440453	-2.9807162206	-0.173018
N	 1.8411028914	-0.7528764355	-1.7151480929	-0.227458
C	 0.6495647653	-0.5780451819	-1.2083274315	 0.261473
H	 0.1545857408	 1.7984615782	-0.7123277654	 0.292366
H	 0.4178082799	-0.4264145974	 0.9638313448	 0.124152
H	-1.6948655723	-1.3257742433	 0.3994664818	 0.127383
H	-2.1459519822	 0.3687021917	 0.0440455054	 0.136477
H	-0.0341408623	-1.8126260341	-4.1516526702	 0.158466
87.8148	156.0938	262.2095	305.3841	350.9359	437.332	511.6525	587.6015	658.75	707.9682	743.21	770.1708	789.1861	883.4362	908.9747	960.9016	970.9639	1011.7822	1081.7743	1091.9415	1164.5878	1221.4891	1251.8544	1280.4619	1291.8808	1362.8807	1427.3273	1456.6497	1491.0889	1551.3455	1691.7353	3051.7773	3096.7461	3132.9038	3292.1123	3804.9399
OC1COC2=CON=C12	O[C@H]1COc2conc12	
InChI=1S/C5H5NO3/c7-3-1-8-4-2-9-6-5(3)4/h2-3,7H,1H2	InChI=1S/C5H5NO3/c7-3-1-8-4-2-9-6-5(3)4/h2-3,7H,1H2/t3-/m0/s1
