23
gdb 83630	2.12045	1.64031	1.3222	1.5095	84.27	-0.2474	0.0597	0.307	1128.0693	0.205161	-388.268296	-388.258912	-388.257968	-388.301828	36.919	
C	 0.4085938332	 1.4472535981	 0.0163122164	-0.452707
C	 0.0812567101	-0.0447963493	 0.0070522357	 0.283185
C	-1.4132844154	-0.2519161279	-0.2429839157	-0.445441
C	 0.9808612373	-0.9104202266	-0.9603390505	 0.089499
O	 1.7948061982	-0.2815323209	-1.9194681056	-0.42529
C	 1.6169867026	-1.6342843929	 0.2491905914	-0.050792
C	 2.7901537683	-0.8983369757	 0.9602217475	-0.243457
C	 1.8024208693	-0.3419744367	 2.0275521676	-0.23259
C	 0.6117524271	-0.9018010732	 1.2142122765	-0.055206
H	 1.4722671171	 1.6539432952	 0.1728342927	 0.099434
H	 0.1269646065	 1.9014813578	-0.9391228121	 0.122796
H	-0.1411676042	 1.963862417	 0.8109366999	 0.114032
H	-1.7091577	 0.1631340899	-1.2135414338	 0.115442
H	-1.6720709371	-1.3165461587	-0.2423872283	 0.110148
H	-2.0177140905	 0.2361840792	 0.5307727617	 0.109379
H	 0.3553087222	-1.6008297455	-1.5350995069	 0.080987
H	 2.4233082851	 0.285946377	-1.4621734674	 0.280038
H	 1.7126883148	-2.7189447058	 0.1829449527	 0.061923
H	 3.5653669578	-1.5596419584	 1.3527313402	 0.106349
H	 3.2984094069	-0.1390707664	 0.3547832765	 0.079064
H	 1.9113714044	-0.8551891314	 2.9868121614	 0.099797
H	 1.8208532662	 0.7337887407	 2.220410511	 0.096638
H	-0.16632413	-1.4281504756	 1.769620289	 0.056773
66.3486	194.3331	204.4539	232.9315	246.1746	249.5743	270.2927	313.3247	337.3682	429.1185	474.7864	547.7031	614.7459	679.8866	764.1892	770.8925	817.256	861.6462	868.0997	948.9711	956.1888	970.8318	995.6127	1005.7668	1025.2933	1047.2602	1101.4142	1125.228	1137.7408	1184.8865	1199.9721	1211.9405	1228.865	1245.7709	1252.6886	1268.8358	1285.6169	1297.6118	1324.3069	1336.2129	1397.4654	1415.5838	1438.4084	1476.141	1482.3672	1489.687	1496.2056	1502.2343	1512.8992	3016.5088	3028.9869	3033.6179	3054.9906	3056.0802	3081.9104	3084.4251	3087.3096	3091.1842	3092.5499	3097.7816	3100.7511	3111.3184	3812.7756
CC1(C)C(O)C2CCC12	CC1(C)[C@@H](O)[C@H]2CC[C@@H]12	
InChI=1S/C8H14O/c1-8(2)6-4-3-5(6)7(8)9/h5-7,9H,3-4H2,1-2H3	InChI=1S/C8H14O/c1-8(2)6-4-3-5(6)7(8)9/h5-7,9H,3-4H2,1-2H3/t5-,6+,7-/m0/s1
