19
gdb 118314	2.15195	0.8548	0.63799	1.9618	84.13	-0.2393	-0.0352	0.2041	1789.2969	0.154159	-422.998611	-422.987262	-422.986318	-423.038613	37.121	
C	 0.0903070438	 1.7139945409	-0.0655241012	-0.386882
C	-0.0681266892	 0.2053396421	-0.1206615138	-0.039872
O	 0.8616342236	-0.2997922336	-1.0742674609	-0.25522
C	 0.8242591042	-1.7110526888	-1.2041761282	-0.122247
C	-0.4252237281	-2.1214010083	-2.0098856898	 0.144722
O	-1.208066454	-2.9664545029	-1.6721413596	-0.235576
C	 1.9975053926	-2.1692116318	-1.9359801487	-0.009581
C	 2.9195575815	-2.586406465	-2.5884986878	 0.156206
C	 4.050205902	-3.0802671492	-3.3587569015	-0.50195
H	 1.1110878163	 1.9813746351	 0.2211406413	 0.131476
H	-0.11961122	 2.1587756714	-1.0421834747	 0.130008
H	-0.6014021628	 2.1404670484	 0.6668876811	 0.119471
H	 0.1295971909	-0.2463827597	 0.8645507833	 0.097928
H	-1.0984112596	-0.0661764066	-0.3988992648	 0.102142
H	 0.7619496086	-2.2009220885	-0.2199531049	 0.107821
H	-0.5356121302	-1.5344803583	-2.948381607	 0.093727
H	 3.7430000027	-3.8811694299	-4.0399152812	 0.156013
H	 4.4923066273	-2.280664945	-3.9626484128	 0.156906
H	 4.8332594803	-3.4789150902	-2.704994459	 0.154908
10.565	52.8982	62.0055	74.978	84.0646	139.944	225.3003	246.1019	278.4611	333.2429	341.1132	373.9146	456.7672	494.3764	565.7475	797.7256	820.7266	914.9071	1002.3497	1035.8151	1039.111	1052.5124	1054.7645	1114.7005	1142.6265	1177.5655	1186.24	1267.1736	1299.6222	1336.8815	1395.4144	1402.3919	1413.1457	1435.4153	1474.6971	1476.2841	1482.873	1499.0326	1528.0646	1837.7285	2369.066	2895.7091	2972.0094	2988.9021	3002.6284	3030.893	3046.5138	3093.748	3095.3266	3121.4612	3124.512
CCOC(C=O)C#CC	CCO[C@@H](C=O)C#CC	
InChI=1S/C7H10O2/c1-3-5-7(6-8)9-4-2/h6-7H,4H2,1-2H3	InChI=1S/C7H10O2/c1-3-5-7(6-8)9-4-2/h6-7H,4H2,1-2H3/t7-/m1/s1
