18
gdb 34010	2.94129	1.38341	1.1636	4.5754	82.19	-0.2526	-0.0053	0.2473	1105.2649	0.150025	-364.832528	-364.824826	-364.823881	-364.864682	30.131	
N	 0.0186166509	-1.1340185166	-0.1095794087	-0.35008
C	 0.0037772389	 0.0224098448	-0.0637425015	 0.221237
C	-0.0249166542	 1.462298261	-0.0068777645	 0.166821
C	 0.4575356808	 2.2015427524	-1.2563065186	-0.315813
C	 1.3129123728	 2.200717034	-0.0231401844	-0.06525
C	 1.4294740679	 3.4508077944	 0.8479204202	-0.234916
C	 0.5673691565	 3.3751858221	 2.1222435329	-0.263288
C	-0.834866567	 2.9079978317	 1.8187282315	-0.048687
C	-1.1077228607	 2.0450798618	 0.8411267325	-0.150142
H	 0.7614534686	 1.5990437332	-2.1045187176	 0.136594
H	-0.0788685919	 3.1117494623	-1.5023598351	 0.12837
H	 2.1879512578	 1.5610474675	-0.0547511907	 0.113674
H	 2.4788268663	 3.6106033402	 1.1139473575	 0.109491
H	 1.1183618224	 4.3284392521	 0.2707902847	 0.110949
H	 1.0285076119	 2.6921674825	 2.8498461795	 0.12414
H	 0.5421219474	 4.3562082633	 2.6077656146	 0.109006
H	-1.6448660234	 3.2987873193	 2.4283263604	 0.100995
H	-2.123156365	 1.7169677342	 0.6408781673	 0.106899
105.1803	144.1713	182.7147	241.754	387.5307	410.5814	482.0169	494.5173	553.3589	590.4052	619.2006	727.453	763.4011	795.8419	867.4108	908.4363	929.5377	948.4931	977.0344	999.2387	1003.3053	1063.3928	1082.2659	1097.1862	1129.7164	1197.8069	1220.015	1235.797	1271.9611	1293.5699	1349.8932	1366.9114	1401.8527	1416.8231	1473.4548	1481.4889	1494.3592	1712.338	2345.6936	3011.1679	3040.5897	3069.9131	3084.4096	3135.2351	3160.8926	3170.7552	3183.4856	3230.6829
N#CC12CC1CCC=C2	N#C[C@]12C[C@H]1CCC=C2	
InChI=1S/C8H9N/c9-6-8-4-2-1-3-7(8)5-8/h2,4,7H,1,3,5H2	InChI=1S/C8H9N/c9-6-8-4-2-1-3-7(8)5-8/h2,4,7H,1,3,5H2/t7-,8+/m1/s1
