21
gdb 82946	2.18354	1.78042	1.51478	2.3022	82.2	-0.2005	0.0728	0.2734	1036.431	0.183228	-383.217965	-383.20947	-383.208526	-383.250482	33.536	
C	-0.3796866937	 1.4880092976	-0.0691694592	-0.305116
N	 0.0616626073	 0.107317822	 0.0704014695	-0.128831
C	 1.36057463	-0.4135946745	-0.3024922896	-0.09225
C	 2.6163400077	 0.4712347943	-0.3301959044	-0.251656
C	 2.8953954991	 0.8698612388	 1.1203449763	-0.03224
N	 1.8904671299	 1.7652077984	 1.7236083836	-0.3359
C	 1.8219500711	 0.3089981413	 1.9814924757	-0.10668
C	 0.8560823852	-0.5006705595	 1.1225335535	 0.342237
C	 0.2858301595	-1.7498707672	 1.756844287	-0.47397
H	 0.4199204207	 2.2298135936	-0.1249787993	 0.127168
H	-0.9978030663	 1.5490419363	-0.9731339606	 0.102929
H	-1.0099885889	 1.7495308671	 0.7856846408	 0.116348
H	 1.3427494992	-1.2602246923	-0.9891384673	 0.077494
H	 3.4533590461	-0.1214158761	-0.7147286291	 0.102916
H	 2.5137926881	 1.3451616693	-0.983447465	 0.113021
H	 3.924321277	 0.9546047703	 1.4573160263	 0.084953
H	 2.2989263919	 2.2259035634	 2.5337399321	 0.228781
H	 2.0192360357	-0.0483582717	 2.9871772915	 0.078112
H	-0.4041758156	-1.4976463067	 2.5711332512	 0.116022
H	-0.2686677272	-2.3283629499	 1.0147904675	 0.126952
H	 1.0779781333	-2.3820035745	 2.1749758594	 0.109709
119.2488	174.0876	190.0309	223.5161	252.9429	292.9766	314.2324	391.3862	495.7749	553.4357	584.7699	680.9638	728.7396	755.4126	806.0408	842.5358	862.3134	896.5604	938.4905	950.0839	991.8118	1013.988	1052.5353	1090.6783	1104.2866	1128.9253	1148.5172	1154.7861	1175.992	1184.6754	1218.778	1220.9384	1245.9082	1311.127	1332.3536	1366.536	1405.4251	1416.948	1430.4658	1464.4488	1474.5511	1487.0185	1491.6157	1492.679	1496.1336	3021.4571	3023.9751	3041.4547	3078.7306	3080.7168	3090.1169	3096.7197	3115.6396	3124.9659	3147.6738	3161.6393	3489.9933
CN1C2CC3NC3C12C	CN1[C@H]2C[C@H]3N[C@H]3[C@@]12C	
InChI=1S/C7H12N2/c1-7-5(9(7)2)3-4-6(7)8-4/h4-6,8H,3H2,1-2H3	InChI=1S/C7H12N2/c1-7-5(9(7)2)3-4-6(7)8-4/h4-6,8H,3H2,1-2H3/t4-,5+,6-,7+,9?/m1/s1
