21
gdb 83562	2.69561	1.40271	1.17965	2.4943	82.69	-0.2468	-0.0216	0.2251	1144.192	0.183622	-387.093953	-387.085669	-387.084725	-387.126745	32.313	
C	-0.208562044	 1.5934320581	 0.1688538166	-0.443352
C	 0.0099425602	 0.091570591	 0.0658847204	 0.050336
C	 1.1174442073	-0.5161098793	-0.8498027298	-0.052057
C	 2.4135922151	 0.1258642562	-0.3140773709	-0.221263
C	 2.1472633203	-0.0204690823	 1.2235265541	-0.227884
C	 0.7710439244	-0.7158282507	 1.1693932463	-0.036562
C	 1.03140222	-1.7919925096	 0.0770300385	-0.068402
C	-0.0624822242	-2.765239837	-0.2516648383	 0.115175
O	-1.1618794121	-2.7997190197	 0.2459747993	-0.248404
H	 0.7072273997	 2.1520903543	 0.3798427408	 0.11561
H	-0.6258685951	 1.9862399526	-0.7652012774	 0.116492
H	-0.924581173	 1.8210738483	 0.9662073785	 0.120647
H	-0.9447685082	-0.3978780748	-0.1320599176	 0.100253
H	 1.0000419811	-0.5893670673	-1.9323363556	 0.063346
H	 3.305446631	-0.4157958384	-0.6414333334	 0.09722
H	 2.5239390113	 1.1658197899	-0.632588793	 0.101953
H	 2.9002175047	-0.6375168442	 1.7219106061	 0.097097
H	 2.1123865919	 0.9404411428	 1.7429572806	 0.101214
H	 0.2901881538	-0.9803734654	 2.1106950929	 0.071016
H	 1.9707170462	-2.3567033421	 0.1446936119	 0.075058
H	 0.2256925495	-3.5104022925	-1.0306889999	 0.072507
83.2	168.4677	181.371	224.8957	278.9386	282.1053	346.3116	377.3248	546.0174	677.9376	699.0207	723.2458	780.1449	817.8253	846.3999	894.2269	903.0322	936.9351	956.9284	984.3635	1005.4241	1027.5246	1045.3085	1058.0176	1076.0807	1127.1076	1144.0031	1158.53	1191.0445	1204.5879	1213.7621	1254.1133	1270.1033	1278.0964	1311.4315	1322.4147	1375.4101	1408.8809	1423.5911	1431.5005	1484.0738	1495.6219	1506.3843	1513.3826	1814.2337	2849.7064	3021.9309	3033.6272	3054.2313	3062.532	3089.6371	3091.2175	3096.0308	3102.3059	3106.8255	3118.6903	3124.5455
CC1C2CCC1C2C=O	C[C@H]1[C@H]2CC[C@@H]1[C@H]2C=O	
InChI=1S/C8H12O/c1-5-6-2-3-7(5)8(6)4-9/h4-8H,2-3H2,1H3	InChI=1S/C8H12O/c1-5-6-2-3-7(5)8(6)4-9/h4-8H,2-3H2,1H3/t5-,6+,7-,8-
