17
gdb 113646	3.43311	0.90408	0.85207	1.7886	71.47	-0.2558	-0.1056	0.1503	1413.5619	0.132537	-458.957865	-458.948364	-458.94742	-458.993339	32.794	
C	-0.5686176566	 1.4836044277	 0.2965858887	-0.379353
C	 0.0114201797	 0.1727898346	-0.2523758357	-0.230895
C	 1.0172342859	-0.4203015146	 0.7011050713	 0.085748
O	 0.5238330181	-1.0604992112	 1.8672698054	-0.235065
C	 1.219304948	-1.8809553926	 0.9319395854	-0.072595
C	 0.4177758333	-2.9052409856	 0.1991627674	 0.279102
O	-0.7855143813	-2.8991329733	 0.0709383961	-0.283222
C	 1.2117896485	-4.0465263082	-0.4508577539	 0.08726
O	 2.4079691281	-4.1540949286	-0.3828301805	-0.216972
H	 0.2154884399	 2.2298658819	 0.4644825226	 0.116367
H	-1.2920758068	 1.9096157329	-0.4039031194	 0.120769
H	-1.0782033759	 1.3088419998	 1.2484777492	 0.139137
H	-0.7905860742	-0.5481152276	-0.4266715049	 0.139592
H	 0.511852688	 0.3560240926	-1.2117875385	 0.104334
H	 1.9047171627	 0.1922743621	 0.8813089318	 0.104547
H	 2.2090497713	-2.2133501988	 1.2368948997	 0.126232
H	 0.5587419511	-4.7613872811	-0.9940110747	 0.115014
42.6474	82.0899	124.9432	139.6937	171.865	222.344	246.186	284.6091	413.827	464.8122	523.9348	623.83	640.4325	756.2457	793.6031	862.1958	896.705	951.7388	1008.8749	1032.7693	1062.7962	1092.4308	1142.8203	1174.2606	1179.7186	1273.9822	1299.5191	1347.0281	1363.5019	1408.2116	1411.0659	1464.4467	1479.9207	1499.0801	1508.3474	1795.644	1821.6837	2929.7836	3034.1135	3038.8471	3076.773	3099.8044	3118.9538	3123.6361	3147.4162
CCC1OC1C(=O)C=O	CC[C@H]1O[C@H]1C(=O)C=O	
InChI=1S/C6H8O3/c1-2-5-6(9-5)4(8)3-7/h3,5-6H,2H2,1H3	InChI=1S/C6H8O3/c1-2-5-6(9-5)4(8)3-7/h3,5-6H,2H2,1H3/t5-,6+/m1/s1
