21
gdb 79187	2.55557	1.79196	1.46549	1.3502	80.45	-0.2482	0.0682	0.3164	1002.0224	0.18461	-387.070105	-387.062329	-387.061385	-387.101764	32.114	
C	-0.1844761684	 1.5790602866	-0.023567	-0.431307
C	 0.0429619874	 0.0685675723	-0.0141786839	 0.025591
C	 0.8305988219	-0.5038036685	-1.2047186715	-0.057462
C	 2.3517243682	-0.1248622025	-1.1573226692	-0.234301
C	 2.6080533649	-1.4424903286	-0.4283763822	-0.050325
C	 1.215408344	-1.9443945696	-0.7617541493	-0.097723
C	 1.5822632358	-1.6728736161	 0.6721267595	-0.031542
C	 0.8247824631	-0.4777673523	 1.2270849252	 0.058707
O	 1.7564674721	 0.443598505	 1.7921884886	-0.425526
H	 0.7601729485	 2.1294215314	-0.0280764461	 0.128316
H	-0.7532295965	 1.8810465359	-0.9089452278	 0.114041
H	-0.7586284588	 1.902811665	 0.8534929346	 0.102365
H	-0.9364195737	-0.4301780982	-0.0092477743	 0.067263
H	 0.3390749315	-0.3746631061	-2.1698976371	 0.059635
H	 2.7890548896	-0.1370778063	-2.1593689503	 0.091966
H	 2.633203079	 0.7988637084	-0.6461025971	 0.105227
H	 3.5413346003	-1.9934775103	-0.4168848947	 0.078468
H	 0.8711533388	-2.8894392769	-1.160668513	 0.079541
H	 1.7953627562	-2.5102782362	 1.3268217223	 0.080026
H	 0.1178084116	-0.8003076214	 2.0057361742	 0.057001
H	 1.2555349846	 1.1450527185	 2.2202779819	 0.280041
137.1021	212.2056	236.046	265.7583	309.1156	322.3634	427.3294	487.0378	553.597	623.4253	685.1305	751.2612	785.3777	798.2209	829.5835	858.0085	906.3287	946.3754	969.8728	971.8231	993.4614	1003.2529	1015.5395	1056.5882	1066.7319	1088.3518	1114.5131	1128.3648	1155.1996	1157.0671	1210.0174	1234.622	1236.0601	1265.97	1291.9292	1306.4047	1335.8306	1353.0429	1365.864	1402.5137	1408.8293	1427.4229	1489.9292	1501.6364	1504.9118	2977.9223	3007.0847	3026.9202	3055.6915	3086.2115	3097.9335	3109.4525	3117.4855	3170.0726	3178.458	3199.6893	3817.3999
CC1C2CC3C2C3C1O	C[C@H]1[C@H]2C[C@@H]3[C@H]2[C@@H]3[C@H]1O	
InChI=1S/C8H12O/c1-3-4-2-5-6(4)7(5)8(3)9/h3-9H,2H2,1H3	InChI=1S/C8H12O/c1-3-4-2-5-6(4)7(5)8(3)9/h3-9H,2H2,1H3/t3-,4+,5+,6-,7+,8-/m0/s1
