19
gdb 64564	2.42427	1.84765	1.38277	2.9828	74.56	-0.2445	-0.0217	0.2228	994.8423	0.159147	-423.007775	-422.999692	-422.998747	-423.04025	31.249	
C	-0.0493815452	 1.5996600002	 0.1765576177	-0.487494
C	 0.0283430961	 0.0719564576	 0.0886275518	 0.238078
C	-1.3199438748	-0.4671512424	 0.5188838136	 0.112571
O	-2.1712175046	-0.8838584601	-0.2245590705	-0.259831
C	 0.7122317458	-0.5417537177	-1.1914384914	-0.107505
C	 2.0800861449	-0.2588633226	-0.4879611248	-0.252956
C	 1.2470373226	-0.6433657442	 0.7538326343	 0.062187
O	 0.9383303751	-2.0319531203	 0.5324789564	-0.288255
C	 0.5934380107	-2.0393532652	-0.8827407519	-0.096019
H	 0.9071865889	 2.0857315074	-0.0229293623	 0.129868
H	-0.7791387314	 1.9829654449	-0.54415085	 0.138914
H	-0.3749507249	 1.9135869591	 1.1752726272	 0.125721
H	-1.4967197075	-0.4082832179	 1.6190848134	 0.076302
H	 0.4783513358	-0.2046834391	-2.1996512047	 0.081094
H	 2.9142549913	-0.9213758152	-0.7292248836	 0.106302
H	 2.3986213953	 0.7808990489	-0.5224133203	 0.107317
H	 1.5590779449	-0.4932829862	 1.7866604345	 0.082094
H	-0.4103475757	-2.4452599562	-1.0184820836	 0.132238
H	 1.3165387328	-2.646388341	-1.4388318558	 0.099375
93.3403	160.5638	176.7348	221.311	275.8616	343.2757	383.0601	477.0422	506.4928	556.2011	643.3362	756.935	836.6373	847.3162	893.0366	908.2477	923.2443	948.6939	959.3974	982.3333	992.7275	1030.0865	1076.9545	1091.0614	1125.2377	1153.5958	1174.0536	1199.7224	1227.9744	1232.0654	1260.4221	1287.8574	1293.3948	1363.5334	1407.478	1420.7969	1488.3682	1494.2114	1511.3555	1531.3327	1825.5315	2851.1345	3033.689	3039.7414	3083.0022	3093.1111	3116.7281	3125.8741	3132.6232	3138.7341	3162.0778
CC1(C=O)C2CC1OC2	C[C@@]1(C=O)[C@H]2C[C@@H]1OC2	
InChI=1S/C7H10O2/c1-7(4-8)5-2-6(7)9-3-5/h4-6H,2-3H2,1H3	InChI=1S/C7H10O2/c1-7(4-8)5-2-6(7)9-3-5/h4-6H,2-3H2,1H3/t5-,6-,7+/m0/s1
