15
gdb 71543	2.62934	1.56116	1.45491	2.8696	72.74	-0.2328	0.0103	0.2431	966.9996	0.110198	-420.493246	-420.485571	-420.484627	-420.525138	30.148	
O	 0.1433226776	 1.3357534782	 0.0881017931	-0.453008
C	 0.102412458	-0.0237696762	-0.0443962191	 0.320888
C	 0.6611520103	-0.9356956184	-1.1604402118	-0.348458
C	 0.097120182	-1.9316711778	-0.1270556945	-0.142072
C	 0.4712080276	-1.0253989086	 1.0859547097	 0.002926
O	-0.855650757	-1.0660431516	 1.6818391428	-0.355543
C	-1.120761005	-1.0162633993	 0.2449214873	 0.37011
C	-2.44950289	-0.9982386859	-0.267316248	 0.0704
C	-3.5581456184	-0.9553431634	-0.7329384827	-0.374513
H	-0.2996703356	 1.7385123111	-0.6675179636	 0.295324
H	 0.1509296875	-0.8996913733	-2.126830878	 0.108533
H	 1.7463460993	-0.9313917829	-1.2902817471	 0.108755
H	 0.0815752631	-3.0178302606	-0.1421770427	 0.103253
H	 1.341620201	-1.0535764818	 1.73823108	 0.104105
H	-4.5418061904	-0.9284206595	-1.1330412654	 0.189301
114.9413	141.296	232.4674	315.3811	327.0176	369.756	489.709	519.3703	545.4452	600.4476	601.3309	691.4067	706.672	734.6193	793.098	839.9469	872.1752	934.1315	939.3095	994.7292	1015.7174	1044.8282	1088.5497	1096.0174	1147.5074	1192.4773	1207.785	1257.6828	1298.6195	1322.624	1399.5692	1512.9611	2230.7235	3057.2396	3117.97	3147.6215	3169.7883	3499.0493	3801.5103
OC12CC3C1OC23C#C	O[C@@]12C[C@H]3[C@@H]1O[C@@]23C#C	
InChI=1S/C7H6O2/c1-2-7-4-3-6(7,8)5(4)9-7/h1,4-5,8H,3H2	InChI=1S/C7H6O2/c1-2-7-4-3-6(7,8)5(4)9-7/h1,4-5,8H,3H2/t4-,5-,6-,7+/m0/s1
