21
gdb 81709	2.66367	1.51779	1.26689	1.3103	77.53	-0.2493	0.0786	0.3279	1079.2407	0.185057	-424.212689	-424.204878	-424.203933	-424.24442	31.943	
O	-0.1548136934	 1.4683706095	-0.0696911361	-0.453267
C	 0.0137570612	 0.0629455306	-0.0032677562	 0.129143
C	-1.385469681	-0.6023767373	-0.0062313955	-0.001999
C	-1.2673547421	-0.7197596707	-1.5569159237	-0.229044
C	 0.2735015992	-0.5896020504	-1.3953819296	-0.057366
C	 0.9818660586	-1.9491302686	-1.3494202446	-0.103003
O	 0.206893271	-3.0094883136	-0.8182411539	-0.239736
C	-0.1884610675	-2.8417456742	 0.5335409833	-0.072555
C	-1.4324109399	-1.9553733	 0.7150915727	-0.230024
H	 0.695723304	 1.8586013235	-0.2964521445	 0.27817
H	 0.704450017	-0.2058754931	 0.8099668621	 0.051727
H	-2.1806045744	 0.050374144	 0.3619051458	 0.075709
H	-1.6375905961	-1.6384635795	-2.0156189643	 0.102889
H	-1.698069662	 0.1474620051	-2.0593254804	 0.104302
H	 0.7997876875	 0.0600830581	-2.1039476906	 0.058172
H	 1.2281653479	-2.2659621676	-2.3681478808	 0.108497
H	 1.929866429	-1.8563298494	-0.7900804105	 0.083081
H	-0.4022733697	-3.8463895277	 0.9133222471	 0.104456
H	 0.6549109148	-2.4478030383	 1.1228756975	 0.089747
H	-1.5653987476	-1.7951497102	 1.7932895301	 0.096502
H	-2.3150039864	-2.5054994801	 0.3669274023	 0.104598
171.628	224.6903	244.7736	300.4612	313.2165	348.6818	362.3163	390.8769	414.8313	578.2242	617.685	765.2783	816.8287	822.2563	861.9037	891.6293	897.4551	936.6271	962.2065	1018.6782	1046.4596	1057.1209	1067.7485	1103.1692	1121.6288	1137.7556	1162.3039	1171.7849	1211.0425	1227.8133	1266.2571	1283.5614	1300.5158	1301.9408	1320.7486	1330.08	1347.9207	1379.2815	1398.545	1421.82	1423.8319	1469.6046	1480.9515	1487.0682	1504.5591	2948.5441	2970.3605	2987.6421	3018.8527	3040.6418	3057.9654	3069.9741	3072.1342	3074.4418	3082.1282	3135.3131	3808.7235
OC1C2CC1COCC2	O[C@H]1[C@H]2C[C@@H]1COCC2	
InChI=1S/C7H12O2/c8-7-5-1-2-9-4-6(7)3-5/h5-8H,1-4H2	InChI=1S/C7H12O2/c8-7-5-1-2-9-4-6(7)3-5/h5-8H,1-4H2/t5-,6-,7+/m1/s1
