19
gdb 33465	2.78737	1.30661	1.03702	4.7168	80.6	-0.2253	0.03	0.2553	1199.1619	0.15974	-382.039382	-382.030861	-382.029916	-382.072829	32.064	
N	 0.5432325777	-1.0635795556	-0.7045597875	-0.349469
C	 0.2884298815	 0.0158082739	-0.3765224969	 0.267994
C	-0.0461765058	 1.358279329	 0.0558156478	 0.192862
C	 0.3820097742	 1.7244735484	 1.4814764205	-0.300416
C	 1.1133025929	 2.299145594	 0.3019878148	-0.300595
N	-1.2566718531	 1.8383794762	-0.5392385792	-0.124581
C	-1.6637661283	 3.2557989371	-0.5111457501	-0.177288
C	-3.1377832303	 2.7805296986	-0.4551237496	-0.233316
C	-2.5743346416	 1.4034831069	-0.0294282579	-0.170108
H	-0.2884118542	 2.3761307439	 2.0310046487	 0.127151
H	 0.8702726638	 0.9636400654	 2.0783498531	 0.140086
H	 2.1085977755	 1.9364727286	 0.0760019478	 0.143489
H	 0.9467526289	 3.3419041819	 0.0560614875	 0.134733
H	-1.3776373554	 3.795111492	 0.4061922244	 0.091547
H	-1.339245634	 3.8409016369	-1.3773930771	 0.111947
H	-3.7920624201	 3.2894989453	 0.2521724762	 0.110387
H	-3.6076544041	 2.7570860021	-1.4391514231	 0.122394
H	-2.9750577204	 0.5064146882	-0.5099915505	 0.12063
H	-2.5898514372	 1.2620480571	 1.0627000711	 0.092552
69.1401	118.4189	152.6024	218.5016	237.4296	244.7308	406.7111	428.9092	493.0931	581.2424	605.2203	730.8261	771.307	823.2374	852.4162	876.5901	919.144	935.1623	942.7012	953.7437	994.0623	1052.5552	1089.665	1110.3261	1116.9531	1134.1398	1160.2909	1194.4358	1212.2488	1223.5737	1267.6595	1284.4605	1309.6823	1327.7624	1347.2811	1460.7894	1488.3824	1490.2044	1509.2436	1534.1816	2352.4311	2966.6229	2983.0059	3064.2394	3078.2548	3093.5541	3143.6506	3146.8568	3149.9105	3228.5574	3241.7807
N#CC1(CC1)N1CCC1	N#CC1(CC1)N1CCC1	
InChI=1S/C7H10N2/c8-6-7(2-3-7)9-4-1-5-9/h1-5H2	InChI=1S/C7H10N2/c8-6-7(2-3-7)9-4-1-5-9/h1-5H2
