16
gdb 127255	3.25986	1.39075	0.98162	5.433	80.48	-0.1968	-0.0287	0.1681	1153.442	0.125914	-434.097305	-434.089061	-434.088117	-434.130607	30.714	
C	 0.0113214491	 1.4916276442	 0.0060273147	-0.324288
N	-0.009884422	 0.0347043753	 0.0060482911	 0.023899
C	-1.2020474947	-0.6410893911	 0.0336055886	-0.076545
C	-1.2388565826	-2.0076604676	 0.0410459109	 0.170898
N	-2.3634232224	-2.7869542892	 0.1172021662	-0.581703
C	 0.0284623854	-2.7419479076	 0.0039845931	 0.308624
O	 0.0533604648	-3.9767407244	-0.0195696987	-0.426414
C	 1.1872041049	-1.8795945021	-0.0169867949	-0.09872
N	 1.1724908726	-0.5669244559	-0.0162359482	-0.210995
H	 1.0543313649	 1.799362501	-0.0320212016	 0.167034
H	-0.5205670165	 1.8850019292	-0.8663165441	 0.141768
H	-0.4552281094	 1.8851838248	 0.9149798724	 0.143635
H	-2.0896522244	-0.019423038	 0.0523127239	 0.117357
H	-3.2304381314	-2.4323023693	-0.25187914	 0.248909
H	-2.1527784521	-3.756162298	-0.0923098173	 0.268639
H	 2.1705861039	-2.3369998613	-0.0453578361	 0.127901
41.0751	129.6921	188.9417	291.5391	332.5218	346.8356	390.6326	427.3899	451.6968	538.0635	569.1582	584.4144	619.1448	756.4919	786.2154	817.0302	839.7882	920.7224	974.6517	1074.2794	1132.9563	1148.5098	1208.7831	1247.3072	1314.7845	1367.7691	1416.7593	1447.2321	1479.3766	1485.6226	1514.7115	1544.6304	1595.8398	1673.9988	1704.2128	3036.8133	3096.2033	3178.1662	3191.4037	3193.1362	3532.2437	3679.1037
CN1C=C(N)C(=O)C=N1	Cn1cc(N)c(=O)cn1	
InChI=1S/C5H7N3O/c1-8-3-4(6)5(9)2-7-8/h2-3H,6H2,1H3	InChI=1S/C5H7N3O/c1-8-3-4(6)5(9)2-7-8/h2-3H,6H2,1H3
