15
gdb 43568	3.3202	1.36239	1.11474	3.3185	73.15	-0.2396	0.0119	0.2516	1071.5984	0.11276	-416.755911	-416.74814	-416.747196	-416.788269	29.651	
N	-0.0609034624	 1.2033357497	 0.4278411058	-0.552995
C	 0.0075532035	 0.0009341769	 0.0172442063	 0.405565
N	 1.0960353488	-0.7393982556	-0.4195852654	-0.349782
C	 0.7797684538	-2.1026903301	-0.8615534102	-0.181415
C	 1.5606246423	-3.1283812885	-0.1744304029	 0.324971
C	 2.2258827987	-3.9661122401	 0.3715738686	-0.442164
C	-0.7298502872	-2.1945645888	-0.603297855	 0.030265
O	-1.0700962969	-2.0459332102	 0.7635615713	-0.235153
C	-1.1878937867	-0.8955187758	-0.0990323431	-0.024261
H	 0.8554134704	 1.6559496181	 0.4209310423	 0.206355
H	 2.0248574289	-0.5307538303	-0.0895635591	 0.251393
H	 0.9490113547	-2.1978929231	-1.9447431006	 0.117228
H	 2.8012584835	-4.7096938749	 0.8662002414	 0.207188
H	-1.332969164	-2.8769152391	-1.1934425152	 0.117691
H	-2.1809083875	-0.4825697881	-0.228441794	 0.125112
86.2175	127.2586	204.2917	275.5524	347.4923	382.12	417.7099	508.2922	548.6403	626.4763	636.3174	672.2362	706.8496	800.5997	837.6086	857.1252	885.7531	896.5791	945.8217	1026.3151	1031.5469	1095.6124	1104.3093	1147.127	1243.1153	1270.349	1291.7383	1343.7744	1393.2572	1413.0587	1424.1969	1753.0961	2242.0064	2986.6154	3171.5937	3204.0019	3451.6177	3500.8813	3638.9579
N=C1NC(C#C)C2OC12	[NH][C]1N[C@@H](C#C)[C@H]2O[C@@H]12	
InChI=1S/C6H6N2O/c1-2-3-4-5(9-4)6(7)8-3/h1,3-5H,(H2,7,8)	InChI=1S/C6H6N2O/c1-2-3-4-5(9-4)6(7)8-3/h1,3-5H,(H2,7,8)/t3-,4+,5+/m0/s1
