18
gdb 78404	2.61547	1.68249	1.44027	1.1137	75.11	-0.2281	-0.0307	0.1974	979.0194	0.147455	-401.883521	-401.87587	-401.874926	-401.915379	30.297	
C	-0.0641013241	 1.5460182017	 0.0853383093	-0.45598
C	 0.0535337922	 0.0402172609	-0.0489376154	 0.026824
C	 0.4493506039	-0.778042832	-1.2088040205	-0.069851
C	 1.6993195414	-0.3255623667	-2.0006541479	-0.161802
C	 2.4640202993	-0.3881177912	-0.6574217275	 0.025218
C	 2.8819106542	 1.1022997579	-0.771431014	-0.369782
C	 2.0683088464	 1.1735004438	-2.0922219285	 0.390546
O	 1.899993546	 2.0256593355	-2.9142328515	-0.301439
N	 1.2346563056	-0.8491445408	 0.1078485902	-0.177014
H	 0.4293084357	 2.1183934234	-0.6977956171	 0.154232
H	-1.1269842472	 1.8058222489	 0.0465350382	 0.127828
H	 0.3174607241	 1.8792652832	 1.0563325283	 0.131014
H	-0.7453918401	-0.4492708231	 0.5093542377	 0.108391
H	-0.1456097734	-1.6214627481	-1.5482107368	 0.103182
H	 1.9382262799	-0.9397217691	-2.8686882966	 0.099758
H	 3.2682565762	-1.1013048308	-0.4856730522	 0.095497
H	 2.629544478	 1.8003056682	 0.0268020933	 0.13762
H	 3.9530610521	 1.1999427685	-0.9846882989	 0.135758
118.8527	170.0467	194.2099	277.1452	301.2674	414.4351	430.1628	520.8012	603.2609	628.7085	663.9369	690.2798	739.8151	843.135	845.9757	895.7811	912.7501	935.1797	992.1313	1022.522	1027.3304	1055.4756	1084.4756	1110.9933	1113.4026	1157.2183	1158.47	1216.8781	1231.6296	1237.0291	1286.2692	1313.1504	1364.8722	1418.609	1431.2121	1447.6819	1497.9734	1508.0586	1882.6269	3044.0116	3051.3674	3094.2713	3101.4448	3116.6484	3127.6685	3135.7753	3145.1412	3165.2062
CC1C2C3C(CC3=O)N12	C[C@H]1[C@H]2[C@@H]3[C@@H](CC3=O)N12	
InChI=1S/C7H9NO/c1-3-7-6-4(8(3)7)2-5(6)9/h3-4,6-7H,2H2,1H3	InChI=1S/C7H9NO/c1-3-7-6-4(8(3)7)2-5(6)9/h3-4,6-7H,2H2,1H3/t3-,4+,6+,7-,8?/m0/s1
