14
gdb 15019	2.70045	1.88723	1.26251	1.8359	68.3	-0.2628	0.0263	0.2892	951.0832	0.103913	-345.297539	-345.289365	-345.288421	-345.330302	29.595	
C	 0.0485011651	-1.1867916109	-0.2088645596	-0.443187
C	 0.0510733798	 0.0072908506	-0.0865652975	 0.337882
C	 0.0106113768	 1.4678928616	 0.0531718776	-0.394724
C	 1.3562562506	 2.046185062	 0.097626239	 0.347578
C	 2.4527472017	 2.5313101588	 0.1551615953	-0.444982
C	-0.8739726926	 2.0810294108	-1.0452942598	 0.100015
C	-0.6730148036	 3.435575434	-1.5663698226	-0.192645
O	-0.2967984384	 2.2770493942	-2.3220741968	-0.217082
H	 0.0613778264	-2.2431151594	-0.3181233519	 0.203171
H	-0.4902437589	 1.6996897368	 1.0065044043	 0.14265
H	 3.4291991657	 2.9470185102	 0.1984855563	 0.203794
H	-1.8767205773	 1.6526690844	-1.0562596427	 0.108618
H	-1.5258479353	 3.990231691	-1.9540737058	 0.118349
H	 0.1580262601	 4.031776366	-1.1973395958	 0.130563
71.9211	127.6669	153.104	164.6363	333.1283	338.907	352.6109	487.5311	560.201	632.7181	635.4839	652.4712	658.2655	660.4041	777.664	885.9787	906.3841	971.6461	1012.4523	1095.5428	1105.0288	1165.1677	1171.4879	1266.356	1289.8588	1317.442	1419.448	1522.0378	2243.1438	2248.3167	2985.5141	3094.2863	3109.8493	3189.6272	3502.5024	3503.6089
C#CC(C#C)C1CO1	C#CC(C#C)[C@H]1CO1	
InChI=1S/C7H6O/c1-3-6(4-2)7-5-8-7/h1-2,6-7H,5H2	InChI=1S/C7H6O/c1-3-6(4-2)7-5-8-7/h1-2,6-7H,5H2/t7-/m1/s1
