19
gdb 73368	2.50315	2.14088	1.59312	1.0549	73.12	-0.2302	0.0871	0.3173	911.8184	0.161402	-423.010753	-423.003906	-423.002962	-423.041492	28.805	
C	 0.0436580405	 1.4574601139	-0.0669748672	-0.488326
C	-0.0190336776	-0.0470337362	 0.0168450752	 0.411228
C	-1.4231202579	-0.7148496572	 0.1590252783	-0.270185
C	-0.97031809	-1.8277455892	 1.1208631241	 0.056066
O	-0.3939561623	-1.0250526271	 2.2001173875	-0.30234
C	 0.6558766488	-0.763545908	 1.2405660535	 0.041268
C	 0.4782188486	-2.1661880153	 0.6285433552	-0.067341
C	 0.7647141994	-2.0288505971	-0.8600548006	-0.119591
O	 0.6453679208	-0.6196043517	-1.1169893794	-0.308611
H	 1.0805990041	 1.7920859437	-0.1674563359	 0.123328
H	-0.5180674034	 1.8260938545	-0.9306523955	 0.12569
H	-0.3835305526	 1.8993942745	 0.8378887654	 0.127167
H	-2.1663201629	-0.0785159502	 0.644112201	 0.108609
H	-1.8022024027	-1.0509806054	-0.8091557191	 0.106447
H	-1.682067289	-2.5811172407	 1.4577828845	 0.080538
H	 1.5781286268	-0.3566404268	 1.6535726819	 0.081721
H	 0.947803716	-2.9920344105	 1.1593501573	 0.087549
H	 1.7813258619	-2.3453816425	-1.1189125605	 0.108915
H	 0.0630447614	-2.5981611588	-1.4863437257	 0.097867
223.0892	232.4908	251.8226	311.2101	396.5571	465.3205	516.1152	586.1534	619.0704	728.0073	756.4106	796.59	824.7817	869.5096	905.9169	908.8859	932.5584	957.055	984.1224	990.5038	1025.012	1043.1619	1067.4269	1084.6396	1139.1202	1173.6286	1184.5986	1206.483	1219.2001	1231.7334	1249.9374	1287.1904	1297.5158	1337.4452	1350.4414	1381.9004	1415.0305	1474.0485	1484.2753	1497.2111	1523.3937	3000.6791	3040.4428	3055.872	3069.1618	3110.9165	3118.5155	3122.3776	3125.3621	3129.5691	3144.9072
CC12CC3OC1C3CO2	C[C@]12C[C@@H]3O[C@H]1[C@@H]3CO2	
InChI=1S/C7H10O2/c1-7-2-5-4(3-8-7)6(7)9-5/h4-6H,2-3H2,1H3	InChI=1S/C7H10O2/c1-7-2-5-4(3-8-7)6(7)9-5/h4-6H,2-3H2,1H3/t4-,5+,6+,7+/m1/s1
