14
gdb 124063	3.87868	1.63652	1.15923	4.2387	69.69	-0.2186	-0.0075	0.2111	963.9112	0.105307	-432.893842	-432.887255	-432.886311	-432.926445	24.668	
C	 0.0055372014	 1.5331578291	 0.1196193325	-0.188486
O	 1.2775329754	 2.0427867649	-0.3553149797	-0.238609
C	 2.2560088725	 1.2130424492	-0.7779382748	 0.128514
N	 2.2774301124	-0.0589775764	-0.8458479121	-0.338833
C	 1.1043099589	-0.6672983716	-0.4141545644	 0.347698
N	 0.9145539917	-1.9828275424	-0.4012134543	-0.306498
N	-0.3368146442	-2.1141548507	 0.083449964	-0.184211
C	-0.9404158954	-0.9293273941	 0.3756018252	-0.166836
C	-0.0223766383	 0.0423882073	 0.0609540032	 0.137073
H	-0.1201484473	 1.9234796578	 1.1373654378	 0.130058
H	-0.7648092099	 2.0002362034	-0.5067709197	 0.130056
H	 3.1163502019	 1.8007125809	-1.0878810369	 0.132957
H	-0.7182089345	-3.0381227765	 0.1899471908	 0.27904
H	-1.9435983147	-0.887741111	 0.7710247385	 0.138076
14.9679	223.594	267.8444	438.2903	471.754	492.5407	538.6918	634.1369	654.8614	754.5235	767.2691	778.7436	871.8415	947.2235	957.1516	960.8199	1043.6152	1073.9455	1124.5267	1173.688	1240.0239	1254.3573	1316.0084	1378.3756	1409.0551	1445.8624	1472.7871	1515.8034	1528.1696	1627.9275	1679.3618	3012.3483	3037.0457	3179.0791	3253.9237	3684.3651
C1OC=NC2=NNC=C12	C1OC=Nc2n[nH]cc12	
InChI=1S/C5H5N3O/c1-4-2-9-3-6-5(4)8-7-1/h1,3H,2H2,(H,7,8)	InChI=1S/C5H5N3O/c1-4-2-9-3-6-5(4)8-7-1/h1,3H,2H2,(H,7,8)
