20
gdb 69438	2.73596	1.31256	1.2284	1.7846	84.18	-0.2335	0.0476	0.2811	1147.8599	0.17078	-365.968579	-365.959983	-365.959039	-366.001429	33.959	
C	 0.1999408018	 1.431620246	 0.3269008184	-0.475991
C	 0.0941860223	-0.0465361576	 0.0460301563	 0.35979
C	-1.01864927	-0.8620229957	 0.6054928156	-0.299203
N	 0.3385149286	-0.9812971959	 1.1681854854	-0.12279
C	 1.095607966	-2.1375852574	 0.6284486977	-0.156146
C	 0.9711699986	-2.0874805236	-0.9269655619	-0.257257
C	 0.7543003217	-0.5915819496	-1.2172349319	-0.269314
C	 2.4885832432	-2.0443694245	 1.0649146615	 0.3545
C	 3.6423285625	-1.9772892247	 1.394415165	-0.462003
H	 1.2473047641	 1.7529768448	 0.3276906345	 0.12285
H	-0.330841105	 2.0121207375	-0.4363229255	 0.114656
H	-0.2296744759	 1.6739610612	 1.302079663	 0.12696
H	-1.7372661734	-0.4014418574	 1.2777601071	 0.113247
H	-1.4223015608	-1.6833180842	 0.0184288219	 0.106804
H	 0.662020864	-3.0612849022	 1.0293484274	 0.10685
H	 1.8549567686	-2.496346656	-1.4182486825	 0.118486
H	 0.1130336025	-2.6816042223	-1.2516396841	 0.106754
H	 0.1553134231	-0.4206492067	-2.1170936378	 0.104133
H	 1.7143319201	-0.0832170737	-1.3619607778	 0.113292
H	 4.6564150679	-1.9169729082	 1.7033090075	 0.194381
87.2443	142.2975	190.526	228.992	277.8353	327.8282	388.5838	431.2819	471.152	516.3624	578.7519	621.0865	645.7346	691.3094	744.0028	779.3152	810.3143	865.8819	918.1491	948.4342	958.3439	978.0583	1017.2472	1042.933	1066.5491	1108.0155	1112.6048	1151.1521	1186.8069	1202.8193	1264.0223	1277.8537	1312.0053	1338.2256	1351.5331	1386.0088	1419.5583	1482.5336	1490.7686	1491.062	1496.184	1522.8953	2238.1572	3030.4194	3037.3012	3042.477	3069.8325	3086.7555	3092.3841	3105.4298	3119.818	3127.0949	3186.7926	3504.9045
CC12CN1C(CC2)C#C	C[C@]12CN1[C@@H](CC2)C#C	
InChI=1S/C8H11N/c1-3-7-4-5-8(2)6-9(7)8/h1,7H,4-6H2,2H3	InChI=1S/C8H11N/c1-3-7-4-5-8(2)6-9(7)8/h1,7H,4-6H2,2H3/t7-,8+,9?/m1/s1
