20
gdb 32444	3.08909	1.21446	0.88622	2.1876	84.48	-0.1803	0.0548	0.2351	1340.9202	0.169519	-403.18489	-403.174568	-403.173624	-403.220932	36.409	
C	 0.0212720086	 1.3649366597	-0.0603089594	-0.240702
O	 0.0175621932	-0.0452635778	-0.0293198515	-0.261899
C	-1.2152568414	-0.6219331324	-0.0072737627	 0.295027
C	-2.4590400511	-0.0327097781	-0.0107435786	-0.235854
N	-3.3768771775	-1.0662694892	 0.0189375356	-0.321956
C	-2.7363134855	-2.2804919114	 0.0407250544	 0.253261
C	-3.5083078697	-3.5589083966	 0.0746728514	-0.504754
C	-1.3751820196	-2.0409213373	 0.025102923	 0.062649
C	-0.2484115432	-3.0268546618	 0.038174738	-0.508094
H	 1.0659949967	 1.6813810392	-0.0752078301	 0.126754
H	-0.4869138029	 1.7466718329	-0.9575581211	 0.112939
H	-0.4733320815	 1.7858508281	 0.8269499683	 0.112939
H	-2.7704920247	 0.9967534636	-0.0309780996	 0.111652
H	-4.3734542012	-0.9450044252	 0.0238650427	 0.251341
H	-4.1590605642	-3.6716616029	-0.8020020062	 0.123808
H	-2.829886861	-4.4142945507	 0.0883295385	 0.136896
H	-4.1456654417	-3.6328212824	 0.9652135593	 0.123807
H	 0.3887291121	-2.9229295791	-0.8480052178	 0.125457
H	 0.402121557	-2.8843253524	 0.9091259138	 0.125457
H	-0.6140522122	-4.0571825961	 0.063598552	 0.111274
36.049	75.8043	93.3915	159.3191	189.901	223.3996	267.0787	268.99	294.2789	338.9723	406.9738	510.3366	588.1139	618.6173	636.3192	705.0332	729.7859	740.0594	941.1281	976.8586	1055.1823	1061.3351	1066.1017	1116.3198	1160.6382	1182.7043	1211.3525	1215.88	1268.4188	1334.7605	1408.2619	1425.0195	1436.8463	1472.9934	1477.1019	1481.7741	1482.3366	1483.1281	1500.0968	1508.7924	1513.3158	1584.1061	1651.636	2986.6066	3012.7414	3023.9657	3037.2153	3054.4048	3068.546	3104.9388	3125.4744	3125.8609	3281.3661	3690.6794
COC1=CNC(C)=C1C	COc1c[nH]c(C)c1C	
InChI=1S/C7H11NO/c1-5-6(2)8-4-7(5)9-3/h4,8H,1-3H3	InChI=1S/C7H11NO/c1-5-6(2)8-4-7(5)9-3/h4,8H,1-3H3
