18
gdb 64455	2.27532	1.76668	1.27388	2.534	67.86	-0.2443	0.0016	0.2459	1034.3406	0.148378	-476.251719	-476.243142	-476.242198	-476.28477	32.395	
C	 0.1767283423	 1.6226656741	-0.2390505699	-0.411757
C	 0.0859371301	 0.1083537803	-0.0646785659	 0.113391
N	-1.3288761471	-0.2808058647	 0.0783184859	-0.531222
C	 0.6394023973	-0.6280432962	-1.2864972046	-0.115214
O	 0.7512437732	-2.0173779305	-0.9917502124	-0.230208
C	 1.7138858471	-2.2151462962	-0.0164610954	 0.012625
O	 1.4219587826	-1.5523575083	 1.2209989805	-0.238054
C	 0.8322614174	-0.3255435842	 1.2172780523	 0.390724
O	 0.8019225146	 0.3109060682	 2.2356496044	-0.333781
H	 1.2119641851	 1.9430132353	-0.39095254	 0.118165
H	-0.4244076169	 1.9287257675	-1.0993474761	 0.125489
H	-0.1987579613	 2.1254927166	 0.6543315703	 0.143921
H	-1.3975137525	-1.2944236508	 0.1232847002	 0.239467
H	-1.6929926469	 0.0809563786	 0.9558024803	 0.242697
H	-0.0531338892	-0.5307220926	-2.1249568477	 0.132074
H	 1.6224230163	-0.2255037169	-1.5753576625	 0.100253
H	 1.7501167595	-3.280791878	 0.2146822236	 0.135549
H	 2.7006329387	-1.8625739521	-0.3576873731	 0.10588
73.934	144.0186	209.6708	242.804	285.6697	318.0748	336.5739	364.9794	425.1508	464.436	497.2545	583.4679	655.1253	754.7445	771.6796	872.0322	906.8022	954.5661	996.4469	1007.8614	1039.9977	1052.2858	1092.1611	1130.6261	1203.617	1220.8524	1255.2736	1281.1495	1328.3102	1343.2177	1404.0881	1411.8497	1454.9536	1483.5387	1489.9192	1495.287	1522.3436	1651.3676	1834.7602	2976.6609	2993.6625	3047.9983	3114.8549	3121.1869	3123.8287	3139.0812	3484.8729	3567.5756
CC1(N)COCOC1=O	C[C@@]1(N)COCOC1=O	
InChI=1S/C5H9NO3/c1-5(6)2-8-3-9-4(5)7/h2-3,6H2,1H3	InChI=1S/C5H9NO3/c1-5(6)2-8-3-9-4(5)7/h2-3,6H2,1H3/t5-/m1/s1
