18
gdb 38794	3.16092	2.16607	1.80352	2.2069	73.09	-0.2061	0.0656	0.2716	819.2308	0.151887	-401.867054	-401.861415	-401.860471	-401.896681	25.007	
C	-0.0175819372	 1.4976502368	 0.086235651	-0.185244
C	 1.4929238936	 1.487092996	-0.0649393987	-0.048722
C	 2.2743824201	 0.7743741516	 1.0883270471	-0.113505
C	 1.4969496557	-0.3642376418	 1.8677685017	 0.070056
C	 0.0692295535	-0.5431341845	 1.3552177353	-0.166977
N	-0.0243495008	-0.0073150538	-0.0175431036	-0.133845
C	 1.3617267008	 0.0609810814	-0.6842945764	-0.045435
C	 2.571055768	-0.4319393726	 0.1821968243	 0.128382
O	 2.275724734	-1.4004087029	 1.1843528135	-0.301135
H	-0.4608737727	 1.8970735571	 1.0050261723	 0.094834
H	-0.5292679639	 1.938885865	-0.7759675136	 0.105245
H	 2.0397665445	 2.3086806032	-0.5324661866	 0.068132
H	 3.0310716555	 1.3072446666	 1.6622922791	 0.078383
H	 1.6182300531	-0.423085412	 2.9524619203	 0.080626
H	-0.1510486769	-1.6159186031	 1.3658101234	 0.115098
H	-0.6786442364	-0.0375839973	 1.9745638886	 0.09862
H	 1.3109821442	-0.1689425872	-1.7491632103	 0.075232
H	 3.498787135	-0.6151289327	-0.3660142573	 0.080254
249.1266	376.6106	415.2946	504.4536	587.6173	644.0603	671.1396	716.4666	769.1225	800.0205	822.9709	853.6579	870.4295	898.2525	917.8712	974.028	977.0202	1009.3457	1012.2451	1048.7422	1053.5489	1079.5512	1085.3359	1133.8113	1170.6006	1183.5055	1200.0112	1215.1844	1238.3101	1260.7117	1283.4692	1290.0238	1293.9594	1316.7893	1332.3515	1350.2111	1372.7637	1486.6961	1515.054	3027.4212	3039.5722	3074.847	3075.3907	3078.2721	3082.8686	3086.5916	3101.8905	3123.6189
C1C2C3C4CN1C2C3O4	C1[C@H]2[C@H]3[C@H]4CN1[C@@H]2[C@@H]3O4	
InChI=1S/C7H9NO/c1-3-5-4-2-8(1)6(3)7(5)9-4/h3-7H,1-2H2	InChI=1S/C7H9NO/c1-3-5-4-2-8(1)6(3)7(5)9-4/h3-7H,1-2H2/t3-,4+,5-,6-,7+/m0/s1
