16
gdb 50372	4.61923	1.11153	0.94518	2.8034	75.93	-0.2298	-0.0223	0.2075	1193.135	0.125019	-437.861414	-437.853888	-437.852943	-437.893915	27.885	
O	-0.0533187378	 0.1079249892	-0.4510809307	-0.308805
C	 0.0007647864	 1.2663251432	-0.1081922403	 0.141491
N	 1.1387054291	 1.8812561605	 0.3281543352	-0.141667
C	 2.5614168306	 1.4247727201	 0.2980236777	-0.219265
C	 2.9228984672	 2.8523152179	 0.8680617238	 0.049707
O	 3.7478821632	 3.8027264982	 0.244236217	-0.275353
C	 2.9119193226	 4.9750373074	 0.0533205124	-0.100298
C	 1.4755282377	 4.4526467993	-0.0340311672	-0.269537
C	 1.5357051874	 3.2236421403	 0.4668489465	 0.308272
H	-0.8700344367	 1.950334153	-0.0857552144	 0.085617
H	 2.7704467093	 0.5646384289	 0.9350326279	 0.136741
H	 2.9069045046	 1.2543445189	-0.7245099469	 0.143001
H	 3.1132838864	 2.7932280987	 1.9490449179	 0.096108
H	 3.0816426559	 5.6840774715	 0.8785166277	 0.110683
H	 3.2194497668	 5.4618236119	-0.8785026785	 0.12543
H	 0.6845898772	 4.9524821511	-0.5728681281	 0.117877
68.2432	152.3834	180.2544	260.7284	311.6118	366.9982	412.5085	478.7103	684.4137	730.8445	761.3706	774.9528	843.6041	888.0454	928.3305	955.1885	1006.7192	1029.1017	1032.9617	1056.8652	1123.5564	1149.3125	1157.7677	1193.1961	1225.5245	1264.3763	1302.6129	1340.762	1366.5661	1396.9724	1433.119	1491.8165	1512.8549	1733.0702	1798.9199	2947.9225	2982.3516	3003.4306	3065.6449	3073.7847	3146.0259	3243.5385
O=CN1CC2OCC=C12	O=CN1C[C@H]2OC[CH][C]12	
InChI=1S/C6H7NO2/c8-4-7-3-6-5(7)1-2-9-6/h1,4,6H,2-3H2	InChI=1S/C6H7NO2/c8-4-7-3-6-5(7)1-2-9-6/h1,4,6H,2-3H2/t6-/m1/s1
