19
gdb 84449	2.83034	1.53098	1.25035	0.9495	75.75	-0.2459	-0.0013	0.2445	1060.6001	0.159378	-423.017923	-423.009662	-423.008718	-423.050598	32.172	
C	-0.2898164682	 1.4663387762	 0.0134980162	-0.457507
C	 0.0362451473	-0.0129029088	 0.0009954517	 0.412178
O	-1.1418419445	-0.8190032721	 0.3129526021	-0.327725
C	-0.4198098949	-1.5365831093	 1.3345986458	-0.087291
C	 0.8425763638	-0.6683479948	 1.1558024665	-0.158803
C	 2.0972335235	-1.3294789347	 0.5314986819	 0.077884
O	 2.3560806243	-2.6654060556	 0.9459612762	-0.431004
C	 1.8414526681	-1.1990600148	-0.9565415105	-0.132974
C	 0.7379446911	-0.5093262211	-1.2414637279	-0.1162
H	 0.6131376858	 2.0648716502	-0.1453277523	 0.121057
H	-1.0016375647	 1.7028307011	-0.7847099402	 0.127192
H	-0.7421565356	 1.7520901606	 0.9672136869	 0.12299
H	-0.9143161031	-1.4587613044	 2.3088918082	 0.108029
H	-0.3051490264	-2.6018160899	 1.0929553877	 0.082136
H	 1.0728482676	-0.0333783506	 2.0112291382	 0.077959
H	 3.0011758441	-0.784220954	 0.8282016716	 0.094897
H	 1.6844579467	-3.2307522775	 0.5491139165	 0.279476
H	 2.5102267743	-1.656041365	-1.6788462554	 0.104667
H	 0.3514096506	-0.3102364055	-2.2356961732	 0.103039
69.3891	187.9792	210.0336	243.4664	280.9578	323.9619	354.7072	381.3563	503.1294	540.3242	624.5653	674.809	745.3317	791.805	827.6239	878.9033	892.2239	949.0987	959.1262	986.2556	1011.0093	1020.6054	1075.1615	1090.7144	1119.5798	1126.7955	1156.6335	1168.7904	1232.3712	1257.4774	1265.8199	1299.0002	1324.772	1353.3152	1382.58	1402.8268	1429.0102	1480.2062	1490.1362	1522.9983	1676.9354	3007.4581	3034.141	3034.9169	3057.8882	3104.3319	3110.2866	3116.491	3176.6464	3201.4565	3803.5938
CC12OCC1C(O)C=C2	C[C@]12OC[C@H]1[C@@H](O)C=C2	
InChI=1S/C7H10O2/c1-7-3-2-6(8)5(7)4-9-7/h2-3,5-6,8H,4H2,1H3	InChI=1S/C7H10O2/c1-7-3-2-6(8)5(7)4-9-7/h2-3,5-6,8H,4H2,1H3/t5-,6-,7+/m0/s1
