19
gdb 66940	2.51428	1.92633	1.38577	1.7081	78.89	-0.242	0.098	0.34	990.9121	0.159144	-385.818038	-385.810413	-385.809468	-385.849687	30.69	
C	 0.0224480871	 1.4907437921	 0.0579514038	-0.519181
C	-0.0093456016	-0.0043021576	-0.0245476138	 0.26531
C	-0.9454390494	-0.8945867028	 0.8151459993	-0.124639
C	-1.0801305742	-2.245309711	 0.1082133542	-0.23841
C	 0.4212038108	-2.0778458376	-0.2578815556	-0.174969
C	 0.5509694775	-1.0411124098	 0.9386010262	-0.122696
C	 0.4132533214	-0.8647183668	-1.1934568685	 0.455607
C	 0.2923364575	-0.7297862576	-2.6428249323	-0.291775
O	 1.5487482754	-0.5101753216	-1.9627326887	-0.301153
H	 0.9683866765	 1.8744692629	-0.3376891525	 0.137079
H	-0.7931700227	 1.9439152794	-0.5178497418	 0.119218
H	-0.0759101471	 1.8318768169	 1.0936587222	 0.120099
H	-1.6275237873	-0.4423260681	 1.5251394804	 0.08599
H	-1.2369776746	-3.0540797473	 0.8274514241	 0.101365
H	-1.7902511714	-2.3446756087	-0.7212453768	 0.089664
H	 1.06989934	-2.9264168221	-0.4618586198	 0.081053
H	 1.2337184871	-0.9456472332	 1.7699248709	 0.094825
H	 0.2592055874	-1.6165923959	-3.2751561737	 0.111534
H	-0.1589133326	 0.1621598389	-3.0759995477	 0.111081
153.0239	198.5384	201.5729	233.7122	284.3436	373.935	454.3246	503.4101	612.3468	630.3745	736.6633	796.8504	823.8533	827.274	867.6251	877.3379	904.6256	929.667	961.4406	978.6754	1005.9796	1038.6436	1057.4327	1090.9041	1100.1138	1116.3506	1129.9033	1152.3143	1159.9628	1178.9817	1209.5404	1249.2584	1280.4443	1290.3097	1399.0083	1423.8107	1458.2055	1484.8126	1497.6946	1503.2698	1542.2014	3025.9793	3030.4066	3077.4247	3086.6808	3093.0867	3103.2893	3148.745	3161.8757	3184.6914	3225.3298
CC12C3CC(C13)C21CO1	C[C@]12[C@H]3C[C@H]([C@@H]13)[C@]12CO1	
InChI=1S/C8H10O/c1-7-4-2-5(6(4)7)8(7)3-9-8/h4-6H,2-3H2,1H3	InChI=1S/C8H10O/c1-7-4-2-5(6(4)7)8(7)3-9-8/h4-6H,2-3H2,1H3/t4-,5+,6-,7-,8-/m0/s1
