22
gdb 103277	2.9431	1.14092	1.03413	2.4501	82.53	-0.234	0.0847	0.3187	1291.3612	0.193529	-404.308287	-404.298816	-404.297872	-404.34216	36.387	
C	-0.3760488857	 1.4776845944	 0.8212224357	-0.402176
C	-0.2708977255	 0.0165249522	 0.4247498644	 0.087553
C	 0.7348205148	-0.2998253352	-0.7153179912	-0.288512
C	 1.5171939564	-1.1134883398	 0.3120378577	-0.08169
N	 0.5534879157	-0.7458928432	 1.4381792129	-0.198762
C	 0.7075014356	-2.1552978332	 0.9797648394	 0.303842
C	-0.4053456663	-2.9451527616	 0.3238588956	-0.475553
C	 1.4099909119	-2.917550953	 2.0969968254	-0.108192
O	 0.5539707464	-3.0760507681	 3.2136192685	-0.423771
H	 0.6173529357	 1.9102112764	 0.9779822116	 0.12008
H	-0.8858419897	 2.0534966542	 0.0412393251	 0.112456
H	-0.9396140386	 1.5832035467	 1.753528809	 0.121799
H	-1.2732684098	-0.4053258833	 0.2980897939	 0.075632
H	 0.3706160453	-0.8369165062	-1.5957600601	 0.103192
H	 1.2725389529	 0.5908316711	-1.0478677721	 0.109432
H	 2.5937569494	-1.0530379954	 0.4494766066	 0.088363
H	-0.9513069781	-2.3895056083	-0.4391758498	 0.11868
H	 0.0124579255	-3.8375012937	-0.1548883311	 0.120933
H	-1.1144902795	-3.280010876	 1.0868614503	 0.138134
H	 1.6822465791	-3.9251674907	 1.7650266269	 0.102906
H	 2.3343103714	-2.3897198859	 2.3756351918	 0.087041
H	 0.2728510231	-2.1802479215	 3.4401579593	 0.288611
83.5596	134.7295	172.0853	197.7995	225.4414	244.5109	309.9683	324.1765	366.0587	432.3553	476.3782	510.9552	560.9312	681.7263	724.4777	829.4138	846.6207	873.902	897.9123	940.7458	948.3758	995.3011	1007.6	1035.7787	1071.961	1089.8914	1090.0791	1110.456	1136.6089	1197.7175	1215.6534	1234.0162	1263.0913	1273.433	1317.4002	1365.8756	1382.4329	1407.5462	1414.0201	1430.9995	1433.1477	1482.8292	1486.3747	1492.8201	1496.8377	1501.9156	1506.9881	2990.3646	3032.1047	3042.7921	3046.5796	3057.8581	3072.7282	3103.7793	3104.8193	3106.7749	3112.8648	3139.7337	3142.2378	3773.8443
CC1CC2N1C2(C)CO	C[C@H]1C[C@H]2N1[C@]2(C)CO	
InChI=1S/C7H13NO/c1-5-3-6-7(2,4-9)8(5)6/h5-6,9H,3-4H2,1-2H3	InChI=1S/C7H13NO/c1-5-3-6-7(2,4-9)8(5)6/h5-6,9H,3-4H2,1-2H3/t5-,6+,7+,8?/m0/s1
