18
gdb 109755	1.90991	1.65823	1.15967	2.058	68.47	-0.2392	0.0255	0.2647	1123.9968	0.14657	-476.220441	-476.210978	-476.210034	-476.255173	34.567	
C	-0.1259970285	 0.7465967971	-0.4418476906	-0.256103
O	-0.5160566753	-0.2679104271	 0.4824714208	-0.260185
C	 0.4883755119	-0.6331373883	 1.3712344006	 0.050602
C	 0.3238580965	-2.0282181978	 1.8923462654	 0.052046
O	-0.782500103	-2.7578655842	 1.4346268527	-0.429769
C	 1.483027818	-1.713658279	 0.9592892039	-0.213475
C	 1.5851981625	-2.1640256455	-0.4844111381	 0.401412
N	 0.8494057064	-3.2570086451	-0.8113932415	-0.522059
O	 2.3224284458	-1.5907687171	-1.2678135049	-0.386131
H	 0.751917576	 0.4366057283	-1.0176908444	 0.159357
H	-0.9750160511	 0.9064183189	-1.109413253	 0.12989
H	 0.0959415608	 1.6840151352	 0.0864166422	 0.114261
H	 0.8300554106	 0.1653265519	 2.0295632917	 0.097225
H	 0.5505915167	-2.2413524277	 2.9325353327	 0.112552
H	-1.3316418562	-2.1285522271	 0.9438701842	 0.304218
H	 2.4628667977	-1.6299478272	 1.4197364993	 0.119507
H	 0.1441138253	-3.5956955538	-0.1723763846	 0.272207
H	 0.842507586	-3.5423569216	-1.7773493665	 0.254445
39.882	115.8258	134.6188	186.2765	204.565	246.8402	301.5454	366.1406	370.3904	473.2588	492.28	537.7876	608.1606	666.5343	707.7096	757.843	769.9231	810.4294	885.1012	1015.1535	1035.0388	1054.9477	1091.4491	1117.862	1143.4031	1162.4722	1189.6918	1221.9624	1251.4288	1311.3124	1334.5573	1380.2682	1391.6395	1445.7845	1486.5353	1489.5283	1513.5484	1621.7403	1779.3736	3008.0043	3088.556	3103.7164	3136.0928	3151.8301	3163.4515	3545.5088	3699.7421	3727.1803
COC1C(O)C1C(N)=O	CO[C@H]1[C@@H](O)[C@H]1C(=O)N	
InChI=1S/C5H9NO3/c1-9-4-2(3(4)7)5(6)8/h2-4,7H,1H3,(H2,6,8)	InChI=1S/C5H9NO3/c1-9-4-2(3(4)7)5(6)8/h2-4,7H,1H3,(H2,6,8)/t2-,3+,4-/m1/s1
