19
gdb 57852	2.20405	1.18901	0.96844	2.9434	77.49	-0.2583	-0.0349	0.2234	1320.6191	0.155004	-423.01045	-422.999852	-422.998908	-423.047483	37.794	
C	-0.0159105676	 1.5962196802	 0.7593851475	-0.391827
C	-0.1487282081	 0.2659057708	 0.0058264078	-0.06287
C	 0.8268541131	-0.7984399335	 0.5522280893	-0.393672
C	-1.5584399912	-0.2830756235	 0.1259857117	 0.378891
O	-2.1724246702	-0.3242635199	 1.1681505402	-0.338361
C	-2.240908388	-0.8584482384	-1.1406837867	-0.117897
O	-3.4358342207	-1.4983745555	-0.7934246875	-0.413954
C	-2.436347732	 0.2389611228	-2.0984042095	 0.326581
C	-2.5962889334	 1.150472004	-2.8655203706	-0.479102
H	 1.0159269306	 1.956484133	 0.7126486802	 0.115915
H	-0.6654958703	 2.3618072526	 0.32548879	 0.127928
H	-0.2944125532	 1.4686446765	 1.8086362015	 0.140104
H	 0.0634203491	 0.4234929685	-1.057195919	 0.097085
H	 0.62703949	-0.9907755631	 1.6104324657	 0.139816
H	 0.7428350774	-1.7466157573	 0.011415737	 0.122771
H	 1.8571919882	-0.445180614	 0.4525698898	 0.125414
H	-1.5464971939	-1.590169873	-1.5854193325	 0.120164
H	-3.5909738584	-1.2428463547	 0.1323275254	 0.2966
H	-2.7484505014	 1.9445676645	-3.5545576401	 0.206413
14.2481	59.3704	118.6359	187.1421	211.4665	222.2357	255.7636	260.6349	293.2768	360.0913	425.4816	438.0277	453.9466	578.962	622.0456	639.362	678.6665	722.6238	848.6278	886.477	937.505	963.6838	975.1026	1042.0612	1104.3464	1120.8807	1145.6788	1197.7274	1232.4531	1330.3334	1333.8312	1381.3535	1394.6055	1416.7235	1434.0276	1486.3204	1489.2184	1500.5549	1512.2503	1804.2677	2228.6516	2973.5381	3037.057	3043.9381	3052.4723	3107.3301	3114.5618	3119.574	3128.1101	3501.0298	3652.759
CC(C)C(=O)C(O)C#C	CC(C)C(=O)[C@@H](O)C#C	
InChI=1S/C7H10O2/c1-4-6(8)7(9)5(2)3/h1,5-6,8H,2-3H3	InChI=1S/C7H10O2/c1-4-6(8)7(9)5(2)3/h1,5-6,8H,2-3H3/t6-/m0/s1
