15
gdb 123709	4.17214	1.61666	1.26981	3.2794	70.39	-0.2122	0.0217	0.2339	940.8564	0.116381	-416.799608	-416.79335	-416.792405	-416.830015	25.58	
C	 0.0127564946	 1.4981408766	 0.0886545745	-0.320846
C	 1.3018394093	 0.735321675	 0.0407108028	 0.089223
O	 1.972257648	 0.436551667	 1.2653833357	-0.260731
C	 1.1389724077	-0.4006807936	 1.9344399215	 0.421321
N	 1.2666892752	-0.9457491651	 3.1232419825	-0.349714
N	 0.1272937676	-1.6998112973	 3.1957084642	-0.194081
C	-0.6744186462	-1.6117215838	 2.0933132713	-0.225519
C	-0.0326487088	-0.7501144208	 1.2363136136	 0.205397
C	-0.0272337085	-0.0239091843	-0.0497118724	-0.243135
H	-0.30328542	 1.9322668861	 1.0306211272	 0.131113
H	-0.2308365958	 2.0813935166	-0.7930813412	 0.120034
H	 1.9979610076	 0.8518950754	-0.7797068581	 0.11205
H	-0.0228217517	-2.2566212723	 4.0179483627	 0.274951
H	-1.6014635287	-2.1592732785	 2.031643309	 0.137844
H	-0.3763654104	-0.4702076708	-0.9730437435	 0.102093
165.8127	269.4048	334.8397	414.1128	465.5604	478.8182	631.0689	647.2828	700.6604	749.6311	779.7656	782.9721	788.8095	826.6747	947.804	961.5365	975.2932	1030.4172	1050.6361	1058.4881	1083.5405	1131.173	1158.134	1186.882	1197.414	1273.9349	1330.8243	1366.0061	1460.6481	1464.9777	1471.1995	1542.063	1661.3131	3133.3418	3179.4753	3200.5095	3226.9896	3260.7504	3696.5523
C1C2OC3=NNC=C3C12	C1[C@H]2Oc3n[nH]cc3[C@@H]12	
InChI=1S/C6H6N2O/c1-3-4-2-7-8-6(4)9-5(1)3/h2-3,5H,1H2,(H,7,8)	InChI=1S/C6H6N2O/c1-3-4-2-7-8-6(4)9-5(1)3/h2-3,5H,1H2,(H,7,8)/t3-,5-/m1/s1
