21
gdb 37965	2.53987	1.87149	1.36716	1.3158	80.87	-0.2355	0.0784	0.3139	1011.7748	0.186485	-387.060154	-387.053105	-387.052161	-387.091188	29.771	
C	 0.0451314621	 1.5861096248	-0.1335339771	-0.271052
C	 1.5770149571	 1.5390285038	-0.115709213	-0.071264
C	 2.0910038493	 0.9282351303	 1.1659736991	-0.025344
C	 1.4713794099	 1.1146360314	 2.5508388033	-0.11747
O	 0.7106228998	 0.0174076972	 3.0254713127	-0.235886
C	-0.6219453668	-0.0286904394	 2.5535589722	-0.075972
C	-0.7745367315	-0.6477271895	 1.1613816859	-0.22355
C	 0.0150776872	 0.0232467679	 0.0361853024	 0.014668
C	 1.5515049584	 0.0219349964	 0.094510784	-0.080596
H	-0.4274779899	 2.1876065759	 0.6494761495	 0.093997
H	-0.3652997072	 1.9020532944	-1.0946668234	 0.102193
H	 2.2230424392	 2.1268018207	-0.757104633	 0.081263
H	 3.1783667876	 0.9028995859	 1.1865454587	 0.08558
H	 2.277830204	 1.2461073357	 3.2795488376	 0.102666
H	 0.8592739314	 2.0299221473	 2.5828333238	 0.089967
H	-1.179228163	-0.6343616947	 3.2772109718	 0.100461
H	-1.0616494187	 0.9820876292	 2.5735642235	 0.084396
H	-0.4699159543	-1.7011306409	 1.2131222932	 0.102696
H	-1.8460749095	-0.6446064751	 0.9147498116	 0.088659
H	-0.3014157354	-0.4200829352	-0.9132642908	 0.075148
H	 2.1772531604	-0.7416157061	-0.3536758021	 0.079442
182.546	201.3398	266.2185	365.657	376.9812	415.8424	470.2757	579.2704	623.0715	700.7726	742.0723	773.6483	816.3548	854.5535	890.9424	913.8715	941.1937	968.0779	984.0188	1004.4706	1013.9	1047.6071	1063.9528	1086.2445	1118.0291	1121.5496	1136.87	1170.3855	1209.4304	1221.2185	1254.0847	1279.4733	1284.5781	1311.7027	1326.3825	1343.8717	1360.5724	1396.4436	1404.7314	1426.0758	1435.566	1467.9369	1485.7067	1491.7511	1511.087	2970.7002	2979.9015	3004.8613	3047.3607	3048.718	3053.4781	3060.4893	3065.5127	3107.5105	3130.5892	3166.9197	3181.231
C1C2C3COCCC1C23	C1[C@H]2[C@H]3COCC[C@@H]1[C@@H]23	
InChI=1S/C8H12O/c1-2-9-4-7-6-3-5(1)8(6)7/h5-8H,1-4H2	InChI=1S/C8H12O/c1-2-9-4-7-6-3-5(1)8(6)7/h5-8H,1-4H2/t5-,6-,7+,8-/m0/s1
