18
gdb 114159	4.86416	0.93338	0.87993	2.1199	80.27	-0.2415	0.0115	0.253	1330.9835	0.146517	-401.859908	-401.851147	-401.850203	-401.89334	33.363	
O	 0.7273820258	-0.8231554651	-1.0938726133	-0.420295
C	 0.1412483634	-0.1022569143	-0.0258934135	-0.076256
C	-1.3552043101	-0.3459386257	 0.037664369	 0.055721
C	-2.2703013637	 0.457500503	 0.995359423	-0.352127
C	-3.0567237631	 0.8869278771	-0.2525578623	 0.182247
C	-2.1455068279	 1.5639583888	-1.2031739362	-0.277333
N	-2.1276429702	 0.0909525846	-1.1947551886	-0.196831
C	-4.4767956035	 0.895291713	-0.3634501357	 0.192743
C	-5.6787615501	 0.908826581	-0.4153021053	-0.387754
H	 0.1851265214	-0.6613914934	-1.8748764295	 0.296301
H	 0.6107319556	-0.4632388532	 0.8965351236	 0.112448
H	 0.3650076772	 0.9747914565	-0.0971779486	 0.083974
H	-1.5223445768	-1.4213506994	 0.1374136585	 0.103182
H	-2.8407996403	-0.1751950135	 1.6749588024	 0.127486
H	-1.8215180642	 1.2782359283	 1.5628709205	 0.109425
H	-2.5864504942	 1.9632429645	-2.1104669404	 0.135766
H	-1.3016174611	 2.1321837842	-0.8185535097	 0.11837
H	-6.739047358	 0.9181472835	-0.473621784	 0.192934
85.6552	95.9774	146.0977	216.3104	260.075	353.3584	382.1378	401.2005	486.9118	529.8186	558.6913	593.3319	608.0396	661.3055	699.5114	773.0756	811.0489	879.3123	953.6336	958.0686	1010.1252	1051.8775	1079.3496	1105.5722	1116.8488	1132.6002	1177.2576	1223.7337	1225.8465	1258.0114	1307.8768	1332.8064	1356.1294	1394.2499	1435.9971	1484.4896	1498.2268	1515.1359	2234.5978	2971.3015	3058.0767	3060.3655	3079.8457	3111.0653	3136.7611	3207.433	3502.025	3792.2994
OCC1CC2(CN12)C#C	OC[C@H]1C[C@]2(CN12)C#C	
InChI=1S/C7H9NO/c1-2-7-3-6(4-9)8(7)5-7/h1,6,9H,3-5H2	InChI=1S/C7H9NO/c1-2-7-3-6(4-9)8(7)5-7/h1,6,9H,3-5H2/t6-,7+,8?/m1/s1
