16
gdb 65842	3.40213	1.11203	1.09209	1.9298	68.83	-0.2861	-0.0089	0.2772	1144.6549	0.124538	-437.948519	-437.940292	-437.939348	-437.981449	30.363	
C	 0.1391103364	 1.5101395039	 0.091371295	-0.435716
C	-0.0597248789	-0.0172761489	 0.0113177318	 0.078837
C	 0.7604088112	-0.6239510376	-1.1659499985	-0.103559
O	 2.0642827904	-0.8687088439	-0.6354207511	-0.214578
C	 2.0297756499	-0.9868539137	 0.7247675154	 0.429594
O	 2.9965500756	-1.2500413038	 1.3717207044	-0.319581
C	 0.6041726051	-0.73444117	 1.2071599461	-0.3908
C	-1.4812669417	-0.3350210233	-0.1226524372	 0.253803
N	-2.6043096939	-0.5827218866	-0.236442585	-0.330634
H	 1.206731675	 1.7414639745	 0.1497656952	 0.146019
H	-0.2753804796	 2.0026975559	-0.7917307913	 0.144279
H	-0.3539572552	 1.9184700242	 0.9768758201	 0.145901
H	 0.3248877189	-1.5654430306	-1.5164529842	 0.138096
H	 0.856377698	 0.0646473163	-2.0072992823	 0.141323
H	 0.6039146108	-0.1540958304	 2.1300809024	 0.155652
H	 0.1336023381	-1.700964516	 1.4137646492	 0.161363
86.5907	150.6864	173.866	196.6226	258.665	349.7719	353.7183	450.9321	491.6693	556.3521	582.3521	600.9775	687.8773	791.4276	842.2888	925.6863	944.8922	968.26	984.8864	1076.0538	1100.1608	1154.9993	1188.9025	1200.2021	1232.2136	1278.4788	1302.5583	1391.0408	1418.662	1461.0064	1491.6213	1499.2883	1522.2473	1898.2912	2359.001	3048.1676	3053.9326	3070.8109	3122.5585	3126.2128	3132.5373	3139.6127
CC1(COC(=O)C1)C#N	C[C@]1(COC(=O)C1)C#N	
InChI=1S/C6H7NO2/c1-6(3-7)2-5(8)9-4-6/h2,4H2,1H3	InChI=1S/C6H7NO2/c1-6(3-7)2-5(8)9-4-6/h2,4H2,1H3/t6-/m1/s1
