18
gdb 113182	2.60734	1.15063	0.94286	2.4828	69.36	-0.2419	0.0239	0.2658	1273.2303	0.145899	-476.233228	-476.223394	-476.222449	-476.267965	36.211	
N	-0.0659891337	 1.328071575	 0.0843486365	-0.533847
C	 0.0596504904	 0.0032088971	-0.2025697627	 0.340524
O	 1.101964901	-0.507379597	-0.5787143563	-0.3778
C	-1.2245971824	-0.7764403995	-0.035552997	 0.244942
O	-2.3668021532	 0.0024931912	 0.2371883798	-0.470573
C	-1.3913754706	-2.0521813295	-0.8307986472	-0.329528
C	-1.2098649054	-2.1232836299	 0.6599700342	-0.000896
C	 0.0236046136	-2.7280525705	 1.2799212111	-0.127292
O	-0.2019075992	-4.1325680464	 1.3633496507	-0.424253
H	 0.7705240534	 1.8872656228	 0.1048596165	 0.26079
H	-0.90503585	 1.6567150121	 0.5320284127	 0.265776
H	-2.7104719386	 0.3235336509	-0.6045088119	 0.288917
H	-2.3772087565	-2.2486907736	-1.2375270574	 0.113659
H	-0.5500199263	-2.3340671911	-1.4535194101	 0.143577
H	-2.1207434145	-2.2937402199	 1.2265588749	 0.109359
H	 0.9014701786	-2.4897924598	 0.6700125352	 0.128138
H	 0.1808382083	-2.2962819424	 2.2821552065	 0.082699
H	 0.6126745749	-4.5412427497	 1.6700618945	 0.285807
69.9465	83.6559	150.7712	188.231	234.2958	260.0875	284.6733	321.2337	367.5016	380.7581	442.6834	471.0465	516.5681	546.7754	649.1391	687.1582	791.682	848.526	883.9815	918.3285	936.6052	1033.8892	1066.4627	1067.3323	1093.5475	1101.685	1157.6068	1212.6795	1251.0838	1266.8584	1279.9566	1329.6475	1389.9846	1395.4463	1458.0085	1481.6579	1531.8007	1589.1917	1779.0402	2965.8805	3069.5672	3137.1288	3159.6208	3235.9748	3596.894	3736.1282	3790.5904	3830.9969
NC(=O)C1(O)CC1CO	NC(=O)[C@@]1(O)C[C@H]1CO	
InChI=1S/C5H9NO3/c6-4(8)5(9)1-3(5)2-7/h3,7,9H,1-2H2,(H2,6,8)	InChI=1S/C5H9NO3/c6-4(8)5(9)1-3(5)2-7/h3,7,9H,1-2H2,(H2,6,8)/t3-,5+/m0/s1
