21
gdb 119065	2.16241	1.21192	0.96632	2.6594	75.94	-0.2203	0.0669	0.2872	1344.0744	0.179412	-461.313675	-461.303182	-461.302238	-461.34934	37.624	
C	-0.6758041358	 1.2406037118	 1.1208674454	-0.232672
O	-1.0222366774	-0.1200100449	 0.9677534108	-0.245665
C	-0.4660165431	-0.7087896636	-0.1980892903	-0.135591
C	-0.8672426893	-2.1729693131	-0.2867518939	 0.312121
C	-0.9986193558	-2.9830238027	 0.9804944552	-0.377358
C	-2.2301726203	-2.6409019731	 0.1646663427	 0.078541
O	-3.2262207734	-1.7778501331	 0.614036236	-0.433271
O	-0.2484787341	-2.8347629106	-1.3559963943	-0.277175
C	-0.8274832278	-2.5931011272	-2.6273144743	-0.25207
H	-1.1411098359	 1.5936503842	 2.0436172251	 0.135778
H	 0.4139780967	 1.3658534794	 1.1965255142	 0.117733
H	-1.0391302223	 1.8477741148	 0.278641662	 0.115362
H	-0.8098507523	-0.1595819625	-1.0897134984	 0.095819
H	 0.6332626427	-0.6413323564	-0.1710071827	 0.108105
H	-0.632913796	-4.003418657	 0.9516500476	 0.118721
H	-0.8515311964	-2.4534732811	 1.9152920381	 0.121956
H	-2.6630758185	-3.4574218825	-0.4053741172	 0.107377
H	-2.779063262	-0.999692126	 0.9753157618	 0.290617
H	-0.6790399683	-1.5587755242	-2.9674272565	 0.107574
H	-0.3281026624	-3.2630993707	-3.3312461894	 0.1279
H	-1.9044557184	-2.8073656615	-2.6296214817	 0.116198
77.316	96.7865	99.1261	152.8941	179.6365	203.5196	226.0376	250.2562	317.4336	356.4467	414.1117	462.7711	490.6263	518.8182	530.101	735.5798	825.6909	882.5479	939.8471	987.043	1004.7555	1031.6711	1079.373	1101.2586	1111.5431	1143.7107	1169.4545	1179.8526	1188.5494	1202.3328	1225.531	1247.2399	1263.9819	1322.9834	1358.8987	1421.919	1445.2722	1472.1705	1481.7051	1484.8216	1492.8488	1493.1898	1502.7931	1508.6353	1527.1277	2964.2416	2988.0358	2994.7223	3001.5123	3039.5013	3051.0465	3117.5636	3124.6124	3136.1603	3160.7831	3232.5637	3733.6671
COCC1(CC1O)OC	COC[C@]1(C[C@H]1O)OC	
InChI=1S/C6H12O3/c1-8-4-6(9-2)3-5(6)7/h5,7H,3-4H2,1-2H3	InChI=1S/C6H12O3/c1-8-4-6(9-2)3-5(6)7/h5,7H,3-4H2,1-2H3/t5-,6+/m1/s1
