22
gdb 9417	6.28659	0.68648	0.64815	2.7163	75.55	-0.2605	0.0706	0.3311	1766.2465	0.197911	-387.341528	-387.330912	-387.329967	-387.377618	37.316	
C	 0.0318114399	 1.5690194695	-0.0642158383	-0.380379
C	-0.0047691951	 0.0409976292	 0.0104847455	-0.186417
C	-1.4285283548	-0.5305245784	 0.0256914941	 0.138024
O	-2.1695176101	-0.1111749735	-1.1208477897	-0.427044
C	-1.441597026	-2.0576197067	 0.1749515745	-0.209559
C	-2.8516635367	-2.6456906379	 0.2699111587	-0.163616
C	-2.8561741993	-4.1657954663	 0.3501993157	-0.074831
O	-4.2060875585	-4.5971607485	 0.4387901557	-0.420518
H	 1.0590879297	 1.9394305828	-0.1323433122	 0.107459
H	-0.5234968333	 1.9247467998	-0.9359219541	 0.127106
H	-0.42680961	 2.0165670352	 0.8244973508	 0.113971
H	 0.5344272831	-0.3893714267	-0.846815441	 0.082556
H	 0.5251729774	-0.3064566477	 0.9063351157	 0.094707
H	-1.976106183	-0.0900226757	 0.8701473971	 0.085259
H	-1.7275238174	-0.4720407274	-1.8982347629	 0.274773
H	-0.9085715028	-2.4970823574	-0.6827735224	 0.081042
H	-0.8582880339	-2.3295555771	 1.0647550101	 0.094005
H	-3.3638517567	-2.2493583572	 1.1553800693	 0.103128
H	-3.4409857397	-2.3307677669	-0.5967720658	 0.117305
H	-2.3612477274	-4.5872603554	-0.5411168516	 0.079204
H	-2.2749159714	-4.4963889367	 1.2274815705	 0.079895
H	-4.2118871743	-5.5568078569	 0.4977075502	 0.283928
61.6129	71.0483	98.7629	127.8429	152.2211	220.2888	246.0877	261.5321	288.8916	309.1796	334.8368	451.5849	502.6571	543.0672	758.1172	780.1715	841.7741	885.8394	964.2183	1007.6609	1015.9878	1030.9846	1068.184	1078.4623	1105.4951	1123.1274	1145.4988	1205.3509	1232.4678	1263.1581	1285.3653	1294.826	1308.9774	1332.7917	1364.0976	1384.253	1396.4823	1406.3124	1422.1955	1462.9435	1474.2862	1486.0267	1495.1652	1502.3402	1509.6918	1529.1616	2951.3561	2975.1748	2988.1462	2998.623	3023.1875	3034.6451	3037.5427	3041.5593	3053.9767	3095.0487	3101.3946	3122.0215	3788.7248	3830.4473
CCC(O)CCCO	CC[C@@H](O)CCCO	
InChI=1S/C6H14O2/c1-2-6(8)4-3-5-7/h6-8H,2-5H2,1H3	InChI=1S/C6H14O2/c1-2-6(8)4-3-5-7/h6-8H,2-5H2,1H3/t6-/m1/s1
