17
gdb 128162	2.04505	1.81654	1.0269	3.4956	72.1	-0.2094	0.0072	0.2166	1148.2107	0.136457	-451.313152	-451.303939	-451.302995	-451.347543	32.498	
C	 0.3544731866	-0.2126318812	 1.2575837215	-0.33392
N	-0.277430763	-0.2403590075	-0.0707445364	-0.400163
C	 0.5332304303	-0.6659735948	-1.1281676955	 0.219721
C	 0.7367734962	-1.8793110836	-1.7564057101	 0.308952
O	 0.1600835282	-3.0595947086	-1.4380664794	-0.44302
N	 1.5940352791	-1.7259027739	-2.7824701987	-0.285197
N	 1.9646471204	-0.4634815187	-2.8352377963	-0.173803
N	 1.3215915485	 0.1828928568	-1.8545958211	 0.041
C	 1.5072184173	 1.6041035223	-1.6597532951	-0.328652
H	 0.751096676	-1.1875993492	 1.5742303303	 0.124312
H	 1.1784604097	 0.5064766114	 1.2556432252	 0.130803
H	-0.3829180068	 0.1255647812	 1.9904494355	 0.126672
H	-1.1211197714	-0.8006006087	-0.0444351969	 0.246358
H	 0.4656544221	-3.7012692285	-2.091411105	 0.30553
H	 1.8484711155	 2.0273924453	-2.6043405647	 0.163408
H	 0.5550567431	 2.0485301265	-1.3630575361	 0.15608
H	 2.2534468983	 1.8055042713	-0.8842678172	 0.141919
59.7319	116.1971	140.9408	164.578	180.0052	264.4748	283.27	345.1349	351.1945	448.3375	537.5582	598.2103	685.4722	695.997	730.5525	781.447	840.0644	1041.0832	1056.7225	1083.8943	1149.2337	1153.6793	1166.7211	1201.0172	1258.0016	1306.082	1362.4019	1411.3538	1441.826	1451.707	1477.6126	1485.7633	1492.953	1504.1482	1517.7468	1546.9924	1677.7431	3002.8176	3046.3727	3085.0452	3119.9327	3120.3021	3166.1338	3550.3398	3797.0531
CNC1=C(O)N=NN1C	CNc1c(O)nnn1C	
InChI=1S/C4H8N4O/c1-5-3-4(9)6-7-8(3)2/h5,9H,1-2H3	InChI=1S/C4H8N4O/c1-5-3-4(9)6-7-8(3)2/h5,9H,1-2H3
