18
gdb 47912	2.45573	1.59382	1.09893	2.7383	70.08	-0.2581	0.0101	0.2682	1102.5224	0.149251	-476.203547	-476.195485	-476.194541	-476.236577	30.282	
N	-0.0731766675	 1.1401992814	-0.986679618	-0.48812
C	-0.0206528644	 0.1377522851	-0.216380831	 0.380873
C	-1.2960298536	-0.6414771393	 0.0734310772	-0.170144
O	-1.734725608	-0.5272378711	 1.4125039571	-0.239705
C	-1.2192858551	-1.4334947611	 2.3710792918	-0.104764
C	 0.1316721438	-1.021492817	 2.9658048311	-0.075089
O	 1.2997160405	-1.5381965176	 2.3316667814	-0.236144
C	 1.3430884618	-1.5111949955	 0.9470856237	 0.018957
O	 1.1517160691	-0.2108304377	 0.4021628787	-0.248684
H	 0.8555015069	 1.5592319816	-1.0797229573	 0.222551
H	-2.0628036815	-0.1786999722	-0.5486583138	 0.147851
H	-1.2111896438	-1.6973454005	-0.2234046732	 0.107533
H	-1.9528924834	-1.4268707945	 3.1841911179	 0.121654
H	-1.1787140729	-2.4601239797	 1.974519931	 0.10262
H	 0.166381707	 0.0754185819	 2.9908021765	 0.123705
H	 0.2006120048	-1.3890930986	 3.9937962873	 0.116782
H	 2.3583576756	-1.8114815367	 0.6776058297	 0.128639
H	 0.6285254708	-2.2098078584	 0.4949641797	 0.091486
62.0031	128.9504	192.7331	243.1702	296.8279	354.6564	419.7642	441.5318	496.4756	508.8328	598.4293	681.5728	801.2186	819.9211	891.9106	939.6197	1000.6696	1006.4886	1013.659	1035.091	1088.1987	1104.4682	1160.0443	1163.4099	1202.8983	1259.7894	1292.5565	1321.0942	1339.4177	1356.3536	1392.4839	1399.004	1417.1601	1452.7729	1479.8467	1482.9579	1491.0264	1530.6679	1744.0287	2989.4715	2993.6729	3028.8878	3032.946	3073.5346	3093.4736	3104.4694	3130.6945	3454.5421
N=C1COCCOCO1	[NH][C]1COCCOCO1	
InChI=1S/C5H9NO3/c6-5-3-7-1-2-8-4-9-5/h6H,1-4H2	InChI=1S/C5H9NO3/c6-5-3-7-1-2-8-4-9-5/h6H,1-4H2
