19
gdb 43678	5.86117	0.74781	0.71575	3.0041	77.76	-0.2354	-0.0262	0.2092	1570.163	0.158709	-419.159362	-419.150664	-419.14972	-419.193903	31.813	
O	-0.0170749411	 0.0012062571	 0.1280913512	-0.276849
C	-0.0109536514	 1.1936428996	 0.1364886685	 0.394787
C	-1.076729055	 2.2945204868	 0.0238631424	-0.28728
N	-0.039330119	 3.2640610211	 0.4466233122	-0.080333
C	 0.0459029015	 4.5159115796	-0.2881073902	-0.191929
C	 1.1781525444	 5.3838508989	 0.2101098068	 0.035928
C	 0.9809313767	 6.8472680637	 0.3620754968	-0.249166
N	 1.108738334	 5.9847986907	 1.5475217314	-0.302896
C	 1.0617697679	 2.2829840454	 0.2816017193	-0.290998
H	-1.4163677309	 2.4131035757	-1.019385809	 0.115623
H	-1.9527662187	 2.2237113071	 0.6771135349	 0.133066
H	 0.1707171684	 4.3448735686	-1.3774645466	 0.082438
H	-0.9059276433	 5.0460861237	-0.1566819528	 0.100147
H	 2.1737810023	 5.0260159897	-0.0482559998	 0.093755
H	 1.8095647358	 7.530616418	 0.2000756854	 0.121139
H	 0.0047769743	 7.255190704	 0.1101787326	 0.110287
H	 0.1943668874	 5.7985494703	 1.9534211456	 0.234097
H	 1.757280111	 2.2056538279	 1.1228002562	 0.142037
H	 1.6394698958	 2.395194942	-0.651991695	 0.116148
47.9726	72.7033	103.1059	155.9248	291.0579	311.6518	383.4658	430.5392	453.3059	506.1572	674.1228	761.364	776.0363	806.1435	837.5743	932.99	938.1377	960.1363	997.6365	1020.1142	1059.9576	1064.9949	1091.9755	1101.6424	1134.8414	1155.2607	1159.1804	1200.8191	1221.3404	1243.8229	1259.1242	1283.4404	1304.804	1321.5458	1371.2037	1438.6585	1457.8456	1476.2924	1493.6864	1515.986	1923.204	2890.8405	2962.4498	2971.5247	3038.7989	3069.5273	3080.259	3106.457	3117.9038	3191.304	3496.2968
O=C1CN(CC2CN2)C1	O=C1CN(C[C@H]2CN2)C1	
InChI=1S/C6H10N2O/c9-6-3-8(4-6)2-5-1-7-5/h5,7H,1-4H2	InChI=1S/C6H10N2O/c9-6-3-8(4-6)2-5-1-7-5/h5,7H,1-4H2/t5-/m1/s1
