20
gdb 22675	4.30811	0.84776	0.73503	0.8032	79.56	-0.24	0.0093	0.2493	1535.0503	0.169977	-440.252208	-440.242805	-440.24186	-440.286869	34.574	
C	 0.1384856317	 1.4281899293	 0.0845732747	-0.24079
O	-0.171768118	 0.061038662	 0.2320342161	-0.243301
C	 0.6696266165	-0.6292515179	 1.1253930167	 0.141435
C	 0.0942109112	-2.0275430856	 1.3973329023	-0.250716
C	 1.2821805975	-2.8411957156	 1.9428385008	-0.302697
C	 2.504251365	-2.1402368743	 1.3810425258	 0.405875
C	 2.093683772	-0.9195763828	 0.5932492263	-0.319798
N	 3.7266974976	-2.4488314555	 1.5495010021	-0.229573
O	 3.8475402062	-3.6190430404	 2.3257131748	-0.396856
H	 1.126914263	 1.5864656683	-0.371278039	 0.108909
H	-0.6206343738	 1.8626735167	-0.570396068	 0.127847
H	 0.1166457452	 1.9558706288	 1.0511619064	 0.104758
H	 0.7477002991	-0.0666900727	 2.0722210906	 0.067952
H	-0.7644692475	-2.0011888545	 2.0715615128	 0.105178
H	-0.2497560605	-2.4353580001	 0.4404456865	 0.115379
H	 1.3334075519	-2.8223676962	 3.0382271675	 0.129155
H	 1.260022109	-3.8976626883	 1.6610624117	 0.130721
H	 2.0090891939	-1.1632607133	-0.4749884795	 0.123667
H	 2.8047297822	-0.0979680454	 0.6957154695	 0.117717
H	 4.8028372278	-3.7272722325	 2.378448042	 0.30514
62.3727	86.9286	133.5108	167.4716	220.4292	266.8143	297.5953	381.9858	412.3353	423.7502	492.0193	514.2133	577.5926	672.5724	777.5125	839.9444	873.0176	931.8152	966.3075	994.8103	1002.6841	1018.7676	1086.9324	1152.422	1158.8955	1178.8265	1191.2951	1215.1592	1241.5276	1250.3154	1262.2761	1300.3654	1319.6969	1348.5907	1397.8237	1402.3604	1466.2326	1470.8305	1481.6782	1488.9771	1502.5132	1509.6935	1754.838	2948.9377	2976.7136	3019.8769	3025.5953	3042.8363	3053.3716	3088.8017	3110.7787	3112.5683	3114.2918	3822.0085
COC1CCC(C1)=NO	CO[C@H]1CCC(=NO)C1	
InChI=1S/C6H11NO2/c1-9-6-3-2-5(4-6)7-8/h6,8H,2-4H2,1H3	InChI=1S/C6H11NO2/c1-9-6-3-2-5(4-6)7-8/h6,8H,2-4H2,1H3/t6-/m0/s1
