23
gdb 108362	2.23955	1.45937	1.10106	1.372	86.6	-0.2397	0.0752	0.3149	1231.5435	0.20469	-388.261927	-388.252066	-388.251121	-388.296014	37.913	
C	-0.0255105546	 1.5148330784	-0.0423901115	-0.462781
C	 0.050326697	-0.0004700735	 0.0501304038	 0.260134
C	-1.1642866576	-0.6655753091	-0.5845135627	-0.459002
C	 1.3343168102	-0.77763275	-0.1426753527	-0.127676
C	 2.5606801105	-0.0346451562	 0.3915481375	-0.241394
C	 1.8790327787	 0.0524318552	 1.7933931994	-0.295868
C	 0.6597536591	-0.7108676156	 1.244092735	 0.341159
C	-0.019131706	-1.7660527805	 2.0626579526	-0.209015
O	 0.9623678408	-2.7144535274	 2.4801394236	-0.420143
H	 0.8406927617	 2.0179325457	 0.3904194685	 0.119715
H	-0.1006932578	 1.8299270694	-1.08986266	 0.111858
H	-0.9167082004	 1.8882608885	 0.4761151201	 0.11006
H	-1.28407914	-0.315151276	-1.6161261666	 0.113515
H	-1.0747093003	-1.7544407778	-0.6191554085	 0.118236
H	-2.0870387994	-0.4191994066	-0.0457159076	 0.110678
H	 1.3677298353	-1.6126901651	-0.8342354231	 0.077625
H	 3.4545947778	-0.6615112494	 0.4111449299	 0.104119
H	 2.8127306537	 0.9090017923	-0.1031477182	 0.091263
H	 2.406183498	-0.5454897132	 2.5380573322	 0.117742
H	 1.6960679383	 1.0494484477	 2.2071202597	 0.085863
H	-0.4921156309	-1.291887654	 2.939998463	 0.083289
H	-0.8188800607	-2.258705252	 1.4930962559	 0.086443
H	 0.5531672567	-3.2988793807	 3.1251607796	 0.28418
79.2155	137.597	182.679	202.8576	233.3908	254.2919	282.7859	298.5906	333.7242	354.6547	371.14	483.0838	531.4992	643.1384	672.5631	727.7563	807.5613	877.6802	928.2241	943.752	956.0329	965.3984	976.5778	1024.7316	1027.4344	1051.4864	1077.5468	1111.1209	1151.726	1164.8374	1189.5192	1223.7838	1228.1271	1245.8674	1267.3479	1280.0972	1296.2899	1324.0046	1405.3574	1419.592	1428.2935	1468.0352	1473.6425	1486.9527	1490.2686	1505.4239	1508.5025	1510.8595	1518.0629	2951.8802	3016.6329	3022.981	3027.8103	3043.8026	3051.2596	3076.7873	3080.9193	3100.7624	3108.3837	3124.0951	3128.3703	3166.2556	3825.5734
CC1(C)C2CCC12CO	CC1(C)[C@H]2CC[C@@]12CO	
InChI=1S/C8H14O/c1-7(2)6-3-4-8(6,7)5-9/h6,9H,3-5H2,1-2H3	InChI=1S/C8H14O/c1-7(2)6-3-4-8(6,7)5-9/h6,9H,3-5H2,1-2H3/t6-,8+/m1/s1
