21
gdb 108188	3.12362	1.37357	1.27548	1.2614	82.17	-0.2305	0.0268	0.2573	1094.0012	0.18504	-387.097185	-387.089302	-387.088358	-387.129207	32.175	
O	-0.0703357451	 1.417880986	 0.0350963275	-0.427346
C	-0.0090759608	-0.0043418451	 0.0044993145	-0.188148
C	-1.4251976588	-0.5346759394	 0.0286435028	 0.318151
C	-2.3113263969	-0.1276257134	-1.2022994882	-0.224713
C	-3.4961167015	-1.1375974639	-1.1351630837	-0.211412
C	-3.1498455668	-1.9938290427	 0.1304719344	-0.06363
C	-1.6111421851	-2.0720613177	 0.0010820127	-0.264634
C	-3.2715883144	-1.0577723827	 1.3237525745	-0.094011
C	-2.2571640272	-0.1906314996	 1.2595460334	-0.099299
H	 0.8288353047	 1.7581230214	 0.0452825764	 0.287537
H	 0.5039915745	-0.3583006198	-0.9051304008	 0.079959
H	 0.5489080794	-0.3930804009	 0.8715614501	 0.083692
H	-2.6261213234	 0.9146940542	-1.1395881311	 0.1095
H	-1.740328177	-0.2446839074	-2.1298489641	 0.088695
H	-4.4683005404	-0.6478518219	-1.0411398165	 0.095381
H	-3.5302507533	-1.7709160884	-2.0273053002	 0.092287
H	-3.6922226863	-2.9376157189	 0.1979836054	 0.055156
H	-1.2741684687	-2.5326649645	-0.9349325393	 0.082827
H	-1.1378706667	-2.5719334015	 0.8506847912	 0.091247
H	-4.1080955033	-1.042253321	 2.0120147061	 0.088718
H	-2.0816772829	 0.6840585371	 1.8723658249	 0.100041
106.295	175.0593	231.2171	263.2119	323.2999	371.7981	411.0219	477.5	503.5281	644.4006	673.8324	746.8885	781.3727	804.366	824.6785	871.2689	900.1662	926.2307	933.6672	957.8101	959.7445	1000.7851	1022.5385	1049.673	1089.5077	1095.9317	1111.1446	1146.5913	1166.1512	1200.3751	1223.8584	1234.8653	1250.4503	1274.9213	1281.8722	1305.187	1311.5622	1329.9965	1376.0996	1462.378	1485.438	1488.5668	1510.4516	1518.5634	1644.5444	2957.5888	2988.274	3035.4331	3042.2148	3056.0362	3095.6838	3099.2043	3106.3322	3121.7055	3195.3657	3224.9669	3831.3855
OCC12CCC(C1)C=C2	OC[C@@]12CC[C@@H](C1)C=C2	
InChI=1S/C8H12O/c9-6-8-3-1-7(5-8)2-4-8/h1,3,7,9H,2,4-6H2	InChI=1S/C8H12O/c9-6-8-3-1-7(5-8)2-4-8/h1,3,7,9H,2,4-6H2/t7-,8-/m0/s1
