16
gdb 125372	2.43416	1.81516	1.04696	3.7742	77.54	-0.1991	-0.0232	0.1759	1091.0256	0.126172	-434.115984	-434.107719	-434.106775	-434.14853	31.462	
C	-0.0315947695	 1.5074309654	 0.0245678414	-0.480907
C	 0.010073904	 0.0081987106	-0.0045270312	 0.133464
C	 0.1521054258	-0.715086152	-1.1592965818	-0.043654
N	 0.1988983258	-2.059995316	-1.1529597507	-0.234412
N	 0.1043873367	-2.8403673071	-0.0511982373	-0.308164
C	-0.049936879	-2.1987982482	 1.0794871609	 0.300216
N	-0.2049745583	-2.885929037	 2.2415797478	-0.541676
C	-0.0929018903	-0.7194134361	 1.2303787317	 0.266374
O	-0.1990511244	-0.2194634155	 2.3550086834	-0.416572
H	 0.066737633	 1.9348489346	-0.9772656525	 0.10819
H	-0.9698768375	 1.8611747499	 0.4653779779	 0.141998
H	 0.7708970699	 1.9043337707	 0.6555584587	 0.141943
H	 0.2399751503	-0.2531915597	-2.1373617133	 0.126747
H	 0.3093682228	-2.5799300984	-2.0070579849	 0.276627
H	 0.0685213093	-3.8528830827	 2.2773034901	 0.257605
H	-0.1113093687	-2.3121969185	 3.0673358198	 0.272219
114.1691	119.3497	246.766	264.0789	305.2349	322.2663	381.894	453.0475	483.2351	526.2725	545.2945	553.0445	577.7897	599.733	705.1482	813.4756	884.0194	893.48	985.9752	998.594	1062.8557	1083.6023	1160.9786	1285.575	1338.2691	1390.1403	1415.1081	1424.1291	1469.0888	1491.4077	1543.5732	1581.113	1640.0026	1651.0673	1698.3322	3033.7777	3088.3826	3113.9895	3184.6896	3574.8216	3660.9715	3718.2538
CC1=CNN=C(N)C1=O	Cc1c[nH]nc(N)c1=O	
InChI=1S/C5H7N3O/c1-3-2-7-8-5(6)4(3)9/h2H,1H3,(H2,6,8)(H,7,9)	InChI=1S/C5H7N3O/c1-3-2-7-8-5(6)4(3)9/h2H,1H3,(H2,6,8)(H,7,9)
