20
gdb 58521	2.72146	1.3129	1.25302	0.9498	74.53	-0.2257	0.0654	0.291	1126.2693	0.169836	-440.23566	-440.2266	-440.225656	-440.268859	35.436	
C	 0.1272081316	 1.4779234049	 0.253712171	-0.417895
C	-0.0686581451	-0.0134967294	-0.0064027654	 0.069785
O	-1.4379205003	-0.3072340754	-0.3321438611	-0.466412
C	 0.7095606286	-0.5151061249	-1.2221822082	 0.4742
O	 0.2178822652	 0.0866559303	-2.4020666831	-0.502499
C	 2.272890947	-0.4319295345	-1.2154502216	-0.291496
C	 2.3202347896	-1.9543271982	-1.3808586734	-0.042178
N	 1.6266551828	-2.5140659931	-0.1931553762	-0.342781
C	 0.8392989343	-2.0515981991	-1.3628450373	-0.127941
H	 1.1599370509	 1.6931900758	 0.5437240053	 0.125239
H	-0.1089875239	 2.0552354862	-0.6440180153	 0.129862
H	-0.5194444643	 1.8162032986	 1.0720598033	 0.100347
H	 0.2450142453	-0.6004012646	 0.8656794289	 0.094424
H	-2.0026158691	 0.1272711015	 0.3135580369	 0.285988
H	-0.7451675735	 0.0571434518	-2.3156231556	 0.282835
H	 2.6073943623	 0.1162816141	-2.0975323285	 0.120371
H	 2.7553891103	-0.0413230735	-0.3161455432	 0.09853
H	 3.0530310635	-2.5406067331	-1.9207100359	 0.091314
H	 1.6834978389	-3.5303019596	-0.256917282	 0.228571
H	 0.1656451661	-2.7120165377	-1.8945477884	 0.089736
96.7762	147.3724	190.8348	230.8304	251.7136	292.4462	320.0032	346.6706	428.791	459.34	493.5758	512.9489	550.5769	711.0123	768.332	819.5244	840.8961	885.4622	910.9457	935.5605	965.9074	996.6514	1001.7186	1036.3593	1065.5543	1087.4934	1109.5306	1122.408	1131.1309	1149.5077	1194.0579	1235.6246	1277.5205	1299.0505	1325.0203	1359.015	1375.2509	1397.836	1405.2936	1428.5369	1462.8001	1489.5223	1502.3682	3030.0652	3037.3332	3067.3979	3097.436	3126.6415	3137.1805	3186.6335	3200.7196	3470.5976	3751.1841	3832.6362
CC(O)C1(O)CC2NC12	C[C@@H](O)[C@@]1(O)C[C@H]2N[C@@H]12	
InChI=1S/C6H11NO2/c1-3(8)6(9)2-4-5(6)7-4/h3-5,7-9H,2H2,1H3	InChI=1S/C6H11NO2/c1-3(8)6(9)2-4-5(6)7-4/h3-5,7-9H,2H2,1H3/t3-,4-,5-,6+/m1/s1
