15
gdb 133246	2.51036	1.79983	1.05512	2.0688	73.91	-0.211	-0.0508	0.1602	1053.0032	0.113542	-458.103252	-458.095649	-458.094705	-458.135389	28.679	
C	-0.0239734335	 1.4177999467	-0.0158208087	-0.307068
N	-0.0065274398	-0.038657508	 0.0010108533	-0.042944
N	-0.0344424379	-0.646165046	-1.194380978	-0.204493
C	-0.020108102	-1.9468998986	-1.2225083128	-0.001414
C	 0.0237597797	-2.758291057	-0.0471757583	-0.271851
C	 0.0510589679	-2.1205671878	 1.1385958849	 0.261106
F	 0.0925417549	-2.7769019844	 2.2937255978	-0.062291
C	 0.0374419726	-0.6708639635	 1.2496031645	 0.275999
N	 0.0606236938	 0.038082138	 2.3206659281	-0.577565
H	 0.8682448687	 1.8076529602	 0.4817029149	 0.151904
H	-0.0583788625	 1.729415257	-1.0577746638	 0.144547
H	-0.894092307	 1.7871131298	 0.5337786648	 0.15192
H	-0.0437593042	-2.3949956761	-2.2085858848	 0.130773
H	 0.0346832266	-3.840006633	-0.1043997891	 0.128774
H	 0.0915733135	-0.5735415373	 3.1337876973	 0.222602
106.0964	160.5496	218.9065	269.5002	319.9285	345.036	464.6811	493.2614	537.0102	565.7203	615.0649	723.2714	743.8938	806.4301	856.6625	884.7132	925.4212	949.4354	1030.2704	1086.4007	1152.1948	1215.5762	1289.6149	1296.8567	1330.6173	1401.2657	1426.1205	1443.8741	1468.6632	1504.7313	1582.1682	1646.8097	1700.1071	3054.61	3114.266	3180.8968	3200.7049	3213.5185	3514.318
CN1N=CC=C(F)C1=N	CN1N=CCC(=C1[NH])F	
InChI=1S/C5H6FN3/c1-9-5(7)4(6)2-3-8-9/h2-3,7H,1H3	InChI=1S/C5H7FN3/c1-9-5(7)4(6)2-3-8-9/h3,7H,2H2,1H3
