21
gdb 65039	2.74892	1.37259	1.16358	3.2162	77.69	-0.2352	0.0636	0.2988	1150.082	0.180569	-424.182133	-424.172571	-424.171627	-424.217059	35.908	
C	 0.0111939161	 1.5728044204	-0.151061158	-0.48947
C	-0.0243386179	 0.0506828947	-0.0356093476	 0.262946
C	 1.0440764058	-0.6349376882	-0.934772748	-0.10862
O	 1.8954488124	-0.8935184185	 0.1989588834	-0.27819
C	 0.8714190527	-0.4748619052	 1.122601287	-0.108576
C	-1.4108161284	-0.5608986215	-0.1042687108	 0.356499
O	-1.2928808587	-1.9607095593	 0.0145776797	-0.469414
C	-2.6194733808	 0.0990642995	 0.5088721677	-0.334787
C	-2.4929914919	-0.0183884404	-1.0026341342	-0.334687
H	 1.0481100706	 1.9159939261	-0.0906417337	 0.131719
H	-0.3945513728	 1.9224993193	-1.105817978	 0.119023
H	-0.5427547808	 2.0597554455	 0.6579558563	 0.119014
H	 0.7050157373	-1.5602565732	-1.4118405211	 0.108931
H	 1.5308455166	 0.0093169491	-1.6776390396	 0.088472
H	 1.2366390886	 0.2820466584	 1.8279805032	 0.088458
H	 0.446081138	-1.320237562	 1.6732558708	 0.108887
H	-2.1695141585	-2.3535730475	-0.026400954	 0.282931
H	-3.3321613926	-0.5488297952	 1.0104426477	 0.108333
H	-2.5322316219	 1.0818059228	 0.9573099714	 0.120081
H	-2.3204064214	 0.885042595	-1.5757861659	 0.120071
H	-3.1211665523	-0.7447478197	-1.5096232364	 0.108378
32.3266	89.0529	109.62	229.3416	247.8872	264.8441	334.7737	351.7172	376.055	388.1774	448.5218	540.771	563.5726	764.7452	813.3789	852.8357	864.9653	922.241	925.759	944.7654	946.3506	982.8003	1000.7597	1010.4958	1041.1812	1053.5937	1069.0033	1140.3888	1163.728	1167.1133	1173.3692	1189.133	1200.777	1266.7531	1307.1784	1310.2533	1374.7552	1411.751	1432.5444	1459.3081	1499.0537	1500.0209	1501.2442	1510.3371	1532.9176	3012.1118	3020.8249	3035.2459	3074.4361	3076.0089	3102.2731	3107.1324	3127.1082	3130.5828	3207.5296	3221.3953	3835.6096
CC1(COC1)C1(O)CC1	CC1(COC1)C1(O)CC1	
InChI=1S/C7H12O2/c1-6(4-9-5-6)7(8)2-3-7/h8H,2-5H2,1H3	InChI=1S/C7H12O2/c1-6(4-9-5-6)7(8)2-3-7/h8H,2-5H2,1H3
