19
gdb 33143	2.90263	1.22753	0.92643	1.7187	78.97	-0.1711	0.0551	0.2261	1264.7627	0.160477	-419.231447	-419.221993	-419.221049	-419.266039	35.038	
N	 0.4001834769	 1.4591487033	 0.1594571283	-0.628332
C	 0.207339595	 0.0616967143	 0.064751884	 0.127845
C	-1.0170117842	-0.5691270716	-0.00536036	-0.128607
N	-0.7909599197	-1.9261192159	-0.0646232852	-0.242624
C	 0.5521221917	-2.1709958974	-0.0091365144	-0.178205
C	 1.2153582364	-0.9623177365	 0.0611518295	 0.231828
C	 2.7095010138	-0.7990848785	 0.0764046637	-0.328718
C	 3.3085911308	-0.264345884	 1.3804201722	-0.065438
O	 3.0665717901	 1.1412018081	 1.4571068943	-0.404332
H	 1.3632396889	 1.6750929072	 0.391194409	 0.246539
H	 0.1295913835	 1.9495027437	-0.6844216903	 0.227522
H	-2.0147261388	-0.1618169799	-0.0134054132	 0.104797
H	-1.5064901744	-2.627939736	-0.1151504698	 0.25614
H	 0.9401063188	-3.1772744928	-0.0453057903	 0.105955
H	 3.1726814266	-1.771340335	-0.1288283477	 0.096462
H	 3.0388125519	-0.1254194608	-0.7270615933	 0.10696
H	 2.8606666865	-0.7877597504	 2.2355578709	 0.096198
H	 4.3931434574	-0.4536865563	 1.394484758	 0.084404
H	 3.0781520089	 1.4088218984	 2.3797634641	 0.291605
40.7229	118.2324	155.3277	172.5529	229.3997	256.9115	293.9742	340.9957	405.8813	437.4923	482.6937	617.1908	629.4116	648.9703	704.4508	725.6373	746.4077	827.3632	873.2521	906.4126	955.154	1045.5082	1069.1111	1083.1397	1107.8407	1167.262	1176.8625	1236.562	1263.0937	1289.4013	1309.0654	1342.4993	1381.1571	1414.2238	1439.0349	1463.8886	1480.0749	1513.9626	1560.3045	1621.7688	1657.7053	2977.8472	3009.3	3035.9806	3063.373	3248.9143	3266.5983	3506.4369	3597.1914	3697.5353	3847.0127
NC1=CNC=C1CCO	Nc1c[nH]cc1CCO	
InChI=1S/C6H10N2O/c7-6-4-8-3-5(6)1-2-9/h3-4,8-9H,1-2,7H2	InChI=1S/C6H10N2O/c7-6-4-8-3-5(6)1-2-9/h3-4,8-9H,1-2,7H2
