20
gdb 94812	2.93646	1.35441	1.15867	1.399	75.24	-0.2402	0.0638	0.304	1141.9367	0.170861	-440.255086	-440.246148	-440.245204	-440.288579	33.873	
C	-0.2724639769	 1.4031614665	-0.0431687385	-0.432195
C	 0.0671805631	-0.0652696346	 0.1447394292	 0.155247
O	 0.6846933832	-0.5530730719	-1.0562645087	-0.284626
C	 1.6957910136	-1.5038233623	-0.7384130714	-0.138966
C	 1.6083296392	-1.7097942815	 0.7673455931	 0.330135
C	 1.2427471065	-3.0220475239	 1.3552315709	-0.300957
N	 2.5922204488	-2.4515260593	 1.5412364109	-0.364038
C	 1.0588506262	-0.3931741997	 1.2801256583	 0.006305
O	 2.1439049306	 0.5166195306	 1.3573644165	-0.430025
H	 0.6372973947	 1.9859537759	-0.210299527	 0.1269
H	-0.9191968799	 1.5293643112	-0.9152494362	 0.132772
H	-0.8021336576	 1.7969724756	 0.8315752313	 0.108965
H	-0.8578889809	-0.6360733188	 0.3325213348	 0.067273
H	 1.5291333205	-2.4313331033	-1.3011796009	 0.095451
H	 2.6782594899	-1.0976438771	-1.0186784605	 0.108834
H	 0.6451806738	-3.0747115721	 2.2618394818	 0.118162
H	 1.1127331621	-3.8611304446	 0.6760939496	 0.112522
H	 3.2599865371	-2.9051891407	 0.9215271542	 0.233702
H	 0.5521352372	-0.4969051667	 2.2486467263	 0.067178
H	 1.8049684988	 1.3659798667	 1.6564594662	 0.287361
88.2813	96.4971	209.2639	223.9812	247.3814	281.4092	301.8585	324.5211	389.4825	451.0885	534.4497	578.2213	724.3664	815.1052	832.5249	877.3729	892.9432	937.7344	949.9337	977.7975	1004.5749	1008.1272	1047.0015	1098.1105	1104.144	1135.0011	1152.4991	1164.9452	1190.9884	1213.7436	1260.6003	1298.5566	1328.8809	1344.3459	1362.8072	1382.0353	1390.4869	1411.2712	1452.5415	1486.7212	1505.3767	1512.5208	1521.9668	2957.1077	2996.9145	3019.7428	3036.2587	3038.336	3101.1542	3111.1035	3125.7994	3186.5497	3490.3891	3824.3784
CC1OCC2(CN2)C1O	C[C@H]1OC[C@]2(CN2)[C@H]1O	
InChI=1S/C6H11NO2/c1-4-5(8)6(2-7-6)3-9-4/h4-5,7-8H,2-3H2,1H3	InChI=1S/C6H11NO2/c1-4-5(8)6(2-7-6)3-9-4/h4-5,7-8H,2-3H2,1H3/t4-,5+,6-/m1/s1
