16
gdb 20861	3.15592	1.85889	1.27735	3.8095	66.78	-0.2147	0.0021	0.2167	955.8612	0.131071	-379.91654	-379.908569	-379.907625	-379.949074	28.984	
C	 0.0720023069	 1.5156906274	 0.1348730074	-0.379642
C	-0.0591703911	-0.0050712661	-0.0613854657	-0.299922
C	 0.6954520374	-0.5127654075	-1.2520671289	 0.367922
N	 0.0752170392	-0.7973583444	-2.3737203009	-0.207847
O	 1.0461674788	-1.2287529985	-3.2591436829	-0.172259
C	 2.2485323903	-1.181810529	-2.6449704539	 0.003856
C	 2.1060763706	-0.740539697	-1.3665375462	 0.049914
N	 3.046235168	-0.6265899397	-0.3327406808	-0.610035
H	 1.1149173294	 1.8237392291	 0.2700523946	 0.108208
H	-0.3192118778	 2.0517602883	-0.7343522228	 0.137577
H	-0.4852952325	 1.8400306388	 1.0186449553	 0.121194
H	 0.300421084	-0.526603299	 0.8339009028	 0.116708
H	-1.1129207108	-0.2684651301	-0.1880029425	 0.131329
H	 3.0950199041	-1.5009540585	-3.2320118392	 0.134895
H	 4.0015202717	-0.6747606902	-0.6622241756	 0.247638
H	 2.9285349819	 0.2165957764	 0.2146439393	 0.250463
71.0136	146.4464	183.2012	188.4075	262.8109	301.4385	425.8016	436.23	602.8655	624.8342	710.9114	728.797	757.2221	783.7051	800.4023	919.9609	952.4834	981.3418	1072.1	1090.3415	1120.4178	1142.4408	1244.254	1287.4547	1312.0888	1358.5143	1408.6835	1463.8885	1478.8625	1494.8917	1501.8399	1532.1906	1648.1329	1683.0331	3034.4695	3038.2599	3087.3313	3106.9003	3120.5516	3266.6498	3537.1232	3625.3785
CCC1=NOC=C1N	CCc1nocc1N	
InChI=1S/C5H8N2O/c1-2-5-4(6)3-8-7-5/h3H,2,6H2,1H3	InChI=1S/C5H8N2O/c1-2-5-4(6)3-8-7-5/h3H,2,6H2,1H3
