20
gdb 52413	8.35202	0.48017	0.47193	3.1061	78.54	-0.251	-0.0279	0.2231	2261.2568	0.168639	-440.248756	-440.238589	-440.237645	-440.286346	34.373	
O	-0.1435060375	 0.1412999502	 0.1679287618	-0.231172
C	-0.0186743312	 1.3280047279	 0.0129973624	 0.153255
C	 1.3017149739	 2.0494319712	-0.1306246649	-0.279469
C	 1.3664026298	 2.8793244371	-1.4128375559	-0.057041
O	 2.5182103638	 3.6881750429	-1.3524389928	-0.24324
C	 2.7148872993	 4.4697181542	-2.5153783673	-0.083898
C	 3.9956522042	 5.2432676094	-2.3698137169	 0.017323
C	 4.1130859043	 6.5823884349	-2.9988135372	-0.246527
N	 4.0432284512	 6.4514196597	-1.5352841785	-0.303211
H	-0.9125527771	 1.9949444931	-0.0302368177	 0.072656
H	 1.4015373829	 2.7415370835	 0.7170966857	 0.134272
H	 2.1188653449	 1.3262112876	-0.085430789	 0.132876
H	 1.3999575581	 2.2189554124	-2.2953285304	 0.10272
H	 0.4600520571	 3.5031310447	-1.5115962081	 0.089068
H	 2.7603081107	 3.8210607906	-3.4070507876	 0.096249
H	 1.8678305487	 5.1642961882	-2.6607287009	 0.078825
H	 4.8851496742	 4.6229261865	-2.2863452598	 0.102155
H	 5.0708106618	 6.9174811614	-3.3857734091	 0.123667
H	 3.2502153249	 6.9717633043	-3.534282786	 0.110634
H	 3.1072591458	 6.6786062602	-1.206732458	 0.230858
35.0499	45.5678	66.0967	92.9101	124.3798	151.1066	229.8863	294.8865	365.4915	428.3889	514.9469	534.4735	787.6307	807.964	835.5967	872.2173	932.1656	943.1383	991.6371	1016.4187	1029.4248	1062.4104	1113.7604	1129.7404	1139.2179	1153.3087	1158.7451	1211.1941	1231.9745	1250.5757	1276.1232	1277.5736	1307.978	1311.797	1366.9624	1418.2683	1431.3859	1461.5285	1466.9503	1502.2706	1514.062	1531.1236	1838.9424	2848.9409	2937.0176	2948.6207	2974.377	2980.9886	3028.7045	3106.7901	3119.625	3138.6863	3192.5391	3492.5559
O=CCCOCC1CN1	O=CCCOC[C@H]1CN1	
InChI=1S/C6H11NO2/c8-2-1-3-9-5-6-4-7-6/h2,6-7H,1,3-5H2	InChI=1S/C6H11NO2/c8-2-1-3-9-5-6-4-7-6/h2,6-7H,1,3-5H2/t6-/m1/s1
