18
gdb 110744	2.55432	1.277	1.07386	3.2984	72.37	-0.2445	0.0011	0.2456	1205.8605	0.146984	-439.07993	-439.071019	-439.070074	-439.113757	33.065	
C	 0.2125795874	 1.4417051131	 0.1959455092	-0.375683
C	-0.1914244108	-0.0092730396	-0.0914125693	-0.219737
C	 0.5641855021	-0.5848018976	-1.2717365412	-0.052696
C	 1.898371603	-1.2344289158	-1.1909566211	 0.046831
O	 2.0178784426	-1.9619098937	 0.0630039077	-0.26631
C	 1.0028715022	-2.8341226765	-0.3285488405	 0.402247
O	 0.6591980447	-3.8324245256	 0.2159178797	-0.329785
C	 0.7049378022	-2.0831136092	-1.6120760687	 0.068305
N	 0.308072963	-2.5884864444	-2.8710488034	-0.598708
H	 1.2766793178	 1.5100590046	 0.4435861644	 0.12683
H	 0.0288776451	 2.0869153691	-0.6702216913	 0.114991
H	-0.3557507293	 1.8452646573	 1.0389263497	 0.119154
H	-0.010717855	-0.6226420088	 0.7960212688	 0.127888
H	-1.2670022084	-0.0621340241	-0.2988466814	 0.103597
H	 0.4402015299	-0.0334771471	-2.2041979152	 0.110726
H	 2.8152826473	-0.9917520052	-1.7085074577	 0.1294
H	 0.705904069	-3.5052662341	-3.0469796334	 0.246694
H	-0.7010449627	-2.6722246623	-2.9364093664	 0.246258
67.6578	108.9809	165.0279	216.68	246.2766	272.9066	293.2682	314.4478	427.9074	522.2044	590.0784	674.9021	730.8245	742.6928	786.5503	794.4804	847.0091	909.333	917.4162	951.2138	954.4728	1015.5752	1056.1537	1077.3819	1107.0607	1151.6639	1224.8403	1252.4903	1284.8129	1297.9939	1344.1203	1383.4651	1412.1429	1481.1685	1482.706	1499.1544	1506.0561	1665.9168	1932.1055	3034.5201	3037.33	3083.1144	3105.9858	3112.2554	3122.674	3228.6229	3504.6402	3580.1535
CCC1C2OC(=O)C12N	CC[C@H]1[C@H]2OC(=O)[C@@]12N	
InChI=1S/C6H9NO2/c1-2-3-4-6(3,7)5(8)9-4/h3-4H,2,7H2,1H3	InChI=1S/C6H9NO2/c1-2-3-4-6(3,7)5(8)9-4/h3-4H,2,7H2,1H3/t3-,4+,6+/m0/s1
