17
gdb 57872	2.81918	1.04083	0.90306	2.979	66.65	-0.2679	-0.0691	0.1988	1311.8692	0.131625	-496.112807	-496.10287	-496.101925	-496.148253	35.058	
C	 0.1311439218	 1.4656106901	 0.3946986509	-0.413911
C	-0.202705352	 0.0325938669	-0.0446247984	 0.055825
O	-1.5718517356	-0.0757573274	-0.3159609015	-0.435369
C	 0.60385213	-0.4202879952	-1.2600186644	 0.33477
O	 0.0403073387	-0.8191299936	-2.2507339723	-0.311169
C	 2.1552163942	-0.4117517887	-1.1905549517	-0.046432
O	 2.6873817487	-1.5521871484	-1.7806418044	-0.406944
C	 2.6634666257	 0.8425143809	-1.8993049207	 0.137875
O	 3.3088979326	 0.7497409039	-2.9122239785	-0.246212
H	 1.1663058036	 1.5656064911	 0.7359990428	 0.116537
H	-0.0533168386	 2.1729139995	-0.4194038579	 0.133214
H	-0.5240304604	 1.7326497933	 1.2270036694	 0.14916
H	 0.0832327998	-0.6549030978	 0.7736799967	 0.101229
H	-1.6355624266	-0.4846257086	-1.1936502849	 0.296871
H	 2.4570165948	-0.3530481843	-0.1335819096	 0.115742
H	 3.0538448046	-1.2645867786	-2.6321161181	 0.303841
H	 2.4052539288	 1.8202852167	-1.4523432974	 0.114974
56.5113	70.399	103.1063	178.7321	235.4435	252.8559	286.6039	309.8905	336.3079	363.8676	410.3755	420.0732	467.4742	636.929	724.8132	775.3612	782.0786	874.9493	929.1674	991.5215	1014.3262	1070.7709	1094.9876	1166.664	1188.4421	1227.7586	1276.025	1334.0293	1354.8829	1399.0084	1401.2289	1426.1156	1433.5739	1488.6201	1499.7409	1794.1754	1824.6281	2931.8207	2967.2569	3002.231	3041.7742	3115.523	3129.7084	3692.3296	3694.6341
CC(O)C(=O)C(O)C=O	C[C@@H](O)C(=O)[C@@H](O)C=O	
InChI=1S/C5H8O4/c1-3(7)5(9)4(8)2-6/h2-4,7-8H,1H3	InChI=1S/C5H8O4/c1-3(7)5(9)4(8)2-6/h2-4,7-8H,1H3/t3-,4+/m1/s1
