20
gdb 120672	4.66718	0.71609	0.67616	1.1804	75.99	-0.2437	0.0576	0.3014	1671.2178	0.170321	-440.223611	-440.214222	-440.213278	-440.258727	33.854	
O	 0.2002043326	 1.3854138832	 0.2060864978	-0.41889
C	 0.0404325648	-0.0217847543	 0.280895093	-0.054032
C	-1.2534551769	-0.5093248204	-0.3788804947	-0.213621
C	-1.3866671754	-2.0132855845	-0.3332723497	-0.097663
N	-1.8573580211	-2.5929022787	 0.9493292754	-0.375534
C	-2.6882112961	-2.7042843456	-0.2387415401	 0.274459
C	-4.1198049906	-2.1941276924	-0.3671069262	-0.129694
O	-4.4906798172	-3.3874064321	-1.097415289	-0.274969
C	-3.1764778148	-3.9634835319	-0.9510529458	-0.147094
H	-0.4945237471	 1.7879929119	 0.7367751389	 0.28186
H	 0.9073060058	-0.4443043925	-0.2402608622	 0.106647
H	 0.0775104599	-0.3809099434	 1.3201847742	 0.103562
H	-2.1122665695	-0.0600102772	 0.1358441655	 0.0936
H	-1.2781590736	-0.1605619257	-1.4184200874	 0.109001
H	-0.6008420225	-2.5594031851	-0.8571299544	 0.086688
H	-1.3909399975	-3.4760183719	 1.144722914	 0.23145
H	-4.6597237176	-2.1022233819	 0.5834372624	 0.109904
H	-4.2686520949	-1.2855267757	-0.9635770702	 0.1062
H	-2.7126275937	-4.1935511619	-1.9189440968	 0.106804
H	-3.1903759644	-4.8730442998	-0.3332010348	 0.101322
65.0762	85.7978	99.6442	121.7246	207.6624	259.4412	301.0111	332.6671	389.848	453.3566	508.5329	597.0885	778.8684	834.4186	850.4979	891.8348	944.0415	959.3402	989.1325	1012.4826	1026.9304	1040.7203	1071.4209	1081.0154	1109.5078	1130.7293	1143.0189	1147.8509	1159.8016	1242.2164	1271.3572	1293.185	1304.557	1321.5292	1331.3216	1382.8904	1402.7795	1421.7555	1474.377	1504.1413	1506.5717	1512.9756	1529.6032	2992.3395	2996.3582	3015.8876	3025.16	3040.4387	3055.716	3060.9878	3076.2407	3099.5992	3490.1712	3816.7892
OCCC1NC11COC1	OCC[C@H]1NC21COC2	
InChI=1S/C6H11NO2/c8-2-1-5-6(7-5)3-9-4-6/h5,7-8H,1-4H2	InChI=1S/C6H11NO2/c8-2-1-5-6(7-5)3-9-4-6/h5,7-8H,1-4H2/t5-/m1/s1
