20
gdb 92686	2.47608	1.46147	1.09665	4.8786	83.94	-0.2046	-0.0236	0.181	1182.1933	0.171759	-403.200094	-403.191069	-403.190125	-403.233529	34.327	
C	-0.2469072725	 1.5032194819	-0.0162620877	-0.387093
C	-0.0059411574	-0.0146905589	 0.0024859514	-0.001192
C	 0.7968403841	-0.5012712222	-1.2108823264	-0.312635
C	 2.2851536946	-0.1379205429	-1.1487748157	 0.298144
O	 2.9266835723	 0.058610839	-2.1686579434	-0.350686
C	 2.8789470715	-0.1372245459	 0.1848386261	 0.163872
C	 4.3706347311	 0.0109098362	 0.3062220295	-0.4808
C	 2.0677062021	-0.3032705485	 1.2623879577	-0.065122
N	 0.7068634022	-0.4362896997	 1.2138831185	-0.289394
H	 0.6991298477	 2.0523278732	-0.0114785565	 0.138369
H	-0.8040184822	 1.7897155093	-0.9137406659	 0.124997
H	-0.8301343746	 1.8154799075	 0.8563852005	 0.107931
H	-0.9775777855	-0.5213865035	 0.0067975116	 0.088746
H	 0.7430095183	-1.5971509722	-1.2615967743	 0.124136
H	 0.3771998658	-0.1108558621	-2.140736195	 0.120663
H	 4.7082931175	 0.9631256288	-0.116946351	 0.132702
H	 4.6917583249	-0.0333522705	 1.3514024851	 0.102613
H	 4.8950377409	-0.7739309915	-0.2499728829	 0.130844
H	 2.4895800448	-0.3623397723	 2.2631394284	 0.110374
H	 0.2198238246	-0.2845799457	 2.0835680301	 0.243531
99.105	118.3268	141.904	239.7266	275.7307	278.859	326.9579	355.874	417.893	483.9743	499.9617	543.0597	562.1491	646.7466	713.7121	803.8629	840.9411	898.8018	942.7531	956.1133	995.9521	1024.925	1070.0389	1089.9686	1128.534	1137.2363	1207.0731	1243.7532	1257.3234	1317.7537	1366.621	1380.7661	1405.9436	1407.0124	1419.7542	1457.4911	1472.0536	1487.0508	1496.6772	1499.1885	1522.2041	1683.8761	1747.728	3023.6364	3029.6935	3035.6868	3040.9315	3082.9715	3103.646	3105.4481	3111.2538	3120.1671	3157.705	3617.1083
CC1CC(=O)C(C)=CN1	C[C@H]1CC(=O)C(=CN1)C	
InChI=1S/C7H11NO/c1-5-4-8-6(2)3-7(5)9/h4,6,8H,3H2,1-2H3	InChI=1S/C7H11NO/c1-5-4-8-6(2)3-7(5)9/h4,6,8H,3H2,1-2H3/t6-/m0/s1
