19
gdb 106154	2.40281	1.63335	1.25676	1.1197	75.71	-0.2211	0.0791	0.3002	1088.2919	0.157765	-422.945488	-422.936899	-422.935955	-422.978644	32.343	
C	-0.3322504956	 1.2412666609	-0.0042688088	-0.254752
O	 0.1783451822	-0.0848177766	 0.0920905272	-0.278236
C	 0.7698297834	-0.5274029024	-1.0481255724	 0.325261
C	 0.325586329	-0.8521574	-2.4405670841	-0.056409
O	 1.3560398187	-0.1226236587	-3.097628941	-0.283645
C	 2.1115497581	-0.1886456782	-1.8601447594	-0.017388
C	 2.4947936308	-1.6845148408	-1.7393969378	-0.278536
C	 1.0000945274	-1.9415530378	-1.5371710517	 0.213425
C	 0.3011193739	-3.2045928268	-1.1355359689	-0.508141
H	 0.4717732748	 1.9637981016	-0.1949776334	 0.12071
H	-1.0761367893	 1.3198834628	-0.8069705722	 0.121007
H	-0.8013864726	 1.4692846339	 0.9547285689	 0.130602
H	-0.6360789629	-0.9762936411	-2.9210658842	 0.106688
H	 2.8239343765	 0.6244954409	-1.7380742528	 0.086249
H	 2.9968875246	-2.1185663668	-2.6101943362	 0.097937
H	 3.0593783213	-1.8894753057	-0.82533806	 0.103714
H	 0.7024489005	-3.6018566778	-0.1966086713	 0.125065
H	-0.7700429884	-3.0318219196	-0.9854088005	 0.122876
H	 0.4111360877	-3.9794133079	-1.9026042117	 0.123575
96.1316	134.0125	160.2072	192.659	222.4617	268.6502	337.0147	412.0691	489.1824	557.3716	603.1687	635.258	724.9163	812.2731	870.3878	917.3713	924.6419	931.9882	967.1072	995.4505	1035.2988	1046.1984	1065.3728	1108.5566	1147.8053	1151.6862	1178.4311	1194.1848	1208.1776	1235.5632	1239.3012	1296.7612	1348.2481	1416.8333	1440.5933	1481.6393	1485.4254	1486.398	1494.4136	1502.9422	1519.8638	3007.8666	3024.715	3044.2269	3068.2523	3086.6595	3093.4328	3106.5979	3131.2516	3144.8144	3206.8497
COC12C3OC1CC23C	CO[C@@]12[C@H]3O[C@@H]1C[C@@]23C	
InChI=1S/C7H10O2/c1-6-3-4-7(6,8-2)5(6)9-4/h4-5H,3H2,1-2H3	InChI=1S/C7H10O2/c1-6-3-4-7(6,8-2)5(6)9-4/h4-5H,3H2,1-2H3/t4-,5+,6-,7-/m1/s1
