16
gdb 22467	3.38182	0.73454	0.61563	2.7484	77.82	-0.2501	-0.0413	0.2088	1697.9085	0.119875	-437.816552	-437.806575	-437.805631	-437.852866	34.452	
O	-0.08138758	 1.421095718	 0.1437669527	-0.38459
N	 0.0605170825	 0.047760765	 0.0269753945	-0.156914
C	-1.0664668865	-0.567847844	-0.0170214797	 0.169773
C	-1.0539426982	-2.0763573947	-0.1371175514	-0.296483
C	 0.3467128345	-2.6968038867	-0.226112236	-0.275171
C	 0.2827254102	-4.2052596008	-0.1575146081	 0.155036
O	 0.7849862187	-4.9560354991	-0.952542372	-0.236365
C	-2.3382262441	 0.072599849	 0.040834754	 0.326275
C	-3.4421701603	 0.550332641	 0.0858876418	-0.433769
H	 0.8333797781	 1.7249341599	 0.1546876283	 0.312271
H	-1.5983052692	-2.4889150855	 0.7235363371	 0.130002
H	-1.6476870533	-2.3537241527	-1.0173540873	 0.139354
H	 0.8654931115	-2.3993740695	-1.1397456919	 0.134705
H	 0.9464531421	-2.3469277982	 0.6244599442	 0.137254
H	-0.2814665935	-4.5991433748	 0.7223057732	 0.069247
H	-4.4071335426	 0.993005403	 0.1272423308	 0.209375
48.7659	63.6489	76.791	126.4327	162.0066	260.9207	283.9687	298.8462	332.7712	448.3868	457.1499	536.7111	622.2777	650.0037	653.5502	675.9206	765.3155	814.1311	859.5702	1011.0834	1039.2522	1087.008	1096.5059	1195.3268	1198.2793	1270.9568	1303.8791	1383.533	1405.0444	1430.9668	1457.9032	1477.3194	1686.2107	1838.737	2221.5633	2841.7441	3019.2378	3035.9433	3052.9342	3121.3194	3498.7094	3808.2448
ON=C(CCC=O)C#C	ON=C(CCC=O)C#C	
InChI=1S/C6H7NO2/c1-2-6(7-9)4-3-5-8/h1,5,9H,3-4H2	InChI=1S/C6H7NO2/c1-2-6(7-9)4-3-5-8/h1,5,9H,3-4H2
