21
gdb 121374	3.26999	0.88358	0.76225	1.2793	74.86	-0.2425	0.0667	0.3092	1516.9715	0.18208	-461.352482	-461.342572	-461.341628	-461.38802	35.455	
O	 0.061818267	 1.3985848062	-0.2707583319	-0.419519
C	 0.0688728737	 0.0033444477	-0.0099255731	-0.082245
C	-1.3734946365	-0.4857583934	-0.0762733619	-0.192783
C	-1.5016554007	-1.9987168887	 0.0966268682	-0.016937
C	-1.0705563012	-2.5632452906	 1.4593079002	-0.069732
O	-1.6861869982	-3.8454125936	 1.5667385223	-0.266291
C	-2.7765790495	-3.9290444147	 0.6545204249	-0.084218
C	-2.9361264523	-2.5464059452	 0.0079659991	 0.068423
O	-3.7742721453	-1.6869657505	 0.7703850942	-0.432731
H	 0.9638267709	 1.7233218375	-0.197217859	 0.284939
H	 0.681795269	-0.5369505515	-0.7515344493	 0.080748
H	 0.4981784307	-0.2111020646	 0.982216698	 0.088626
H	-1.964447722	 0.0268832389	 0.6873730225	 0.127844
H	-1.7879464549	-0.1875922378	-1.0465188512	 0.104211
H	-0.9182958521	-2.5075563195	-0.6827881153	 0.076651
H	 0.0116888821	-2.6978209911	 1.5526468696	 0.099899
H	-1.4117920455	-1.9045771485	 2.2718093141	 0.101227
H	-2.5657311563	-4.6976982132	-0.1037565502	 0.092696
H	-3.6877975317	-4.2256308598	 1.1920293593	 0.087944
H	-3.2921266805	-2.6182791674	-1.029561972	 0.065739
H	-4.6454347367	-2.0902822204	 0.8304113918	 0.28551
78.4491	85.3783	91.9188	124.958	166.4515	261.0997	264.7577	285.4705	330.1578	344.6166	431.5086	560.4386	669.354	769.4523	794.0692	866.5109	877.2024	939.9842	967.723	997.1197	1013.1012	1027.808	1073.4682	1094.3763	1127.5847	1136.0717	1155.7373	1192.9919	1216.9848	1226.522	1251.4854	1265.8476	1301.8488	1311.0625	1335.911	1340.3441	1371.2481	1377.5075	1397.5351	1431.7532	1466.0219	1494.7182	1508.9283	1523.6107	1527.7275	2953.3377	2981.9802	2985.4557	2993.7235	3005.7556	3019.0235	3028.2537	3045.3385	3071.0261	3105.6645	3826.6507	3830.9098
OCCC1COCC1O	OCC[C@H]1COC[C@H]1O	
InChI=1S/C6H12O3/c7-2-1-5-3-9-4-6(5)8/h5-8H,1-4H2	InChI=1S/C6H12O3/c7-2-1-5-3-9-4-6(5)8/h5-8H,1-4H2/t5-,6+/m0/s1
