15
gdb 27385	2.00786	1.86744	0.97081	8.3063	72.79	-0.2161	0.0006	0.2166	1135.9123	0.115514	-450.195473	-450.187538	-450.186594	-450.227642	30.854	
N	 0.1181838213	 1.3916641928	 0.1437929513	-0.592409
C	-0.0143757116	 0.0117343876	 0.0285346169	 0.404728
C	-1.1651246921	-0.6924285141	-0.0117628687	-0.306961
C	-1.1492795474	-2.1578020139	-0.01101107	 0.373454
O	-2.1661015639	-2.8252733821	-0.0168074771	-0.378038
N	 0.1214396136	-2.7795549291	-0.0338025354	-0.367628
C	 1.1808180065	-2.0540104876	 0.0070792073	 0.449038
N	 2.4345208019	-2.6314225734	 0.0967726205	-0.572956
N	 1.1941450399	-0.669385174	 0.0123112136	-0.405461
H	 0.7931986476	 1.79778358	-0.4933710735	 0.251962
H	-0.7672882211	 1.8749159775	 0.0801388277	 0.264077
H	-2.1248039439	-0.1933609475	-0.049192272	 0.096331
H	 2.3871626464	-3.631321033	-0.0426445075	 0.272235
H	 3.1677558469	-2.1908269857	-0.4413014544	 0.251447
H	 2.0045172358	-0.1969152876	 0.3848778115	 0.260181
131.5538	181.7659	214.3631	309.4627	323.2874	367.9131	374.848	477.8379	505.6134	535.7556	591.3121	618.0637	632.1424	650.0591	710.8253	761.9127	776.8847	848.3766	924.1493	1005.6603	1040.6812	1140.0506	1159.1395	1221.8275	1255.7312	1333.3854	1439.9906	1513.6961	1616.2696	1639.4793	1670.0005	1735.2524	1774.9414	3214.8398	3533.8857	3556.7426	3612.6866	3639.4448	3665.0023
NC1=CC(=O)N=C(N)N1	Nc1cc(=O)nc(N)[nH]1	
InChI=1S/C4H6N4O/c5-2-1-3(9)8-4(6)7-2/h1H,(H5,5,6,7,8,9)	InChI=1S/C4H6N4O/c5-2-1-3(9)8-4(6)7-2/h1H,(H5,5,6,7,8,9)
