19
gdb 125170	3.08703	1.49806	1.04033	2.3754	82.79	-0.2204	0.0248	0.2452	1160.136	0.162517	-382.112965	-382.104879	-382.103935	-382.146058	30.562	
C	-0.0110823608	 1.5275948768	 0.1279174064	-0.503418
C	 0.0422342557	 0.0471441542	-0.0655803209	 0.160439
C	 0.0185785146	-0.7586294568	-1.1836484773	 0.191705
C	-0.0713325917	-0.7388007334	-2.6812181216	-0.362272
C	 0.3433051092	-2.2047283538	-3.0443183503	-0.197897
C	 0.0467833537	-3.0930956876	-1.7946202921	-0.334329
C	 0.0844020648	-2.0758322245	-0.6923251339	 0.328904
N	 0.1484682469	-2.1369133763	 0.6283274299	-0.340024
N	 0.1161625825	-0.8263459872	 0.9867836051	-0.251694
H	 0.7149097631	 1.8664604111	 0.8754931479	 0.129474
H	 0.2161460699	 2.0373925699	-0.811131003	 0.140365
H	-1.0022253717	 1.8648096765	 0.4550872923	 0.138087
H	-1.0934871559	-0.5258230494	-3.0222495625	 0.105752
H	 0.5796364702	-0.0045298327	-3.1674495069	 0.102329
H	-0.1581974181	-2.5674727739	-3.9452657975	 0.095761
H	 1.4197322743	-2.2247408809	-3.2430968106	 0.108376
H	-0.9442065413	-3.5598670676	-1.8648783873	 0.111847
H	 0.7725376648	-3.9028028795	-1.6777373411	 0.113982
H	 0.19205876	-0.591679075	 1.9623565034	 0.262615
49.8622	137.6647	170.5127	236.7934	260.5962	321.7034	463.5997	498.5302	560.7974	605.6284	658.6937	694.4705	715.7198	785.4584	843.5325	897.0365	903.9392	986.494	997.2683	1049.9857	1058.7239	1063.5489	1148.5244	1159.7526	1191.6735	1207.7643	1228.9276	1281.5801	1308.876	1313.7539	1336.543	1415.5702	1444.84	1472.1064	1484.3735	1485.8409	1489.2507	1502.2392	1508.3013	1524.8895	1651.4967	3011.4558	3023.9846	3025.2285	3047.2578	3062.8617	3076.2291	3083.0218	3102.348	3121.6989	3665.6929
CC1=C2CCCC2=NN1	Cc1c2CCCc2n[nH]1	
InChI=1S/C7H10N2/c1-5-6-3-2-4-7(6)9-8-5/h2-4H2,1H3,(H,8,9)	InChI=1S/C7H10N2/c1-5-6-3-2-4-7(6)9-8-5/h2-4H2,1H3,(H,8,9)
