25
gdb 121918	2.617	0.7665	0.6968	1.8541	86.4	-0.2552	0.0681	0.3234	1813.9274	0.225592	-426.626767	-426.614861	-426.613917	-426.664805	42.361	
C	 0.0403653661	 0.6679819379	 1.2541839563	-0.385854
C	-0.1887645426	-0.0302086287	-0.0753975383	-0.023147
O	-1.3743232364	-0.7946354165	 0.013442556	-0.243843
C	-1.6904864692	-1.4823968715	-1.174906583	-0.088566
C	-3.0106660262	-2.2360239001	-0.9855328525	 0.098612
O	-3.3897693654	-2.8402274457	-2.2190483739	-0.440114
C	-3.008670457	-3.2279059848	 0.19708167	 0.042557
C	-4.4340646893	-3.7237171343	 0.4731873842	-0.395414
C	-2.0502868088	-4.40970444	-0.0158828029	-0.415814
H	 0.9519859164	 1.2717063004	 1.215729318	 0.115042
H	-0.8014657732	 1.3242662088	 1.492347345	 0.127635
H	 0.1423111146	-0.0643302381	 2.0601621863	 0.125929
H	-0.2747638993	 0.7073776501	-0.8911407547	 0.087345
H	 0.6658053809	-0.6829433428	-0.3231251723	 0.084457
H	-1.8045228336	-0.7839051944	-2.0191343008	 0.094722
H	-0.8805339721	-2.1844198375	-1.4454113128	 0.073117
H	-3.787747893	-1.4871632956	-0.7925547906	 0.091713
H	-2.7274894267	-3.5042763018	-2.438464663	 0.281108
H	-2.6560195464	-2.6576569435	 1.0641303722	 0.093541
H	-4.843053249	-4.2285105637	-0.4077704025	 0.123485
H	-4.4524464855	-4.4280776454	 1.3110382747	 0.103823
H	-5.1018237861	-2.89148112	 0.7197802354	 0.109926
H	-2.352022731	-5.0242769768	-0.8732591686	 0.106186
H	-1.0165826244	-4.0860533694	-0.1727171384	 0.115236
H	-2.0557340928	-5.0668729664	 0.859059036	 0.118318
36.4461	68.2252	74.8163	115.7903	159.6088	210.1958	234.4408	246.6909	259.1721	284.526	289.5976	315.5961	351.4408	394.8422	494.0742	548.4695	603.0188	749.6798	819.6678	895.7571	914.6051	925.6617	964.8179	1008.3202	1032.8627	1046.783	1088.4423	1110.951	1146.9271	1166.4172	1168.6106	1190.0469	1202.8481	1241.4795	1270.7483	1295.17	1330.9687	1361.0383	1370.845	1390.4732	1398.6677	1405.608	1413.6414	1425.4675	1448.3055	1483.5837	1487.5349	1495.0287	1499.3712	1505.3732	1512.3678	1518.2751	1537.4261	2938.945	2956.0137	2978.7437	2990.8029	3023.8949	3032.3949	3044.9603	3045.3087	3051.3831	3089.2816	3098.6175	3104.4324	3108.8382	3119.5059	3121.6251	3808.1786
CCOCC(O)C(C)C	CCOC[C@@H](O)C(C)C	
InChI=1S/C7H16O2/c1-4-9-5-7(8)6(2)3/h6-8H,4-5H2,1-3H3	InChI=1S/C7H16O2/c1-4-9-5-7(8)6(2)3/h6-8H,4-5H2,1-3H3/t7-/m1/s1
