12
gdb 20773	3.38219	2.43111	1.4268	2.135	58.36	-0.2635	-0.0757	0.1878	795.5809	0.083661	-414.66112	-414.654442	-414.653498	-414.692265	23.963	
C	-0.0338896729	 1.4912640608	 0.0270319567	-0.46189
C	-0.0103335539	-0.0028760198	-0.0133771691	 0.259973
N	-0.052356674	-0.5637307495	-1.1710973083	-0.128426
O	-0.028700817	-1.9701991502	-1.1754592964	-0.203886
C	 0.0342405311	-2.6266248107	-0.0125856747	 0.173922
N	 0.0787337331	-2.1471655167	 1.1708960209	-0.310255
C	 0.0598163394	-0.752727003	 1.2779900715	 0.349385
O	 0.0970405401	-0.1698735979	 2.3370354581	-0.31527
H	 0.8605655484	 1.8592123985	 0.5388282721	 0.161829
H	-0.0860703421	 1.9031957784	-0.9812541614	 0.148224
H	-0.8908917529	 1.8294845588	 0.6173823398	 0.161837
H	 0.0441830307	-3.6997661086	-0.1969053292	 0.164559
81.6455	163.9817	284.7376	290.2608	415.0057	488.6547	513.2937	519.9104	605.6532	725.0455	816.5188	867.6984	923.6557	988.8779	1039.8665	1052.9626	1053.2703	1218.6229	1338.8401	1407.7341	1422.997	1459.809	1464.6619	1629.0018	1665.3633	1798.0354	3052.6942	3113.6477	3157.586	3162.7081
CC1=NOC=NC1=O	Cc1nocnc1=O	
InChI=1S/C4H4N2O2/c1-3-4(7)5-2-8-6-3/h2H,1H3	InChI=1S/C4H4N2O2/c1-3-4(7)5-2-8-6-3/h2H,1H3
