16
gdb 35641	2.33777	1.6661	1.43101	2.8644	76.35	-0.2382	-0.0159	0.2223	986.676	0.126016	-396.898645	-396.890712	-396.889768	-396.931196	30.04	
C	 0.3835360961	-1.1111214742	 0.1749533948	-0.49213
C	 0.1725707585	 0.0695756532	 0.1025727475	 0.380801
C	-0.0805866676	 1.5090765263	 0.0152327039	-0.190864
C	-0.9474932122	 2.0021823466	 1.2129118773	-0.184219
N	-0.482477534	 1.6539975333	 2.537773264	-0.221949
C	 0.7286122217	 1.7917258344	 2.8734645353	 0.100271
N	 1.8276452028	 2.2311591246	 2.1358829962	-0.30264
C	 1.9480711296	 2.4919222464	 0.7759823041	 0.100616
N	 1.1667956573	 2.2444324019	-0.1906534923	-0.227504
H	 0.5634524392	-2.155800151	 0.2351101934	 0.196771
H	-0.683774069	 1.6842868475	-0.8855041642	 0.11693
H	-1.0365559682	 3.0924538696	 1.120562959	 0.119113
H	-1.9533310949	 1.5871833698	 1.0918489453	 0.117346
H	 1.0139097552	 1.5574851773	 3.9005814983	 0.115458
H	 2.6653908995	 2.3926070088	 2.6755566834	 0.253627
H	 2.8930418659	 2.9910317556	 0.5527318639	 0.118375
75.8407	123.219	188.3665	245.7047	342.7368	365.7324	474.3256	484.3341	558.4596	571.3103	619.6793	639.9061	647.7525	760.6098	814.6283	885.51	914.8222	951.3622	955.7344	985.9048	999.69	1046.1593	1087.3704	1224.5407	1245.5754	1309.9815	1351.6543	1370.7134	1421.4198	1458.2345	1485.6655	1522.9956	1736.4895	1771.1032	2235.6127	3010.7992	3024.5523	3070.3241	3112.2245	3115.3994	3505.5705	3602.4055
C#CC1CN=CNC=N1	C#C[C@H]1CN=CNC=N1	
InChI=1S/C6H7N3/c1-2-6-3-7-4-8-5-9-6/h1,4-6H,3H2,(H,7,8,9)	InChI=1S/C6H7N3/c1-2-6-3-7-4-8-5-9-6/h1,4-6H,3H2,(H,7,8,9)/t6-/m0/s1
