13
gdb 21866	3.40897	2.30322	1.37453	4.7604	67.34	-0.1952	-0.0243	0.1709	820.2465	0.097971	-394.776419	-394.769804	-394.76886	-394.806996	25.43	
O	-0.0793796616	 1.3467128091	 0.146799932	-0.408431
C	-0.0092017402	 0.0011764767	 0.0340821202	 0.326501
C	 1.1519988518	-0.6969524834	-0.0438031713	-0.12557
N	 1.1449688504	-2.0675541851	-0.1571469018	-0.227463
N	 0.0342548473	-2.8065252314	-0.1993755747	-0.183775
C	-1.0932811523	-2.1643375074	-0.1266958659	-0.059408
C	-1.2807612756	-0.717749966	-0.0035376514	 0.210378
N	-2.4053170263	-0.0924808521	 0.0676703108	-0.545129
H	 0.8097065706	 1.7186178812	 0.1620954203	 0.29678
H	 2.1311238879	-0.2318927803	-0.0221330431	 0.117015
H	 2.0026268199	-2.5886115057	-0.2155840884	 0.27756
H	-1.9820327787	-2.7893383853	-0.1632185266	 0.117749
H	-3.176097833	-0.7634543304	 0.0253587299	 0.203793
121.4103	298.6992	319.2966	356.8257	392.2372	438.6714	448.9941	538.5741	602.617	611.5381	759.7396	764.6047	818.9629	849.1275	919.671	924.5211	1032.5183	1109.43	1198.6902	1241.307	1315.1681	1351.0384	1387.4104	1460.6954	1523.3594	1604.6104	1663.7317	1680.5194	3165.1958	3192.2742	3435.3344	3670.4073	3807.2104
OC1=CNN=CC1=N	OC1=C(C=NNC1)[NH]	
InChI=1S/C4H5N3O/c5-3-1-6-7-2-4(3)8/h1-2H,(H2,5,7)(H,6,8)	InChI=1S/C4H6N3O/c5-3-1-6-7-2-4(3)8/h1,5,7-8H,2H2
