18
gdb 126698	2.03139	1.84452	1.04814	3.9685	75.15	-0.2167	0.0123	0.2291	1154.8538	0.147393	-435.277463	-435.268451	-435.267507	-435.31154	32.805	
C	-0.1178827109	 1.5722131068	-0.0859201088	-0.383444
C	 0.0668366872	 0.054787129	-0.0262630686	-0.153752
N	 0.7567774963	-0.4769016302	-1.1926506192	-0.139432
C	 0.1259208368	-0.7037524332	-2.4073288058	 0.48132
N	-1.1036143071	-0.5058112055	-2.6449779582	-0.62182
O	 1.0970459055	-1.1703574808	-3.2446726142	-0.249516
N	 2.3443060305	-1.2284921673	-2.5488488393	-0.195599
C	 2.0779059942	-0.8073792082	-1.3557521886	 0.397557
C	 3.1098064947	-0.7122654042	-0.2878547675	-0.50511
H	 0.8456852932	 2.0900644321	-0.1202316906	 0.118482
H	-0.6942074361	 1.8419637678	-0.9736433281	 0.160457
H	-0.6613433426	 1.9170708952	 0.7988387571	 0.123511
H	 0.6311782988	-0.2406706967	 0.8624145824	 0.115991
H	-0.9081253605	-0.4391194281	 0.0126106915	 0.150828
H	-1.3342706314	-0.7585116946	-3.6023458332	 0.23188
H	 4.0693310568	-1.0296990874	-0.6974345253	 0.168533
H	 3.2029732268	 0.3134437433	 0.082894209	 0.149428
H	 2.8584299978	-1.355834858	 0.5614950172	 0.150688
60.2096	102.7686	157.0658	184.3552	210.5155	282.467	309.7582	329.2731	404.9557	523.8314	605.567	627.6089	696.9737	734.562	753.1397	773.9913	794.7721	897.2484	965.7994	1017.9465	1030.2023	1055.9043	1068.3327	1105.3672	1197.2604	1229.1962	1316.853	1376.8838	1391.2349	1408.7959	1413.0978	1470.1585	1471.29	1477.8071	1488.7352	1506.8571	1512.5458	1662.484	1768.738	3044.0909	3045.3728	3063.1939	3103.5345	3104.7118	3118.2909	3139.7216	3154.7094	3539.7991
CCN1C(=N)ON=C1C	CCN1[C@H]([NH])ON=C1C	
InChI=1S/C5H9N3O/c1-3-8-4(2)7-9-5(8)6/h6H,3H2,1-2H3	InChI=1S/C5H10N3O/c1-3-8-4(2)7-9-5(8)6/h5-6H,3H2,1-2H3/t5-/m0/s1
