22
gdb 7823	2.87314	1.78971	1.19234	1.0967	78.85	-0.2404	0.0888	0.3293	1088.2591	0.201087	-350.236262	-350.227824	-350.226879	-350.268541	32.942	
C	-0.0047235023	 1.5149569967	 0.0897183516	-0.401182
C	 0.0362703447	-0.0031782121	-0.0067903372	 0.154991
C	 0.7077263499	-0.5104681357	-1.2890879524	-0.187561
C	 0.8258167479	-2.0398712475	-1.2675511381	-0.225628
C	 1.4909217142	-2.5018045815	 0.0354207218	-0.18756
C	 0.7793193774	-1.8924193917	 1.249813984	 0.154991
C	 1.4623809931	-2.215207304	 2.5707851564	-0.401181
O	 0.7301376778	-0.4733364697	 1.1442360173	-0.275205
H	 1.0101702269	 1.9247158206	 0.0738109198	 0.120624
H	-0.5640643629	 1.9399085276	-0.7493580777	 0.11008
H	-0.4835532768	 1.8259260749	 1.0221346895	 0.119844
H	-0.9975147035	-0.3960568939	 0.0202081697	 0.055518
H	 0.1359989938	-0.1754496971	-2.1623138141	 0.08918
H	 1.70604909	-0.059042887	-1.3600444374	 0.096073
H	-0.1775651361	-2.482129162	-1.3391569921	 0.093114
H	 1.387102347	-2.3976642727	-2.1373652859	 0.092584
H	 1.4810039704	-3.5952497082	 0.1123194435	 0.08918
H	 2.5414439785	-2.1831028863	 0.0527324405	 0.096073
H	-0.2565550169	-2.2799851981	 1.2732890953	 0.055518
H	 2.4877072428	-1.831974037	 2.5725086026	 0.120623
H	 0.9240180947	-1.7528460952	 3.4025108694	 0.119844
H	 1.4955641094	-3.2967946301	 2.7337667134	 0.11008
142.354	158.2053	214.5003	226.4424	244.8825	280.7151	355.7846	428.2151	444.2195	484.2136	493.6652	557.4186	790.38	837.8286	866.1357	867.0009	907.509	958.8862	972.8592	973.5472	1033.9609	1060.056	1100.8155	1120.0814	1138.3967	1186.9851	1198.1679	1211.0977	1235.6824	1287.6337	1333.1032	1341.7608	1350.3636	1375.6493	1391.2315	1398.3467	1403.4818	1405.7666	1422.0741	1470.6085	1476.8459	1483.4357	1485.2457	1495.4582	1499.0256	1502.3336	2920.7088	2928.7321	3013.3886	3019.9565	3021.4358	3040.3568	3040.8077	3064.1839	3066.8176	3073.171	3113.0391	3113.415	3119.1551	3119.523
CC1CCCC(C)O1	C[C@H]1CCC[C@@H](C)O1	
InChI=1S/C7H14O/c1-6-4-3-5-7(2)8-6/h6-7H,3-5H2,1-2H3	InChI=1S/C7H14O/c1-6-4-3-5-7(2)8-6/h6-7H,3-5H2,1-2H3/t6-,7+
