13
gdb 132233	2.03332	1.82623	0.96211	4.4208	64.86	-0.2397	-0.0279	0.2118	1090.5451	0.090572	-494.098915	-494.091587	-494.090643	-494.130941	27.747	
F	 0.1030584994	 0.0593215294	 0.1451881654	-0.049297
C	-0.0589265558	 1.3633412578	 0.0059617826	 0.429599
C	-1.2305092928	 1.9899386149	 0.1862678884	-0.459448
C	-1.2772708031	 3.4356326666	 0.0017977684	 0.469762
O	-2.2612438515	 4.133499276	 0.130405839	-0.37529
N	-0.0444883926	 4.0080327272	-0.3538609584	-0.395927
C	 1.1723477839	 3.3835076821	-0.5446082262	 0.477034
N	 2.2073806226	 4.0504911016	-0.8683314949	-0.558193
N	 1.0996697945	 1.9982122837	-0.3414767378	-0.444445
H	-2.1269101293	 1.4572227395	 0.4607526075	 0.140958
H	-0.0437984809	 5.0094075928	-0.4889101659	 0.276703
H	 3.0294238584	 3.4614132533	-0.9746671756	 0.213806
H	 1.9346459174	 1.4466841151	-0.4558161124	 0.274738
119.713	159.8728	197.7211	345.3169	378.3318	381.9726	498.4732	512.9963	593.6738	621.7816	643.8063	674.1167	708.9797	736.8248	761.3041	812.401	953.8893	999.9947	1049.9153	1123.9032	1213.087	1250.5039	1324.6132	1395.1513	1430.3842	1517.5044	1717.0182	1762.615	1800.7882	3267.1653	3522.6015	3621.6611	3658.3047
FC1=CC(=O)NC(=N)N1	FC1=CC(=O)N[C]([NH])N1	
InChI=1S/C4H4FN3O/c5-2-1-3(9)8-4(6)7-2/h1H,(H3,6,7,8,9)	InChI=1S/C4H4FN3O/c5-2-1-3(9)8-4(6)7-2/h1H,(H3,6,7,8,9)
