23
gdb 116036	2.40787	1.36012	0.99494	1.0039	87.5	-0.2411	0.0248	0.2659	1302.1236	0.20602	-388.307688	-388.298268	-388.297324	-388.341577	36.126	
C	 0.0598979727	 1.617632147	 0.039796588	-0.387513
C	-0.017566735	 0.0885054977	 0.0294228501	-0.19745
C	 0.6868707604	-0.5474238074	 1.2244669136	 0.127942
O	-0.0314469674	-0.1604100255	 2.3956789063	-0.263583
C	 0.6722283277	-0.4387226361	 3.5892900083	-0.120837
C	 1.2935028505	-1.8071618242	 3.5998688019	-0.070607
C	 1.3503084391	-2.5597230687	 2.5041229408	-0.074523
C	 0.8125918372	-2.0847523417	 1.1740657234	-0.035196
C	-0.5036314522	-2.8067488188	 0.8307270336	-0.391593
H	 1.0985106365	 1.9623747765	-0.0201194909	 0.108102
H	-0.4827913444	 2.0467301756	-0.8078871952	 0.107628
H	-0.3730186709	 2.0150942797	 0.9612621624	 0.132941
H	-1.0662489628	-0.2281054963	 0.0299643968	 0.108374
H	 0.4333866637	-0.3073385338	-0.8892613301	 0.091912
H	 1.7105571253	-0.1364147486	 1.2863939018	 0.059589
H	 1.4503461929	 0.3277573243	 3.7678429283	 0.094263
H	-0.0556079183	-0.3408097946	 4.4042972308	 0.113861
H	 1.7003123086	-2.1514395285	 4.5473125025	 0.088577
H	 1.7789169847	-3.5585677059	 2.5422432739	 0.085842
H	 1.5509804474	-2.3282888846	 0.3964469093	 0.072074
H	-1.2970532269	-2.4852539038	 1.5115029569	 0.129713
H	-0.8225042875	-2.6054749163	-0.1962174309	 0.112534
H	-0.3877992114	-3.8901921761	 0.9367080884	 0.107951
97.77	113.6951	156.6047	206.7596	235.7684	261.9732	277.3684	299.1295	371.4438	468.7466	478.9593	513.778	622.7348	725.1066	757.4425	808.186	831.8796	895.4658	918.2875	959.0974	967.7476	996.7666	1028.803	1037.3645	1044.0987	1103.8583	1105.8516	1121.7124	1144.0474	1178.7686	1209.8604	1261.4692	1298.8468	1308.4473	1336.6372	1342.2928	1373.2701	1391.0457	1404.5403	1408.7374	1410.1191	1418.8543	1475.674	1487.5489	1497.1802	1498.4254	1503.9702	1510.9496	1724.6449	2923.8561	2937.996	3000.5528	3029.8959	3035.5253	3037.3045	3043.3062	3072.3416	3100.5213	3102.9576	3118.628	3124.2428	3143.9457	3169.4354
CCC1OCC=CC1C	CC[C@H]1OCC=C[C@H]1C	
InChI=1S/C8H14O/c1-3-8-7(2)5-4-6-9-8/h4-5,7-8H,3,6H2,1-2H3	InChI=1S/C8H14O/c1-3-8-7(2)5-4-6-9-8/h4-5,7-8H,3,6H2,1-2H3/t7-,8-/m1/s1
