18
gdb 75513	2.57636	1.56042	1.05038	5.3754	83.3	-0.2143	-0.0422	0.1721	1144.9432	0.149107	-401.982828	-401.974353	-401.973409	-402.015825	32.	
C	 0.0088927673	 1.5815719457	 0.0156056205	-0.462437
C	 0.0178570032	 0.0765491298	-0.0378299331	 0.216653
C	-1.1131263008	-0.6358043111	 0.0172525898	-0.146953
C	-1.1864565669	-2.1421003914	 0.0497243221	-0.239975
N	-0.5724784286	-2.7576640504	-1.1199838691	-0.273121
C	 0.7693057067	-2.6926805158	-1.309312994	 0.004149
C	 1.6431134692	-1.8003638226	-0.7763151274	-0.191293
C	 1.3993038587	-0.5261470463	-0.1033636163	 0.266438
O	 2.3431222465	 0.1407757081	 0.3094861236	-0.3619
H	 0.6141565023	 1.9273151199	 0.8577426992	 0.151248
H	 0.4669014954	 2.0081762397	-0.8838446332	 0.13164
H	-1.0074945773	 1.9713450606	 0.1113721372	 0.106822
H	-2.0612315902	-0.1065423878	 0.0757155157	 0.091897
H	-0.6937575499	-2.5259665071	 0.9585110479	 0.123032
H	-2.2299244779	-2.4627755399	 0.0814426048	 0.113799
H	-1.0502134243	-3.547673164	-1.5189049561	 0.252947
H	 1.1583030285	-3.4707173543	-1.9621979946	 0.116404
H	 2.6961800582	-1.9788775731	-0.9633828071	 0.100651
77.8995	150.7294	177.4507	240.1573	289.1199	310.5888	338.8218	397.0267	429.8916	519.474	529.7396	665.4264	670.6953	749.2392	800.4397	840.2671	873.0637	911.726	975.9761	982.8535	1045.6651	1068.1202	1082.6064	1100.9374	1184.3273	1267.5429	1292.3224	1325.8658	1377.6308	1384.0648	1405.9105	1441.1128	1467.2968	1480.468	1486.2625	1534.3871	1670.9746	1695.7618	1718.1741	2964.8808	3039.343	3100.1809	3100.6006	3128.4715	3151.9264	3156.1377	3195.5908	3653.2117
CC1=CCNC=CC1=O	CC1=CCNC=CC1=O	
InChI=1S/C7H9NO/c1-6-2-4-8-5-3-7(6)9/h2-3,5,8H,4H2,1H3	InChI=1S/C7H9NO/c1-6-2-4-8-5-3-7(6)9/h2-3,5,8H,4H2,1H3
