20
gdb 61451	3.9542	0.80538	0.74832	18.4383	88.22	-0.1484	-0.0325	0.1159	1534.6953	0.168641	-440.214131	-440.204251	-440.203307	-440.249794	36.059	
C	-0.2580884882	 1.5916529277	 0.0350234298	-0.450606
C	-0.0655374788	 0.0729598536	 0.0037161962	 0.059763
C	 0.7524235753	-0.3708731495	-1.2237619418	-0.359744
C	-0.1016519925	-0.16344089	-2.5789881011	 0.364201
O	-1.3085792414	 0.0886519958	-2.3857163639	-0.468982
O	 0.5794697203	-0.3004305217	-3.5962957028	-0.451505
C	 0.6028829587	-0.5180996891	 1.2003575064	-0.011668
C	 1.5855660211	 0.1834525951	 2.0465908212	-0.208318
N	 0.2272991632	 0.048140848	 2.6469091842	-0.311497
H	-0.3633578794	 0.8717275706	 2.6428949405	 0.316005
H	 0.0968846911	-0.5776934055	 3.4322987279	 0.311047
H	 0.691787248	 2.1393431364	 0.0353920382	 0.110656
H	-0.8021018457	 1.8368216673	-0.8795887099	 0.203493
H	-0.8693912456	 1.9429623451	 0.8808533304	 0.073746
H	-1.0515179439	-0.3857626242	-0.132998808	 0.124555
H	 1.6983394714	 0.1768801521	-1.2992927722	 0.090663
H	 0.9969447461	-1.4392326485	-1.1671282475	 0.089167
H	 0.6262685696	-1.6020909222	 1.2580512492	 0.156566
H	 2.3493039122	-0.3766799975	 2.5747355178	 0.175249
H	 1.8492303585	 1.2069155465	 1.8072825754	 0.18721
47.8558	61.1235	102.8725	143.2099	248.1467	262.8937	274.1846	297.6366	345.0664	414.6591	511.6653	527.6055	591.2594	654.5572	757.7424	797.5858	827.7693	871.5008	886.4839	891.644	912.8363	937.5458	1009.6766	1059.2703	1075.3849	1129.0638	1151.5357	1175.5764	1184.133	1222.0953	1237.6761	1253.4878	1276.3859	1320.2052	1371.8695	1374.9061	1405.2334	1451.828	1478.4541	1489.6994	1523.6381	1603.7003	1798.3066	2981.2904	3022.8463	3048.9643	3064.6753	3080.1134	3133.6297	3154.4217	3181.9197	3249.1635	3512.1298	3637.8638
CC(CC([O-])=O)C1C[NH2+]1	C[C@@H](CC(=O)[O])[C@H]1C[NH2]1	
InChI=1S/C6H11NO2/c1-4(2-6(8)9)5-3-7-5/h4-5,7H,2-3H2,1H3,(H,8,9)	InChI=1S/C6H11NO2/c1-4(2-6(8)9)5-3-7-5/h4-5H,2-3,7H2,1H3/t4-,5+/m0/s1
