17
gdb 39247	2.74235	2.30132	1.60674	3.9342	72.1	-0.2387	-0.0122	0.2265	851.2686	0.138951	-417.96296	-417.956576	-417.955632	-417.993536	26.337	
C	-0.0091523763	 1.4707980656	-0.3446346605	-0.05885
O	 1.0732140793	 2.1026042472	 0.3502745618	-0.280168
C	 2.0240382903	 1.1530382488	 0.8542846312	 0.085193
C	 2.1499595788	 1.3332742319	 2.4043768263	-0.176659
N	 0.8639998482	 0.7968605827	 2.9485471874	-0.22662
C	 0.4649271686	 0.0033267636	 2.047449161	 0.270956
N	-0.8318289525	-0.1934534643	 1.4304234951	-0.367021
C	-0.0977021567	 0.002580671	 0.1061594154	-0.051893
C	 1.2806311014	-0.1720573221	 0.7891374564	-0.143727
H	-0.9198666347	 2.0338473174	-0.1247405549	 0.128454
H	 0.1738420308	 1.4972245631	-1.4296554039	 0.096253
H	 2.9749066713	 1.2326427208	 0.3148099035	 0.071525
H	 3.032226855	 0.8153280754	 2.8031729294	 0.10413
H	 2.2192434792	 2.3893056928	 2.6777241438	 0.129354
H	-1.2190354441	-1.1305898894	 1.5071941734	 0.237547
H	-0.4097526048	-0.683119075	-0.6825350073	 0.088238
H	 1.8325395764	-1.0979130595	 0.6388173519	 0.093288
123.6059	252.2389	333.8427	366.2118	460.6315	575.253	629.2056	660.5863	709.1436	778.2453	820.6763	821.9032	856.219	884.0945	920.2504	937.0267	955.1162	965.0345	991.4932	1031.9237	1046.6186	1088.9405	1101.6596	1145.427	1197.7307	1228.2944	1231.4139	1252.0577	1260.5537	1275.3758	1317.2193	1329.0498	1358.0809	1388.8709	1469.3327	1500.9203	1719.6533	2988.3863	3025.0226	3044.6127	3097.5321	3104.268	3106.2505	3136.5119	3505.8339
C1OC2CN=C3NC1C23	C1O[C@H]2C[N][C]3N[C@@H]1[C@@H]23	
InChI=1S/C6H8N2O/c1-4-5-3(2-9-4)8-6(5)7-1/h3-5H,1-2H2,(H,7,8)	InChI=1S/C6H8N2O/c1-4-5-3(2-9-4)8-6(5)7-1/h3-5H,1-2H2,(H,7,8)/t3-,4-,5-/m0/s1
