16
gdb 94249	2.03216	1.50886	1.30006	4.121	69.75	-0.2705	-0.0624	0.2081	1076.558	0.12179	-437.877668	-437.868568	-437.867624	-437.91224	31.726	
C	-0.327702569	 1.4218898622	 0.1392411715	-0.432026
C	 0.1101803769	-0.0224123148	-0.0339161494	-0.08394
C	 1.4418020663	-0.3208982392	-0.7560430452	-0.082499
O	 1.9013547606	-1.1576581783	 0.332866287	-0.291166
C	 0.8007706577	-0.7940549629	 1.1629733242	 0.191384
C	 1.2152706328	 0.1229487931	 2.3272437211	 0.11588
O	 2.2380414444	 0.7466103007	 2.3194509667	-0.2304
C	 0.0576559259	-1.9465146366	 1.680023569	 0.238737
N	-0.5516071418	-2.8304254127	 2.108304092	-0.320908
H	 0.4750060821	 2.0448644724	 0.5433564497	 0.147269
H	-0.6163446562	 1.8358017191	-0.8323792616	 0.135466
H	-1.1963934993	 1.5018789463	 0.8004610644	 0.135455
H	-0.708636387	-0.6279276563	-0.4266286024	 0.119743
H	 1.37644695	-0.8773345281	-1.6954672696	 0.123714
H	 2.0928071408	 0.5509940209	-0.8840647473	 0.12541
H	 0.4742051259	 0.188086604	 3.15241372	 0.107882
54.0701	77.1269	141.0591	162.2535	214.5164	250.6974	277.1513	328.1413	428.6321	512.1145	531.3964	553.9934	666.1245	787.074	879.6137	900.6896	925.9195	984.4422	1022.3922	1080.5669	1102.9805	1131.187	1149.9245	1166.2505	1198.1212	1276.3262	1337.6885	1377.0892	1410.0439	1415.0312	1495.374	1501.1748	1521.9236	1844.0589	2350.95	2907.6409	3038.3114	3040.9187	3086.4848	3100.758	3105.4979	3123.9767
CC1COC1(C=O)C#N	C[C@H]1CO[C@]1(C=O)C#N	
InChI=1S/C6H7NO2/c1-5-2-9-6(5,3-7)4-8/h4-5H,2H2,1H3	InChI=1S/C6H7NO2/c1-5-2-9-6(5,3-7)4-8/h4-5H,2H2,1H3/t5-,6-/m0/s1
