13
gdb 129060	5.3118	1.11836	0.92385	3.3108	78.01	-0.2536	-0.0837	0.1699	1157.8622	0.090589	-448.916513	-448.909426	-448.908482	-448.948443	26.012	
N	-0.0612907327	 1.3073597477	-0.3451223386	-0.509674
C	 0.0143275924	 0.0635464103	-0.0374462975	 0.206665
C	 1.2204236913	-0.74401421	 0.140101667	-0.02315
N	 1.2080449214	-1.9956197657	 0.4513877485	-0.182633
N	 0.00089676	-2.5818662907	 0.6202523243	 0.0314
C	 0.0389176679	-3.9583053267	 0.9615826485	 0.203793
O	-0.9284825811	-4.6325307118	 1.1476878105	-0.250137
N	-1.2043958678	-1.976351994	 0.4929151422	-0.16853
C	-1.1966361194	-0.7251960638	 0.1818281322	 0.049017
H	 0.8723082207	 1.7096753071	-0.4630371629	 0.222655
H	 2.2023850572	-0.2944263432	 0.0095265727	 0.138898
H	 1.0895532843	-4.2820661419	 1.0218605876	 0.125583
H	-2.1634823743	-0.2411029672	 0.0800875954	 0.156113
75.8246	172.2014	227.6823	284.0121	402.8366	447.6684	450.8398	464.9619	624.717	669.0492	753.1086	807.0634	848.8096	865.2266	944.1975	977.9073	983.444	1028.7648	1129.2922	1172.6393	1295.6434	1329.2107	1364.8514	1403.5449	1421.0952	1617.952	1635.1786	1694.3856	1856.279	3032.6942	3159.6482	3187.7451	3435.352
N=C1C=NN(C=O)N=C1	[NH]c1cnn(C=O)nc1	
InChI=1S/C4H4N4O/c5-4-1-6-8(3-9)7-2-4/h1-3,5H	InChI=1S/C4H9N4O/c5-4-1-6-8(3-9)7-2-4/h3-7H,1-2H2
