16
gdb 74080	2.81094	1.55563	1.14062	5.7516	74.16	-0.2198	-0.0266	0.1932	1051.8312	0.124516	-437.910353	-437.902251	-437.901306	-437.942493	31.675	
N	 0.0653893778	 1.3233167169	 0.0682165094	-0.587478
C	-0.017555567	-0.0246933612	 0.0252866784	 0.421688
C	-1.142497449	-0.7986060654	-0.0570357375	-0.357983
C	-0.7684687308	-2.1966067989	 0.0172778773	 0.337909
O	-1.4456225447	-3.2038224948	 0.1364900973	-0.3932
C	 0.7550254563	-2.2713168466	 0.0113368326	 0.350777
O	 1.2948291923	-3.3221901269	 0.7254736187	-0.476055
C	 1.4596552298	-1.6989059503	-1.1925768292	-0.340027
C	 1.2325913519	-0.8506983322	 0.0642193536	-0.238985
H	 0.9583121782	 1.7759730436	-0.0207540891	 0.268213
H	-0.7517682956	 1.8911578076	-0.0804353424	 0.268558
H	-2.1607967382	-0.4451360158	-0.1407889764	 0.095971
H	 0.5605565349	-3.9525617949	 0.8046728024	 0.294823
H	 2.4734404573	-2.0582888245	-1.3413073414	 0.126538
H	 0.908425912	-1.453434261	-2.0945041949	 0.120871
H	 2.0817485448	-0.5311818357	 0.6568887211	 0.108382
148.6562	160.2979	218.4405	266.0324	306.0593	318.674	400.7287	433.982	498.064	506.1634	565.8548	614.0123	683.1163	726.427	755.3888	812.5952	829.6762	876.9361	929.6707	960.8562	1001.1617	1059.8983	1062.0542	1075.4449	1145.0224	1207.2447	1241.867	1279.4801	1381.7325	1420.9913	1436.4238	1490.6006	1614.5885	1667.0231	1781.2306	3120.4384	3185.096	3217.6837	3225.9294	3609.1184	3692.6743	3728.8595
NC1=CC(=O)C2(O)CC12	NC1=CC(=O)[C@@]2(O)C[C@@H]12	
InChI=1S/C6H7NO2/c7-4-1-5(8)6(9)2-3(4)6/h1,3,9H,2,7H2	InChI=1S/C6H7NO2/c7-4-1-5(8)6(9)2-3(4)6/h1,3,9H,2,7H2/t3-,6+/m0/s1
