23
gdb 113373	2.34543	1.00555	0.85376	1.1062	82.42	-0.2448	0.0785	0.3233	1492.5751	0.20316	-425.399372	-425.388451	-425.387507	-425.435474	39.574	
C	-0.7154353834	 1.4247661933	 0.8042551376	-0.376325
C	-0.0840202261	 0.2076506364	 0.1180521338	-0.256176
C	 0.9041308468	-0.5145192221	 1.0183719998	 0.425854
C	 0.4177240122	-1.5024570635	 2.0379938877	-0.358565
C	 1.249487058	-1.98022398	 0.8545969531	-0.100323
C	 0.6582345754	-2.8982576457	-0.189018804	-0.084838
O	 0.7150257039	-4.2619447595	 0.2086634545	-0.417465
O	 1.9501273018	 0.2928243928	 1.5013078864	-0.283951
C	 2.9215411631	 0.640346037	 0.5335064226	-0.250074
H	 0.0535723398	 2.130059206	 1.1296982611	 0.130192
H	-1.3978688608	 1.9465432941	 0.126801561	 0.107902
H	-1.2823805803	 1.1231988263	 1.6911245974	 0.117637
H	-0.8665030991	-0.4928170814	-0.1898987967	 0.100336
H	 0.4178288218	 0.5215207076	-0.8060394702	 0.09765
H	 0.8872713412	-1.4775092675	 3.01424026	 0.123559
H	-0.6437640128	-1.734694542	 2.0436457042	 0.106664
H	 2.2818908133	-2.2159015881	 1.0996024453	 0.0988
H	-0.3753125077	-2.6015995778	-0.4254418023	 0.083437
H	 1.2306577142	-2.8436438705	-1.1216797864	 0.110764
H	 0.3077809129	-4.3189052162	 1.0798028403	 0.281455
H	 3.3401344776	-0.2491719087	 0.0414977127	 0.10729
H	 2.5221646233	 1.3100525503	-0.2409275	 0.109294
H	 3.7219682048	 1.1623767291	 1.0633267222	 0.126883
76.4476	82.5628	127.4725	138.5415	166.0207	192.0492	199.4493	262.0541	289.8935	332.6307	354.2822	407.6734	440.0049	481.1114	620.6838	692.4754	785.8989	849.4995	874.037	893.3801	963.8745	989.9946	1003.3752	1035.0029	1057.2212	1066.5165	1098.3584	1110.4508	1130.0225	1163.9083	1181.9154	1210.5916	1232.6206	1245.7071	1293.1473	1318.2189	1357.4768	1373.2076	1408.6803	1409.621	1433.4683	1468.0349	1478.9006	1486.6764	1493.7234	1499.5999	1506.7015	1508.7361	1513.0197	2982.9071	2991.6013	3029.4434	3040.977	3043.9355	3062.8266	3077.0076	3107.2065	3115.6052	3122.5474	3123.8479	3147.4795	3220.4452	3806.1533
CCC1(CC1CO)OC	CC[C@]1(C[C@H]1CO)OC	
InChI=1S/C7H14O2/c1-3-7(9-2)4-6(7)5-8/h6,8H,3-5H2,1-2H3	InChI=1S/C7H14O2/c1-3-7(9-2)4-6(7)5-8/h6,8H,3-5H2,1-2H3/t6-,7+/m0/s1
