23
gdb 119906	2.70719	0.86701	0.8105	2.1106	82.92	-0.2295	0.0654	0.2949	1590.9173	0.202366	-425.412886	-425.401704	-425.40076	-425.449357	40.871	
C	 0.0368731124	 1.5213721458	-0.1442755562	-0.383329
C	 0.202199166	 0.0022110784	-0.0588303367	-0.155367
C	 0.5479698629	-0.4826562696	 1.3565413172	-0.199775
C	 0.6777724817	-1.9901218664	 1.4321378202	-0.070118
C	 1.9874194932	-2.6901974242	 1.1375634777	-0.000164
O	 3.077734881	-1.8629695243	 0.8390523923	-0.412373
C	 1.3996894991	-2.7187497087	 2.5386875707	 0.307822
C	 2.0817289091	-1.9955927125	 3.6757193845	-0.457888
O	 0.7457754408	-3.9087711011	 2.9137805179	-0.459237
H	 0.9568089239	 2.0366811507	 0.1541911869	 0.113731
H	-0.2070362919	 1.8408781398	-1.1623983966	 0.108833
H	-0.7653228381	 1.8715705348	 0.5153645579	 0.11049
H	-0.7212570714	-0.4878938891	-0.3947643017	 0.090243
H	 0.9917950633	-0.3252859438	-0.7455844255	 0.110734
H	 1.4808060355	-0.0063556409	 1.6726699497	 0.10664
H	-0.2297802245	-0.1496705094	 2.0572137522	 0.091725
H	-0.1949695315	-2.5331137907	 1.0771509254	 0.094976
H	 1.9380073583	-3.6210916651	 0.5719287703	 0.083874
H	 3.8761940088	-2.2817215704	 1.1768359095	 0.287668
H	 2.6355258165	-1.1237940598	 3.3226685802	 0.13215
H	 1.3522299466	-1.6717198442	 4.4245167443	 0.127805
H	 2.7964022211	-2.6628818595	 4.1760741348	 0.097545
H	 1.4140040773	-4.5236138997	 3.2384562451	 0.274012
49.0353	78.0917	104.9663	181.5821	187.4918	229.0824	242.4395	260.9922	278.5363	302.1626	315.6377	363.6188	411.8937	486.4459	510.2803	607.1469	709.6886	749.5083	841.9554	868.8786	899.9621	905.1708	965.4784	993.7291	1044.2205	1059.6377	1079.0881	1106.5688	1130.366	1153.8827	1177.1569	1230.5291	1269.6647	1279.2191	1290.83	1299.0242	1330.7185	1355.3661	1364.5412	1394.5002	1410.4389	1412.4489	1460.4868	1479.7171	1491.3104	1493.2296	1498.8683	1506.8286	1509.1288	3015.0104	3018.5468	3020.1519	3027.1458	3056.2953	3083.2402	3085.3943	3094.9962	3096.2767	3099.1864	3135.2029	3140.8057	3780.0031	3804.709
CCCC1C(O)C1(C)O	CCC[C@H]1[C@@H](O)[C@]1(C)O	
InChI=1S/C7H14O2/c1-3-4-5-6(8)7(5,2)9/h5-6,8-9H,3-4H2,1-2H3	InChI=1S/C7H14O2/c1-3-4-5-6(8)7(5,2)9/h5-6,8-9H,3-4H2,1-2H3/t5-,6+,7+/m0/s1
