16
gdb 19445	3.27664	2.08579	1.58778	1.595	64.89	-0.2344	0.0698	0.3041	840.0658	0.12936	-383.674422	-383.667316	-383.666372	-383.705755	27.12	
C	 0.1284212096	 1.5410216141	-0.0759271877	-0.342122
C	 1.3004061275	 0.5867998507	 0.111430687	-0.327651
C	-0.0892272647	 0.0664136524	-0.0436690571	 0.393605
O	-0.8006702478	-0.5986595786	 1.006132261	-0.318631
C	-1.2843559281	-1.6199417131	 0.0977476249	-0.154431
C	-0.623851884	-0.8958675658	-1.0729520615	 0.28981
C	-1.0129056712	-0.7300435164	-2.4695349995	-0.260915
O	 0.1398566639	-1.5053615635	-2.0880762241	-0.259336
H	-0.2018868477	 2.0998964899	 0.7930609589	 0.129406
H	 0.0210126337	 2.0640037141	-1.0210024503	 0.116464
H	 1.9882846421	 0.4331269293	-0.7134171199	 0.129162
H	 1.741181924	 0.5254259949	 1.1003453873	 0.12827
H	-0.8573159652	-2.6058118926	 0.3149579973	 0.120253
H	-2.3781587426	-1.6771648048	 0.0908025405	 0.113177
H	-1.8472921303	-1.302610913	-2.8725480778	 0.121597
H	-0.7955767393	 0.2031626124	-2.987176419	 0.121342
93.2725	177.2058	197.7781	297.571	361.7804	405.2085	535.1669	566.5957	590.1954	756.5497	843.2269	870.5372	875.3751	894.0674	925.0878	963.0092	988.0374	1011.3371	1048.9678	1065.3047	1092.1657	1121.5732	1137.8993	1148.7883	1168.1427	1188.2845	1235.4766	1320.2488	1365.7306	1446.8574	1464.5791	1492.0093	1516.4548	1553.5305	3028.6772	3080.1274	3082.7244	3127.5355	3133.4776	3170.1016	3212.9621	3229.048
C1CC11OCC11CO1	C1CC21OC[C@]12CO1	
InChI=1S/C6H8O2/c1-2-5(1)6(3-7-5)4-8-6/h1-4H2	InChI=1S/C6H8O2/c1-2-5(1)6(3-7-5)4-8-6/h1-4H2/t6-/m1/s1
