20
gdb 95983	2.45337	1.39132	1.11695	4.1105	74.5	-0.2406	0.0241	0.2647	1165.4557	0.171701	-440.32705	-440.317556	-440.316612	-440.362249	34.461	
C	-0.5436832918	 1.4935166982	 0.0612705674	-0.423918
C	-0.0997216214	 0.0323583777	 0.0097578388	 0.025489
C	 0.7449597316	-0.3357142863	-1.2187081053	-0.090212
O	 1.3476565974	-1.5721202514	-0.8842467569	-0.248669
C	 1.7928359385	-1.4465295202	 0.4597058907	-0.090459
C	 0.8090735167	-0.4813256764	 1.1829717694	-0.150123
C	 1.5576199094	 0.6573461321	 1.868873067	 0.404774
N	 1.0987731253	 0.9941073475	 3.1084953647	-0.524706
O	 2.4800247925	 1.2502311502	 1.337424429	-0.370644
H	 0.316528062	 2.168679989	 0.0615682092	 0.145957
H	-1.163325071	 1.7322412658	-0.8093642175	 0.113676
H	-1.1390874005	 1.7033461974	 0.9555956472	 0.110239
H	-0.9879411764	-0.609117511	 0.0000520031	 0.082158
H	 0.1535157037	-0.480794555	-2.1270450656	 0.103694
H	 1.503645938	 0.4412901532	-1.4052703901	 0.106006
H	 1.8073879362	-2.4469348593	 0.9003623244	 0.100982
H	 2.8033614792	-1.0204719962	 0.4915239437	 0.120144
H	 0.197393384	-1.01806159	 1.9135798102	 0.065303
H	 0.3693653011	 0.4829726787	 3.5721169852	 0.259045
H	 1.5558023157	 1.7451928561	 3.5996702655	 0.261263
39.0126	56.1469	146.9416	176.1798	228.1198	246.2016	285.5165	320.8474	376.2108	436.63	561.5051	588.7619	638.8256	686.1705	738.9959	804.9926	877.4903	943.0431	946.5787	972.6841	998.474	1039.0504	1077.17	1104.6271	1123.276	1139.4526	1163.7779	1227.8589	1258.2201	1277.6725	1293.9547	1326.7963	1339.6959	1379.1314	1403.1778	1412.6725	1418.3194	1496.5246	1501.986	1508.4482	1517.2845	1614.7326	1782.8544	2981.8948	3028.6007	3035.4311	3037.517	3059.0047	3090.2608	3094.6832	3099.1399	3119.8656	3602.9132	3742.6879
CC1COCC1C(N)=O	C[C@H]1COC[C@H]1C(=O)N	
InChI=1S/C6H11NO2/c1-4-2-9-3-5(4)6(7)8/h4-5H,2-3H2,1H3,(H2,7,8)	InChI=1S/C6H11NO2/c1-4-2-9-3-5(4)6(7)8/h4-5H,2-3H2,1H3,(H2,7,8)/t4-,5+/m0/s1
