24
gdb 5812	2.36123	1.7013	1.68563	1.3452	80.52	-0.2599	0.064	0.3239	1026.6028	0.219327	-351.419859	-351.40909	-351.408145	-351.454361	41.417	
C	-0.0405154522	 1.5395560654	 0.0193711855	-0.418216
C	 0.0023861829	-0.0041655128	 0.0233380908	 0.28216
C	 0.689649757	-0.47393904	 1.3200090357	-0.427414
C	-1.4536223905	-0.5189346433	 0.022544779	-0.418242
C	 0.7569555086	-0.5241881797	-1.2557688086	 0.365162
C	 2.1994006309	 0.0031882203	-1.3587557839	-0.432239
C	 0.7813226101	-2.0599847709	-1.3564675536	-0.432214
O	-0.0004246502	-0.0048745987	-2.3617786225	-0.471853
H	 0.9515909413	 1.9797453894	 0.1566698553	 0.103729
H	-0.4561997105	 1.9165484	-0.9170808709	 0.130896
H	-0.6677261963	 1.8954669948	 0.8434196497	 0.101385
H	 0.1374777686	-0.0937474499	 2.1860923884	 0.110844
H	 0.7131786224	-1.5644837658	 1.4051249611	 0.109778
H	 1.7157957081	-0.1034985326	 1.4029885024	 0.109793
H	-1.9560342588	-0.2688202305	-0.9138783572	 0.130874
H	-1.507632894	-1.6026148944	 0.1626053338	 0.103743
H	-2.0101133654	-0.059507426	 0.8461739426	 0.10139
H	 2.8266770319	-0.3441509944	-0.5332185553	 0.116607
H	 2.6566244183	-0.3622003861	-2.2861540506	 0.097987
H	 2.2249461603	 1.0938883697	-1.3843385409	 0.124282
H	-0.2278631765	-2.4745846399	-1.3806622196	 0.124298
H	 1.2855544749	-2.3573565899	-2.2838013088	 0.097985
H	 1.3309409393	-2.5199601959	-0.5306497324	 0.116591
H	 0.42736208	-0.2995851485	-3.1720578503	 0.272672
37.5723	175.3787	235.9999	239.7057	244.9453	256.0473	262.6466	283.0497	295.3807	345.6123	356.9005	378.5065	385.9854	404.4894	474.8142	495.4973	506.9623	653.1044	811.8859	885.9428	913.4646	932.4268	935.9512	955.1559	956.1802	1003.4345	1036.1239	1046.6999	1129.1423	1181.1489	1191.8786	1243.266	1258.5459	1261.4837	1359.3204	1389.4907	1393.4884	1396.3525	1410.4751	1430.7151	1471.2305	1480.1385	1488.1621	1491.6174	1497.8473	1498.0488	1507.1772	1510.7228	1517.521	1527.4973	3029.5863	3033.2539	3035.8935	3036.178	3044.9785	3090.231	3094.0437	3094.2068	3098.6022	3104.3991	3111.1196	3130.9445	3133.9358	3137.3096	3138.7888	3814.8781
CC(C)(C)C(C)(C)O	CC(C)(C)C(C)(C)O	
InChI=1S/C7H16O/c1-6(2,3)7(4,5)8/h8H,1-5H3	InChI=1S/C7H16O/c1-6(2,3)7(4,5)8/h8H,1-5H3
