14
gdb 10679	2.66876	2.32345	1.37262	1.3408	59.47	-0.2658	-0.0455	0.2203	860.0802	0.107345	-415.881743	-415.874201	-415.873256	-415.913592	27.691	
N	 0.3285906548	 0.8859840325	-0.8058637166	-0.548463
C	 0.032703328	 0.0051495499	 0.1710373462	 0.358235
O	 0.7347014261	-0.2126112354	 1.146958795	-0.38904
C	-1.2685126826	-0.7600738747	 0.0004110763	 0.103507
C	-1.152910944	-2.2476319409	 0.2655630459	-0.243139
N	-1.791650168	-1.3910667648	 1.2343879632	-0.33267
C	-2.3346310977	-0.3417365532	-0.9478544369	 0.128917
O	-2.2079182295	 0.4564714512	-1.8501734823	-0.289493
H	 1.1586054872	 1.4469071836	-0.7039924341	 0.263999
H	-0.3483579898	 1.0735172778	-1.5341485936	 0.285332
H	-1.8077008031	-2.9302121722	-0.2696424698	 0.13321
H	-0.1421779108	-2.5982391759	 0.4528197814	 0.152703
H	-1.1099046312	-1.1589549718	 1.9599472592	 0.262494
H	-3.3014837295	-0.8512809061	-0.7603035539	 0.114408
86.9421	145.3715	260.8958	282.5726	302.9404	345.5673	413.7511	441.8943	495.3322	629.5871	683.6588	716.3635	780.031	822.2478	937.7558	959.6502	1004.4315	1050.7477	1117.6561	1132.3523	1141.5787	1252.5324	1325.5365	1350.2959	1397.4638	1430.5879	1491.0831	1611.5958	1774.9063	1800.6383	2937.2198	3111.698	3209.3735	3450.4297	3526.4922	3697.8587
NC(=O)C1(CN1)C=O	NC(=O)[C@]1(CN1)C=O	
InChI=1S/C4H6N2O2/c5-3(8)4(2-7)1-6-4/h2,6H,1H2,(H2,5,8)	InChI=1S/C4H6N2O2/c5-3(8)4(2-7)1-6-4/h2,6H,1H2,(H2,5,8)/t4-/m0/s1
