19
gdb 75524	2.14476	1.66305	0.97932	3.0654	79.96	-0.2089	0.0206	0.2295	1209.2485	0.162107	-419.268729	-419.260185	-419.25924	-419.301941	32.569	
C	-0.0031558101	 1.5064136476	 0.2271124372	-0.481219
C	-0.0562947002	 0.0289800856	-0.0743650539	 0.350791
C	-1.1438580803	-0.6986663326	 0.2129166392	-0.138728
C	-1.3987854133	-2.1543599077	-0.048426544	-0.247504
C	-0.4981573772	-2.7582839682	-1.1250508783	-0.183897
N	 0.9098611185	-2.758087021	-0.7469323338	-0.326221
C	 1.7352468693	-1.6642907532	-0.7943964277	 0.411848
O	 2.9424052974	-1.7547983105	-0.9407133415	-0.40296
N	 1.1408813878	-0.4097319203	-0.6680819362	-0.407139
H	 0.8035016295	 1.7354642354	 0.9347541276	 0.132629
H	 0.1911712024	 2.0855107695	-0.6844661372	 0.13091
H	-0.9440179664	 1.8536870799	 0.6550379564	 0.134168
H	-1.9560561294	-0.1587638036	 0.6888812207	 0.079303
H	-1.2883820969	-2.7432695481	 0.8730237826	 0.114018
H	-2.4436631296	-2.280469815	-0.3629649058	 0.101318
H	-0.7804542569	-3.8007969429	-1.2930430814	 0.111619
H	-0.649104444	-2.2248131162	-2.0734844964	 0.118362
H	 1.4310251037	-3.6017494469	-0.928815051	 0.251653
H	 1.8586806059	 0.2951073784	-0.7470470763	 0.251049
87.1072	114.7912	176.5645	219.8106	292.3957	311.222	368.7549	403.4545	512.0586	534.2201	562.5668	615.0227	635.9709	672.6686	775.8678	796.807	841.9085	891.9802	948.9195	976.8991	1052.087	1066.9928	1080.059	1104.7682	1153.5017	1189.2205	1237.2269	1290.6488	1354.7068	1378.5239	1397.2542	1414.92	1440.5854	1453.6388	1478.0223	1478.555	1484.614	1503.4077	1509.4765	1751.6113	1797.3811	3002.8646	3011.8683	3020.543	3036.4385	3068.9186	3093.2082	3140.7827	3173.0997	3620.3757	3632.4404
CC1=CCCNC(=O)N1	CC1=CCCNC(=O)N1	
InChI=1S/C6H10N2O/c1-5-3-2-4-7-6(9)8-5/h3H,2,4H2,1H3,(H2,7,8,9)	InChI=1S/C6H10N2O/c1-5-3-2-4-7-6(9)8-5/h3H,2,4H2,1H3,(H2,7,8,9)
