16
gdb 34148	2.79224	1.7243	1.36577	4.4066	73.52	-0.2588	0.0189	0.2776	953.5792	0.126759	-400.719781	-400.713135	-400.712191	-400.750855	26.471	
N	 0.0104069768	-1.1374740331	 0.0213556657	-0.349832
C	-0.0138713254	 0.0192709766	 0.0326312936	 0.14945
C	-0.0409709668	 1.4561356534	 0.0387443949	 0.197685
C	-0.7007266249	 2.4036166819	 1.069495878	-0.293093
C	-0.0591751999	 3.3552469863	 0.0354534916	-0.114029
C	 1.2007077669	 2.4247324001	-0.0393392032	-0.092215
C	 1.6594192805	 2.4208879215	-1.4897561644	-0.116078
O	 0.3893875381	 2.4153635129	-2.1730414182	-0.269285
C	-0.5272949741	 2.4148038643	-1.1138765785	 0.115605
H	-1.7920039443	 2.3817356095	 1.118014993	 0.114345
H	-0.2593283121	 2.3982424761	 2.0676525075	 0.117479
H	-0.0602607411	 4.4437295254	 0.0295497543	 0.092328
H	 1.9362344251	 2.4185460778	 0.7638625459	 0.095699
H	 2.2300852132	 3.3152011459	-1.7649006066	 0.115735
H	 2.2330146818	 1.52916427	-1.7658193013	 0.127205
H	-1.5555892037	 2.3887287113	-1.4699013622	 0.108999
129.4391	159.1745	310.6005	384.0456	402.7301	527.6056	538.2623	583.9684	699.9576	744.4782	770.9939	836.2147	907.7376	929.8152	953.2729	965.4774	993.6833	1004.0654	1035.2161	1045.9829	1086.9302	1103.6702	1137.1742	1144.369	1191.9343	1203.4712	1219.8656	1239.3466	1274.7873	1281.1532	1324.3155	1387.4205	1515.9801	1521.4435	2345.3741	3034.5185	3068.06	3078.1999	3133.1696	3133.6187	3139.8786	3153.3032
N#CC12CC3C1COC23	N#C[C@@]12C[C@H]3[C@@H]1CO[C@@H]23	
InChI=1S/C7H7NO/c8-3-7-1-4-5(7)2-9-6(4)7/h4-6H,1-2H2	InChI=1S/C7H7NO/c8-3-7-1-4-5(7)2-9-6(4)7/h4-6H,1-2H2/t4-,5-,6+,7-/m0/s1
