18
gdb 17450	3.41574	2.04315	1.62669	2.0159	70.71	-0.2402	0.0845	0.3247	860.5724	0.15308	-347.754309	-347.746809	-347.745865	-347.785555	29.306	
C	-0.073421933	 1.5378907126	-0.0786546506	-0.418056
C	 0.0881881615	 0.0342959408	 0.0239717928	-0.008145
C	 1.3740537442	-0.7235659673	-0.2020010581	-0.103504
C	 2.5541235813	-0.0058602891	 0.4130839055	-0.059784
O	 3.0706053591	-0.8011144561	 1.4934450915	-0.296121
C	 1.9095887751	 0.0129274152	 1.7461619962	 0.416495
C	 1.9805804001	 0.9794802462	 2.8853778833	-0.498229
C	 0.696084949	-0.7129671996	 1.1887414996	-0.153735
H	 0.7927197325	 2.074662217	 0.3141430911	 0.123616
H	-0.2054164531	 1.8390521894	-1.1237784412	 0.117647
H	-0.9570889764	 1.8722059013	 0.4762076315	 0.11719
H	-0.7652548113	-0.5054969903	-0.3862746218	 0.089318
H	 1.4421430932	-1.5627323092	-0.8837998407	 0.095696
H	 3.2376985664	 0.7060516888	-0.0355143537	 0.098517
H	 2.9508037944	 1.4826264189	 2.9010820228	 0.132287
H	 1.1900860735	 1.7325899473	 2.8113493844	 0.125789
H	 1.8556858602	 0.4576581719	 3.8410384507	 0.129951
H	 0.1905066331	-1.5417959476	 1.6706549066	 0.091068
161.2335	184.8759	205.9631	216.503	310.0016	346.8106	449.9767	502.3611	627.3777	645.07	734.3052	760.3332	819.6693	851.3078	897.6759	915.0025	953.9631	978.5363	1008.4496	1026.677	1041.7444	1075.5032	1098.7164	1114.9994	1142.7491	1196.3462	1202.021	1266.3097	1301.3491	1320.2434	1401.7825	1409.6788	1436.8235	1450.0124	1483.8612	1491.1549	1498.7439	1502.0418	3033.2774	3035.5494	3089.5693	3096.5343	3108.1325	3122.8488	3128.7376	3176.4693	3181.8086	3191.0603
CC1C2C3OC3(C)C12	C[C@H]1[C@H]2[C@@H]3O[C@]3(C)[C@@H]12	
InChI=1S/C7H10O/c1-3-4-5(3)7(2)6(4)8-7/h3-6H,1-2H3	InChI=1S/C7H10O/c1-3-4-5(3)7(2)6(4)8-7/h3-6H,1-2H3/t3-,4+,5-,6-,7+/m0/s1
