23
gdb 96117	2.18079	1.71699	1.16686	1.6995	84.74	-0.2535	0.0823	0.3358	1170.9592	0.20658	-388.30831	-388.299317	-388.298373	-388.34142	35.55	
C	-0.1119018297	 1.508327284	 0.0336587334	-0.411404
C	 0.0009947413	-0.0239842891	 0.0085501951	-0.027792
C	 0.6879429228	-0.4973988247	-1.2849515522	-0.201038
C	 0.916448302	-2.0106838109	-1.2897150716	-0.215914
C	 1.882565902	-2.4368996371	-0.1739013681	-0.225919
C	 1.6273677571	-1.711429981	 1.1340879418	-0.010497
O	 2.1403254946	-0.3725540403	 1.2398673489	-0.299665
C	 0.7137744201	-0.5553754782	 1.2522131939	 0.406218
C	 0.0562469822	-0.2756467994	 2.5871763877	-0.473375
H	 0.8804966376	 1.9625415027	 0.1222742484	 0.130251
H	-0.5684350411	 1.8726233912	-0.8923202215	 0.109724
H	-0.7247822672	 1.8666467946	 0.8654667085	 0.111813
H	-1.014952706	-0.4468208508	 0.0244686383	 0.068585
H	 0.0688043395	-0.2029679686	-2.1398409599	 0.088485
H	 1.6475991167	 0.0226813505	-1.3916094259	 0.108313
H	-0.0483249231	-2.5165927144	-1.1488899737	 0.09253
H	 1.3003356975	-2.3404467597	-2.261066777	 0.092957
H	 1.8131140096	-3.5171385414	-0.003899751	 0.095762
H	 2.9191401224	-2.2342304819	-0.4708526391	 0.113913
H	 1.7967205642	-2.3013986853	 2.0368364158	 0.079327
H	-0.001134793	 0.7990648348	 2.7838032403	 0.127891
H	-0.9631207608	-0.6768268304	 2.6102434237	 0.116275
H	 0.6276863014	-0.7338972446	 3.3982356242	 0.123559
86.655	172.4801	209.3459	232.2042	235.7987	304.6415	313.0511	358.2328	396.8831	461.5928	494.5532	540.6826	636.5145	665.9174	774.954	835.4993	857.2979	874.0614	908.9293	947.9448	981.2869	984.8747	1020.1754	1061.7737	1078.1131	1084.6856	1105.2878	1146.9921	1149.7341	1205.8835	1228.6095	1246.7811	1294.4363	1324.9736	1334.0902	1369.0739	1376.0587	1381.9825	1384.6829	1406.8246	1413.3845	1459.5783	1475.0429	1484.4777	1486.0559	1495.6788	1499.9688	1504.6323	1508.8269	2991.6167	3014.9928	3028.1748	3030.7366	3036.0914	3038.485	3062.7734	3070.417	3075.7688	3088.1651	3101.2601	3104.7536	3112.2668	3121.4774
CC1CCCC2OC12C	C[C@H]1CCC[C@H]2O[C@@]12C	
InChI=1S/C8H14O/c1-6-4-3-5-7-8(6,2)9-7/h6-7H,3-5H2,1-2H3	InChI=1S/C8H14O/c1-6-4-3-5-7-8(6,2)9-7/h6-7H,3-5H2,1-2H3/t6-,7+,8-/m0/s1
