18
gdb 126862	4.0699	1.01718	0.8719	3.2494	88.5	-0.1989	-0.0305	0.1684	1348.4741	0.149543	-398.132987	-398.124593	-398.123649	-398.166689	31.314	
C	-0.0180732741	 1.2599219923	 0.2684637058	-0.36373
C	-0.2050100971	-0.2228060353	-0.0826539256	-0.13884
N	 0.5841688798	-0.5992683949	-1.2419426824	-0.321705
C	 1.7684368329	-1.0865497804	-1.0978343911	 0.276249
C	 2.5538837093	-1.4552264203	-2.2655285597	-0.181873
C	 3.7856210906	-1.9844551541	-2.1180790298	 0.032681
N	 4.3161160057	-2.1779669392	-0.8704811658	-0.231188
N	 3.6836001835	-1.8455433065	 0.2685905517	-0.185396
C	 2.4953408983	-1.3368134376	 0.1615930498	-0.056826
H	 1.0083166852	 1.4619359089	 0.5930139147	 0.110771
H	-0.2196646679	 1.8832263617	-0.6075202538	 0.126028
H	-0.6971228806	 1.5596042679	 1.0736130989	 0.106462
H	-0.0097264611	-0.8397506588	 0.8091507551	 0.080883
H	-1.2582045927	-0.3897744598	-0.3398220917	 0.097167
H	 2.1258259139	-1.299132726	-3.2471302993	 0.116055
H	 4.4199426691	-2.2838524599	-2.944128904	 0.132412
H	 5.2378009109	-2.557141203	-0.7384350709	 0.276419
H	 2.0413434645	-1.0804621549	 1.1115253481	 0.124432
46.2063	94.3813	161.5925	216.6236	291.4523	357.0159	408.5241	458.8603	502.2253	545.4804	558.8583	634.5246	741.6625	775.3899	814.3088	833.9949	907.5084	931.7422	963.2916	993.0252	1027.6793	1057.7108	1101.2944	1116.0686	1172.3145	1246.7289	1285.5194	1297.948	1359.5735	1390.6955	1398.6527	1428.9537	1488.1628	1494.4855	1499.3536	1524.2952	1621.1011	1653.8368	1692.2626	2968.2722	3031.1703	3034.8918	3101.2726	3113.8584	3200.8304	3201.9623	3226.2863	3670.0095
CCN=C1C=CNN=C1	CC[N]c1cc[nH]nc1	
InChI=1S/C6H9N3/c1-2-7-6-3-4-8-9-5-6/h3-5H,2H2,1H3,(H,7,8)	InChI=1S/C6H14N3/c1-2-7-6-3-4-8-9-5-6/h6,8-9H,2-5H2,1H3
