22
gdb 111856	2.24175	1.50012	1.16668	0.7916	82.63	-0.2187	0.0867	0.3053	1197.3559	0.194048	-404.330334	-404.321085	-404.320141	-404.364137	34.992	
C	-0.013393829	 1.5668345254	-0.0671342213	-0.372667
C	-0.3586371342	 0.0800789535	-0.1334817721	-0.135438
N	 0.4649769442	-0.5765328244	-1.1507077494	-0.129222
C	 1.7752913634	-1.1454082647	-0.8595249224	-0.102858
C	 2.1228264847	-1.5108389566	 0.5703790912	-0.110476
O	 1.0237181279	-2.2682770796	 1.0710880083	-0.25393
C	 0.3267612668	-2.8610225027	-0.019673423	-0.138542
C	 0.6271158189	-2.0218370936	-1.2556127468	 0.291223
C	 0.4279221805	-2.6477533285	-2.6143489316	-0.473402
H	 1.023267919	 1.7160935861	 0.2532840307	 0.11418
H	-0.1316442775	 2.0360255649	-1.048019047	 0.122413
H	-0.6626182503	 2.0810392919	 0.6484639631	 0.110244
H	-0.2684571018	-0.3729865076	 0.8621586503	 0.116106
H	-1.4022089329	-0.038389295	-0.4494853942	 0.098141
H	 2.5846423768	-0.8799449905	-1.5357045312	 0.088304
H	 3.0562083253	-2.0972249694	 0.5819766185	 0.096531
H	 2.2561897118	-0.6514045286	 1.2376529856	 0.11102
H	 0.6632038079	-3.8961768356	-0.1934133063	 0.093606
H	-0.7363848117	-2.892538165	 0.2470346368	 0.107507
H	-0.6264391376	-2.8973460748	-2.7821915963	 0.120022
H	 0.7333182001	-1.9502329135	-3.3972567185	 0.1315
H	 1.0091029978	-3.5709012917	-2.7160518544	 0.115738
72.4162	156.8411	183.2515	193.9225	222.426	235.8412	271.3024	289.4208	350.0194	482.4109	516.8239	586.0975	706.1398	736.8259	799.1032	821.3155	883.7832	932.6784	937.1248	969.5859	989.939	999.9767	1031.0057	1102.5743	1106.9381	1113.0779	1133.7217	1172.2702	1181.5328	1224.8896	1244.526	1254.7994	1302.2202	1309.9428	1356.1544	1369.5251	1383.0357	1407.6213	1412.6574	1456.2349	1487.2533	1488.7426	1496.2069	1499.451	1509.8021	1520.3052	1521.8272	2969.185	2975.7402	3015.6044	3029.5125	3036.2745	3049.8052	3052.4834	3054.2954	3087.3494	3104.1309	3117.2285	3127.1023	3135.1153
CCN1C2COCC12C	CCN1[C@H]2COC[C@@]12C	
InChI=1S/C7H13NO/c1-3-8-6-4-9-5-7(6,8)2/h6H,3-5H2,1-2H3	InChI=1S/C7H13NO/c1-3-8-6-4-9-5-7(6,8)2/h6H,3-5H2,1-2H3/t6-,7+,8?/m0/s1
