24
gdb 117338	4.02295	0.67391	0.65162	3.2138	87.94	-0.2405	0.0364	0.2769	1901.2439	0.215383	-405.601869	-405.590353	-405.589408	-405.640317	40.834	
C	-0.0642269478	 1.3014366759	 0.3734305237	-0.370849
C	-0.0547104527	 0.1217367855	-0.6020724684	-0.144589
N	-1.3145059486	-0.6045112996	-0.6339664536	-0.316354
C	-1.4955191965	-1.8028886887	-0.0037463559	 0.418374
O	-0.591661949	-2.3899429656	 0.5681845284	-0.383149
C	-2.9233509428	-2.3459225005	-0.0503337727	-0.315876
C	-2.9770502923	-3.8814870326	-0.088808111	 0.066779
C	-4.4061137432	-4.3827932122	 0.1491574483	-0.398515
C	-2.4064817649	-4.4293060156	-1.4035366167	-0.389047
H	 0.9001987941	 1.8192474979	 0.3570816823	 0.118934
H	-0.8399005075	 2.029958388	 0.1124264677	 0.108734
H	-0.2511176029	 0.9547812984	 1.3937664232	 0.134111
H	 0.1812702099	 0.468572211	-1.6151753601	 0.102915
H	 0.7053555019	-0.6064999325	-0.311607925	 0.14923
H	-2.1153898224	-0.1560032736	-1.0481374191	 0.239771
H	-3.4282251083	-1.985872147	 0.8563580462	 0.120291
H	-3.4722947812	-1.9209097136	-0.9012575063	 0.087946
H	-2.3369742975	-4.2333163398	 0.7279175048	 0.102669
H	-5.0852413945	-4.039195536	-0.6410366661	 0.106775
H	-4.4402752166	-5.4771266741	 0.158495445	 0.11201
H	-4.8029230931	-4.0272028708	 1.1062365918	 0.108044
H	-2.9935055919	-4.082445044	-2.2634184993	 0.101325
H	-1.369271101	-4.1134288661	-1.5458030109	 0.130139
H	-2.4259136809	-5.5239399744	-1.4114635964	 0.110333
27.4706	36.206	67.3783	94.2115	158.7934	222.7597	234.1509	256.79	294.7564	317.4075	364.6206	383.603	419.5452	461.9103	475.8353	617.0046	709.8604	792.8308	833.0424	886.8513	911.1879	927.8674	933.98	970.83	977.5248	1067.6287	1105.3193	1128.9614	1147.4794	1175.3028	1195.0124	1225.2844	1262.0292	1311.6526	1326.6038	1367.4263	1385.2798	1398.0629	1398.8803	1411.8933	1418.8065	1458.7313	1479.9226	1488.4681	1493.0867	1495.0354	1501.8516	1504.9732	1512.0598	1543.1172	1769.2485	3010.9202	3020.3503	3024.6751	3033.8112	3035.3375	3043.6265	3056.6978	3084.4466	3093.149	3096.2887	3098.7289	3113.0062	3116.2299	3127.4302	3639.0875
CCNC(=O)CC(C)C	CCNC(=O)CC(C)C	
InChI=1S/C7H15NO/c1-4-8-7(9)5-6(2)3/h6H,4-5H2,1-3H3,(H,8,9)	InChI=1S/C7H15NO/c1-4-8-7(9)5-6(2)3/h6H,4-5H2,1-3H3,(H,8,9)
