18
gdb 126968	5.21408	0.80609	0.70944	3.3307	77.52	-0.2009	0.0314	0.2323	1584.7466	0.148192	-435.263732	-435.254575	-435.253631	-435.298237	33.579	
C	-0.0555314814	 1.5528403243	 0.0872018372	-0.396137
C	-0.0474838319	 0.0567987537	-0.2104997484	-0.116345
N	-1.3232468533	-0.5423922273	 0.1634695189	-0.39084
C	-1.5176313389	-1.8994836857	 0.0155003981	 0.481429
N	-2.7262739904	-2.3656079468	-0.2373166708	-0.273644
O	-2.5679724734	-3.7793448679	-0.2413883046	-0.218547
C	-1.2850089893	-4.0704330103	-0.0179023252	 0.498539
N	-0.9550459667	-5.4053384246	-0.0623605107	-0.596155
C	-0.5460878991	-2.9349575023	 0.1560731932	-0.443811
H	 0.9086442756	 2.0001252208	-0.1697080253	 0.121523
H	-0.8260957981	 2.0667085193	-0.4987891806	 0.119912
H	-0.2558959793	 1.7367090888	 1.1466183189	 0.13126
H	 0.1951293384	-0.1132416578	-1.2722799732	 0.100002
H	 0.742036496	-0.4271387794	 0.3751509934	 0.1141
H	-2.1299461224	-0.0147689536	-0.1455511483	 0.240354
H	-1.7388216897	-6.0211257172	 0.1041318079	 0.26502
H	-0.1434738171	-5.6564778704	 0.4817392645	 0.262516
H	 0.5081931209	-2.8541655435	 0.3537075752	 0.100823
55.8736	77.7306	122.4126	214.0537	258.7396	266.7858	320.5831	363.8807	389.2389	480.7263	589.8707	612.0397	672.0912	694.5121	702.6365	757.5745	795.1402	818.161	912.5603	937.1338	1015.0202	1041.7867	1074.2236	1096.219	1147.7971	1186.7163	1214.3852	1295.7914	1361.0302	1390.9731	1413.3022	1451.2129	1491.9669	1499.9323	1517.7382	1532.9252	1578.863	1634.979	1678.6288	2968.0393	3036.3865	3055.3556	3105.1507	3123.2052	3282.8223	3569.2638	3569.3954	3673.8597
CCNC1=NOC(N)=C1	CCNc1noc(N)c1	
InChI=1S/C5H9N3O/c1-2-7-5-3-4(6)9-8-5/h3H,2,6H2,1H3,(H,7,8)	InChI=1S/C5H9N3O/c1-2-7-5-3-4(6)9-8-5/h3H,2,6H2,1H3,(H,7,8)
