17
gdb 50116	4.82751	0.98913	0.95083	2.3157	81.39	-0.2346	-0.0276	0.2071	1245.6151	0.134129	-384.637546	-384.629073	-384.628129	-384.670902	31.817	
O	-0.8026318791	 1.0714287671	-0.3217809999	-0.247794
C	 0.1977627692	 0.9771582206	 0.3455864522	 0.147018
C	 1.3881142363	 1.8930219512	 0.2422168668	-0.08499
C	 1.3859553027	 3.0061788103	-0.845031313	-0.31312
C	 1.4712058962	 4.0796112842	 0.2610947232	 0.228382
C	 0.2939211512	 3.9333173433	 1.1986213953	-0.322161
C	 1.4391089986	 2.9774478362	 1.3477102165	-0.134114
C	 2.27378347	 5.2520181051	 0.1989850979	 0.144988
C	 2.9626823234	 6.2364597537	 0.1223748504	-0.399519
H	 0.2813177113	 0.2012527319	 1.142011777	 0.076694
H	 2.30503458	 1.2956949692	 0.2378476322	 0.098443
H	 2.2793382849	 2.97512039	-1.469324926	 0.11952
H	 0.4957229842	 3.0473456968	-1.4759853827	 0.12705
H	 0.2291775676	 4.6941807289	 1.9681837163	 0.130603
H	-0.6620532224	 3.5968988067	 0.8060748666	 0.136047
H	 2.0303499989	 2.9176217578	 2.2524359555	 0.107544
H	 3.5648753972	 7.108356547	 0.0584154718	 0.185411
69.3537	102.5441	139.0281	206.6463	247.5145	340.7163	422.2244	505.6727	527.5905	565.1025	582.2833	648.3909	654.3068	695.6333	801.9793	831.7861	866.1755	954.4925	960.2155	978.9741	1009.2459	1032.7864	1067.5846	1094.5676	1113.0014	1139.9951	1195.9672	1223.0581	1254.9686	1279.421	1341.0478	1384.1141	1422.2657	1478.8834	1496.4779	1819.4306	2231.916	2861.1594	3065.1181	3080.3618	3122.1902	3140.8153	3196.7076	3220.3261	3503.9972
O=CC1CC2(CC12)C#C	O=C[C@H]1C[C@]2(C[C@@H]12)C#C	
InChI=1S/C8H8O/c1-2-8-3-6(5-9)7(8)4-8/h1,5-7H,3-4H2	InChI=1S/C8H8O/c1-2-8-3-6(5-9)7(8)4-8/h1,5-7H,3-4H2/t6-,7+,8+/m1/s1
