16
gdb 81112	2.57689	1.76231	1.2783	4.6149	73.3	-0.2615	-0.0244	0.2371	994.6775	0.124039	-400.711566	-400.704024	-400.70308	-400.74333	29.535	
C	-0.1297216565	 1.5290803981	-0.0192160035	-0.430723
C	-0.0247393176	 0.0159045884	-0.0311140747	-0.010372
C	 1.2774624099	-0.6038126037	-0.6510668759	-0.015799
O	 1.9784597141	-0.2440084184	 0.591107121	-0.305577
C	 0.7127363941	-0.6499263284	 1.201745781	 0.281214
C	 0.6422822133	-2.1458813191	 0.8276655266	-0.125381
C	 1.0364311412	-2.1066328546	-0.4457266119	-0.083971
C	 0.5006309131	-0.2308723651	 2.5708952462	 0.171222
N	 0.2871444253	 0.1064205203	 3.6550899392	-0.335734
H	 0.8217494206	 1.9863818458	 0.2597848886	 0.14497
H	-0.419363435	 1.8963930065	-1.0093495942	 0.123123
H	-0.8953429557	 1.8567223659	 0.6915176498	 0.137032
H	-0.9620767138	-0.4671696292	-0.3152580395	 0.090058
H	 1.7514114206	-0.2306007713	-1.556461321	 0.09639
H	 0.3375455403	-2.9550611618	 1.4727730787	 0.136356
H	 1.148354586	-2.8959705433	-1.1734814404	 0.127193
125.9597	165.1685	225.913	269.3047	285.7163	477.6378	489.246	525.8962	545.8796	556.205	648.7065	702.1097	748.2411	812.3874	835.712	897.3299	903.3411	930.7178	962.2016	988.3699	1037.648	1076.0164	1083.8335	1119.0822	1208.1849	1216.7748	1251.0023	1281.3499	1298.8755	1366.9462	1406.0295	1489.5137	1500.1665	1613.1378	2363.8665	3040.8185	3090.3717	3102.3754	3137.6156	3152.4982	3243.3385	3271.3369
CC1C2OC1(C=C2)C#N	C[C@H]1[C@H]2O[C@@]1(C=C2)C#N	
InChI=1S/C7H7NO/c1-5-6-2-3-7(5,4-8)9-6/h2-3,5-6H,1H3	InChI=1S/C7H7NO/c1-5-6-2-3-7(5,4-8)9-6/h2-3,5-6H,1H3/t5-,6-,7-/m0/s1
