15
gdb 47118	3.18295	1.26504	0.93186	2.3683	76.51	-0.2626	-0.0643	0.1984	1183.1404	0.11501	-413.024375	-413.016617	-413.015673	-413.056912	28.861	
N	-0.0634400042	 1.3011920074	 0.303701154	-0.512254
C	-0.0172788853	 0.0730487533	-0.0167108246	 0.393419
C	-1.2503350344	-0.7962954612	-0.0455602441	-0.279457
C	-1.1705000012	-1.8398790168	-1.1687271408	-0.183468
N	 0.0778629501	-2.5982895113	-1.1696584314	-0.276757
C	 1.1079424838	-1.9605913442	-0.7800014881	 0.286657
N	 1.1444159034	-0.6420854743	-0.3325293124	-0.401254
C	 2.4011578618	-2.610986335	-0.79859837	 0.264105
N	 3.4548421221	-3.0855309121	-0.8028818289	-0.311485
H	 0.8616513469	 1.7370875702	 0.3012304975	 0.210954
H	-1.3187223844	-1.3135011531	 0.9202921319	 0.138778
H	-2.1286457224	-0.1566768474	-0.1396167102	 0.143184
H	-2.0007993433	-2.5465528275	-1.0934167041	 0.129263
H	-1.2630574074	-1.3515107984	-2.150038437	 0.132654
H	 2.0426349947	-0.2097542595	-0.1735311018	 0.26566
103.1004	132.3918	157.94	220.1365	392.8255	423.5439	457.0827	486.1938	499.0169	551.021	584.6388	654.6741	714.8057	797.097	884.1441	894.0888	939.1332	997.382	1062.2762	1099.4748	1131.4562	1198.6016	1216.8658	1255.6352	1321.8049	1337.4649	1398.2024	1466.8502	1477.1307	1486.0543	1707.7135	1748.0204	2360.9325	3008.2334	3036.4864	3090.7908	3131.8532	3444.232	3614.3536
N=C1CCN=C(N1)C#N	[NH][C]1CCN=C(N1)C#N	
InChI=1S/C5H6N4/c6-3-5-8-2-1-4(7)9-5/h1-2H2,(H2,7,8,9)	InChI=1S/C5H6N4/c6-3-5-8-2-1-4(7)9-5/h1-2H2,(H2,7,8,9)
