17
gdb 102209	3.34027	0.88141	0.73382	4.6536	73.25	-0.2847	-0.0053	0.2794	1463.1521	0.135061	-418.031785	-418.022092	-418.021148	-418.067146	33.825	
O	 0.1232543236	 1.4312009922	 0.3591532322	-0.414122
C	 0.048518395	 0.0716874733	 0.000314848	-0.079851
C	-1.3879848705	-0.4929029906	 0.0354076372	-0.010449
C	-2.2284049148	-0.0963244622	-1.2031033989	-0.36407
C	-2.246203117	 1.3393501301	-1.4747778968	 0.265402
N	-2.236600419	 2.4735495316	-1.6991371971	-0.307033
C	-1.3850058044	-2.0377931273	 0.1228289361	-0.361413
C	-0.804196023	-2.5388210383	 1.3661653532	 0.26782
N	-0.3462941021	-2.9275261045	 2.353080552	-0.297087
H	-0.2407661037	 1.9733971852	-0.3491728635	 0.302804
H	 0.4971328873	-0.125318619	-0.9884629504	 0.0925
H	 0.6508249059	-0.4654082992	 0.7398584631	 0.141103
H	-1.8686265912	-0.0880192014	 0.9315750878	 0.129976
H	-1.8335019042	-0.5991310831	-2.0955418316	 0.158462
H	-3.2639918298	-0.4341738455	-1.0832827592	 0.161761
H	-2.4072264522	-2.4250307816	 0.0428359008	 0.15712
H	-0.8231564199	-2.4625055496	-0.7190720728	 0.157076
51.8977	93.2629	97.2185	151.8404	181.8607	255.6514	291.3724	368.5082	390.1402	398.9653	416.5791	434.9164	509.056	623.5695	824.2453	870.6713	889.8034	931.2052	985.2728	1053.2908	1078.2788	1097.3993	1102.7653	1196.3202	1210.9825	1280.0372	1288.0356	1343.158	1345.3006	1383.1905	1406.5121	1437.9711	1459.9629	1471.2949	1501.7638	2355.9173	2365.3724	2962.5254	3030.9232	3033.0057	3065.3315	3072.7538	3080.4796	3086.2902	3809.8686
OCC(CC#N)CC#N	OCC(CC#N)CC#N	
InChI=1S/C6H8N2O/c7-3-1-6(5-9)2-4-8/h6,9H,1-2,5H2	InChI=1S/C6H8N2O/c7-3-1-6(5-9)2-4-8/h6,9H,1-2,5H2
