23
gdb 106490	2.4093	1.51213	1.13644	1.3547	85.1	-0.2622	0.0772	0.3394	1181.2505	0.207253	-388.283551	-388.274744	-388.2738	-388.31652	35.11	
C	-0.0959516932	 1.5378239076	 0.0177489761	-0.422529
C	 0.0633423417	 0.0174666076	 0.0437844056	-0.00699
C	 1.0037453014	-0.5594645451	-1.0721078394	-0.230662
C	 1.9834606012	-1.3608066049	-0.1944611018	-0.021543
C	 2.2937958954	-0.3506444656	 0.9444355379	-0.265009
C	 0.7867614979	-0.5768071469	 1.2830172276	 0.377779
C	 0.2167163863	-0.2687726275	 2.6435114033	-0.20904
O	 0.9849342252	-0.957744322	 3.6233767572	-0.424839
C	 1.0228799421	-2.0469491638	 0.8161544337	-0.262279
H	 0.8644425681	 2.0501108818	 0.1390289417	 0.116053
H	-0.5213685086	 1.8629456708	-0.9379743656	 0.112767
H	-0.7655359906	 1.8902766119	 0.8099256699	 0.109904
H	-0.9347406457	-0.4315884816	-0.035254076	 0.063008
H	 0.4678969889	-1.1876517206	-1.790185864	 0.090524
H	 1.5055066892	 0.2366556974	-1.6326035367	 0.090034
H	 2.7744884116	-1.9140214609	-0.7018667679	 0.053574
H	 2.9431835572	-0.7639571037	 1.7175081075	 0.109465
H	 2.6265509019	 0.6550136981	 0.6695312115	 0.08066
H	 0.2386103384	 0.8182726958	 2.8227743995	 0.085147
H	-0.8406642873	-0.5833780354	 2.6775145807	 0.081142
H	 0.6329078692	-0.7354957571	 4.4899219434	 0.286433
H	 0.165368895	-2.6018737914	 0.4202453225	 0.077352
H	 1.5427697248	-2.6354605747	 1.5734026431	 0.109049
105.4561	168.0299	179.9463	226.9657	245.6695	277.4272	324.3921	406.1745	429.5222	480.1175	533.1781	627.1885	671.0069	802.5132	825.0917	841.1379	871.9103	898.7232	918.7235	940.4214	982.1069	993.0703	1011.9917	1054.965	1066.8246	1076.4718	1104.0758	1111.925	1149.8555	1153.3252	1168.9248	1205.2273	1220.3069	1247.1532	1259.0643	1264.4684	1294.4203	1298.8413	1316.9805	1347.6167	1378.7363	1411.6965	1462.6132	1488.3368	1494.956	1499.0415	1501.5478	1512.8484	1531.9624	2951.0698	2983.7869	3017.1168	3027.3866	3040.3737	3043.5902	3055.4074	3083.8289	3090.9524	3098.2406	3106.5219	3127.0122	3132.0439	3833.1454
CC1CC2CC1(CO)C2	C[C@H]1C[C@H]2C[C@]1(CO)C2	
InChI=1S/C8H14O/c1-6-2-7-3-8(6,4-7)5-9/h6-7,9H,2-5H2,1H3	InChI=1S/C8H14O/c1-6-2-7-3-8(6,4-7)5-9/h6-7,9H,2-5H2,1H3/t6-,7-,8+/m0/s1
