19
gdb 94230	3.23765	0.99867	0.91849	4.4234	72.18	-0.2437	-0.0207	0.223	1318.9939	0.155515	-460.150338	-460.140306	-460.139361	-460.186184	35.312	
C	-0.2089458362	 1.5763567426	 0.1878473455	-0.424727
C	 0.0016822747	 0.0720818882	 0.084297951	 0.375956
C	-1.2680417499	-0.6729785843	-0.3478212236	-0.320824
C	-1.7270430651	-0.282903548	-1.7384903507	 0.154013
O	-2.8546146431	 0.0342347722	-2.0210908911	-0.245982
O	 1.1020762543	-0.2487529157	-0.8197392037	-0.325643
C	 1.9363403606	-0.7077685101	 0.2619663928	-0.104879
C	 0.7747248539	-0.5684683462	 1.2708411625	 0.008211
O	 0.9495176698	 0.2909961287	 2.3680182033	-0.421685
H	 0.7076686829	 2.0754617249	 0.5058638155	 0.132881
H	-0.5090016477	 1.97873332	-0.784673737	 0.128632
H	-0.9930571252	 1.8077288838	 0.9145667105	 0.129619
H	-1.0449524943	-1.7486253628	-0.3731255344	 0.116103
H	-2.085700879	-0.5033207059	 0.3592775497	 0.121982
H	-0.9268400186	-0.3226733653	-2.5084757999	 0.099932
H	 2.3290927413	-1.7151087195	 0.0816601805	 0.101927
H	 2.7663631347	-0.0200655743	 0.4685698108	 0.105126
H	 0.3483214296	-1.5309035181	 1.5802406135	 0.076448
H	 1.3547003075	-0.2030293101	 3.0868596347	 0.292909
53.8418	66.3462	79.9989	175.5743	189.5958	194.8053	262.0962	287.9128	337.5143	388.9168	450.6247	479.5308	563.0119	667.0974	774.2212	834.3761	877.5158	907.9521	940.6933	1002.4614	1019.6469	1039.576	1072.2486	1117.6693	1147.3395	1164.4305	1179.2044	1201.4162	1233.8422	1289.4719	1300.4038	1323.0816	1338.2953	1409.572	1422.3308	1442.1616	1448.4317	1480.3235	1491.6564	1515.8011	1828.6661	2907.5021	3014.1555	3016.8214	3022.5933	3047.5122	3067.5957	3097.7009	3117.2391	3141.8323	3830.5487
CC1(CC=O)OCC1O	C[C@@]1(CC=O)OC[C@H]1O	
InChI=1S/C6H10O3/c1-6(2-3-7)5(8)4-9-6/h3,5,8H,2,4H2,1H3	InChI=1S/C6H10O3/c1-6(2-3-7)5(8)4-9-6/h3,5,8H,2,4H2,1H3/t5-,6+/m1/s1
