13
gdb 129986	2.64906	1.48914	0.95439	6.06	64.36	-0.2371	-0.044	0.1931	1118.1209	0.090581	-486.106926	-486.09917	-486.098226	-486.139263	28.498	
N	-0.0362410228	 1.3238153242	 0.1147352086	-0.595404
C	-0.0418787901	-0.0393714921	 0.0007509582	 0.463768
N	-1.1148173861	-0.7920982756	-0.016265883	-0.419478
C	-0.5816324714	-2.0605358389	-0.0743781678	 0.457631
O	-1.3685495543	-3.1349557311	-0.1093202377	-0.397152
N	 0.7206791686	-2.1620558357	-0.1057659869	-0.303886
N	 1.0946301945	-0.8235898244	-0.0426502282	-0.085652
C	 2.4241453302	-0.4163926273	 0.0357215705	 0.183153
O	 3.3731854078	-1.1455398753	-0.0065562574	-0.258523
H	 0.6847683734	 1.829347942	-0.3762176115	 0.272008
H	-0.955857427	 1.7246437715	-0.0019221048	 0.280124
H	-2.2795104718	-2.8185360524	-0.0779737801	 0.315536
H	 2.494352559	 0.6811105352	 0.1523372602	 0.087874
112.4137	188.2533	216.4578	231.4738	308.3978	327.4611	414.8164	441.8434	465.237	576.2977	591.1259	671.6044	721.3204	726.2562	775.497	899.9346	1007.7626	1053.2583	1113.6091	1154.0933	1229.8603	1352.6103	1411.5906	1458.8652	1476.5524	1598.2143	1668.6742	1682.1529	1843.3444	2961.7339	3580.4076	3684.2515	3815.1701
NC1=NC(O)=NN1C=O	Nc1nc(O)nn1C=O	
InChI=1S/C3H4N4O2/c4-2-5-3(9)6-7(2)1-8/h1H,(H3,4,5,6,9)	InChI=1S/C3H4N4O2/c4-2-5-3(9)6-7(2)1-8/h1H,(H3,4,5,6,9)
