19
gdb 99978	2.74674	1.12446	0.98101	4.1327	71.43	-0.2487	0.0123	0.261	1252.9478	0.157095	-456.339538	-456.328928	-456.327984	-456.374575	38.685	
C	-0.0405833025	 1.5395124496	 0.1391696999	-0.452604
C	-0.0393885116	 0.0038924664	 0.0336830666	 0.218687
N	 0.6200503484	-0.6682606305	 1.1567469886	-0.546974
C	-1.477405237	-0.5306486789	-0.0359996663	-0.094902
O	-2.1305323776	-0.1500073877	 1.1687629882	-0.432523
C	 0.6924949232	-0.4722508941	-1.2570992867	-0.003882
O	 0.1173747317	 0.0049098536	-2.4589399035	-0.420549
C	 2.1288230246	-0.1324130163	-1.187200039	 0.258082
N	 3.2394200735	 0.1837837914	-1.1360101313	-0.3309
H	 0.9813589243	 1.9243361902	 0.2176207955	 0.129906
H	-0.5221118788	 2.0116632689	-0.7255547635	 0.10595
H	-0.5976808187	 1.8435126664	 1.0273446469	 0.143929
H	 1.4820993082	-0.1906462226	 1.4026000992	 0.238116
H	 0.0056817755	-0.616722243	 1.9639245036	 0.243637
H	-1.9813990824	-0.1174871302	-0.9183579591	 0.107345
H	-1.4415406609	-1.6254988803	-0.1329382807	 0.098324
H	-3.0016051675	-0.5558150139	 1.1830231505	 0.295399
H	 0.6136569186	-1.5630622578	-1.2927690166	 0.144406
H	 0.3077256589	 0.9463572688	-2.536725922	 0.298552
75.1664	125.2182	130.9229	207.2829	224.6025	239.9521	257.6479	276.7574	304.1626	327.6062	343.4787	365.8734	420.6331	448.6664	477.8835	613.562	662.4488	767.128	856.8367	906.1878	944.4056	976.8038	995.2429	1070.4141	1080.6002	1097.8882	1170.2201	1197.3088	1256.9877	1270.1929	1298.2516	1300.2756	1366.0701	1401.7002	1409.676	1455.3114	1490.187	1509.9529	1516.8386	1650.7054	2351.4632	2995.1695	3030.174	3052.1282	3077.7336	3095.6912	3135.9056	3496.445	3576.2632	3811.6426	3842.9598
CC(N)(CO)C(O)C#N	C[C@@](N)(CO)[C@@H](O)C#N	
InChI=1S/C5H10N2O2/c1-5(7,3-8)4(9)2-6/h4,8-9H,3,7H2,1H3	InChI=1S/C5H10N2O2/c1-5(7,3-8)4(9)2-6/h4,8-9H,3,7H2,1H3/t4-,5+/m0/s1
