15
gdb 43858	3.90944	1.05112	0.92932	3.3563	72.98	-0.2722	0.0081	0.2803	1225.3107	0.112342	-416.803194	-416.795359	-416.794414	-416.835992	29.261	
N	 0.1292363603	 1.1608629152	 0.7180263647	-0.52969
C	 0.0226954327	 0.0691833664	 0.1212293167	 0.435255
C	-1.1199979878	-0.8588528524	-0.2462760815	-0.441832
C	-0.0037838028	-1.6931257803	-0.8592679717	 0.45067
C	 0.2589475583	-3.1464400365	-0.9040035368	-0.351804
C	 0.0879389687	-2.3551336015	-2.2135110824	-0.265481
C	-1.1016743771	-2.5123465023	-2.9981190713	 0.293945
N	-2.0788541636	-2.6244599961	-3.6076818266	-0.330851
O	 0.9971855332	-0.7471397379	-0.4552912193	-0.272572
H	 1.0991058498	 1.4753370724	 0.7683253107	 0.237365
H	-1.6371488765	-1.3048673817	 0.6047228069	 0.152099
H	-1.8467075546	-0.4469989518	-0.9483120857	 0.165831
H	 1.264774661	-3.4878084645	-0.6879814523	 0.150848
H	-0.537806575	-3.8238923283	-0.6186018071	 0.152978
H	 0.9949866433	-2.1592502207	-2.7755809644	 0.15324
75.9997	115.6642	161.8077	282.2102	299.7803	403.7728	468.5047	491.1311	506.2031	539.4945	619.3406	775.7793	801.9344	858.6771	874.7317	895.6662	936.4759	970.3463	987.9777	1025.9419	1057.3138	1077.6911	1107.1672	1141.9848	1161.0455	1222.7198	1277.4777	1336.2359	1407.7485	1462.0494	1484.6919	1846.5191	2353.0981	3091.0824	3144.1298	3146.4703	3175.5636	3239.8821	3488.0732
N=C1CC2(CC2C#N)O1	[NH][C]1C[C@]2(C[C@H]2C#N)O1	
InChI=1S/C6H6N2O/c7-3-4-1-6(4)2-5(8)9-6/h4,8H,1-2H2	InChI=1S/C6H6N2O/c7-3-4-1-6(4)2-5(8)9-6/h4,8H,1-2H2/t4-,6-/m0/s1
