20
gdb 65160	2.70447	1.20013	1.05649	1.538	85.94	-0.2374	0.0356	0.2731	1241.4143	0.16944	-365.936654	-365.927356	-365.926412	-365.970884	35.716	
C	 0.1387221502	 1.5030682265	-0.0555299997	-0.474877
C	 0.0991781577	-0.0122057221	-0.010551682	 0.372936
C	 1.222993248	-0.7872080552	-0.6619583714	-0.292109
C	 1.1397803956	-0.7126115468	 0.8414273526	-0.30766
C	-1.2538130971	-0.6702792452	-0.0515113767	-0.078349
N	-2.4364666221	 0.10899483	 0.3104771924	-0.335955
C	-2.3299156842	-0.4136377083	-1.072472234	-0.256522
C	-2.2332672094	 0.5180811553	-2.1621475011	 0.379764
C	-2.186740145	 1.2437015176	-3.1202604798	-0.431459
H	 1.1730023123	 1.8536512793	 0.0171807824	 0.101014
H	-0.2868340328	 1.8894116566	-0.9845904857	 0.135759
H	-0.4311636759	 1.9299587223	 0.7741668521	 0.129481
H	 0.9847594814	-1.7322875249	-1.1395598625	 0.107677
H	 1.9995812683	-0.2220191492	-1.1657794066	 0.113003
H	 1.8581522225	-0.0930775952	 1.3672800991	 0.11134
H	 0.8497039721	-1.6081183777	 1.3820791865	 0.104929
H	-1.2284617992	-1.709838531	 0.278623029	 0.08027
H	-3.1016876232	-0.4461500856	 0.841359382	 0.237037
H	-2.9386356671	-1.2849435564	-1.3109909986	 0.107277
H	-2.1358948321	 1.8991000901	-3.954111838	 0.196443
37.1334	125.8275	186.8463	203.9578	249.816	253.923	331.8348	339.8174	405.306	474.8221	551.6431	596.1472	620.8049	656.3517	703.6944	783.1087	807.3195	841.246	867.3723	901.379	944.8454	959.8011	972.2425	999.4582	1039.887	1064.9249	1076.9537	1102.6994	1125.719	1177.5108	1189.7288	1211.1104	1241.2373	1302.5503	1355.9222	1410.1546	1421.0715	1459.5331	1470.4962	1486.6357	1503.544	1513.2412	2236.1325	3044.0258	3087.5533	3109.6322	3112.8019	3125.2424	3127.5797	3130.4828	3203.5602	3218.2261	3503.4841	3509.097
CC1(CC1)C1NC1C#C	CC1(CC1)[C@H]1N[C@H]1C#C	
InChI=1S/C8H11N/c1-3-6-7(9-6)8(2)4-5-8/h1,6-7,9H,4-5H2,2H3	InChI=1S/C8H11N/c1-3-6-7(9-6)8(2)4-5-8/h1,6-7,9H,4-5H2,2H3/t6-,7-/m0/s1
