19
gdb 126259	3.06858	1.20768	0.93565	2.6319	79.44	-0.2075	0.0407	0.2483	1296.9976	0.15905	-419.233741	-419.223942	-419.222998	-419.269624	34.351	
C	 0.1223978043	 1.546065555	 0.096835896	-0.358771
C	 0.0090469919	 0.0186482148	-0.0570116558	-0.32367
C	-1.4005309733	-0.4938405235	-0.0396219294	 0.055269
C	-2.2105401806	-0.7868018767	-1.1237221092	 0.3627
O	-2.00422223	-0.753177399	-2.4623400319	-0.436322
N	-3.4180433547	-1.1837824876	-0.663028637	-0.015457
C	-4.5477907865	-1.6500449567	-1.4341104282	-0.324332
N	-3.4556255149	-1.1821043015	 0.6973417217	-0.289192
C	-2.2495681285	-0.7643061587	 1.0603211435	-0.063887
H	 1.168785324	 1.8688457342	 0.0856061047	 0.109269
H	-0.4038851688	 2.0641851441	-0.7115519635	 0.11224
H	-0.3250447678	 1.8734150448	 1.0401371966	 0.125515
H	 0.5054883277	-0.2866975227	-0.9902929185	 0.078956
H	 0.5828881489	-0.4662638536	 0.7417601862	 0.114494
H	-1.1168689788	-0.4171094057	-2.6249193935	 0.309753
H	-4.4916650855	-2.7288374839	-1.6183371395	 0.13757
H	-5.4544826799	-1.4324587061	-0.8689178613	 0.154051
H	-4.5737363417	-1.1289687623	-2.3929664252	 0.147519
H	-2.0154118657	-0.6657541047	 2.1115979545	 0.104293
37.7621	46.9313	105.7866	181.7947	191.0002	240.7143	278.8973	284.2903	295.0495	412.3263	515.0425	583.7878	655.6302	713.3457	737.3913	755.7084	801.8477	873.672	958.3655	1004.1298	1051.3052	1070.1464	1087.7283	1150.641	1220.9612	1223.3336	1276.4865	1297.845	1324.5874	1358.1069	1401.3335	1412.7224	1439.5875	1464.4173	1483.846	1489.7354	1495.2515	1505.7551	1507.2116	1590.6889	1631.8166	2993.0423	3032.583	3038.6843	3047.075	3102.3769	3110.5555	3115.547	3159.1565	3227.8301	3831.1817
CCC1=C(O)N(C)N=C1	CCc1c(O)n(C)nc1	
InChI=1S/C6H10N2O/c1-3-5-4-7-8(2)6(5)9/h4,9H,3H2,1-2H3	InChI=1S/C6H10N2O/c1-3-5-4-7-8(2)6(5)9/h4,9H,3H2,1-2H3
