18
gdb 55065	2.86152	1.04405	0.91268	4.3849	75.66	-0.25	-0.0182	0.2317	1346.7943	0.14505	-439.083676	-439.074076	-439.073131	-439.119502	33.618	
C	-0.343398033	 1.2948180428	 0.1576413985	-0.484963
C	-0.0389417746	-0.1889645472	 0.1607434159	 0.40866
O	 0.1348461197	-0.8149458785	 1.1811920682	-0.308618
C	 0.0177006934	-0.847384285	-1.1918452165	-0.168609
C	 0.5114071936	-2.280024989	-1.242024227	-0.328204
C	-0.9380146471	-1.9956469497	-1.4633607843	 0.113342
O	-1.9062308732	-2.2764690223	-0.493576828	-0.179928
C	-2.0407532	-3.5686096265	-0.10868513	 0.132019
N	-3.0095186885	-3.8994769921	 0.6255866815	-0.434108
H	 0.4218415656	 1.8393814737	-0.4077415967	 0.137318
H	-1.3014462914	 1.4794568371	-0.3415779869	 0.148007
H	-0.3814599085	 1.6688534093	 1.1809575326	 0.146086
H	 0.2055530931	-0.1899463943	-2.0337856888	 0.098984
H	 1.1127338493	-2.6013823958	-2.0842310335	 0.12477
H	 0.7952836169	-2.6700113354	-0.2703685843	 0.155982
H	-1.3259641772	-2.0639827399	-2.4771416254	 0.113222
H	-1.2457615315	-4.2189319553	-0.4928125936	 0.095094
H	-2.9550641665	-4.892403072	 0.8431152083	 0.230945
43.7799	56.5346	113.6275	135.8092	148.8835	199.486	269.2331	367.2791	402.1233	470.0327	588.8512	604.7015	650.3253	754.2608	815.8294	824.5341	857.99	942.3567	961.2329	1008.2309	1047.896	1049.0965	1078.786	1080.9716	1101.3208	1136.3959	1177.2488	1184.8245	1244.079	1291.6155	1375.0938	1384.2185	1398.106	1417.2383	1461.5578	1464.2962	1475.222	1747.6897	1806.8107	3034.4526	3050.3133	3094.8688	3130.2899	3140.1545	3156.1321	3170.0182	3237.3021	3518.3111
CC(=O)C1CC1OC=N	CC(=O)[C@H]1C[C@H]1O[CH][NH]	
InChI=1S/C6H9NO2/c1-4(8)5-2-6(5)9-3-7/h3,5-7H,2H2,1H3	InChI=1S/C6H9NO2/c1-4(8)5-2-6(5)9-3-7/h3,5-7H,2H2,1H3/t5-,6-/m1/s1
