19
gdb 69550	2.63523	1.57075	1.36587	0.9557	74.48	-0.2379	0.0657	0.3036	1034.3289	0.158312	-422.962607	-422.954472	-422.953528	-422.994629	32.523	
C	 0.0002546693	 1.5347360117	-0.040547166	-0.495257
C	 0.0040483819	 0.0237600304	-0.0034847829	 0.318952
C	-1.3423883356	-0.7382491405	 0.0704868966	-0.149439
O	-0.8868368079	-1.5202065091	 1.2058242516	-0.300487
C	 0.366264486	-0.7958914533	 1.2536901486	-0.014056
C	 1.5708050806	-1.4277778326	 0.5143900218	 0.384143
O	 2.8289693059	-1.5631049898	 1.072611709	-0.46284
C	 1.1156336277	-2.1766410843	-0.6980105194	-0.368101
C	 1.1769532054	-0.6626773085	-0.7515453175	-0.179211
H	 0.9947324218	 1.9342424724	 0.1859365793	 0.126272
H	-0.2847090052	 1.9036461164	-1.0332778303	 0.120428
H	-0.705072227	 1.9487419759	 0.6874950932	 0.119377
H	-2.1949758833	-0.1051819469	 0.3472431683	 0.098571
H	-1.6222648537	-1.3646038227	-0.784496439	 0.10066
H	 0.5863909336	-0.3549092942	 2.2299937503	 0.078797
H	 2.921738457	-2.4667101953	 1.3950480385	 0.287973
H	 1.9256876473	-2.6545483154	-1.2407919724	 0.113259
H	 0.1781802493	-2.7225644148	-0.703939321	 0.127967
H	 1.8078168568	-0.1592855593	-1.4750158786	 0.092992
143.1955	223.962	238.1029	260.1093	270.0098	304.6759	339.6187	391.4217	479.7255	504.28	587.4596	650.7775	756.5205	811.6603	844.4442	885.2085	894.8196	955.6232	973.6813	980.6812	986.1178	995.1685	1013.607	1043.1972	1078.4706	1134.885	1157.1668	1182.5227	1205.2623	1220.4792	1248.1618	1266.9141	1286.778	1317.8743	1375.9741	1402.0889	1413.1865	1489.5766	1494.0992	1496.3398	1520.7424	3012.5034	3023.9804	3060.5685	3076.0964	3086.7337	3100.1668	3126.0297	3179.7416	3211.9624	3788.3525
CC12COC1C1(O)CC21	C[C@]12CO[C@H]1[C@@]1(O)C[C@@H]21	
InChI=1S/C7H10O2/c1-6-3-9-5(6)7(8)2-4(6)7/h4-5,8H,2-3H2,1H3	InChI=1S/C7H10O2/c1-6-3-9-5(6)7(8)2-4(6)7/h4-5,8H,2-3H2,1H3/t4-,5+,6+,7+/m0/s1
