20
gdb 105644	2.02602	1.38001	1.23023	3.6502	80.1	-0.2368	0.0267	0.2635	1187.4902	0.170936	-399.307616	-399.297926	-399.296982	-399.341903	35.543	
C	 0.0625784219	 1.5277098044	-0.105329532	-0.341336
N	 0.0053604724	 0.07674403	 0.0663324669	-0.321707
C	-1.3296670219	-0.4945621734	 0.0432551435	 0.137276
C	-2.0174326665	-0.6051877678	-1.3667074341	-0.212173
N	-1.4431720327	-1.9631465399	-1.4811663625	-0.333949
C	-1.3160435423	-2.0679327879	-0.0074344195	 0.015041
C	-0.1260517497	-2.8407344252	 0.5256807556	-0.395522
C	-2.152997697	 0.0853248615	 1.1033774128	 0.275852
N	-2.8317564302	 0.5266169357	 1.9283828888	-0.35159
H	 1.1111941933	 1.8342338108	-0.1363613733	 0.127213
H	-0.431624201	 1.89859258	-1.0184959074	 0.104208
H	-0.4055570679	 2.0170073973	 0.7536693096	 0.152302
H	 0.5436484996	-0.3773291315	-0.6641503662	 0.237441
H	-3.1125911472	-0.567881067	-1.2980603103	 0.110507
H	-1.6767934161	 0.1059576378	-2.1259380864	 0.11222
H	-2.0423737929	-2.6553305862	-1.9180442865	 0.224258
H	-2.2373598252	-2.4320179053	 0.4711880495	 0.085785
H	 0.8155439527	-2.4817619447	 0.1054349732	 0.121838
H	-0.0724777454	-2.7595164437	 1.6154593594	 0.133188
H	-0.2303253841	-3.9004135347	 0.2687415789	 0.119148
103.6536	123.6268	148.193	172.4967	184.5366	198.8927	234.5379	298.514	360.7931	423.1832	506.0818	544.0709	568.5763	607.1725	684.6904	796.6954	823.7157	902.6318	954.5834	977.0367	1005.3358	1023.5103	1087.3793	1090.3349	1101.804	1143.3292	1162.5611	1165.4268	1200.8282	1242.4142	1283.107	1347.6016	1368.2525	1393.9851	1414.5717	1460.6778	1477.2517	1482.9667	1490.8069	1496.9595	1511.0136	1521.773	2356.1497	2969.1109	2987.6072	3013.3541	3042.6366	3075.2566	3080.4157	3108.6776	3122.3353	3132.3669	3527.1204	3531.5097
CNC1(CNC1C)C#N	CN[C@]1(CN[C@H]1C)C#N	
InChI=1S/C6H11N3/c1-5-6(3-7,8-2)4-9-5/h5,8-9H,4H2,1-2H3	InChI=1S/C6H11N3/c1-5-6(3-7,8-2)4-9-5/h5,8-9H,4H2,1-2H3/t5-,6-/m0/s1
