17
gdb 42399	2.50958	1.2458	0.97458	1.8711	69.12	-0.2507	-0.0346	0.2161	1225.0254	0.134246	-458.926122	-458.917513	-458.916569	-458.960277	30.822	
O	-0.363057009	-0.490053162	 0.5797796781	-0.317166
C	-0.1796505214	 0.4875480497	-0.1094683618	 0.373759
C	 1.1470411004	 0.7323878426	-0.8261654682	-0.352831
C	 2.2392365744	 1.0537944475	 0.173166855	 0.101015
C	 3.3484557636	 1.954086282	-0.1587335719	-0.182168
O	 2.2696538213	 2.3967386794	 0.6716943317	-0.228248
C	-1.2602487381	 1.5230951264	-0.2485549831	-0.027014
C	-0.93960263	 2.9575985273	-0.0779592246	-0.186419
O	-1.2017019956	 2.4124491739	-1.365364916	-0.219677
H	 1.4055468108	-0.1969072504	-1.345654033	 0.136122
H	 1.0522096732	 1.5341876099	-1.5609830748	 0.134751
H	 2.3935441117	 0.2949002249	 0.9396103894	 0.117983
H	 4.307157935	 1.8446808672	 0.3452063967	 0.123705
H	 3.3906595932	 2.406269925	-1.1484380213	 0.121196
H	-2.2512235765	 1.1679558529	 0.0272033686	 0.117184
H	-1.7139138761	 3.6088393812	 0.323149134	 0.130804
H	 0.0904253731	 3.2537584725	 0.1100728814	 0.157004
72.0082	88.7435	111.304	161.313	238.5235	274.3502	348.8269	416.9701	497.3094	506.2567	669.817	795.6038	804.0952	857.2154	882.3219	895.8452	924.2087	958.4921	1001.4461	1083.0231	1099.9827	1107.9466	1155.5134	1169.6863	1173.3741	1176.5163	1193.1384	1248.3856	1258.9626	1292.8204	1322.0885	1384.7143	1428.8002	1466.672	1524.1607	1529.7667	1802.1001	3055.7579	3088.0993	3095.0945	3117.3418	3132.2845	3142.8072	3177.3689	3196.0923
O=C(CC1CO1)C1CO1	O=C(C[C@H]1CO1)[C@H]1CO1	
InChI=1S/C6H8O3/c7-5(6-3-9-6)1-4-2-8-4/h4,6H,1-3H2	InChI=1S/C6H8O3/c7-5(6-3-9-6)1-4-2-8-4/h4,6H,1-3H2/t4-,6+/m0/s1
