16
gdb 125303	3.0696	1.80075	1.15106	4.8875	77.35	-0.2383	-0.0256	0.2127	1017.3041	0.126641	-396.945726	-396.938626	-396.937682	-396.977191	27.256	
C	-0.0216285582	 1.494672338	 0.1331045505	-0.488752
C	-0.0099670199	 0.0173212353	-0.0323094475	 0.366803
C	-0.0291772347	-0.7793491464	-1.1116644243	-0.206231
C	-0.0026399958	-2.2479837868	-0.7108367919	-0.418006
C	 0.0350633948	-2.1458647755	 0.7863782258	 0.328047
C	 0.0733274535	-2.7661225362	 2.0120445552	-0.209365
N	 0.0883103148	-1.8010986021	 2.9828954072	-0.19395
N	 0.0601993565	-0.6121042468	 2.4297865759	-0.181851
N	 0.0288166913	-0.8261453103	 1.1066365146	 0.020772
H	 0.8707788325	 1.8320502601	 0.6707251296	 0.156762
H	-0.0565022421	 1.9863670726	-0.8406445657	 0.13656
H	-0.8872734441	 1.8121154209	 0.7239062255	 0.156874
H	-0.0596304789	-0.4364560262	-2.1357905059	 0.115533
H	-0.885482259	-2.7890413669	-1.0730797604	 0.146897
H	 0.8719370654	-2.7696708389	-1.1186828873	 0.146885
H	 0.091367204	-3.8128848008	 2.2665159086	 0.123021
150.6861	176.1733	216.8246	239.0202	284.1942	501.187	533.6121	601.4664	667.5518	690.9057	706.5249	765.3009	769.7089	839.8021	948.457	949.844	1003.7764	1016.8298	1071.2317	1113.4226	1123.826	1146.2711	1163.9395	1236.3115	1257.7527	1286.1891	1300.543	1380.4154	1420.0602	1430.4607	1460.1687	1470.4171	1485.842	1579.6973	1706.6766	3034.3135	3043.2016	3060.3342	3098.4785	3140.4952	3241.6684	3275.4717
CC1=CCC2=CN=NN12	CC1=CCc2cnnn12	
InChI=1S/C6H7N3/c1-5-2-3-6-4-7-8-9(5)6/h2,4H,3H2,1H3	InChI=1S/C6H7N3/c1-5-2-3-6-4-7-8-9(5)6/h2,4H,3H2,1H3
