18
gdb 50160	3.56946	1.15147	1.02952	2.7666	72.11	-0.2393	-0.0354	0.2039	1180.1058	0.147162	-439.044903	-439.036592	-439.035648	-439.078707	30.343	
O	-0.2316988381	 0.0813311165	-0.0763601682	-0.250445
C	 0.0018990382	 1.2399872248	-0.3171031184	 0.149179
C	 1.327960831	 1.9049403395	-0.0375159322	-0.055879
C	 1.3067765502	 2.7627979584	 1.2675244493	-0.33771
C	 2.1026172515	 1.5991122166	 1.9056597971	 0.310312
C	 3.2563367051	 1.8150535496	 2.8999919348	-0.124654
O	 2.53010137	 1.1477862247	 3.9534488858	-0.273744
C	 1.4804414083	 0.7600781318	 3.046467525	-0.128479
N	 2.3476296045	 1.0359282669	 0.5665729497	-0.355645
H	-0.7706126873	 1.9064157415	-0.7638337899	 0.083821
H	 1.6476612839	 2.4352639098	-0.9451126789	 0.094658
H	 1.8773464256	 3.6887604377	 1.1772220606	 0.123042
H	 0.3286141564	 2.9812210386	 1.7011630412	 0.118182
H	 4.1757240667	 1.2834547027	 2.6212718253	 0.10674
H	 3.4989383727	 2.8536670541	 3.1574338148	 0.100673
H	 0.4879773475	 1.0622973938	 3.4033915799	 0.104205
H	 1.4757380671	-0.3215577491	 2.8512231258	 0.106306
H	 2.1252215668	 0.0470909319	 0.477216488	 0.229438
58.2913	80.8341	120.7337	205.7749	280.738	319.9803	378.6753	406.8789	496.9877	685.4121	751.0813	796.7185	839.9041	851.4785	904.6789	927.949	949.8108	961.3527	997.3495	1006.2917	1033.5287	1113.2969	1127.1794	1147.9663	1149.6495	1183.0367	1199.9581	1218.6077	1257.0987	1282.3875	1300.4006	1327.0472	1380.7406	1409.1042	1415.8791	1481.5717	1498.3013	1524.589	1817.262	2878.7546	2996.2674	3011.3883	3013.3212	3049.7831	3057.0904	3073.3609	3130.4397	3497.8597
O=CC1CC2(COC2)N1	O=C[C@H]1CC2(COC2)N1	
InChI=1S/C6H9NO2/c8-2-5-1-6(7-5)3-9-4-6/h2,5,7H,1,3-4H2	InChI=1S/C6H9NO2/c8-2-5-1-6(7-5)3-9-4-6/h2,5,7H,1,3-4H2/t5-/m1/s1
