17
gdb 84325	2.72449	1.4668	1.03621	1.9735	78.26	-0.2547	-0.0508	0.2038	1140.017	0.13788	-418.07272	-418.064627	-418.063683	-418.105998	30.609	
C	-0.471535233	 1.4017325078	 0.0487442059	-0.387637
C	 0.0595098689	-0.0504230535	-0.0204357529	-0.120332
C	 0.8864586953	-0.2524558955	-1.2548146641	-0.050668
C	 2.1825931116	-0.5645621613	-1.2402327863	-0.185856
C	 2.9135899746	-0.7725873679	 0.0223219225	 0.419881
O	 4.0965508649	-1.0369907387	 0.0927018534	-0.361674
N	 2.1435795805	-0.651458525	 1.1780879898	-0.40725
C	 0.7768160404	-0.4076022067	 1.275371806	 0.382564
N	 0.1047709185	-0.4389331823	 2.3568801242	-0.517146
H	 0.3561953632	 2.1145374473	 0.1107654419	 0.127299
H	-1.0597332817	 1.6373410098	-0.8432846431	 0.118446
H	-1.1001406709	 1.5136837271	 0.933536325	 0.1539
H	-0.8167197968	-0.7082684312	-0.0747596991	 0.128907
H	 0.3727496694	-0.0991175467	-2.200977424	 0.11743
H	 2.7736754565	-0.6840035092	-2.1399563317	 0.123756
H	 2.6540591626	-0.8408876026	 2.0313432909	 0.250281
H	 0.686137616	-0.6713449715	 3.1642276415	 0.208098
38.3373	127.4775	231.3802	243.395	281.0642	373.3922	411.5153	491.6261	522.1073	543.9772	646.6076	678.7308	702.2514	724.5626	824.9334	849.761	869.6552	923.5738	951.9705	1016.9739	1031.3781	1079.031	1104.3492	1149.3026	1173.1574	1292.9687	1297.3966	1347.5715	1385.8493	1404.9521	1416.3905	1421.1935	1491.9128	1502.3212	1697.2797	1725.4606	1796.8132	3034.5054	3044.148	3114.7767	3145.693	3159.2908	3216.0345	3453.6576	3583.4489
CC1C=CC(=O)NC1=N	C[C@H]1C=CC(=O)N[C]1[NH]	
InChI=1S/C6H8N2O/c1-4-2-3-5(9)8-6(4)7/h2-4H,1H3,(H2,7,8,9)	InChI=1S/C6H8N2O/c1-4-2-3-5(9)8-6(4)7/h2-4H,1H3,(H2,7,8,9)/t4-/m0/s1
