19
gdb 14425	4.15526	1.78995	1.64033	1.7774	74.98	-0.2302	0.0935	0.3238	891.3282	0.166026	-327.869864	-327.862418	-327.861474	-327.901054	29.178	
C	 0.0663388968	 1.6353297828	-0.0303655198	-0.428611
C	 0.0832924044	 0.1123323356	 0.0074842296	 0.034229
C	 0.7435711996	-0.7134890696	-1.0978676488	-0.106596
N	 2.208776357	-0.943858921	-0.7838467265	-0.189501
C	 2.4303127288	-0.2634732631	 0.5333873849	-0.155178
C	 1.0198934196	-0.6726710966	 0.9773749427	-0.149383
C	 1.145348154	-1.7812272646	-0.1528275	 0.36502
C	 1.087689185	-3.2700167895	-0.1711492845	-0.532276
H	 1.0580332968	 2.0595011559	-0.2077047807	 0.122627
H	-0.5883451023	 1.9904320447	-0.8339239113	 0.116902
H	-0.3148868239	 2.0468196617	 0.9111561654	 0.113836
H	-0.9374762703	-0.2650492431	 0.1407284657	 0.074635
H	 0.4751271732	-0.7900193996	-2.1444717823	 0.0889
H	 3.2180096588	-0.8045053543	 1.0648047007	 0.104329
H	 2.6909815907	 0.7996010762	 0.4856504329	 0.093047
H	 0.745947967	-0.8090759485	 2.0229554317	 0.065994
H	 0.0906427571	-3.6331801748	 0.1019116087	 0.12213
H	 1.3244516886	-3.6396253975	-1.1737128782	 0.135476
H	 1.8082381692	-3.7083952046	 0.5286209597	 0.124418
156.8524	189.1467	202.7287	216.6789	310.7418	320.4361	486.5189	551.1085	634.0344	663.5183	738.8303	777.8752	822.1468	891.7499	910.6513	936.1914	958.7708	1009.4184	1027.2185	1046.9186	1072.8215	1090.4099	1096.5223	1120.9564	1149.0611	1167.5588	1190.2296	1217.8082	1244.3288	1296.387	1307.8823	1385.1551	1400.0716	1409.805	1452.6795	1480.6628	1490.9309	1492.3211	1496.8087	1521.4892	3026.3173	3030.5209	3036.978	3041.0492	3086.54	3091.1068	3094.7442	3106.511	3116.1948	3120.7188	3190.9122
CC1C2N3CC1C23C	C[C@H]1[C@H]2N3C[C@@H]1[C@@]23C	
InChI=1S/C7H11N/c1-4-5-3-8-6(4)7(5,8)2/h4-6H,3H2,1-2H3	InChI=1S/C7H11N/c1-4-5-3-8-6(4)7(5,8)2/h4-6H,3H2,1-2H3/t4-,5+,6-,7+,8?/m1/s1
