19
gdb 58455	2.87617	1.07032	1.04812	3.4147	71.58	-0.2451	-0.0248	0.2203	1246.5055	0.155841	-460.169775	-460.160252	-460.159307	-460.204178	36.211	
C	 0.1262051931	 1.4361627473	-0.2509253583	-0.425034
C	-0.063486859	-0.0647155912	-0.0042248117	 0.105619
O	 0.670787026	-0.4896835229	 1.1336140611	-0.439184
C	-1.5334910837	-0.4742969159	 0.1691025035	 0.368846
O	-2.0694385445	 0.1234105909	 1.3432556165	-0.490382
C	-2.4212128928	-0.3802294518	-1.1162304484	-0.424855
C	-2.4258876279	-1.9188792011	-1.1542439912	 0.415849
O	-2.7835029372	-2.7206280257	-1.966336301	-0.288059
C	-1.7383005419	-2.0156203652	 0.2116253953	-0.391248
H	 1.1919500055	 1.6577898733	-0.3424300166	 0.137114
H	-0.3755296313	 1.7706962109	-1.1646521983	 0.117995
H	-0.2565195954	 2.0255016287	 0.5907593341	 0.104357
H	 0.352033518	-0.6194311239	-0.8550576397	 0.088748
H	 0.1402051808	-0.232869657	 1.8993457879	 0.283812
H	-2.1716644413	 1.0682001262	 1.1837825939	 0.285889
H	-3.4167326031	 0.0238414266	-0.9047940424	 0.13382
H	-2.0096807575	 0.1210198398	-1.9962625455	 0.128037
H	-0.8395600658	-2.6324591238	 0.2744661617	 0.146418
H	-2.4342416318	-2.3120541052	 1.002584989	 0.142255
44.75	92.6874	200.2873	242.1642	267.1132	298.5246	314.7491	359.1108	390.5885	418.3432	443.3076	478.0362	490.9987	552.0858	666.5088	691.2625	734.8295	822.6881	913.725	923.5188	966.9158	1004.1199	1020.0375	1065.1658	1101.2578	1117.8411	1122.4104	1137.6304	1186.259	1243.1283	1287.5386	1294.3518	1331.2102	1375.0923	1401.2901	1416.7206	1431.5503	1438.1155	1490.5263	1502.7477	1897.6881	3029.9056	3035.381	3054.5327	3067.4064	3098.2763	3115.9538	3126.2515	3131.2046	3766.521	3803.947
CC(O)C1(O)CC(=O)C1	C[C@@H](O)C1(O)CC(=O)C1	
InChI=1S/C6H10O3/c1-4(7)6(9)2-5(8)3-6/h4,7,9H,2-3H2,1H3	InChI=1S/C6H10O3/c1-4(7)6(9)2-5(8)3-6/h4,7,9H,2-3H2,1H3/t4-/m1/s1
