14
gdb 29954	3.42146	1.46482	1.03227	3.1754	66.48	-0.2651	-0.0496	0.2155	1071.2729	0.103245	-470.090394	-470.0829	-470.081956	-470.122685	27.354	
C	-0.0108954392	 1.4395993066	-0.0029146792	-0.334014
N	 0.0000258315	-0.0182462657	-0.0263479736	-0.110895
C	-0.1030240402	-0.7253760619	-1.1623277273	 0.122346
N	-0.0979689731	-2.0248533188	-1.2329248679	-0.324092
C	 0.0246169316	-2.6271115663	-0.0166070475	 0.454191
O	 0.0304015652	-3.9566230365	-0.0819162533	-0.370927
N	 0.132859162	-2.0664655436	 1.1596883597	-0.425902
C	 0.1279376826	-0.6999156436	 1.2380604509	 0.447053
O	 0.2188378757	-0.0376654483	 2.2453188635	-0.382942
H	 0.9154123683	 1.8100397919	 0.4406256263	 0.166064
H	-0.112363721	 1.8127645289	-1.023625391	 0.133668
H	-0.8422800467	 1.7943013934	 0.6094947673	 0.166053
H	-0.1965455752	-0.1499473786	-2.081287655	 0.144827
H	 0.1210500085	-4.2713970972	 0.8296731871	 0.314572
106.0331	117.0385	186.3499	269.4903	320.0312	397.3416	448.0678	493.5918	589.3942	626.5533	628.7643	760.15	783.8992	816.9111	821.7249	963.5559	1000.3882	1093.2886	1157.4645	1175.0267	1213.7992	1271.2112	1385.8293	1416.7727	1457.778	1466.21	1499.5803	1514.87	1568.4204	1676.6303	1823.0303	3060.6812	3137.5124	3149.4583	3160.2173	3762.4091
CN1C=NC(O)=NC1=O	Cn1cnc(O)nc1=O	
InChI=1S/C4H5N3O2/c1-7-2-5-3(8)6-4(7)9/h2H,1H3,(H,6,8,9)	InChI=1S/C4H5N3O2/c1-7-2-5-3(8)6-4(7)9/h2H,1H3,(H,6,8,9)
