17
gdb 27876	2.02125	1.77986	0.95762	2.6594	78.93	-0.2462	-0.0318	0.2144	1210.6645	0.136384	-418.098553	-418.089873	-418.088929	-418.132851	31.329	
C	-0.0716755244	 1.4853798144	 0.0863592979	-0.469195
C	-0.0095919675	-0.0139818439	-0.0013654974	 0.331956
C	 0.0291945175	-0.6889542911	-1.2193989647	-0.235439
C	 0.085949712	-2.0828826265	-1.1904066786	 0.32987
C	 0.131148938	-2.9070974849	-2.4469358311	-0.467738
N	 0.1029379456	-2.757290675	-0.0351224086	-0.344582
C	 0.0624571284	-2.0145342643	 1.0650137157	 0.428241
O	 0.0796842326	-2.6951987922	 2.2218530835	-0.393248
N	 0.00720004	-0.6844281964	 1.1572101489	-0.406991
H	-0.0819306978	 1.9486646384	-0.902449656	 0.123518
H	-0.9691523014	 1.7938953014	 0.6318753514	 0.145277
H	 0.7879425315	 1.8657409961	 0.6472783389	 0.14528
H	 0.0157162689	-0.1489061131	-2.1579073445	 0.094987
H	 1.0356248717	-3.5233341913	-2.4577852856	 0.147862
H	-0.720364635	-3.5942106272	-2.4744368189	 0.14786
H	 0.1144770913	-2.2839005063	-3.3436104406	 0.120326
H	 0.0459948886	-2.0285113181	 2.9212924895	 0.302016
53.2204	56.0303	174.0518	205.2654	220.5834	280.7145	321.9932	527.596	542.6429	559.8718	573.0551	575.3404	632.1711	672.4695	823.9491	854.7666	963.2371	967.8406	1010.5812	1034.1861	1055.1362	1061.3465	1099.9123	1181.9503	1243.9915	1301.9366	1372.3966	1404.6837	1408.7644	1459.4086	1473.6574	1474.839	1481.3652	1487.6529	1516.8246	1605.2825	1636.3885	3043.9342	3044.904	3104.6838	3106.7911	3132.7489	3133.0385	3203.7659	3780.8175
CC1=CC(C)=NC(O)=N1	Cc1cc(C)nc(O)n1	
InChI=1S/C6H8N2O/c1-4-3-5(2)8-6(9)7-4/h3H,1-2H3,(H,7,8,9)	InChI=1S/C6H8N2O/c1-4-3-5(2)8-6(9)7-4/h3H,1-2H3,(H,7,8,9)
