21
gdb 84444	3.28309	1.37439	1.21014	1.3627	82.98	-0.2331	0.0161	0.2492	1115.5264	0.183455	-387.091616	-387.083461	-387.082517	-387.123527	33.637	
C	-0.1872386139	 1.5473180271	 0.0096069954	-0.401238
C	 0.0371290226	 0.0264610367	 0.0029587279	-0.012293
C	 0.7633260821	-0.4407552438	-1.2425711027	-0.070919
C	 1.8736132994	-1.1667903496	-1.1192153569	-0.151185
C	 2.3744477581	-1.4989104507	 0.2760707584	 0.399385
O	 3.502175821	-2.3332048678	 0.3018768099	-0.49805
C	 1.1634548502	-1.9774737728	 1.1140593188	-0.261714
C	 0.8076000822	-0.4660194551	 1.2481138043	-0.032433
C	 2.3362445759	-0.1853154731	 1.1182333125	-0.28275
H	 0.7632688744	 2.0899548015	 0.0289067722	 0.11909
H	-0.7347271742	 1.8686670933	-0.8827001502	 0.111924
H	-0.768459188	 1.8514026233	 0.8867707496	 0.111735
H	-0.9572090879	-0.4470917986	 0.0148203674	 0.079836
H	 0.3528017428	-0.1740440387	-2.2130791388	 0.086489
H	 2.4276229225	-1.5532264317	-1.9706594158	 0.084131
H	 4.1908874319	-1.9272554568	-0.2358778926	 0.273354
H	 0.4468530895	-2.6465282808	 0.6316765348	 0.093999
H	 1.4928980907	-2.3970003562	 2.068135122	 0.101457
H	 0.315060201	-0.1452501722	 2.1684750781	 0.06265
H	 2.8454491259	-0.323245943	 2.075655589	 0.098488
H	 2.6690292838	 0.739615589	 0.6407561868	 0.088044
142.7538	215.778	243.7358	258.0094	315.5334	343.9716	388.8815	423.7466	461.5756	478.1484	596.4085	635.4867	702.3079	726.6698	775.1345	864.9551	880.0662	917.637	919.5902	949.8695	972.9611	998.3377	1016.4464	1036.1143	1050.3458	1070.9504	1108.7001	1135.8351	1158.8393	1178.3151	1195.0706	1239.3831	1248.859	1270.514	1313.9301	1335.3502	1349.4428	1365.863	1394.8258	1413.4532	1473.7589	1494.812	1498.9576	1508.5472	1695.8599	2977.0511	3030.166	3053.1136	3058.9226	3081.5989	3097.3274	3104.1312	3115.9202	3120.0684	3149.0329	3173.4872	3800.7319
CC1C=CC2(O)CC1C2	C[C@H]1C=C[C@]2(O)C[C@H]1C2	
InChI=1S/C8H12O/c1-6-2-3-8(9)4-7(6)5-8/h2-3,6-7,9H,4-5H2,1H3	InChI=1S/C8H12O/c1-6-2-3-8(9)4-7(6)5-8/h2-3,6-7,9H,4-5H2,1H3/t6-,7-,8-/m0/s1
