23
gdb 115287	3.44496	0.95589	0.91135	2.2067	82.34	-0.2434	0.0676	0.3109	1431.199	0.204538	-425.435881	-425.42591	-425.424966	-425.470964	37.856	
C	 0.1460513371	 1.2706181069	-0.2786023065	-0.237412
O	-0.0164853494	-0.0404180849	 0.2070946527	-0.244097
C	-1.3405618529	-0.5265650639	 0.1162237504	 0.153929
C	-1.8279529777	-0.8454895568	-1.3141499634	-0.238159
C	-2.8987567172	-1.9136718392	-1.0715236104	-0.244328
C	-2.2508387164	-2.8402183734	-0.0159470315	 0.395561
C	-3.2528708132	-3.7031699267	 0.7486279708	-0.453569
O	-1.2703855212	-3.6761556733	-0.6498244235	-0.472421
C	-1.442783959	-1.8680406009	 0.8785921461	-0.252869
H	 1.1823344771	 1.5610067151	-0.0875167926	 0.124364
H	-0.0443357471	 1.3455350759	-1.3595760629	 0.105175
H	-0.5210574896	 1.9812588152	 0.236370692	 0.098687
H	-2.0227015051	 0.215319715	 0.5669216614	 0.054093
H	-2.1979916294	 0.0280695408	-1.8570166508	 0.086964
H	-0.992838981	-1.2788011926	-1.8738454347	 0.117326
H	-3.8080689345	-1.4579828351	-0.6585554832	 0.092229
H	-3.1915380211	-2.4616038676	-1.9738254863	 0.082867
H	-3.8089000454	-4.3548900331	 0.0630154608	 0.100851
H	-2.7339805404	-4.3384622331	 1.4726566368	 0.124849
H	-3.9819511103	-3.0875485574	 1.2852585032	 0.112123
H	-1.736444598	-4.2649055263	-1.2539074457	 0.270653
H	-0.4407749895	-2.2718317343	 1.0354289194	 0.130541
H	-1.9121366556	-1.7383779404	 1.8567069479	 0.092645
33.8724	98.712	177.9917	204.0384	229.6798	252.4444	300.4734	325.7085	348.0031	405.4088	411.0592	452.1708	490.0844	575.7503	599.4798	754.8166	812.7436	871.7207	901.6128	923.6115	942.642	990.4784	1009.7111	1041.2945	1055.5795	1079.6771	1126.0927	1150.4407	1176.3432	1185.7064	1199.6684	1220.6283	1242.5857	1267.023	1294.4485	1319.1903	1345.5476	1347.72	1384.9566	1399.3311	1406.5461	1473.2502	1479.1272	1480.8969	1487.4091	1491.844	1494.3811	1497.7991	1510.8189	2941.1163	2969.0678	3018.1102	3020.6672	3026.0915	3053.9177	3069.6689	3072.7159	3088.7255	3106.9572	3109.4681	3111.8501	3126.3076	3796.8128
COC1CCC(C)(O)C1	CO[C@H]1CC[C@@](C)(O)C1	
InChI=1S/C7H14O2/c1-7(8)4-3-6(5-7)9-2/h6,8H,3-5H2,1-2H3	InChI=1S/C7H14O2/c1-7(8)4-3-6(5-7)9-2/h6,8H,3-5H2,1-2H3/t6-,7+/m0/s1
