14
gdb 5774	6.20685	1.47182	1.29008	1.9942	65.28	-0.2222	0.0016	0.2238	916.6158	0.108252	-382.54089	-382.534407	-382.533462	-382.572035	24.036	
C	 0.4551978647	 1.5003739717	 0.2167461682	-0.177919
O	 1.1593794507	 0.3585623315	-0.2637694096	-0.231591
C	-0.2239674312	 0.2000585725	 0.1007143827	-0.046389
C	-0.5345073329	-0.64510469	 1.2586162617	 0.390938
C	-1.4204226504	-1.6654166597	 1.4337364709	-0.282395
C	-1.2757398181	-2.0994992056	 2.7906822812	-0.17029
C	-0.3119092289	-1.3114066118	 3.3330357606	-0.015161
O	 0.1470563412	-0.4186250256	 2.4173212001	-0.177257
H	 0.7540461982	 1.8516757581	 1.2021897876	 0.127419
H	 0.2514672216	 2.2767084971	-0.5202121672	 0.115464
H	-0.8916375946	 0.0373145962	-0.7441073687	 0.102403
H	-2.0901625319	-2.0617326993	 0.6864966093	 0.113267
H	-1.8134523272	-2.8914589289	 3.2874750706	 0.115081
H	 0.1460695188	-1.2572796562	 4.3067972328	 0.13643
72.6629	161.4996	189.0543	415.77	432.6423	612.1545	659.4899	710.8069	754.4303	805.8951	829.8031	854.0639	894.2653	902.4123	957.7716	993.5452	1039.5999	1094.8833	1107.7947	1158.1708	1165.5923	1191.4917	1236.9181	1257.1236	1299.9663	1398.9521	1424.4218	1514.8421	1545.9504	1640.8057	3085.1688	3126.6761	3179.3335	3252.4484	3263.667	3287.0413
C1OC1C1=CC=CO1	C1O[C@H]1c1ccco1	
InChI=1S/C6H6O2/c1-2-5(7-3-1)6-4-8-6/h1-3,6H,4H2	InChI=1S/C6H6O2/c1-2-5(7-3-1)6-4-8-6/h1-3,6H,4H2/t6-/m1/s1
