19
gdb 94124	3.36871	0.9391	0.8921	4.7718	72.33	-0.237	-0.0125	0.2246	1359.0716	0.158111	-460.172345	-460.163169	-460.162225	-460.207396	32.916	
O	-0.6300042287	 1.3242318602	 0.7079004165	-0.42981
C	-0.090420737	 0.1298770312	 0.153315062	 0.108112
C	 0.6698812725	-0.7106238967	 1.1826790755	-0.090146
O	-0.3135236947	-1.4166590393	 1.9244724744	-0.274425
C	-1.5360418476	-1.5060902197	 1.1747038635	 0.117543
C	-2.6716578376	-0.8671121311	 1.9919222852	-0.287015
C	-2.8314094073	-1.4942131758	 3.3589431412	 0.152292
O	-3.8763001369	-1.9007586318	 3.8031870051	-0.248329
C	-1.2662820264	-0.7953641699	-0.1694141114	-0.26316
H	 0.0949643198	 1.8515086695	 1.0585389865	 0.286052
H	 0.5259077253	 0.3514429272	-0.7285754625	 0.072812
H	 1.3546447208	-1.4081671721	 0.6739425516	 0.093618
H	 1.2610212223	-0.1009895388	 1.8763016216	 0.099612
H	-1.7587341752	-2.5688352684	 1.0145424733	 0.085322
H	-2.4237449731	 0.1938651144	 2.1221597792	 0.138922
H	-3.6249974118	-0.9449121819	 1.4603681241	 0.112394
H	-1.8924047719	-1.5542118793	 3.9491358255	 0.092085
H	-2.1259123623	-0.2330337725	-0.5378290613	 0.124899
H	-0.9697601802	-1.5174697351	-0.9351337499	 0.109223
48.8796	81.1781	95.5287	139.8937	213.2964	288.6219	338.7008	389.1607	395.7596	429.8562	515.6991	723.7449	780.7291	807.9834	835.5392	866.4118	886.7358	961.4752	974.2031	993.506	1037.2674	1048.8339	1092.3506	1116.4117	1147.4065	1187.7531	1199.2764	1232.8015	1260.044	1278.5565	1322.9052	1333.5958	1351.5222	1386.6438	1390.9203	1416.8234	1424.7978	1457.3268	1480.2186	1512.0811	1826.8519	2913.0417	2974.639	3013.679	3015.6432	3039.4084	3053.4931	3072.0269	3103.3605	3129.1795	3816.914
OC1COC(CC=O)C1	O[C@H]1CO[C@@H](CC=O)C1	
InChI=1S/C6H10O3/c7-2-1-6-3-5(8)4-9-6/h2,5-6,8H,1,3-4H2	InChI=1S/C6H10O3/c7-2-1-6-3-5(8)4-9-6/h2,5-6,8H,1,3-4H2/t5-,6+/m1/s1
