21
gdb 93718	2.53214	1.22004	1.11834	3.1338	82.67	-0.2377	0.0368	0.2745	1242.9983	0.18315	-383.300082	-383.290562	-383.289618	-383.33451	35.651	
C	-0.0594168846	 1.5833320333	 0.0041972869	-0.415452
C	 0.0448453954	 0.0596701557	 0.0174504496	 0.02973
C	 0.8227714499	-0.5352587061	-1.1869044065	-0.172288
N	 1.6977079258	-1.5788376051	-0.6182275584	-0.314185
C	 1.2716995182	-1.8956122047	 0.7484728346	 0.119196
C	 2.4284461577	-2.4807247227	 1.5684541035	-0.42453
C	 0.7841527009	-0.5163100053	 1.2382825297	-0.225436
C	 0.1354315867	-2.8572745921	 0.759487346	 0.252027
N	-0.7371345964	-3.6159688456	 0.7168014057	-0.352647
H	 0.9347300264	 2.0447188093	 0.0159299877	 0.117934
H	-0.5813587729	 1.9368231149	-0.8910774427	 0.119865
H	-0.6115643311	 1.9503998314	 0.8754958313	 0.118876
H	-0.9675315185	-0.3596391951	 0.0112404865	 0.0973
H	 0.13003736	-0.9270142377	-1.9423260596	 0.104908
H	 1.4404904506	 0.2286171779	-1.6762004525	 0.103309
H	 1.7720169182	-2.4013787465	-1.2036301978	 0.229413
H	 3.2647834381	-1.7781132594	 1.5499839315	 0.129588
H	 2.1237377682	-2.6596055943	 2.6035215028	 0.130261
H	 2.7640574676	-3.4319903994	 1.1455047291	 0.129072
H	 1.6686450123	 0.0854125937	 1.4750645043	 0.107601
H	 0.1607183476	-0.5821234422	 2.1325014083	 0.115455
49.5789	100.3068	181.9368	196.6018	230.486	243.5532	275.976	343.7217	382.7637	420.3972	471.7558	540.7167	611.6739	638.7439	686.5899	776.0869	844.5292	898.9848	910.4445	930.7929	947.9788	990.2454	1056.0625	1066.2796	1090.6219	1150.4913	1171.2683	1191.1842	1199.1011	1229.054	1262.4111	1305.0686	1345.2486	1346.0281	1387.5187	1403.9248	1411.7282	1443.6242	1481.1459	1484.2375	1495.285	1498.0625	1500.484	1528.9325	2333.7354	3009.4798	3028.1511	3029.1234	3044.1729	3046.2271	3053.1769	3097.2452	3101.1686	3115.7465	3118.1732	3133.8181	3561.5988
CC1CNC(C)(C1)C#N	C[C@H]1CN[C@@](C)(C1)C#N	
InChI=1S/C7H12N2/c1-6-3-7(2,5-8)9-4-6/h6,9H,3-4H2,1-2H3	InChI=1S/C7H12N2/c1-6-3-7(2,5-8)9-4-6/h6,9H,3-4H2,1-2H3/t6-,7+/m1/s1
