19
gdb 56830	3.03756	1.14473	0.97526	1.7938	81.11	-0.2374	0.0496	0.287	1261.9953	0.157521	-385.781016	-385.772339	-385.771395	-385.81477	33.205	
C	 0.0496352898	 1.4907246238	 0.1737823464	-0.389112
C	 0.1342236058	-0.048736084	 0.0954611093	-0.218698
C	 0.8670932126	-0.5965332285	 1.2372937591	 0.340621
C	 1.4495797362	-1.0454740123	 2.1884828143	-0.479719
C	-1.2701915735	-0.664590367	 0.0328922709	 0.065932
C	-2.135977762	-0.6933511088	-1.2622567395	 0.01827
C	-1.2459856066	-1.8087627969	-1.8624327247	-0.234939
C	-1.5468196347	-2.1363497393	-0.3801161231	 0.032933
O	-2.9581545319	-1.7470329829	-0.6245006596	-0.30924
H	 1.0481545821	 1.9323389624	 0.2201360064	 0.12797
H	-0.4655676768	 1.8883051463	-0.7060217842	 0.117315
H	-0.5012495458	 1.8017152246	 1.0661636418	 0.13058
H	 0.6905149012	-0.3065511065	-0.8136471153	 0.105318
H	 1.9724774137	-1.4432148856	 3.0226930935	 0.197155
H	-1.8597711862	-0.3774642139	 0.9074103922	 0.091802
H	-2.6653436899	 0.1178895869	-1.7634150492	 0.093653
H	-1.7538109738	-2.4534119673	-2.5802965939	 0.111652
H	-0.221834759	-1.5772590391	-2.161156376	 0.099437
H	-1.3675216313	-3.053532432	 0.1804022317	 0.099073
47.5315	110.7473	186.442	205.9479	227.3966	305.1806	374.6056	453.6064	530.1519	560.2935	616.6437	632.5016	636.7643	731.6753	818.467	857.5549	868.1524	892.3858	901.1821	925.957	992.5676	1010.1733	1043.2024	1069.5019	1097.9889	1100.4115	1141.1004	1169.3139	1171.8724	1202.3368	1222.3564	1254.2419	1275.7076	1292.958	1324.9129	1391.968	1410.6986	1491.4752	1495.7484	1499.804	2233.5889	3031.4689	3042.1102	3075.3591	3086.7641	3111.6034	3116.0396	3124.8035	3125.8933	3150.9577	3503.7018
CC(C#C)C1C2CC1O2	C[C@@H](C#C)[C@H]1[C@H]2C[C@@H]1O2	
InChI=1S/C8H10O/c1-3-5(2)8-6-4-7(8)9-6/h1,5-8H,4H2,2H3	InChI=1S/C8H10O/c1-3-5(2)8-6-4-7(8)9-6/h1,5-8H,4H2,2H3/t5-,6-,7+,8+/m0/s1
