18
gdb 37138	3.14695	1.68681	1.66685	0.9786	73.16	-0.2408	0.0707	0.3115	907.1929	0.150391	-401.877935	-401.871306	-401.870362	-401.908586	27.727	
C	-0.0119321822	 1.5392146818	-0.0497047155	-0.205979
C	 1.4912612348	 1.9505284235	 0.0029882678	-0.277062
C	 2.1268456771	 0.8398771233	 0.8054586745	 0.19667
N	 1.4127129461	 0.4368359415	 2.0195316378	-0.379484
C	 1.1956856207	-0.3582304765	 0.8082634691	 0.196669
C	-0.0393122224	-0.0188329241	 0.0075996351	-0.277062
C	 2.3839895029	-1.2577520087	 0.4955803297	-0.060556
O	 2.9943489869	-0.7988135572	-0.7215749358	-0.233366
C	 3.2911648871	-0.0905056238	 0.4928503935	-0.060556
H	-0.5259491642	 1.9407563677	 0.8264194316	 0.12284
H	-0.5177887814	 1.9302853278	-0.9368083155	 0.096848
H	 1.9302391451	 1.9426403618	-1.0004885482	 0.115143
H	 1.6275083919	 2.9507030146	 0.4245525502	 0.104023
H	 2.0260082242	-0.0382744026	 2.6764766354	 0.232708
H	-0.9739380033	-0.3965319838	 0.4323902453	 0.104023
H	 0.0744223332	-0.4452056816	-0.9948973403	 0.115143
H	 2.5713832544	-2.2885291844	 0.7743910731	 0.105
H	 4.3369294991	-0.0168307493	 0.7690782924	 0.105
183.1949	206.9153	251.4424	403.4026	446.8987	530.1995	583.7902	641.0704	655.3195	737.7652	763.7105	796.4193	832.3808	851.34	877.1008	907.1021	912.9705	980.7248	981.2662	985.6147	1050.6081	1057.6227	1085.2695	1095.0672	1182.1983	1193.9859	1205.478	1235.5658	1242.4934	1271.3587	1279.5766	1329.5097	1341.1571	1349.893	1372.0835	1399.1468	1480.9657	1481.5371	1497.6355	3048.7653	3049.2118	3067.6604	3089.0304	3092.8998	3118.4598	3176.3295	3190.8603	3501.0484
C1CC23NC2(C1)C1OC31	C1C[C@@]23N[C@]2(C1)[C@H]1O[C@@H]31	
InChI=1S/C7H9NO/c1-2-6-4-5(9-4)7(6,3-1)8-6/h4-5,8H,1-3H2	InChI=1S/C7H9NO/c1-2-6-4-5(9-4)7(6,3-1)8-6/h4-5,8H,1-3H2/t4-,5+,6+,7-
