18
gdb 91202	2.08731	1.64936	1.57335	3.7563	73.04	-0.2543	0.0301	0.2844	1009.1952	0.146702	-439.068033	-439.059419	-439.058475	-439.101103	32.511	
C	-0.0581930439	 1.5373248838	 0.0250131516	-0.498951
C	 0.0145891787	 0.0282721189	 0.0221445713	 0.174013
C	-1.290360396	-0.795155322	 0.2692676917	 0.066296
O	-1.8203705874	-1.3679063253	-0.896060753	-0.414127
C	-0.5373872575	-1.7185530944	 1.2860717877	-0.280269
C	 0.7438259409	-0.9032480488	 1.0437275139	 0.058024
O	 1.5380185879	-1.4742057925	-0.0406786241	-0.278063
C	 0.9426297765	-0.6382661319	-0.9727474808	 0.426503
N	 1.1810117658	-0.4769481626	-2.1911547986	-0.552054
H	 0.9402751247	 1.9842530401	 0.0422523166	 0.129374
H	-0.5611346216	 1.8852250793	-0.8829705496	 0.15048
H	-0.6173250078	 1.908008332	 0.8903166523	 0.113211
H	-2.0325291188	-0.1656590967	 0.7807848294	 0.073445
H	-2.6200029337	-1.8506865926	-0.663330526	 0.288366
H	-0.9257533464	-1.6626533396	 2.3059475317	 0.105186
H	-0.4476908308	-2.7630912168	 0.9812502242	 0.119917
H	 1.3707151908	-0.5707179505	 1.8705816267	 0.0924
H	 1.9235196587	-1.1004227104	-2.512806185	 0.22625
88.4608	137.0625	178.6209	215.2545	244.6774	252.4155	365.2056	387.5155	435.8299	503.4981	606.0962	667.6701	722.5986	760.166	832.3024	861.408	883.9576	893.3776	940.9196	970.3051	1007.0812	1043.8481	1104.0374	1140.4318	1145.7709	1165.8632	1192.9033	1225.7062	1228.4612	1253.7799	1290.6722	1331.6226	1362.0181	1411.1872	1424.9252	1458.1289	1489.0687	1491.3609	1824.1759	2992.5569	3035.431	3067.6437	3105.2495	3111.1732	3119.8576	3132.196	3475.4616	3816.58
CC12C(O)CC1OC2=N	C[C@]12[C@@H](O)C[C@H]1O[C]2[NH]	
InChI=1S/C6H9NO2/c1-6-3(8)2-4(6)9-5(6)7/h3-4,7-8H,2H2,1H3	InChI=1S/C6H9NO2/c1-6-3(8)2-4(6)9-5(6)7/h3-4,7-8H,2H2,1H3/t3-,4+,6-/m0/s1
