23
gdb 60277	3.72345	0.80503	0.7787	2.0473	82.44	-0.2438	0.0738	0.3176	1612.6586	0.205538	-425.439679	-425.429598	-425.428654	-425.475868	36.721	
C	 0.012249281	 1.5601301515	 0.0224974642	-0.406195
C	-0.0119834	 0.0334516114	-0.0329750992	 0.138151
O	 0.8199988522	-0.5328743253	 0.9806603763	-0.43274
C	-1.4380531172	-0.5317016788	 0.0395080259	-0.227449
C	-1.4944555573	-2.036143874	-0.1760517792	 0.148928
C	-2.8778926753	-2.6883107814	-0.0176105245	-0.231097
C	-2.7969858115	-3.9222709794	-0.9489886947	-0.235739
C	-1.5149608938	-3.6597171938	-1.7834202345	-0.068913
O	-1.1348264502	-2.3168250169	-1.5278971398	-0.261805
H	 1.0428778683	 1.924228456	-0.0060595085	 0.122891
H	-0.5350150753	 1.9967724261	-0.8191312993	 0.11723
H	-0.45398511	 1.9256558892	 0.9471378884	 0.101284
H	 0.4391221033	-0.3039268859	-0.9720564719	 0.110193
H	 0.5043205133	-0.2055511239	 1.8307254389	 0.272261
H	-1.8702602707	-0.2916316606	 1.021569687	 0.080373
H	-2.0678350947	-0.0471160719	-0.7167291987	 0.099367
H	-0.7722841441	-2.5201301533	 0.5021359396	 0.072954
H	-3.0996168864	-2.9492301536	 1.0204394527	 0.097382
H	-3.6521928326	-1.9943398454	-0.3609742221	 0.099524
H	-2.7126860563	-4.8549461653	-0.3852212337	 0.103403
H	-3.6834092962	-4.0045917877	-1.5822024309	 0.106644
H	-0.7107044834	-4.3489835692	-1.4819970903	 0.089643
H	-1.6644170032	-3.7646957877	-2.8615698757	 0.103712
42.8844	61.0306	88.2639	118.5775	189.1503	237.1312	287.1593	305.8602	331.0875	443.4381	477.7746	489.3272	629.0611	692.5229	795.6658	831.7681	845.1792	890.2464	919.0253	937.8595	948.6726	984.8863	1013.9518	1056.5407	1073.6796	1096.3473	1125.2723	1137.7698	1165.5181	1192.0458	1224.6014	1242.2383	1266.4078	1277.4732	1307.0049	1317.8164	1332.0898	1363.0252	1368.0864	1400.1923	1403.132	1412.8616	1425.8531	1460.7843	1487.8397	1491.1978	1495.0962	1504.853	1524.206	2969.0635	2979.2222	3008.1032	3019.2173	3048.1763	3058.0022	3066.0977	3068.2254	3080.3258	3093.5142	3096.7274	3114.6804	3117.386	3789.5216
CC(O)CC1CCCO1	C[C@@H](O)C[C@H]1CCCO1	
InChI=1S/C7H14O2/c1-6(8)5-7-3-2-4-9-7/h6-8H,2-5H2,1H3	InChI=1S/C7H14O2/c1-6(8)5-7-3-2-4-9-7/h6-8H,2-5H2,1H3/t6-,7-/m1/s1
