18
gdb 103092	2.30387	1.29277	1.04278	3.0633	73.18	-0.2706	0.0134	0.284	1210.7316	0.14529	-439.083299	-439.073314	-439.07237	-439.118176	35.767	
C	-0.1538814982	 1.485982661	-0.0381433262	-0.412458
C	-0.0346272685	-0.016869043	 0.0501245393	-0.080269
C	 1.3105259146	-0.7351559244	-0.1756731339	-0.273751
C	 2.5038147669	 0.0371199918	-0.3392852849	 0.283666
N	 3.4672347605	 0.6796530004	-0.3813445343	-0.346624
C	 0.6499741915	-0.6874573054	 1.2036060427	 0.362223
O	 1.2406556451	 0.0932338759	 2.2039678384	-0.471572
C	 0.0998373229	-1.9646657707	 1.798999802	-0.103676
O	 1.1052713651	-2.7199782891	 2.4375719316	-0.415303
H	 0.6885229629	 1.9864219231	 0.4428541053	 0.138253
H	-0.1985869259	 1.8158945597	-1.0802190222	 0.132036
H	-1.0680745206	 1.8174405868	 0.4638677472	 0.131492
H	-0.872505255	-0.565958776	-0.3725988011	 0.104579
H	 1.3029795094	-1.6825220606	-0.7033548525	 0.141233
H	 2.1157526723	 0.386941323	 1.920597559	 0.308451
H	-0.7115853389	-1.6971159314	 2.4953679429	 0.103183
H	-0.3297555593	-2.5946386337	 1.0139852232	 0.108996
H	 1.5321463151	-2.1191345774	 3.0600994234	 0.289543
85.8295	108.5007	130.9426	155.9371	164.2878	210.2347	232.759	320.7699	341.4602	409.189	426.2921	451.5677	571.4278	608.9708	638.6342	713.9738	819.7127	856.9444	935.7938	984.4161	1016.0252	1018.0923	1074.7297	1092.2502	1122.5583	1138.0047	1191.0297	1216.8163	1308.7931	1338.919	1359.9958	1378.6483	1418.0101	1425.6142	1454.0971	1487.4635	1495.7862	1501.0162	2336.7828	2977.5545	3048.0118	3082.8383	3110.5023	3131.2579	3146.61	3174.9945	3767.655	3793.0507
CC1C(C#N)C1(O)CO	C[C@H]1[C@@H](C#N)[C@]1(O)CO	
InChI=1S/C6H9NO2/c1-4-5(2-7)6(4,9)3-8/h4-5,8-9H,3H2,1H3	InChI=1S/C6H9NO2/c1-4-5(2-7)6(4,9)3-8/h4-5,8-9H,3H2,1H3/t4-,5+,6-/m0/s1
