16
gdb 73777	2.43008	1.61352	0.98166	3.8522	78.11	-0.2326	-0.0677	0.1648	1142.7016	0.123414	-437.965182	-437.956184	-437.95524	-437.999092	32.429	
C	 0.0527838501	 1.5619484153	 0.0178617538	-0.534618
C	-0.0145941473	 0.0695408124	 0.0087974127	 0.102713
C	-1.1238650571	-0.7248631641	 0.0272332086	 0.205257
N	-2.4359128658	-0.424280471	 0.0786225297	-0.594625
C	-0.7432492194	-2.1703266424	-0.0019108629	 0.358392
O	-1.5519416679	-3.0711677147	-0.0210888241	-0.33487
C	 0.7692039362	-2.2439164092	-0.014797404	-0.456145
C	 1.1919903182	-0.7695291188	-0.0198546936	 0.327935
O	 2.3373488619	-0.3679237226	-0.0440279883	-0.346022
H	 1.099149088	 1.8742693058	-0.0138889965	 0.162519
H	-0.4634730856	 2.0000436487	-0.8458130105	 0.126505
H	-0.4068692925	 1.984822407	 0.9198363151	 0.13121
H	-2.7737891234	 0.5123772067	-0.0524787681	 0.268883
H	-3.0819900586	-1.1922626034	-0.0224745604	 0.276003
H	 1.1556659643	-2.7693649587	 0.8647067339	 0.153841
H	 1.1421534691	-2.7753908807	-0.8961231555	 0.153022
80.8591	103.3962	121.4082	214.8979	232.1074	252.5584	287.4132	379.1213	469.1607	531.5048	562.4503	579.3963	591.2666	634.0292	690.1691	710.5407	834.5323	956.5851	974.0572	1039.2645	1050.1341	1134.5841	1167.517	1206.2084	1245.3992	1305.5635	1385.4323	1421.8871	1431.064	1486.2435	1491.8499	1611.0877	1702.4635	1781.145	1823.0787	3016.5894	3059.4419	3063.8401	3098.9547	3126.6261	3591.5118	3727.3561
CC1=C(N)C(=O)CC1=O	CC1=C(N)C(=O)CC1=O	
InChI=1S/C6H7NO2/c1-3-4(8)2-5(9)6(3)7/h2,7H2,1H3	InChI=1S/C6H7NO2/c1-3-4(8)2-5(9)6(3)7/h2,7H2,1H3
