14
gdb 125460	7.25231	0.86697	0.77972	3.0385	67.85	-0.2716	-0.0327	0.2388	1394.2771	0.100261	-470.008516	-470.000162	-469.999218	-470.043142	28.195	
C	-0.0252238239	 1.4432508706	 0.080570876	-0.495341
C	-0.0735246701	-0.0364426203	-0.030113892	 0.42735
N	-1.0340012898	-0.8407940008	 0.3188481549	-0.357157
C	-0.510377643	-2.0566920957	-0.0213945981	 0.462812
O	-1.2375228647	-3.1611200089	 0.1906177951	-0.205806
C	-0.6172800358	-4.3838579995	 0.0647823232	 0.113697
N	-1.3393513391	-5.4092999194	 0.1011043377	-0.413559
N	 0.6865219836	-2.0388801602	-0.5531490848	-0.227318
O	 0.98804642	-0.6664419105	-0.5517247503	-0.197476
H	 0.8295290173	 1.7547575798	 0.6880452249	 0.162983
H	 0.087017203	 1.8977331047	-0.9083406582	 0.164068
H	-0.9469392973	 1.7988456125	 0.5399224194	 0.170008
H	 0.4663579142	-4.3076537066	-0.0397426114	 0.151188
H	-0.7618910843	-6.2448957357	 0.0266695935	 0.24455
52.5435	52.823	78.9605	168.3647	225.1416	319.7528	379.337	449.9613	528.5965	663.1009	704.3118	772.4846	819.7954	844.4375	943.0236	998.035	1022.1139	1049.7359	1054.1504	1069.2288	1117.7693	1255.9504	1299.0112	1404.5176	1406.8355	1429.2646	1474.0216	1474.7437	1575.2153	1639.1738	1756.308	3055.4641	3115.7033	3121.9276	3167.3955	3520.2904
CC1=NC(OC=N)=NO1	Cc1nc(O[CH][NH])no1	
InChI=1S/C4H5N3O2/c1-3-6-4(7-9-3)8-2-5/h2,5H,1H3	InChI=1S/C4H5N3O2/c1-3-6-4(7-9-3)8-2-5/h2,5H,1H3
