20
gdb 117089	2.92375	0.91396	0.73335	1.5838	81.1	-0.2317	-0.0164	0.2153	1602.6424	0.170029	-436.518139	-436.507419	-436.506475	-436.554934	37.671	
C	 0.4373857824	 1.2309181092	 0.2728399524	-0.37171
C	-0.3719009546	 0.1078774848	-0.3804116359	-0.146348
N	 0.3394923099	-0.5363045693	-1.4674132773	-0.312022
C	 0.7755645596	-1.808457222	-1.424379624	 0.393225
O	 0.6094481509	-2.5966775816	-0.5010677642	-0.411519
C	 1.5391074101	-2.2291802953	-2.6758321539	 0.28461
N	 1.8754092752	-3.5472791027	-2.6407076979	-0.54715
N	 1.7595746406	-1.3644337883	-3.5935688735	-0.310079
C	 2.4851572703	-1.8053362135	-4.7698277795	-0.341005
H	 1.3683910731	 0.8426489568	 0.6956679991	 0.130953
H	 0.6924079486	 2.0105121842	-0.4529841193	 0.116894
H	-0.1398608059	 1.6973360282	 1.0774149398	 0.118986
H	-0.599968077	-0.6763627925	 0.3452877677	 0.145158
H	-1.3251862349	 0.5011846728	-0.7554021522	 0.108535
H	 0.597393388	-0.0320636108	-2.3070551907	 0.259301
H	 1.7154042263	-4.0032240844	-1.7537286085	 0.274462
H	 2.5756060413	-3.9152575197	-3.2595543222	 0.25871
H	 3.5082590816	-2.1374913317	-4.5277377266	 0.108594
H	 1.9816208027	-2.6424349494	-5.2786483764	 0.115736
H	 2.5694263815	-0.980893825	-5.481827197	 0.124668
34.3385	73.8126	91.9431	146.1417	153.4829	203.9016	233.7943	290.5425	301.2468	348.7733	375.8196	429.3283	510.2279	566.6278	621.8202	667.5819	708.6288	785.0014	817.2028	891.0184	914.2279	1002.1524	1075.3205	1106.551	1112.6087	1126.8427	1182.4193	1200.3506	1242.0471	1320.3983	1365.9232	1393.7609	1410.6582	1434.939	1488.0289	1491.6529	1492.5633	1502.9464	1504.3342	1570.3972	1593.4136	1734.103	1774.7261	2962.6126	3008.4229	3026.6369	3036.1322	3097.5596	3102.9524	3114.8828	3123.0517	3566.1586	3577.6924	3726.5878
CCNC(=O)C(N)=NC	CCNC(=O)C(=NC)N	
InChI=1S/C5H11N3O/c1-3-8-5(9)4(6)7-2/h3H2,1-2H3,(H2,6,7)(H,8,9)	InChI=1S/C5H11N3O/c1-3-8-5(9)4(6)7-2/h3H2,1-2H3,(H2,6,7)(H,8,9)
