17
gdb 127853	4.99895	1.0501	0.87752	2.3815	87.83	-0.2098	-0.0427	0.167	1313.1517	0.136122	-414.161872	-414.153054	-414.15211	-414.19639	30.944	
C	-0.1040936879	 1.3993893501	 0.0634712659	-0.326649
N	-0.0363559033	-0.0507408715	 0.0182760339	-0.312207
C	 0.5669360034	-0.5989892126	-0.9776192738	 0.208407
C	 1.2245391601	 0.0335665567	-2.1180594709	-0.050838
N	 1.7983031758	-0.631210416	-3.0780998526	-0.20106
N	 1.7732361848	-1.9622058432	-3.0195340502	 0.123833
C	 2.4898632744	-2.6963463374	-4.0498478539	-0.30323
N	 1.2341905813	-2.6942679707	-2.0261198288	-0.224974
C	 0.6594345204	-2.0482241817	-1.0612707978	 0.018793
H	 0.890822515	 1.8682415443	 0.1189467959	 0.11274
H	-0.6173937067	 1.8292753044	-0.8109339242	 0.112077
H	-0.6601588378	 1.7040363165	 0.953733326	 0.121959
H	 1.2661655409	 1.1118711316	-2.2192309051	 0.126403
H	 3.4670585666	-3.0300112646	-3.6838281378	 0.144711
H	 1.9027693399	-3.5693594989	-4.3389478135	 0.154185
H	 2.6270112193	-2.0309872997	-4.9006870571	 0.158331
H	 0.2206663339	-2.6462873072	-0.2683332363	 0.137518
45.0704	72.3367	112.8288	190.3562	210.3624	240.042	364.8181	444.9957	451.8921	504.0609	557.2696	665.0695	739.6012	778.6696	807.9579	913.6263	962.1738	997.1923	1031.2872	1047.663	1093.5445	1147.5812	1161.7298	1252.7034	1306.5088	1335.6179	1368.4367	1391.1417	1432.8981	1445.3088	1482.3353	1487.4911	1504.5582	1505.6723	1574.5984	1624.8487	1689.7672	2967.8765	3014.0369	3043.3823	3097.6447	3123.1172	3176.8839	3185.474	3200.236
CN=C1C=NN(C)N=C1	CN=c1cnn(C)nc1	
InChI=1S/C5H8N4/c1-6-5-3-7-9(2)8-4-5/h3-4H,1-2H3	InChI=1S/C5H8N4/c1-6-5-3-7-9(2)8-4-5/h3-4H,1-2H3
