18
gdb 37708	2.73152	2.26936	2.05724	0.7492	72.01	-0.2334	0.0785	0.3119	800.2717	0.152846	-401.926639	-401.921037	-401.920093	-401.956181	24.991	
C	-0.0287605442	 1.5663106819	 0.0140392741	-0.227571
C	 1.4711658492	 1.8271251691	-0.0165564461	-0.014427
C	 2.0870246059	 0.5702188272	 0.6574731681	 0.075609
O	 1.0168497524	-0.3139446719	 0.9535014356	-0.272589
C	-0.0117984602	 0.0252500305	 0.0071619251	 0.071554
C	 0.4120448514	-0.4477623865	-1.3897373303	-0.241579
C	 1.7688914453	 0.1479445352	-1.7261272393	-0.019198
C	 2.7961595179	 0.3062099333	-0.6775178071	-0.060762
N	 2.1621715897	 1.5275962645	-1.3337617783	-0.172403
H	-0.468899655	 1.9491982611	 0.9393403508	 0.107256
H	-0.5581660476	 1.995685294	-0.8407024141	 0.108951
H	 1.7941277489	 2.8001713756	 0.3514990112	 0.082907
H	 2.7167017069	 0.6847216337	 1.5390808082	 0.084562
H	-0.9362476014	-0.4477490006	 0.3432570096	 0.078724
H	 0.4837590168	-1.5408921201	-1.4162289009	 0.110528
H	-0.3372199765	-0.1464878545	-2.1315426556	 0.102963
H	 2.1436700544	-0.0816176899	-2.7205038857	 0.096191
H	 3.844614916	 0.0608640376	-0.8121829555	 0.089283
308.1404	374.9794	413.2144	507.1181	533.3345	630.4973	646.5698	725.4991	757.1687	817.8274	824.7555	864.7756	880.5953	906.9255	912.6909	945.886	968.6989	987.2059	1018.9547	1047.5727	1062.0372	1068.4249	1077.5528	1099.8737	1169.4145	1199.1883	1220.2648	1227.4962	1248.2333	1278.2653	1302.2881	1320.0717	1340.089	1348.1207	1367.1446	1383.6805	1435.0149	1470.6414	1485.2753	3031.4455	3057.865	3072.8536	3098.711	3111.5574	3115.5505	3124.9176	3138.8747	3164.3443
C1C2C3OC1CC1C3N21	C1[C@H]2[C@H]3O[C@@H]1C[C@@H]1[C@H]3N21	
InChI=1S/C7H9NO/c1-3-2-5-7(9-3)6-4(1)8(5)6/h3-7H,1-2H2	InChI=1S/C7H9NO/c1-3-2-5-7(9-3)6-4(1)8(5)6/h3-7H,1-2H2/t3-,4-,5+,6-,7-,8?/m1/s1
