18
gdb 36349	5.01696	0.80081	0.76089	2.334	76.82	-0.2562	0.0279	0.2841	1473.57	0.147367	-401.921908	-401.913241	-401.912297	-401.956208	31.267	
N	-0.0842422411	-1.04715059	-0.6788598901	-0.302748
C	-0.038818369	 0.0151106076	-0.2267120936	 0.269176
C	 0.0370684821	 1.3601049453	 0.3469936532	-0.371627
C	 1.4293233397	 1.9626016899	 0.2352015301	-0.063261
C	 1.8598147379	 2.6521987728	-1.0397411464	-0.343837
C	 1.5996603313	 3.4517650097	 0.1996056602	 0.26755
C	 0.5685377991	 4.5527401828	 0.4410562549	-0.138097
O	 1.5254470483	 5.3054290227	 1.215153423	-0.272093
C	 2.5592624569	 4.3171997836	 1.0107666124	-0.136275
H	-0.6950181762	 1.9944959526	-0.1663265799	 0.151345
H	-0.2790676483	 1.3061839602	 1.3957958837	 0.157209
H	 2.1963405484	 1.4026054124	 0.7635205648	 0.109425
H	 2.8857161158	 2.5254932632	-1.3697712229	 0.126358
H	 1.1375249269	 2.719938895	-1.84852728	 0.123747
H	 0.23870269	 5.1004914339	-0.4514269641	 0.107724
H	-0.3127735856	 4.276577712	 1.0363667951	 0.10187
H	 2.9129253822	 3.8892843138	 1.9579961228	 0.105725
H	 3.4150418315	 4.7260507625	 0.4577639667	 0.107807
52.6782	86.2857	112.1475	183.7493	214.7742	325.6375	387.893	394.1137	429.8768	507.5463	605.0806	830.4061	854.5932	869.3734	886.4394	897.81	932.4818	982.134	988.1335	1033.7829	1047.8393	1066.9588	1102.4362	1130.5442	1146.8793	1153.6998	1163.9223	1213.6734	1259.6313	1306.1132	1315.7971	1332.6913	1382.4251	1441.0782	1462.6492	1502.849	1510.3424	1534.7086	2363.4814	2994.6769	3007.4367	3036.0977	3039.18	3046.3992	3073.2195	3122.1829	3146.8236	3208.0655
N#CCC1CC11COC1	N#CC[C@H]1CC21COC2	
InChI=1S/C7H9NO/c8-2-1-6-3-7(6)4-9-5-7/h6H,1,3-5H2	InChI=1S/C7H9NO/c8-2-1-6-3-7(6)4-9-5-7/h6H,1,3-5H2/t6-/m0/s1
