13
gdb 133000	4.10361	1.1735	0.91768	3.4326	66.49	-0.2568	-0.0525	0.2043	1168.3631	0.08883	-494.051715	-494.044188	-494.043244	-494.084432	26.735	
C	 0.0173569749	 1.4345397049	 0.1237160583	-0.331266
N	-0.0153230081	-0.0114868745	 0.1207579222	-0.272026
C	-1.1054864434	-0.6296761072	-0.047841561	 0.397461
N	-2.3653721835	 0.0099345946	-0.2446354576	-0.277416
C	-3.3851826285	-0.7090539484	-0.4017793546	 0.124679
O	-3.4078117884	-2.0922634521	-0.4028567367	-0.200729
C	-2.1806244979	-2.6338823373	-0.2114173853	 0.404085
F	-2.2881277298	-3.9348033601	-0.2260195046	-0.032269
N	-1.0875164035	-2.0454837189	-0.0427054461	-0.37068
H	 0.7117835994	 1.76850791	-0.6562494902	 0.131692
H	-0.9543284629	 1.9158040744	-0.0291193167	 0.128738
H	 0.4402450297	 1.7711276886	 1.0776630843	 0.131702
H	-4.3858235779	-0.319858644	-0.5578812819	 0.166028
75.1678	124.9428	162.3682	243.0964	311.3452	409.4769	419.8469	511.0831	556.356	646.0216	713.3334	773.6754	786.4219	918.2912	942.5374	952.9639	1031.9196	1094.1267	1130.58	1150.862	1257.163	1330.116	1400.7853	1432.2349	1488.7211	1492.2957	1690.4611	1741.353	1811.3799	3018.0104	3074.0267	3095.7225	3205.045
CN=C1N=COC(F)=N1	CN=c1ncoc(F)n1	
InChI=1S/C4H4FN3O/c1-6-4-7-2-9-3(5)8-4/h2H,1H3	InChI=1S/C4H4FN3O/c1-6-4-7-2-9-3(5)8-4/h2H,1H3
