15
gdb 37864	2.53267	2.25157	2.25135	0.0005	61.13	-0.2038	0.0308	0.2346	758.4804	0.115147	-457.685082	-457.679336	-457.678392	-457.71494	24.167	
O	 0.0182192412	 1.3957169553	 0.0102834234	-0.253702
C	 1.3085361813	 1.958933289	 0.0002676197	 0.01425
C	 2.416038363	 1.2417895807	 0.7415359796	 0.013697
O	 2.1100454673	 0.0411653162	 1.4104702609	-0.253607
C	 1.1384296672	-0.7292831207	 0.7434027818	 0.013696
C	 0.0309401564	-0.012114918	 0.0021375827	 0.014252
C	 1.1229996066	-0.720771567	-0.7699405105	 0.014046
O	 2.0804074508	 0.0576696944	-1.4480906838	-0.253717
C	 2.4006629652	 1.2503787625	-0.7718059886	 0.014047
H	 1.2462433024	 3.0410873988	 0.0067645891	 0.112828
H	 3.1658249569	 1.7981718925	 1.2922262404	 0.112843
H	 0.9371813516	-1.64017075	 1.2954748523	 0.112844
H	-0.9823243009	-0.397100167	 0.0100279743	 0.112828
H	 0.9106451147	-1.6255130309	-1.3279378593	 0.112848
H	 3.1393565163	 1.812904034	-1.3311897622	 0.112847
229.3945	230.4732	486.5925	516.669	610.2654	611.1071	618.8797	714.9563	715.1549	748.2096	748.794	815.3335	815.9814	872.142	969.1265	1043.2822	1043.7189	1085.3659	1086.2543	1097.0513	1102.5516	1135.8755	1136.4328	1176.0336	1187.5337	1188.2454	1279.689	1295.5477	1296.3728	1372.7814	1373.5324	1410.6384	1479.8892	3170.01	3170.4176	3171.8304	3172.2294	3181.2907	3183.9201
O1C2C3OC4C1C4OC23	O1[C@H]2[C@H]3O[C@H]4[C@@H]1[C@H]4O[C@@H]23	
InChI=1S/C6H6O3/c7-1-2-3(1)9-6-4(7)5(6)8-2/h1-6H	InChI=1S/C6H6O3/c7-1-2-3(1)9-6-4(7)5(6)8-2/h1-6H/t1-,2+,3-,4+,5-,6+
