18
gdb 108630	3.2105	1.12328	0.84687	3.8993	76.68	-0.2024	0.0064	0.2087	1319.0927	0.146511	-439.134515	-439.125012	-439.124068	-439.169661	34.103	
C	 0.1807481132	 1.577351368	 0.005655254	-0.512234
C	-0.0103497063	 0.0969597581	 0.0221229492	 0.276462
C	-1.1065363477	-0.6799595255	-0.0180223351	 0.154376
C	-2.5562123972	-0.3285779162	-0.1041851981	-0.177462
O	-2.7753979178	 1.0549206157	 0.1263308385	-0.41035
C	-0.6732175117	-2.1278004018	 0.0184852789	-0.447384
C	 0.8595555991	-2.0592388529	 0.0946030134	 0.417209
O	 1.6571412095	-2.9671311844	 0.1487519401	-0.374198
N	 1.1488001349	-0.71228436	 0.0883152208	-0.365807
H	 0.8068364657	 1.8741827517	-0.8453982958	 0.125278
H	-0.7784370774	 2.0840617597	-0.0627365304	 0.170672
H	 0.6954717501	 1.9123708053	 0.9151669685	 0.12791
H	-2.9473986716	-0.6245273222	-1.0949283732	 0.096708
H	-3.1104621193	-0.9379648124	 0.632245215	 0.09496
H	-3.7038383142	 1.2394433104	-0.0408365102	 0.290745
H	-1.0576885851	-2.6793688488	 0.8853268007	 0.139791
H	-0.9672601507	-2.7011488594	-0.8696526875	 0.138733
H	 2.0904790666	-0.3607381656	 0.1472366213	 0.254591
26.5541	109.6583	163.0886	189.985	218.7351	233.0974	266.2687	311.0929	360.7608	431.9235	524.8814	552.7926	596.4116	604.0887	672.5088	778.6351	875.5119	926.6772	996.2928	1038.4059	1066.3063	1070.9569	1096.5468	1152.22	1184.7907	1202.312	1237.7999	1261.7728	1300.1038	1310.6294	1404.4429	1422.1244	1441.7846	1471.7424	1489.8003	1491.4698	1516.2288	1745.6553	1837.2582	2928.1736	2939.7267	3020.538	3032.6271	3063.3095	3064.1006	3187.9141	3656.6551	3836.5788
CC1=C(CO)CC(=O)N1	CC1=C(CO)CC(=O)N1	
InChI=1S/C6H9NO2/c1-4-5(3-8)2-6(9)7-4/h8H,2-3H2,1H3,(H,7,9)	InChI=1S/C6H9NO2/c1-4-5(3-8)2-6(9)7-4/h8H,2-3H2,1H3,(H,7,9)
