22
gdb 87563	2.47576	1.42047	1.22791	1.6496	85.92	-0.2206	0.0826	0.3032	1169.3513	0.193785	-367.157378	-367.148383	-367.147438	-367.190612	35.095	
C	 0.067904977	 1.919324716	 0.7395159773	-0.404908
C	 0.0139155663	 0.4288021855	 0.4868616566	-0.061455
C	 1.2545740499	-0.3293063272	 0.0635679148	-0.373974
C	 0.6727208158	-0.5424993309	 1.428166428	 0.356506
C	 1.3376691759	-0.2628806313	 2.7550353172	-0.117159
C	 0.3386180528	-0.2837317838	 3.8416494983	-0.246841
N	 0.84754934	-1.5769052784	 3.3436501184	-0.143204
C	 0.1617253139	-1.8682222579	 2.0211909953	-0.020729
C	-1.3211377593	-2.1914698821	 2.070358309	-0.407462
H	 1.0155976834	 2.2064154221	 1.206769851	 0.116209
H	-0.0257207694	 2.4839890303	-0.1946351524	 0.117628
H	-0.7386894393	 2.2425371089	 1.4070541213	 0.116457
H	-0.9148463805	 0.0794129429	 0.0402461009	 0.081467
H	 1.1570768692	-1.1251516093	-0.669071582	 0.108789
H	 2.185517166	 0.2267501996	-0.0072055899	 0.109425
H	 2.3614034697	 0.070572734	 2.8955836355	 0.093412
H	 0.6784404198	-0.072178766	 4.8511738715	 0.118206
H	-0.6848599406	 0.019076003	 3.6377357398	 0.110656
H	 0.7007216774	-2.7142171294	 1.5815376198	 0.086096
H	-1.9178450594	-1.3676025161	 2.4719663112	 0.116246
H	-1.6965105515	-2.4123072329	 1.0650671136	 0.117085
H	-1.4933014471	-3.0748566071	 2.6939398549	 0.127549
111.3666	134.3978	174.0497	199.9811	221.0747	252.9904	308.1462	394.6429	427.5894	487.5441	541.437	596.5242	724.2854	765.3489	772.4933	809.4801	872.1839	898.7816	909.348	932.5038	965.2537	1026.188	1051.1816	1055.3698	1091.8682	1095.3877	1104.7961	1116.0188	1118.2273	1129.576	1162.3816	1185.1179	1218.7267	1242.2624	1277.6445	1297.5513	1369.4592	1378.7552	1406.4251	1413.9712	1437.08	1485.9839	1489.1066	1491.2355	1496.0007	1505.1943	1508.2649	3027.2186	3035.302	3044.0768	3088.4256	3095.4829	3099.7528	3110.8376	3112.4535	3116.8828	3129.4761	3153.7849	3195.8926	3198.9774
CC1CC11C2CN2C1C	C[C@H]1C[C@]21[C@H]1CN1[C@H]2C	
InChI=1S/C8H13N/c1-5-3-8(5)6(2)9-4-7(8)9/h5-7H,3-4H2,1-2H3	InChI=1S/C8H13N/c1-5-3-8(5)6(2)9-4-7(8)9/h5-7H,3-4H2,1-2H3/t5-,6-,7+,8+,9?/m0/s1
