16
gdb 43848	3.08966	1.30592	1.02294	3.8099	69.51	-0.2379	-0.0931	0.1448	1135.5563	0.123902	-437.891486	-437.883697	-437.882753	-437.92425	29.528	
O	-0.1648605946	 0.2119343591	-0.7380711773	-0.273497
C	-0.1139188425	 1.2836382407	-0.2028702007	 0.319502
C	-1.2052298809	 1.9993418069	 0.5873006547	-0.430018
C	-0.7657150042	 3.4612253915	 0.6080839483	 0.328781
C	-1.5822771493	 4.5091508144	-0.055859102	-0.285303
N	-1.4460301467	 4.46992333	 1.4157266549	-0.360267
C	 0.7596450395	 3.4796058025	 0.5646694861	-0.395426
C	 1.1379859986	 2.2235784813	-0.2085152891	 0.314103
O	 2.1788811744	 1.9569930512	-0.741434408	-0.274535
H	-2.1974987055	 1.8209467073	 0.1665947512	 0.139447
H	-1.1964208765	 1.5833824839	 1.6065771253	 0.14357
H	-1.0970366751	 5.3552158521	-0.5349516767	 0.127442
H	-2.5299993567	 4.2176313664	-0.5012018012	 0.119661
H	-2.289365495	 4.0805577527	 1.8318553317	 0.234231
H	 1.190226183	 4.3793870258	 0.1212320901	 0.144947
H	 1.1674505315	 3.3900926741	 1.5818642826	 0.147362
75.5775	82.4402	289.2772	312.0346	337.2144	354.2646	372.748	477.9682	499.6525	584.1997	644.7623	699.4114	752.0736	846.6237	887.6331	926.9135	942.0534	949.0815	992.2184	1039.6097	1063.8374	1133.422	1139.1283	1147.7428	1180.8401	1238.7441	1258.9661	1269.4503	1324.7969	1409.0918	1436.0184	1451.3673	1514.6391	1844.724	1868.9027	3004.0285	3021.7459	3105.8278	3107.4019	3116.275	3193.7935	3490.0109
O=C1CC2(CN2)CC1=O	O=C1CC2(CN2)CC1=O	
InChI=1S/C6H7NO2/c8-4-1-6(3-7-6)2-5(4)9/h7H,1-3H2	InChI=1S/C6H7NO2/c8-4-1-6(3-7-6)2-5(4)9/h7H,1-3H2
