20
gdb 112593	3.18383	0.96376	0.867	3.5214	80.43	-0.2616	0.0364	0.298	1415.461	0.16942	-403.149866	-403.140161	-403.139217	-403.1847	35.325	
C	 0.1115341124	 1.3074447795	 0.3027826065	-0.245553
O	-0.2993885406	 0.0311249102	-0.1402055946	-0.239034
C	 0.4676079783	-0.4626216596	-1.1998524809	 0.168274
C	 1.8697745161	-1.0618417134	-0.8881352166	-0.292696
C	 1.5130359993	-2.2777853542	-1.8159804019	 0.126348
C	 1.8787958853	-3.6772158846	-1.3139122863	-0.448492
C	 0.0087115997	-1.8417224541	-1.7051223232	-0.294022
C	 2.0243525729	-2.0735960073	-3.1704211091	 0.256072
N	 2.4311898502	-1.9149154427	-4.2415221971	-0.347262
H	 1.1402715197	 1.2963913166	 0.69261113	 0.110583
H	 0.0563647246	 2.053119199	-0.5051091645	 0.111319
H	-0.5654889793	 1.6048401155	 1.1065969283	 0.131667
H	 0.5266652203	 0.2744010861	-2.0147495948	 0.084848
H	 2.7604134514	-0.4845324857	-1.139301407	 0.119549
H	 1.9209256865	-1.3927408724	 0.1528349229	 0.114775
H	 1.4913287204	-3.818990418	-0.3010526315	 0.123798
H	 1.451128613	-4.4503788316	-1.9592318061	 0.138033
H	 2.963866601	-3.8154685514	-1.292122938	 0.137327
H	-0.4805330583	-2.3923021691	-0.8978071981	 0.121042
H	-0.6023092928	-1.8872840828	-2.6069424079	 0.123423
57.1846	98.3388	155.0221	176.4315	200.8012	221.2939	266.0868	309.0832	355.7563	416.087	445.8135	534.6142	584.4009	615.0116	712.2046	833.4772	865.3204	898.8117	933.035	1000.5482	1009.2754	1025.5761	1082.5949	1131.8344	1145.922	1168.4345	1184.7818	1195.7534	1233.0195	1248.6358	1276.4838	1295.9624	1298.9161	1394.9753	1411.6373	1465.5909	1480.906	1486.8641	1488.1283	1491.5691	1498.6933	1509.2788	2347.043	2978.9429	2993.3888	3028.5513	3039.4297	3067.0969	3076.4928	3115.2483	3117.3219	3120.7025	3136.0014	3142.3424
COC1CC(C)(C1)C#N	CO[C@H]1C[C@@](C)(C1)C#N	
InChI=1S/C7H11NO/c1-7(5-8)3-6(4-7)9-2/h6H,3-4H2,1-2H3	InChI=1S/C7H11NO/c1-7(5-8)3-6(4-7)9-2/h6H,3-4H2,1-2H3/t6-,7-
