18
gdb 95600	2.242	1.69677	1.02032	4.8219	72.93	-0.2318	-0.0754	0.1565	1153.531	0.147511	-439.113334	-439.104677	-439.103733	-439.147151	32.063	
C	-0.0723369432	 1.5343672982	-0.0149047846	-0.410667
C	 0.0330749028	 0.0140296327	-0.0024721681	-0.068257
N	 0.7692871907	-0.482328778	-1.1686677255	-0.306901
C	 0.7805839717	-1.9377452963	-1.2595472118	-0.183128
C	 1.659047008	-2.4972226728	-0.1326114971	-0.286078
C	 1.2334986273	-1.9744410052	 1.2258966503	 0.304074
O	 1.2709640634	-2.620094758	 2.2418860329	-0.272661
C	 0.7180819046	-0.5024776835	 1.2685141278	 0.327383
O	 0.8241392194	 0.1455484155	 2.2769965187	-0.279518
H	 0.9227195098	 1.9815200594	-0.086315479	 0.135897
H	-0.6697510605	 1.8713416517	-0.8679878671	 0.110283
H	-0.5431562118	 1.8877544442	 0.9036938564	 0.144927
H	-0.9922251965	-0.4172447625	 0.0421953081	 0.084318
H	 0.3722373808	-0.0774893725	-2.0094857788	 0.226893
H	-0.231558799	-2.3795728073	-1.1917121529	 0.09205
H	 1.1959833363	-2.2278585016	-2.2288556705	 0.1131
H	 1.6708305012	-3.5899728386	-0.1060237477	 0.125914
H	 2.687408685	-2.1469669453	-0.2965036312	 0.142371
43.6882	100.537	194.4305	246.6226	285.8436	322.4474	339.4693	353.3176	421.0557	471.5367	554.0234	628.4315	650.7075	748.464	773.5281	876.1222	920.4762	944.6634	1009.198	1021.7483	1077.9102	1099.5022	1140.2729	1153.2821	1174.6541	1232.6363	1266.4868	1306.1208	1340.8043	1349.7464	1403.5963	1406.5086	1444.8941	1472.1542	1493.1185	1498.762	1508.3849	1814.8361	1830.2214	2849.583	2924.5092	3027.4278	3047.7403	3081.2719	3106.0423	3118.1487	3146.9759	3528.1463
CC1NCCC(=O)C1=O	C[C@H]1NCCC(=O)C1=O	
InChI=1S/C6H9NO2/c1-4-6(9)5(8)2-3-7-4/h4,7H,2-3H2,1H3	InChI=1S/C6H9NO2/c1-4-6(9)5(8)2-3-7-4/h4,7H,2-3H2,1H3/t4-/m1/s1
