19
gdb 22748	2.26843	1.48193	1.15934	2.0074	80.07	-0.2309	0.0071	0.238	1148.0045	0.157538	-419.119384	-419.110254	-419.10931	-419.152659	34.935	
C	-0.0349305715	 1.5684173797	-0.0850391185	-0.441547
C	 0.0259817029	 0.0460300635	-0.0015856005	 0.212682
C	-1.334091651	-0.5761264771	 0.3293037638	-0.436601
C	 0.7218640815	-0.6892694722	-1.1845996664	-0.078137
N	 2.0957703732	-0.1755878957	-1.2750071587	-0.339128
C	 1.7756126022	-1.2572999953	-0.2815992167	-0.172033
C	 1.1395002145	-0.5621806146	 0.8763490244	 0.446723
N	 1.265562221	-0.5479164102	 2.1345497417	-0.275628
O	 2.342435214	-1.3577758564	 2.5512647007	-0.397151
H	 0.9334970936	 1.9753586403	-0.3822977074	 0.141226
H	-0.7874998876	 1.8848471827	-0.8163134471	 0.106418
H	-0.3085985856	 1.9929526568	 0.8859830289	 0.123865
H	-2.0788683108	-0.2904022437	-0.4222317256	 0.111276
H	-1.2782405234	-1.6691337254	 0.3577570292	 0.115463
H	-1.6832630745	-0.2321840988	 1.3068521204	 0.132713
H	 0.2284295446	-1.1550390374	-2.0290109331	 0.097049
H	 2.5466482066	-0.6429375979	-2.0625390534	 0.234089
H	 2.3001061539	-2.2021563475	-0.3012808167	 0.113417
H	 2.3166638663	-1.2481774505	 3.507732205	 0.305304
111.2891	166.2129	178.3048	220.4747	249.1679	267.9092	301.7337	320.7798	336.8925	409.4012	522.3763	553.526	608.3081	686.908	782.7562	814.7381	834.0585	845.2385	921.1175	952.1033	958.3503	976.6278	1008.4947	1026.2036	1082.0789	1099.5347	1118.6783	1186.8387	1214.7698	1255.9551	1282.0127	1322.1841	1351.2986	1395.0882	1401.9599	1419.7828	1481.6873	1486.1735	1499.9034	1510.2346	1791.0047	3028.8038	3034.5009	3096.1304	3099.6254	3114.9666	3133.934	3189.9978	3220.3069	3461.4418	3819.3584
CC1(C)C2NC2C1=NO	CC1(C)[C@H]2N[C@H]2C1=NO	
InChI=1S/C6H10N2O/c1-6(2)4-3(7-4)5(6)8-9/h3-4,7,9H,1-2H3	InChI=1S/C6H10N2O/c1-6(2)4-3(7-4)5(6)8-9/h3-4,7,9H,1-2H3/t3-,4+/m1/s1
