17
gdb 67534	2.54971	1.81812	1.4876	3.3904	72.73	-0.2335	0.0205	0.2541	945.932	0.137108	-417.95234	-417.944928	-417.943984	-417.983825	29.93	
N	-0.0195407106	 1.4576067468	 0.1512654495	-0.59903
C	 0.0181955591	 0.0413333261	-0.0012268234	 0.218142
C	 1.2037312678	-0.6557462063	 0.7314080249	-0.076293
C	 1.0968691806	-2.1495757181	 0.7455534153	-0.300125
C	 1.5367998214	-1.4773539604	-0.5250675077	-0.072386
C	 0.3462746077	-0.8311678806	-1.253990608	 0.034339
O	-0.9449105782	-1.5130136398	-1.1076857027	-0.279798
C	-1.3092782515	-0.7087715534	-0.0340283373	 0.383658
N	-2.3912204144	-0.6421841486	 0.5950646737	-0.54827
H	 0.8803895292	 1.879017048	-0.05355591	 0.234076
H	-0.7213510973	 1.8834281662	-0.4443444978	 0.240589
H	 1.8570565504	-0.1113269996	 1.4027231639	 0.097449
H	 1.8922121594	-2.6538851696	 1.2849243762	 0.118449
H	 0.1352902279	-2.6479687422	 0.8046331858	 0.138754
H	 2.4968778119	-1.679223389	-0.9829798347	 0.09234
H	 0.491474568	-0.4438615509	-2.261678605	 0.090878
H	-3.0745118315	-1.3098265085	 0.2315777374	 0.22723
126.6499	200.693	255.1789	283.1499	329.1797	364.4663	464.5742	552.4081	639.9502	679.9228	698.369	755.0893	778.6156	820.5462	848.4599	873.2156	898.2239	925.7322	953.7708	962.6183	998.9104	1008.0189	1032.9968	1052.4521	1063.7379	1088.1814	1153.0888	1177.9837	1227.9527	1249.5262	1301.7607	1318.9275	1336.1646	1389.27	1491.8664	1649.6043	1816.8887	3126.0301	3133.036	3182.4561	3191.9529	3216.1887	3466.485	3504.9295	3594.3745
NC12C3CC3C1OC2=N	N[C@]12[C@H]3C[C@H]3[C@H]1O[C]2[NH]	
InChI=1S/C6H8N2O/c7-5-6(8)3-1-2(3)4(6)9-5/h2-4,7H,1,8H2	InChI=1S/C6H8N2O/c7-5-6(8)3-1-2(3)4(6)9-5/h2-4,7H,1,8H2/t2-,3+,4-,6-/m1/s1
