22
gdb 7398	3.04779	1.13711	1.02586	1.8445	75.11	-0.2573	0.0677	0.325	1297.2355	0.197351	-387.332855	-387.322303	-387.321359	-387.368634	37.384	
C	-0.4638897383	 1.2597840789	-0.5689254293	-0.223609
O	-0.696272823	-0.1280665927	-0.5576141616	-0.230735
C	-0.7565112202	-0.6681465453	 0.7430691397	-0.088137
C	-0.9569273274	-2.1839482775	 0.649751824	 0.099773
O	-0.9048258552	-2.7474533876	 1.957428418	-0.440039
C	-2.2131208201	-2.6076722594	-0.1403111609	 0.042057
C	-2.1780663332	-4.1160977946	-0.4185726499	-0.39579
C	-3.5212945878	-2.2117753963	 0.5612999588	-0.416265
H	-0.4319510928	 1.5789229937	-1.6135339071	 0.12746
H	-1.2646569244	 1.8127801235	-0.0523061815	 0.103043
H	 0.4932580697	 1.5168327708	-0.088423164	 0.105957
H	 0.1750965467	-0.4708751616	 1.2970959633	 0.095318
H	-1.5782076682	-0.2032753041	 1.3183384933	 0.073867
H	-0.0819363033	-2.596273442	 0.1338109364	 0.092415
H	-1.6591462895	-2.4119143881	 2.4536161094	 0.281314
H	-2.1629012111	-2.0692676745	-1.0937420663	 0.094817
H	-2.1412559603	-4.6793785113	 0.5192946626	 0.123601
H	-3.0644084048	-4.4359044077	-0.9757478666	 0.104123
H	-1.2952164554	-4.3896988218	-1.0059848188	 0.110282
H	-3.5901055769	-1.1341750901	 0.7405666921	 0.115135
H	-4.382404512	-2.4952896766	-0.0515282079	 0.118837
H	-3.6354476725	-2.7283623656	 1.5225524262	 0.106577
41.6903	83.6903	110.1714	168.3426	217.1113	227.1974	239.4108	268.1762	283.2868	325.0217	330.0761	398.9716	433.0909	546.6121	603.1693	749.884	907.128	924.5349	964.9099	996.9242	1007.2126	1035.3423	1086.8033	1110.8089	1164.543	1165.6032	1186.7009	1202.7763	1222.5272	1244.7724	1275.5187	1330.0718	1365.7176	1372.6322	1397.4775	1409.0997	1415.0616	1428.5603	1479.7978	1485.6926	1487.7587	1496.079	1500.7551	1509.1876	1513.7242	1527.0002	2936.3565	2970.1727	2991.34	3014.0612	3023.7944	3032.6813	3045.2946	3051.6584	3088.53	3098.8598	3103.2937	3109.3313	3113.6227	3807.2705
COCC(O)C(C)C	COC[C@@H](O)C(C)C	
InChI=1S/C6H14O2/c1-5(2)6(7)4-8-3/h5-7H,4H2,1-3H3	InChI=1S/C6H14O2/c1-5(2)6(7)4-8-3/h5-7H,4H2,1-3H3/t6-/m1/s1
