18
gdb 100424	3.25964	0.95549	0.82128	2.2028	71.86	-0.2181	0.0216	0.2397	1415.4157	0.147619	-472.447465	-472.437591	-472.436647	-472.482823	35.44	
C	-0.4215739494	 1.417267735	 0.3022972497	-0.220808
O	 0.2436457835	 0.1895185436	 0.0163209414	-0.249915
C	 0.9583643984	-0.3544088969	 1.0251867685	 0.469005
N	 1.4285953398	-1.5952127714	 0.6780067861	-0.568737
N	 1.0868246708	 0.2589924301	 2.1414852985	-0.361434
C	 1.7638918822	-0.4422942132	 3.2216121269	-0.268789
C	 3.2817591639	-0.4784265429	 3.0176123048	 0.411722
N	 3.9984660163	 0.4200790966	 3.7413428286	-0.500399
O	 3.8171920253	-1.2609081641	 2.2417447157	-0.374598
H	 0.2979881494	 2.2055164151	 0.5392835624	 0.131434
H	-0.9761623075	 1.6675485753	-0.603631306	 0.121759
H	-1.1020349362	 1.3047199611	 1.1505982944	 0.132328
H	 1.3233163662	-1.8241399876	-0.2983781531	 0.251302
H	 2.3280125135	-1.8317254068	 1.0900381451	 0.282253
H	 1.5217793823	 0.0632064966	 4.1629005225	 0.094666
H	 1.437651508	-1.4892799354	 3.310813254	 0.121492
H	 3.5440392842	 1.1510407387	 4.2600926294	 0.267433
H	 4.9823357091	 0.5131782062	 3.5435819411	 0.261289
45.5366	80.4537	147.2456	172.7915	186.0185	219.4305	277.5031	316.105	352.4937	425.7585	517.1427	520.4192	546.0405	588.2454	645.5582	690.9041	750.3482	773.1412	871.0021	886.2549	1001.8066	1026.7874	1113.369	1133.1341	1182.6504	1188.4118	1219.7759	1264.5783	1334.1951	1392.1592	1403.8222	1475.075	1485.2324	1495.0988	1504.3193	1620.6631	1644.917	1726.53	1769.766	2993.7188	3045.6121	3055.8059	3118.0418	3144.0257	3462.3858	3595.7619	3654.5536	3732.5325
COC(N)=NCC(N)=O	COC(=NCC(=O)N)N	
InChI=1S/C4H9N3O2/c1-9-4(6)7-2-3(5)8/h2H2,1H3,(H2,5,8)(H2,6,7)	InChI=1S/C4H9N3O2/c1-9-4(6)7-2-3(5)8/h2H2,1H3,(H2,5,8)(H2,6,7)
