16
gdb 7269	4.47321	1.2736	1.00387	2.1682	66.42	-0.253	0.0048	0.2578	1139.7071	0.129258	-417.097659	-417.088485	-417.087541	-417.13216	30.517	
C	-0.1254771465	 1.3883305467	 0.0738918515	-0.341579
N	-0.0382640374	-0.0582616531	-0.03162428	-0.151032
C	 0.0363286501	-0.7955593216	 1.2193850857	-0.346255
C	-0.0334749887	-0.6178456701	-1.2671501636	 0.551982
O	-0.0952914441	-0.0212432484	-2.3191622112	-0.414785
O	 0.0533579816	-1.9956512903	-1.179796578	-0.22781
C	 0.0688087193	-2.6962079047	-2.3541941428	 0.120699
N	 0.147771839	-3.9508481719	-2.2899696536	-0.434807
H	 0.752441247	 1.7872209681	 0.5966858534	 0.127548
H	-0.174913799	 1.8121534047	-0.9271332167	 0.172096
H	-1.0208444514	 1.6773981605	 0.637764348	 0.127539
H	-0.8516437134	-0.592258754	 1.8309082197	 0.128627
H	 0.0982068969	-1.8628736069	 1.0277986761	 0.177092
H	 0.9194864972	-0.4822476398	 1.7900266992	 0.12864
H	 0.0081653638	-2.049717444	-3.2295926346	 0.14558
H	 0.1495077755	-4.3404196152	-3.2313252931	 0.236464
79.1604	94.1733	115.94	130.8219	154.6078	177.5337	238.8666	363.1125	377.1358	470.6915	560.2439	656.3553	760.6261	846.3937	877.0784	995.3664	1071.0777	1086.4725	1089.53	1136.4167	1184.933	1187.4584	1269.2237	1294.9247	1381.3187	1430.4709	1441.5214	1471.4778	1490.357	1502.2931	1502.9315	1544.977	1746.7672	1815.2282	3015.95	3022.6355	3062.7856	3068.3304	3142.7821	3175.0585	3195.2108	3509.5599
CN(C)C(=O)OC=N	CN(C)C(=O)O[CH][NH]	
InChI=1S/C4H8N2O2/c1-6(2)4(7)8-3-5/h3,5H,1-2H3	InChI=1S/C4H8N2O2/c1-6(2)4(7)8-3-5/h3,5H,1-2H3
