17
gdb 71735	2.57843	2.1322	1.53061	0.569	69.78	-0.2193	0.0675	0.2868	899.2227	0.135551	-421.765695	-421.758433	-421.757488	-421.796859	29.656	
C	 0.067629407	 1.4283139341	-0.0252116308	-0.500232
C	 0.0417174232	-0.067797882	-0.0055531582	 0.345167
O	 0.1467814079	-0.6980149341	-1.2585903895	-0.265691
C	 0.1004538994	-2.0506407308	-0.8997106981	 0.063626
C	-0.7818871131	-2.2874111848	 0.3122756026	-0.122032
C	 0.7397473611	-2.3128723906	 0.4476911075	-0.222704
C	 0.6837251633	-0.9023846622	 1.0901370486	 0.314494
O	 1.4566155552	-0.4278953244	 2.1259738344	-0.460776
C	-0.829649013	-0.8896859521	 0.9550291397	-0.222142
H	 0.9698995344	 1.7928367668	-0.527374861	 0.12578
H	-0.8015375253	 1.8324696124	-0.5526582673	 0.132636
H	 0.065057905	 1.81372486	 0.9975674587	 0.134969
H	 0.1645197951	-2.7361969719	-1.7341882097	 0.106412
H	-1.5081631571	-3.0816353158	 0.4106920086	 0.093028
H	 1.4159807078	-3.1202646261	 0.6921136229	 0.094253
H	 2.2807091747	-0.0850046993	 1.7600817829	 0.288676
H	-1.6025306957	-0.4716499894	 1.5846756688	 0.094538
171.9775	197.986	233.1617	293.4702	336.6725	385.8976	533.4065	585.2004	641.9841	659.7844	733.0166	748.4709	761.1854	768.2287	833.3137	867.5533	910.8466	921.1582	929.1409	980.4391	1001.8174	1037.3743	1050.4114	1063.0111	1111.3149	1121.2586	1170.2257	1181.5724	1204.2449	1276.4768	1302.9335	1358.9909	1368.576	1422.2831	1452.8424	1480.2953	1506.0361	3039.8936	3102.9518	3125.5542	3206.5832	3208.9569	3215.4852	3223.2479	3774.693
CC12OC3C4C3C1(O)C24	C[C@@]12O[C@@H]3[C@H]4[C@@H]3[C@]1(O)[C@@H]24	
InChI=1S/C7H8O2/c1-6-5-2-3(4(2)9-6)7(5,6)8/h2-5,8H,1H3	InChI=1S/C7H8O2/c1-6-5-2-3(4(2)9-6)7(5,6)8/h2-5,8H,1H3/t2-,3+,4-,5-,6+,7+/m1/s1
