21
gdb 84127	2.24688	1.51782	1.17917	1.6301	79.44	-0.2173	0.0626	0.2798	1171.4712	0.182139	-420.452266	-420.442689	-420.441745	-420.486184	37.085	
C	 0.2086854566	 1.5941507558	-0.2823352759	-0.391986
C	 0.0267970562	 0.1114546924	 0.0537086856	-0.002235
N	 0.4784934777	-0.7226680351	-1.0667512795	-0.356387
C	 1.4597632619	-1.4079763912	-0.6270355091	 0.451673
N	 2.1858018005	-2.3357647993	-1.3285373316	-0.582388
O	 1.8406913996	-1.2799898995	 0.6686403827	-0.28183
C	 0.8224276534	-0.4373333433	 1.2983688088	 0.343592
C	 1.5547683157	 0.5887047493	 2.154398538	-0.431651
C	-0.0582817717	-1.352381164	 2.1494859736	-0.416979
H	 1.258706621	 1.8342255878	-0.4756650739	 0.113142
H	-0.3550519661	 1.8237508983	-1.1904129142	 0.125814
H	-0.1561363946	 2.2420549846	 0.521435603	 0.104362
H	-1.0437107153	-0.0628050194	 0.2244750025	 0.071425
H	 2.1266552705	-2.2269169056	-2.329025355	 0.264768
H	 3.1154608212	-2.5041574715	-0.9765288216	 0.259239
H	 2.2315858462	 1.2004034956	 1.5541628563	 0.123257
H	 0.8427922803	 1.2510989973	 2.6554142836	 0.120392
H	 2.1443113937	 0.0822553442	 2.9245396239	 0.120698
H	 0.5346545692	-1.867773879	 2.9108480618	 0.117968
H	-0.8363580727	-0.7685919488	 2.6522862823	 0.116329
H	-0.5468436031	-2.1030429586	 1.5213619489	 0.1308
48.7497	156.9519	227.7847	257.9802	263.9509	278.5711	303.5511	322.9443	345.9315	379.7653	435.9132	495.0299	513.0703	557.4116	610.5353	691.3407	740.0951	755.2613	868.8395	926.6545	933.5929	958.1465	1004.388	1008.8451	1045.4504	1079.0147	1119.4944	1168.4682	1198.4704	1220.9678	1267.0796	1301.4723	1375.301	1400.1149	1402.4309	1418.9236	1428.2244	1473.9608	1482.4894	1485.8985	1496.3388	1502.0782	1513.0531	1619.0461	1751.9237	3006.9578	3035.7007	3036.3742	3047.7256	3106.5323	3108.3174	3114.4294	3117.598	3118.5243	3131.476	3588.8861	3701.8861
CC1N=C(N)OC1(C)C	C[C@H]1[N][C](N)OC1(C)C	
InChI=1S/C6H12N2O/c1-4-6(2,3)9-5(7)8-4/h4H,1-3H3,(H2,7,8)	InChI=1S/C6H12N2O/c1-4-6(2,3)9-5(7)8-4/h4H,1-3H3,(H2,7,8)/t4-/m1/s1
