19
gdb 107762	3.58859	1.48766	1.43897	1.4728	73.13	-0.2323	0.0908	0.3231	990.3952	0.160981	-423.018599	-423.011315	-423.01037	-423.050219	29.513	
C	-0.01062426	 1.352759207	-0.0241712294	-0.262143
O	-0.0406190062	-0.065318645	-0.1303044673	-0.302487
C	 0.6793639791	-0.5978601261	-1.1630244325	 0.470071
C	 2.2026699596	-0.3112919647	-1.315925123	-0.28954
C	 2.3611369706	-1.0812777069	-2.6160696762	-0.115163
C	 1.3512101321	-2.2376093718	-2.5815750482	-0.117644
C	 0.6106886798	-2.1366058725	-1.2574150251	-0.265353
C	 1.0124110668	-0.9436659738	-3.2881336934	 0.094059
O	 0.1643791113	-0.1833962807	-2.4557931498	-0.295254
H	 0.9840438145	 1.7151492491	 0.2658233246	 0.113012
H	-0.3078853221	 1.8260701943	-0.9652623704	 0.137056
H	-0.7243722922	 1.6168696617	 0.7583217472	 0.128856
H	 2.4190358201	 0.7540119026	-1.4288403235	 0.103154
H	 2.7772742282	-0.7178572863	-0.4796223469	 0.104975
H	 3.2888544101	-1.1347635759	-3.1696038521	 0.088706
H	 1.5152739516	-3.1687578489	-3.1062410727	 0.089189
H	 1.1192489146	-2.6219966967	-0.4209286611	 0.104721
H	-0.4258955441	-2.478280227	-1.3097390774	 0.112265
H	 0.8409420862	-0.8224147282	-4.3482485427	 0.10152
95.1329	160.7205	219.8296	352.8275	390.8794	461.7531	479.2147	565.0941	637.2403	665.4227	707.7032	789.0653	805.9404	808.8093	879.1409	912.833	975.1603	978.7916	1000.0791	1001.7207	1039.2167	1050.3484	1057.8885	1093.4948	1100.3038	1117.45	1172.337	1180.7096	1190.3076	1214.5895	1238.012	1257.8789	1302.2842	1311.2943	1362.0447	1386.0956	1475.9657	1480.4132	1489.8298	1500.0561	1509.7019	3015.5329	3062.5061	3069.9449	3088.8207	3115.9186	3123.3401	3133.7519	3202.2908	3209.2196	3223.5152
COC12CC3C(C1)C3O2	CO[C@@]12C[C@H]3[C@@H](C1)[C@H]3O2	
InChI=1S/C7H10O2/c1-8-7-2-4-5(3-7)6(4)9-7/h4-6H,2-3H2,1H3	InChI=1S/C7H10O2/c1-8-7-2-4-5(3-7)6(4)9-7/h4-6H,2-3H2,1H3/t4-,5+,6-,7+
