20
gdb 121519	5.42721	0.46653	0.43421	3.9256	87.87	-0.2481	-0.014	0.2341	2493.1061	0.168637	-403.165825	-403.154513	-403.153569	-403.205302	38.104	
C	-0.0527360277	 1.5623601784	 0.0629913666	-0.386404
C	-0.0008280851	 0.033518589	 0.0031777151	-0.163693
C	 0.7143401052	-0.4886646722	-1.2462702536	-0.15183
C	 0.7620413775	-2.0294525275	-1.2984448795	-0.368664
C	 1.4390057307	-2.5452533369	-2.480410897	-0.00256
C	 2.0055293728	-2.9392215597	-3.4696013385	 0.104725
C	 2.695580713	-3.3498847919	-4.6828756083	 0.257487
N	 2.8125963033	-4.704818571	-4.8181117761	-0.520271
O	 3.1364550953	-2.559437031	-5.4953340048	-0.335916
H	 0.9547954061	 1.9922738291	 0.0689005624	 0.11856
H	-0.5819969887	 1.9742269882	-0.803169752	 0.118484
H	-0.5681840383	 1.9081711916	 0.9641801333	 0.114092
H	 0.5042356524	-0.3525382061	 0.8987808297	 0.09662
H	-1.021690572	-0.3704735978	 0.0328804167	 0.096493
H	 0.2132496901	-0.1179062853	-2.1480460822	 0.113838
H	 1.7387511014	-0.1000504519	-1.2823030481	 0.114036
H	 1.2639415609	-2.4134563535	-0.3999373102	 0.133965
H	-0.2597997592	-2.43123426	-1.2648135207	 0.13358
H	 2.3724851726	-5.3365292063	-4.1726311919	 0.263654
H	 3.2257051097	-5.0638481352	-5.6631390809	 0.263803
11.464	53.851	66.0029	105.6742	116.7938	145.8165	163.5528	245.908	246.8425	342.4622	385.4636	466.0157	496.8176	567.2881	610.643	720.0536	733.1726	773.4685	789.7896	906.9907	930.5194	997.78	1060.8587	1082.9636	1088.9632	1122.6596	1128.6387	1240.2233	1276.8353	1311.6661	1329.2297	1346.2882	1360.152	1395.5116	1415.0702	1465.1844	1485.8336	1497.2165	1500.0011	1511.7974	1606.5474	1772.2176	2346.6014	3010.0594	3012.3363	3031.2189	3036.9181	3038.6503	3040.5775	3081.2719	3099.8405	3104.4114	3602.2074	3744.9767
CCCCC#CC(N)=O	CCCCC#CC(=O)N	
InChI=1S/C7H11NO/c1-2-3-4-5-6-7(8)9/h2-4H2,1H3,(H2,8,9)	InChI=1S/C7H11NO/c1-2-3-4-5-6-7(8)9/h2-4H2,1H3,(H2,8,9)
