19
gdb 107103	4.1624	0.9166	0.84921	3.4722	77.54	-0.2439	-0.0219	0.222	1392.3361	0.157271	-422.990998	-422.981963	-422.981018	-423.025427	32.914	
C	 0.0231339559	 1.3686397658	 0.2815994843	-0.25917
O	 0.0038968057	 0.0302787184	-0.1911276857	-0.28019
C	-1.2403715288	-0.5523879305	-0.1414423996	 0.463546
C	-1.8405011515	-1.0697666292	 1.1356809656	-0.346304
C	-1.5562804631	-2.0306015881	-0.0009404201	-0.159264
C	-2.674262715	-1.9180980851	-1.0566768551	-0.070129
C	-2.3131999292	-0.3917710126	-1.2249851174	-0.337778
C	-2.3995905921	-2.7008922978	-2.3119519897	 0.155977
O	-3.1819942934	-3.4408569543	-2.8504478717	-0.256723
H	 1.0568599798	 1.7139029427	 0.2152026818	 0.131622
H	-0.6111459642	 2.0248798198	-0.3304665329	 0.114654
H	-0.3139185916	 1.4287067714	 1.3254334868	 0.114419
H	-1.1333763068	-1.1411265678	 1.9559693185	 0.122071
H	-2.8629146451	-0.8425503238	 1.4294793536	 0.108724
H	-0.8898269783	-2.8752878206	 0.1220966824	 0.10556
H	-3.6856150718	-2.140443088	-0.7069278758	 0.090377
H	-3.1238557578	 0.3190269345	-1.0417752511	 0.107089
H	-1.8710225549	-0.1891928971	-2.2048203805	 0.118728
H	-1.3779805578	-2.5378502778	-2.7314783134	 0.076792
67.1165	81.2846	101.4972	178.7706	230.163	294.3413	358.8084	387.2661	397.6453	424.9505	503.4825	658.5819	744.9917	845.7432	855.2626	910.0027	923.949	963.5725	992.7056	1017.4631	1020.3871	1060.2417	1080.6703	1095.7411	1129.9771	1175.0945	1180.6008	1204.9028	1226.1837	1232.6	1248.1957	1278.6225	1308.7965	1379.8208	1426.6264	1472.2514	1479.0953	1488.8365	1504.1209	1508.3708	1831.4187	2848.692	2995.8673	3049.4514	3052.3102	3082.0021	3105.3429	3106.8077	3126.5435	3190.8025	3205.8696
COC12CC1C(C2)C=O	CO[C@]12C[C@H]1[C@@H](C2)C=O	
InChI=1S/C7H10O2/c1-9-7-2-5(4-8)6(7)3-7/h4-6H,2-3H2,1H3	InChI=1S/C7H10O2/c1-9-7-2-5(4-8)6(7)3-7/h4-6H,2-3H2,1H3/t5-,6-,7+/m0/s1
