18
gdb 16173	4.23031	1.62833	1.40642	1.0692	66.97	-0.2268	0.0881	0.3149	941.9112	0.153711	-384.920905	-384.913257	-384.912313	-384.952822	28.883	
C	-0.2478233412	 1.542687593	-0.0989293009	-0.374283
C	-0.0110081763	 0.0358617679	 0.0601620782	-0.265248
C	 0.794146791	-0.5525186228	-1.0648682318	 0.426298
C	 0.198056924	-0.9725951536	-2.4019985757	-0.396625
C	 0.8728512423	-1.9818034167	-1.4872647422	 0.018863
O	 2.2290365133	-2.2786103993	-1.7123205749	-0.257667
C	 2.8965421047	-1.0319381746	-1.7976399327	 0.009866
O	 2.127415929	-0.0759196337	-1.0954213264	-0.296551
H	 0.7037535842	 2.079316185	-0.1430813039	 0.13525
H	-0.7982780344	 1.758668701	-1.02040667	 0.116525
H	-0.8253490644	 1.9385888869	 0.7416342464	 0.110058
H	 0.5132812413	-0.163386433	 1.0025388752	 0.109233
H	-0.9700739215	-0.4924075127	 0.1105523844	 0.098944
H	-0.8849526747	-1.0194398826	-2.4564790763	 0.117171
H	 0.6818544406	-0.6836550488	-3.3283404463	 0.123366
H	 0.3368920081	-2.805694187	-1.0328367497	 0.111501
H	 3.8851829778	-1.1167903329	-1.3348055406	 0.120368
H	 3.0054514261	-0.7327901059	-2.8533689229	 0.092932
90.0859	150.558	201.6632	226.6837	289.7235	358.4465	406.5759	460.8808	648.2284	733.0669	740.2902	785.2506	839.8289	866.2199	940.3198	964.9719	979.722	991.1884	1026.2578	1043.5286	1070.6774	1097.6793	1128.3179	1152.6044	1163.2671	1219.2365	1235.6703	1274.137	1312.6645	1361.6469	1407.8049	1410.9837	1437.1559	1472.5444	1478.2708	1497.3517	1509.5755	1550.6591	2958.0946	3031.512	3040.675	3069.631	3069.8822	3108.8211	3121.6289	3132.2681	3193.0566	3221.8071
CCC12CC1OCO2	CC[C@]12C[C@H]1OCO2	
InChI=1S/C6H10O2/c1-2-6-3-5(6)7-4-8-6/h5H,2-4H2,1H3	InChI=1S/C6H10O2/c1-2-6-3-5(6)7-4-8-6/h5H,2-4H2,1H3/t5-,6+/m1/s1
