17
gdb 70691	2.27836	1.9648	1.29292	3.4199	67.83	-0.2659	-0.0011	0.2647	994.5723	0.136343	-458.985218	-458.97735	-458.976406	-459.017588	29.895	
C	 0.1119128438	 1.502853437	-0.005780834	-0.460421
C	 0.0694710601	-0.0110732246	 0.0059568498	 0.110027
C	-0.8591805159	-0.7089635683	 1.0031024014	-0.327635
C	 0.6233561265	-0.7984825375	 1.1705876434	 0.051116
O	 1.1978544657	-2.0476805721	 0.876473673	-0.231649
C	 1.8210661654	-2.0396834271	-0.3653344766	 0.004698
O	 0.899651243	-1.792700337	-1.4339622101	-0.229624
C	 0.1664855942	-0.6468267901	-1.3541499937	 0.400698
O	-0.373754477	-0.2106288269	-2.332486765	-0.333535
H	 1.0681002919	 1.8722550561	-0.3906989614	 0.126673
H	-0.6819577389	 1.8930939839	-0.6472920951	 0.152671
H	-0.0250480321	 1.9029429872	 1.0029739925	 0.116258
H	-1.4284014927	-0.0665110131	 1.6658183978	 0.125752
H	-1.3618211298	-1.6160648213	 0.6888129875	 0.143452
H	 1.1174380172	-0.2679145534	 1.9808135036	 0.10722
H	 2.6194924215	-1.2847371389	-0.411683815	 0.106461
H	 2.2249919272	-3.0364579539	-0.5435105379	 0.13784
86.8876	167.8718	200.3728	253.7176	287.4736	332.437	436.0084	447.4429	490.921	564.4656	639.7545	747.5496	794.7057	810.8103	868.6805	896.2333	969.7475	1018.7122	1038.5269	1047.4076	1066.155	1107.8097	1110.2758	1125.9665	1167.6651	1221.4265	1288.6454	1300.8541	1335.6255	1396.3732	1413.8478	1451.6021	1477.4658	1486.2412	1502.1897	1520.8	1849.1454	2999.3848	3040.0044	3106.0775	3126.9289	3136.1742	3138.0475	3142.859	3236.2857
CC12CC1OCOC2=O	C[C@]12C[C@H]1OCOC2=O	
InChI=1S/C6H8O3/c1-6-2-4(6)8-3-9-5(6)7/h4H,2-3H2,1H3	InChI=1S/C6H8O3/c1-6-2-4(6)8-3-9-5(6)7/h4H,2-3H2,1H3/t4-,6+/m1/s1
