22
gdb 93240	2.65628	1.2992	0.92443	3.0769	83.99	-0.2537	0.0218	0.2755	1321.3623	0.195118	-404.382829	-404.373568	-404.372624	-404.41669	35.341	
C	-0.1231068894	 1.5486892368	-0.0080872432	-0.409118
C	 0.0046288896	 0.0232340366	 0.0162398921	-0.001564
C	 0.7224880314	-0.4784270201	-1.2327383905	-0.072215
O	 0.9263545913	-1.8971150799	-1.2499015304	-0.260925
C	 1.3992515122	-2.5233419847	-0.1267922209	 0.382265
N	 2.1458315071	-3.5420251907	-0.2189714236	-0.503936
C	 0.8780174158	-2.0266022408	 1.211569821	-0.065329
C	 1.6808592727	-2.5800403188	 2.3897597768	-0.39273
C	 0.766060446	-0.4927339497	 1.2401057747	-0.20467
H	 0.8627529057	 2.0276114428	-0.0202840692	 0.119019
H	-0.6727816269	 1.8919628088	-0.8910192094	 0.116825
H	-0.6555369728	 1.908538697	 0.8776528846	 0.120565
H	-1.0025852578	-0.4164458623	 0.0246195477	 0.081746
H	 0.1518891325	-0.2610045134	-2.139854625	 0.114164
H	 1.7001374259	 0.0196367387	-1.3229000469	 0.100539
H	 2.3491920601	-3.7302714896	-1.2031711581	 0.216547
H	-0.149063045	-2.4192952518	 1.275641517	 0.101228
H	 2.7130109212	-2.2173457306	 2.362058733	 0.119766
H	 1.2297818661	-2.2610496325	 3.3351991878	 0.10104
H	 1.7160741675	-3.6696665333	 2.3612855717	 0.141044
H	 1.7720354094	-0.0485613306	 1.2580286215	 0.098046
H	 0.2703116474	-0.1808704119	 2.1663786492	 0.097692
70.3472	127.1534	194.6453	216.3467	224.6097	254.3694	308.8906	363.7501	407.2686	415.4717	433.965	537.1249	576.1058	699.1352	768.4381	862.7816	886.4299	912.0943	930.218	956.3743	974.6971	1005.6304	1023.6628	1061.2589	1125.8225	1132.0754	1140.9454	1165.4052	1199.0468	1219.1134	1281.9076	1294.6598	1304.2331	1341.8997	1352.0664	1381.3946	1391.1364	1411.2099	1412.8792	1432.4413	1485.9063	1490.6721	1497.2575	1498.5686	1501.978	1511.1922	1740.6027	2984.1754	2989.0288	3003.2179	3016.4477	3029.6666	3041.6535	3061.7019	3087.9542	3096.5725	3104.2587	3106.2438	3144.5628	3458.441
CC1COC(=N)C(C)C1	C[C@H]1CO[C]([NH])[C@@H](C)C1	
InChI=1S/C7H13NO/c1-5-3-6(2)7(8)9-4-5/h5-6,8H,3-4H2,1-2H3	InChI=1S/C7H13NO/c1-5-3-6(2)7(8)9-4-5/h5-6,8H,3-4H2,1-2H3/t5-,6+/m1/s1
