19
gdb 124533	4.08247	0.97121	0.95206	2.3624	78.66	-0.2736	-0.0171	0.2565	1358.2291	0.159392	-415.393415	-415.384029	-415.383085	-415.428607	33.001	
C	-0.0102985818	 1.5162245123	-0.0383300101	-0.388484
C	-0.0214732541	-0.0211343112	 0.036013341	-0.068913
C	 0.7160058471	-0.5260314349	 1.2891376528	-0.388484
C	-1.4260532112	-0.5433337357	 0.0012289844	 0.395881
N	-1.9092669809	-1.3357288508	-0.9528320184	-0.319425
N	-3.1615576204	-1.5170898798	-0.5465464796	 0.151385
C	-4.1245068309	-2.3265687307	-1.2642465551	-0.318002
N	-3.4547142937	-0.8868527952	 0.582957859	-0.127605
N	-2.3625272762	-0.2633753183	 0.9440915639	-0.265735
H	 1.0184704998	 1.8895168124	-0.0291158483	 0.112668
H	-0.4951292429	 1.8731931655	-0.9518433034	 0.118593
H	-0.5404206761	 1.9461918619	 0.8165555082	 0.13891
H	 0.478483848	-0.420994777	-0.8526898975	 0.097081
H	 0.2143955858	-0.1775843575	 2.1967090867	 0.138917
H	 0.7473759595	-1.619273035	 1.3180138434	 0.118592
H	 1.7452779567	-0.1541678607	 1.2998613567	 0.112667
H	-3.7639920019	-3.3549139193	-1.3369680647	 0.160183
H	-5.0578533126	-2.2935899321	-0.7036892626	 0.171583
H	-4.2728409943	-1.9236632037	-2.2684424963	 0.160189
29.2035	97.7612	126.3641	175.5623	218.4986	226.1297	256.9536	291.5561	378.2365	433.4137	497.4081	646.1727	699.6712	747.6196	802.1829	895.1969	934.7927	969.1502	1037.1788	1047.4962	1071.1613	1103.4933	1124.2563	1151.829	1193.7095	1251.1022	1299.1123	1342.1971	1345.4217	1396.4592	1406.0231	1417.931	1429.0712	1449.6076	1476.7328	1486.6223	1491.2589	1500.1231	1501.0348	1509.5904	1544.0161	3036.6683	3040.1025	3053.7618	3064.4364	3107.6852	3110.8947	3116.1697	3121.4757	3136.4933	3176.1744
CC(C)C1=NN(C)N=N1	CC(C)c1nn(C)nn1	
InChI=1S/C5H10N4/c1-4(2)5-6-8-9(3)7-5/h4H,1-3H3	InChI=1S/C5H10N4/c1-4(2)5-6-8-9(3)7-5/h4H,1-3H3
