18
gdb 39364	2.77247	1.90063	1.31136	1.7466	77.49	-0.2236	0.0189	0.2426	978.0684	0.151556	-398.098718	-398.091711	-398.090767	-398.129735	28.628	
C	 0.0087020239	 1.4218678531	-0.3404210142	-0.261381
N	 1.3712604133	 1.4522543565	 0.2745875999	-0.385536
C	 1.3105455831	 0.1105169668	 0.6505147148	 0.383459
N	 1.9533870193	-0.6245223696	 1.4559399438	-0.336998
C	 1.3664618554	-1.9749151757	 1.5200251896	-0.18644
C	-0.1891124799	-2.0109909827	 1.520882149	-0.236656
C	-0.8344861219	-1.182762684	 0.4168862498	-0.087136
N	-0.3193940093	-1.2060690275	-0.9607869167	-0.384504
C	 0.0351114004	-0.0955675661	-0.0947903778	 0.24043
H	-0.7516602542	 1.9700337535	 0.2263256535	 0.115184
H	-0.0057334669	 1.7347947782	-1.3874368341	 0.12511
H	 1.6938621157	 2.1831237953	 0.8945050403	 0.243573
H	 1.7513677217	-2.5927678594	 0.6947147199	 0.098814
H	 1.7195838654	-2.4572003855	 2.4362643658	 0.109744
H	-0.5200222646	-3.0547877003	 1.4610834319	 0.107821
H	-0.5513634188	-1.6199781014	 2.4803194766	 0.11332
H	-1.9111552174	-1.0431145828	 0.4771398222	 0.101439
H	 0.4583687349	-1.8522499784	-1.0739329542	 0.239757
182.7322	209.2923	266.2026	309.9428	383.4234	429.7329	508.4128	516.7125	601.2325	647.5321	728.5074	773.5072	803.9397	822.4583	893.5206	927.4162	948.002	966.2716	1026.372	1052.4414	1078.7609	1088.25	1119.4176	1140.1436	1165.8223	1201.3775	1223.106	1238.7987	1267.0932	1307.2304	1331.053	1349.0166	1368.43	1375.9955	1463.4668	1485.1356	1505.7412	1511.7514	1793.5446	2986.197	3025.3151	3041.6065	3064.9508	3073.9518	3101.9749	3140.0094	3492.3698	3587.157
C1NC2=NCCC3NC123	C1N[C]2[N]CC[C@@H]3N[C@]123	
InChI=1S/C6H9N3/c1-2-7-5-6(3-8-5)4(1)9-6/h4,9H,1-3H2,(H,7,8)	InChI=1S/C6H9N3/c1-2-7-5-6(3-8-5)4(1)9-6/h4,9H,1-3H2,(H,7,8)/t4-,6-/m0/s1
