17
gdb 74308	3.48038	1.18588	0.89425	4.9975	81.06	-0.2165	-0.0185	0.1981	1275.1967	0.135609	-418.056189	-418.047516	-418.046572	-418.089696	31.599	
C	-0.027018216	 1.4834123329	-0.0027550143	-0.487893
C	 0.0013099157	-0.0082567112	-0.0011548846	 0.219191
C	-0.0192754585	-0.8267930885	-1.0552487433	-0.083671
N	 0.0192873375	-2.1941471783	-0.6937385388	-0.112124
C	 0.0061256563	-3.2176406704	-1.6360489503	 0.08971
N	 0.0425404414	-4.4508811753	-1.3445417902	-0.424385
C	 0.0698087591	-2.3023887038	 0.7225200028	 0.428777
O	 0.1106543983	-3.3153558405	 1.3626800406	-0.318988
C	 0.0603143604	-0.8578393776	 1.2420097415	-0.44831
H	 0.8628515332	 1.9025567961	 0.4838694969	 0.130992
H	-0.0709900033	 1.8792412191	-1.0214382439	 0.126546
H	-0.8950186779	 1.8692200112	 0.5468394216	 0.130968
H	-0.0602565255	-0.5725957205	-2.1059743414	 0.129707
H	-0.0395991417	-2.8056338094	-2.6526794684	 0.093405
H	 0.0225252472	-5.0032728685	-2.2004888586	 0.22972
H	 0.956865226	-0.6848919977	 1.8495740006	 0.148184
H	-0.798162872	-0.7181930276	 1.9100999498	 0.148172
83.9307	129.0882	160.5561	186.9219	203.3176	282.7037	301.8143	443.2249	464.6865	502.4454	565.9758	588.9056	717.3309	794.9682	818.4265	844.8528	905.2995	942.7517	1010.3474	1058.5911	1064.053	1070.7244	1140.0761	1157.3074	1191.2584	1238.2742	1292.4992	1344.9028	1396.8661	1423.9959	1436.8975	1437.5975	1475.7285	1493.5768	1710.9266	1738.7993	1862.7756	3016.1003	3027.1103	3038.8218	3061.024	3070.3483	3107.0506	3224.4972	3498.1111
CC1=CN(C=N)C(=O)C1	CC1=CN([CH][NH])C(=O)C1	
InChI=1S/C6H8N2O/c1-5-2-6(9)8(3-5)4-7/h3-4,7H,2H2,1H3	InChI=1S/C6H8N2O/c1-5-2-6(9)8(3-5)4-7/h3-4,7H,2H2,1H3
