27
gdb 58226	2.25616	1.17693	1.00045	0.1286	95.29	-0.2604	0.0805	0.3409	1415.4003	0.25024	-353.558073	-353.546956	-353.546011	-353.593406	42.926	
C	-0.0914861829	 1.5824508486	-0.0406858313	-0.39845
C	-0.096674779	 0.0446189668	-0.0488623926	 0.038519
C	-1.5456930397	-0.4588251573	-0.134135146	-0.392798
C	 0.8067890263	-0.5334699464	-1.1713716586	-0.02552
C	 2.2543790073	-0.0166712605	-1.0659396246	-0.412072
C	 0.7939110459	-2.0675741722	-1.2459950793	 0.398949
C	 1.1959481487	-2.8169839447	 0.0136254471	-0.470803
C	-0.227579212	-2.7338367626	-2.1399318221	-0.3107
C	 1.2197807485	-2.6791826476	-2.5622955136	-0.318951
H	 0.8978477951	 1.9971006813	 0.1675571121	 0.113569
H	-0.4263886315	 1.9807181906	-1.0066645578	 0.10855
H	-0.7743833629	 1.9639071556	 0.7256843877	 0.107035
H	 0.3183203472	-0.2882508314	 0.9134878159	 0.07056
H	-2.0089692869	-0.1605116633	-1.082558989	 0.106506
H	-1.6134612343	-1.5463839768	-0.0611996649	 0.120881
H	-2.1480766228	-0.0292003826	 0.6733957184	 0.103729
H	 0.3986249448	-0.1723489712	-2.1277620503	 0.059634
H	 2.8955451362	-0.5176800555	-1.7972203832	 0.113203
H	 2.3175536239	 1.0580468185	-1.2531488138	 0.113067
H	 2.6760135706	-0.2016665174	-0.0714183752	 0.111822
H	 0.4970663171	-2.6366411893	 0.8376904239	 0.117004
H	 1.2127186053	-3.8961160097	-0.1689473154	 0.109577
H	 2.1954900675	-2.5276900233	 0.3563630997	 0.115605
H	-0.6364827716	-3.6901853211	-1.8291589136	 0.103986
H	-0.9336604204	-2.1064412558	-2.6730712507	 0.107694
H	 1.4843584403	-2.0117802369	-3.376657839	 0.105346
H	 1.7979316791	-3.5971972058	-2.5408655937	 0.10406
71.6202	96.3679	175.7977	201.7308	223.2176	228.9743	234.6847	259.4766	293.235	320.5343	346.7674	390.771	399.7355	427.2187	483.1802	524.0667	710.6039	783.7902	807.3725	867.6841	893.378	930.1473	934.1986	940.4529	953.4758	969.1073	983.1579	1030.393	1045.888	1061.2233	1079.4604	1099.7131	1123.7714	1150.7178	1183.6929	1189.5217	1197.9204	1273.0324	1313.2374	1317.3476	1352.3019	1366.639	1391.2348	1400.3389	1406.593	1421.9649	1422.7542	1471.3469	1486.4928	1489.0662	1493.485	1500.3792	1502.1001	1503.3778	1507.2757	1512.0679	1519.2667	2981.1421	3002.4076	3024.4118	3027.3705	3030.4716	3035.9097	3084.3701	3087.8998	3091.4959	3096.8911	3100.9132	3109.541	3120.356	3122.0225	3122.9791	3127.7981	3199.0746	3214.3497
CC(C)C(C)C1(C)CC1	CC(C)[C@@H](C)C1(C)CC1	
InChI=1S/C9H18/c1-7(2)8(3)9(4)5-6-9/h7-8H,5-6H2,1-4H3	InChI=1S/C9H18/c1-7(2)8(3)9(4)5-6-9/h7-8H,5-6H2,1-4H3/t8-/m1/s1
