18
gdb 49018	3.05361	1.52099	1.26772	2.0972	75.85	-0.2364	-0.0303	0.2061	1024.295	0.148042	-401.883603	-401.87615	-401.875205	-401.915446	29.447	
O	-0.684364713	 0.846998889	-0.689772578	-0.263301
C	 0.1513287873	 0.9852517973	 0.1710579639	 0.066555
C	 1.325513028	 1.8955915585	 0.0776469031	 0.255128
C	 1.5045227428	 2.7578396193	-1.1988668989	-0.312902
C	 2.9120508397	 2.1205682555	-1.4362439036	-0.239969
C	 2.7465676011	 1.2633510796	-0.1550508256	-0.013445
N	 3.2660930346	 1.7431144545	 1.1837859742	-0.145087
C	 3.1268272561	 3.2083857047	 1.258809235	-0.253435
C	 1.9068288288	 2.4010902332	 1.4118973521	-0.098597
H	 0.1098159149	 0.3841799456	 1.1089087799	 0.078659
H	 0.7666001343	 2.4929872006	-1.9573654083	 0.136221
H	 1.4812094763	 3.8383497481	-1.0412460886	 0.106064
H	 2.96319659	 1.5062969377	-2.3379413478	 0.116426
H	 3.7679098555	 2.799708458	-1.4419876263	 0.114639
H	 2.8892197698	 0.1863575403	-0.2378161515	 0.097926
H	 3.5650036874	 3.6056828068	 2.1696117879	 0.130327
H	 3.2892939071	 3.8303655232	 0.3852713433	 0.123606
H	 1.3908957292	 2.3044811283	 2.3633189592	 0.101185
98.515	172.9024	228.5756	278.863	323.6668	391.3604	435.484	551.8765	651.31	708.3768	728.9815	733.3672	776.2734	848.4148	878.9885	907.6555	943.3006	960.0504	997.8493	1011.1859	1058.1402	1073.2733	1110.0242	1116.8465	1148.8273	1170.8781	1190.0185	1223.0618	1239.6527	1242.6779	1254.6608	1277.3759	1311.476	1375.7022	1427.9254	1473.1818	1482.9273	1514.2565	1807.9607	2863.2055	3068.345	3074.8815	3109.6969	3118.8033	3128.5685	3138.3858	3145.4861	3209.7903
O=CC12CCC1N1CC21	O=C[C@]12CC[C@H]1N1C[C@@H]21	
InChI=1S/C7H9NO/c9-4-7-2-1-5(7)8-3-6(7)8/h4-6H,1-3H2	InChI=1S/C7H9NO/c9-4-7-2-1-5(7)8-3-6(7)8/h4-6H,1-3H2/t5-,6+,7-,8?/m1/s1
