25
gdb 109667	1.91754	1.26555	1.06632	1.0475	90.13	-0.2326	0.0824	0.315	1378.5351	0.225987	-389.477173	-389.465743	-389.464799	-389.513412	41.565	
C	 0.1904808913	 1.5038531546	-0.2376113697	-0.383352
C	-0.1527150025	 0.0550715473	 0.1368308191	-0.235581
C	 0.6643369716	-0.4858725143	 1.304729113	 0.274903
C	 0.3787085817	 0.1782233039	 2.6416946473	-0.460249
C	 1.0302675767	-1.970029098	 1.3534967154	-0.104409
C	 0.595444731	-2.9673669171	 0.299769326	-0.420618
C	 2.0838775192	-0.9158496977	 1.0549997419	 0.077909
O	 2.5720400806	-0.7790954165	-0.2451858901	-0.238116
C	 3.723945459	-1.5627510079	-0.4855228898	-0.233976
H	 1.2446966013	 1.583625622	-0.5171589405	 0.13292
H	-0.4133386779	 1.8359996242	-1.0882836097	 0.104834
H	 0.0024027774	 2.1986582368	 0.5868796481	 0.109823
H	-1.2179462366	-0.0187860741	 0.3948678908	 0.086182
H	-0.0044473752	-0.5716000174	-0.7448877249	 0.104836
H	-0.6721387017	 0.0434986503	 2.9258007877	 0.112371
H	 0.9929392138	-0.2503527513	 3.4401259966	 0.109137
H	 0.5812864224	 1.2542555899	 2.6137116389	 0.118353
H	 1.069599055	-2.385561187	 2.358388366	 0.073714
H	 0.8206830921	-2.6150917754	-0.7092309196	 0.131926
H	 1.1165359281	-3.9210611752	 0.438514013	 0.110613
H	-0.4798066503	-3.1709269021	 0.3550026107	 0.114697
H	 2.8308938769	-0.7015212056	 1.8227836681	 0.071748
H	 3.5240313093	-2.6354406639	-0.3556237805	 0.11068
H	 4.0315666175	-1.3772985899	-1.5174769344	 0.125328
H	 4.5482247593	-1.2806765857	 0.1872640765	 0.106328
68.6775	104.5412	122.1192	155.9535	168.2797	189.4684	207.9585	231.9923	259.9624	287.6252	292.192	321.8255	400.8732	465.5942	545.5662	608.2003	702.3163	776.1591	791.9492	844.5041	934.9247	979.5551	998.9365	1025.2472	1026.4856	1054.2365	1087.5023	1104.4133	1122.7076	1136.2084	1167.0781	1176.1398	1183.6515	1226.248	1258.1909	1309.3166	1325.2635	1364.4109	1373.4589	1406.0881	1412.1133	1417.118	1446.3214	1474.0024	1486.1913	1487.3219	1491.9901	1497.3999	1499.498	1504.0629	1508.8799	1509.6164	1511.7297	2983.6652	3016.3207	3022.8955	3030.6951	3037.3649	3039.3991	3067.148	3083.5332	3084.6027	3092.427	3097.1272	3107.8416	3114.2355	3116.3241	3122.3017	3129.0533
CCC1(C)C(C)C1OC	CC[C@@]1(C)[C@@H](C)[C@H]1OC	
InChI=1S/C8H16O/c1-5-8(3)6(2)7(8)9-4/h6-7H,5H2,1-4H3	InChI=1S/C8H16O/c1-5-8(3)6(2)7(8)9-4/h6-7H,5H2,1-4H3/t6-,7+,8-/m0/s1
