20
gdb 109984	1.80101	1.64445	1.17674	4.1778	79.5	-0.2627	0.0286	0.2913	1177.9769	0.170002	-403.147586	-403.137948	-403.137004	-403.182287	34.762	
C	-0.5028069321	 1.6319921131	 0.0821830518	-0.247733
O	-0.3153314027	 0.3240919993	-0.4257956209	-0.225468
C	-1.3512466275	-0.5518207699	-0.1348095959	 0.157933
C	-1.1872477261	-1.979411526	-0.7176695528	-0.038447
C	 0.2486728912	-2.3657662645	-1.0656975276	-0.396551
C	-1.6948401121	-2.5552214891	 0.6370920947	-0.242632
C	-1.4726972803	-1.1633183228	 1.3222514061	-0.235449
C	-0.2649837317	-1.0662630515	 2.1219141834	 0.306992
N	 0.6939643071	-0.9841358572	 2.7639789394	-0.344027
H	 0.3458685782	 2.2302707813	-0.2546396207	 0.137885
H	-1.4335251969	 2.078299073	-0.2998789844	 0.107014
H	-0.5282243726	 1.6424692697	 1.1800213375	 0.125217
H	-2.324822117	-0.1125018816	-0.4027826263	 0.073024
H	-1.8399582836	-2.1793962276	-1.5718018591	 0.077659
H	 0.9287257459	-2.2045010679	-0.2246466378	 0.14454
H	 0.2932951801	-3.4245710398	-1.3412913138	 0.112015
H	 0.6180576723	-1.7739299554	-1.9071434137	 0.129409
H	-2.7524065938	-2.8257561819	 0.6302910415	 0.113341
H	-1.1196637029	-3.3831246855	 1.0539840041	 0.126308
H	-2.3131968555	-0.7913390156	 1.9130754548	 0.11897
63.6851	100.8697	141.9539	175.1322	193.088	215.2785	232.1641	307.0913	363.0396	398.7557	486.529	541.252	628.2861	754.0594	778.3088	818.5457	850.6301	924.2084	944.4174	1011.4258	1034.6628	1072.4525	1087.6885	1121.1718	1144.5318	1174.2023	1183.9784	1214.0929	1243.6936	1259.6243	1279.4926	1283.7148	1344.4152	1367.2675	1387.2894	1415.7344	1480.5657	1485.1797	1491.2556	1494.0689	1497.9227	1505.1571	2347.8196	2975.2765	2987.4762	3041.5712	3048.1709	3062.6906	3076.1752	3083.7935	3111.5837	3124.6597	3129.4861	3136.4554
COC1C(C)CC1C#N	CO[C@H]1[C@@H](C)C[C@H]1C#N	
InChI=1S/C7H11NO/c1-5-3-6(4-8)7(5)9-2/h5-7H,3H2,1-2H3	InChI=1S/C7H11NO/c1-5-3-6(4-8)7(5)9-2/h5-7H,3H2,1-2H3/t5-,6-,7-/m0/s1
