15
gdb 15756	3.97706	1.28029	1.08326	2.7704	63.85	-0.254	-0.0327	0.2213	1075.0923	0.116907	-399.802417	-399.794204	-399.79326	-399.836742	27.865	
O	 1.0543563856	-0.0468567734	-0.130891531	-0.236809
C	 0.5534330495	 1.006352757	-0.4239614948	 0.161211
C	 0.9900903597	 2.3420838108	 0.1594639596	-0.375417
C	 1.0952434148	 3.4000687134	-0.9333583963	 0.35662
O	 0.1944472564	 3.6074060101	-1.7162561461	-0.337605
N	 2.2678004534	 4.1442523213	-0.9051250063	-0.076134
C	 3.5939230426	 3.6266506988	-1.2031374167	-0.236472
C	 2.917797327	 4.6211945027	-2.1024671352	-0.215922
H	-0.2787595713	 1.0850893176	-1.1532235755	 0.110426
H	 0.1899492496	 2.6720912463	 0.8360498923	 0.161227
H	 1.9072988409	 2.2187258135	 0.7365901763	 0.133191
H	 4.3899311474	 3.9454125698	-0.5363492863	 0.135264
H	 3.6708112197	 2.6011894221	-1.5564196008	 0.141801
H	 2.5190820122	 4.2683174379	-3.0494088732	 0.144379
H	 3.2356870726	 5.6592359721	-2.0874902459	 0.13424
27.7958	82.0765	111.762	178.0919	215.9243	269.9635	416.2203	465.7349	604.8966	634.5392	754.5796	815.0589	831.626	938.9042	974.4866	1028.1417	1051.0288	1064.2741	1121.2104	1129.2309	1135.1547	1170.4229	1176.2844	1205.3558	1283.8314	1399.5706	1409.7078	1444.5398	1495.5704	1522.9253	1778.9537	1836.8152	2932.2694	3034.6439	3109.6723	3120.7747	3133.8509	3196.639	3213.6671
O=CCC(=O)N1CC1	O=CCC(=O)N1CC1	
InChI=1S/C5H7NO2/c7-4-1-5(8)6-2-3-6/h4H,1-3H2	InChI=1S/C5H7NO2/c7-4-1-5(8)6-2-3-6/h4H,1-3H2
