18
gdb 129592	2.94748	1.36431	0.98544	3.2617	78.19	-0.1995	0.0387	0.2382	1189.1095	0.150314	-398.132571	-398.124213	-398.123269	-398.165975	31.629	
N	-0.1315983533	 1.2725323417	 0.4188347081	-0.608638
C	-0.1035216857	-0.0896525816	 0.1165865211	 0.288551
C	-1.1233233669	-0.9669975441	-0.2272045718	 0.153521
C	-0.4411436142	-2.1803894214	-0.4970159226	-0.081022
N	 0.8699874852	-2.0870589295	-0.3301161894	-0.243468
N	 1.0540158899	-0.7905021375	 0.040682646	-0.244796
C	-2.5706523511	-0.6615358484	-0.3076894449	-0.157846
C	-3.5798147702	-1.5447640524	 0.3861557938	-0.257547
C	-3.3217776753	-0.1586321218	 0.9147491051	-0.265278
H	 0.4114304685	 1.5179905659	 1.2386820145	 0.247032
H	-1.0841234235	 1.5928332165	 0.5406246857	 0.259774
H	-0.8761553312	-3.1239069416	-0.7961055485	 0.103614
H	 1.9885619547	-0.4480743292	 0.183018249	 0.26515
H	-2.9127151525	-0.238955393	-1.2509464363	 0.093928
H	-4.5217535691	-1.7356858832	-0.1155133526	 0.110842
H	-3.1988151805	-2.3799353699	 0.9627181772	 0.118437
H	-2.7702739137	-0.0753578697	 1.8449796662	 0.109051
H	-4.0879500112	 0.5961926092	 0.7745672592	 0.108694
48.2974	146.2525	152.4925	217.1227	275.4311	317.7489	392.9597	438.9377	494.8975	602.8076	671.2761	709.713	720.1264	782.6366	804.184	830.2504	892.2279	907.5182	923.1163	953.7145	1053.3175	1080.1136	1083.6979	1094.2472	1117.5187	1136.4712	1198.3641	1202.9761	1218.0984	1253.0542	1345.8645	1351.8613	1413.4571	1462.1338	1466.0474	1499.6967	1563.5409	1626.0775	1661.8401	3108.1428	3129.7378	3139.8848	3212.0297	3229.1182	3233.9749	3523.1689	3617.7548	3676.3741
NC1=C(C=NN1)C1CC1	Nc1c(cn[nH]1)C1CC1	
InChI=1S/C6H9N3/c7-6-5(3-8-9-6)4-1-2-4/h3-4H,1-2H2,(H3,7,8,9)	InChI=1S/C6H9N3/c7-6-5(3-8-9-6)4-1-2-4/h3-4H,1-2H2,(H3,7,8,9)
