23
gdb 121158	3.06119	0.94435	0.79666	0.8779	87.18	-0.2505	0.0906	0.3411	1538.3467	0.204957	-388.253799	-388.244058	-388.243114	-388.289058	36.033	
C	 0.0290331516	 1.3809481969	 0.140289262	-0.223909
O	 0.0016736316	-0.0243192387	 0.1081180776	-0.232607
C	-1.2993142749	-0.5471313698	-0.0621079544	-0.075439
C	-1.2104546353	-2.0591066675	-0.0650610218	-0.057968
C	-0.8758285805	-2.7700840048	 1.2793219236	-0.21658
C	-2.0193819841	-3.7919064095	 1.0107438831	-0.302773
C	-2.5160543426	-2.8755974597	-0.1167884773	 0.360427
C	-3.9126108116	-2.3291512719	-0.2389401615	-0.322639
C	-3.3494847517	-3.2406849066	-1.3063693985	-0.324443
H	 1.0695542351	 1.6869057438	 0.2756042714	 0.125087
H	-0.3507240002	 1.8203247704	-0.796493626	 0.100577
H	-0.570601658	 1.7845609233	 0.9721607263	 0.101152
H	-1.9614050206	-0.2052840815	 0.7526688562	 0.081374
H	-1.7376476541	-0.1802265635	-1.0084145335	 0.078494
H	-0.5179204369	-2.3664462543	-0.8568331853	 0.075964
H	 0.1335484605	-3.1716995071	 1.3827763929	 0.101014
H	-1.0829945869	-2.1277683581	 2.1399210331	 0.100103
H	-1.6497934916	-4.7542061324	 0.6418355798	 0.099509
H	-2.7144322746	-3.9816983592	 1.8335659285	 0.096065
H	-4.6713208813	-2.7275805555	 0.4278257017	 0.108725
H	-4.0495772858	-1.28112177	-0.4857459125	 0.110459
H	-3.0940772352	-2.8007894165	-2.2658318862	 0.108356
H	-3.7315517728	-4.2549520778	-1.3703951492	 0.109052
62.9913	84.1353	105.5969	119.5845	223.5467	244.3871	262.7991	337.1363	340.9479	435.2945	497.6136	540.3675	741.7592	777.854	807.2223	859.0744	892.981	901.6209	932.4327	942.7371	956.4249	992.7455	1023.4477	1051.2739	1076.4679	1101.6234	1132.0282	1151.5422	1169.7556	1187.6805	1190.436	1203.3245	1225.1065	1237.7607	1248.3471	1269.0061	1271.4166	1289.5531	1360.0697	1371.7246	1424.291	1465.4002	1477.5732	1480.5763	1484.1365	1496.1126	1503.4208	1505.1871	1526.6866	2931.7051	2962.1473	2966.4316	3006.508	3041.6688	3045.1606	3062.0671	3090.2936	3110.184	3117.8817	3121.478	3122.49	3194.5489	3209.7494
COCC1CCC11CC1	COC[C@H]1CCC21CC2	
InChI=1S/C8H14O/c1-9-6-7-2-3-8(7)4-5-8/h7H,2-6H2,1H3	InChI=1S/C8H14O/c1-9-6-7-2-3-8(7)4-5-8/h7H,2-6H2,1H3/t7-/m1/s1
