20
gdb 106645	2.71422	1.25916	1.02192	3.8249	80.47	-0.2378	0.0142	0.252	1253.4903	0.169779	-403.159583	-403.150165	-403.149221	-403.193811	34.992	
C	 0.1447193921	 1.4756806564	 0.2230680994	-0.379131
C	-0.1149583529	-0.0100144331	-0.0627240016	-0.272058
C	 0.5920712978	-0.5030655654	-1.2909757259	 0.353883
C	 2.003559925	-1.0085308098	-1.3694336357	-0.365488
C	 0.8407175826	-1.9209145249	-1.7967487122	 0.074191
C	 0.5633518983	-3.2702974541	-1.2047947792	-0.49633
C	 0.395755973	-1.401649298	-3.1571809316	 0.395107
O	 0.2950478437	-1.849009239	-4.2646756403	-0.346544
N	 0.1190133586	-0.1195720583	-2.6355025812	-0.401969
H	 1.2124916528	 1.6697297096	 0.3677474067	 0.119523
H	-0.2020887896	 2.1014925762	-0.6058979656	 0.12173
H	-0.3833761702	 1.7980473223	 1.1251420877	 0.118162
H	 0.2106152737	-0.6124787848	 0.7936197129	 0.10293
H	-1.1911922456	-0.1806302394	-0.1835375026	 0.112201
H	 2.6932132744	-0.6110693985	-2.1091085382	 0.116975
H	 2.4705666598	-1.2995639781	-0.4312536915	 0.117796
H	 0.8235718163	-3.298260328	-0.1418728706	 0.120109
H	-0.4934938722	-3.5379986565	-1.3025478163	 0.133082
H	 1.150513888	-4.0435858431	-1.7111717506	 0.139984
H	 0.4148946443	 0.7273865668	-3.1105790036	 0.235848
74.0704	119.7668	142.5543	155.0308	211.0798	243.1297	271.7742	353.9755	381.9343	468.5841	519.1251	591.655	668.4018	702.668	733.3797	762.545	791.3356	863.2404	900.5848	944.3557	981.817	998.7226	1015.3198	1065.8993	1087.1247	1106.7388	1135.5492	1176.8135	1222.2535	1301.8117	1324.7234	1330.9511	1366.2852	1406.1297	1411.2158	1426.3494	1474.3354	1483.645	1495.3625	1497.4585	1500.9508	1509.1475	1893.1198	3029.9448	3033.9254	3036.2338	3067.6062	3099.1445	3103.1415	3105.4536	3107.0159	3110.9942	3192.3393	3527.5943
CCC12CC1(C)C(=O)N2	CC[C@@]12C[C@]1(C)C(=O)N2	
InChI=1S/C7H11NO/c1-3-7-4-6(7,2)5(9)8-7/h3-4H2,1-2H3,(H,8,9)	InChI=1S/C7H11NO/c1-3-7-4-6(7,2)5(9)8-7/h3-4H2,1-2H3,(H,8,9)/t6-,7-/m1/s1
