22
gdb 5935	3.48201	1.02209	0.96935	0.1706	87.36	-0.2393	0.0671	0.3065	1381.7378	0.196906	-313.061392	-313.050496	-313.049552	-313.098394	38.468	
C	 0.1396753582	 1.5369677801	-0.063490036	-0.406545
C	-0.0307999619	 0.014078264	-0.0658774641	-0.168602
C	-1.4930791765	-0.5161298173	 0.0306547168	 0.068519
C	-2.1628216952	-0.0592053949	 1.3474899329	-0.400738
C	-2.337698193	-0.0356761581	-1.1723303966	-0.400738
C	-1.4364603231	-1.9845365534	 0.0130167392	 0.105179
C	-1.3819948848	-3.1880481105	-0.0019935206	 0.024863
C	-1.3198472815	-4.6433685872	-0.0198756585	-0.497864
H	 1.2014659503	 1.7934289158	-0.1347900966	 0.113525
H	-0.3662381421	 2.0100639474	-0.9105565779	 0.118228
H	-0.2437678676	 1.9935882662	 0.8539843947	 0.118228
H	 0.4144958457	-0.3987873207	-0.9785122725	 0.10022
H	 0.5357534491	-0.4150989366	 0.7686725705	 0.100222
H	-2.2708499571	 1.0292837536	 1.375234482	 0.110863
H	-3.1592013039	-0.4999522549	 1.4420171231	 0.118388
H	-1.5726641433	-0.3708484058	 2.2144315626	 0.11652
H	-1.8733416012	-0.3303862895	-2.1181180822	 0.116522
H	-3.3381491592	-0.4758800678	-1.1365060831	 0.118385
H	-2.4471233642	 1.0530000168	-1.1646512919	 0.110863
H	-1.8834852934	-5.0571247605	-0.8636900895	 0.144664
H	-0.2868241916	-4.9982476518	-0.1082450446	 0.144635
H	-1.7381064637	-5.0725478951	 0.8976039023	 0.144663
14.9483	78.9912	93.8835	118.5809	207.5281	256.66	267.3923	271.087	290.5422	309.2256	351.0294	365.4348	402.967	536.3944	549.5033	651.7143	782.862	803.1482	915.7137	938.0162	999.5926	1022.1943	1050.7058	1053.0996	1063.0419	1071.3765	1083.6739	1208.3476	1222.1733	1264.1111	1321.1639	1366.9178	1393.4127	1407.7627	1414.7439	1420.1466	1479.5901	1479.7353	1480.718	1480.9497	1485.2484	1502.8497	1507.6337	1507.7307	1510.2839	2364.9162	3023.5277	3030.4852	3035.5367	3037.635	3042.65	3065.033	3082.864	3082.8899	3101.5452	3106.1688	3112.0003	3113.5046	3114.7109	3115.4228
CCC(C)(C)C#CC	CCC(C)(C)C#CC	
InChI=1S/C8H14/c1-5-7-8(3,4)6-2/h6H2,1-4H3	InChI=1S/C8H14/c1-5-7-8(3,4)6-2/h6H2,1-4H3
