17
gdb 110549	3.6616	1.42896	1.37972	1.372	65.89	-0.2354	0.0826	0.318	989.9451	0.137092	-458.926986	-458.919941	-458.918997	-458.958786	27.385	
C	-0.0931189072	 1.3624681543	-0.0309366814	-0.240529
O	 0.1595678388	-0.0224749386	 0.0740179105	-0.248917
C	 0.7185526368	-0.5839457196	-1.0798896324	 0.168719
C	 1.0452530609	-2.0511302242	-0.876063473	-0.233217
C	-0.2324990049	-2.7724165916	-1.2916359884	 0.053264
O	-1.1799943108	-1.8026577221	-1.6984943547	-0.236019
C	-0.279232923	-0.8625120664	-2.2522601322	 0.083715
O	 0.5297462481	-1.6051274088	-3.1588274461	-0.250838
C	 0.9086542527	-2.6459717714	-2.2683468426	 0.03681
H	 0.8204740513	 1.9228091132	-0.2834623495	 0.107147
H	-0.8591534472	 1.5917922571	-0.7858547042	 0.109993
H	-0.455024326	 1.6968287554	 0.9438056994	 0.132254
H	 1.5763929621	 0.0000116375	-1.4436737834	 0.076874
H	 1.7277034759	-2.4115460326	-0.1208054278	 0.1054
H	-0.6414332097	-3.6744695754	-0.8630019818	 0.11755
H	-0.8013640975	-0.0526837631	-2.7528471935	 0.099679
H	 1.5007147599	-3.4365653837	-2.704071629	 0.118116
82.543	160.7396	187.1465	276.8441	401.4358	510.0331	581.2098	627.6608	725.2006	782.013	801.9809	804.0294	840.145	890.7638	925.5476	973.3557	1006.0118	1016.4688	1032.9189	1038.3363	1046.8161	1055.4078	1087.9249	1104.9856	1164.872	1180.7008	1219.4153	1229.9887	1238.4051	1268.082	1296.5236	1344.2805	1375.678	1386.5558	1480.657	1491.3916	1506.9318	2979.0641	3008.0869	3029.8353	3120.5241	3182.6209	3230.034	3236.0084	3247.2446
COC1C2C3OC1OC23	CO[C@H]1[C@H]2[C@H]3O[C@@H]1O[C@@H]23	
InChI=1S/C6H8O3/c1-7-5-2-3-4(2)9-6(5)8-3/h2-6H,1H3	InChI=1S/C6H8O3/c1-7-5-2-3-4(2)9-6(5)8-3/h2-6H,1H3/t2-,3+,4-,5-,6+/m0/s1
