15
gdb 46083	4.90271	1.03881	0.88852	1.3046	75.36	-0.2719	-0.0563	0.2156	1226.384	0.114532	-416.837656	-416.830059	-416.829115	-416.870113	28.266	
N	-0.0284044208	 1.2699812204	 0.3595328029	-0.510908
C	-0.0043111535	 0.0508636175	 0.0092238046	 0.379101
O	 1.1748633573	-0.6188091692	-0.1936573407	-0.25934
C	 1.127971796	-1.8026474875	-0.9843245493	-0.095845
C	 0.0681440328	-2.7860871306	-0.4488129269	-0.219034
C	-1.2451928153	-2.0455390193	-0.2965480458	-0.081544
C	-1.2447712051	-0.7247519744	-0.1136760817	-0.106108
C	-0.0473712692	-3.9395728737	-1.3424959609	 0.265882
N	-0.130502613	-4.8442722693	-2.0561346061	-0.308499
H	 0.9227218311	 1.640727714	 0.4131800295	 0.228857
H	 0.8949228175	-1.5533362484	-2.0266151627	 0.135509
H	 2.1285822825	-2.2349646069	-0.9398898726	 0.143013
H	 0.3928978905	-3.1611353311	 0.532686369	 0.155554
H	-2.1649935547	-2.6185028227	-0.3306531897	 0.136061
H	-2.1578653261	-0.1560212688	 0.0099516106	 0.1373
72.1775	145.8221	186.318	261.2156	345.4749	409.8674	419.5116	504.4202	547.2114	588.3315	676.0638	738.5224	806.2969	825.7049	914.8887	927.3402	995.2241	1010.4514	1032.167	1066.589	1087.933	1141.3332	1193.8999	1255.378	1291.2797	1303.3058	1334.5407	1405.2699	1429.1057	1504.7551	1686.0352	1737.6882	2363.4582	3008.8626	3040.5858	3127.1826	3195.6529	3224.0047	3469.7232
N=C1OCC(C=C1)C#N	[NH]C1=C[CH][C@H](CO1)C#N	
InChI=1S/C6H6N2O/c7-3-5-1-2-6(8)9-4-5/h1-2,5,8H,4H2	InChI=1S/C6H6N2O/c7-3-5-1-2-6(8)9-4-5/h1-2,5,8H,4H2/t5-/m0/s1
