13
gdb 21111	3.51451	2.4397	1.45309	0.3857	63.35	-0.2571	-0.0782	0.1789	794.9098	0.09671	-394.787212	-394.780584	-394.77964	-394.818064	24.18	
C	-0.0299825588	 1.4311663494	-0.0043219253	-0.316052
N	-0.007678301	-0.0278033159	 0.0154735685	-0.061816
N	-0.0507029504	-0.6229691111	-1.184359341	-0.053833
N	-0.0354365777	-1.8984088859	-1.2663285613	-0.219655
C	 0.0255030688	-2.6404925473	-0.109631634	 0.06234
C	 0.0712953949	-2.1052522729	 1.1337033826	-0.247924
C	 0.0562620388	-0.67073333	 1.2785517919	 0.466071
O	 0.0909585857	-0.0131195803	 2.3008836662	-0.386153
H	 0.8699494079	 1.8190219405	 0.4781213038	 0.160624
H	-0.0796828127	 1.743319328	-1.0458283692	 0.156895
H	-0.8958271955	 1.79304182	 0.5546178584	 0.160624
H	 0.0342439347	-3.712696577	-0.2747256908	 0.140707
H	 0.1190639953	-2.7078007875	 2.0322714102	 0.138172
135.8879	145.2239	238.6237	321.96	376.0041	476.5056	561.1349	586.019	626.7134	743.3836	777.5196	877.2507	919.0498	979.9662	1017.7862	1057.422	1150.5765	1176.3454	1198.6303	1253.9549	1312.8243	1425.7429	1430.6459	1470.9079	1485.4766	1500.3474	1619.1019	1793.0137	3064.9116	3132.8993	3182.7225	3192.0049	3220.3408
CN1N=NC=CC1=O	CN1[N]N=C[CH]C1=O	
InChI=1S/C4H5N3O/c1-7-4(8)2-3-5-6-7/h2-3H,1H3	InChI=1S/C4H5N3O/c1-7-4(8)2-3-5-6-7/h2-3H,1H3
