20
gdb 90558	2.82119	1.17787	1.02086	3.7521	80.52	-0.2412	0.0293	0.2705	1249.6046	0.17117	-403.143231	-403.134305	-403.133361	-403.177879	33.316	
C	-0.0740313598	 2.0230286198	 2.0000563494	-0.409433
C	-0.1439215728	 0.5514597217	 1.6069486071	 0.040543
C	 0.0333318847	 0.1161972302	 0.1115016824	-0.272399
C	 1.0971936694	-0.905607497	 0.5410961471	-0.128442
C	 2.253555165	-0.2427618684	 1.2101764368	 0.071708
N	 2.8062380825	 1.000129229	 0.7448159185	-0.288555
C	 3.8888483023	 1.5751026837	 1.3375628623	 0.14395
O	 4.4181011112	 1.1752500387	 2.3518377053	-0.318297
C	 0.9854947476	-0.412805986	 2.0033919811	-0.087772
H	 0.8380816619	 2.4996110483	 1.6340701486	 0.118495
H	-0.9323858938	 2.5724481268	 1.5968527906	 0.110051
H	-0.0919762094	 2.1341803382	 3.0896515424	 0.120531
H	-1.0902429883	 0.135021537	 1.9674041318	 0.081132
H	-0.8627996077	-0.3486681636	-0.3036658397	 0.110383
H	 0.3580303999	 0.8940351066	-0.590374788	 0.083633
H	 1.1678015619	-1.9169981383	 0.1582601831	 0.092781
H	 3.033610186	-0.923058676	 1.5403399426	 0.121711
H	 2.5205272933	 1.3487210085	-0.1566472854	 0.249973
H	 4.2384700534	 2.4670943469	 0.7788587936	 0.070481
H	 1.0027163427	-0.9943250162	 2.9183678305	 0.089526
21.9487	139.997	152.9561	209.899	230.1395	235.248	312.036	392.976	465.1053	497.3191	602.7682	687.8971	722.1746	782.4677	815.1732	845.9663	873.6642	948.6961	975.1437	990.725	997.3422	1029.4866	1035.9879	1073.9195	1104.619	1117.968	1131.2311	1173.3885	1195.0786	1243.9209	1248.1068	1275.4934	1301.0085	1353.2493	1379.0909	1408.157	1425.401	1432.15	1492.3254	1499.1526	1502.3071	1513.5824	1807.7868	2925.6212	3027.2455	3033.6857	3045.3802	3092.4724	3106.8259	3126.8132	3153.4288	3170.4514	3182.5119	3627.3111
CC1CC2C(NC=O)C12	C[C@H]1C[C@H]2[C@@H](NC=O)[C@@H]12	
InChI=1S/C7H11NO/c1-4-2-5-6(4)7(5)8-3-9/h3-7H,2H2,1H3,(H,8,9)	InChI=1S/C7H11NO/c1-4-2-5-6(4)7(5)8-3-9/h3-7H,2H2,1H3,(H,8,9)/t4-,5+,6-,7+/m0/s1
