16
gdb 110174	1.63141	1.17042	1.00046	2.5312	74.45	-0.2741	-0.0251	0.249	1337.7658	0.119624	-434.087199	-434.075415	-434.074471	-434.125851	38.061	
N	 0.5249213978	 2.6590948994	-0.6674350257	-0.724584
H	 0.5365131775	 1.9139918459	-1.3584268087	 0.24293
H	 1.4831440547	 2.9867474718	-0.5813077067	 0.252931
H	-0.0092886225	 3.4225900183	-1.074338302	 0.26096
C	-2.4682073844	 1.1030547137	 2.5555695568	-0.316285
C	-1.5982274069	 1.8773005909	 1.9206195453	 0.027356
C	-1.4064891914	 3.3420533838	 2.2564976893	-0.168886
N	-0.0670817795	 3.6302476642	 2.7325495607	-0.364106
C	 1.0426287931	 3.5406414591	 2.260598572	 0.577642
O	 2.1702906624	 3.5194577444	 1.9507691928	-0.299911
C	-1.7404902345	 4.1932926366	 1.0953442477	 0.31049
N	-2.0102544554	 4.8568506159	 0.188639251	-0.340757
H	-2.5823464844	 0.0550457524	 2.3010647856	 0.131665
H	-3.1021848805	 1.480097434	 3.3530434213	 0.119617
H	-0.9585125111	 1.5223834418	 1.118145676	 0.142409
H	-2.095192925	 3.6166287278	 3.0618574346	 0.148529
34.6996	66.9655	85.5332	98.0466	116.1093	125.086	135.6088	203.375	239.667	260.2898	286.1276	345.5533	407.9589	534.2191	553.5863	611.9749	663.3947	713.7813	851.3314	949.0622	973.2746	994.7496	1061.6911	1103.3479	1147.0462	1288.055	1315.9714	1337.1608	1454.4364	1488.1786	1672.6552	1684.7172	1713.9041	2355.3158	2357.5678	3065.1415	3147.166	3188.9088	3233.1822	3467.2528	3587.021	3589.908
[NH3+]CC1C([N-]C1=O)C#N	N.C=C[C@@H](N=C=O)C#N	
InChI=1S/C5H7N3O/c6-1-3-4(2-7)8-5(3)9/h3-4H,1,6H2,(H,8,9)	InChI=1S/C5H4N2O.H3N/c1-2-5(3-6)7-4-8;/h2,5H,1H2;1H3/t5-;/m1./s1
