17
gdb 128502	2.3983	1.3377	0.91166	3.2243	72.69	-0.222	-0.0135	0.2085	1273.0873	0.136283	-455.112855	-455.10386	-455.102916	-455.147757	31.648	
C	 0.1380130128	 1.4858787885	 0.0935427663	-0.255155
O	 0.0608145583	 0.0702106401	 0.0887706936	-0.265372
C	 0.5067826762	-0.5414438963	-1.0335643043	 0.149087
C	 0.5580081149	-1.8945573614	-1.2210014407	 0.305766
C	 0.1483814562	-3.062212002	-0.382161338	-0.269866
N	-1.0247605797	-3.8096096734	-0.8574135586	-0.494817
O	 1.0499210531	-2.1389352974	-2.4561887023	-0.213382
N	 1.3308453129	-0.9463023038	-3.1017859296	-0.140278
C	 1.0079040748	-0.000032707	-2.2507015575	-0.078169
H	 1.1739307103	 1.8309820795	-0.0205243105	 0.127782
H	-0.4761902752	 1.9235417372	-0.7044198055	 0.126406
H	-0.24536255	 1.8125957141	 1.0610616558	 0.142435
H	 0.9851655457	-3.7657895858	-0.3041882043	 0.131653
H	-0.0547928266	-2.6923143869	 0.6271636986	 0.134172
H	-1.8162262937	-3.1766991655	-0.9383690468	 0.229911
H	-0.8440047928	-4.1483369249	-1.7985723591	 0.238308
H	 1.1451656027	 1.0322345748	-2.5365156271	 0.131518
47.6088	58.1123	145.2471	177.2827	210.7074	262.3259	318.0866	328.8493	407.2745	534.0933	611.9864	656.3176	697.3234	753.263	868.1175	881.021	905.3342	955.8224	964.2793	1063.6086	1097.1195	1134.0931	1169.98	1180.0459	1220.517	1244.4258	1281.6587	1368.5895	1394.3838	1423.5979	1471.3698	1490.5695	1493.5322	1501.1846	1506.6517	1666.9152	1682.0876	3003.4652	3044.4704	3062.8399	3097.5302	3140.512	3251.4726	3485.1731	3562.6549
COC1=C(CN)ON=C1	COc1c(CN)onc1	
InChI=1S/C5H8N2O2/c1-8-5-3-7-9-4(5)2-6/h3H,2,6H2,1H3	InChI=1S/C5H8N2O2/c1-8-5-3-7-9-4(5)2-6/h3H,2,6H2,1H3
