20
gdb 91015	2.70536	1.57142	1.344	2.3914	78.05	-0.2146	0.061	0.2756	1051.267	0.171009	-403.075813	-403.067622	-403.066678	-403.107981	32.853	
C	 0.1048710417	 1.5429351157	 0.100264357	-0.492433
C	-0.0727062492	 0.0572207262	-0.0100766109	 0.366263
C	-0.9352237274	-0.7307651005	 0.8842479252	-0.293366
N	 0.5285680782	-0.9232762747	 1.0073447012	-0.195834
C	 1.0140293627	-1.7587242682	-0.1638596282	 0.039654
C	 0.1187384145	-2.88074185	-0.754494927	-0.299951
C	-0.3880452917	-1.8709824671	-1.8494407933	 0.099148
O	-1.7660067075	-1.5817633967	-1.9325923321	-0.422463
C	 0.4729330912	-0.752451729	-1.2049335239	-0.117631
H	 1.1146282433	 1.8486662013	-0.1956944623	 0.117558
H	-0.6088854934	 2.065063028	-0.5483694073	 0.124165
H	-0.0621713282	 1.8762187745	 1.1287091567	 0.126246
H	-1.337272064	-0.2109575466	 1.7499420999	 0.111716
H	-1.5808702013	-1.5096202543	 0.4990327513	 0.125099
H	 2.0747833021	-1.9770341961	-0.0468912145	 0.078112
H	 0.6913013756	-3.7161442988	-1.1664130046	 0.099566
H	-0.6497639071	-3.2849832451	-0.0916363995	 0.110188
H	 0.0099246877	-2.1389275009	-2.8379079393	 0.072245
H	-2.2017954096	-2.3204349434	-2.3694193857	 0.28553
H	 1.1219457223	-0.1810029844	-1.8682541928	 0.066189
141.4956	163.8711	192.4851	277.7023	278.5733	322.7773	377.8958	428.4334	477.5276	540.1775	654.9069	666.3044	710.3734	716.9611	837.9983	861.0944	880.0347	914.5028	945.0058	980.6297	992.4796	1024.8124	1047.6167	1083.1365	1109.8659	1124.2402	1136.0599	1152.545	1186.5896	1187.7062	1215.6829	1249.7561	1256.179	1299.3876	1321.1461	1329.7665	1388.2423	1415.1562	1428.2641	1467.3323	1481.0187	1493.3405	1525.8528	2996.1767	3023.9037	3060.6791	3084.4662	3104.8933	3108.7868	3112.073	3120.0361	3127.9935	3223.8004	3816.6576
CC12CN1C1CC(O)C21	C[C@]12CN1[C@H]1C[C@@H](O)[C@@H]21	
InChI=1S/C7H11NO/c1-7-3-8(7)4-2-5(9)6(4)7/h4-6,9H,2-3H2,1H3	InChI=1S/C7H11NO/c1-7-3-8(7)4-2-5(9)6(4)7/h4-6,9H,2-3H2,1H3/t4-,5+,6-,7+,8?/m0/s1
