17
gdb 116563	4.00843	0.808	0.74926	2.8962	78.	-0.269	-0.0116	0.2574	1544.1277	0.135126	-418.013608	-418.004537	-418.003593	-418.048961	31.806	
C	 1.0648963533	 0.3965476419	-0.4273303553	-0.361774
C	-0.4368221731	 0.4043413261	-0.1401894268	-0.156415
N	-0.9830472018	-0.9456029839	-0.2714081626	-0.31518
C	-1.9563597056	-1.1633275861	-1.0136188441	 0.467798
C	-2.7630973266	-2.3837876886	-1.40210511	-0.394671
C	-3.5781417736	-1.3683240231	-2.2472385185	-0.009979
O	-2.7142883658	-0.2859662901	-1.8051322409	-0.262101
C	-3.5526794742	-1.5455079197	-3.6966535909	 0.283211
N	-3.544875572	-1.7053745717	-4.8406902752	-0.305492
H	 1.4897337667	 1.3916229799	-0.2636212995	 0.114208
H	 1.5771878209	-0.3147572528	 0.2263913777	 0.127939
H	 1.26171867	 0.1070736145	-1.464003694	 0.122974
H	-0.6061593566	 0.7228110418	 0.8957503076	 0.114794
H	-0.9466378068	 1.1256384184	-0.7912615431	 0.115517
H	-2.2175705861	-3.1359538754	-1.9723240608	 0.162314
H	-3.3150508591	-2.8585053385	-0.5904285707	 0.15279
H	-4.6060849699	-1.2032343127	-1.9135321028	 0.144067
29.4101	67.3104	142.8939	152.7433	211.7185	257.5453	272.1246	379.0042	475.9271	531.709	565.0248	574.4257	737.4851	781.1552	818.5481	906.7904	945.5372	959.4304	1014.7115	1039.7044	1079.7839	1098.5248	1116.7714	1135.1343	1176.9751	1239.4919	1270.171	1303.9528	1363.354	1382.7985	1408.2847	1465.9717	1488.7603	1493.5122	1510.7915	1866.1508	2364.2435	3017.3443	3041.2971	3055.0056	3080.7723	3098.2188	3113.6793	3121.6613	3157.6496
CCN=C1CC(O1)C#N	CCN=C1C[C@@H](O1)C#N	
InChI=1S/C6H8N2O/c1-2-8-6-3-5(4-7)9-6/h5H,2-3H2,1H3	InChI=1S/C6H8N2O/c1-2-8-6-3-5(4-7)9-6/h5H,2-3H2,1H3/t5-/m1/s1
