17
gdb 119447	4.6691	0.89996	0.85729	4.5668	69.9	-0.2728	0.0028	0.2756	1371.495	0.134375	-458.945763	-458.937129	-458.936185	-458.979905	30.928	
C	-0.6169432649	 1.3588979846	-0.4933194427	-0.225667
O	-0.8000949257	-0.0354294647	-0.6083035959	-0.239476
C	-0.6789869777	-0.7073544087	 0.6223067444	-0.176966
C	-0.8562024047	-2.1684026387	 0.3569111319	 0.44773
C	-0.4501712063	-2.9688487216	-0.8177891933	-0.326301
C	-1.927421909	-2.9448554949	-0.3693861076	-0.310047
C	-2.0276219796	-3.714147906	 0.9177966772	 0.458199
O	-2.7143876951	-4.5463420956	 1.4107995716	-0.320773
O	-0.9586333282	-3.0418016598	 1.5182160894	-0.305649
H	-0.7301549497	 1.782916671	-1.493236731	 0.135013
H	-1.3646536449	 1.8123646166	 0.1747714701	 0.113851
H	 0.3849230256	 1.6057491429	-0.1104261948	 0.113112
H	 0.3097891453	-0.5283942132	 1.0788565914	 0.10837
H	-1.4393414805	-0.369432796	 1.3454491686	 0.110425
H	-0.2729914746	-2.4064247299	-1.7283203789	 0.148632
H	 0.1442509241	-3.8669537342	-0.6856253665	 0.134844
H	-2.736342094	-2.6349694019	-1.013504904	 0.134703
61.682	81.3203	127.7606	169.345	229.4618	331.1448	350.3365	371.2798	466.3966	507.1002	682.017	707.8271	759.8221	824.6383	901.1698	933.3679	965.0951	990.2367	996.0561	1013.0318	1074.4054	1096.0066	1117.3565	1162.0826	1184.1428	1190.6352	1223.5144	1242.0967	1257.2973	1392.5484	1440.5182	1482.4867	1485.8819	1501.8791	1504.1333	1526.8456	1947.2393	2956.7112	2981.6646	2990.2485	3029.7554	3124.6253	3132.5272	3230.5555	3239.4403
COCC12CC1C(=O)O2	COC[C@]12C[C@H]1C(=O)O2	
InChI=1S/C6H8O3/c1-8-3-6-2-4(6)5(7)9-6/h4H,2-3H2,1H3	InChI=1S/C6H8O3/c1-8-3-6-2-4(6)5(7)9-6/h4H,2-3H2,1H3/t4-,6+/m0/s1
