20
gdb 26408	4.22573	0.90904	0.84449	2.7292	82.49	-0.1761	0.0407	0.2168	1440.2842	0.172027	-399.369318	-399.360092	-399.359148	-399.403661	34.679	
C	-0.0129178778	 1.5700879178	 0.0858752542	-0.394575
C	 0.0019367521	 0.0419125811	 0.0119473849	 0.061846
C	 0.5936352787	-0.5820513721	 1.2875788055	-0.383615
N	-1.3464188027	-0.4271690261	-0.2940570887	-0.384863
C	-1.5664274309	-1.7532815386	-0.6381779007	 0.342891
C	-0.7208203519	-2.6703125159	-1.2244455944	-0.201626
N	-1.5037206083	-3.8042534571	-1.4064640525	-0.23372
C	-2.7386228268	-3.5259070453	-0.9277961041	 0.015435
N	-2.8157243372	-2.3006071103	-0.4534339588	-0.32807
H	 0.9934758703	 1.962203375	 0.2596157654	 0.113435
H	-0.4044209696	 1.9993518231	-0.8399752511	 0.124038
H	-0.6475245513	 1.9104351699	 0.9134977613	 0.111423
H	 0.6317453915	-0.2479705039	-0.8398943752	 0.084647
H	 0.5663667734	-1.6738550627	 1.2348292981	 0.122992
H	 1.6336307148	-0.2707985808	 1.4337859313	 0.107347
H	 0.0206256426	-0.2695686651	 2.1683590218	 0.109594
H	-2.053591976	-0.1006289842	 0.3522708265	 0.229494
H	 0.3098995959	-2.6355173069	-1.5289690582	 0.115673
H	-1.1978719242	-4.6738466132	-1.8072018955	 0.26237
H	-3.5437158327	-4.2450883446	-0.9442641397	 0.125285
57.568	76.0822	133.7702	224.8131	254.835	295.6518	321.563	381.6975	440.4262	455.3287	478.7634	582.7386	625.8602	654.236	740.9624	770.155	803.6243	847.3012	927.2328	946.2007	947.6261	963.699	1022.9776	1088.2284	1141.5977	1147.8807	1169.9883	1200.6204	1254.4898	1272.5716	1346.6064	1355.3592	1376.9378	1393.2319	1415.4823	1460.9255	1485.4548	1485.8826	1491.3559	1503.9665	1508.6584	1545.2379	1626.3627	3013.2493	3026.2199	3032.0621	3091.5302	3100.3529	3114.0564	3122.8517	3251.815	3288.3134	3569.8809	3676.9284
CC(C)NC1=CNC=N1	CC(C)Nc1c[nH]cn1	
InChI=1S/C6H11N3/c1-5(2)9-6-3-7-4-8-6/h3-5,9H,1-2H3,(H,7,8)	InChI=1S/C6H11N3/c1-5(2)9-6-3-7-4-8-6/h3-5,9H,1-2H3,(H,7,8)
