22
gdb 101104	3.40594	1.03317	0.93005	1.6035	82.1	-0.2241	0.0594	0.2835	1364.9896	0.19413	-404.268329	-404.259067	-404.258123	-404.302719	35.131	
C	 0.0148559956	 1.5722635365	 0.0617379292	-0.383122
C	 0.0070604907	 0.0430137164	 0.0105552202	-0.192322
C	 0.7047923114	-0.5207160268	-1.2342635825	-0.043903
O	 2.0617511853	-0.0844766549	-1.330307078	-0.429079
C	 0.6320255246	-2.0316538996	-1.3098047231	 0.337873
C	-0.5956555388	-2.9731872974	-1.3807046328	-0.218284
N	 0.5717208686	-3.9758524682	-1.4232420198	-0.145864
C	 1.2164438694	-2.9669063856	-2.3932901226	-0.210551
C	 1.1851150547	-3.0962586156	-0.3212480988	-0.220698
H	 1.0374209842	 1.953315283	-0.0010334407	 0.128955
H	-0.5482310747	 1.9959706778	-0.7771424492	 0.115175
H	-0.4364596321	 1.9408343075	 0.9876677763	 0.109334
H	 0.5026587682	-0.3651053209	 0.9035156386	 0.088013
H	-1.0236352058	-0.3325029149	 0.0370475179	 0.100695
H	 0.2225357838	-0.1064318431	-2.130245271	 0.08582
H	 2.5367545733	-0.4495743153	-0.574931591	 0.27806
H	-1.2245373063	-3.0762599101	-0.491793538	 0.099796
H	-1.1966657373	-2.9659667145	-2.29465338	 0.10071
H	 0.7532039916	-2.95917895	-3.3840376814	 0.098965
H	 2.3030930768	-3.0587155445	-2.462311019	 0.1029
H	 2.2699247876	-3.2108052032	-0.2331952977	 0.097229
H	 0.6937981089	-3.2111585065	 0.6492459533	 0.100296
58.2453	90.8288	132.5233	188.8904	225.6456	282.3293	292.2245	340.3012	423.3956	492.1591	587.5897	596.5394	704.7582	778.6499	795.2088	805.4728	867.8487	917.2817	942.8862	974.0332	979.213	987.7148	1001.4093	1025.0256	1062.227	1100.9656	1106.9805	1141.9694	1167.3121	1167.4948	1175.6635	1197.1272	1201.4112	1256.9783	1267.8006	1306.6486	1331.5523	1339.4731	1388.2611	1405.1397	1419.2407	1480.4554	1495.1749	1508.2183	1511.4637	1511.8902	1565.6166	3002.9402	3022.1272	3037.5691	3039.9056	3045.1581	3052.305	3055.6695	3102.6213	3106.0585	3112.4824	3120.4535	3122.7749	3793.7263
CCC(O)C12CN(C1)C2	CC[C@@H](O)[C@@]12CN(C1)C2	
InChI=1S/C7H13NO/c1-2-6(9)7-3-8(4-7)5-7/h6,9H,2-5H2,1H3	InChI=1S/C7H13NO/c1-2-6(9)7-3-8(4-7)5-7/h6,9H,2-5H2,1H3/t6-/m1/s1
