16
gdb 7332	4.34518	1.22881	1.04669	1.4705	62.58	-0.2504	-0.0687	0.1818	1148.1054	0.127314	-420.927396	-420.918176	-420.917232	-420.962493	31.038	
C	 0.4501049998	 0.9257561355	-0.2669019771	-0.38823
C	-0.5899217329	 0.2247729568	 0.5930761704	-0.057636
O	 0.027557012	-0.4670108145	 1.7041789737	-0.218973
C	 0.4760002005	-1.6968331194	 1.4635290558	 0.349233
O	 0.4121642011	-2.2828683923	 0.4091835463	-0.353943
C	 1.1103849898	-2.3303500183	 2.7272488507	 0.285936
C	 1.600427157	-3.7432336338	 2.529784747	-0.470943
O	 1.1909844221	-1.714292207	 3.7578726413	-0.262289
H	 1.1087228882	 0.1981490023	-0.7468756382	 0.144321
H	-0.050724317	 1.5038751817	-1.0498105376	 0.125455
H	 1.0539285068	 1.6108273076	 0.3346031595	 0.133907
H	-1.2685073078	 0.9386180003	 1.0642491353	 0.123347
H	-1.1659829224	-0.4964798752	 0.008414699	 0.133979
H	 2.3466338012	-3.7723972132	 1.7294339471	 0.157183
H	 2.0254848354	-4.1159488386	 3.4617295496	 0.142111
H	 0.776788046	-4.3844725417	 2.200092777	 0.156542
39.2343	73.2454	98.4693	120.1642	180.5988	243.1017	325.6633	343.162	408.0882	474.8768	511.0322	610.4532	725.6855	783.2742	860.8717	870.609	965.8985	1037.3014	1040.3148	1116.1173	1157.0513	1199.4704	1306.2309	1331.9844	1385.5738	1402.4843	1421.9336	1452.5163	1460.7134	1485.882	1488.2196	1506.7573	1797.9667	1831.0478	3047.9067	3049.8358	3073.0589	3111.3823	3117.516	3122.3024	3143.4003	3163.0129
CCOC(=O)C(C)=O	CCOC(=O)C(=O)C	
InChI=1S/C5H8O3/c1-3-8-5(7)4(2)6/h3H2,1-2H3	InChI=1S/C5H8O3/c1-3-8-5(7)4(2)6/h3H2,1-2H3
