19
gdb 5329	4.29101	1.4005	1.37238	2.1702	77.42	-0.1983	0.0512	0.2495	1016.9163	0.166335	-327.969332	-327.961211	-327.960267	-328.002253	30.662	
C	-0.0004639836	 1.5478893363	-0.0149937435	-0.379119
C	-0.0206896792	 0.0155130798	 0.049925386	 0.03398
C	 0.7728265318	-0.5229695428	 1.2470367951	-0.379347
N	-1.3900719723	-0.5002621785	 0.0428358211	 0.037472
C	-2.3476870863	-0.2777072764	 1.0038815575	-0.101156
C	-3.4996946375	-0.932001357	 0.6293003579	-0.167931
C	-3.2343863389	-1.578223196	-0.6080378153	-0.179199
C	-1.9298317546	-1.292988042	-0.9405945705	-0.09497
H	 1.0291250655	 1.9103006579	-0.0938914889	 0.11686
H	-0.5630271057	 1.9068557063	-0.8808771631	 0.129081
H	-0.4430582659	 1.9867399877	 0.884671871	 0.122983
H	 0.4359472096	-0.3726969416	-0.8666042292	 0.092207
H	 1.8148650932	-0.1935994016	 1.1899295389	 0.116899
H	 0.3570005985	-0.159152193	 2.1917792541	 0.123002
H	 0.7537913806	-1.6158405809	 1.2653019028	 0.129097
H	-2.1331053718	 0.3245815591	 1.8719432875	 0.11074
H	-4.4262541137	-0.9438499431	 1.1829492006	 0.089202
H	-3.9172151818	-2.181134062	-1.1868141126	 0.089805
H	-1.3346358778	-1.5844194421	-1.7920494695	 0.110395
37.3812	122.3291	216.2098	222.9659	263.8076	321.5351	403.062	490.4178	623.1026	639.812	648.6156	679.9605	740.2635	793.6178	844.3455	877.3498	889.7197	928.9194	947.3226	976.7983	1068.5097	1086.657	1107.876	1124.5381	1143.7274	1189.07	1278.0515	1302.0811	1337.0131	1345.3751	1399.384	1418.9159	1423.0335	1448.763	1482.8277	1486.5377	1496.6741	1507.5479	1525.8735	1558.8873	3038.4521	3042.9152	3051.6927	3107.2829	3115.6984	3121.0171	3123.4091	3236.9422	3246.8339	3260.0833	3269.3911
CC(C)N1C=CC=C1	CC(C)n1cccc1	
InChI=1S/C7H11N/c1-7(2)8-5-3-4-6-8/h3-7H,1-2H3	InChI=1S/C7H11N/c1-7(2)8-5-3-4-6-8/h3-7H,1-2H3
