20
gdb 115297	4.15176	0.95184	0.80969	2.3882	77.15	-0.2379	0.0346	0.2725	1428.9418	0.171199	-440.304036	-440.294704	-440.29376	-440.338291	34.104	
C	-0.0415957494	 1.4689883583	 0.081165184	-0.451964
C	 0.0274415559	-0.0229284346	-0.0654735891	 0.394979
N	-0.002156634	-0.5866964001	-1.2016695784	-0.314086
C	 0.0044752505	-2.0427567251	-1.2740368979	-0.174639
C	-0.3703676986	-2.7325324912	 0.0435065374	-0.021334
C	-0.0695941116	-4.2249103114	 0.022025929	-0.095956
O	-0.5135359432	-4.7844884521	 1.2500173034	-0.424912
C	 0.3763709908	-2.024388042	 1.1690295743	-0.074218
O	 0.1158415156	-0.6165065875	 1.1584545339	-0.260462
H	 0.8622710429	 1.8457813776	 0.5707666703	 0.134344
H	-0.1485159569	 1.928406133	-0.9004992502	 0.141971
H	-0.8902365393	 1.7464233994	 0.7147167437	 0.136668
H	-0.6876104046	-2.3416871427	-2.0704700718	 0.108165
H	 1.0014103114	-2.3723721829	-1.6035682503	 0.102592
H	-1.4459994177	-2.6055980095	 0.2194453434	 0.096606
H	-0.5792438087	-4.6888439353	-0.8374223568	 0.092771
H	 1.0136598028	-4.3807098111	-0.1171780752	 0.087251
H	-0.309358494	-5.7240660333	 1.2481044787	 0.289765
H	 0.0687084676	-2.3845272191	 2.1511055685	 0.132579
H	 1.4597104105	-2.1831378603	 1.0640897331	 0.09988
78.5177	115.2751	145.0811	171.3727	199.798	256.5367	277.5635	332.9162	377.5911	409.6019	516.4532	536.3532	615.2647	705.1636	811.3263	897.1918	912.7425	936.5725	974.1306	1044.7964	1062.2806	1074.8767	1101.6176	1109.3391	1151.0446	1164.9826	1224.7662	1245.0786	1247.0573	1259.4906	1309.2884	1322.3839	1364.7055	1374.3893	1408.0779	1423.1696	1459.588	1475.5184	1477.4587	1488.5818	1513.9618	1521.122	1751.0528	2957.0778	2989.7641	2992.9258	3002.5358	3034.0596	3047.0201	3049.8331	3103.5669	3127.3822	3166.7638	3832.6181
CC1=NCC(CO)CO1	CC1=NC[C@@H](CO)CO1	
InChI=1S/C6H11NO2/c1-5-7-2-6(3-8)4-9-5/h6,8H,2-4H2,1H3	InChI=1S/C6H11NO2/c1-5-7-2-6(3-8)4-9-5/h6,8H,2-4H2,1H3/t6-/m0/s1
