14
gdb 21045	3.94711	1.86194	1.27696	1.585	60.25	-0.2011	0.0447	0.2458	900.8664	0.109142	-412.074637	-412.066984	-412.066039	-412.106534	27.733	
C	 0.0037210091	 1.4213452404	-0.0794575854	-0.326869
N	 0.0455440343	-0.0176567103	-0.0066447026	-0.021117
N	 0.0810557475	-0.7970054008	-1.1513024183	-0.352395
C	 0.1207829795	-2.0180029987	-0.6450280745	 0.405107
N	 0.2331200761	-3.1507775407	-1.4265914028	-0.580639
N	 0.1028461634	-2.0983701884	 0.7226543258	-0.429157
C	 0.0568407841	-0.8256916553	 1.0599429833	 0.456029
O	 0.0215168466	-0.3340123401	 2.3056453937	-0.427745
H	 0.8917546613	 1.8021345671	-0.5924470305	 0.146795
H	-0.885941816	 1.7485531735	-0.6256129128	 0.145184
H	-0.0272341732	 1.8183892314	 0.9359196428	 0.155041
H	-0.0807717384	-3.0143602452	-2.3765926663	 0.255706
H	-0.167831602	-3.9704131379	-0.9949235991	 0.255521
H	 0.0510587275	-1.0935508849	 2.9006477569	 0.318538
90.1572	146.5511	237.9405	271.4803	295.7488	346.5421	377.5377	398.4817	549.5082	617.627	662.0652	681.1397	706.7874	780.4318	868.5355	1032.6047	1054.2925	1138.1951	1156.4935	1171.9347	1284.559	1329.1928	1444.5922	1457.1522	1476.5089	1511.4967	1550.7789	1603.1992	1629.7587	1674.9177	3044.8549	3105.4147	3154.0709	3570.7894	3676.717	3809.5722
CN1N=C(N)N=C1O	Cn1nc(N)nc1O	
InChI=1S/C3H6N4O/c1-7-3(8)5-2(4)6-7/h1H3,(H3,4,5,6,8)	InChI=1S/C3H6N4O/c1-7-3(8)5-2(4)6-7/h1H3,(H3,4,5,6,8)
