24
gdb 87207	3.92057	0.8636	0.8048	1.0251	90.86	-0.2291	0.085	0.3141	1560.5432	0.216157	-368.372253	-368.362114	-368.36117	-368.407456	38.195	
C	-0.0208193189	 1.4525060851	-0.2560616451	-0.414466
C	 0.1553592139	-0.0322885889	-0.0210209138	-0.036939
C	 1.526032721	-0.6635893346	 0.0610726422	-0.318357
C	 0.643534712	-0.6280375966	 1.287860299	 0.365074
C	 1.0348292416	 0.269640253	 2.4465549761	-0.470546
C	-0.0146288915	-1.9374479729	 1.6906529018	-0.215987
N	 0.8767550548	-2.8010577252	 2.4660992956	-0.061236
C	 0.7354882205	-2.761469014	 3.918522181	-0.215829
C	 0.2391183639	-3.9269681093	 3.1393547758	-0.222029
H	 0.7839570531	 2.0405279633	 0.1932494151	 0.115728
H	-0.0200087073	 1.6724713218	-1.3295615743	 0.116882
H	-0.9692953414	 1.8168632818	 0.1552142121	 0.113823
H	-0.5969436968	-0.6334578983	-0.5283573643	 0.075377
H	 1.7001667541	-1.6189626173	-0.4224419035	 0.109398
H	 2.3834470171	 0.0026840192	 0.0429360679	 0.101911
H	 1.4835003276	 1.2058652131	 2.1063091247	 0.111573
H	 0.1653369276	 0.5243503381	 3.065534838	 0.105664
H	 1.7678454096	-0.2282525211	 3.0888056715	 0.129893
H	-0.9531779723	-1.7282108412	 2.2408436487	 0.073378
H	-0.293825862	-2.4912269861	 0.786428353	 0.09462
H	 1.6582060328	-2.8272017209	 4.4883039934	 0.114671
H	-0.0139028335	-2.0931118917	 4.3406079176	 0.10808
H	-0.8408925841	-4.034036231	 3.0434545348	 0.105282
H	 0.7913452982	-4.8624952764	 3.1254443326	 0.114037
50.8701	93.0628	130.3527	180.6811	192.6166	251.5099	264.7122	295.0585	324.7488	389.2798	424.7987	439.5574	531.7085	721.6343	763.6593	791.5808	840.3422	879.0014	896.7192	906.8117	944.9312	983.6165	994.1991	1026.8941	1035.303	1042.3856	1056.8474	1106.5142	1110.7561	1119.4716	1137.4851	1141.8281	1172.4261	1186.6561	1193.9676	1269.7482	1282.7305	1316.9152	1358.9038	1390.735	1408.7235	1421.9948	1428.6002	1478.7304	1486.6465	1490.2326	1493.8719	1497.447	1500.8745	1516.1736	1520.4311	2906.5136	3024.7483	3029.5807	3046.5304	3084.1482	3088.6208	3089.9878	3093.2198	3102.5967	3116.462	3123.8944	3126.3667	3171.6135	3186.1561	3206.6492
CC1CC1(C)CN1CC1	C[C@H]1C[C@]1(C)CN1CC1	
InChI=1S/C8H15N/c1-7-5-8(7,2)6-9-3-4-9/h7H,3-6H2,1-2H3	InChI=1S/C8H15N/c1-7-5-8(7,2)6-9-3-4-9/h7H,3-6H2,1-2H3/t7-,8+/m0/s1
