20
gdb 69478	4.78296	0.83954	0.79533	3.7851	80.25	-0.2346	-0.0203	0.2144	1478.7872	0.169335	-403.116499	-403.107303	-403.106359	-403.15126	33.766	
C	 0.356415094	 1.5995020024	 0.0157469172	-0.490294
C	-0.0257974556	 0.1522984414	-0.066482644	 0.371449
C	-1.0461962865	-0.4884597561	 0.7818281565	-0.291268
N	 0.3691905735	-0.8727893993	 0.9948791659	-0.18216
C	 0.7491788747	-1.814896695	-0.1250746458	 0.065017
C	 0.1270816622	-3.2115640154	-0.1042465665	-0.300911
C	 0.5566168374	-4.0021177576	 1.1150861396	 0.158328
O	 0.9977976844	-5.1226515874	 1.0792712599	-0.242424
C	 0.3426569393	-0.7903675744	-1.2185447676	-0.348333
H	 1.4088993106	 1.7479115343	-0.2488656082	 0.123542
H	-0.2508376549	 2.1999552526	-0.6720645423	 0.123859
H	 0.2028029015	 1.9840247071	 1.0280300402	 0.131416
H	-1.440939372	 0.082423438	 1.6168994468	 0.121989
H	-1.7521591312	-1.1981441014	 0.3562772216	 0.108253
H	 1.837761146	-1.9168747214	-0.0856121799	 0.097012
H	-0.968967484	-3.139846874	-0.088002177	 0.117569
H	 0.4079826147	-3.7728606649	-1.0010200679	 0.123568
H	 0.4373929039	-3.4603977943	 2.0790551453	 0.097017
H	-0.4764822639	-1.0650880618	-1.8905323181	 0.103574
H	 1.188419226	-0.4501591127	-1.8192532858	 0.112799
50.9272	65.4708	124.701	189.7174	198.9142	286.9555	314.1515	394.3977	407.6454	485.9702	533.8503	625.5093	703.2417	762.1759	795.8056	826.0901	900.0287	940.036	961.8757	971.7978	1006.5484	1047.1239	1074.3378	1098.6622	1112.892	1126.484	1130.5993	1170.5039	1230.0493	1243.4789	1276.5268	1291.32	1323.3749	1375.5613	1395.5064	1425.0397	1427.6593	1454.9744	1483.4275	1488.6386	1493.5721	1514.6196	1830.7928	2897.3047	3024.0222	3028.1667	3051.9497	3057.1944	3089.3339	3092.4967	3106.344	3113.1195	3115.1109	3193.4451
CC12CN1C(CC=O)C2	C[C@]12CN1[C@@H](CC=O)C2	
InChI=1S/C7H11NO/c1-7-4-6(2-3-9)8(7)5-7/h3,6H,2,4-5H2,1H3	InChI=1S/C7H11NO/c1-7-4-6(2-3-9)8(7)5-7/h3,6H,2,4-5H2,1H3/t6-,7-,8?/m0/s1
