22
gdb 58518	2.62156	1.27218	1.20497	1.906	80.72	-0.2272	0.0647	0.2919	1187.0672	0.193123	-404.300019	-404.290566	-404.289622	-404.333727	36.733	
C	 0.1204348585	 1.4999185037	-0.1261687985	-0.422665
C	 0.0244041263	-0.0085907271	 0.1128601142	 0.078248
O	 0.6589887258	-0.3849306797	 1.3340254395	-0.438676
C	-1.4098151531	-0.5650531	 0.0406200736	 0.331642
C	-2.3153491423	-0.0103047913	 1.1437892085	-0.479052
C	-2.1205336449	-0.5562632943	-1.3476149814	-0.23019
N	-2.376496755	-2.0410473719	-1.3044866258	-0.131728
C	-1.0399299227	-2.6611966593	-1.3049493669	-0.253755
C	-1.5321438306	-2.0948599597	-0.0364651381	-0.05709
H	 1.1691476195	 1.8090567771	-0.1295379089	 0.126584
H	-0.3252776187	 1.7831026037	-1.0852877884	 0.121826
H	-0.3944856392	 2.0656763171	 0.6589587704	 0.11148
H	 0.6169510998	-0.5115150097	-0.659450486	 0.082
H	 0.3192518022	 0.1858567565	 2.0309955536	 0.279085
H	-2.4508379811	 1.0723857155	 1.0545925667	 0.116334
H	-3.3050479213	-0.4739003613	 1.0930663594	 0.132726
H	-1.9060636876	-0.2269608364	 2.136950045	 0.110573
H	-3.0626773728	-0.0036889189	-1.3608529762	 0.107218
H	-1.5171226495	-0.2479637423	-2.2096054147	 0.096195
H	-1.0751745567	-3.7415455346	-1.4095494442	 0.120823
H	-0.2352455267	-2.1843906634	-1.8606652951	 0.109471
H	-1.81448709	-2.7259559336	 0.801229373	 0.088951
69.0231	161.2902	183.118	232.6882	247.6012	273.7429	289.0237	332.1337	337.4281	420.0967	467.4264	480.6617	526.7083	667.0868	745.0262	775.5441	831.8709	889.9991	910.1337	933.0069	958.8338	975.4571	1007.6053	1027.4682	1059.0673	1081.8616	1101.9478	1114.9734	1120.9244	1167.2987	1192.0001	1202.445	1232.6848	1278.1422	1293.7387	1299.7567	1359.4426	1383.591	1401.154	1409.7109	1422.292	1486.9619	1489.8274	1491.5042	1503.2332	1506.0611	1512.2779	3028.1822	3028.7498	3033.7346	3046.545	3095.124	3096.5799	3101.7876	3103.3902	3107.2997	3116.7658	3151.1441	3192.7188	3815.3758
CC(O)C1(C)CN2CC12	C[C@@H](O)[C@@]1(C)CN2C[C@@H]12	
InChI=1S/C7H13NO/c1-5(9)7(2)4-8-3-6(7)8/h5-6,9H,3-4H2,1-2H3	InChI=1S/C7H13NO/c1-5(9)7(2)4-8-3-6(7)8/h5-6,9H,3-4H2,1-2H3/t5-,6+,7-,8?/m1/s1
