15
gdb 77000	3.12436	1.28576	0.97528	2.7257	74.11	-0.2544	-0.0641	0.1903	1153.9103	0.11137	-420.61674	-420.60854	-420.607596	-420.649764	30.744	
O	 0.1819544909	 1.2400242384	 0.4141546432	-0.437333
C	 0.0896237023	-0.098455045	 0.0160482621	 0.037759
C	-1.3636401286	-0.6421498833	-0.05222823	-0.232064
C	-1.3334220391	-1.5039583707	-1.308946669	-0.049107
C	-0.2358526038	-1.3203130474	-2.0535559281	-0.189962
C	 0.6210165786	-0.3074611682	-1.4106129227	 0.335482
O	 1.5396429592	 0.3335028129	-1.8704949679	-0.343875
C	-1.8207375661	-1.3635208313	 1.1280351768	 0.307885
C	-2.1923377494	-1.975677485	 2.0928055119	-0.451567
H	 0.9092700432	 1.6150806254	-0.104792258	 0.29563
H	 0.667552126	-0.7599360749	 0.6827740463	 0.111424
H	-2.0220945353	 0.2206316051	-0.2248777373	 0.14405
H	-2.1535377738	-2.1738945544	-1.5406180296	 0.136561
H	-0.0145870061	-1.7746200564	-3.0104819746	 0.131305
H	-2.5217518778	-2.5059969951	 2.952009627	 0.203811
63.1481	129.4798	175.6437	254.015	306.136	369.6542	411.1681	438.7198	495.9769	542.8766	616.7489	637.9141	650.1235	701.9229	737.6145	789.4049	889.0879	947.4735	1001.7283	1030.9032	1041.9103	1105.6471	1142.0754	1181.7067	1218.5361	1240.9305	1308.0784	1343.4281	1366.5792	1409.6189	1637.5371	1813.5997	2241.4322	2968.7088	3017.1234	3203.1341	3231.4229	3502.6644	3721.8497
OC1C(C=CC1=O)C#C	O[C@H]1[C@@H](C=CC1=O)C#C	
InChI=1S/C7H6O2/c1-2-5-3-4-6(8)7(5)9/h1,3-5,7,9H	InChI=1S/C7H6O2/c1-2-5-3-4-6(8)7(5)9/h1,3-5,7,9H/t5-,7+/m1/s1
