20
gdb 78848	2.74752	1.77774	1.46136	1.7682	80.71	-0.2178	0.0831	0.3009	999.7669	0.17193	-365.968215	-365.960597	-365.959653	-365.999793	31.044	
C	-0.3438906776	 1.496990106	-0.1000963102	-0.398672
C	 0.0126550141	 0.0105668537	-0.0165046124	-0.00382
C	 0.9733326663	-0.4768147282	-1.0871134005	-0.080388
C	 1.7742703861	-1.6311843678	-0.5540139379	-0.031374
C	 2.4186489174	-0.2758769001	-0.6462188356	-0.174194
C	 2.318388747	-0.2088689622	 0.8918919557	 0.360788
C	 3.397836033	 0.233427012	 1.828063447	-0.511603
C	 0.8659227613	-0.3430661084	 1.1854241845	-0.106647
N	 1.6917139657	-1.5740738193	 0.9570626986	-0.210867
H	 0.5611475494	 2.1126035466	-0.1234290118	 0.118917
H	-0.9228746814	 1.7130188116	-1.0038097831	 0.113927
H	-0.9445775206	 1.8094541732	 0.7604295203	 0.114176
H	-0.9043181024	-0.5926242139	-0.023648293	 0.079227
H	 0.7339139572	-0.4338394343	-2.1428699811	 0.08713
H	 1.9672140078	-2.5712430522	-1.0527972349	 0.094511
H	 3.2206038775	 0.090469833	-1.2716100499	 0.089027
H	 3.5427030719	 1.3189988732	 1.7762123333	 0.118384
H	 3.1415645322	-0.0292526896	 2.8585420313	 0.128916
H	 4.3520490915	-0.2469983117	 1.5850262201	 0.124518
H	 0.4892249436	-0.2346792016	 2.1973887697	 0.088043
147.5871	192.174	233.1664	237.4203	292.2842	312.0762	517.1731	572.836	597.5016	695.6442	711.4401	752.454	774.813	821.8436	853.7679	884.6508	910.6875	921.5747	949.9712	981.7253	1001.603	1017.2976	1037.2757	1038.1285	1063.3351	1087.9177	1102.3606	1122.5932	1131.7158	1191.0013	1231.7864	1270.1084	1281.794	1303.9253	1350.067	1382.7595	1405.7614	1410.6477	1440.4128	1481.5373	1493.7538	1497.2511	1501.0199	3026.0085	3028.7175	3032.3039	3086.7639	3099.0995	3105.9854	3110.4071	3169.0064	3190.5369	3199.6681	3215.1899
CC1C2C3C2C2(C)C1N32	C[C@H]1[C@@H]2[C@H]3[C@@H]2[C@@]2(C)[C@@H]1N32	
InChI=1S/C8H11N/c1-3-4-5-6(4)9-7(3)8(5,9)2/h3-7H,1-2H3	InChI=1S/C8H11N/c1-3-4-5-6(4)9-7(3)8(5,9)2/h3-7H,1-2H3/t3-,4-,5+,6-,7+,8-,9?/m0/s1
