18
gdb 6011	2.41762	1.85253	1.51698	1.3789	68.7	-0.2495	-0.0551	0.1944	951.5906	0.149226	-384.977332	-384.967579	-384.966635	-385.012015	34.165	
C	 0.8603649185	 1.0353487703	 0.318433426	-0.488815
C	-0.4298219837	 0.4637388959	-0.2360724819	 0.364803
O	-1.5089783976	 0.7644683812	 0.2144729586	-0.294049
C	-0.3148076055	-0.5544582626	-1.4104574965	 0.060035
C	-1.7039016585	-0.7986894823	-2.0145485371	-0.424569
C	 0.7028797319	-0.0770768395	-2.4602772169	-0.428712
C	 0.1734411457	-1.8531281171	-0.7577681326	 0.139026
O	 1.3232158978	-2.2051637106	-0.7000687341	-0.251199
H	 1.625265172	 0.2611170619	 0.4261317846	 0.15901
H	 1.2596050337	 1.7874138008	-0.3710092968	 0.150099
H	 0.6571820007	 1.5116590819	 1.2781565634	 0.144827
H	-2.0990685745	 0.12373523	-2.4474516516	 0.130888
H	-1.6511756874	-1.5557000155	-2.8034460543	 0.115355
H	-2.4121709	-1.1293405048	-1.2520530727	 0.138367
H	 1.7160365901	-0.0577283298	-2.0570516583	 0.142217
H	 0.7022029642	-0.7623640457	-3.3129484279	 0.128182
H	 0.4442861034	 0.9199145195	-2.8293136035	 0.120071
H	-0.638959071	-2.4634297037	-0.3042308883	 0.094464
52.7499	61.1611	178.184	185.36	201.8718	231.6289	257.7009	278.4095	339.2452	353.9198	425.121	500.9652	578.7522	632.0791	698.2526	821.8571	920.5709	955.3726	958.8844	991.1974	1037.3225	1067.2749	1150.3995	1193.427	1221.3682	1250.1511	1386.8828	1398.6503	1407.0061	1427.6392	1465.8179	1473.7658	1481.4973	1486.9558	1500.3997	1505.5404	1794.6657	1826.0188	2886.5818	3044.4735	3046.1343	3049.283	3110.8729	3112.5784	3118.9927	3134.4103	3144.667	3156.5522
CC(=O)C(C)(C)C=O	CC(=O)C(C)(C)C=O	
InChI=1S/C6H10O2/c1-5(8)6(2,3)4-7/h4H,1-3H3	InChI=1S/C6H10O2/c1-5(8)6(2,3)4-7/h4H,1-3H3
