18
gdb 12736	2.63031	2.15637	1.76308	0.788	67.13	-0.2421	0.0619	0.304	856.4825	0.153124	-384.905386	-384.897651	-384.896706	-384.937311	29.717	
C	-0.5868277912	 1.3765571299	-0.0054550613	-0.422401
C	 0.0438476582	-0.0076420504	-0.03232293	 0.002463
C	 1.3409369129	-0.2428932315	-0.8783761698	-0.258501
C	 2.0392175758	-0.855064778	 0.3564211096	 0.035194
O	 2.7966431253	 0.1270965573	 1.097019136	-0.287336
C	 1.6939009908	 0.4106450321	 1.9834344847	-0.143661
C	 0.7653932246	-0.5593812895	 1.2247638617	 0.337445
O	-0.0141647059	-1.4545869221	 1.9507354283	-0.472436
H	 0.1498246718	 2.1543573342	 0.2223858844	 0.119218
H	-1.0254081503	 1.6193883837	-0.979223286	 0.118441
H	-1.3849400541	 1.4345330339	 0.7425850605	 0.122213
H	-0.7133320404	-0.7503221724	-0.3024054207	 0.08916
H	 1.2082321181	-0.9260748851	-1.7206081097	 0.102309
H	 1.8408469773	 0.6638214717	-1.2275410264	 0.108934
H	 2.5577318469	-1.8130908537	 0.2678362608	 0.074722
H	 1.9076859197	 0.0823389855	 3.0128943969	 0.086188
H	 1.4277987127	 1.4740519696	 2.0060037593	 0.106478
H	 0.5001346679	-1.7799454453	 2.6980030817	 0.281569
64.8436	209.6321	227.1842	255.1363	314.4861	357.2079	407.2161	418.1884	486.8571	622.1803	644.2192	772.2651	839.731	870.456	906.3458	942.1776	975.7226	1004.3226	1010.1489	1056.5638	1109.171	1120.2305	1123.7574	1152.4041	1174.5031	1181.8693	1224.5168	1266.6237	1280.0921	1318.0147	1346.2441	1374.3489	1397.1756	1408.5331	1470.6821	1494.1608	1495.6484	1521.9358	2975.8074	3027.9603	3052.3056	3056.2951	3062.3907	3079.772	3096.0707	3098.2196	3121.4939	3798.4145
CC1CC2OCC12O	C[C@H]1C[C@H]2OC[C@@]12O	
InChI=1S/C6H10O2/c1-4-2-5-6(4,7)3-8-5/h4-5,7H,2-3H2,1H3	InChI=1S/C6H10O2/c1-4-2-5-6(4,7)3-8-5/h4-5,7H,2-3H2,1H3/t4-,5+,6+/m0/s1
