12
gdb 21562	7.64743	1.30122	1.11305	3.9574	66.61	-0.2245	-0.0223	0.2022	982.5967	0.083698	-377.483524	-377.476499	-377.475555	-377.514499	26.405	
N	 0.0432123003	 1.3838620152	 0.1484250192	-0.605322
C	-0.0783390861	 0.0212046933	 0.0530452724	 0.483292
C	-1.1451154261	-0.8318650597	 0.0428027431	-0.443282
C	-0.5295538498	-2.1155934195	 0.0034404495	 0.26505
N	 0.7905599076	-2.045603423	-0.0108711198	-0.223087
O	 1.07001936	-0.6699588198	 0.0207223463	-0.204216
C	-1.1832840723	-3.3750882193	-0.0205547117	 0.251015
C	-1.7704469285	-4.4240673263	-0.0406143756	-0.379513
H	 0.9262330922	 1.7476628668	-0.1806613925	 0.270194
H	-0.7503440454	 1.9082410482	-0.1866800671	 0.268491
H	-2.1954246605	-0.6009435707	 0.0659246594	 0.119224
H	-2.2763402314	-5.3578932452	-0.0580106433	 0.198155
135.7424	150.0548	271.3464	296.5945	376.7493	476.9307	529.0423	554.2572	573.7625	624.4785	669.7077	691.024	724.8546	748.6872	769.329	929.6025	1017.3712	1032.2167	1084.0905	1181.5252	1351.4937	1464.9281	1498.6559	1618.9838	1672.3935	2246.4895	3290.6386	3501.9201	3575.0294	3681.2116
NC1=CC(=NO1)C#C	Nc1cc(no1)C#C	
InChI=1S/C5H4N2O/c1-2-4-3-5(6)8-7-4/h1,3H,6H2	InChI=1S/C5H4N2O/c1-2-4-3-5(6)8-7-4/h1,3H,6H2
