16
gdb 43880	4.91679	1.11775	1.0693	4.1783	68.92	-0.25	0.012	0.262	1120.0513	0.124829	-437.86346	-437.856302	-437.855358	-437.895282	27.949	
O	 0.1230578769	 0.2029421882	-0.7811757111	-0.314162
C	-0.0407162517	 1.2001418201	-0.1572924649	 0.427738
C	-1.1966151463	 2.0557161959	 0.3566641024	-0.48778
C	-0.0780202443	 2.9319215074	 0.9314402933	 0.483875
C	 0.1765280995	 4.4357709985	 0.6108593226	-0.302307
C	 0.3214308245	 4.6798462474	 2.118575822	-0.036677
N	-0.9592386315	 4.2367991595	 2.7188477636	-0.337269
C	 0.0988879641	 3.2382015463	 2.4153158252	-0.143776
O	 0.9280059553	 2.0232220065	 0.3737903874	-0.282113
H	-1.8076901524	 2.5047373974	-0.4279340298	 0.146773
H	-1.8420379792	 1.5648456303	 1.0867243364	 0.149115
H	 1.1144962866	 4.543281098	 0.0624634223	 0.131569
H	-0.6258786705	 4.9825884764	 0.1107067046	 0.114389
H	 0.954702581	 5.4005888512	 2.6186638326	 0.105021
H	-0.9106498718	 4.421971717	 3.7206639567	 0.23667
H	 0.5125844298	 2.5881405299	 3.1757359767	 0.108933
93.5759	122.6254	255.5172	373.5555	391.7809	423.0687	491.2196	521.3494	580.3798	752.7821	797.0354	826.8897	836.2054	855.07	885.61	924.871	958.7464	967.8607	996.795	1046.3019	1060.4438	1095.7491	1098.7131	1148.7136	1161.9268	1183.5216	1217.1212	1236.3877	1269.1925	1308.116	1340.9201	1382.5247	1452.0553	1463.8967	1943.2194	3071.6109	3091.8623	3136.8662	3147.7165	3197.1073	3210.5498	3474.2034
O=C1CC2(CC3NC23)O1	O=C1C[C@]2(C[C@H]3N[C@@H]23)O1	
InChI=1S/C6H7NO2/c8-4-2-6(9-4)1-3-5(6)7-3/h3,5,7H,1-2H2	InChI=1S/C6H7NO2/c8-4-2-6(9-4)1-3-5(6)7-3/h3,5,7H,1-2H2/t3-,5-,6+/m1/s1
