23
gdb 101815	2.53872	0.8665	0.79332	2.3503	78.82	-0.261	0.0579	0.3189	1596.9252	0.202874	-462.555112	-462.543845	-462.5429	-462.59243	40.538	
C	 0.0173814216	 1.555958285	 0.1143153454	-0.390281
C	-0.0562781547	 0.0390530983	-0.0815597956	 0.13206
O	-1.3989540432	-0.4082118322	-0.2096945882	-0.437995
C	 0.7626607477	-0.4429720449	-1.2795441777	-0.083758
O	 0.1739835048	 0.1085100586	-2.4465674975	-0.295858
C	 0.6782201806	-0.3902032302	-3.6907204007	 0.119833
C	-0.0170979552	-1.6916903104	-4.0877418103	-0.396069
C	 0.4411039171	 0.7355879259	-4.7006252261	-0.064504
O	-0.9274633343	 1.0823451874	-4.793851407	-0.418748
H	 1.041142265	 1.875815777	 0.3373779839	 0.108305
H	-0.3121623622	 2.0779241394	-0.7886932831	 0.117088
H	-0.628371877	 1.8531658001	 0.9441990484	 0.124293
H	 0.3394779866	-0.4592177648	 0.8118973582	 0.085506
H	-1.659433184	-0.2010597494	-1.1152163303	 0.280277
H	 1.8139261342	-0.1257219104	-1.1927697346	 0.090578
H	 0.7347885165	-1.5408858776	-1.3136090233	 0.100352
H	 1.7638196575	-0.5505183141	-3.6000397223	 0.069155
H	-1.0743842553	-1.4989271848	-4.2852486558	 0.13601
H	 0.4347958527	-2.1022704141	-4.9965206601	 0.117288
H	 0.065510137	-2.447780612	-3.3022056315	 0.120078
H	 1.0546427433	 1.6032488947	-4.4139652213	 0.090265
H	 0.7554020764	 0.4128081412	-5.6985098182	 0.107923
H	-1.2043077351	 1.3090038773	-3.8988591722	 0.288201
32.6245	64.2111	89.9309	145.2785	162.3558	222.2821	231.5986	243.3593	304.7085	346.0309	379.7716	402.3321	419.5646	433.5067	454.2961	606.6442	675.457	821.8075	837.2801	907.5677	926.5289	932.7738	971.5766	1004.6938	1032.5848	1083.9784	1096.7247	1139.2442	1149.7998	1156.8203	1159.4573	1239.676	1263.2679	1301.6995	1344.1747	1359.8094	1369.5434	1388.6965	1398.9598	1412.5988	1422.6686	1429.9007	1433.4501	1484.6578	1489.4399	1497.4675	1499.0114	1499.5695	1512.7654	2976.6553	2982.6754	2996.9371	3028.0737	3038.8529	3041.6818	3045.6002	3080.4096	3109.6509	3112.1341	3127.9097	3132.7405	3790.2939	3805.5236
CC(O)COC(C)CO	C[C@@H](O)CO[C@@H](C)CO	
InChI=1S/C6H14O3/c1-5(8)4-9-6(2)3-7/h5-8H,3-4H2,1-2H3	InChI=1S/C6H14O3/c1-5(8)4-9-6(2)3-7/h5-8H,3-4H2,1-2H3/t5-,6+/m1/s1
