23
gdb 103376	2.89811	1.43536	1.27795	1.0347	84.84	-0.2434	0.0833	0.3266	1129.9682	0.206835	-388.272718	-388.264009	-388.263065	-388.305613	34.823	
C	-0.1811537857	 1.3355017304	 0.0202599328	-0.251556
O	 0.2050240253	-0.0208463826	-0.0137788885	-0.301453
C	 0.8194978877	-0.53353223	 1.1643471249	 0.475257
C	 2.1722197551	 0.1370477232	 1.3787953003	-0.486407
C	-0.1896471681	-0.7231462119	 2.358703337	-0.080645
C	-0.7888249574	-1.8969301155	 1.5292441303	-0.229812
C	 0.6996971924	-2.0933084896	 1.1096734594	-0.061225
C	 1.329656468	-2.5386419645	 2.4412126227	-0.226187
C	 0.6601514613	-1.4863603587	 3.3937086862	-0.223073
H	 0.6779848887	 2.0199092728	 0.0585062741	 0.106231
H	-0.7305170999	 1.527897675	-0.9051495094	 0.124313
H	-0.8406089103	 1.5617382869	 0.8702167608	 0.10496
H	 2.0559002339	 1.1876296863	 1.6641678602	 0.115678
H	 2.7625239064	-0.3443832649	 2.1590518519	 0.121306
H	 2.745825375	 0.1036129931	 0.4468826377	 0.122874
H	-0.8019859249	 0.0997031049	 2.7304571694	 0.053713
H	-1.2612625121	-2.710077072	 2.0880007782	 0.079397
H	-1.4228916207	-1.5696083573	 0.7097004965	 0.112875
H	 0.9796993868	-2.6297387249	 0.2025220467	 0.059961
H	 1.0498939881	-3.5655052225	 2.6919895414	 0.096504
H	 2.4214369264	-2.4867351475	 2.4445875999	 0.095812
H	 1.3870221096	-0.8509850512	 3.9066732974	 0.094834
H	 0.0346898942	-1.9541356091	 4.1592451103	 0.096643
82.4687	163.4334	186.1147	208.7649	286.4823	330.8084	346.0007	415.7111	429.2673	484.6664	528.2032	641.2136	662.4312	819.2234	831.5024	843.9398	883.722	892.7061	910.5082	940.7942	967.7379	998.4557	1008.3607	1018.5709	1080.2043	1085.0789	1117.5283	1139.9967	1172.8494	1180.8007	1182.645	1203.131	1223.8202	1232.7049	1241.9421	1255.5074	1265.1904	1298.3436	1316.4303	1339.2599	1405.9512	1474.1913	1483.5242	1487.1653	1492.0056	1500.5257	1510.6574	1514.13	1523.0676	2990.4196	3037.5754	3045.8659	3053.3871	3060.9805	3064.2037	3087.7518	3101.9496	3102.3838	3105.2127	3107.4511	3112.9334	3142.7244	3169.6863
COC1(C)C2CC1CC2	CO[C@@]1(C)[C@H]2C[C@@H]1CC2	
InChI=1S/C8H14O/c1-8(9-2)6-3-4-7(8)5-6/h6-7H,3-5H2,1-2H3	InChI=1S/C8H14O/c1-8(9-2)6-3-4-7(8)5-6/h6-7H,3-5H2,1-2H3/t6-,7+,8+
