18
gdb 15816	6.42449	0.9503	0.89488	3.5323	70.82	-0.2436	-0.0091	0.2345	1332.1081	0.151796	-384.930404	-384.921522	-384.920578	-384.964704	30.91	
C	 0.001868678	 1.3931933046	-0.0635228508	-0.225349
O	 0.0114507192	-0.0124916547	 0.0217814391	-0.210093
C	 0.6210580892	-0.617683334	-1.0744488892	-0.161949
C	 0.604741252	-2.1357602267	-0.9339993385	 0.358618
O	 0.1169101912	-2.6986510855	 0.0185446672	-0.312961
C	 1.2393097391	-2.8716929924	-2.0666618023	-0.111554
C	 1.9574670196	-4.1715849556	-1.7340710271	-0.247911
C	 0.6448198718	-4.2229898575	-2.4361283837	-0.247928
H	 1.0214912224	 1.8082052333	-0.1083010804	 0.104263
H	-0.5508716224	 1.7464615184	-0.9487050741	 0.104268
H	-0.4931357738	 1.7678719554	 0.8350999235	 0.134251
H	 0.1175179099	-0.3566570404	-2.0252892287	 0.106205
H	 1.6738548918	-0.2962948464	-1.1931574324	 0.106209
H	 1.6459553695	-2.2675987735	-2.8710683936	 0.085739
H	 2.8611839899	-4.3932108354	-2.2898062438	 0.118063
H	 1.9722746318	-4.4391336345	-0.6837584267	 0.141031
H	-0.2196330308	-4.5248834774	-1.8560013136	 0.141037
H	 0.6198870116	-4.4811088776	-3.488464715	 0.11806
53.4332	86.1894	110.9092	139.5743	238.5715	262.1914	268.6541	333.7493	392.8411	589.9439	671.08	793.1993	832.0758	844.2625	872.3365	916.4028	1000.3635	1025.9486	1061.3496	1098.7364	1102.4993	1110.7906	1128.8001	1175.9851	1183.1249	1211.1246	1223.3818	1244.0354	1257.8185	1380.4832	1422.4456	1453.7471	1466.9754	1485.8315	1487.1797	1491.9884	1516.1173	1810.8623	2923.1955	2941.1571	2968.9887	3012.6326	3120.3481	3141.2721	3142.5081	3163.4645	3228.8641	3243.2506
COCC(=O)C1CC1	COCC(=O)C1CC1	
InChI=1S/C6H10O2/c1-8-4-6(7)5-2-3-5/h5H,2-4H2,1H3	InChI=1S/C6H10O2/c1-8-4-6(7)5-2-3-5/h5H,2-4H2,1H3
