17
gdb 49563	2.14049	1.88417	1.28003	2.3483	72.12	-0.2471	-0.0275	0.2196	1016.1055	0.134481	-421.775643	-421.767673	-421.766729	-421.808898	29.81	
O	-0.769906763	 0.8761295596	 0.4229951689	-0.254974
C	 0.1566655838	 1.0558933522	-0.328036661	 0.153996
C	 1.3070940514	 1.9931664248	-0.0756459745	-0.202789
C	 1.2753643963	 3.3133849667	-0.8960278454	-0.076835
C	 0.1250978646	 4.1732155302	-0.4521727613	-0.29052
C	 1.367157304	 4.129128706	 0.3993775181	-0.143911
C	 1.3709516798	 2.8478629356	 1.2059364028	 0.45964
C	 0.9414768716	 2.5724475093	 2.5743652583	-0.257583
O	 2.3351958421	 2.5778840239	 2.201801986	-0.290178
H	 0.1966813961	 0.5428140956	-1.3174143213	 0.078653
H	 2.2556673506	 1.4652874832	-0.2242333751	 0.114002
H	 1.7953077071	 3.4671056912	-1.8322081244	 0.101656
H	-0.0132745671	 5.0872979504	-1.0201369812	 0.121763
H	-0.7978751747	 3.7222900082	-0.0974279718	 0.133099
H	 1.9709340324	 5.0013000907	 0.614493374	 0.107013
H	 0.6320547278	 3.396139899	 3.2159369564	 0.115112
H	 0.5265994173	 1.5987834133	 2.8212491714	 0.131856
39.3596	136.1607	158.9989	222.0556	289.6462	353.9213	422.3302	483.0163	558.6886	693.5047	739.4691	789.2179	805.0326	861.4218	909.1149	924.3376	931.1992	962.7939	986.6234	1016.4009	1060.464	1078.4698	1092.5618	1103.0794	1121.1077	1149.5495	1170.3116	1174.8184	1208.3664	1283.6444	1320.9263	1331.9845	1418.5925	1451.3291	1488.8162	1539.0872	1819.576	2859.0069	3060.1049	3094.4994	3119.3714	3190.7488	3196.3066	3201.3095	3212.7915
O=CC1C2CC2C11CO1	O=C[C@H]1[C@H]2C[C@H]2[C@]21CO2	
InChI=1S/C7H8O2/c8-2-6-4-1-5(4)7(6)3-9-7/h2,4-6H,1,3H2	InChI=1S/C7H8O2/c8-2-6-4-1-5(4)7(6)3-9-7/h2,4-6H,1,3H2/t4-,5+,6-,7-/m0/s1
