15
gdb 70777	3.79769	1.3751	1.14358	0.5022	73.49	-0.2474	0.0041	0.2515	1056.4307	0.108916	-420.479465	-420.471653	-420.470709	-420.511501	30.303	
C	 0.0722453177	 1.4170069823	-0.1825328341	-0.541304
C	 0.0124908365	-0.0631179681	-0.0276897426	 0.40307
O	 0.5161439181	-0.9317079697	-1.0872416277	-0.363884
C	 0.0605182436	-1.9025782438	-0.0964014014	 0.410499
C	 0.1821177011	-3.3020953287	-0.3303183363	 0.040791
C	 0.2727058289	-4.4886533676	-0.5014259127	-0.371398
C	 0.4815960675	-1.0100912654	 1.1305357544	-0.049413
O	-0.8201093233	-1.0606710964	 1.7687278589	-0.324444
C	-1.1640433066	-1.0242763785	 0.3599509825	-0.049421
H	 1.1070441479	 1.7504955698	-0.3043356307	 0.141971
H	-0.5002985979	 1.7364496883	-1.0583241618	 0.141985
H	-0.349144536	 1.894968822	 0.7068988995	 0.144913
H	 0.3554324799	-5.5360554574	-0.6582138654	 0.191749
H	 1.3822176302	-1.0269269755	 1.7436686032	 0.112443
H	-2.2113294376	-1.0579057912	 0.0609601442	 0.112442
130.8054	134.5739	210.541	241.188	293.2548	401.1273	469.2104	536.5375	542.478	593.6605	625.8249	686.6266	689.5964	753.2156	765.7257	813.6624	834.1823	884.3488	919.9849	985.7062	1040.4098	1069.3691	1108.8157	1136.2111	1156.1455	1179.2955	1246.9286	1275.0467	1391.9821	1445.0209	1475.2128	1488.6456	2239.051	3042.6441	3116.692	3121.1114	3129.3217	3135.0007	3499.4636
CC12OC3(C#C)C1OC23	C[C@@]12O[C@@]3(C#C)[C@@H]1O[C@@H]23	
InChI=1S/C7H6O2/c1-3-7-4-6(2,9-7)5(7)8-4/h1,4-5H,2H3	InChI=1S/C7H6O2/c1-3-7-4-6(2,9-7)5(7)8-4/h1,4-5H,2H3/t4-,5+,6-,7+
