19
gdb 124947	2.92791	1.26705	0.95668	2.6525	83.07	-0.2125	0.0283	0.2408	1257.7216	0.160897	-382.086831	-382.078124	-382.07718	-382.121727	31.918	
C	 0.2064159291	 1.5150811788	 0.1197097416	-0.506726
C	 0.0587767371	 0.0358946212	-0.0301970609	 0.253454
C	-0.1302610743	-0.7720422919	-1.1419938582	 0.162328
C	-0.1673644503	-2.0869689355	-0.6112815932	-0.100758
N	-0.0160500675	-2.1070313966	 0.7080434195	-0.230779
N	 0.1207037121	-0.8087502487	 1.0357603816	-0.245637
C	-0.2596101571	-0.3431497928	-2.550586611	-0.108626
C	 0.3310480536	-1.1685048603	-3.6773292013	-0.265971
C	-1.1614376511	-1.0860563271	-3.5159277118	-0.266366
H	 1.2553655453	 1.8169139702	 0.2281971898	 0.13887
H	-0.1949250557	 2.0320226864	-0.7548406844	 0.143634
H	-0.3356256434	 1.8852787022	 0.9969388434	 0.129701
H	-0.301682731	-3.0184436734	-1.1429135612	 0.103583
H	 0.2443460174	-0.5608361649	 2.0029161234	 0.265402
H	-0.2130700856	 0.7318844619	-2.6948840574	 0.071112
H	 0.7917845935	-0.6449988226	-4.508031488	 0.110708
H	 0.8252351098	-2.0947794357	-3.404831051	 0.117763
H	-1.6847491403	-1.9565289567	-3.1352844599	 0.117676
H	-1.7283421217	-0.5053582146	-4.2355064511	 0.110631
32.4753	44.0502	161.4984	168.3065	245.1379	274.1757	427.8321	455.4814	488.3972	589.2163	679.3008	701.1893	708.1173	792.101	817.5138	876.0844	912.9201	914.7339	954.2534	1000.4642	1057.5889	1060.5094	1068.4637	1075.7879	1127.8971	1137.2044	1148.0788	1200.9699	1222.3738	1256.9186	1301.5167	1384.8974	1388.263	1418.8888	1459.4747	1469.7152	1485.1709	1488.3065	1502.3321	1525.1865	1632.0576	3025.6144	3077.5226	3121.4492	3129.4625	3133.3108	3147.7992	3208.989	3224.884	3233.3606	3668.3604
CC1=C(C=NN1)C1CC1	Cc1c(cn[nH]1)C1CC1	
InChI=1S/C7H10N2/c1-5-7(4-8-9-5)6-2-3-6/h4,6H,2-3H2,1H3,(H,8,9)	InChI=1S/C7H10N2/c1-5-7(4-8-9-5)6-2-3-6/h4,6H,2-3H2,1H3,(H,8,9)
