18
gdb 51316	3.84016	1.04047	0.84353	3.3021	78.95	-0.2206	-0.0052	0.2153	1325.2196	0.149171	-439.116893	-439.108595	-439.107651	-439.150657	30.714	
O	 1.8748304471	 4.1961982202	 0.0120744063	-0.311661
C	 1.0225415598	 3.3371133381	 0.038227924	 0.151898
N	 1.2117997369	 1.9817129286	-0.0170504761	-0.374559
C	 2.4072761402	 1.2423165074	-0.1206196087	 0.39598
C	 2.3616087498	-0.0913606375	-0.217170637	-0.213617
C	 3.601505472	-0.92740665	-0.3798898433	-0.110045
O	 4.7513798874	-0.1661058853	-0.6829531251	-0.24148
C	 4.860656531	 0.9766597588	 0.1465483091	-0.096522
C	 3.7270474599	 1.9728590793	-0.1097832211	-0.288267
H	-0.0590636803	 3.5682481133	 0.114088134	 0.0809
H	 0.3646798822	 1.4315428842	-0.0081112285	 0.248679
H	 1.4133565295	-0.6236076619	-0.189483697	 0.075913
H	 3.7711071329	-1.5352957776	 0.5295209659	 0.094512
H	 3.4769085854	-1.6339213617	-1.2096983443	 0.117075
H	 4.8617119449	 0.6781500723	 1.2081425089	 0.089795
H	 5.8301312287	 1.4293784508	-0.0771183303	 0.111997
H	 3.8746716115	 2.4936684711	-1.0625064858	 0.131806
H	 3.7271344511	 2.74982025	 0.657804709	 0.137594
35.6972	123.5764	189.0659	218.961	288.7996	334.6183	342.8049	428.1396	481.6622	556.0079	620.0795	686.2817	793.1195	818.3588	835.1904	867.8346	970.1936	991.8532	1018.9658	1027.6918	1039.0884	1093.3883	1120.7146	1171.7297	1227.9584	1247.4292	1267.5675	1305.5941	1331.7504	1377.9239	1396.0524	1424.5367	1450.3713	1458.831	1491.0072	1502.5915	1531.6602	1732.9964	1810.99	2918.7235	2930.7426	2969.0673	3042.6745	3052.0643	3093.8105	3111.8145	3148.6313	3599.7893
O=CNC1=CCOCC1	O=CNC1=CCOCC1	
InChI=1S/C6H9NO2/c8-5-7-6-1-3-9-4-2-6/h1,5H,2-4H2,(H,7,8)	InChI=1S/C6H9NO2/c8-5-7-6-1-3-9-4-2-6/h1,5H,2-4H2,(H,7,8)
