18
gdb 7753	3.33063	1.75461	1.2339	2.749	73.81	-0.2362	-0.0112	0.225	995.112	0.154256	-347.845634	-347.837952	-347.837008	-347.877747	29.196	
C	-0.0821781014	 1.5613993836	-0.0159092905	-0.400064
C	 0.0094862587	 0.0300719268	 0.0535398806	-0.02849
C	 0.6305792896	-0.5507491893	-1.2361922577	-0.301185
C	 0.9373618102	-2.0311225905	-1.102608386	 0.376815
O	 0.5425996469	-2.8597915043	-1.88849176	-0.309884
C	 1.7970180952	-2.401505637	 0.1018626875	-0.351624
C	 1.5869029069	-1.4909193323	 1.2837327782	-0.077487
C	 0.783133687	-0.4289120553	 1.2667816903	-0.041708
H	 0.9150596352	 2.0094105061	-0.088805096	 0.119278
H	-0.6617852159	 1.8805582878	-0.8877820382	 0.118108
H	-0.5677492447	 1.9662965749	 0.8780037537	 0.116216
H	-1.0182874676	-0.3562120956	 0.1373076436	 0.098317
H	-0.0159318377	-0.3989213786	-2.103894354	 0.116393
H	 1.5815098215	-0.0299290137	-1.4208100913	 0.115514
H	 1.5952126806	-3.4483101874	 0.3555318488	 0.134218
H	 2.8505722773	-2.3740351545	-0.2182574027	 0.133903
H	 2.1129316747	-1.7567018863	 2.1974689384	 0.094042
H	 0.6576505035	 0.1611533258	 2.1722277453	 0.087637
81.3752	106.9477	238.0245	283.3986	310.2343	400.1666	431.4774	483.3983	521.1303	581.1777	689.1749	721.1973	822.8274	838.1111	914.4198	940.7092	964.6195	983.3605	1004.1614	1056.0154	1095.4098	1129.2623	1139.3928	1202.155	1233.2263	1250.37	1292.4172	1331.4467	1343.1996	1346.8491	1403.9297	1419.8696	1443.5637	1466.4776	1496.9407	1498.9302	1724.0844	1821.7097	2980.408	2995.3721	3013.0588	3029.8374	3064.5162	3099.2976	3104.2542	3107.1065	3140.7601	3164.5904
CC1CC(=O)CC=C1	C[C@H]1CC(=O)CC=C1	
InChI=1S/C7H10O/c1-6-3-2-4-7(8)5-6/h2-3,6H,4-5H2,1H3	InChI=1S/C7H10O/c1-6-3-2-4-7(8)5-6/h2-3,6H,4-5H2,1H3/t6-/m1/s1
