19
gdb 55261	3.14962	1.09966	0.98307	3.2569	79.31	-0.2207	-0.0158	0.2049	1301.4302	0.156884	-423.053186	-423.043669	-423.042724	-423.088235	33.873	
C	 0.1302867962	 1.4179248031	-0.0414323369	-0.488027
C	-0.0036240754	-0.0925229217	 0.0254650967	 0.372779
O	 0.93705197	-0.8292779131	 0.1824740492	-0.290627
C	-1.4426482372	-0.6455723326	-0.1036353819	-0.023705
O	-1.4367684062	-1.9989124699	-0.5115669172	-0.252933
C	-1.7897544208	-2.8353747524	 0.5847733292	-0.151926
C	-2.2978275597	-1.9029311115	 1.6569804521	 0.309514
C	-2.8770326521	-2.4025564094	 2.9393184418	-0.494842
C	-2.1186714727	-0.648509569	 1.2487928603	-0.219772
H	 1.1379146582	 1.7165451116	 0.2497680688	 0.145161
H	-0.0643995814	 1.7554280103	-1.0665623601	 0.146313
H	-0.6078367907	 1.911911045	 0.5999701757	 0.134279
H	-1.9851179739	-0.0453742861	-0.8511716769	 0.09077
H	-2.5524594678	-3.5561147406	 0.2546567139	 0.104001
H	-0.9171223907	-3.4117259065	 0.930334186	 0.11615
H	-2.1505691922	-3.0193750217	 3.4830096481	 0.137119
H	-3.1803574593	-1.5805269799	 3.5921514007	 0.129924
H	-3.7528663271	-3.0377434812	 2.7577888909	 0.132677
H	-2.3670701373	 0.2516860057	 1.7962884195	 0.103146
58.5215	81.1812	109.1808	140.7171	172.4661	246.061	298.2873	319.0535	362.4355	447.4197	558.8619	593.9321	618.963	787.8534	810.332	847.5462	903.0228	931.294	955.6098	993.0545	999.6324	1025.549	1046.3943	1092.9043	1122.6309	1179.5155	1202.7869	1216.9352	1259.6634	1303.8877	1352.0738	1376.491	1388.164	1415.58	1461.5171	1474.1898	1479.5579	1488.5044	1513.3472	1723.8911	1830.6107	2977.0237	2981.7173	3007.6254	3022.6904	3034.7892	3069.7271	3094.738	3118.5661	3152.4131	3215.0379
CC(=O)C1OCC(C)=C1	CC(=O)[C@H]1OCC(=C1)C	
InChI=1S/C7H10O2/c1-5-3-7(6(2)8)9-4-5/h3,7H,4H2,1-2H3	InChI=1S/C7H10O2/c1-5-3-7(6(2)8)9-4-5/h3,7H,4H2,1-2H3/t7-/m0/s1
