14
gdb 19136	3.46015	1.80598	1.37082	4.2262	61.9	-0.2657	-0.0076	0.2581	883.9345	0.107311	-378.672238	-378.664973	-378.664029	-378.70407	26.297	
N	-0.1246639087	-1.1393272168	 0.1367016068	-0.319155
C	-0.0811331109	 0.0144159722	 0.0940099115	 0.264041
C	-0.0658289198	 1.4692547689	 0.0421677153	 0.21836
C	 0.5893873153	 2.1918380889	 1.1538751292	-0.19691
O	 1.234533989	 2.0449202226	-0.1107300628	-0.247867
C	-1.1706521192	 2.0876537743	-0.770152836	-0.070678
C	-1.0009194067	 3.4533557189	-1.3188191405	-0.246876
N	-0.9841438596	 2.2835516977	-2.2147294067	-0.310567
H	 0.2378547775	 3.1942943424	 1.3874136997	 0.136218
H	 1.0352198956	 1.6294927412	 1.9710040579	 0.147064
H	-2.1621664121	 1.7363820986	-0.4947045406	 0.1163
H	-1.8687461279	 4.0979622651	-1.4193016624	 0.128305
H	-0.0610079605	 3.9603485041	-1.1244081963	 0.132891
H	-0.019418572	 2.0715959919	-2.4633578649	 0.248873
78.4779	149.0128	203.4561	249.9842	270.4243	441.5391	464.9412	567.4808	597.7758	679.7595	830.0686	856.3717	882.7141	920.7713	940.0766	984.3427	1032.8653	1113.1627	1131.0215	1143.6622	1173.51	1182.0549	1215.2165	1271.4445	1302.1964	1359.4504	1418.5428	1500.0501	1514.2388	2361.5179	3100.4261	3121.6705	3142.1964	3200.6969	3212.5543	3490.2587
N#CC1(CO1)C1CN1	N#C[C@]1(CO1)[C@H]1CN1	
InChI=1S/C5H6N2O/c6-2-5(3-8-5)4-1-7-4/h4,7H,1,3H2	InChI=1S/C5H6N2O/c6-2-5(3-8-5)4-1-7-4/h4,7H,1,3H2/t4-,5+/m1/s1
