16
gdb 71183	2.66032	1.67274	1.34665	3.5858	71.87	-0.2443	0.0126	0.2569	971.5943	0.125733	-396.866376	-396.858921	-396.857977	-396.898177	29.041	
N	-0.103870106	 1.4916584648	 0.0833475293	-0.622999
C	-0.0812795059	 0.0719332585	-0.0204834438	 0.278427
C	 0.417803724	-0.7823643353	-1.2112482248	-0.207186
N	-0.5025179138	-1.8860689878	-0.7825947216	-0.136512
C	-0.4658186548	-1.8653038492	 0.7165165772	-0.047635
C	-1.3280857734	-0.9154086188	-0.0220395222	-0.101386
C	 0.4495102657	-0.7369121739	 1.2086287845	-0.177912
C	 1.887362227	-0.9377734613	 1.3458722897	 0.261325
N	 3.0313391868	-1.0788282375	 1.4399208693	-0.332952
H	 0.8049438745	 1.8521176483	 0.3600437239	 0.245921
H	-0.3432561413	 1.9219860363	-0.8047034981	 0.23861
H	 0.0666696081	-0.3992627904	-2.1736097644	 0.110067
H	 1.4799101147	-1.0438173398	-1.2725285823	 0.126089
H	-0.708153063	-2.7850175892	 1.2303208009	 0.118186
H	-2.3991053197	-0.7951984905	-0.108560475	 0.110703
H	 0.045101457	-0.3074847042	 2.1289080974	 0.137256
119.404	147.4985	198.338	315.5312	326.5906	414.4445	434.0775	548.7122	570.2856	647.3306	725.0657	783.2313	795.265	808.1775	856.5971	893.896	936.5388	972.6072	990.5573	1001.8234	1033.8701	1065.2023	1072.1125	1146.948	1155.1292	1163.4503	1217.6549	1262.7559	1287.1607	1332.6609	1340.1542	1381.5249	1506.7881	1652.9594	2349.6353	3042.9183	3087.5405	3105.785	3210.6884	3224.193	3492.8894	3572.3754
NC12CN3C(C13)C2C#N	N[C@]12CN3[C@H]([C@@H]13)[C@H]2C#N	
InChI=1S/C6H7N3/c7-1-3-4-5-6(3,8)2-9(4)5/h3-5H,2,8H2	InChI=1S/C6H7N3/c7-1-3-4-5-6(3,8)2-9(4)5/h3-5H,2,8H2/t3-,4+,5+,6+,9?/m1/s1
