14
gdb 44248	3.2064	1.52452	1.22959	1.0005	62.97	-0.2568	-0.059	0.1978	977.4684	0.101301	-473.820216	-473.813128	-473.812184	-473.852278	26.366	
N	-0.1614604494	 1.2487624707	-0.4740359426	-0.529694
C	-0.0659812747	 0.0659231117	-0.0865055735	 0.408915
O	 1.0296947377	-0.6503708941	 0.3854354841	-0.265808
C	 0.2137477112	-1.8488878668	 0.6075819931	-0.03681
C	-1.0303998179	-1.1140298716	 0.0729109576	-0.013766
O	-1.990901301	-1.0206337204	 1.105815969	-0.252523
C	-1.3384166472	-1.1550521329	 2.3628710846	-0.204698
C	-0.0810062255	-1.9943416584	 2.1065345329	 0.386493
O	 0.5418740122	-2.6319649851	 2.9086823689	-0.280115
H	 0.7273788138	 1.7487928524	-0.4106515987	 0.23979
H	 0.631052379	-2.7301010685	 0.123867798	 0.121648
H	-1.522967557	-1.4554729713	-0.8365552867	 0.130416
H	-1.048694898	-0.1781823459	 2.7806012858	 0.144031
H	-2.0143351433	-1.6469892797	 3.0654797075	 0.15212
78.8793	120.6455	229.4282	262.4821	422.1653	429.503	530.4959	607.7787	637.9991	707.1112	780.5265	809.6759	867.6473	887.0039	934.4483	951.1982	988.4863	1002.0262	1025.7979	1106.93	1171.5135	1197.6841	1210.4018	1235.4115	1251.3802	1293.6492	1321.6615	1361.1429	1478.2914	1834.8369	1869.3679	2994.6339	3113.0279	3132.373	3144.4042	3475.7972
N=C1OC2C1OCC2=O	[NH][C]1O[C@@H]2[C@H]1OCC2=O	
InChI=1S/C5H5NO3/c6-5-4-3(9-5)2(7)1-8-4/h3-4,6H,1H2	InChI=1S/C5H5NO3/c6-5-4-3(9-5)2(7)1-8-4/h3-4,6H,1H2/t3-,4+/m0/s1
