24
gdb 105078	2.46139	1.16053	1.06283	1.414	89.22	-0.2173	0.0854	0.3026	1331.1923	0.21667	-368.36335	-368.353346	-368.352401	-368.398329	38.154	
C	-0.4448922479	 1.0440613106	 1.401782533	-0.407367
C	-0.2690277609	-0.4011902826	 0.9227002331	-0.259015
C	 0.5264159913	-0.6216727464	-0.3663341343	 0.358441
C	 0.3977693035	 0.3528443023	-1.5233487396	-0.291276
C	 1.6587839771	 0.3291836554	-0.7029473498	-0.321038
C	 0.7911475649	-2.0630731455	-0.7679165624	-0.070053
C	 0.1647975555	-3.2458320172	-0.105134537	-0.262583
N	-0.1601430934	-2.9256200483	-1.4881258006	-0.086385
C	-1.5036419215	-2.4458406853	-1.7725106556	-0.314004
H	 0.5100351396	 1.5181831984	 1.646405129	 0.121775
H	-0.9534907561	 1.6690590585	 0.6610898926	 0.120341
H	-1.0549921312	 1.0589493473	 2.3101125951	 0.115974
H	 0.2186878211	-0.9760108985	 1.7204660672	 0.103042
H	-1.2667575936	-0.8428252517	 0.8092216522	 0.102743
H	 0.4336790669	-0.0565905275	-2.5269001624	 0.116868
H	-0.2642139075	 1.2047478576	-1.4174784983	 0.109819
H	 1.8501174825	 1.1655575886	-0.0418638379	 0.110018
H	 2.5537072211	-0.0917031697	-1.1493868833	 0.110998
H	 1.8020377505	-2.2092795711	-1.1464405536	 0.086405
H	 0.7371295358	-4.156685961	 0.0570548942	 0.107559
H	-0.5944164842	-3.0573161086	 0.6514807273	 0.103585
H	-1.948030828	-1.8129574437	-0.9898097254	 0.103381
H	-1.4954891684	-1.8722838719	-2.7045101852	 0.120804
H	-2.157588487	-3.3121670899	-1.9172090982	 0.119965
48.1108	81.657	167.4632	182.4088	212.9197	259.7668	286.5326	321.7586	353.0997	366.9895	401.6333	473.8712	566.4104	667.454	757.214	778.6191	785.3217	839.8582	895.4619	906.2334	944.7979	954.0766	1003.4214	1033.3919	1042.3009	1057.7156	1084.1317	1093.3956	1107.9155	1133.8352	1136.8922	1147.1755	1168.9951	1193.3243	1206.9454	1263.1107	1306.8919	1316.1389	1353.75	1386.3808	1406.2316	1419.0103	1450.725	1465.9	1486.1887	1492.0956	1497.4181	1501.2686	1509.0027	1514.8429	1516.8041	2990.0498	3018.9864	3039.4857	3048.7261	3068.5489	3091.8974	3099.8488	3100.6595	3103.6421	3109.8181	3136.1282	3139.6666	3170.7622	3214.1171	3227.9735
CCC1(CC1)C1CN1C	CCC1(CC1)[C@H]1CN1C	
InChI=1S/C8H15N/c1-3-8(4-5-8)7-6-9(7)2/h7H,3-6H2,1-2H3	InChI=1S/C8H15N/c1-3-8(4-5-8)7-6-9(7)2/h7H,3-6H2,1-2H3/t7-,9?/m1/s1
