18
gdb 105928	3.41474	1.63478	1.43546	1.4311	73.86	-0.208	0.077	0.285	957.0901	0.148321	-401.831541	-401.82444	-401.823496	-401.863084	28.358	
C	 0.030620516	 1.2780684531	 0.2849664033	-0.260996
O	-0.1341295694	-0.0050960136	-0.3014303692	-0.285917
C	-1.3905516865	-0.5252294235	-0.1551071193	 0.442419
C	-1.7602864539	-1.9873057496	-0.0957368082	-0.195216
C	-1.9545401185	-1.1363634513	 1.137772271	-0.113166
N	-3.4345687765	-0.9843876293	 0.9853784565	-0.155874
C	-3.6089802636	 0.393436812	 0.38561427	-0.184908
C	-2.7375978254	-0.0754521719	-0.7950440917	-0.161929
C	-3.1955159265	-1.5325946774	-0.4401290703	-0.002337
H	 1.0772535077	 1.5571965022	 0.1475130302	 0.130865
H	-0.6045710485	 2.0296126733	-0.2034042576	 0.117199
H	-0.2054199286	 1.2607778232	 1.3575853217	 0.113791
H	-1.197036982	-2.894731439	-0.2608357502	 0.102218
H	-1.4421007938	-1.1564086337	 2.0909025962	 0.094028
H	-4.6605223288	 0.5374948782	 0.1202586587	 0.10721
H	-3.2639416054	 1.2221560018	 1.0123819883	 0.097555
H	-2.7339653697	 0.3572454677	-1.795045404	 0.073882
H	-3.9866433568	-2.0963681022	-0.9304405754	 0.081176
95.8076	166.3734	184.92	351.5303	390.8349	445.9022	549.6689	632.0945	738.3692	764.1375	801.055	826.2171	834.5453	852.5649	883.134	896.2601	941.4522	967.7233	993.9322	1005.3216	1042.492	1056.7988	1071.0071	1126.115	1133.3532	1157.1886	1178.1375	1195.2667	1196.5568	1205.2419	1225.6288	1228.4368	1277.5454	1300.9832	1410.8817	1485.2742	1494.346	1497.9744	1505.8942	2997.5429	3043.2926	3053.6018	3102.6084	3120.5734	3126.5377	3133.9473	3197.8964	3218.354
COC12C3C1N1CC2C31	CO[C@@]12[C@H]3[C@@H]1N1C[C@@H]2[C@@H]31	
InChI=1S/C7H9NO/c1-9-7-3-2-8-5(3)4(7)6(7)8/h3-6H,2H2,1H3	InChI=1S/C7H9NO/c1-9-7-3-2-8-5(3)4(7)6(7)8/h3-6H,2H2,1H3/t3-,4-,5+,6+,7+/m1/s1
