18
gdb 85292	2.52453	1.60058	1.18902	5.3696	72.04	-0.2465	0.0041	0.2505	1082.1686	0.147632	-439.113205	-439.104863	-439.103919	-439.145846	31.789	
C	 0.1284614505	 1.5056448179	-0.0927717257	-0.406587
C	-0.0252330214	 0.0014720105	 0.0535869077	 0.097992
O	 0.5363314694	-0.6529960276	-1.109152471	-0.24909
C	 1.3303684507	-1.7103991192	-0.7796822477	 0.49373
O	 1.7437117325	-2.4892454227	-1.5882777487	-0.348539
C	 1.5364653384	-1.6985163016	 0.7073215757	-0.275976
N	 2.1418184942	-0.4049004253	 1.1434896318	-0.36165
C	 0.6903212221	-0.6154880096	 1.2579071276	 0.30637
C	 0.0031933298	-0.650386522	 2.595812687	-0.500498
H	 1.1872169147	 1.7724948507	-0.0900786466	 0.150352
H	-0.3252730051	 1.8443855427	-1.0272971285	 0.134047
H	-0.3709953014	 2.0185549792	 0.7357023604	 0.115654
H	-1.0873479979	-0.2742797005	 0.0889298347	 0.090786
H	 1.7820684435	-2.619872714	 1.2196237435	 0.117363
H	 2.5725464029	-0.5563766343	 2.0545849142	 0.237117
H	-0.1368395536	 0.3609583282	 2.9935094171	 0.137097
H	-0.9827920436	-1.120504961	 2.5206361876	 0.136006
H	 0.5925547143	-1.2175814114	 3.3231601409	 0.125827
128.8177	144.4714	198.0192	230.4743	243.0589	285.1289	337.3559	403.0447	501.4967	530.8475	566.7319	669.1357	709.4092	771.9239	842.3472	864.5807	885.1715	955.2286	973.4736	1018.5255	1020.1328	1082.6942	1095.5248	1103.1265	1138.5368	1147.4926	1207.7909	1299.2097	1324.5377	1369.8173	1379.7292	1405.898	1417.4731	1444.8752	1482.9609	1486.9427	1500.1504	1500.9829	1885.083	3022.3118	3031.1446	3047.9087	3095.7711	3105.7623	3119.1093	3144.792	3204.7386	3479.3283
CC1OC(=O)C2NC12C	C[C@H]1OC(=O)[C@H]2N[C@@]12C	
InChI=1S/C6H9NO2/c1-3-6(2)4(7-6)5(8)9-3/h3-4,7H,1-2H3	InChI=1S/C6H9NO2/c1-3-6(2)4(7-6)5(8)9-3/h3-4,7H,1-2H3/t3-,4-,6+/m1/s1
