17
gdb 24723	3.67696	1.63489	1.16429	3.8556	83.3	-0.2014	-0.0208	0.1806	1019.889	0.140727	-380.932265	-380.925605	-380.924661	-380.9632	26.753	
C	-0.0303655965	 1.4995279154	 0.0859985451	-0.273245
C	 1.3742277216	 2.1103922535	-0.0293954866	-0.171609
N	 2.1248644404	 1.4381803797	-1.081725572	-0.040211
C	 3.2035299331	 1.8794820673	-1.808467584	-0.137663
C	 3.6616305121	 0.7778326684	-2.4908898318	-0.10043
N	 2.9100319321	-0.328994672	-2.1911200276	-0.336352
C	 1.9963433734	 0.0959732852	-1.3336583848	 0.354891
C	 0.9455263566	-0.6505592125	-0.6771918525	-0.127176
C	-0.0045246876	-0.0101426115	 0.0173643221	-0.101262
H	-0.4856347335	 1.8426508538	 1.0203776531	 0.115435
H	-0.6658143439	 1.8851081941	-0.7252937062	 0.126378
H	 1.3196748141	 3.1789165228	-0.2533685505	 0.12198
H	 1.9116983039	 1.9951908771	 0.9218207108	 0.124533
H	 3.5274391241	 2.9071643314	-1.7799880147	 0.12428
H	 4.4850572345	 0.7280584553	-3.1873505147	 0.106226
H	 0.9632160647	-1.7280392151	-0.7901851657	 0.113891
H	-0.8105214892	-0.5576438428	 0.49426874	 0.100334
142.1907	195.6914	246.0229	391.1676	436.1144	499.6417	590.1881	635.121	687.2775	709.8868	734.1786	767.7415	808.9719	849.6804	887.0943	931.9582	947.6993	989.5166	1022.45	1066.9509	1096.3744	1152.7419	1173.368	1201.9962	1225.4622	1264.3404	1311.2593	1356.5144	1363.4163	1375.1646	1423.3464	1462.4107	1472.8351	1495.2251	1521.9241	1557.5402	1687.3203	2997.7888	3013.7071	3076.5208	3091.9372	3182.6914	3212.1679	3244.4078	3272.055
C1CN2C=CN=C2C=C1	C1Cn2ccnc2C=C1	
InChI=1S/C7H8N2/c1-2-5-9-6-4-8-7(9)3-1/h1,3-4,6H,2,5H2	InChI=1S/C7H8N2/c1-2-5-9-6-4-8-7(9)3-1/h1,3-4,6H,2,5H2
