16
gdb 75193	3.65902	0.98549	0.84991	3.3594	67.73	-0.2696	-0.0066	0.2631	1338.7992	0.123328	-475.072742	-475.064158	-475.063214	-475.107113	29.88	
C	-0.0935724441	 1.5274815991	 0.0021990033	-0.47883
C	 0.0250100692	 0.0476925526	-0.0804279698	 0.406361
N	-0.0857731685	-0.6807832369	-1.1117833982	-0.292529
C	 0.0941898194	-2.0644911658	-0.665937595	-0.211773
C	 0.5142406638	-1.9462996502	 0.8116989196	 0.169851
O	 1.9030253027	-2.2193262489	 0.9262402204	-0.18754
C	 2.3842257833	-2.4636032681	 2.1698937153	 0.177985
O	 3.5439576232	-2.6320727127	 2.3842027663	-0.262156
O	 0.2708503077	-0.5821069758	 1.1247291049	-0.247178
H	 0.839397371	 1.9606668736	 0.3759542548	 0.154572
H	-0.3170733968	 1.9314194839	-0.9844348807	 0.158627
H	-0.8867008658	 1.8052178804	 0.7034368213	 0.149535
H	-0.8420434848	-2.6206256327	-0.7808898266	 0.126289
H	 0.868121438	-2.5726313537	-1.2463902323	 0.142885
H	-0.0444776321	-2.5644434109	 1.5197093092	 0.105275
H	 1.5895769937	-2.5004216841	 2.9388459675	 0.088626
48.7158	101.4422	135.1494	154.2427	210.9418	260.0228	332.3596	386.5023	483.7149	590.7995	657.5625	691.7139	810.6977	903.9739	921.9338	975.2503	1002.3935	1027.6845	1043.3131	1066.0731	1086.7603	1098.0948	1158.8775	1222.5242	1245.8555	1329.5258	1340.9302	1388.8742	1416.0661	1443.1014	1473.7729	1474.4602	1483.2783	1756.1805	1878.4084	2962.2583	3052.1894	3053.4057	3078.8874	3108.1886	3110.5924	3168.2196
CC1=NCC(OC=O)O1	C[C]1[N]C[C@@H](OC=O)O1	
InChI=1S/C5H7NO3/c1-4-6-2-5(9-4)8-3-7/h3,5H,2H2,1H3	InChI=1S/C5H7NO3/c1-4-6-2-5(9-4)8-3-7/h3,5H,2H2,1H3/t5-/m0/s1
