17
gdb 84390	2.1996	1.75178	1.14726	4.2531	73.12	-0.2524	-0.0081	0.2443	1070.5112	0.137146	-418.018262	-418.009763	-418.008819	-418.05131	32.204	
N	-0.0364516114	 1.4855472695	-0.2250768214	-0.514306
C	-0.0160767784	 0.0402233508	-0.0454031271	-0.022759
C	 0.6594586737	-0.5274351238	 1.1920099561	-0.086192
C	-0.0186633921	-1.5382443367	 1.7283706565	-0.115361
C	-1.2759578187	-1.8606945298	 0.9502421888	 0.094756
O	-2.3968019268	-2.2223262654	 1.7185153322	-0.422956
C	-1.4534144163	-0.5750619741	 0.0579836175	-0.211293
C	-2.3634782541	 0.3454823085	 0.7371523614	 0.28924
N	-3.0720979667	 1.0429141753	 1.3279346892	-0.341203
H	-0.3473651433	 1.9471858244	 0.6251225077	 0.243216
H	 0.8957210397	 1.8290530362	-0.4313752964	 0.233255
H	 0.4563892002	-0.3787274356	-0.9440584723	 0.103682
H	 1.6132570256	-0.1439247535	 1.5392032979	 0.102977
H	 0.2704045079	-2.1299981044	 2.5894069167	 0.112798
H	-1.1070637888	-2.7201145171	 0.28968825	 0.109898
H	-2.6295134944	-1.4787262128	 2.289043194	 0.294324
H	-1.8704211461	-0.8064967316	-0.9246832908	 0.129925
72.12	148.3252	177.1468	233.4802	282.1404	310.7367	397.5583	410.3434	430.7406	466.5375	544.6673	642.0221	678.161	786.293	798.8384	833.5927	836.8421	859.8217	974.8735	978.5562	1027.7204	1054.9066	1105.286	1127.8824	1158.994	1180.7273	1212.1724	1269.7587	1280.4038	1292.9764	1343.5717	1357.6364	1411.3748	1436.6351	1658.6998	1680.1612	2349.0088	3015.0083	3034.7695	3094.7246	3182.1442	3210.2964	3496.3021	3581.1654	3775.168
NC1C=CC(O)C1C#N	N[C@H]1C=C[C@@H](O)[C@H]1C#N	
InChI=1S/C6H8N2O/c7-3-4-5(8)1-2-6(4)9/h1-2,4-6,9H,8H2	InChI=1S/C6H8N2O/c7-3-4-5(8)1-2-6(4)9/h1-2,4-6,9H,8H2/t4-,5-,6+/m0/s1
