18
gdb 127053	5.83468	0.73287	0.65915	5.6725	75.12	-0.2496	0.002	0.2515	1669.4883	0.147853	-435.255438	-435.246377	-435.245432	-435.291653	31.238	
C	-0.0049697714	 1.5060300777	-0.0160732425	-0.388233
C	 0.0077503854	-0.0120556341	-0.007522652	-0.027704
O	 0.6731168331	-0.4610482001	-1.1749921694	-0.235193
C	 0.7423272269	-1.8596144242	-1.2687723898	-0.174706
C	 1.460928171	-2.203699297	-2.5324281963	 0.324769
C	 2.013474499	-1.4299734557	-3.5249862124	-0.13379
N	 2.5581946144	-2.2474601318	-4.4716381184	-0.185501
N	 2.3768511839	-3.4858179034	-4.126042754	-0.116149
N	 1.7107561934	-3.4692734593	-2.9486465119	-0.253327
H	 1.0157030413	 1.8980894629	-0.027944078	 0.132365
H	-0.5275868299	 1.880242807	-0.9006412637	 0.132366
H	-0.5132475007	 1.8856367818	 0.8750093321	 0.11984
H	 0.5239237828	-0.3931154322	 0.8895641138	 0.091618
H	-1.0202085821	-0.4109718738	 0.0163966772	 0.091618
H	 1.2710162195	-2.286351916	-0.3966429339	 0.10599
H	-0.2698919564	-2.3041796552	-1.2680527553	 0.105984
H	 2.0446380949	-0.3569279722	-3.6017220349	 0.133644
H	 1.4723783348	-4.3442713446	-2.5095410204	 0.276408
15.4779	69.1904	99.8325	111.2071	239.1867	261.7143	268.4202	345.3912	489.0785	554.8269	667.7392	727.2496	742.4351	822.6601	856.8573	907.6743	994.9657	1042.5105	1049.317	1058.5335	1069.0347	1128.6149	1147.0537	1174.6747	1188.7384	1218.2527	1253.3592	1297.356	1334.9759	1351.0906	1395.2505	1410.7741	1435.2342	1466.3084	1483.7632	1499.1082	1509.9015	1535.0472	1615.4465	2929.4583	2944.2651	2959.7461	2985.1095	3047.5731	3122.8085	3125.3103	3293.4112	3654.0894
CCOCC1=CN=NN1	CCOCc1cnn[nH]1	
InChI=1S/C5H9N3O/c1-2-9-4-5-3-6-8-7-5/h3H,2,4H2,1H3,(H,6,7,8)	InChI=1S/C5H9N3O/c1-2-9-4-5-3-6-8-7-5/h3H,2,4H2,1H3,(H,6,7,8)
