22
gdb 102668	2.12612	0.91755	0.70213	2.8344	83.9	-0.2504	0.021	0.2714	1702.5177	0.191311	-441.482566	-441.471474	-441.47053	-441.519896	38.82	
C	 0.0137198071	 1.5413843268	 0.0931078599	-0.393656
C	 0.0012067332	 0.0183312582	-0.0483106739	-0.172043
C	-1.4004227633	-0.5864423465	-0.0287031291	 0.080331
C	-1.4052069443	-2.1145227784	-0.1435442399	-0.064544
O	-0.7247742462	-2.7262235264	 0.9315177367	-0.416365
O	-2.0083969548	-0.2481306287	 1.235501967	-0.228558
C	-3.3338175817	 0.0097541831	 1.2463671803	 0.128469
N	-3.9651103826	 0.0836713882	 2.3304771553	-0.209129
C	-5.3715595101	 0.4209670434	 2.2614898659	-0.315298
H	 1.0377410269	 1.9252021903	 0.070820455	 0.117174
H	-0.5391092999	 2.0234564102	-0.721572539	 0.108655
H	-0.4427095667	 1.8486819839	 1.0375224935	 0.137873
H	 0.4731316427	-0.2784336319	-0.9929159334	 0.100022
H	 0.5850520785	-0.4493605705	 0.7504518334	 0.122443
H	-2.0051876746	-0.1599539385	-0.8430857353	 0.077828
H	-2.4486999735	-2.4639799226	-0.2112011126	 0.087984
H	-0.8934122717	-2.419402554	-1.06269063	 0.111088
H	-1.1166064661	-2.3715368367	 1.7391359218	 0.296751
H	-3.7727542076	 0.1640348532	 0.2474397665	 0.076292
H	-5.9617974839	-0.3656727119	 2.7449090466	 0.128692
H	-5.5564954124	 1.3452700978	 2.8206714968	 0.129797
H	-5.7510413391	 0.5576312909	 1.2353884345	 0.096194
34.2433	79.9178	100.758	117.95	158.6776	197.7163	216.3332	235.0784	281.161	300.7302	366.8336	387.531	439.8922	486.3037	565.6678	686.9893	789.2963	859.551	909.3047	969.7686	983.4772	997.5451	1052.847	1061.2109	1091.0254	1139.0307	1141.2492	1152.5352	1170.9985	1235.6789	1243.8925	1285.8851	1312.5141	1361.5867	1375.6887	1407.8352	1410.1612	1421.1723	1431.5784	1450.9977	1480.5915	1483.1383	1499.3111	1500.1709	1504.8045	1510.6262	1775.636	2966.5776	2968.7368	2984.7182	3001.6017	3035.4834	3039.6131	3059.0843	3074.3417	3078.7408	3085.558	3105.3794	3124.6606	3786.6157
CCC(CO)OC=NC	CC[C@@H](CO)OC=NC	
InChI=1S/C6H13NO2/c1-3-6(4-8)9-5-7-2/h5-6,8H,3-4H2,1-2H3	InChI=1S/C6H13NO2/c1-3-6(4-8)9-5-7-2/h5-6,8H,3-4H2,1-2H3/t6-/m0/s1
