19
gdb 73927	2.80444	1.12595	0.88191	1.1165	79.98	-0.2291	-0.028	0.2011	1324.8652	0.157154	-423.043955	-423.034338	-423.033394	-423.079965	33.194	
C	-0.194823253	 1.4584707213	-0.1606215012	-0.50686
C	-0.0711721834	-0.0294136165	-0.0962960979	 0.205747
C	-1.0289977283	-0.9557833788	 0.0027064771	 0.158202
C	-2.5211638791	-0.7466472513	 0.0607874035	-0.391301
C	-3.044437772	-0.3973974512	-1.323132072	 0.168369
O	-3.5367324344	 0.6612467104	-1.6159256807	-0.240027
C	-0.4032483984	-2.3258054096	 0.0304088911	-0.155003
O	 0.9975673845	-2.1132012781	-0.0623566994	-0.262305
C	 1.2692842425	-0.717424488	-0.1245595941	-0.140365
H	 0.3003948225	 1.9323370002	 0.6965385902	 0.131486
H	 0.2950171745	 1.8515541975	-1.0600617602	 0.135722
H	-1.2370863735	 1.783720545	-0.1815711408	 0.147221
H	-3.0138073878	-1.6673714254	 0.3989596041	 0.12271
H	-2.7981466479	 0.0612107771	 0.743232478	 0.132268
H	-2.9069364535	-1.1989532775	-2.0836875501	 0.082711
H	-0.6458746815	-2.8681838017	 0.9604479447	 0.102168
H	-0.7423913806	-2.9622152862	-0.8045831808	 0.101841
H	 1.8343746107	-0.4866329281	-1.042559716	 0.104545
H	 1.9050186288	-0.4167534892	 0.7250356345	 0.102871
32.3968	63.0946	110.8284	142.0974	154.7824	214.33	243.0733	325.8217	358.6205	468.2531	545.9691	614.5837	649.3515	812.6261	849.2749	926.3892	951.3921	962.5466	1003.4108	1034.6263	1065.9787	1093.9112	1095.8499	1126.6211	1171.2559	1183.8142	1223.5783	1230.0091	1271.3006	1299.6557	1375.6585	1395.2654	1420.4894	1423.5776	1464.3177	1482.753	1492.829	1516.1217	1529.2308	1743.8094	1827.2879	2877.5633	2951.1637	2963.5876	2965.0492	2977.8633	3022.2111	3030.8758	3067.9765	3101.5622	3127.8491
CC1=C(CC=O)COC1	CC1=C(CC=O)COC1	
InChI=1S/C7H10O2/c1-6-4-9-5-7(6)2-3-8/h3H,2,4-5H2,1H3	InChI=1S/C7H10O2/c1-6-4-9-5-7(6)2-3-8/h3H,2,4-5H2,1H3
