23
gdb 92263	2.03749	1.85356	1.14933	0.246	91.19	-0.2233	0.0327	0.256	1175.6289	0.206962	-351.172641	-351.163899	-351.162955	-351.205725	34.648	
C	-1.0666773139	 1.0267905548	 0.1787217896	-0.412539
C	-0.0779354263	-0.1155092911	-0.0021626032	 0.051749
C	 1.1543105114	 0.1212444651	-0.9203687304	-0.245245
C	 2.0703101405	-0.5953977992	 0.1115151328	-0.000333
C	 3.2423014286	 0.2269221905	 0.6804600405	-0.275446
C	 2.6103214623	 0.9477878484	 1.8472184867	-0.166258
C	 1.3632383985	 0.5470584159	 2.1182252004	 0.337802
C	 0.5159345463	 1.0029705166	 3.268358443	-0.498693
C	 0.9039888894	-0.5247495252	 1.1538843234	-0.139724
H	-0.5613650811	 1.9381069592	 0.5156156638	 0.117485
H	-1.5660628473	 1.2573336228	-0.7694811024	 0.109739
H	-1.8456496529	 0.7802852307	 0.9091573566	 0.110275
H	-0.6172681736	-1.011389285	-0.3299292086	 0.065922
H	 1.1062428151	-0.3092415186	-1.9240268831	 0.091543
H	 1.4012633861	 1.1840648144	-1.0153396295	 0.094457
H	 2.3577375824	-1.6013532109	-0.1993639351	 0.061074
H	 4.0780813252	-0.404387866	 1.0142893774	 0.097407
H	 3.6602663381	 0.9128671953	-0.0690163837	 0.097651
H	 3.1482729805	 1.6918241141	 2.4278151724	 0.078401
H	 1.0351838209	 1.7467634013	 3.879483506	 0.119019
H	-0.4310318062	 1.4400431316	 2.9327912356	 0.126467
H	 0.2531728304	 0.1567467917	 3.9168152829	 0.121209
H	 0.6170937354	-1.4408359662	 1.6845590849	 0.058039
72.5521	164.1134	180.3669	240.4249	269.1327	295.1988	318.6104	373.3739	423.1955	515.772	602.7314	654.131	714.0356	780.9179	807.7444	839.7854	889.2952	902.0384	925.9029	936.1093	954.2713	982.9901	1023.3118	1042.8122	1055.7846	1093.1821	1098.2924	1127.497	1152.5335	1176.6102	1195.0155	1230.3554	1245.1412	1264.393	1267.3757	1290.9089	1314.2801	1334.2942	1350.2479	1382.1963	1404.9244	1413.489	1477.6655	1482.0821	1488.2646	1491.2949	1497.3114	1503.5005	1709.4751	3000.4317	3018.0706	3021.2659	3022.3796	3026.9778	3037.7882	3043.5318	3072.6168	3083.5585	3085.0901	3095.824	3103.6943	3108.1804	3171.4429
CC1CC2CC=C(C)C12	C[C@H]1C[C@H]2CC=C(C)[C@@H]12	
InChI=1S/C9H14/c1-6-3-4-8-5-7(2)9(6)8/h3,7-9H,4-5H2,1-2H3	InChI=1S/C9H14/c1-6-3-4-8-5-7(2)9(6)8/h3,7-9H,4-5H2,1-2H3/t7-,8+,9-/m0/s1
