15
gdb 79980	3.21729	1.3723	1.23526	3.3145	68.24	-0.2429	-0.033	0.2099	1020.7785	0.113245	-453.950659	-453.942912	-453.941967	-453.983379	28.215	
O	-0.1691111292	 1.4211045076	-0.0868940224	-0.417666
C	-0.0955159068	 0.038933592	-0.0106622311	 0.083704
C	-0.4931826071	-0.7104591135	 1.2479972391	-0.085938
N	-1.2014045955	 0.0440075531	 2.2529733548	-0.270412
C	-2.3039317684	 0.4277118719	 1.7283876947	 0.074886
N	-2.5421758359	-0.0188237905	 0.4291192087	-0.045765
C	-3.6717676174	 0.2572604623	-0.3118689823	 0.160889
O	-4.6084968714	 0.9007791955	 0.0950881636	-0.304452
C	-1.3822983371	-0.7518655381	-0.0095459148	-0.102109
H	 0.2098275971	 1.791719645	 0.7183076018	 0.301908
H	 0.7190243124	-0.4161724745	-0.572568828	 0.107532
H	 0.1171988902	-1.5351126679	 1.5962328749	 0.110019
H	-3.0459652081	 1.0538693999	 2.2050695273	 0.171344
H	-3.6203563216	-0.1862481959	-1.3228131523	 0.094017
H	-1.5485056512	-1.604674097	-0.655571634	 0.122044
74.6833	117.6794	210.1278	229.4894	240.918	292.7344	484.3969	499.2675	603.3977	686.2553	732.5788	784.1535	810.5225	827.327	930.6053	954.1132	995.904	1021.1217	1031.1719	1056.4661	1087.2504	1110.1362	1215.1821	1248.2954	1278.919	1287.5034	1327.5513	1336.4449	1397.5955	1432.7239	1440.5612	1650.6119	1807.1051	2972.368	3114.6746	3181.5222	3191.8707	3247.497	3798.0876
OC1C2N=CN(C=O)C12	O[C@H]1[C@H]2N=CN(C=O)[C@@H]12	
InChI=1S/C5H6N2O2/c8-2-7-1-6-3-4(7)5(3)9/h1-5,9H	InChI=1S/C5H6N2O2/c8-2-7-1-6-3-4(7)5(3)9/h1-5,9H/t3-,4+,5-/m0/s1
