21
gdb 115530	2.3826	1.12989	1.00448	4.4843	83.32	-0.2545	0.0289	0.2834	1330.1615	0.18248	-383.273765	-383.263924	-383.26298	-383.308429	36.593	
C	-0.0200467707	 1.6706569998	-0.2294620775	-0.386321
C	-0.2975539663	 0.1748874904	-0.4179480841	-0.193755
C	 0.8448312692	-0.5378928118	-1.1271945757	 0.031534
C	 2.2150670026	-0.7392418839	-0.420176798	-0.250629
C	 2.3202134475	-2.1384478162	-1.0791079809	-0.259303
C	 0.7700186073	-2.0987356194	-1.3417536577	 0.103899
N	-0.0810418231	-2.7628651208	-0.3559296092	-0.546893
C	 0.35555735	-2.528357109	-2.677772487	 0.272552
N	 0.0670341355	-2.8580496042	-3.7476977988	-0.344432
H	 0.8835626833	 1.8386008758	 0.3666994553	 0.1175
H	 0.1212954313	 2.1722685522	-1.1931035573	 0.119377
H	-0.8518487816	 2.1624701253	 0.2834127634	 0.118059
H	-0.4826369155	-0.2904065663	 0.5571327442	 0.092923
H	-1.2186060246	 0.0357503828	-0.9960459941	 0.116581
H	 1.0122434935	-0.073610485	-2.1047368518	 0.094789
H	 3.00575843	-0.0227307609	-0.6479020063	 0.110561
H	 2.1092632355	-0.797483813	 0.6681756026	 0.100841
H	 2.8948047441	-2.1178690746	-2.0078905999	 0.123828
H	 2.6646413009	-2.9746421281	-0.4657639453	 0.103881
H	 0.0072909945	-3.7710197562	-0.4501605319	 0.240575
H	 0.2342023766	-2.5290767266	 0.5810027099	 0.234432
75.4043	98.8393	155.5256	165.1558	205.1725	230.1437	256.1647	302.9536	357.9234	390.6938	465.0611	535.9466	592.6628	603.7277	731.5674	761.6061	801.7055	861.6809	924.9143	933.4842	945.5507	953.9024	980.3489	1015.3292	1048.1571	1085.4714	1145.935	1164.7264	1194.2579	1234.9679	1255.777	1261.9235	1278.1852	1291.5584	1341.4897	1354.429	1398.1957	1414.6824	1477.6772	1481.6	1499.623	1500.749	1507.3661	1652.4295	2352.8273	3031.6009	3035.1246	3047.8562	3055.4971	3065.3885	3069.2332	3099.9648	3106.9334	3113.3311	3128.1749	3488.362	3570.5574
CCC1CCC1(N)C#N	CC[C@H]1CC[C@]1(N)C#N	
InChI=1S/C7H12N2/c1-2-6-3-4-7(6,9)5-8/h6H,2-4,9H2,1H3	InChI=1S/C7H12N2/c1-2-6-3-4-7(6,9)5-8/h6H,2-4,9H2,1H3/t6-,7-/m0/s1
