16
gdb 107869	2.94811	1.42369	1.13984	2.891	68.73	-0.2333	-0.0024	0.231	1063.1625	0.124246	-437.795783	-437.788133	-437.787189	-437.828335	29.064	
O	 0.0103181082	 1.4301407459	 0.1125023373	-0.40765
C	-0.0215030243	 0.0115235241	 0.1041341907	-0.224206
C	-1.4313233394	-0.5103641663	 0.070174256	 0.368266
N	-2.3934653447	-0.1969213474	-1.0432302279	-0.391297
C	-3.1466009037	-1.0677110088	-0.0869214701	-0.014736
C	-1.91217614	-2.0093919807	 0.1447021856	-0.254083
C	-2.0943194003	-1.871880045	 1.6514579734	 0.447106
O	-1.9677588149	-2.5260522288	 2.6417868458	-0.328225
C	-2.5153778003	-0.4710232236	 1.2289378334	-0.259252
H	-0.1816397677	 1.7310799953	-0.7813368663	 0.29339
H	 0.5398803641	-0.4009941571	-0.7465083521	 0.110326
H	 0.4683376748	-0.3238772707	 1.0247592356	 0.130839
H	-2.7195450726	 0.7695193299	-0.9493068148	 0.21211
H	-4.1791478385	-1.3804638281	-0.2345665293	 0.107152
H	-1.5898050659	-2.8239462203	-0.4984415627	 0.107684
H	-2.8469736047	 0.4050770416	 1.7817271053	 0.102576
70.0398	130.8347	179.8521	286.426	329.2223	367.4818	415.1195	569.1353	624.2694	646.0689	708.9515	777.1244	793.1838	832.5059	853.3866	909.4467	955.1625	967.094	1032.2752	1053.3267	1073.704	1091.0408	1100.4725	1128.2124	1130.607	1192.0297	1208.516	1255.077	1263.9611	1306.8666	1336.2925	1394.003	1412.0029	1483.4161	1916.8675	3004.4934	3078.7933	3128.2261	3154.73	3165.3628	3390.0916	3822.1846
OCC12NC3C1C(=O)C23	OC[C@@]12N[C@H]3[C@@H]1C(=O)[C@@H]23	
InChI=1S/C6H7NO2/c8-1-6-2-4(7-6)3(6)5(2)9/h2-4,7-8H,1H2	InChI=1S/C6H7NO2/c8-1-6-2-4(7-6)3(6)5(2)9/h2-4,7-8H,1H2/t2-,3+,4+,6-
