21
gdb 71740	2.75215	2.159	1.63956	0.0665	84.01	-0.2527	0.0954	0.3481	916.6524	0.186272	-349.950599	-349.943983	-349.943039	-349.980938	29.277	
C	 0.0359683883	 1.5018434881	-0.0380934651	-0.497166
C	 0.0471209957	-0.0136471898	-0.0218274782	 0.349591
C	 0.5277815167	-0.709435286	-1.295585238	-0.289777
C	 0.3718210337	-2.1405597955	-0.831696899	-0.07737
C	-0.7964379528	-2.1973343173	 0.1318829809	-0.062484
C	 0.6294322881	-2.1811808707	 0.6611277191	-0.062482
C	 0.6922302126	-0.7471621576	 1.2182008162	-0.08179
C	-0.6762014991	-0.5946100231	 1.944684148	-0.237562
C	-1.2359908061	-0.7690081256	 0.5025052814	-0.081781
H	 1.0421221989	 1.8962305995	-0.2216587487	 0.113605
H	-0.6148260908	 1.8774425874	-0.8362013741	 0.113606
H	-0.318203203	 1.9304616171	 0.9037359486	 0.115776
H	-0.1023750078	-0.4683365049	-2.1604620396	 0.090988
H	 1.5646313586	-0.4494422625	-1.5417209919	 0.090987
H	 0.6152888098	-2.9877661711	-1.4617818195	 0.076423
H	-1.4518421706	-3.0540927383	 0.2168338372	 0.078577
H	 1.0876241433	-3.0253225599	 1.1594160377	 0.078577
H	 1.6308257435	-0.4100711911	 1.6614232816	 0.052199
H	-0.9430387804	-1.3522902421	 2.6867264371	 0.085827
H	-0.8419706516	 0.4019266722	 2.3608802176	 0.092059
H	-2.242959747	-0.453953659	 0.2235917787	 0.052198
211.4231	246.8943	323.1154	390.919	444.0336	493.2212	581.6813	674.6124	678.6348	717.5689	802.5084	804.1825	820.0818	825.4301	883.5756	913.6912	937.5391	948.9044	958.9114	983.1554	985.6772	1002.9007	1034.2807	1050.1011	1068.2102	1075.4333	1086.326	1114.3875	1141.9415	1148.9235	1210.0152	1215.0748	1228.5199	1243.9217	1256.5467	1270.6361	1296.6523	1319.6845	1333.687	1382.4824	1420.308	1487.4593	1493.5353	1496.3745	1511.7754	3023.1559	3028.223	3056.3752	3065.9782	3082.9674	3095.8234	3098.6821	3103.3411	3114.9236	3182.0483	3192.8194	3204.6925
CC12CC3C4C3C1CC24	C[C@@]12C[C@@H]3[C@H]4[C@@H]3[C@@H]1C[C@@H]24	
InChI=1S/C9H12/c1-9-3-4-7-5(9)2-6(9)8(4)7/h4-8H,2-3H2,1H3	InChI=1S/C9H12/c1-9-3-4-7-5(9)2-6(9)8(4)7/h4-8H,2-3H2,1H3/t4-,5-,6+,7-,8+,9+
