23
gdb 96095	2.73992	1.31942	1.02794	1.2511	85.97	-0.2384	0.0858	0.3242	1266.7386	0.206987	-388.297333	-388.288703	-388.287759	-388.330054	34.889	
C	-0.0191792029	 1.5673546018	 0.0024576421	-0.404493
C	 0.0266542983	 0.0381897118	 0.007843686	 0.034048
C	 0.6842406952	-0.5300459709	-1.2610464574	-0.195617
C	 0.793190837	-2.053326894	-1.1819386938	-0.092531
O	 1.5045460784	-2.4670361403	-0.0218175216	-0.290505
C	 0.8900024782	-2.0237892001	 1.1616040169	 0.449
C	-0.1805601295	-2.9189253429	 1.7457248677	-0.323255
C	 1.2056796605	-2.8504170782	 2.3635204381	-0.335864
C	 0.7659265005	-0.5153147985	 1.240526565	-0.259658
H	 0.9915407449	 1.9905254664	-0.0334448322	 0.113591
H	-0.568673028	 1.945390896	-0.8664427228	 0.10952
H	-0.5088442824	 1.9535708111	 0.9031303704	 0.109286
H	-1.0060220872	-0.3394057148	 0.0449100707	 0.070396
H	 0.1131674485	-0.2469567588	-2.1537645423	 0.089806
H	 1.6914045575	-0.106382395	-1.372216393	 0.098817
H	-0.2136768942	-2.5028523052	-1.1852042116	 0.084541
H	 1.3466471411	-2.4579623838	-2.0343562687	 0.101572
H	-1.0096512939	-2.4674951796	 2.2806991706	 0.107329
H	-0.4287437707	-3.8181521075	 1.1933541052	 0.115845
H	 1.8599974426	-3.70042546	 2.2077580718	 0.122113
H	 1.3261130835	-2.3475804804	 3.317121668	 0.109206
H	 1.7738327221	-0.0793024383	 1.2847074025	 0.097216
H	 0.2487193604	-0.2264221789	 2.1624285284	 0.089639
122.4666	144.1336	236.4763	237.7943	275.5194	322.2768	349.6617	403.5981	433.7437	449.4095	509.2101	581.0169	737.7691	778.2047	805.859	848.3628	867.9732	915.7393	934.5148	944.7255	969.1818	978.6948	1000.1295	1007.7418	1045.2274	1075.5103	1077.2021	1113.3114	1153.8996	1164.9904	1188.3017	1195.7379	1271.481	1277.5398	1290.0351	1309.3887	1340.552	1363.6775	1377.7479	1399.6511	1410.9365	1415.1895	1451.1657	1470.8456	1483.225	1493.5556	1497.1801	1500.1733	1505.3518	2970.2683	2993.1731	3011.7969	3018.5882	3025.1331	3063.0717	3066.7551	3083.4466	3091.7035	3094.4897	3130.8186	3135.7562	3215.7584	3230.1389
CC1CCOC2(CC2)C1	C[C@H]1CCOC2(CC2)C1	
InChI=1S/C8H14O/c1-7-2-5-9-8(6-7)3-4-8/h7H,2-6H2,1H3	InChI=1S/C8H14O/c1-7-2-5-9-8(6-7)3-4-8/h7H,2-6H2,1H3/t7-/m0/s1
