20
gdb 64391	2.19075	1.54538	1.14486	4.2425	78.52	-0.2811	0.036	0.3171	1145.4707	0.171096	-403.186609	-403.177488	-403.176544	-403.22093	34.803	
C	-0.2671284184	 1.5533091533	-0.1005277356	-0.455977
C	 0.0638610096	 0.0653789648	-0.0400511009	 0.372303
O	-1.1409948144	-0.7055622089	 0.0613912742	-0.473821
C	 0.9084347885	-0.4432592849	-1.2256825094	-0.232054
C	 1.4743965098	-1.7768607908	-0.7267709467	-0.20926
C	 1.9248347913	-1.4448680266	 0.7063769414	-0.22923
C	 0.8845491476	-0.3977052783	 1.222951195	-0.154111
C	 1.5224829472	 0.6884409828	 1.9576465827	 0.274788
N	 2.0444041168	 1.5420592558	 2.5375126332	-0.345751
H	 0.6356003336	 2.169065009	-0.1147038381	 0.139893
H	-0.8377869651	 1.7703167239	-1.0112371507	 0.104085
H	-0.8725594041	 1.8494852804	 0.7603903466	 0.13562
H	-1.6909437531	-0.4902818917	-0.6999265114	 0.279653
H	 0.3076883294	-0.5267435628	-2.1372809475	 0.08998
H	 1.7216631479	 0.2645217601	-1.4293150425	 0.106219
H	 0.678216464	-2.526839856	-0.7111314947	 0.116291
H	 2.2916203429	-2.1611570451	-1.3419287645	 0.101191
H	 1.9753199914	-2.317076678	 1.36125777	 0.116211
H	 2.920098125	-0.9912811744	 0.6910391225	 0.123151
H	 0.1610340502	-0.8702074426	 1.8925408264	 0.140819
23.3839	156.0973	202.3438	233.8611	247.4879	297.5662	313.0926	371.4109	409.5115	423.65	512.6919	559.6749	580.7445	594.259	731.5473	835.307	881.1008	893.6764	923.5481	939.2028	985.8859	994.8276	1035.1739	1053.1532	1094.7827	1128.5037	1182.8862	1189.2718	1212.6329	1243.0368	1291.5906	1318.463	1335.424	1342.8521	1355.0364	1369.7875	1415.1391	1477.2749	1487.6047	1489.8788	1492.4094	1504.8625	2352.6669	3030.7606	3035.2657	3060.9632	3063.6825	3078.6866	3082.369	3103.791	3107.4643	3120.6265	3129.6498	3805.7989
CC1(O)CCCC1C#N	C[C@@]1(O)CCC[C@H]1C#N	
InChI=1S/C7H11NO/c1-7(9)4-2-3-6(7)5-8/h6,9H,2-4H2,1H3	InChI=1S/C7H11NO/c1-7(9)4-2-3-6(7)5-8/h6,9H,2-4H2,1H3/t6-,7+/m0/s1
