19
gdb 82578	3.26895	1.35521	1.17272	3.3119	74.53	-0.237	0.0655	0.3024	1091.5815	0.159461	-422.96307	-422.955023	-422.954079	-422.995952	30.99	
O	-0.2701746744	 1.4562688532	 0.0183830752	-0.419612
C	-0.1521099079	 0.0597960726	 0.0124777119	 0.102904
C	-0.4325518538	-0.7865860848	 1.2186355409	-0.116809
C	-1.5229855597	-0.1362012108	 2.0785046944	-0.316847
C	-2.4796609572	-0.1251872004	 0.8511822401	 0.328314
C	-3.8691252856	-0.7845569879	 0.9610304093	-0.142789
O	-4.5325425158	 0.427916679	 0.5614049581	-0.279337
C	-3.2707002788	 1.1142523725	 0.3947814033	-0.123659
C	-1.3886690493	-0.7726025633	-0.0018628765	-0.178429
H	 0.464810472	 1.8171183656	 0.5254816276	 0.287894
H	 0.6456256705	-0.3208120314	-0.6264871625	 0.090528
H	 0.2501955805	-1.5611647092	 1.5480678674	 0.08684
H	-1.8875703775	-0.7949980118	 2.8707275047	 0.104508
H	-1.2772809461	 0.8382811981	 2.5115974887	 0.094802
H	-4.0556230595	-1.6081369388	 0.2573115775	 0.094622
H	-4.1632704922	-1.1073295655	 1.9693562362	 0.094065
H	-3.1899484255	 1.9931500072	 1.0460006105	 0.097841
H	-3.1014434001	 1.4223967701	-0.6433348334	 0.106055
H	-1.5646225095	-1.5273740144	-0.7607604532	 0.089108
67.576	108.4293	184.2977	271.0349	302.6387	352.0541	361.6159	462.6144	508.2357	641.4602	739.8705	786.3651	839.5227	856.8578	867.2497	921.8066	968.9424	976.0535	989.5077	991.4151	1005.0956	1033.8591	1038.8506	1076.4784	1130.7226	1148.6046	1157.2999	1188.1796	1198.3891	1213.5679	1230.5797	1252.6986	1296.0737	1306.5018	1309.1876	1353.0912	1385.3711	1449.5068	1480.9282	1504.5703	1530.6762	2989.0901	3020.5535	3030.7247	3048.1069	3065.5174	3099.4371	3102.3659	3166.1402	3179.7649	3805.7787
OC1C2CC3(COC3)C12	O[C@H]1[C@H]2CC3(COC3)[C@@H]12	
InChI=1S/C7H10O2/c8-6-4-1-7(5(4)6)2-9-3-7/h4-6,8H,1-3H2	InChI=1S/C7H10O2/c8-6-4-1-7(5(4)6)2-9-3-7/h4-6,8H,1-3H2/t4-,5+,6-/m0/s1
