18
gdb 47864	2.39441	1.64118	1.05701	3.406	75.33	-0.2265	-0.0615	0.1651	1122.9687	0.15098	-435.278112	-435.269984	-435.26904	-435.311157	30.889	
N	-0.129802254	 1.1282778868	-0.569738707	-0.494616
C	-0.018088602	-0.0790068485	-0.1698990647	 0.248327
N	-1.1128392835	-0.9289270841	-0.1913276629	-0.32025
C	-1.4057472909	-1.8505890362	 0.9133405519	-0.177206
C	-0.5532393881	-3.1233918037	 0.8856777075	-0.143162
N	 0.8757328037	-2.951774706	 1.1015392554	-0.28205
C	 1.5911429107	-2.160698749	 0.1067064023	-0.256304
C	 1.3559184226	-0.6527337423	 0.1946929556	 0.320916
O	 2.2437309901	 0.1089875759	 0.5058640016	-0.300584
H	 0.7919808983	 1.5685070382	-0.542891076	 0.236756
H	-1.9258483493	-0.4066776018	-0.4942197374	 0.245873
H	-1.3002976379	-1.3576316663	 1.8934054758	 0.101787
H	-2.4584777053	-2.1342257258	 0.813624126	 0.11436
H	-0.9281543668	-3.807314884	 1.6560919195	 0.107919
H	-0.6905515778	-3.6166369245	-0.084614895	 0.11665
H	 1.0695665386	-2.611493875	 2.0376531328	 0.226604
H	 2.667800744	-2.3152527749	 0.2231851538	 0.126518
H	 1.2937660377	-2.5137407688	-0.8883704792	 0.128463
59.2127	117.2642	204.5788	265.5595	316.6151	346.5676	393.418	451.0317	510.8674	549.9842	606.9443	662.0693	723.7259	753.2154	801.9895	839.6045	899.056	936.8416	982.2295	1002.0536	1059.5233	1105.2525	1160.216	1174.2186	1205.3443	1244.1429	1289.8215	1335.7952	1350.6168	1384.324	1390.7345	1440.2937	1455.6498	1461.4787	1472.4452	1491.1903	1504.6721	1689.3227	1791.5226	2973.0137	3027.504	3034.8667	3074.9827	3076.9038	3097.4971	3467.7481	3525.4675	3564.9691
N=C1NCCNCC1=O	[NH][C]1NCCNCC1=O	
InChI=1S/C5H9N3O/c6-5-4(9)3-7-1-2-8-5/h7H,1-3H2,(H2,6,8)	InChI=1S/C5H9N3O/c6-5-4(9)3-7-1-2-8-5/h7H,1-3H2,(H2,6,8)
