23
gdb 120160	3.40807	0.87087	0.80082	1.9411	86.68	-0.2284	0.0841	0.3125	1575.0657	0.204346	-388.236488	-388.22683	-388.225886	-388.271385	36.496	
C	 0.137183808	 1.6066058582	-0.1341041297	-0.381346
C	 0.0183156203	 0.0878008417	 0.014838061	-0.154684
C	-1.4137319751	-0.4277712124	-0.1923488198	-0.236945
C	-1.5101848495	-1.943611042	-0.0973722902	 0.010273
C	-1.4862250903	-2.7339308857	 1.2421240547	 0.035405
C	-2.9249777072	-2.2797891938	 1.5678262566	-0.270659
C	-2.8566179147	-2.7188945381	 0.0777025301	 0.381441
C	-3.9624501648	-2.9495007628	-0.9048266103	-0.514948
O	-2.0525335319	-3.8944399143	 0.5199016007	-0.343848
H	 1.166839842	 1.9438819018	 0.020430102	 0.112702
H	-0.1733500715	 1.9316011656	-1.1334391907	 0.114155
H	-0.4961875987	 2.1272864064	 0.5928677369	 0.113538
H	 0.6865801818	-0.405742974	-0.7026497572	 0.098352
H	 0.3697944054	-0.2125851215	 1.0104351874	 0.097943
H	-2.079421432	 0.0617896814	 0.5277478455	 0.09437
H	-1.7648032834	-0.1174604091	-1.1866386727	 0.096498
H	-0.8775754675	-2.4317046317	-0.8462247205	 0.074725
H	-0.6545814221	-2.9292008036	 1.9195974793	 0.087429
H	-3.4809067368	-2.9608222767	 2.2140045297	 0.102555
H	-3.1145693487	-1.230706184	 1.8035710015	 0.092829
H	-4.4604430985	-2.004366341	-1.1442036394	 0.125471
H	-3.5691679727	-3.3781518948	-1.8317616731	 0.132015
H	-4.7071404619	-3.6372962296	-0.4926984418	 0.13273
61.339	85.8048	112.5349	184.0729	228.086	246.4684	289.3865	314.0926	352.0509	422.4612	559.8218	621.6149	643.6908	708.2271	740.7301	794.4194	845.3605	876.8281	900.6624	917.8679	919.5046	969.1202	1012.6658	1028.2012	1046.912	1070.9601	1105.0484	1125.092	1143.6358	1160.2697	1189.3142	1214.4702	1231.0615	1255.8611	1269.005	1307.0925	1320.7079	1331.7157	1382.0308	1402.1039	1413.5642	1421.0418	1476.3974	1481.1313	1489.0485	1491.8579	1500.447	1503.2615	1511.7852	3009.686	3020.3227	3029.4051	3037.3521	3041.7302	3054.304	3067.9683	3076.2768	3096.2966	3101.9252	3110.6969	3113.2653	3114.9705	3144.3139
CCCC1C2CC1(C)O2	CCC[C@H]1[C@H]2C[C@]1(C)O2	
InChI=1S/C8H14O/c1-3-4-6-7-5-8(6,2)9-7/h6-7H,3-5H2,1-2H3	InChI=1S/C8H14O/c1-3-4-6-7-5-8(6,2)9-7/h6-7H,3-5H2,1-2H3/t6-,7+,8-/m0/s1
