15
gdb 13326	5.22426	1.47771	1.17577	0.5971	65.4	-0.2141	-0.0129	0.2012	974.0122	0.12192	-396.027483	-396.0204	-396.019456	-396.05906	25.821	
O	 0.4106146377	 2.1730927292	-1.2566739899	-0.31723
C	 0.1137786524	 1.6670932689	-0.1949402574	 0.162623
N	 0.9606834091	 0.9780244648	 0.6280939481	-0.383637
C	 2.3097237053	 0.6979005067	 0.4037084727	 0.493589
N	 2.9460624983	-0.1329936297	 1.1413941673	-0.353885
C	 4.3271299691	-0.1153507121	 0.6269306565	-0.156817
C	 4.2619260266	 0.6301375553	-0.7378960864	-0.181145
N	 2.9964675675	 1.3562770461	-0.5899067712	-0.342507
H	-0.9063879755	 1.7160098678	 0.2269585504	 0.100048
H	 0.5845847277	 0.5385069287	 1.4555183287	 0.273273
H	 4.9744236704	 0.4181785757	 1.3359833337	 0.108945
H	 4.7194759749	-1.131404914	 0.5308752103	 0.110375
H	 5.0998003363	 1.3136985852	-0.896454103	 0.113744
H	 4.2241205514	-0.0722162441	-1.5825366802	 0.105336
H	 2.4688767089	 1.7008389515	-1.3800717896	 0.267288
92.3921	171.7478	210.6672	211.7234	332.8588	381.2512	587.7614	624.877	639.3483	710.1837	739.3885	848.5477	881.2738	918.8354	1001.6777	1024.5886	1029.6123	1060.7348	1113.2581	1152.5432	1205.9498	1242.9607	1302.7893	1315.6979	1348.6294	1438.3116	1484.2396	1499.9841	1507.2629	1540.0955	1718.197	1799.6633	2974.9076	3000.5173	3013.6718	3079.115	3090.11	3596.2975	3625.0502
O=CNC1=NCCN1	O=CN[C]1[N]CCN1	
InChI=1S/C4H7N3O/c8-3-7-4-5-1-2-6-4/h3H,1-2H2,(H2,5,6,7,8)	InChI=1S/C4H7N3O/c8-3-7-4-5-1-2-6-4/h3H,1-2H2,(H2,5,6,7,8)
