25
gdb 101615	3.11435	0.81614	0.77789	2.3332	85.65	-0.2485	0.06	0.3085	1661.5621	0.225757	-426.644004	-426.632534	-426.63159	-426.680195	43.154	
C	 0.1264415892	 1.5608717426	-0.1412355553	-0.383997
C	 0.0380600812	 0.0385351812	-0.0094475967	-0.186128
C	-1.4016874911	-0.4874578397	 0.0161137175	 0.110114
O	-2.1143982663	-0.0824230836	-1.1690073301	-0.432063
C	-1.462589471	-2.0072877876	 0.2216602919	-0.233257
C	-2.8777625768	-2.6352483276	 0.2833639294	 0.353551
C	-2.7524304493	-4.1518143362	 0.4549646553	-0.394076
C	-3.718038404	-2.0441667784	 1.4297510839	-0.413564
O	-3.5579282149	-2.4476953657	-0.9578067405	-0.478766
H	 1.1670586022	 1.8919641758	-0.2056355541	 0.111944
H	-0.4006415242	 1.9041318106	-1.0351810931	 0.127484
H	-0.3295223862	 2.0570718126	 0.7225435086	 0.116019
H	 0.5723602239	-0.4437686271	-0.8414035696	 0.088468
H	 0.5450353838	-0.2913986351	 0.9056287897	 0.101031
H	-1.9411467745	 0.0168428082	 0.8263018343	 0.094281
H	-1.6607669765	-0.4773790989	-1.9240390018	 0.284225
H	-0.9149447009	-2.4941048458	-0.5977363035	 0.08795
H	-0.9220841054	-2.2487452797	 1.1455486311	 0.095604
H	-2.2824935074	-4.4068482554	 1.4097998275	 0.104186
H	-3.7446109366	-4.6109094843	 0.4214412458	 0.119647
H	-2.154560305	-4.5794043424	-0.3553115501	 0.112525
H	-3.904417102	-0.9763224405	 1.2795134184	 0.114182
H	-4.6892468526	-2.5453886057	 1.4658889838	 0.119693
H	-3.2269251248	-2.1713526124	 2.4009911263	 0.102817
H	-3.4793778609	-1.5062912251	-1.1679540788	 0.278131
60.7723	87.2407	135.2064	151.8613	214.8136	225.4007	251.3666	272.0986	288.0563	305.0803	328.829	356.5297	395.1022	447.9903	464.1248	508.0017	570.2757	661.0718	766.7282	777.7784	849.5743	889.4179	924.0941	933.0981	959.5895	993.5587	1004.685	1033.8511	1058.5648	1102.7957	1116.5614	1147.5351	1174.4111	1244.5104	1257.4726	1277.7695	1298.0749	1353.4847	1364.6248	1387.6473	1394.782	1407.3296	1412.7361	1422.073	1439.5444	1460.904	1477.158	1482.928	1489.5743	1495.7296	1500.2889	1508.8595	1510.0219	3001.3379	3008.8965	3030.5268	3038.7343	3039.989	3045.3782	3049.8769	3067.1351	3100.5	3103.9523	3112.4364	3113.8759	3118.2423	3122.5613	3719.0066	3781.6372
CCC(O)CC(C)(C)O	CC[C@@H](O)CC(C)(C)O	
InChI=1S/C7H16O2/c1-4-6(8)5-7(2,3)9/h6,8-9H,4-5H2,1-3H3	InChI=1S/C7H16O2/c1-4-6(8)5-7(2,3)9/h6,8-9H,4-5H2,1-3H3/t6-/m1/s1
