21
gdb 110642	2.39294	1.54646	1.16395	1.1271	83.11	-0.2009	0.0794	0.2803	1164.893	0.181202	-387.004923	-386.995973	-386.995029	-387.038309	34.46	
C	-0.4043144512	 1.211635927	 0.1147208481	-0.240059
O	 0.4590737823	 0.1453714114	-0.2293056921	-0.239278
C	 0.8789644372	-0.5756654503	 0.8901768593	 0.071927
C	 0.1174029956	-1.6320043273	 1.652208773	-0.174492
C	-0.6230210596	-2.7017658946	 0.8117387845	-0.053774
C	-0.5748222132	-2.5027313986	-0.6822697669	-0.308364
C	 0.6452991197	-3.007721652	 0.0412512344	-0.104729
C	 1.4316758836	-1.9581855388	 0.8818716027	 0.263779
C	 2.7981573203	-2.3024694527	 1.4035901999	-0.49138
H	 0.0864970111	 1.9211258712	 0.7989520212	 0.105497
H	-0.6594492866	 1.7325373419	-0.8108604094	 0.126005
H	-1.3246770257	 0.8492790143	 0.5938326608	 0.115467
H	 1.4353958115	 0.0590628565	 1.5898591373	 0.081259
H	-0.024455187	-1.5517428353	 2.7243676265	 0.079826
H	-1.3025085501	-3.4057671599	 1.2743608652	 0.08588
H	-1.0964325601	-3.2810602609	-1.2339174641	 0.102078
H	-0.59824078	-1.5246694453	-1.1382200901	 0.140022
H	 1.0813949455	-3.9771077992	-0.1655723064	 0.083561
H	 3.5368611454	-2.3142774893	 0.5918966455	 0.123213
H	 3.135221736	-1.5783294278	 2.1518927835	 0.115495
H	 2.8053916353	-3.2951626204	 1.869104637	 0.118067
78.1689	158.959	181.9154	203.3808	212.4618	276.0936	281.0099	354.0509	404.5434	513.5776	619.1532	628.7095	705.902	755.54	772.8644	837.7513	902.9384	913.2768	942.6388	963.2596	986.4113	1004.5954	1031.9483	1058.2931	1063.852	1094.0444	1103.3994	1121.7444	1158.5989	1182.7228	1189.9528	1219.6108	1233.5935	1272.1175	1300.5092	1336.0673	1368.2326	1414.2566	1454.6971	1478.8461	1483.6902	1485.2996	1494.1438	1501.6793	1513.2344	2981.0639	3015.4139	3030.8573	3036.23	3072.1029	3098.0499	3119.5315	3129.8703	3166.3233	3181.9919	3194.8639	3254.6557
COC1C2C3CC3C12C	CO[C@H]1[C@H]2[C@H]3C[C@H]3[C@@]12C	
InChI=1S/C8H12O/c1-8-5-3-4(5)6(8)7(8)9-2/h4-7H,3H2,1-2H3	InChI=1S/C8H12O/c1-8-5-3-4(5)6(8)7(8)9-2/h4-7H,3H2,1-2H3/t4-,5+,6+,7-,8+/m0/s1
