18
gdb 80124	2.59583	1.5212	1.24965	3.0768	78.32	-0.2372	-0.0264	0.2108	1064.024	0.147258	-401.938842	-401.930731	-401.929787	-401.971286	31.075	
C	-0.230078088	 1.4615441193	-0.0212646032	-0.32248
N	 0.0660146201	 0.0401848418	 0.0774098642	-0.135345
C	 1.3880256203	-0.5086071623	-0.195723663	-0.109815
C	 2.5876422147	 0.3764521349	-0.1312464493	-0.080851
C	 2.7450977536	 0.9110120811	 1.0831055832	-0.074368
C	 1.7074748861	 0.4143209063	 2.0619146607	-0.357013
C	 0.805504061	-0.4877906784	 1.2213158722	 0.206955
C	 0.2349806167	-1.7207298517	 1.8241389278	 0.110689
O	 0.5310371734	-2.1442703514	 2.9151407981	-0.271097
H	 0.604398707	 2.1269174418	 0.2350241061	 0.115842
H	-0.5387326265	 1.6765353192	-1.0488300879	 0.128391
H	-1.0728868521	 1.6842342207	 0.6397954876	 0.128754
H	 1.3935713772	-1.397311126	-0.8217425862	 0.101808
H	 3.2188254726	 0.5593135289	-0.9928331081	 0.105273
H	 3.5047592942	 1.6348562027	 1.357287603	 0.106264
H	 2.1419496767	-0.1764000007	 2.8762246387	 0.145118
H	 1.1553875036	 1.2356626087	 2.5366809897	 0.119305
H	-0.4998795106	-2.2332641447	 1.1664608565	 0.08257
103.8211	185.0031	206.493	231.3626	248.0415	270.1151	378.8197	442.9725	522.2119	572.8859	663.2167	681.8787	748.2133	761.9548	842.9242	903.3224	942.6302	953.8117	980.5799	1002.2937	1045.5149	1072.1342	1075.3008	1137.3134	1150.5634	1168.7103	1175.2783	1253.2167	1305.7356	1317.2037	1362.2375	1372.0626	1411.4835	1451.3303	1470.8421	1489.477	1507.3852	1663.0717	1810.3448	2905.1859	3012.9883	3033.894	3072.2795	3083.1992	3109.6814	3140.023	3187.134	3212.8516
CN1C2C=CCC12C=O	CN1[C@H]2C=CC[C@@]12C=O	
InChI=1S/C7H9NO/c1-8-6-3-2-4-7(6,8)5-9/h2-3,5-6H,4H2,1H3	InChI=1S/C7H9NO/c1-8-6-3-2-4-7(6,8)5-9/h2-3,5-6H,4H2,1H3/t6-,7-,8?/m0/s1
