19
gdb 92100	2.73125	1.42443	1.0268	1.5568	75.8	-0.2473	0.0027	0.25	1157.6309	0.160586	-423.008965	-423.001007	-423.000063	-423.041325	31.501	
O	 0.4202455883	 1.1693534342	 0.6110301072	-0.431059
C	 0.0687327633	-0.0866157803	 0.0265320625	 0.086312
C	-1.4476819573	-0.3188618755	 0.1062390419	-0.275141
C	-1.8104328271	-1.7365511911	-0.276924103	 0.055505
O	-2.9784793933	-1.9469148116	-1.0790961337	-0.263831
C	-1.6926342762	-2.1739556318	-1.6705285243	 0.062594
C	-1.2352552194	-1.2032675514	-2.7496758226	-0.299896
C	 0.1387986636	-0.6124349714	-2.5079384702	-0.074684
C	 0.6669147169	-0.1787823649	-1.3604062795	-0.068187
H	 0.0832196584	 1.8592097741	 0.0280444052	 0.27692
H	 0.5712171639	-0.8211570788	 0.6721672015	 0.097355
H	-1.7745460432	-0.0962100211	 1.126672598	 0.111449
H	-1.9655348124	 0.3793577844	-0.5597490514	 0.104542
H	-1.6729898889	-2.4837606109	 0.5059990342	 0.092574
H	-1.4734188206	-3.2248522283	-1.8600715779	 0.094077
H	-1.2401883083	-1.7108553267	-3.719513724	 0.108242
H	-1.9860410132	-0.4078764375	-2.8283678398	 0.132663
H	 0.7660600965	-0.5358599498	-3.3937813941	 0.093695
H	 1.6851357388	 0.2062966985	-1.3860232801	 0.096869
89.1319	168.1451	273.9301	295.0559	322.6051	333.7104	366.9997	424.1425	469.0336	558.9605	604.2072	666.1947	758.0184	823.1803	836.487	851.5429	920.1575	956.9835	1007.7067	1017.7409	1031.4665	1037.5509	1061.6021	1103.2906	1124.3102	1155.811	1195.8778	1212.4444	1247.4073	1264.1561	1297.3034	1321.3106	1354.8314	1378.1814	1387.6964	1408.8239	1428.805	1479.3062	1487.6546	1500.7747	1718.6657	3005.531	3036.1538	3050.532	3071.5582	3087.4833	3101.4498	3112.729	3131.5444	3155.0224	3795.7585
OC1CC2OC2CC=C1	O[C@H]1C[C@H]2O[C@H]2CC=C1	
InChI=1S/C7H10O2/c8-5-2-1-3-6-7(4-5)9-6/h1-2,5-8H,3-4H2	InChI=1S/C7H10O2/c8-5-2-1-3-6-7(4-5)9-6/h1-2,5-8H,3-4H2/t5-,6+,7-/m1/s1
