13
gdb 27453	2.62926	1.79824	1.22156	6.5774	67.74	-0.2499	-0.0958	0.1541	964.9103	0.090906	-448.958071	-448.950758	-448.949814	-448.989778	27.362	
N	 0.0785724485	 1.2987486766	 0.2792970837	-0.546146
C	-0.0739805335	-0.0295696934	 0.0005446648	 0.35031
N	-1.2134249944	-0.6056269358	 0.1671189268	-0.308312
C	-1.3723854057	-1.9330672412	-0.2508772512	 0.352929
O	-2.1912555955	-2.2835485431	-1.0564909391	-0.301859
N	-0.5810950269	-2.8641495861	 0.4695427214	-0.214204
C	 0.6874783191	-2.7958973794	 0.370656491	 0.068995
N	 1.4624285536	-1.9213709293	-0.4001097329	-0.199214
C	 1.1262749117	-0.6987504804	-0.5703903962	-0.027296
H	 0.9976931755	 1.6747197278	 0.4398943404	 0.269938
H	-0.6869354299	 1.7486607471	 0.7576201295	 0.276894
H	 1.2921485384	-3.533910453	 0.8975426758	 0.139914
H	 1.7993053389	-0.0714299696	-1.1616673039	 0.138052
128.4078	148.0858	261.1569	309.5915	339.9345	382.5623	449.852	467.794	543.5225	569.8833	686.771	698.2588	727.0458	859.1596	877.2842	918.049	969.5376	1005.2327	1035.9834	1101.966	1234.556	1343.1599	1411.2737	1433.7813	1617.4785	1634.4373	1673.0398	1706.0929	1829.6186	3089.623	3139.2577	3592.3306	3718.4665
NC1=NC(=O)N=CN=C1	Nc1nc(=O)ncnc1	
InChI=1S/C4H4N4O/c5-3-1-6-2-7-4(9)8-3/h1-2H,(H2,5,8,9)	InChI=1S/C4H4N4O/c5-3-1-6-2-7-4(9)8-3/h1-2H,(H2,5,8,9)
