18
gdb 90633	3.70476	1.08176	1.01569	3.9257	77.63	-0.2743	0.0144	0.2887	1231.4543	0.146998	-401.931087	-401.922472	-401.921528	-401.964006	32.886	
C	-0.1141167737	 1.4588301943	-0.0437596137	-0.414411
C	 0.0045728949	-0.0562849607	 0.0597797952	 0.016783
C	 1.0673628128	-0.6902000114	-0.8999707063	-0.265154
C	 1.8847024609	-1.142475677	 0.3142993725	-0.121759
C	 0.8425030446	-0.5313920048	 1.2609361054	-0.09843
C	 1.0247275076	-2.0228605291	 1.2038936665	 0.253583
O	-0.0135254927	-2.8152036766	 0.7091839048	-0.452018
C	 1.7250487704	-2.6061845435	 2.3327588692	 0.237497
N	 2.2834511531	-3.101441777	 3.2163643007	-0.340267
H	 0.8671739391	 1.9408659471	 0.0316996642	 0.117711
H	-0.558440294	 1.7468915481	-1.0022709593	 0.120284
H	-0.7468717649	 1.8613094629	 0.7545382547	 0.12122
H	-0.9828339438	-0.5208854109	 0.0048360244	 0.095261
H	 0.7208289957	-1.4825792662	-1.5680141761	 0.10233
H	 1.589915845	 0.0688450613	-1.486446415	 0.111436
H	 2.9647885635	-1.1683794804	 0.3949782872	 0.109572
H	 0.9782246251	 0.007578128	 2.1914185343	 0.109717
H	 0.3695722465	-3.6041694541	 0.3081954812	 0.296645
116.7753	141.2146	166.9092	242.2575	258.3274	294.2056	330.7728	368.5505	454.9583	465.6931	560.1528	603.011	682.4905	721.2885	837.8052	865.4577	884.7404	902.0147	950.2769	991.8688	1021.3566	1030.222	1053.2095	1107.1752	1124.8279	1143.4437	1200.7875	1242.5482	1251.9028	1264.0162	1287.5371	1308.0181	1359.2298	1403.7031	1413.9438	1482.7621	1494.3556	1500.7332	2348.7909	3027.226	3063.3021	3074.92	3098.27	3100.9995	3118.3043	3179.5191	3190.0751	3794.6217
CC1CC2C1C2(O)C#N	C[C@H]1C[C@H]2[C@@H]1[C@]2(O)C#N	
InChI=1S/C7H9NO/c1-4-2-5-6(4)7(5,9)3-8/h4-6,9H,2H2,1H3	InChI=1S/C7H9NO/c1-4-2-5-6(4)7(5,9)3-8/h4-6,9H,2H2,1H3/t4-,5-,6+,7-/m0/s1
