16
gdb 31635	3.69498	1.15258	0.90967	3.7621	69.13	-0.1998	0.0364	0.2362	1257.6486	0.123339	-475.06326	-475.054286	-475.053342	-475.097674	31.182	
C	-0.114103007	 1.3638256728	 0.1547225545	-0.257646
O	 0.5616372987	 0.1389106978	-0.1689913688	-0.265312
C	 0.9474372322	-0.5983271917	 0.8692335742	 0.414768
C	 0.8527138239	-1.9116413162	 1.1080526416	-0.271038
N	 1.5454296206	-2.1409152906	 2.3120887212	-0.121344
C	 1.7239568966	-3.4070448802	 2.9854703424	-0.343932
C	 2.028620203	-0.9557231274	 2.8017347503	 0.489889
O	 2.6488818291	-0.727569605	 3.8069198424	-0.413042
O	 1.6546270791	 0.0185392915	 1.8795338565	-0.252959
H	 0.5319877119	 2.0224035259	 0.7406929002	 0.153294
H	-0.3556868469	 1.8317548999	-0.7997153863	 0.142673
H	-1.0346323656	 1.1578065114	 0.7127089908	 0.128797
H	 0.3842095351	-2.6962678615	 0.5424591865	 0.149112
H	 2.278015612	-4.1131557195	 2.3576324038	 0.137034
H	 2.29331455	-3.2128076039	 3.8953626472	 0.174138
H	 0.7589730974	-3.8515172633	 3.2526220335	 0.135568
58.0796	109.8699	125.3877	161.6759	178.3695	242.6902	283.4022	361.661	412.5415	585.1495	589.0596	650.0025	690.8893	708.1338	756.0762	858.7438	950.055	1019.7227	1052.502	1087.2521	1159.0379	1174.9547	1194.9304	1208.6291	1317.553	1334.3041	1422.8452	1461.7443	1480.5612	1487.4472	1491.7921	1503.8942	1516.5531	1750.0381	1883.5407	3029.7388	3032.3148	3085.1675	3113.805	3152.0278	3156.4415	3300.794
COC1=CN(C)C(=O)O1	COc1cn(C)c(=O)o1	
InChI=1S/C5H7NO3/c1-6-3-4(8-2)9-5(6)7/h3H,1-2H3	InChI=1S/C5H7NO3/c1-6-3-4(8-2)9-5(6)7/h3H,1-2H3
