21
gdb 116063	3.20118	1.06061	0.85589	1.9484	79.81	-0.24	-0.0153	0.2247	1392.2367	0.182628	-424.264072	-424.255003	-424.254058	-424.298171	34.036	
C	-0.0489893348	 1.5643789738	 0.0258375136	-0.389262
C	 0.0084949076	 0.035508877	-0.019069856	-0.186133
C	 0.7142564398	-0.5038825438	-1.2596939895	 0.123234
C	 0.8554242628	-2.0423165003	-1.2432238107	-0.306746
C	 1.4103227233	-2.5522799558	-2.5641207065	 0.368502
O	 2.3231689765	-3.3410952745	-2.636993062	-0.30613
C	 0.727321821	-1.9524601264	-3.7831630336	-0.298552
C	 0.595726449	-0.4263972329	-3.617430487	-0.089408
O	-0.0333360191	-0.0919984365	-2.3970246529	-0.252179
H	 0.9574372995	 1.9970106847	 0.0505686433	 0.112438
H	-0.5616133148	 1.9562833837	-0.8559101752	 0.135147
H	-0.5820232839	 1.9103652352	 0.916277968	 0.112786
H	 0.5284183142	-0.3516526181	 0.865308346	 0.100212
H	-1.006314685	-0.3807845235	 0.0025100592	 0.104938
H	 1.7258654676	-0.0627199821	-1.3202647611	 0.072149
H	 1.5016368419	-2.3784274133	-0.4285620783	 0.118104
H	-0.144430918	-2.4731358985	-1.0975999373	 0.120427
H	 1.2882006279	-2.2162700245	-4.6831543539	 0.119876
H	-0.2805173143	-2.3802331716	-3.8595031901	 0.125365
H	 1.5930175581	 0.0401476985	-3.6747166888	 0.099708
H	-0.0203414593	-0.0013328612	-4.414273567	 0.115523
73.0137	115.0363	117.4156	181.7672	228.2092	292.0316	345.9059	387.968	444.8908	472.285	518.1843	521.8291	688.7571	764.3494	774.2774	826.7171	878.8347	911.9496	943.6909	987.5298	1005.3532	1041.0968	1083.6888	1106.065	1124.363	1162.3409	1181.6459	1231.9159	1248.7341	1266.3714	1275.696	1310.2535	1332.615	1344.8854	1375.7867	1403.2051	1407.103	1417.0827	1447.8828	1460.3668	1475.9866	1496.6969	1506.2386	1509.2151	1820.3562	2938.2973	2973.5097	3025.3919	3030.6122	3036.029	3038.1964	3067.9162	3090.9432	3103.3112	3110.4341	3112.554	3127.6823
CCC1CC(=O)CCO1	CC[C@H]1CC(=O)CCO1	
InChI=1S/C7H12O2/c1-2-7-5-6(8)3-4-9-7/h7H,2-5H2,1H3	InChI=1S/C7H12O2/c1-2-7-5-6(8)3-4-9-7/h7H,2-5H2,1H3/t7-/m0/s1
