13
gdb 23899	4.80298	0.90909	0.9047	1.4635	48.18	-0.2655	-0.0353	0.2302	1208.2135	0.090114	-530.123573	-530.115474	-530.114529	-530.157746	27.265	
F	 0.1369693183	 0.111952063	-0.1416397561	-0.081753
C	-0.0180537446	 1.4372586698	 0.0001804378	 0.293563
F	 1.2102646141	 1.9812673718	 0.0383869381	-0.084223
F	-0.6268103239	 1.8942023545	-1.1029876775	-0.075607
C	-0.8149887718	 1.7778890884	 1.2436164187	-0.343207
C	-0.144356037	 1.2620142278	 2.5247216879	-0.285355
C	-0.836090213	 1.7834433837	 3.7664724214	 0.157728
O	-1.228486874	 1.0979464781	 4.6724864956	-0.226906
H	-0.9232994025	 2.8672690782	 1.2682118274	 0.137477
H	-1.8136547828	 1.3486430058	 1.1216600541	 0.14659
H	-0.1252648052	 0.1707347635	 2.5578936841	 0.142849
H	 0.8918684841	 1.6260632468	 2.5489638022	 0.142064
H	-0.9573151918	 2.8925193086	 3.7899629663	 0.076779
55.4884	63.8673	103.6661	160.433	288.5966	354.1266	368.6934	506.1875	538.3851	567.6802	649.9965	770.5007	837.3135	865.6344	1012.887	1044.2385	1078.5895	1165.0141	1184.3703	1243.8484	1268.5406	1292.3959	1336.9601	1400.9003	1430.323	1465.2299	1483.6285	1842.9689	2853.183	3030.79	3059.7867	3105.6564	3125.5726
FC(F)(F)CCC=O	FC(F)(F)CCC=O	
InChI=1S/C4H5F3O/c5-4(6,7)2-1-3-8/h3H,1-2H2	InChI=1S/C4H5F3O/c5-4(6,7)2-1-3-8/h3H,1-2H2
