14
gdb 24105	7.41461	0.7731	0.70321	3.4006	68.71	-0.231	-0.0015	0.2295	1471.3411	0.101196	-436.698888	-436.691112	-436.690167	-436.732214	27.776	
N	-0.0318784331	-1.1418641748	-0.0048016364	-0.283965
C	 0.0019050008	 0.0117211606	 0.0021216053	 0.277898
C	-0.005772536	 1.4750156046	 0.0120392578	-0.218866
O	 1.3278300605	 1.9406968088	-0.0003357841	-0.253999
C	 1.4461153298	 3.2940061998	 0.0063990375	 0.331028
C	 0.4845250459	 4.262935021	 0.0240714305	-0.142919
O	 1.085520269	 5.4905224564	 0.0241770433	-0.149476
C	 2.4233857127	 5.2834470579	 0.0064386388	 0.027203
C	 2.7143084021	 3.9580169794	-0.0050375148	-0.310436
H	-0.5563584717	 1.8397084823	-0.867960484	 0.156082
H	-0.5357400099	 1.8277654446	 0.9094029533	 0.156097
H	-0.590596702	 4.2618720439	 0.037244009	 0.137044
H	 3.0355007557	 6.1700832877	 0.0042504909	 0.145674
H	 3.6856114765	 3.4917123676	-0.0197320072	 0.128634
52.2647	109.2058	114.3526	237.6196	330.8011	393.7179	420.7611	523.5087	610.2277	643.9055	690.4534	741.6764	771.0039	832.5019	884.0424	963.8808	1004.4692	1038.2479	1046.1446	1089.3817	1103.0574	1218.983	1248.5702	1269.2667	1317.283	1392.2634	1438.9039	1496.1962	1546.6816	1642.2059	2378.3738	2992.778	3025.1474	3267.7952	3288.7026	3295.5159
N#CCOC1=COC=C1	N#CCOc1cocc1	
InChI=1S/C6H5NO2/c7-2-4-9-6-1-3-8-5-6/h1,3,5H,4H2	InChI=1S/C6H5NO2/c7-2-4-9-6-1-3-8-5-6/h1,3,5H,4H2
