17
gdb 74373	2.70891	1.35151	1.08378	2.1134	76.94	-0.2294	0.0189	0.2483	1146.4567	0.136395	-417.97528	-417.966824	-417.96588	-418.008308	32.368	
N	 0.0360201351	 1.3496963765	-0.1577010565	-0.541112
C	-0.0376571501	-0.021734541	-0.0103803475	 0.332587
N	-1.1755917223	-0.5975631585	 0.0174938213	-0.284893
C	-1.1956593677	-2.0663244765	 0.0489659117	-0.156245
C	 0.1347724562	-2.6834392486	-0.4142530781	-0.106289
O	 1.2135272329	-2.0927918622	 0.287126445	-0.237317
C	 1.3124157972	-0.7197283655	 0.0043458132	-0.149215
C	-1.5686878157	-2.5404092293	 1.3856857046	 0.372087
C	-1.8704933774	-2.9474949748	 2.4751338484	-0.491606
H	 0.8157808565	 1.8146052253	 0.2829676382	 0.250116
H	-0.8500117467	 1.8169881579	-0.0216279407	 0.256894
H	-1.9776332144	-2.3910141384	-0.6523710144	 0.107635
H	 0.1703412617	-3.7542188129	-0.2038083324	 0.122898
H	 0.246926319	-2.5281695773	-1.4998629737	 0.09209
H	 1.803565267	-0.5442723587	-0.9692243223	 0.11561
H	 1.9535155023	-0.2808999211	 0.7778999421	 0.122416
H	-2.1393687936	-3.300590325	 3.4396809312	 0.194344
78.163	115.7675	176.1986	273.7021	326.626	359.2048	398.1887	430.3597	454.3175	512.0729	558.6653	595.2693	618.8188	644.1899	649.1595	789.2342	806.3811	890.155	939.5854	969.5513	1023.6554	1051.7127	1091.0241	1161.8439	1206.8435	1250.7453	1298.1787	1303.54	1330.1401	1342.4379	1389.9641	1431.282	1478.2334	1491.5448	1630.8596	1736.354	2236.4729	2953.7897	2973.1176	3001.122	3057.8212	3110.8738	3505.1116	3557.6254	3670.6073
NC1=NC(COC1)C#C	NC1=N[C@@H](COC1)C#C	
InChI=1S/C6H8N2O/c1-2-5-3-9-4-6(7)8-5/h1,5H,3-4H2,(H2,7,8)	InChI=1S/C6H8N2O/c1-2-5-3-9-4-6(7)8-5/h1,5H,3-4H2,(H2,7,8)/t5-/m1/s1
