20
gdb 116650	3.12291	0.86282	0.76295	1.8681	80.48	-0.2307	-0.0167	0.214	1583.3222	0.166745	-440.29729	-440.286142	-440.285197	-440.334748	37.692	
C	 0.4135077005	 0.7467500025	 0.2836011185	-0.251562
O	-0.8774065068	 0.4217492942	-0.2188355285	-0.190879
C	-1.262699473	-0.8569480994	-0.0357507262	 0.139722
N	-2.4048155323	-1.2180698028	-0.4329992517	-0.240345
C	-2.8328455761	-2.5874891555	-0.223793967	-0.069403
C	-2.0033688599	-3.6113960844	-1.0315147574	-0.394099
C	-2.8416189702	-3.0263963187	 1.2560759879	 0.388144
C	-3.9691145608	-3.9562584185	 1.6631466191	-0.476858
O	-1.9989716417	-2.6595319881	 2.0414720424	-0.30778
H	 0.5771550652	 1.7998205654	 0.0516564821	 0.143416
H	 0.4679814772	 0.6042637628	 1.3693282646	 0.134437
H	 1.1960246695	 0.1482178472	-0.1988389914	 0.123935
H	-0.5207221503	-1.4836548325	 0.4676503333	 0.103138
H	-3.8668351443	-2.6531982072	-0.5834318314	 0.086528
H	-0.9711733626	-3.6469458459	-0.671360465	 0.126837
H	-2.4255633197	-4.6188758588	-0.9592218661	 0.117469
H	-1.9945274953	-3.3164500005	-2.0839264284	 0.13571
H	-3.767484214	-4.3846887896	 2.6455608991	 0.142061
H	-4.9035486313	-3.383410976	 1.7047258986	 0.152338
H	-4.1188708641	-4.7511189741	 0.9254671975	 0.137192
47.8251	55.1282	98.6481	114.0175	143.9883	167.7681	180.5273	233.0003	241.2875	290.204	348.6619	399.7463	470.31	547.521	600.5445	678.0045	765.7277	909.9867	949.0504	980.2113	996.7774	1049.6724	1065.6627	1108.4906	1117.7565	1177.1097	1177.9477	1202.6843	1283.4967	1328.9957	1371.2959	1382.6334	1397.4554	1425.2718	1462.2008	1474.2186	1486.1141	1490.8263	1494.8111	1497.0694	1501.7306	1752.88	1813.6502	3014.5724	3026.356	3037.1151	3039.9013	3079.5217	3080.9161	3098.5109	3112.481	3125.7114	3143.9223	3152.8233
COC=NC(C)C(C)=O	COC=N[C@@H](C)C(=O)C	
InChI=1S/C6H11NO2/c1-5(6(2)8)7-4-9-3/h4-5H,1-3H3	InChI=1S/C6H11NO2/c1-5(6(2)8)7-4-9-3/h4-5H,1-3H3/t5-/m0/s1
