16
gdb 27057	3.08309	1.36537	0.96611	3.0586	74.9	-0.2041	0.0113	0.2154	1160.2322	0.126287	-434.139358	-434.13108	-434.130135	-434.173107	30.061	
C	-0.9231800888	 1.0182216358	-0.4858659556	-0.533543
C	-0.2123669335	-0.2675101475	-0.2276004098	 0.237733
C	 0.4118001157	-1.2259306387	-0.9983202845	 0.272905
N	 0.5958232714	-1.3660342132	-2.3839479274	-0.385959
C	-0.1096354153	-0.8472071732	-3.4243163741	 0.139513
O	-1.0291061345	-0.0571719404	-3.3612806811	-0.316342
N	 0.9838156668	-2.2079795382	-0.2237219589	-0.322302
C	 0.7126109947	-1.873044155	 1.0152362358	 0.012737
N	-0.0047018637	-0.7223614165	 1.0673208669	-0.282301
H	-0.2964487724	 1.8840995299	-0.2358690601	 0.123379
H	-1.1986067056	 1.0784252705	-1.5377158504	 0.196104
H	-1.8369775466	 1.0899406567	 0.1165676434	 0.117164
H	 1.2728853046	-2.081933056	-2.6066374338	 0.260659
H	 0.2739415621	-1.2384135818	-4.3864270313	 0.080589
H	 1.0044892872	-2.4218492946	 1.897505714	 0.13396
H	-0.3416994721	-0.2630869277	 1.897152397	 0.265702
31.2579	136.6408	196.6559	219.8081	248.5494	285.2959	386.431	432.1845	520.2884	613.4207	615.5713	660.1307	692.3702	728.9726	798.9754	870.4974	956.7204	993.5125	1015.7833	1071.3524	1113.2198	1153.9322	1222.8465	1243.4547	1282.374	1379.6236	1415.963	1437.2189	1467.2377	1490.3655	1503.5062	1515.5455	1568.865	1651.0462	1798.7033	2947.0724	3014.857	3061.5848	3164.4626	3257.3033	3609.0818	3660.7461
CC1=C(NC=O)N=CN1	Cc1c(NC=O)nc[nH]1	
InChI=1S/C5H7N3O/c1-4-5(8-3-9)7-2-6-4/h2-3H,1H3,(H,6,7)(H,8,9)	InChI=1S/C5H7N3O/c1-4-5(8-3-9)7-2-6-4/h2-3H,1H3,(H,6,7)(H,8,9)
