18
gdb 26750	3.14356	1.46228	1.02259	0.6647	81.84	-0.172	0.0547	0.2267	1161.4063	0.148037	-401.950278	-401.941593	-401.940649	-401.983745	31.904	
C	-0.184229084	 1.4618987506	-0.0477239734	-0.509922
C	 0.0790537249	-0.014956895	-0.0565899798	 0.156627
C	 0.1141228237	-0.8276478041	-1.1796154661	 0.232579
O	-0.0101354089	-0.5668994027	-2.5084178002	-0.435789
N	 0.2249004626	-2.1156404455	-0.7488657651	-0.040875
C	 0.8404296451	-3.445152689	-0.9396976536	-0.169778
C	 0.8635155108	-3.5717619131	 0.6297014076	-0.359655
C	 0.3583645775	-2.1374853278	 0.6241755933	 0.298479
C	 0.2761718497	-0.8585068535	 1.101507279	-0.403548
H	 0.4693112477	 1.9774882266	 0.664636022	 0.12851
H	 0.005559719	 1.9185214022	-1.0277304534	 0.09551
H	-1.2179807838	 1.7099481999	 0.2265706685	 0.126234
H	-0.186845886	 0.3732389656	-2.6135202683	 0.301509
H	 0.211540332	-4.1500017186	-1.4893645976	 0.122807
H	 1.8331798874	-3.4009611678	-1.3959730413	 0.128541
H	 0.1845682975	-4.3271218375	 1.0357758909	 0.117931
H	 1.8594587833	-3.7289658527	 1.0516448856	 0.121401
H	 0.3416716814	-0.5171959776	 2.1236743819	 0.089439
85.5249	97.5297	184.6754	189.2816	232.729	257.7755	284.5619	347.9863	555.7049	582.8596	632.8263	652.7007	678.5877	767.9557	802.8573	829.4194	866.7429	929.7375	991.0233	1048.9504	1054.9147	1064.6783	1136.0192	1154.5682	1182.0769	1213.0344	1228.0015	1256.7934	1272.9652	1358.8509	1381.3119	1421.2012	1478.2309	1486.8188	1499.4296	1505.8077	1535.9892	1576.4737	1617.639	3006.0084	3052.8923	3053.8855	3058.4561	3077.2551	3096.746	3114.318	3241.8821	3835.2019
CC1=C(O)N2CCC2=C1	Cc1c(O)n2CCc2c1	
InChI=1S/C7H9NO/c1-5-4-6-2-3-8(6)7(5)9/h4,9H,2-3H2,1H3	InChI=1S/C7H9NO/c1-5-4-6-2-3-8(6)7(5)9/h4,9H,2-3H2,1H3
