17
gdb 80936	2.88529	1.44862	1.28697	3.1399	68.59	-0.2505	0.063	0.3135	1028.4984	0.134644	-458.8751	-458.867023	-458.866079	-458.907175	31.714	
O	-0.0741016491	 1.4684440338	-0.0530555299	-0.448433
C	 0.0178935846	 0.067485546	 0.0009758206	 0.085046
C	-0.0209247072	-0.6609819827	 1.3872803419	-0.228714
C	-1.4992217193	-0.1735832831	 1.5344932511	-0.307247
C	-1.3619364164	-0.6550095343	 0.0383594633	 0.273462
O	-2.311747456	-0.7245294385	-0.9517090468	-0.473894
C	-0.5933689885	-1.8494041848	 0.6014198624	 0.513551
C	-0.1122555605	-3.1213470042	 0.0877132932	-0.323947
O	-1.1270074418	-3.0341437285	 1.1238798672	-0.300796
H	 0.7960804955	 1.8386428326	 0.1230547422	 0.289036
H	 0.7448068197	-0.3227663566	-0.7227599925	 0.070381
H	 0.7521304978	-0.6774346165	 2.1507323288	 0.085928
H	-2.1448028122	-0.7768271481	 2.1731126827	 0.116454
H	-1.6334559398	 0.8964893079	 1.6819260539	 0.109044
H	-2.5759604047	 0.1740690468	-1.1793876669	 0.294022
H	-0.471067271	-3.4925388899	-0.870549483	 0.128633
H	 0.8443969091	-3.5237664501	 0.4173596218	 0.117476
165.739	189.4328	214.4396	260.7291	280.6632	292.173	353.217	400.1786	485.7376	525.8806	605.4647	667.5355	704.4588	756.3054	841.7082	899.6782	912.8953	931.2654	961.0639	1013.8554	1036.5034	1079.2542	1106.3684	1114.8889	1125.4058	1133.1641	1166.9285	1179.1925	1183.1396	1221.3631	1296.0778	1297.1223	1369.3546	1429.9477	1471.6841	1508.5844	1576.9427	3025.3113	3087.3303	3094.2565	3159.1112	3172.023	3175.3912	3805.2981	3824.7555
OC1C2CC1(O)C21CO1	O[C@H]1[C@H]2C[C@]1(O)[C@]12CO1	
InChI=1S/C6H8O3/c7-4-3-1-5(4,8)6(3)2-9-6/h3-4,7-8H,1-2H2	InChI=1S/C6H8O3/c7-4-3-1-5(4,8)6(3)2-9-6/h3-4,7-8H,1-2H2/t3-,4+,5-,6-/m1/s1
