16
gdb 42462	7.77271	0.59453	0.55791	5.0517	76.34	-0.2697	-0.0422	0.2275	1854.8899	0.120595	-400.746666	-400.736678	-400.735734	-400.783992	33.926	
O	-0.0156538656	-0.1531287215	-0.0022462075	-0.260169
C	-0.0044710943	 1.0498720395	 0.0033948981	 0.376691
C	 1.2730976763	 1.8714391469	-0.0027097446	-0.297506
C	 2.5377607657	 0.9972205466	-0.016878037	-0.361782
C	 3.7549163493	 1.7979835813	-0.0225966069	 0.280664
C	 4.7426197527	 2.4824875158	-0.0270835936	-0.420525
C	-1.30425791	 1.8813035307	 0.0175435153	-0.457173
C	-2.5160219854	 1.0723246307	 0.0232347792	 0.290134
N	-3.4881710253	 0.4500277025	 0.0279340428	-0.290618
H	 1.2574924362	 2.5417369699	-0.8717714404	 0.142167
H	 1.271235592	 2.5333321966	 0.8729077479	 0.142171
H	 2.5251369211	 0.3307729068	 0.8524455113	 0.152184
H	 2.5114093896	 0.3391848268	-0.8922837065	 0.152181
H	 5.6270819799	 3.070054755	-0.0312112205	 0.199248
H	-1.2949073421	 2.5386730128	 0.8957305242	 0.176166
H	-1.3086564	 2.5469563698	-0.8544206018	 0.176167
16.595	55.9683	69.6986	86.1009	153.9905	251.1034	319.9568	341.2747	368.1856	427.6281	465.5381	508.0586	627.3768	651.9833	699.3853	728.8351	854.8655	873.8655	937.343	979.3227	1036.8222	1039.7569	1081.7375	1160.1651	1234.5682	1291.1113	1308.2543	1329.1994	1385.4966	1433.2216	1451.4509	1470.8592	1830.0471	2242.3305	2377.2212	3029.3173	3041.66	3049.4613	3058.0976	3075.4557	3085.1557	3506.5429
O=C(CCC#C)CC#N	O=C(CCC#C)CC#N	
InChI=1S/C7H7NO/c1-2-3-4-7(9)5-6-8/h1H,3-5H2	InChI=1S/C7H7NO/c1-2-3-4-7(9)5-6-8/h1H,3-5H2
