27
gdb 117671	2.77573	0.87388	0.80493	0.0867	96.04	-0.2691	0.0811	0.3501	1649.1963	0.250234	-353.555418	-353.544107	-353.543162	-353.59206	42.599	
C	-0.217447956	 1.6333178103	-0.1036794932	-0.376209
C	-0.0096755505	 0.1157483535	-0.0532460969	-0.192624
C	-1.3391958905	-0.6499845256	-0.0370113392	-0.163421
C	-1.2751002164	-2.1990296755	 0.0512394691	 0.235633
C	-0.4776030376	-2.7708867657	-1.1341012384	-0.430254
C	-0.6105579262	-2.645574829	 1.3695232173	-0.404959
C	-2.7273171502	-2.6945537568	 0.075751867	 0.040692
C	-3.5621151781	-2.953892404	-1.1527389896	-0.284734
C	-3.1568225643	-4.100748385	-0.2564491592	-0.293162
H	 0.7380649343	 2.1672323571	-0.1164409538	 0.108484
H	-0.7755079092	 1.9276087714	-0.9996670772	 0.112544
H	-0.7839323282	 1.9847976778	 0.7660284037	 0.112278
H	 0.5915679263	-0.1909009007	-0.917227486	 0.096303
H	 0.5816451864	-0.1345940384	 0.8356833929	 0.096536
H	-1.9377162294	-0.2862667704	 0.8103607547	 0.082912
H	-1.9083134224	-0.3855350126	-0.9387283618	 0.090501
H	 0.572202729	-2.4707761188	-1.0737113452	 0.115026
H	-0.4951503611	-3.8649901805	-1.1420311963	 0.111709
H	-0.8646470691	-2.4168978795	-2.0948524018	 0.111393
H	-1.1377104538	-2.2313203166	 2.2364250213	 0.104459
H	-0.6311969491	-3.7365684943	 1.4589567207	 0.111303
H	 0.4344710121	-2.3265401269	 1.4291817187	 0.108141
H	-3.2819647704	-2.2501358397	 0.9005348206	 0.075029
H	-4.5977284492	-2.6312886069	-1.1493042171	 0.106307
H	-3.0884193468	-2.8938671538	-2.1263074659	 0.109613
H	-2.4200552761	-4.7974277739	-0.6408972841	 0.109981
H	-3.9129063937	-4.5654553854	 0.3672919299	 0.106518
43.9648	71.8872	92.9454	142.4843	228.2605	236.3604	249.7451	262.6279	290.0527	315.0898	327.9743	369.2428	391.462	477.0701	534.4026	705.2158	743.1793	785.5458	824.3603	833.1488	866.6792	907.2854	937.5088	943.8223	948.2694	976.7793	1011.2723	1046.2085	1052.2713	1057.158	1078.3544	1108.216	1118.3949	1150.2932	1196.8408	1198.8277	1226.9341	1235.9274	1265.3421	1293.419	1327.8786	1346.2333	1391.1127	1394.8414	1401.8286	1411.322	1427.5465	1465.1007	1478.2822	1483.3913	1493.2947	1496.2471	1500.1495	1506.5884	1509.3606	1510.2207	1514.9611	3000.5208	3026.7043	3027.7909	3030.6484	3033.015	3039.3324	3063.8695	3093.8069	3095.7198	3099.4327	3102.5507	3104.2479	3109.5941	3114.054	3131.7543	3136.469	3206.1605	3221.2815
CCCC(C)(C)C1CC1	CCCC(C)(C)C1CC1	
InChI=1S/C9H18/c1-4-7-9(2,3)8-5-6-8/h8H,4-7H2,1-3H3	InChI=1S/C9H18/c1-4-7-9(2,3)8-5-6-8/h8H,4-7H2,1-3H3
