20
gdb 117096	2.51215	0.93583	0.71078	2.3497	80.34	-0.2656	-0.0337	0.2319	1620.3411	0.167915	-403.194343	-403.183605	-403.182661	-403.231646	37.096	
C	-0.6689944367	 1.3968757162	-0.1583672541	-0.388504
C	 0.3322263976	 0.2626135834	 0.0725738654	-0.168588
C	 0.5425939065	-0.593633553	-1.1770026681	-0.291986
C	 1.5054157098	-1.7457289203	-0.9734719492	 0.37661
O	 1.9707615199	-2.0409817504	 0.0980708278	-0.286297
C	 1.9417601034	-2.5424433791	-2.2414620192	-0.239705
C	 2.6592791191	-3.8531691194	-1.8816425464	-0.386775
C	 0.8215850984	-2.7662010454	-3.1554194868	 0.272151
N	-0.070624071	-2.9532525814	-3.866606564	-0.32744
H	-0.332501486	 2.0730065744	-0.9523080412	 0.115756
H	-1.6506808826	 1.0081551967	-0.4506599307	 0.119896
H	-0.8035036637	 1.9920610702	 0.7496052898	 0.118917
H	 1.296910849	 0.6696805491	 0.3953233075	 0.110171
H	-0.0066717511	-0.3816043905	 0.8902942343	 0.11904
H	-0.4085006651	-1.0181830143	-1.5278272127	 0.154676
H	 0.9014071175	 0.011545653	-2.0220281343	 0.124194
H	 2.645691839	-1.8764628978	-2.7633190218	 0.15091
H	 3.0525635156	-4.3324806545	-2.7805011772	 0.133521
H	 3.4777834872	-3.6379801	-1.1938953678	 0.147609
H	 1.9730603431	-4.5439995568	-1.3870684614	 0.145841
30.8518	59.8105	90.2606	105.4318	179.9726	192.2561	236.5131	245.1285	285.122	324.1407	392.4015	459.8783	515.7119	571.3759	660.3596	747.6329	784.9241	870.276	878.0862	907.0412	1003.1617	1018.6065	1051.497	1108.5212	1118.735	1135.5235	1146.9345	1240.2854	1272.8689	1307.2839	1320.5244	1327.3077	1396.7769	1410.9392	1417.0832	1444.2843	1487.0199	1488.0244	1494.5995	1500.4673	1507.9413	1820.8614	2352.2842	3006.0933	3016.7764	3031.2805	3042.3174	3049.7439	3064.8036	3078.4267	3103.0402	3107.7274	3141.1718	3156.0418
CCCC(=O)C(C)C#N	CCCC(=O)[C@@H](C)C#N	
InChI=1S/C7H11NO/c1-3-4-7(9)6(2)5-8/h6H,3-4H2,1-2H3	InChI=1S/C7H11NO/c1-3-4-7(9)6(2)5-8/h6H,3-4H2,1-2H3/t6-/m0/s1
