16
gdb 39557	4.06107	1.72395	1.57766	1.6725	72.23	-0.2268	-0.0003	0.2265	856.7684	0.128172	-400.730196	-400.724413	-400.723468	-400.759973	24.783	
O	-0.0585404707	 1.3706575527	-0.0328781765	-0.239529
C	 1.1569992452	 1.9594184459	 0.0207424563	 0.113023
N	 2.2615794928	 1.3431946557	 0.1000872009	-0.280489
C	 2.1238788756	-0.099282171	 0.1306197449	 0.039934
C	 1.1073088336	-0.6624596079	-0.9437813118	-0.125414
C	 1.0173889034	-2.1211207894	-0.550668771	-0.099678
C	 0.9412107317	-2.0854993515	 0.7881101812	-0.099677
C	 0.9902204457	-0.6077793355	 1.1109990891	-0.125414
C	 0.0144020798	-0.0507315949	 0.0091093933	 0.141704
H	 1.0837187981	 3.0426401916	-0.012278779	 0.133959
H	 3.0950110137	-0.5913920592	 0.1990584595	 0.080448
H	 1.1761762345	-0.3723415215	-1.9910531498	 0.075916
H	 1.0079862672	-2.9653259841	-1.2247946655	 0.107466
H	 0.8528847035	-2.8928097276	 1.5006162947	 0.107466
H	 0.9406305603	-0.2623447312	 2.1424569319	 0.075916
H	-1.0062477846	-0.4304799322	-0.0389511681	 0.094368
280.4218	325.9574	327.7819	520.7502	533.9448	536.184	605.7713	696.8285	722.3063	816.2389	874.9094	889.3831	910.2478	919.9988	934.8853	954.6337	970.3388	980.5385	998.2156	1030.4616	1073.755	1081.3216	1148.5004	1162.372	1197.7943	1210.953	1216.6091	1228.6406	1249.362	1310.4907	1332.4449	1357.5488	1392.5727	1612.563	1699.7245	3104.2555	3120.7643	3132.5232	3135.8899	3188.2047	3224.9486	3250.1315
O1C=NC2C3C=CC2C13	O1[CH][N][C@@H]2[C@H]3C=C[C@@H]2[C@@H]13	
InChI=1S/C7H7NO/c1-2-5-6-4(1)7(5)9-3-8-6/h1-7H	InChI=1S/C7H7NO/c1-2-5-6-4(1)7(5)9-3-8-6/h1-7H/t4-,5+,6-,7+
