17
gdb 116707	2.63128	1.09654	0.82429	2.7834	77.18	-0.2506	0.0009	0.2515	1382.0603	0.134462	-417.996214	-417.986723	-417.985779	-418.031749	32.664	
C	 0.1270008191	 0.9166670461	 0.5389452068	-0.25714
O	-0.2789596774	-0.0605716109	-0.4197765335	-0.188745
C	-1.2173824778	-0.9187930611	-0.0055678	 0.151718
N	-1.5586926869	-1.8872217002	-0.7427831534	-0.238777
C	-2.5942576402	-2.7536104277	-0.2900418308	 0.02428
C	-2.3162592994	-4.2063532231	-0.1036939725	-0.282815
C	-2.6661538384	-3.3680213329	 1.1258339303	-0.204623
C	-1.6540822393	-3.0978790126	 2.1026707122	 0.286375
N	-0.8433043573	-2.8636534444	 2.8959353246	-0.352833
H	 0.8740617881	 1.5365638175	 0.0431016811	 0.149769
H	-0.7166716823	 1.5450226246	 0.8472890746	 0.130461
H	 0.5717936617	 0.4423381588	 1.4202083073	 0.150307
H	-1.6344819828	-0.7037303052	 0.9862234733	 0.104746
H	-3.5725978088	-2.5110237321	-0.6997315054	 0.116427
H	-3.0466995853	-4.9390925062	-0.4262165815	 0.128965
H	-1.2803988152	-4.5130316959	-0.1913153749	 0.1494
H	-3.6573942377	-3.4977943545	 1.5475489019	 0.132485
55.0972	73.5607	85.0061	154.1966	169.6209	212.415	244.9208	334.2021	409.393	463.9538	541.3075	566.3115	694.5879	755.3316	787.9979	861.9765	965.3578	996.1471	1023.1718	1059.783	1075.8034	1117.273	1119.3158	1154.2875	1177.3444	1179.6023	1224.7409	1290.6065	1364.7716	1383.0157	1422.3981	1479.1975	1487.2092	1494.4014	1500.1513	1757.4606	2342.2575	3023.4369	3047.1154	3095.0614	3127.15	3144.9381	3153.3046	3166.5049	3240.1946
COC=NC1CC1C#N	COC=N[C@H]1C[C@H]1C#N	
InChI=1S/C6H8N2O/c1-9-4-8-6-2-5(6)3-7/h4-6H,2H2,1H3	InChI=1S/C6H8N2O/c1-9-4-8-6-2-5(6)3-7/h4-6H,2H2,1H3/t5-,6-/m0/s1
