16
gdb 54960	3.36108	1.04502	0.98015	2.3775	72.78	-0.2515	-0.0043	0.2472	1240.6483	0.121205	-437.866937	-437.85753	-437.856586	-437.901011	34.643	
C	 1.0362246678	 0.7898160781	-0.5731926836	-0.475727
C	 0.0412809013	-0.1436303771	 0.0828110236	 0.182708
O	 0.5874532105	-1.2721311358	 0.804614225	-0.279542
C	-0.0892306254	-0.2688575209	 1.5608672273	-0.084928
C	 0.7166569303	 0.5619035564	 2.5358941402	 0.353137
N	 2.0390737809	 0.2449246098	 2.5782501931	-0.518781
O	 0.1858924974	 1.4233410502	 3.2074704169	-0.355395
C	-1.1239261732	-0.4510381007	-0.7155740899	 0.297808
C	-2.081409703	-0.6822839737	-1.4037072582	-0.4195
H	 1.8765582665	 0.9967966543	 0.0903127189	 0.138105
H	 1.4108593544	 0.3396880908	-1.4968959627	 0.139498
H	 0.5453559036	 1.7327656242	-0.8300089732	 0.145906
H	-1.0649140888	-0.5500063857	 1.9521605177	 0.129628
H	 2.3688829783	-0.5711426442	 2.0893968	 0.27488
H	 2.6167456693	 0.6831693682	 3.2765481018	 0.266759
H	-2.9323192801	-0.8927355241	-2.0038271269	 0.205442
80.7663	109.2143	137.4921	197.0751	208.7784	264.9591	328.1015	363.1347	387.4296	470.4088	518.724	551.1158	586.8196	621.4019	635.5349	671.1131	674.3067	747.3801	842.102	916.473	918.6528	1028.3712	1095.0059	1096.4851	1105.4577	1243.1891	1295.9917	1351.7283	1414.7575	1418.6636	1487.6074	1494.7198	1597.5248	1807.0729	2240.8357	3053.3096	3121.2216	3143.1856	3151.3327	3501.0376	3592.8828	3731.5638
CC1(OC1C(N)=O)C#C	C[C@]1(O[C@H]1C(=O)N)C#C	
InChI=1S/C6H7NO2/c1-3-6(2)4(9-6)5(7)8/h1,4H,2H3,(H2,7,8)	InChI=1S/C6H7NO2/c1-3-6(2)4(9-6)5(7)8/h1,4H,2H3,(H2,7,8)/t4-,6-/m0/s1
