18
gdb 97469	3.00059	0.71398	0.60348	4.4603	72.9	-0.2672	0.0062	0.2734	1794.9609	0.145322	-476.23657	-476.226499	-476.225555	-476.273698	33.689	
C	-0.2830272549	 0.1642284546	 0.3208835621	-0.317018
N	 0.1643590523	-0.8457574967	-0.6186209302	-0.236927
C	 1.3422663916	-0.7568729231	-1.0576414642	 0.133339
O	 1.888091749	-1.605014912	-1.9492485279	-0.224344
C	 1.0377495251	-2.6286613746	-2.4760876267	-0.073381
C	 0.9226357822	-3.8044106571	-1.5074755412	-0.101514
O	 0.2336006935	-4.8741667466	-2.1610417012	-0.176628
C	-1.0497806911	-5.1006440337	-1.8111568326	 0.170279
O	-1.7173881544	-5.9445193462	-2.3263663379	-0.270947
H	 0.4830674046	 0.9181144261	 0.5596674703	 0.104531
H	-1.159293922	 0.6816992274	-0.0849091388	 0.133315
H	-0.5986940935	-0.3141969575	 1.2546669223	 0.129724
H	 2.0750996808	 0.0104585877	-0.7835903846	 0.110133
H	 0.0468658297	-2.2177641309	-2.6893384608	 0.133459
H	 1.5100295921	-2.9562490849	-3.4044700134	 0.131102
H	 1.9148474254	-4.1759228398	-1.2388140705	 0.131144
H	 0.3966925516	-3.4973457343	-0.5985202325	 0.135538
H	-1.396475312	-4.4291475985	-1.0015701121	 0.088193
31.044	51.2805	92.3047	132.4212	156.7013	213.1741	237.9541	270.6003	329.243	375.0235	404.9589	451.0345	674.2632	698.3707	805.137	974.2651	991.299	1038.3756	1048.2346	1062.0434	1068.9568	1124.9527	1142.3985	1147.5514	1207.8102	1244.3953	1303.045	1328.1796	1357.6971	1389.7586	1419.1778	1434.0796	1451.7441	1482.098	1484.5481	1505.2719	1513.2769	1751.8314	1869.8531	2951.1404	2982.5924	3057.6613	3065.1054	3067.565	3071.0954	3083.1895	3110.4437	3135.7544
CN=COCCOC=O	CN=COCCOC=O	
InChI=1S/C5H9NO3/c1-6-4-8-2-3-9-5-7/h4-5H,2-3H2,1H3	InChI=1S/C5H9NO3/c1-6-4-8-2-3-9-5-7/h4-5H,2-3H2,1H3
