14
gdb 80164	2.55591	1.61981	1.3295	5.7114	63.24	-0.2428	-0.0712	0.1716	964.6361	0.101082	-473.843476	-473.835914	-473.83497	-473.875694	28.521	
O	 0.1421140006	 1.3808951365	 0.0041620721	-0.412565
C	 0.0017089013	 0.0095509132	 0.0191537822	 0.125858
C	-0.4656646728	-0.7533580447	 1.2195805884	-0.094977
N	-1.1447298197	 0.0402666706	 2.2102831929	-0.324583
C	-2.3843910216	 0.5163851909	 1.8423170853	 0.272362
O	-3.1241868987	 1.2089229502	 2.4935545346	-0.332109
C	-2.6010005943	-0.0016079815	 0.3890561058	 0.342463
O	-3.6167372446	 0.1468006716	-0.2333174705	-0.290739
C	-1.3632416282	-0.7292346887	-0.011285074	-0.242078
H	-0.209619728	 1.7395236359	 0.8289490339	 0.299143
H	 0.7487110836	-0.4656061257	-0.6089006466	 0.13463
H	 0.0224714492	-1.6563484059	 1.5695555471	 0.123716
H	-0.724394782	 0.2951328347	 3.0908155636	 0.268551
H	-1.456847025	-1.570833197	-0.6847144547	 0.130326
93.6407	119.3595	226.7804	304.8026	318.5057	381.0509	492.4736	509.0732	559.8445	605.5829	649.7393	706.2636	717.9308	779.6766	821.1416	853.9415	959.1955	965.9839	1032.5238	1092.5491	1115.398	1119.1094	1201.8214	1266.3787	1295.0496	1326.2585	1356.6546	1401.8391	1448.5989	1847.3527	1852.5303	3165.5715	3172.9992	3207.8194	3630.3292	3771.9043
OC1C2NC(=O)C(=O)C12	O[C@H]1[C@H]2NC(=O)C(=O)[C@@H]12	
InChI=1S/C5H5NO3/c7-3-1-2(3)6-5(9)4(1)8/h1-3,7H,(H,6,9)	InChI=1S/C5H5NO3/c7-3-1-2(3)6-5(9)4(1)8/h1-3,7H,(H,6,9)/t1-,2+,3-/m1/s1
