20
gdb 121798	3.35562	0.71147	0.67158	3.4023	76.23	-0.2744	0.0183	0.2927	1708.515	0.167811	-440.2934	-440.282465	-440.281521	-440.329874	38.686	
C	 0.1698855227	 1.575989424	-0.0036918697	-0.400325
C	-0.001754561	 0.0525197639	 0.0040250805	 0.18647
O	 0.6746677768	-0.4106365258	 1.1673579051	-0.435663
C	-1.484776244	-0.3954825422	-0.0086698683	-0.218659
C	-2.2905485133	 0.0901232061	 1.1990264516	-0.184707
C	-3.672251192	-0.5505491427	 1.2605587928	-0.079818
O	-4.3442632679	-0.0125354672	 2.3871222723	-0.419208
C	 0.6553534546	-0.5183366803	-1.200400566	 0.253093
N	 1.1562917792	-0.9950778064	-2.1265273616	-0.336466
H	 1.2306824242	 1.8297900995	-0.0492952327	 0.145564
H	-0.3385110863	 2.0184727447	-0.8634824008	 0.132777
H	-0.2467168491	 1.9920713321	 0.9154258035	 0.142613
H	 0.6425935394	-1.3743168579	 1.1772997255	 0.292132
H	-1.9432514472	-0.0549567956	-0.9446160983	 0.119021
H	-1.4976646801	-1.4934184825	-0.0473237895	 0.10381
H	-1.7507545207	-0.1389002394	 2.1231366013	 0.123265
H	-2.4230952876	 1.1765567757	 1.1679421971	 0.115134
H	-4.2231316645	-0.3421617569	 0.3283143203	 0.087196
H	-3.5715147242	-1.645869946	 1.3387198898	 0.085747
H	-5.2202380689	-0.4063633331	 2.4336552474	 0.288024
61.505	76.0006	99.8595	147.0802	182.8949	190.5579	238.9057	261.8019	283.5724	329.9789	359.3206	386.8712	412.0038	493.1641	591.439	603.6914	748.2196	761.6787	859.8417	905.7492	963.1116	1009.6607	1035.5608	1052.6009	1084.1268	1124.7063	1170.6637	1191.631	1225.3827	1242.5675	1299.4204	1306.6251	1318.3224	1375.5074	1390.8744	1413.9413	1464.8385	1474.9468	1485.3727	1498.1746	1503.7366	1529.7627	2349.7152	2956.4887	2981.9853	3015.5973	3053.6262	3060.6435	3062.8032	3102.9378	3142.5002	3147.267	3800.2226	3830.9504
CC(O)(CCCO)C#N	C[C@@](O)(CCCO)C#N	
InChI=1S/C6H11NO2/c1-6(9,5-7)3-2-4-8/h8-9H,2-4H2,1H3	InChI=1S/C6H11NO2/c1-6(9,5-7)3-2-4-8/h8-9H,2-4H2,1H3/t6-/m1/s1
