18
gdb 72823	2.8445	1.55879	1.28555	2.4238	72.52	-0.2609	0.0178	0.2787	1035.3979	0.148491	-439.092248	-439.084297	-439.083353	-439.124866	30.256	
C	-0.1121160586	 1.4796337353	 0.0845362529	-0.464267
C	 0.0303000989	-0.0276307587	 0.039577729	 0.407504
C	-1.2801288531	-0.7953577914	-0.157665571	-0.128549
O	-1.1476076204	-2.0351821082	 0.5524824095	-0.244747
C	-0.0989241206	-2.0038139108	 1.4312870679	 0.415837
N	 0.1326182908	-2.8851907385	 2.3044831717	-0.546725
C	 0.7573248893	-0.7907452893	 1.1726434541	-0.220143
C	 1.8559702346	-1.026265818	 0.1134581763	-0.086209
O	 1.0346464098	-0.447261458	-0.9233218087	-0.325214
H	 0.8602130978	 1.9519384671	 0.2471996394	 0.130751
H	-0.5115874779	 1.8509417613	-0.8653014291	 0.133912
H	-0.7898692086	 1.7880095973	 0.8869877338	 0.123674
H	-2.1394357134	-0.2476446156	 0.2479148289	 0.10783
H	-1.4546397349	-1.0151044214	-1.2139962328	 0.131278
H	-0.5825540171	-3.6143138271	 2.2773908572	 0.223844
H	 1.0430690671	-0.2746755439	 2.0870140051	 0.109089
H	 2.7712787197	-0.4455779473	 0.2795903361	 0.108044
H	 2.1175863368	-2.0693315928	-0.0892288503	 0.12409
74.1018	140.6478	216.0411	223.4722	278.2874	342.5887	375.4938	457.8434	575.6475	619.1871	690.4502	738.0127	796.4796	872.7438	896.4523	899.236	940.9254	968.649	975.6478	1008.7421	1040.9345	1072.152	1102.9588	1138.9566	1161.1633	1168.0429	1230.1118	1244.2952	1254.5728	1277.8911	1333.3449	1346.5201	1408.3502	1411.7534	1483.5375	1490.8207	1504.1116	1525.5236	1775.3033	3025.4277	3030.8053	3038.4185	3084.0885	3103.1248	3107.5486	3120.3984	3138.321	3470.9383
CC12COC(=N)C1CO2	C[C@]12CO[C]([NH])[C@H]1CO2	
InChI=1S/C6H9NO2/c1-6-3-8-5(7)4(6)2-9-6/h4,7H,2-3H2,1H3	InChI=1S/C6H9NO2/c1-6-3-8-5(7)4(6)2-9-6/h4,7H,2-3H2,1H3/t4-,6+/m1/s1
