22
gdb 82650	2.3234	1.74743	1.34822	0.6905	86.85	-0.2008	0.0916	0.2925	1095.1793	0.193324	-367.157126	-367.148023	-367.147079	-367.190131	35.386	
C	-0.0037304124	 1.5467326272	-0.0240737462	-0.336073
N	-0.0222305167	 0.094107585	 0.0843547128	-0.112853
C	-1.2644500575	-0.5898268293	 0.536573284	-0.072518
C	-1.6425980035	-0.0101364013	 1.9337191881	-0.255723
C	-0.3300449303	-0.6228901374	 2.4108002688	-0.180682
C	-0.3520029302	-1.6490012762	 1.2817715531	 0.279438
C	-0.2646055871	-3.13792484	 1.2320132636	-0.532962
C	 0.661118981	-0.5515653253	 1.2052191466	 0.324029
C	 2.1503493169	-0.5782056163	 1.3518434174	-0.510603
H	 0.9893606129	 1.8676278251	-0.3562420799	 0.117605
H	-0.7242418018	 1.8577072472	-0.7882543082	 0.11573
H	-0.235910641	 2.084118173	 0.9090722542	 0.099717
H	-2.0210841528	-0.7817310676	-0.2245068151	 0.068486
H	-1.8138974671	 1.067666374	 2.0267439072	 0.087025
H	-2.500499123	-0.5489485263	 2.34617798	 0.097583
H	 0.0172847065	-0.766716638	 3.4273477662	 0.075733
H	-1.1897433472	-3.6115921852	 1.5807475506	 0.120614
H	-0.0706662909	-3.4928465236	 0.2133483461	 0.126781
H	 0.5490488455	-3.4997167481	 1.8703677801	 0.121511
H	 2.6268001824	-0.9135112315	 0.4244224951	 0.125393
H	 2.5491414742	 0.4122439966	 1.6002195732	 0.121526
H	 2.4467031321	-1.2603523919	 2.1550757222	 0.120241
154.2099	171.2083	182.4435	191.4037	201.0715	232.2374	293.4103	306.0465	358.055	505.4183	583.7028	609.268	657.7764	682.5481	755.4344	793.6649	856.1297	902.3387	910.7103	932.777	949.1112	995.6246	1051.0516	1084.5712	1091.7267	1107.0723	1123.7693	1140.4137	1147.2398	1162.8818	1200.8994	1224.3101	1236.1297	1263.2523	1289.4854	1338.9787	1411.7756	1412.6954	1443.0184	1475.7298	1479.7662	1482.8914	1488.6394	1494.6969	1495.8254	1511.5743	1518.0691	2972.5467	3020.0633	3026.2812	3039.319	3059.7479	3079.5277	3086.3421	3088.8604	3092.871	3095.2649	3103.4525	3111.429	3182.4603
CN1C2CC3C2(C)C13C	CN1[C@@H]2C[C@H]3[C@]2(C)[C@@]13C	
InChI=1S/C8H13N/c1-7-5-4-6(7)9(3)8(5,7)2/h5-6H,4H2,1-3H3	InChI=1S/C8H13N/c1-7-5-4-6(7)9(3)8(5,7)2/h5-6H,4H2,1-3H3/t5-,6+,7-,8-/m0/s1
