16
gdb 54800	2.48615	1.61618	1.10151	3.0627	70.1	-0.2418	-0.0315	0.2103	1081.9061	0.122161	-437.868166	-437.859679	-437.858735	-437.902022	30.636	
C	-0.7034337639	 1.0851615904	 0.3495999382	-0.483548
C	 0.1192458153	-0.1834960421	 0.2658925038	 0.38122
O	 0.8177665467	-0.5847684447	 1.1651776395	-0.294091
C	 0.034742292	-0.9310468024	-1.0562634996	-0.24141
C	 0.475470221	-2.3965773427	-1.1135659824	-0.050919
N	-0.4597327981	-3.121631129	-0.2527232269	-0.315605
C	-0.8463063697	-2.8420150148	-1.6794268816	-0.185266
C	-1.3451005372	-1.4158769446	-1.6359386303	 0.437901
O	-2.3229379059	-0.8409165256	-2.0076854297	-0.307917
H	-0.2930184684	 1.8363835321	-0.3363895653	 0.139807
H	-1.7327367532	 0.8983954759	 0.026108087	 0.162555
H	-0.6811386505	 1.4766559773	 1.3671813506	 0.14197
H	 0.4890098302	-0.3201361902	-1.8476421931	 0.128646
H	 1.4580753258	-2.7780112329	-1.3531322544	 0.118225
H	-0.1755908648	-4.1009638465	-0.223511651	 0.245702
H	-1.1062380994	-3.6427216203	-2.3586892746	 0.12273
55.2737	115.4337	125.6045	154.4332	192.8937	335.3821	393.1527	461.3636	554.2823	579.8402	638.4885	681.2521	778.5516	827.6666	858.2256	876.2698	906.8945	956.3219	984.9158	1011.2238	1041.4226	1052.5391	1095.6512	1101.3746	1150.5614	1185.0853	1234.1708	1309.263	1334.1241	1356.7706	1388.0016	1461.9107	1472.1597	1814.5586	1897.0676	3034.6351	3042.4264	3097.8756	3155.0825	3211.0211	3224.815	3474.702
CC(=O)C1C2NC2C1=O	CC(=O)[C@H]1[C@H]2N[C@H]2C1=O	
InChI=1S/C6H7NO2/c1-2(8)3-4-5(7-4)6(3)9/h3-5,7H,1H3	InChI=1S/C6H7NO2/c1-2(8)3-4-5(7-4)6(3)9/h3-5,7H,1H3/t3-,4+,5+/m0/s1
