17
gdb 78725	3.64945	1.26175	1.2071	4.2128	78.93	-0.2286	0.0192	0.2477	1077.8283	0.136919	-380.815678	-380.808162	-380.807218	-380.847545	29.34	
C	 0.0333731897	 1.5168367497	-0.0747409527	-0.337592
N	 0.0425029116	 0.071013057	 0.1014620897	-0.06678
C	-0.8993981099	-0.5560627299	 0.997394594	-0.05609
C	 0.0470946465	-1.6228375759	 1.3958318618	-0.142863
C	 1.1243641709	-0.588908875	 0.8880412622	-0.043476
C	 1.1225872264	 0.0461501109	 2.3121813077	-0.306242
C	-0.2713117673	-0.5667911202	 2.458263341	 0.19989
C	-1.0707980421	-0.699499985	 3.6231738408	 0.162393
N	-1.7329659449	-0.7975071914	 4.569319975	-0.355755
H	 0.9110138939	 1.8093460266	-0.6596273879	 0.127782
H	-0.8575514267	 1.7931877341	-0.6473684867	 0.131651
H	 0.0265803692	 2.0957195594	 0.8609111963	 0.112182
H	-1.9725490008	-0.5734342537	 0.8547989431	 0.121702
H	-0.0160694439	-2.70013678	 1.4191409633	 0.123273
H	 2.0540703595	-0.8044753306	 0.3658965256	 0.093304
H	 1.8370717946	-0.4675103941	 2.9589607812	 0.125112
H	 1.245409913	 1.128031998	 2.4081458956	 0.111511
121.191	156.5424	190.8336	254.3366	320.6354	466.5933	506.0259	538.5835	543.9131	597.885	667.21	709.1229	787.3761	843.9214	882.3608	900.7312	952.0615	961.0093	997.4934	1041.7053	1047.4891	1110.4553	1131.8063	1138.0976	1158.3835	1183.7107	1224.5734	1225.6936	1244.2744	1285.0755	1299.7708	1376.1325	1450.2321	1484.4693	1496.2985	1517.9879	2334.9235	2991.5045	3066.7571	3074.2479	3108.7558	3124.6221	3143.2232	3203.4919	3238.8676
CN1C2C3C1CC23C#N	CN1[C@H]2[C@H]3[C@@H]1C[C@@]23C#N	
InChI=1S/C7H8N2/c1-9-4-2-7(3-8)5(4)6(7)9/h4-6H,2H2,1H3	InChI=1S/C7H8N2/c1-9-4-2-7(3-8)5(4)6(7)9/h4-6H,2H2,1H3/t4-,5+,6-,7-/m0/s1
