18
gdb 90675	2.81679	1.44165	1.15788	2.9382	72.95	-0.2477	-0.0464	0.2013	1104.386	0.147108	-439.052757	-439.044391	-439.043447	-439.085966	31.716	
C	-1.099165713	 1.0111997529	 0.1880519317	-0.482327
C	 0.253462571	 0.3698588282	-0.0335458574	 0.38826
O	 1.1047705573	 0.3868716587	 0.8377708011	-0.329962
C	 0.4269690097	-0.2850300011	-1.3722382988	-0.099315
C	 1.6737665787	-0.8208676114	-1.9784809186	-0.101701
C	 2.6756012764	-1.4556039598	-1.0007874171	 0.138928
O	 3.4588670176	-0.6786646355	-0.1581471266	-0.436152
C	 1.4748363475	-2.2941748484	-0.4682466317	-0.222356
N	 0.5672531935	-1.7664314704	-1.5558158011	-0.151197
H	-1.2553173906	 1.8154533958	-0.540558832	 0.149998
H	-1.8964647013	 0.2776202284	 0.0236669628	 0.15609
H	-1.1609160147	 1.4146008666	 1.1987560813	 0.147936
H	-0.2892819157	 0.0822721299	-2.1040441442	 0.103541
H	 1.870140261	-0.6162626623	-3.0278023688	 0.099482
H	 3.3597965681	-2.094811972	-1.5661818471	 0.101256
H	 2.840010767	-0.1558480007	 0.3773966307	 0.298812
H	 1.5816717416	-3.3733608034	-0.5904014519	 0.11762
H	 1.1478917959	-2.0740356453	 0.5497084177	 0.121088
56.9808	148.3719	185.0188	207.9577	227.1025	356.6439	368.2638	426.4236	533.9257	591.7059	630.7001	666.1232	726.3029	748.977	756.9635	858.9947	893.944	962.4541	967.2953	982.3487	1014.8217	1051.341	1071.437	1100.4728	1159.5857	1175.0893	1191.6206	1243.2884	1258.2969	1282.9874	1346.9645	1360.8637	1381.882	1434.1413	1462.1021	1472.4867	1485.4655	1493.8825	1771.391	3036.0094	3072.0939	3077.9556	3095.981	3131.4266	3135.1388	3147.9869	3159.2362	3662.4225
CC(=O)C1C2C(O)CN12	CC(=O)[C@H]1[C@H]2[C@@H](O)CN12	
InChI=1S/C6H9NO2/c1-3(8)5-6-4(9)2-7(5)6/h4-6,9H,2H2,1H3	InChI=1S/C6H9NO2/c1-3(8)5-6-4(9)2-7(5)6/h4-6,9H,2H2,1H3/t4-,5-,6+,7?/m0/s1
