18
gdb 18368	3.37854	2.14143	1.59233	2.1904	66.94	-0.2445	0.0792	0.3236	850.1206	0.155243	-384.930064	-384.923013	-384.922069	-384.96124	27.093	
C	-0.3706813476	 1.528220721	-0.0763614544	-0.414355
C	 0.0401556506	 0.0687811141	 0.010835266	 0.137341
O	 0.8993531415	-0.2443738654	-1.0863785878	-0.261701
C	 1.5029130143	-1.496318032	-0.7872715976	-0.10733
C	 1.7833463715	-1.4707110329	 0.7145267575	 0.119098
O	 2.9449544496	-0.6901899325	 1.0577398727	-0.289657
C	 2.1323468622	 0.38204025	 1.5788103673	-0.079847
C	 0.8258429478	-0.3746762617	 1.2540936462	-0.110776
H	 0.497815003	 2.1892582825	-0.0156345337	 0.127482
H	-0.8753394267	 1.7192339546	-1.0271511443	 0.131127
H	-1.0602049014	 1.77993837	 0.7353560232	 0.116045
H	-0.8656591221	-0.5623146149	-0.0489588569	 0.064039
H	 0.8198211107	-2.3292692284	-1.0264812312	 0.084018
H	 2.4129914714	-1.5951027689	-1.3838563252	 0.12061
H	 1.8029491628	-2.4623148298	 1.1779017491	 0.076579
H	 2.3183889755	 0.549412773	 2.6465727261	 0.099457
H	 2.2978499203	 1.3188016798	 1.0348765771	 0.107676
H	 0.1898810566	-0.6152328583	 2.1057725857	 0.080195
114.2673	189.4848	223.689	244.3446	334.6393	384.556	517.3956	606.1414	708.091	781.1157	845.8443	867.3866	874.4929	906.9797	968.8509	993.6626	1018.8488	1032.1035	1052.6145	1081.7386	1119.5318	1133.5015	1163.3827	1171.4646	1205.2187	1237.8962	1269.4002	1319.0809	1327.511	1348.7445	1363.1776	1389.5179	1394.2417	1414.1798	1483.2019	1487.8359	1500.3635	1520.5414	2929.5644	2962.8498	3020.4163	3046.5834	3059.345	3065.5974	3104.8108	3115.4878	3118.929	3125.321
CC1OCC2OCC12	C[C@H]1OC[C@H]2OC[C@@H]12	
InChI=1S/C6H10O2/c1-4-5-2-8-6(5)3-7-4/h4-6H,2-3H2,1H3	InChI=1S/C6H10O2/c1-4-5-2-8-6(5)3-7-4/h4-6H,2-3H2,1H3/t4-,5+,6-/m1/s1
