16
gdb 43841	3.01515	1.59348	1.21053	4.9863	69.69	-0.2488	0.	0.2487	1016.872	0.12526	-437.879688	-437.872586	-437.871642	-437.911238	28.056	
O	-0.0059384695	 0.0312536072	 0.2930829988	-0.344485
C	 0.0223645077	 1.1950598226	 0.021037777	 0.470771
O	-1.1022571685	 1.9108636757	-0.2826766092	-0.265723
C	-0.780189625	 3.2083189292	-0.7806755626	 0.487103
C	-1.5197748333	 3.6669699787	-2.0002606464	-0.337716
C	-1.8266098204	 4.2616855628	-0.6356101292	-0.319089
C	 0.6898487058	 3.4107440181	-0.5740194669	-0.161754
N	 1.0618609034	 3.2755757978	 0.8441983355	-0.331433
C	 1.2081107126	 2.114414919	-0.0796636688	-0.197135
H	-0.987866552	 4.2715402503	-2.7277723425	 0.119392
H	-2.2433551037	 2.9772685173	-2.4189245975	 0.137888
H	-2.7531007477	 3.9626462666	-0.1597154777	 0.14002
H	-1.5058256475	 5.2742717495	-0.4176091609	 0.125068
H	 1.2505128115	 4.0597808271	-1.2365459664	 0.110956
H	 1.9886552468	 3.6745990606	 0.9837319839	 0.243134
H	 2.1833475398	 1.6996603875	-0.296965717	 0.123004
110.5568	178.4272	256.4217	272.9213	380.5169	455.309	509.963	554.7993	640.4626	753.6608	759.0531	822.9944	840.7711	866.9832	878.4646	896.7212	938.4753	952.9229	985.9267	990.8428	1043.4834	1058.2461	1077.521	1114.6619	1137.654	1181.2886	1186.7773	1250.0426	1296.3064	1324.805	1369.5724	1432.0888	1452.2095	1503.1678	1889.1113	3134.0131	3142.0296	3183.3409	3212.1436	3222.8992	3237.0831	3488.1512
O=C1OC2(CC2)C2NC12	O=C1OC2(CC2)[C@H]2N[C@@H]12	
InChI=1S/C6H7NO2/c8-5-3-4(7-3)6(9-5)1-2-6/h3-4,7H,1-2H2	InChI=1S/C6H7NO2/c8-5-3-4(7-3)6(9-5)1-2-6/h3-4,7H,1-2H2/t3-,4+/m1/s1
