17
gdb 26728	3.25866	1.27778	0.92845	3.4551	78.75	-0.2306	-0.0478	0.1828	1226.2442	0.135917	-418.078438	-418.069656	-418.068712	-418.111996	31.441	
C	-0.0101804737	 1.5217256299	 0.1072905219	-0.488713
C	 0.0336386844	 0.0352600376	-0.0192159589	 0.203019
C	-0.0066421902	-0.741792108	-1.1416306342	 0.221905
C	-0.1044352861	-0.4014978609	-2.5906759581	-0.508873
N	 0.0668744005	-2.0652184635	-0.6715066816	-0.111656
C	 0.06346575	-3.2451127349	-1.4113290434	 0.174253
O	 0.1306417201	-4.342105131	-0.9221067349	-0.285548
C	 0.1468831788	-1.9877379932	 0.7102434018	 0.020902
N	 0.1294820621	-0.7598857901	 1.1264027053	-0.317867
H	 0.8893238323	 1.8940706632	 0.6091598099	 0.141199
H	-0.0857969433	 2.0127459958	-0.8658551645	 0.119156
H	-0.8667823117	 1.8331796574	 0.7146677806	 0.141213
H	 0.7604167545	-0.7568822752	-3.1637708685	 0.1385
H	-1.0043661451	-0.8177553264	-3.0591912174	 0.138489
H	-0.1486681141	 0.6829949349	-2.7077330181	 0.145046
H	-0.0075703681	-3.0612518973	-2.4964632177	 0.106326
H	 0.2132708797	-2.8821119783	 1.3092173678	 0.162651
101.9328	109.5545	179.1076	191.2632	202.5415	279.5642	281.4986	302.2993	382.1577	518.9406	635.9768	643.5591	689.9624	737.7389	831.4841	858.2275	954.3534	977.6713	1038.1966	1058.4548	1070.0987	1129.8028	1173.3795	1241.9158	1270.2054	1367.0451	1406.7058	1420.062	1427.7624	1450.827	1474.2073	1483.5727	1490.7336	1494.5355	1551.8595	1659.1045	1822.9508	2999.7765	3023.9791	3037.9819	3069.6777	3091.3544	3122.1459	3130.9052	3275.4748
CC1=C(C)N(C=O)C=N1	Cc1c(C)n(C=O)cn1	
InChI=1S/C6H8N2O/c1-5-6(2)8(4-9)3-7-5/h3-4H,1-2H3	InChI=1S/C6H8N2O/c1-5-6(2)8(4-9)3-7-5/h3-4H,1-2H3
