18
gdb 30146	3.62494	1.15646	1.01206	3.1659	78.32	-0.2124	0.0325	0.2449	1198.8968	0.149026	-401.962228	-401.95405	-401.953106	-401.995578	31.504	
O	-0.1375011178	 0.9415357615	 1.5036050978	-0.431751
C	 0.0470372567	 0.0669689181	 0.4334776659	 0.14174
C	-0.5562069989	-1.3118482957	 0.464235661	-0.324485
C	-1.1109586436	-0.2612734035	-0.4860180214	-0.190344
C	-2.4321112525	 0.3638988233	-0.2215558442	 0.240967
C	-2.7329596837	 1.708493321	-0.3605383707	-0.184949
N	-4.0577376988	 1.8827104483	-0.0516028287	-0.229946
C	-4.6158856009	 0.6793100437	 0.2953599632	-0.071632
C	-3.6354595098	-0.2784605376	 0.2028434319	-0.244773
H	-1.0280408122	 1.309165345	 1.4210610732	 0.278403
H	 1.0302147671	 0.1820477003	-0.0153305282	 0.090414
H	 0.001677902	-2.1437114739	 0.0477522625	 0.104832
H	-1.1553200375	-1.5516922851	 1.3359734854	 0.115735
H	-0.8554828844	-0.3893884207	-1.5351765109	 0.093098
H	-2.1203278483	 2.5354560652	-0.6838839844	 0.127012
H	-4.5410781676	 2.7635053421	-0.0609909842	 0.26423
H	-5.6534823787	 0.6097205954	 0.5798064883	 0.12206
H	-3.752143361	-1.3312647775	 0.4088054235	 0.099389
40.7778	118.4599	168.0214	254.0344	297.9975	376.327	442.784	488.0389	544.106	625.8825	642.5175	696.0092	716.7198	782.3963	802.3152	825.0466	843.4007	903.8892	915.628	978.1498	1016.8207	1056.3025	1063.8472	1092.8348	1100.3676	1119.6348	1150.0794	1163.1252	1228.384	1263.5078	1277.4573	1349.7841	1386.3966	1393.6209	1422.0077	1464.0764	1478.047	1524.5062	1593.6795	3123.3533	3130.4105	3140.9845	3222.2225	3248.6777	3257.8236	3271.1944	3684.9154	3728.384
OC1CC1C1=CNC=C1	O[C@H]1C[C@H]1c1c[nH]cc1	
InChI=1S/C7H9NO/c9-7-3-6(7)5-1-2-8-4-5/h1-2,4,6-9H,3H2	InChI=1S/C7H9NO/c9-7-3-6(7)5-1-2-8-4-5/h1-2,4,6-9H,3H2/t6-,7-/m0/s1
