22
gdb 74845	2.1979	1.70236	1.32403	1.3054	87.4	-0.2223	0.0218	0.2442	1108.7612	0.193889	-367.208504	-367.199347	-367.198403	-367.241488	36.145	
C	 0.0809026497	 1.4875304155	-0.0036831368	-0.498711
C	-0.0152483226	-0.0067814188	-0.0217494035	 0.295454
C	-0.1281447703	-0.77558767	-1.1110856812	-0.1736
C	-0.0809767131	-2.2210027858	-0.7612761297	-0.084896
N	 1.220752276	-2.6048782319	-0.1316012099	-0.34596
C	 0.0555347485	-2.2776148647	 0.71582773	-0.074613
C	 0.0361590481	-0.8447669818	 1.2674789909	 0.204732
C	 1.2822379614	-0.5415179853	 2.1168339733	-0.424231
C	-1.2440331775	-0.6352558139	 2.0995720364	-0.431406
H	 1.0554034497	 1.8220771367	 0.3732906959	 0.131742
H	-0.0472329051	 1.9019127473	-1.0073686892	 0.122225
H	-0.6775049752	 1.9381867834	 0.6481273276	 0.122645
H	-0.1889648998	-0.407463729	-2.1292939929	 0.087159
H	-0.6170019449	-2.9678951584	-1.3372476601	 0.084126
H	 1.3091197777	-3.6199327612	-0.1635405634	 0.222973
H	-0.3943853027	-3.068840731	 1.3084567274	 0.075617
H	 2.1901050931	-0.7416339193	 1.5432652611	 0.137562
H	 1.29578333	 0.5021299488	 2.4481116324	 0.106053
H	 1.2971669443	-1.1709291771	 3.0136638666	 0.105276
H	-1.2339909282	-1.2762996645	 2.9888346119	 0.108509
H	-1.3319333203	 0.4005154954	 2.4421897088	 0.113466
H	-2.1379362191	-0.8759016744	 1.5153627445	 0.115878
118.8197	178.3822	203.2131	229.1095	239.1163	255.9051	271.4653	319.1382	404.8498	455.3075	482.092	569.8121	619.0323	667.5486	730.851	811.8358	840.9712	855.8714	884.7825	915.9214	946.0496	959.6933	983.4267	1015.4016	1031.0181	1065.3354	1078.9689	1123.8253	1128.7639	1172.3627	1191.5657	1231.1852	1246.6775	1267.5558	1318.9521	1371.8159	1389.9253	1402.9681	1411.0336	1422.4255	1474.1889	1485.2873	1487.1099	1492.7046	1502.0879	1510.8196	1698.1367	3020.7993	3024.9861	3032.4639	3067.572	3089.9125	3093.8544	3104.8248	3109.54	3126.9812	3147.7983	3166.3483	3191.2663	3467.6363
CC1=CC2NC2C1(C)C	CC1=C[C@H]2N[C@H]2C1(C)C	
InChI=1S/C8H13N/c1-5-4-6-7(9-6)8(5,2)3/h4,6-7,9H,1-3H3	InChI=1S/C8H13N/c1-5-4-6-7(9-6)8(5,2)3/h4,6-7,9H,1-3H3/t6-,7-/m1/s1
