16
gdb 78153	2.23102	1.74152	1.26394	1.3558	70.23	-0.2497	-0.0425	0.2072	1016.6107	0.12327	-437.892405	-437.884385	-437.883441	-437.925312	29.796	
C	-0.2829184416	 1.4591449709	-0.0597245853	-0.329851
N	 0.0795725419	 0.0508460515	 0.067302222	-0.082387
C	 1.3685849428	-0.5141685198	-0.2869410563	-0.153159
C	 0.8688616681	-0.5134906604	 1.1465782935	-0.153158
C	 1.7553486203	 0.4178529433	 1.9407767973	 0.409899
O	 1.7515197673	 0.5149041652	 3.1410256044	-0.307851
C	 2.7036971195	 1.1404300076	 0.9815552153	-0.471042
C	 2.5569429076	 0.4167810303	-0.3587366931	 0.409896
O	 3.3001202851	 0.5128034805	-1.3013378536	-0.30785
H	 0.4870718348	 2.1932201357	 0.2082302762	 0.117112
H	-0.5735662998	 1.635610514	-1.0988615165	 0.146152
H	-1.1563767158	 1.6364505522	 0.5735642214	 0.146153
H	 1.3588558899	-1.387422704	-0.9325354679	 0.122711
H	 0.459642136	-1.3862012563	 1.6469535426	 0.122711
H	 2.4789171259	 2.2102694902	 0.9026991636	 0.162904
H	 3.7347713981	 1.0652841792	 1.3410188765	 0.16776
84.423	109.7134	128.2577	251.1729	347.0995	373.1228	394.2245	485.2829	539.8228	570.2508	597.2272	658.7466	703.6793	805.9619	821.2167	905.4136	953.9866	971.9189	1060.2107	1061.0227	1126.1669	1159.0119	1163.856	1177.8497	1229.1155	1230.2448	1279.4412	1292.4743	1369.5171	1408.9609	1458.8467	1497.0638	1500.3737	1823.3195	1856.0435	3021.217	3052.0474	3092.1588	3100.4561	3123.3355	3158.7377	3166.0975
CN1C2C1C(=O)CC2=O	CN1[C@@H]2[C@H]1C(=O)CC2=O	
InChI=1S/C6H7NO2/c1-7-5-3(8)2-4(9)6(5)7/h5-6H,2H2,1H3	InChI=1S/C6H7NO2/c1-7-5-3(8)2-4(9)6(5)7/h5-6H,2H2,1H3/t5-,6+,7?
