15
gdb 44666	3.19139	1.81502	1.59514	2.6537	67.99	-0.2361	-0.0361	0.2	854.6958	0.11561	-416.804142	-416.798022	-416.797077	-416.834636	24.796	
O	-0.0400091583	 0.0698550467	 0.1448627948	-0.310387
C	-0.0246079799	 1.2718200032	 0.1330477538	 0.401214
C	-1.2671661155	 2.2004507689	 0.163866331	-0.297577
N	-0.6999039736	 3.5268386739	 0.5074501165	-0.117379
C	-0.3898611193	 3.544896281	 1.9003448333	 0.025345
N	 0.8344669826	 3.4489371841	 2.2368904168	-0.205269
C	 1.5503644071	 3.3093298308	 0.9856648907	-0.007362
C	 0.6287761896	 3.5789454217	-0.1474162288	-0.074557
C	 1.1728994308	 2.1710101872	-0.0159185259	-0.188026
H	-1.73767276	 2.2297454284	-0.8249224063	 0.140361
H	-2.0107534639	 1.8650041871	 0.8902009145	 0.141622
H	-1.2106076069	 3.5967158373	 2.6084368371	 0.138844
H	 2.5955379058	 3.5901533544	 0.98639826	 0.119473
H	 0.7641350929	 4.2411953162	-0.9940156661	 0.111611
H	 1.9988832184	 1.797972789	-0.6087085014	 0.122088
115.8324	251.5175	382.1808	430.5316	487.6291	602.5207	646.3416	688.5155	727.5741	758.1906	819.608	833.9186	853.737	886.1036	931.3356	979.3558	995.2125	997.9906	1049.9926	1076.8066	1085.1575	1105.9933	1124.6865	1175.2171	1247.4675	1273.855	1284.9976	1311.5984	1332.6002	1349.3845	1473.4743	1667.0768	1842.3179	3051.3946	3120.1612	3178.5721	3197.5589	3200.0984	3210.2723
O=C1CN2C=NC3C2C13	O=C1CN2[CH][N][C@@H]3[C@H]2[C@H]13	
InChI=1S/C6H6N2O/c9-3-1-8-2-7-5-4(3)6(5)8/h2,4-6H,1H2	InChI=1S/C6H6N2O/c9-3-1-8-2-7-5-4(3)6(5)8/h2,4-6H,1H2/t4-,5+,6-/m1/s1
