15
gdb 13047	4.27365	1.37689	1.0954	3.7291	64.69	-0.2448	-0.0417	0.2031	1047.9916	0.117426	-399.795748	-399.787799	-399.786855	-399.829183	27.6	
N	-0.0713057985	 1.2631894534	 0.0062891086	-0.437159
C	-0.1072551665	 0.0217757342	-0.2072062235	 0.130386
O	-1.0415897445	-0.7329707541	 0.4222186727	-0.192321
C	-1.0354227287	-2.1098715455	 0.1282631896	 0.030686
C	-2.2102886232	-2.9208086477	 0.7311443722	-0.267162
C	-2.4105744095	-3.6570920659	-0.6302031829	-0.344717
C	-1.5296499361	-2.5704284993	-1.2675620997	 0.375018
O	-1.3850603652	-2.1311773526	-2.3693023046	-0.28445
H	 0.6809467857	 1.6860591998	-0.5334505104	 0.232729
H	 0.5499392835	-0.5537499908	-0.8693962477	 0.102402
H	-0.0619914824	-2.5656712665	 0.3616098515	 0.108209
H	-1.9767821734	-3.5352399015	 1.5999088885	 0.121049
H	-3.0442115471	-2.2565401008	 0.9641665889	 0.142062
H	-1.9349036222	-4.6421028535	-0.669489145	 0.139621
H	-3.424327242	-3.7423549892	-1.0260549383	 0.143648
61.0753	83.8327	95.1665	183.9535	241.2143	389.9791	410.4129	545.7607	587.1768	689.9412	767.891	772.8788	821.2514	919.6701	939.7176	1010.3596	1033.4145	1036.9774	1075.0847	1101.9279	1177.1308	1190.8621	1227.156	1248.9345	1265.0692	1285.2082	1362.5428	1427.3628	1443.4371	1487.3282	1747.3605	1897.3221	3000.3377	3056.4572	3065.4089	3092.9138	3125.7398	3155.3201	3520.5009
N=COC1CCC1=O	[NH][CH]O[C@H]1CCC1=O	
InChI=1S/C5H7NO2/c6-3-8-5-2-1-4(5)7/h3,5-6H,1-2H2	InChI=1S/C5H7NO2/c6-3-8-5-2-1-4(5)7/h3,5-6H,1-2H2/t5-/m0/s1
