19
gdb 103291	2.2308	1.6879	1.1972	3.2231	71.	-0.2417	0.0575	0.2992	1075.9266	0.158712	-460.117124	-460.108365	-460.107421	-460.150133	34.31	
O	 0.4526259577	 0.4936129447	 0.7332924548	-0.440347
C	-0.1577621196	 0.3398796714	-0.5415893502	-0.153458
C	-1.4882367502	-0.3717199647	-0.4014376637	 0.426812
O	-2.4826353533	 0.4585834533	 0.1439333656	-0.485802
C	-2.0600899715	-1.3828762835	-1.3371408133	-0.116715
C	-0.9710227329	-2.2812824023	-1.9363135112	-0.299961
C	-0.5669015708	-2.7207495078	-0.4792626315	 0.086433
O	 0.7367629185	-2.427401305	 0.0083959865	-0.433341
C	-1.6281573295	-1.8041025703	 0.0884201796	-0.137872
H	 0.7537580554	-0.3932689222	 0.9728139218	 0.29268
H	-0.3457497699	 1.3483891701	-0.9246042639	 0.108707
H	 0.5106611994	-0.173577376	-1.238845853	 0.091475
H	-2.1030481094	 0.8169640095	 0.9564400761	 0.288393
H	-3.0676736944	-1.2727856411	-1.7171935028	 0.100559
H	-1.3817263645	-3.1158725204	-2.5088670889	 0.107762
H	-0.1950953546	-1.794727574	-2.534114802	 0.103627
H	-0.8004189394	-3.7792477176	-0.3119049168	 0.082446
H	 1.3672581147	-3.0346629252	-0.3918007419	 0.288508
H	-2.2474049759	-2.001497969	 0.9542261545	 0.090095
87.9204	154.6328	190.8212	242.831	272.4083	296.2799	388.0254	406.3951	434.0166	453.0898	523.5263	542.4264	604.6983	660.5653	773.7649	824.3181	856.2339	891.387	939.8267	965.3261	994.5264	1012.6333	1015.0007	1044.4708	1065.5902	1090.5815	1137.484	1169.4623	1186.5443	1228.4431	1253.0127	1257.0513	1292.5376	1307.2428	1332.1013	1385.7229	1412.0929	1436.1456	1471.7639	1484.6938	1496.8872	3023.6463	3046.3336	3059.0229	3093.0688	3112.05	3191.3963	3201.6912	3763.7138	3775.0965	3817.8164
OCC1(O)C2CC(O)C12	OC[C@@]1(O)[C@H]2C[C@@H](O)[C@@H]12	
InChI=1S/C6H10O3/c7-2-6(9)3-1-4(8)5(3)6/h3-5,7-9H,1-2H2	InChI=1S/C6H10O3/c7-2-6(9)3-1-4(8)5(3)6/h3-5,7-9H,1-2H2/t3-,4+,5-,6+/m0/s1
