16
gdb 52630	2.23533	1.01727	0.92668	5.7591	79.46	-0.2664	-0.0481	0.2183	1386.295	0.119943	-400.742108	-400.731548	-400.730604	-400.779478	35.155	
C	-0.0239362793	 1.4800887759	-0.0071991228	-0.500061
C	-0.0043485484	 0.0258605256	 0.0240674872	 0.055866
C	 0.0143509525	-1.1766023752	 0.0750844427	 0.090769
C	 0.0506077371	-2.6400945616	 0.0614577472	-0.202666
C	-1.3776773829	-3.2367864923	-0.0977350095	-0.415255
C	 0.869537604	-3.0658329542	-1.1891103251	 0.17145
O	 1.8151988326	-3.7957254204	-1.1773825071	-0.220825
C	 0.6765092693	-3.163595672	 1.2857068682	 0.315343
N	 1.1376555565	-3.5803552352	 2.2583686508	-0.331137
H	 0.8055867332	 1.8727687382	-0.6044433162	 0.160648
H	-0.9577250457	 1.8549472958	-0.439050203	 0.157112
H	 0.0676701133	 1.8910148613	 1.0036391365	 0.164982
H	-1.8146343789	-2.8906145294	-1.0378967698	 0.13903
H	-1.3328393212	-4.3284761421	-0.0964518649	 0.151619
H	-2.011142144	-2.9016959258	 0.7251924984	 0.157318
H	 0.4632711321	-2.6106704485	-2.1171024826	 0.105808
22.6897	56.9893	84.6093	122.8526	152.7856	202.8474	231.55	292.5657	299.9527	314.4332	407.3843	469.2667	484.6503	532.7107	607.2508	724.0197	842.4062	900.5455	989.7515	1049.3235	1050.7181	1057.4897	1094.9138	1182.3207	1252.8968	1393.8717	1410.155	1413.3307	1473.9808	1475.0754	1483.5597	1492.4549	1853.3076	2367.8833	2372.0122	2914.442	3034.7538	3053.131	3099.4603	3100.7214	3136.1548	3147.526
CC#CC(C)(C=O)C#N	CC#C[C@@](C)(C=O)C#N	
InChI=1S/C7H7NO/c1-3-4-7(2,5-8)6-9/h6H,1-2H3	InChI=1S/C7H7NO/c1-3-4-7(2,5-8)6-9/h6H,1-2H3/t7-/m1/s1
