21
gdb 37454	2.65699	1.98981	1.69615	0.3024	82.92	-0.2344	0.0751	0.3096	925.17	0.187485	-349.937648	-349.931211	-349.930267	-349.967964	28.593	
C	 0.0301903883	 1.5147959457	 0.1142116149	-0.306162
C	 1.3192888516	 0.7295702811	 0.0932565365	-0.025958
C	-0.001633147	 0.0030508412	 0.0298368918	-0.039406
C	-0.0783617909	-0.7009148089	-1.3463113147	-0.048719
C	-0.8378339207	 0.1217348135	-2.4202804695	-0.206548
C	 0.2035911222	 1.1109813829	-3.0174650236	-0.243503
C	 1.5646166507	 0.5451218998	-2.6163453495	-0.040945
C	 2.0722310073	 0.3925933501	-1.1795535401	-0.0552
C	 1.3817207338	-0.7558236326	-1.8785976114	-0.083532
H	-0.2527358163	 1.948821729	 1.0688527567	 0.102502
H	-0.2590567316	 2.120321145	-0.7322324127	 0.113763
H	 1.9167972156	 0.7217609979	 0.9991709466	 0.076057
H	-0.3848056827	-0.5371730872	 0.8891137783	 0.076408
H	-0.5146758631	-1.6951479487	-1.2289051656	 0.065071
H	-1.1851483314	-0.5519729939	-3.210764777	 0.093094
H	-1.7208945325	 0.62092288	-2.0112171809	 0.096924
H	 0.136190838	 1.1267236999	-4.1104565083	 0.092931
H	 0.0510868416	 2.1444891213	-2.6939731069	 0.105248
H	 2.3620780043	 0.6349305073	-3.3481504464	 0.076648
H	 3.1545913574	 0.4009488807	-1.0996070416	 0.077351
H	 1.8565467753	-1.6903860941	-2.1552151266	 0.073975
192.4453	252.9716	297.4397	438.7622	530.5977	592.3588	663.9456	671.7698	717.7857	729.195	767.924	797.6433	812.8151	850.6735	858.662	905.4397	917.9588	947.531	976.488	1001.1055	1007.1219	1029.4822	1041.1056	1057.984	1067.1966	1077.4748	1101.3687	1105.4351	1111.2244	1169.8671	1181.2959	1216.2962	1220.2253	1266.389	1277.9354	1288.939	1318.8103	1324.8021	1356.8295	1363.4543	1381.1975	1410.5398	1482.8311	1491.9835	1522.1432	3037.6138	3050.1032	3072.9365	3083.4101	3095.2561	3135.9927	3141.5608	3148.0909	3156.1631	3162.8369	3172.4015	3244.6621
C1C2C1C1CCC3C2C13	C1[C@H]2[C@@H]1[C@H]1CC[C@H]3[C@@H]2[C@@H]13	
InChI=1S/C9H12/c1-2-5-8-4(1)6-3-7(6)9(5)8/h4-9H,1-3H2	InChI=1S/C9H12/c1-2-5-8-4(1)6-3-7(6)9(5)8/h4-9H,1-3H2/t4-,5-,6+,7+,8+,9+/m1/s1
