20
gdb 94218	3.15153	1.07548	0.9756	3.2816	79.38	-0.2743	0.0237	0.298	1289.8473	0.169636	-403.1622	-403.152641	-403.151697	-403.1966	35.683	
C	-0.0403412525	 1.5568765817	-0.0745103886	-0.410318
C	 0.0698814757	 0.0426559322	-0.0080243762	 0.009346
C	 1.0988529676	-0.6984141552	-0.9087094839	-0.236639
C	 1.3915813385	-1.6640000182	 0.2709879329	-0.267279
C	 0.7553842203	-0.6157795364	 1.2289126321	 0.388526
O	 1.7097577277	 0.2871823554	 1.7503652895	-0.477938
C	-0.1745206707	-1.1183103666	 2.3524083762	-0.394853
C	 0.590079799	-1.7897304959	 3.4011318821	 0.244398
N	 1.254081389	-2.2998945928	 4.1984977036	-0.31008
H	 0.9294904434	 2.0241349178	 0.1103688763	 0.138012
H	-0.393980369	 1.8696192592	-1.0628741607	 0.113879
H	-0.7469280944	 1.9440297158	 0.6678708639	 0.112559
H	-0.9180403615	-0.4151288972	-0.1382594472	 0.069782
H	 0.7271780544	-1.1366425375	-1.8369986457	 0.099639
H	 1.9591479041	-0.0637661021	-1.134653148	 0.114827
H	 0.8025258684	-2.5838525135	 0.2131491287	 0.102403
H	 2.4332085277	-1.9237487373	 0.4731800401	 0.106878
H	 2.2942613663	-0.2005186784	 2.3435025863	 0.293617
H	-0.7024135997	-0.2646603894	 2.7921533448	 0.157475
H	-0.9251674841	-1.8086130317	 1.9542900139	 0.145766
65.51	108.382	113.3109	201.6152	235.9925	257.8189	339.2802	363.5639	386.945	398.6428	424.9709	470.6413	557.3053	648.5521	736.1492	789.4141	888.8955	890.6725	915.1586	932.4729	950.7276	978.0524	1000.9206	1056.0246	1121.6715	1136.0977	1164.9206	1192.7516	1218.3377	1251.4972	1266.1998	1286.3221	1293.2096	1313.1665	1356.8315	1392.9464	1409.0851	1454.3596	1471.2854	1490.3613	1491.8557	1501.4964	2354.2424	3031.1762	3036.9752	3048.1785	3058.7858	3069.0741	3093.3842	3094.7004	3110.6931	3126.7682	3130.887	3783.4942
CC1CCC1(O)CC#N	C[C@H]1CC[C@]1(O)CC#N	
InChI=1S/C7H11NO/c1-6-2-3-7(6,9)4-5-8/h6,9H,2-4H2,1H3	InChI=1S/C7H11NO/c1-6-2-3-7(6,9)4-5-8/h6,9H,2-4H2,1H3/t6-,7-/m0/s1
