18
gdb 133532	2.31472	1.49384	1.31955	2.0555	63.95	-0.3091	0.0864	0.3955	1047.5317	0.143466	-533.462717	-533.453927	-533.452983	-533.496321	33.007	
C	-0.3041921255	 1.6413679728	 0.0332512354	-0.476642
C	 0.0508518936	 0.1574276356	 0.0264847288	 0.181484
C	 1.2268607514	-0.29091754	-0.9009616206	-0.265809
C	 1.8467482625	-1.0864049392	 0.2797289695	-0.207801
C	 0.8548435805	-0.3900560852	 1.2504590924	-0.265829
C	-1.197883395	-0.668763447	-0.2274477129	 0.264287
F	-1.7612298168	-0.3663088837	-1.4106846924	-0.08778
F	-0.9407785127	-1.9908911323	-0.2443488217	-0.091832
F	-2.1293542875	-0.4651071143	 0.7211453148	-0.087792
H	 0.5937568772	 2.2376679507	 0.2168953032	 0.117029
H	-0.728970966	 1.9493403576	-0.9268431652	 0.131684
H	-1.0323559233	 1.8689454763	 0.8174959877	 0.131682
H	 0.9542894055	-0.8552472556	-1.7949405324	 0.116381
H	 1.8325383415	 0.5660897108	-1.2055768781	 0.103454
H	 1.666270234	-2.159383359	 0.1990957817	 0.117597
H	 2.9092258483	-0.92429098	 0.4709087809	 0.100041
H	 1.3100669995	 0.4268072775	 1.8157916079	 0.103459
H	 0.307161253	-1.027753775	 1.947124761	 0.116387
66.4397	116.5882	196.4166	217.6011	228.6207	311.2334	311.7171	370.5458	432.7954	512.0956	572.3083	578.3056	663.2209	735.0675	779.7916	828.2617	876.6177	920.2572	951.4278	970.4871	993.5173	1067.59	1150.4415	1160.0932	1168.1407	1195.1439	1219.0154	1227.2842	1230.5517	1260.3427	1282.1049	1298.3205	1368.1928	1408.2831	1474.4371	1479.096	1491.754	1497.7686	1506.9298	3041.2065	3065.3789	3068.023	3078.3691	3111.7252	3115.2241	3117.1503	3120.7861	3137.524
CC1(CCC1)C(F)(F)F	CC1(CCC1)C(F)(F)F	
InChI=1S/C6H9F3/c1-5(3-2-4-5)6(7,8)9/h2-4H2,1H3	InChI=1S/C6H9F3/c1-5(3-2-4-5)6(7,8)9/h2-4H2,1H3
