17
gdb 30026	3.2273	1.6948	1.1841	3.9696	81.75	-0.2021	-0.0204	0.1817	1021.7137	0.139409	-380.922079	-380.915043	-380.914098	-380.953457	27.755	
C	-0.0701387514	 1.5709852967	 0.0367398457	-0.389799
C	-0.0025102452	 0.0399312889	 0.0005186471	-0.051558
C	 0.7913055362	-0.5215515976	-1.1695760887	-0.101885
C	 1.8315246966	-1.2578604079	-0.7409675175	-0.222562
C	 1.8311392141	-1.2770397342	 0.7090496626	 0.317847
C	 2.4383727298	-1.7171873495	 1.8623553363	-0.214428
N	 1.7540626252	-1.2440524733	 2.9595036691	-0.277435
C	 0.7490974314	-0.5309951604	 2.4842306934	-0.01046
N	 0.7513745991	-0.5204763789	 1.1253547508	-0.023421
H	 0.9361906334	 1.9975282675	 0.0395883575	 0.138533
H	-0.6063868354	 1.9440239246	-0.8407759827	 0.126306
H	-0.5994726904	 1.9159248383	 0.9300404683	 0.127303
H	-1.0230726643	-0.366878368	 0.0035077995	 0.11417
H	 0.5177788289	-0.3156333754	-2.1954370949	 0.10997
H	 2.5591900736	-1.7638378263	-1.3597087021	 0.120144
H	 3.3133300243	-2.3389988487	 1.9709880554	 0.109321
H	 0.0074170641	-0.0186590757	 3.07823726	 0.127954
126.982	160.8736	242.9823	295.5831	364.7772	473.5782	543.2842	658.1562	664.6225	686.3738	717.561	769.1228	803.0465	809.534	827.8107	906.6214	940.9101	953.8937	1020.5884	1077.5785	1090.3255	1116.6523	1133.9242	1185.2736	1245.1933	1252.7519	1302.7058	1330.9236	1352.1761	1362.9964	1401.9198	1408.1545	1491.9466	1493.9502	1494.7546	1586.2274	1624.488	3014.2262	3042.8034	3115.2062	3129.2453	3222.5619	3245.4122	3250.8038	3255.0393
CC1C=CC2=CN=CN12	C[C@H]1C=Cc2cncn12	
InChI=1S/C7H8N2/c1-6-2-3-7-4-8-5-9(6)7/h2-6H,1H3	InChI=1S/C7H8N2/c1-6-2-3-7-4-8-5-9(6)7/h2-6H,1H3/t6-/m0/s1
