19
gdb 51652	3.62993	1.10938	1.05805	4.0143	75.78	-0.2282	0.0243	0.2525	1194.4679	0.161452	-419.211988	-419.203888	-419.202944	-419.245218	30.756	
O	-0.1663496098	 0.4947986029	 0.7911842366	-0.326652
C	 0.2165966894	 1.6261647704	 0.5756526313	 0.150515
N	 1.4824972591	 1.9514090434	 0.2048852231	-0.275598
C	 2.4888299751	 0.9270117899	-0.0768610984	 0.020532
C	 3.7356385876	 1.5320202866	-0.7589858947	-0.274909
C	 4.7499640255	 1.7062923734	 0.3620547921	-0.009145
C	 4.3104364279	 2.3488258144	 1.6287629818	-0.249164
N	 4.3685669379	 0.8831655765	 1.5249087529	-0.089961
C	 3.0739425349	 0.2574700008	 1.20035352	-0.16446
H	-0.4352346838	 2.5181447745	 0.6671911847	 0.076011
H	 1.6780017393	 2.9100791431	-0.0366692805	 0.24672
H	 2.0086095028	 0.1692768015	-0.7013843677	 0.107998
H	 4.1294128453	 0.826445534	-1.4971337678	 0.12164
H	 3.5109692482	 2.4592680322	-1.2975920051	 0.104021
H	 5.8031342208	 1.7126758626	 0.0953564814	 0.0929
H	 5.0517409474	 2.7815330913	 2.2948814939	 0.118023
H	 3.3367471167	 2.8285540152	 1.6678980997	 0.10671
H	 2.3837981495	 0.3155300919	 2.0442316424	 0.131436
H	 3.2643575561	-0.8011341144	 0.9959976942	 0.113384
48.7841	124.259	182.9345	234.9078	279.4867	371.2441	407.5913	410.8744	512.7713	658.0798	730.1323	739.6074	782.3344	836.9331	879.3353	882.0993	925.2123	975.9314	1001.9155	1012.0058	1029.8389	1071.6222	1100.5717	1111.2097	1131.2105	1166.7971	1189.4986	1209.7672	1244.6078	1261.5156	1290.9749	1329.515	1338.7943	1390.9183	1397.9976	1426.458	1483.5761	1490.7161	1501.1738	1516.5938	1798.4689	2931.697	3044.2174	3053.043	3072.4938	3086.0672	3112.0691	3120.4484	3145.9111	3196.5618	3628.6811
O=CNC1CC2CN2C1	O=CN[C@H]1C[C@H]2CN2C1	
InChI=1S/C6H10N2O/c9-4-7-5-1-6-3-8(6)2-5/h4-6H,1-3H2,(H,7,9)	InChI=1S/C6H10N2O/c9-4-7-5-1-6-3-8(6)2-5/h4-6H,1-3H2,(H,7,9)/t5-,6-,8?/m0/s1
