16
gdb 75995	2.13646	1.61714	1.04874	2.6664	71.28	-0.244	0.0019	0.246	1131.5089	0.124231	-434.088851	-434.079523	-434.078579	-434.123435	32.303	
C	-0.0301613438	 1.418069987	-0.0446278268	-0.35478
N	-0.0189102704	-0.0239285715	-0.015611984	-0.062064
C	-1.1076758564	-0.997578441	-0.0829172782	-0.166036
C	-1.8839819573	-0.9416334038	-1.3220143321	 0.311204
N	-2.4799816146	-0.8720851046	-2.3097214687	-0.325825
C	-0.0022687647	-2.1314798499	-0.0273027923	-0.131221
N	-0.0321489646	-3.1332895376	-1.0548676015	-0.504972
C	 1.0084334668	-0.9419828046	-0.0557934562	 0.387729
O	 2.2016390701	-0.8118894042	-0.1014382049	-0.363814
H	 1.0102378064	 1.7505378214	-0.0624961159	 0.168749
H	-0.5398518424	 1.7928695833	-0.939327404	 0.150002
H	-0.5218812201	 1.8333209014	 0.8424868906	 0.136288
H	-1.7899341046	-0.9747924654	 0.7741552667	 0.129169
H	-0.0078814243	-2.6193188049	 0.9510712974	 0.123673
H	 0.1626816489	-2.7393276421	-1.9700080455	 0.250334
H	 0.664767971	-3.8469332237	-0.8747830946	 0.251566
71.157	95.8338	134.4029	153.1786	192.8468	238.835	244.1173	274.2103	377.2584	458.9697	534.7883	606.6072	667.7538	767.7602	778.404	826.7025	864.9632	943.6075	1038.6586	1047.7401	1130.9759	1148.4173	1182.4415	1216.0006	1234.2558	1279.5204	1355.4876	1397.8727	1425.5255	1450.9106	1481.9425	1514.8389	1666.0776	1884.8366	2356.4016	3025.2014	3048.3969	3083.5937	3086.4622	3135.2301	3512.1161	3597.0024
CN1C(C#N)C(N)C1=O	CN1[C@@H](C#N)[C@@H](N)C1=O	
InChI=1S/C5H7N3O/c1-8-3(2-6)4(7)5(8)9/h3-4H,7H2,1H3	InChI=1S/C5H7N3O/c1-8-3(2-6)4(7)5(8)9/h3-4H,7H2,1H3/t3-,4+/m0/s1
