21
gdb 57805	4.26568	0.59019	0.5434	1.7487	88.72	-0.2475	0.0423	0.2899	2084.4953	0.18047	-387.048875	-387.038319	-387.037375	-387.087062	37.615	
C	 0.1244819011	 1.5287908568	-0.1040635605	-0.381133
C	 0.0068391549	 0.0011694331	 0.0026294107	-0.013728
O	 0.5813514715	-0.6454074744	-1.1332541724	-0.415855
C	 0.5769103712	-0.497622481	 1.2582693315	 0.090585
C	 1.0923200586	-0.8905868712	 2.2745092289	 0.02709
C	 1.6875911958	-1.4048761881	 3.5059575755	-0.379299
C	 1.9251008363	-2.9082295512	 3.476401744	 0.048354
C	 3.195503944	-3.46250545	 2.8902235487	-0.24727
C	 2.962256773	-3.5192436977	 4.3816338194	-0.278742
H	 1.1746763433	 1.8350710862	-0.0607377977	 0.114479
H	-0.3003040888	 1.8609560912	-1.0550419334	 0.122898
H	-0.4067628155	 2.019065366	 0.7170732247	 0.122322
H	-1.0552267737	-0.2704144717	-0.0404381757	 0.113803
H	 1.5385224732	-0.5998881263	-1.0321755674	 0.280663
H	 2.6406187598	-0.8936231697	 3.6985047738	 0.121261
H	 1.0356222185	-1.1513271454	 4.3531642736	 0.130411
H	 1.0242842568	-3.4901960295	 3.3067269827	 0.094763
H	 3.1435087278	-4.384921242	 2.3229839096	 0.114625
H	 3.9320757461	-2.7565189454	 2.5201056378	 0.111216
H	 3.543604403	-2.8522897274	 5.0105163887	 0.110009
H	 2.748529203	-4.4800194522	 4.8364752475	 0.113545
9.3448	52.1623	75.9068	141.2135	162.1988	253.9967	263.1421	293.7124	329.6473	356.6425	397.448	454.8985	540.9453	585.8658	730.2905	771.0797	800.088	842.1179	892.2375	895.5749	952.0775	997.9322	1015.2657	1057.9821	1067.9398	1079.377	1093.9974	1136.5349	1147.4169	1173.0426	1197.1867	1227.3424	1263.4242	1279.0441	1322.3723	1341.3413	1397.7031	1408.1937	1417.5493	1464.4107	1472.8324	1487.6687	1491.7802	1507.8043	2358.3538	3008.0937	3033.1649	3037.3461	3038.7825	3113.6441	3125.4654	3129.1095	3134.0535	3154.8689	3207.3179	3222.5207	3805.7304
CC(O)C#CCC1CC1	C[C@@H](O)C#CCC1CC1	
InChI=1S/C8H12O/c1-7(9)3-2-4-8-5-6-8/h7-9H,4-6H2,1H3	InChI=1S/C8H12O/c1-7(9)3-2-4-8-5-6-8/h7-9H,4-6H2,1H3/t7-/m1/s1
