21
gdb 118707	3.22631	1.16077	0.98522	1.8665	79.21	-0.2319	0.0807	0.3126	1287.1798	0.180243	-424.151551	-424.142315	-424.141371	-424.186041	34.833	
C	 0.116765423	 1.5341870906	 0.0905524806	-0.38439
C	 0.0940842738	 0.0205504183	-0.0411821313	-0.054638
O	 0.4516716082	-0.5356194786	 1.2162856393	-0.306297
C	 0.646850047	-1.9267998762	 1.2419820401	 0.460869
C	-0.6312591216	-2.7143572106	 0.9988002971	-0.480826
C	 1.9917354761	-2.4974114892	 0.6505163879	-0.015939
C	 2.7889048477	-1.7118268503	 1.7184045813	-0.232169
C	 1.5807066605	-2.3977011635	 2.3977693654	-0.010916
O	 1.8724572225	-3.6175665394	 1.6110101223	-0.312745
H	 1.1166541083	 1.8844053148	 0.362094539	 0.125302
H	-0.1719807183	 2.0031802787	-0.8549033121	 0.115586
H	-0.5817431617	 1.8595532219	 0.8667438634	 0.129027
H	-0.9065752533	-0.3178116257	-0.3462626804	 0.097579
H	 0.8020254795	-0.3105046996	-0.8174258953	 0.089147
H	-0.9934766383	-2.583868139	-0.0256805354	 0.116001
H	-0.4546467606	-3.7764018194	 1.1653047804	 0.146268
H	-1.4149256594	-2.3642830727	 1.6782190555	 0.12065
H	 2.2600855812	-2.7521759379	-0.3758336152	 0.087773
H	 3.7530024144	-2.1542335563	 1.9693659573	 0.104824
H	 2.8004895074	-0.6245442561	 1.6671823845	 0.113175
H	 1.3512583736	-2.52446508	 3.4565192355	 0.091717
47.6471	74.6854	152.1468	210.764	240.3646	266.4043	315.5306	363.6061	407.9354	442.1051	540.0042	635.2034	684.3639	758.1158	817.1558	827.2339	871.3878	879.3446	893.1638	923.4124	971.219	1019.4646	1019.7942	1087.5702	1107.4652	1110.7187	1138.3529	1161.2298	1173.7909	1186.382	1203.9201	1213.1514	1214.8065	1275.4565	1298.9402	1313.8429	1394.6461	1400.4719	1425.0617	1470.865	1483.1866	1490.4042	1498.576	1504.208	1528.3566	2976.9946	3014.4243	3044.4339	3046.4612	3091.2367	3104.381	3106.2931	3117.0401	3119.0151	3121.5361	3158.5392	3174.6302
CCOC1(C)C2CC1O2	CCO[C@@]1(C)[C@H]2C[C@@H]1O2	
InChI=1S/C7H12O2/c1-3-8-7(2)5-4-6(7)9-5/h5-6H,3-4H2,1-2H3	InChI=1S/C7H12O2/c1-3-8-7(2)5-4-6(7)9-5/h5-6H,3-4H2,1-2H3/t5-,6+,7+
