23
gdb 84005	2.00277	1.55513	1.3242	1.324	84.81	-0.2381	0.0794	0.3175	1155.9694	0.207257	-388.296092	-388.287088	-388.286144	-388.329114	35.891	
C	-0.3967696231	 1.4657068717	-0.1192743996	-0.425449
C	-0.0611583879	-0.0030797444	 0.0186212021	-0.073806
C	 1.302592575	-0.6125230155	-0.3106545222	-0.087593
C	 2.5137925535	 0.2408198492	-0.68271827	-0.227733
C	 3.4100462845	 0.551578876	 0.5264426798	-0.184905
C	 2.5985102194	 1.1568757136	 1.6767195201	-0.206956
C	 1.5212694765	 0.178017659	 2.1838528734	-0.277848
C	 0.7903898947	-0.6150027248	 1.105824464	 0.382717
O	 0.371376513	-1.8884907125	 1.5521971646	-0.468001
H	 0.4379736223	 2.1239424786	 0.128305378	 0.121952
H	-0.698677769	 1.6982438546	-1.1472196545	 0.117908
H	-1.2318656453	 1.7389487171	 0.5359040846	 0.113243
H	-0.8846884378	-0.6565289387	-0.2595926168	 0.0817
H	 1.2485304322	-1.5805875916	-0.7979759644	 0.09136
H	 3.0955850046	-0.2815447787	-1.4486563178	 0.097314
H	 2.192747154	 1.1838737909	-1.1430581134	 0.097258
H	 3.8901916124	-0.3741947247	 0.8706072352	 0.097942
H	 4.2149400576	 1.2336415562	 0.2299578376	 0.088095
H	 3.2566171414	 1.4178589066	 2.5129223697	 0.093665
H	 2.1473542264	 2.0996884082	 1.3456641075	 0.10013
H	 2.011603052	-0.577688765	 2.8087975608	 0.109846
H	 0.806582301	 0.7010311879	 2.8338586064	 0.08504
H	-0.3670380876	-1.7559028537	 2.1574067749	 0.27412
118.0051	142.7762	198.5793	228.3781	244.2742	302.7973	327.9607	386.5426	436.6558	440.7837	482.9461	539.3229	579.1093	681.2027	763.9268	793.9594	854.5994	870.2314	915.6394	925.7212	952.8325	988.6789	1022.0552	1055.5932	1080.0722	1084.4955	1113.3312	1125.29	1149.0583	1185.9482	1191.7682	1215.667	1266.2539	1288.0746	1301.9907	1338.4527	1356.1422	1363.8555	1368.9743	1376.7855	1387.7001	1418.0162	1457.1207	1485.5904	1486.9477	1492.2247	1505.0464	1506.3374	1512.5997	3009.4566	3017.6368	3025.2665	3029.8609	3033.4875	3051.166	3064.2612	3069.74	3075.6047	3080.0253	3122.6216	3138.69	3158.8284	3788.2254
CC1C2CCCCC12O	C[C@H]1[C@H]2CCCC[C@@]12O	
InChI=1S/C8H14O/c1-6-7-4-2-3-5-8(6,7)9/h6-7,9H,2-5H2,1H3	InChI=1S/C8H14O/c1-6-7-4-2-3-5-8(6,7)9/h6-7,9H,2-5H2,1H3/t6-,7+,8+/m0/s1
