18
gdb 37170	3.48002	1.72696	1.59949	3.1156	74.08	-0.2284	0.066	0.2944	896.5369	0.150887	-401.825718	-401.819618	-401.818673	-401.855725	26.804	
C	 0.0269521345	 1.5531950665	 0.1167522579	-0.305476
C	 1.3492283222	 0.8452198106	-0.0963489689	-0.046239
C	 0.0432107293	 0.0443044438	 0.0547470989	-0.164201
C	 0.1068036875	-0.5880802391	-1.3284077156	 0.266368
C	-0.6689814071	-1.1753795038	-2.5038192839	-0.168067
O	 0.1526830446	-0.3732892854	-3.4078681828	-0.295288
C	 0.5659575998	 0.4954317689	-2.322188263	 0.121876
C	 1.8615451431	 0.3395012548	-1.5058931256	-0.079904
N	 1.5466104462	-1.1183984376	-1.4314919841	-0.328782
H	-0.1064974171	 1.979133784	 1.1076865514	 0.114476
H	-0.4520858043	 2.1367283567	-0.6588152896	 0.121565
H	 2.0840393468	 0.8788070567	 0.7007169963	 0.096391
H	-0.1727668534	-0.5459613275	 0.9382647792	 0.093279
H	-0.5506547132	-2.2467270637	-2.6826778459	 0.117623
H	-1.7245374629	-0.8807596815	-2.5654610978	 0.101568
H	 0.1320872504	 1.4862486905	-2.4415044957	 0.081793
H	 2.866774586	 0.6477779313	-1.8010710536	 0.070744
H	 1.8461311575	-1.5114760354	-0.5381608472	 0.202274
260.8172	305.061	382.1486	419.1763	453.3371	566.4709	574.3151	683.0334	733.1899	757.0493	798.9434	824.1778	871.7317	885.722	913.9764	924.9557	944.1878	961.03	1007.9222	1023.7627	1045.8146	1074.2407	1092.4728	1098.5102	1118.5836	1123.9494	1159.9647	1175.5702	1183.1085	1207.5175	1242.5276	1270.0208	1297.2522	1319.712	1332.255	1371.8918	1376.8993	1489.7033	1499.6008	3020.2325	3091.3472	3105.5217	3118.9813	3132.2389	3165.7571	3174.5046	3215.691	3436.8927
C1C2C1C13COC1C2N3	C1[C@H]2[C@@H]1[C@@]13CO[C@@H]1[C@@H]2N3	
InChI=1S/C7H9NO/c1-3-4(1)7-2-9-6(7)5(3)8-7/h3-6,8H,1-2H2	InChI=1S/C7H9NO/c1-3-4(1)7-2-9-6(7)5(3)8-7/h3-6,8H,1-2H2/t3-,4+,5+,6+,7-/m0/s1
