25
gdb 122947	5.43902	0.44944	0.42988	0.0694	86.64	-0.2617	0.0775	0.3392	2537.7399	0.226287	-426.623843	-426.611735	-426.610791	-426.662591	42.202	
C	 0.1389968314	 1.5938131581	 0.0438587815	-0.389922
C	 0.0288733895	 0.0632362871	 0.0436951289	 0.036153
C	 0.7393052118	-0.5283123438	 1.2629808615	-0.078882
O	 2.1147332132	-0.1754381475	 1.2038951952	-0.424319
C	-1.4252064006	-0.4364913501	-0.0080711472	-0.186438
C	-2.1849318031	-0.0740052524	-1.2901117944	-0.194794
C	-3.596295855	-0.6680816229	-1.3295040152	-0.163221
C	-4.3587137174	-0.3089637469	-2.5977801989	-0.074924
O	-5.6437755089	-0.9094149434	-2.5243639238	-0.421968
H	 1.1813002667	 1.897366007	 0.163512346	 0.132697
H	-0.2389044304	 2.0290578897	-0.8853241348	 0.109487
H	-0.4365025367	 2.0242461369	 0.8733182496	 0.103354
H	 0.5574777995	-0.320822433	-0.8405975335	 0.07877
H	 0.2702953991	-0.1423237395	 2.1840536246	 0.08042
H	 0.6154834426	-1.6232947712	 1.266038027	 0.080688
H	 2.5394388238	-0.482893652	 2.0094804158	 0.285553
H	-1.4298900037	-1.5297876394	 0.1017347965	 0.089508
H	-1.9740438706	-0.0425754236	 0.8596153693	 0.09116
H	-2.2494689922	 1.0165494336	-1.3904955366	 0.09886
H	-1.6133656809	-0.4274313884	-2.1598091213	 0.093119
H	-3.5493601854	-1.7613807424	-1.2513265958	 0.102884
H	-4.1770914639	-0.3200078269	-0.4662091701	 0.103229
H	-4.4361357175	 0.7874417315	-2.6871403056	 0.082205
H	-3.802006484	-0.6666716399	-3.4799105246	 0.082227
H	-6.1263527673	-0.6849467903	-3.325071594	 0.284154
46.1144	47.8213	81.27	111.5829	123.704	142.4541	216.1122	234.5071	241.3686	254.9243	262.3148	312.9801	381.6256	426.7822	488.8701	540.1423	740.4643	791.2323	843.9459	909.3705	924.6909	945.0593	1007.3762	1025.9995	1033.5642	1057.2325	1074.9502	1086.1547	1109.7879	1169.9139	1186.4141	1204.4857	1221.3765	1251.9716	1268.1531	1289.0215	1292.8131	1314.9944	1326.593	1330.3857	1369.949	1382.4246	1399.5621	1407.5037	1457.8913	1463.1933	1480.4742	1489.9787	1495.5449	1505.832	1508.0146	1520.4449	1529.1035	2953.7825	2955.5901	2980.1942	2982.7758	2998.4357	3007.8611	3011.5169	3028.0796	3028.3588	3032.0722	3051.5691	3076.3492	3098.0924	3129.1961	3830.7221	3835.5631
CC(CO)CCCCO	C[C@@H](CO)CCCCO	
InChI=1S/C7H16O2/c1-7(6-9)4-2-3-5-8/h7-9H,2-6H2,1H3	InChI=1S/C7H16O2/c1-7(6-9)4-2-3-5-8/h7-9H,2-6H2,1H3/t7-/m1/s1
