21
gdb 36937	4.61472	0.81755	0.7613	1.8965	79.23	-0.2505	0.0811	0.3316	1552.3906	0.183275	-424.211848	-424.202896	-424.201952	-424.247408	32.318	
C	-0.1541324884	 1.5698900368	 0.1850362638	-0.257083
C	-0.2063866589	 0.0705340597	 0.3531470117	 0.100464
C	-1.2521452917	-0.7497679137	-0.2674963935	-0.181916
O	 0.063935323	-0.7065949763	-0.8210221267	-0.241637
C	 1.2735266215	 2.1024774251	 0.1698448499	 0.152518
C	 1.4173543895	 3.622797639	-0.028211914	-0.235704
C	 2.7028973507	 3.9710604197	 0.7647779176	-0.231326
C	 3.0397678457	 2.6506091026	 1.5017968604	-0.072006
O	 1.8683558784	 1.8522127437	 1.4406046299	-0.262718
H	-0.6509853135	 1.8437562053	-0.7523220038	 0.102955
H	-0.6964319385	 2.0513809239	 1.008849924	 0.104788
H	 0.2785866855	-0.3087884457	 1.2520286823	 0.10898
H	-1.5406782803	-1.6980604808	 0.1842143125	 0.112625
H	-2.0264912369	-0.2690993843	-0.8652357356	 0.108069
H	 1.8451249669	 1.5724567303	-0.6116854251	 0.076899
H	 1.4792420808	 3.8957845233	-1.0844839578	 0.103526
H	 0.5485666521	 4.1351177615	 0.3972772813	 0.101652
H	 3.5225105862	 4.2795246256	 0.1110598002	 0.104825
H	 2.5230333468	 4.7866467975	 1.4689729424	 0.108709
H	 3.8785526908	 2.1355991338	 1.0071597367	 0.090495
H	 3.2976788403	 2.786686213	 2.5552787239	 0.105886
32.0251	61.7042	83.0278	134.4193	181.8435	321.2788	326.2428	457.5611	479.8313	633.5815	679.0853	788.209	803.3741	836.8898	871.4184	895.8702	919.4621	947.5156	966.61	990.9064	1022.6748	1071.5927	1089.7848	1122.3357	1135.0843	1142.8239	1158.245	1173.4468	1206.6132	1233.4752	1256.6557	1273.3653	1282.7418	1293.7379	1312.2006	1325.0984	1363.2698	1395.4267	1408.8165	1445.7781	1456.4394	1487.9026	1505.0282	1523.0389	1530.9504	2953.6651	2976.6667	3028.4897	3050.5621	3067.4511	3077.0673	3079.6997	3085.8475	3098.7255	3116.556	3123.5821	3162.6795	32.025	61.7049	83.0278	134.4194	181.8432	321.2788	326.2429	457.5612	479.8312	633.5815	679.0853	788.2093	803.3742	836.8898	871.4186	895.8703	919.4621	947.5158	966.6101	990.9064	1022.6747	1071.5926	1089.7848	1122.3355	1135.0843	1142.824	1158.2452	1173.447	1206.6133	1233.4754	1256.6557	1273.3654	1282.7419	1293.7381	1312.2005	1325.0985	1363.2699	1395.4268	1408.8165	1445.7783	1456.4396	1487.9025	1505.0282	1523.0391	1530.9505	2953.665	2976.6666	3028.4897	3050.5621	3067.451	3077.0674	3079.6998	3085.8474	3098.7255	3116.556	3123.5822	3162.6796
C(C1CO1)C1CCCO1	C([C@H]1CO1)[C@H]1CCCO1	
InChI=1S/C7H12O2/c1-2-6(8-3-1)4-7-5-9-7/h6-7H,1-5H2	InChI=1S/C7H12O2/c1-2-6(8-3-1)4-7-5-9-7/h6-7H,1-5H2/t6-,7+/m1/s1
