14
gdb 26905	3.09888	1.49867	1.01099	3.568	76.44	-0.1841	-0.0556	0.1285	1083.8093	0.101064	-470.027317	-470.019319	-470.018375	-470.059588	30.493	
N	 0.0869376044	 1.3609715198	 0.1866227988	-0.564826
C	-0.0296022106	 0.0006866001	 0.0689915368	 0.339065
C	-1.1945496143	-0.7029790325	 0.0346054973	 0.280746
O	-2.3860272762	-0.0239593644	 0.0551478657	-0.457856
N	-1.2066567419	-2.0528117901	-0.017111279	-0.290223
C	-0.0819599004	-2.7009627765	-0.0352642835	-0.070339
C	 1.2140317566	-2.049527846	-0.0064165671	 0.349057
N	 2.3288042418	-2.6581267789	-0.028581704	-0.53668
O	 1.1544602229	-0.6494846071	 0.043609218	-0.25309
H	 0.9307092773	 1.756389433	-0.203144762	 0.266065
H	-0.7571895659	 1.8663318419	-0.0400427469	 0.279348
H	-3.0762253016	-0.6940942981	-0.0172365345	 0.298854
H	-0.0856134709	-3.7841239922	-0.079292945	 0.138285
H	 3.1106018988	-2.0044037688	 0.0009019952	 0.221595
100.7963	173.521	266.8413	283.4755	316.5122	340.9932	357.797	443.56	481.9232	508.6264	559.556	597.1523	656.0829	726.9481	735.8324	804.018	814.7585	889.922	903.0686	1035.821	1090.6913	1150.7754	1243.7683	1314.6253	1345.4406	1409.1381	1447.3388	1551.9633	1625.6205	1686.997	1748.825	3200.0344	3498.6296	3564.6831	3679.9999	3806.3202
NC1=C(O)N=CC(=N)O1	NC1=C(O)[N]C=C([NH])O1	
InChI=1S/C4H5N3O2/c5-2-1-7-4(8)3(6)9-2/h1,5,8H,6H2	InChI=1S/C4H5N3O2/c5-2-1-7-4(8)3(6)9-2/h1,5,8H,6H2
