20
gdb 82933	2.17974	1.80487	1.48622	2.2693	77.88	-0.2134	0.0671	0.2805	1017.686	0.171879	-403.103084	-403.094948	-403.094004	-403.135105	32.637	
C	-0.0595158412	 1.4857450898	-0.0188532615	-0.486649
C	 0.008592779	-0.0260245471	 0.009669887	 0.308306
C	-0.8511735448	-0.7661433954	 1.0045998523	 0.03308
O	-1.6130663185	-1.8856637017	 0.6510763298	-0.410619
C	 0.6496888487	-0.8085147122	 1.1591789269	-0.152624
C	 1.4352132991	-1.9604756444	 0.5248817426	-0.186662
N	 1.4534071411	-1.7808216979	-0.948438112	-0.099936
C	 0.1940899088	-2.0867825837	-1.6449538679	-0.263311
C	 0.5157231918	-0.6855253555	-1.2621885552	-0.090168
H	 0.8972576975	 1.9167626892	-0.3347268987	 0.123003
H	-0.8298361722	 1.8343505071	-0.716381232	 0.125101
H	-0.2981946404	 1.8925351448	 0.9682925281	 0.114549
H	-1.3654862515	-0.1104215032	 1.7100797713	 0.084236
H	-1.6362381467	-2.4751840594	 1.4130384091	 0.289107
H	 1.0904415529	-0.3039149237	 2.0143963992	 0.082278
H	 2.4688808996	-1.9319588242	 0.8830585672	 0.109305
H	 1.0299494627	-2.9471260083	 0.7817210303	 0.095365
H	 0.3278639255	-2.3966724291	-2.6790130843	 0.102419
H	-0.5949115469	-2.5922181092	-1.1056955741	 0.140565
H	 0.8381597155	 0.015492524	-2.029341368	 0.082654
152.6253	200.1428	228.9461	246.6889	277.608	302.3133	315.0037	416.058	538.375	552.0608	633.5422	663.6534	701.2477	780.5228	811.0248	831.8474	861.3421	934.0832	970.5542	999.9736	1030.1272	1035.0462	1072.7896	1095.8869	1100.2838	1123.5231	1127.7728	1154.706	1177.997	1224.9285	1236.6388	1274.1393	1286.8411	1307.3639	1335.1635	1361.8871	1391.1616	1417.0473	1471.654	1490.8641	1494.4104	1501.3034	1511.6123	3025.172	3027.5578	3071.4465	3073.9664	3086.4929	3103.0908	3111.4015	3123.9625	3144.8642	3241.0681	3796.3051
CC12C(O)C1CN1CC21	C[C@]12[C@@H](O)[C@H]1CN1C[C@@H]21	
InChI=1S/C7H11NO/c1-7-4(6(7)9)2-8-3-5(7)8/h4-6,9H,2-3H2,1H3	InChI=1S/C7H11NO/c1-7-4(6(7)9)2-8-3-5(7)8/h4-6,9H,2-3H2,1H3/t4-,5+,6+,7+,8?/m1/s1
