23
gdb 103538	2.2726	1.36884	1.08747	1.4943	86.24	-0.2386	0.0204	0.2591	1246.2612	0.205189	-388.303832	-388.29401	-388.293066	-388.33797	37.888	
C	-0.7022288213	 1.1627638044	 0.0344860107	-0.414017
C	 0.1570070912	-0.0952149653	-0.091642133	-0.003671
C	 1.303876345	 0.0224586292	-1.1295011278	-0.274396
C	 2.3605357799	-0.9027281439	-0.5814748363	-0.087092
C	 2.1065445407	-1.2521577634	 0.677335169	-0.099127
C	 0.8383098849	-0.6182447774	 1.2241453667	 0.226933
C	 1.2011702478	 0.4907751772	 2.2314318636	-0.423059
C	-0.0802369629	-1.6502830812	 1.9117382975	-0.104429
O	 0.4605110289	-2.2032386549	 3.1032610871	-0.425214
H	-0.1086546759	 2.0306655549	 0.3384736862	 0.118629
H	-1.1690640403	 1.4036363051	-0.9267093174	 0.111144
H	-1.5076352447	 1.0353502556	 0.7657356643	 0.114377
H	-0.4938062902	-0.9094555974	-0.4389031756	 0.070973
H	 0.9747697913	-0.2451163251	-2.1404981016	 0.101178
H	 1.6852349848	 1.0525541878	-1.1969490012	 0.102429
H	 3.2348495394	-1.2010014264	-1.1503952992	 0.090816
H	 2.7574948172	-1.8673905555	 1.2922308857	 0.079217
H	 1.8588881889	 1.2402943177	 1.781563273	 0.109102
H	 0.3051610299	 0.9981813981	 2.6043769828	 0.110479
H	 1.7134046256	 0.0573219115	 3.0940962576	 0.121726
H	-1.0149806722	-1.1625446712	 2.2134598203	 0.105156
H	-0.3386922832	-2.442995904	 1.1932312943	 0.085016
H	 1.1824958053	-2.788064156	 2.8541708634	 0.28383
76.562	109.2659	196.6066	242.5708	247.8886	255.2484	285.2731	295.8933	308.0054	351.0503	437.1064	471.7129	518.5545	612.4178	701.845	757.9119	761.7847	860.4037	904.2216	933.838	939.7531	963.9814	975.3943	980.9602	1036.7158	1058.5174	1087.2366	1112.4239	1130.1358	1156.2095	1170.1028	1200.8459	1226.0143	1266.0262	1306.5711	1343.6044	1367.7196	1375.657	1386.7218	1404.9609	1410.803	1421.5601	1484.4239	1488.3863	1491.2542	1495.7015	1505.4094	1507.316	1687.2826	2983.2391	2993.8288	3004.202	3030.1857	3036.877	3050.2091	3056.2994	3092.5943	3102.9627	3104.321	3120.8383	3162.2417	3194.5822	3825.1539
CC1CC=CC1(C)CO	C[C@H]1CC=C[C@]1(C)CO	
InChI=1S/C8H14O/c1-7-4-3-5-8(7,2)6-9/h3,5,7,9H,4,6H2,1-2H3	InChI=1S/C8H14O/c1-7-4-3-5-8(7,2)6-9/h3,5,7,9H,4,6H2,1-2H3/t7-,8+/m0/s1
