21
gdb 110456	2.89683	1.37703	1.11563	1.0646	82.26	-0.2397	0.0866	0.3263	1185.429	0.182497	-387.033721	-387.025262	-387.024318	-387.06677	32.789	
C	 0.0500077105	 1.2157652604	 0.3748010251	-0.240941
O	 0.0258550076	-0.1020352705	-0.1257368608	-0.248759
C	-1.251419613	-0.6849148479	-0.0940890921	 0.169218
C	-1.3742790833	-2.085879665	-0.6548284734	-0.139376
C	-1.0697630887	-3.0696754609	 0.4790704438	-0.060967
C	-2.4315593881	-2.4291000872	 0.377312836	-0.089693
C	-1.8110945822	-1.2629870911	 1.2436886429	-0.126
C	-0.7079393331	-2.2516193987	 1.7233493386	 0.028408
C	-1.0332089801	-2.9510876363	 3.0369975932	-0.412498
H	 1.072179273	 1.587315748	 0.2700133613	 0.125803
H	-0.627058852	 1.8765892064	-0.1896645798	 0.102874
H	-0.2341287096	 1.2617827234	 1.4369775193	 0.105571
H	-1.9910990978	-0.0140385315	-0.5587883164	 0.06043
H	-1.3369819768	-2.3891744597	-1.6930344928	 0.08622
H	-0.8025454968	-4.0955188716	 0.2555320292	 0.080614
H	-3.4294052063	-2.8227027903	 0.2590404235	 0.089287
H	-2.343516191	-0.6332894767	 1.9547786839	 0.062541
H	 0.3038511808	-1.8316111978	 1.7464228539	 0.074598
H	-2.0506637257	-3.3576083942	 3.0276272318	 0.113362
H	-0.3432650601	-3.7814537777	 3.2239292248	 0.110895
H	-0.9533170473	-2.2577540011	 3.881685028	 0.108412
76.7227	156.2845	178.3484	207.9637	250.0729	280.1179	305.5332	414.7191	538.1607	578.2597	747.7939	752.9309	793.8905	799.5674	821.3999	874.7422	892.9768	952.1347	982.509	1007.1375	1023.9514	1032.406	1035.2206	1042.6856	1077.805	1094.5586	1117.5479	1155.5647	1163.9649	1168.9077	1183.8157	1204.5638	1226.4263	1256.9617	1286.6487	1317.3382	1358.9295	1381.9548	1395.0341	1410.3957	1482.5706	1488.3409	1495.1732	1499.3994	1508.4407	2970.9904	2982.6734	3019.4781	3024.4348	3045.3143	3089.2403	3096.1153	3113.4243	3126.0856	3184.978	3200.4363	3233.979
COC1C2C3C2C1C3C	CO[C@H]1[C@H]2[C@@H]3[C@H]2[C@H]1[C@H]3C	
InChI=1S/C8H12O/c1-3-4-6-5(3)8(9-2)7(4)6/h3-8H,1-2H3	InChI=1S/C8H12O/c1-3-4-6-5(3)8(9-2)7(4)6/h3-8H,1-2H3/t3-,4-,5+,6-,7-,8+/m0/s1
