16
gdb 35000	2.46038	1.65213	1.56979	2.0086	74.06	-0.2424	0.0247	0.2671	947.8341	0.125171	-400.706155	-400.698574	-400.69763	-400.738383	29.045	
C	 0.2193299844	-1.2126466328	-0.0078435822	-0.448505
C	 0.1349642359	-0.0127963494	 0.0017978729	 0.348621
C	 0.029154421	 1.4128834116	 0.0255449036	-0.265821
C	 0.4258885349	 2.204188351	 1.2819107113	-0.122294
C	 1.0217116286	 1.481487092	 2.4785096264	-0.178073
N	 2.3944543155	 1.0173102542	 2.3242137802	-0.258921
C	 2.9836339021	 1.151016216	 1.2197625716	 0.129122
O	 2.5408447517	 1.7008407806	 0.0520239625	-0.217049
C	 1.2735738561	 2.2912082067	 0.0558435792	 0.095866
H	 0.2987812389	-2.2713245959	-0.0225789053	 0.20079
H	-0.7994818754	 1.8258651765	-0.5429643297	 0.118256
H	-0.2012009728	 3.0597632687	 1.5091971436	 0.103951
H	 1.0008381574	 2.1562357855	 3.3417375701	 0.119103
H	 0.4086556439	 0.6138121896	 2.7521005148	 0.129508
H	 4.0042292473	 0.8027569728	 1.0808945715	 0.127462
H	 1.2737425204	 3.1854754231	-0.5566199904	 0.117983
88.8514	119.5271	151.3552	309.0021	347.7555	481.4316	515.5832	541.9889	591.648	630.7371	651.0169	663.1921	735.52	788.1077	833.4879	918.3792	936.3665	957.1753	968.4458	1015.9575	1050.6458	1091.5898	1098.2614	1123.5067	1180.2684	1239.4785	1281.7194	1352.6407	1355.5141	1362.6758	1409.6441	1436.3362	1477.1682	1752.7213	2237.3768	3028.4817	3058.9229	3143.1312	3161.5905	3172.6533	3179.5304	3504.3491
C#CC1C2CN=COC12	C#C[C@H]1[C@H]2CN=CO[C@@H]12	
InChI=1S/C7H7NO/c1-2-5-6-3-8-4-9-7(5)6/h1,4-7H,3H2	InChI=1S/C7H7NO/c1-2-5-6-3-8-4-9-7(5)6/h1,4-7H,3H2/t5-,6+,7-/m0/s1
