18
gdb 44061	3.16944	1.6722	1.49219	3.2504	78.33	-0.2413	0.0291	0.2704	947.7796	0.149878	-401.875333	-401.868711	-401.867767	-401.905961	28.208	
N	 0.0025920098	 1.2286895594	 0.0973941784	-0.579464
C	-0.0697343095	-0.028808668	 0.0629514572	 0.456715
O	 0.9673566911	-0.9290388656	 0.091904212	-0.297908
C	 0.2669295319	-2.2362529752	 0.0264321706	 0.396031
C	 1.1100544861	-3.0944949457	-0.9438817078	-0.312361
C	 0.388913234	-2.2625652018	-2.0981291609	-0.277994
C	-0.7574052658	-2.0098814248	-1.05078122	 0.001377
C	-1.2707436598	-0.920605345	-0.0181321517	-0.184272
C	-0.8364457963	-2.0130256618	 1.0946820191	-0.332055
H	 0.9783024362	 1.5283868046	 0.1517946503	 0.220431
H	 2.1957568393	-3.0256935279	-0.8569062518	 0.119862
H	 0.7988561018	-4.1411497506	-0.9536921888	 0.116066
H	 0.9626664947	-1.3789879198	-2.3722604399	 0.13621
H	 0.1000101506	-2.8105146924	-2.9962186567	 0.106089
H	-1.4732316322	-2.8330324143	-1.0914705481	 0.092753
H	-2.2511532911	-0.4522401094	-0.041002149	 0.100129
H	-1.5544806944	-2.8301139409	 1.1707935469	 0.117656
H	-0.5508922062	-1.6362982209	 2.0795313801	 0.120736
149.6653	282.3375	329.9888	366.9369	452.7233	486.9313	577.408	595.815	676.3215	733.7215	753.5979	794.3657	814.7184	836.2959	872.252	888.8726	892.4667	917.9397	972.8692	1011.0005	1019.9712	1036.027	1070.3545	1084.3454	1118.7278	1157.7611	1177.6457	1192.624	1201.535	1222.6864	1228.0966	1253.205	1274.9932	1321.6947	1371.7612	1467.9614	1479.0076	1488.0499	1805.7101	3073.566	3075.9687	3088.8925	3093.646	3137.5717	3150.5975	3162.2031	3164.5378	3463.2846
N=C1OC23CCC2C1C3	[NH][C]1O[C@]23CC[C@@H]2[C@H]1C3	
InChI=1S/C7H9NO/c8-6-4-3-7(9-6)2-1-5(4)7/h4-5,8H,1-3H2	InChI=1S/C7H9NO/c8-6-4-3-7(9-6)2-1-5(4)7/h4-5,8H,1-3H2/t4-,5-,7+/m1/s1
