12
gdb 5198	6.01175	1.50094	1.20107	2.1054	57.62	-0.2291	-0.0112	0.2179	902.9332	0.085822	-414.713562	-414.707165	-414.706221	-414.744531	23.01	
O	-0.259304532	 0.0416708826	 0.0001427029	-0.307957
C	-0.0677269342	 1.2381003477	 0.007757525	 0.141674
N	 1.1668769366	 1.8210210721	 0.0009235131	-0.39379
C	 2.3654977407	 1.1177017064	-0.0151517028	 0.337239
C	 2.6148777247	-0.2177969782	-0.0280090922	-0.0961
O	 3.9823141076	-0.3607022378	-0.041235595	-0.136488
C	 4.4619663648	 0.8937249791	-0.035465305	 0.088256
N	 3.558235226	 1.8214601222	-0.0198722173	-0.330554
H	-0.8781344323	 1.9897097114	 0.0210587429	 0.092015
H	 1.2479731961	 2.8266283947	 0.0083281292	 0.269237
H	 2.0104835907	-1.1029437802	-0.0296978938	 0.179169
H	 5.5337226412	 1.0119298599	-0.043959167	 0.157299
91.5238	173.9154	223.0555	366.2349	399.0856	570.1239	627.7341	640.1058	703.2432	758.4302	844.1123	869.8284	937.9539	1008.2625	1016.2551	1078.7024	1142.1141	1167.0889	1242.6648	1270.1232	1348.3256	1427.111	1513.6715	1575.1615	1649.0948	1798.0826	2969.6441	3281.8399	3347.9631	3629.8944
O=CNC1=COC=N1	O=CNc1cocn1	
InChI=1S/C4H4N2O2/c7-2-5-4-1-8-3-6-4/h1-3H,(H,5,7)	InChI=1S/C4H4N2O2/c7-2-5-4-1-8-3-6-4/h1-3H,(H,5,7)
