20
gdb 93704	2.88663	1.21899	1.11205	4.5254	78.48	-0.2815	0.0444	0.3258	1180.3399	0.171584	-403.183618	-403.174587	-403.173643	-403.217387	34.515	
C	 0.3983305077	 1.3559570208	 0.2299569419	-0.444129
C	-0.0520221039	-0.103522379	 0.0126924842	 0.166211
C	 0.7588822648	-0.7839176003	-1.1511010265	-0.243125
C	 1.2353147019	-2.1327340843	-0.5882706886	-0.241669
C	 1.4592199723	-1.8403768899	 0.9014643174	 0.119245
O	 2.6109374494	-1.0247142324	 1.1135836962	-0.436518
C	 0.2401306929	-0.9944189378	 1.2729222328	-0.257247
C	-1.487265032	-0.1254742662	-0.2907663767	 0.248626
N	-2.6189527936	-0.146441763	-0.5287049306	-0.355536
H	 1.4530769175	 1.3567546557	 0.5148358469	 0.144048
H	 0.2737979659	 1.9442154127	-0.6837777982	 0.128073
H	-0.1822664981	 1.8329045344	 1.024490441	 0.130289
H	 0.1644331948	-0.8866346957	-2.0604865791	 0.121457
H	 1.6178803167	-0.1507278547	-1.3854355702	 0.114073
H	 0.4569958595	-2.8976072706	-0.6933935307	 0.113694
H	 2.1338862281	-2.511701199	-1.0864922349	 0.093897
H	 1.5207904186	-2.7545423658	 1.5077350923	 0.068831
H	 3.3801120064	-1.5006114903	 0.7839830113	 0.284484
H	 0.4278727887	-0.3895426086	 2.1624105682	 0.121841
H	-0.6079011277	-1.6505379461	 1.4827022936	 0.123454
47.5448	140.0149	181.0549	209.5561	288.6043	316.0631	333.0156	365.079	395.8276	402.5431	515.4078	576.7043	607.2362	679.6634	765.2907	829.6727	863.6941	880.9002	923.4662	944.5555	984.3622	998.07	1013.222	1074.1209	1080.5096	1144.4074	1161.2274	1195.835	1225.1082	1244.5738	1282.7085	1321.1521	1331.2201	1354.3464	1366.5562	1406.8095	1420.7194	1475.3105	1483.1095	1496.9479	1498.0854	1503.078	2347.3495	3006.5014	3041.5885	3043.8904	3070.1008	3075.7359	3085.1262	3117.114	3124.8691	3125.6429	3135.0449	3816.402
CC1(CCC(O)C1)C#N	C[C@]1(CC[C@@H](O)C1)C#N	
InChI=1S/C7H11NO/c1-7(5-8)3-2-6(9)4-7/h6,9H,2-4H2,1H3	InChI=1S/C7H11NO/c1-7(5-8)3-2-6(9)4-7/h6,9H,2-4H2,1H3/t6-,7-/m1/s1
