15
gdb 43515	2.94195	1.29705	0.94878	0.493	74.01	-0.2591	-0.0132	0.246	1174.3406	0.112988	-416.829342	-416.82124	-416.820296	-416.86275	30.225	
N	-0.0214406532	 1.2853703665	 0.2678108841	-0.512831
C	 0.0438340049	 0.0340020349	 0.099713712	 0.388558
N	 1.1482708064	-0.7717741233	-0.1645496397	-0.361964
C	 0.9024597482	-2.1375761427	-0.2203901409	 0.406757
O	 1.7277563953	-2.9806628196	-0.4621797129	-0.34583
C	-0.5745923229	-2.3282679669	 0.1068726259	-0.354562
C	-1.1803333453	-0.9003790153	 0.1078212676	-0.249116
C	-2.1109150351	-0.6411282668	 1.1943361163	 0.338258
C	-2.8851860336	-0.4729100232	 2.0964463562	-0.445759
H	 0.8941324157	 1.7328062505	 0.2015317633	 0.216302
H	 2.0814004138	-0.40927377	-0.2981907402	 0.263857
H	-1.040275611	-3.0022713381	-0.6133766922	 0.148976
H	-0.6505054098	-2.7946625305	 1.092939315	 0.158895
H	-1.6941211791	-0.7258447662	-0.8462548261	 0.145365
H	-3.5676298944	-0.3017682793	 2.8918431914	 0.203094
42.8195	129.4605	139.4203	219.2445	356.3314	428.2854	462.4779	512.7682	541.263	604.134	629.6542	635.9257	643.2591	648.6895	695.8926	811.021	873.6399	885.3646	967.8382	1027.8131	1069.7676	1099.6356	1166.158	1226.5544	1252.6311	1280.7965	1328.7812	1361.9026	1384.6369	1465.5049	1767.9646	1858.3847	2248.2335	3027.4728	3080.3442	3133.4014	3464.8947	3504.8171	3618.641
N=C1NC(=O)CC1C#C	[NH][C]1NC(=O)C[C@H]1C#C	
InChI=1S/C6H6N2O/c1-2-4-3-5(9)8-6(4)7/h1,4H,3H2,(H2,7,8,9)	InChI=1S/C6H6N2O/c1-2-4-3-5(9)8-6(4)7/h1,4H,3H2,(H2,7,8,9)/t4-/m1/s1
