20
gdb 115405	2.60837	1.23377	0.93504	2.258	78.71	-0.2425	0.0332	0.2757	1318.81	0.170321	-440.305685	-440.296088	-440.295143	-440.341209	33.875	
C	 0.1976014719	 1.1304014409	-0.292594621	-0.245158
O	 0.1763626344	-0.239427591	 0.0741818292	-0.237501
C	 0.6261839612	-0.4886125137	 1.3687537477	 0.210565
C	 0.5394555687	-1.9928127838	 1.6341761227	-0.253609
C	 1.8956303559	-2.4858546618	 1.1117242881	-0.321652
C	 2.7955635138	-1.2849554294	 1.3116730289	 0.442094
O	 2.0139526999	-0.162218989	 1.5125873311	-0.25463
N	 4.0521079115	-1.2986754182	 1.3129001029	-0.329537
C	 4.79487754	-0.0627892588	 1.4957683288	-0.333078
H	 1.2183513819	 1.5286870801	-0.3017445866	 0.130887
H	-0.2273511124	 1.1964219433	-1.2959758686	 0.131309
H	-0.4116983024	 1.7347190412	 0.3959475268	 0.108971
H	 0.0942314799	 0.1444134581	 2.0919424654	 0.076105
H	 0.4460528771	-2.1674264944	 2.7096094944	 0.115598
H	-0.3227231806	-2.4287323495	 1.1295020922	 0.12294
H	 2.2921259353	-3.3601767453	 1.6277989817	 0.131838
H	 1.8420828162	-2.7202377279	 0.0439166438	 0.139958
H	 5.4153028654	-0.1480654358	 2.3955967466	 0.123272
H	 5.482374576	 0.0668334488	 0.6520542129	 0.122866
H	 4.1718351663	 0.8342130162	 1.5838763731	 0.118764
48.4904	70.9333	103.217	131.8285	194.6404	226.4437	248.1153	287.364	415.8451	481.8101	519.8338	582.166	675.2186	761.264	802.0091	861.7883	913.4688	964.045	992.6737	1030.5971	1049.1869	1074.3851	1126.2976	1132.8245	1144.6282	1167.8027	1180.6772	1205.0466	1222.9674	1241.5962	1310.8966	1335.6881	1374.6727	1399.7751	1437.8626	1467.9379	1479.844	1485.123	1488.2866	1495.6781	1496.6195	1512.111	1811.5888	2995.3649	3016.4418	3018.2826	3065.8905	3070.8134	3074.2069	3074.6729	3087.3195	3131.0574	3133.2486	3141.886
COC1CCC(O1)=NC	CO[C@H]1CCC(=NC)O1	
InChI=1S/C6H11NO2/c1-7-5-3-4-6(8-2)9-5/h6H,3-4H2,1-2H3	InChI=1S/C6H11NO2/c1-7-5-3-4-6(8-2)9-5/h6H,3-4H2,1-2H3/t6-/m1/s1
