17
gdb 80509	2.35853	1.452	1.23305	1.0533	76.05	-0.236	0.0257	0.2617	1092.4062	0.133635	-421.747096	-421.738449	-421.737505	-421.779927	33.327	
C	-0.0983689525	 1.573471419	 0.0250165656	-0.428369
C	 0.1616393644	 0.0827166973	 0.0352289637	 0.093146
O	 1.3207039874	-0.3514048992	-0.7552467136	-0.326492
C	 1.7774106261	-1.1812181862	 0.3143663643	-0.028814
C	 2.2202115544	-0.312022304	 1.4276753435	 0.068089
O	 2.7983330206	 0.9269920348	 1.1948140136	-0.426541
C	 0.7143197266	-0.6168090699	 1.2868137407	 0.052559
C	-0.0620281325	-1.2234351701	 2.3060780062	 0.165248
C	-0.7311362967	-1.7235363912	 3.1736011188	-0.398161
H	 0.7301144521	 2.1314156125	 0.4634122882	 0.139968
H	-0.2694536389	 1.9190274681	-0.9996733189	 0.128981
H	-1.0019981938	 1.7838997125	 0.6066106473	 0.13379
H	-0.7128766869	-0.4646408666	-0.3357834721	 0.098628
H	 2.0886199852	-2.1934644415	 0.0811772389	 0.11864
H	 2.6547505859	-0.8179765013	 2.2845454636	 0.125339
H	 2.7426688054	 1.0699817399	 0.2394643781	 0.296796
H	-1.3183151569	-2.164281184	 3.940454332	 0.187194
126.2714	139.9148	184.7122	221.9194	233.2351	301.9946	384.4904	456.7611	474.1725	496.0164	538.3589	569.391	614.1688	655.9701	664.2692	747.5747	815.6693	849.868	905.4256	948.1503	1009.4236	1033.6015	1075.1863	1098.3984	1129.6562	1153.8566	1220.9655	1233.0248	1287.401	1299.6444	1375.4646	1391.7867	1408.9083	1463.9259	1485.7379	1501.5496	2229.231	3035.7829	3044.789	3108.6378	3147.0002	3167.8118	3180.1094	3502.7844	3746.119
CC1OC2C(O)C12C#C	C[C@H]1O[C@H]2[C@@H](O)[C@@]12C#C	
InChI=1S/C7H8O2/c1-3-7-4(2)9-6(7)5(7)8/h1,4-6,8H,2H3	InChI=1S/C7H8O2/c1-3-7-4(2)9-6(7)5(7)8/h1,4-6,8H,2H3/t4-,5-,6+,7-/m1/s1
