22
gdb 59963	2.5079	1.04622	0.87482	5.2678	78.77	-0.2416	0.0239	0.2655	1437.043	0.192662	-441.528596	-441.518064	-441.51712	-441.564773	38.356	
C	-0.003359645	-0.1486115832	-1.6266310712	-0.384726
C	 0.084713831	 0.0362425944	-0.1089438474	 0.072154
C	 0.1422526714	 1.5168793942	 0.2682123165	-0.404851
N	-1.0740095885	-0.5795747049	 0.5687432511	-0.330534
H	-1.0972504162	-0.2632146428	 1.53167057	 0.225739
H	-2.635709261	-0.718075734	-0.4782827254	 0.295973
C	-1.146383815	-2.0483983529	 0.5294674542	-0.09177
C	-1.5338069537	-2.6302356218	 1.8947023192	-0.418819
C	-2.1894875734	-2.5061302041	-0.513377807	 0.436026
O	-2.989881326	-1.5180161923	-0.9330460461	-0.368375
O	-2.2895890346	-3.6460348103	-0.8825778773	-0.353299
H	 0.8722178752	 0.2973558145	-2.1076305694	 0.118723
H	-0.0328119195	-1.203970813	-1.9120461829	 0.134277
H	-0.8999470328	 0.3349883141	-2.0273428474	 0.126214
H	 1.0159715016	-0.4464575071	 0.2371899691	 0.071986
H	 0.2357715535	 1.6499655179	 1.3520563349	 0.111692
H	 1.0038209989	 1.9993671863	-0.2012820148	 0.125238
H	-0.7643202187	 2.0345868115	-0.0618312271	 0.126417
H	-0.1866818979	-2.4854888096	 0.2244860033	 0.103672
H	-0.7553654951	-2.4276244468	 2.6370873885	 0.117992
H	-2.4747899345	-2.194210504	 2.2481537897	 0.128983
H	-1.6682225594	-3.7102670562	 1.8116598798	 0.157289
39.2141	63.2791	113.3524	174.6274	231.3568	237.5287	255.2389	260.2148	321.8479	338.1488	354.7204	438.3168	491.804	562.0475	633.3986	742.3123	770.095	822.5535	836.7954	899.9039	928.9121	938.0725	963.5243	993.217	1060.962	1093.2654	1125.1878	1161.7496	1197.4558	1201.9783	1234.5394	1304.3137	1330.6999	1362.3933	1381.628	1401.0985	1404.1028	1421.009	1435.5194	1474.536	1484.7597	1494.5285	1498.4751	1501.471	1505.8152	1509.9054	1867.9154	2938.7467	3022.8312	3031.5601	3036.1213	3040.8141	3098.178	3103.3982	3112.1802	3114.3418	3120.1817	3140.3206	3416.8898	3529.4947
CC(C)[NH2+]C(C)C([O-])=O	CC(C)N[C@@H](C)C(=O)O	
InChI=1S/C6H13NO2/c1-4(2)7-5(3)6(8)9/h4-5,7H,1-3H3,(H,8,9)	InChI=1S/C6H13NO2/c1-4(2)7-5(3)6(8)9/h4-5,7H,1-3H3,(H,8,9)/t5-/m0/s1
