19
gdb 39122	3.84265	1.09563	1.03233	1.7956	74.91	-0.2494	0.0753	0.3246	1215.7387	0.159337	-422.961865	-422.953787	-422.952843	-422.995729	30.075	
C	-0.0910070022	 1.5297911578	 0.1737023099	-0.235631
C	 1.4698900805	 1.6367252691	 0.0466172761	-0.297627
C	 1.5103128524	 0.1096799842	-0.1751448285	 0.435761
O	 0.9094704371	-0.4742033932	 0.9952093182	-0.295868
C	 0.042311044	 0.0164545894	-0.0344901559	-0.052577
C	 2.4974661747	-0.716226073	-0.9244165736	-0.165543
C	 2.9489438293	-0.2287677601	-2.3234779136	-0.088186
O	 4.3271878815	-0.165254635	-1.9131405231	-0.270846
C	 3.9966310506	-0.5499892063	-0.5636817548	-0.082798
H	-0.5308193193	 1.8274223297	 1.1281859512	 0.11387
H	-0.612072814	 2.0344108381	-0.6433019662	 0.106772
H	 1.7799980531	 2.2193708817	-0.8237847396	 0.112795
H	 2.0128155123	 1.9836929892	 0.9285038458	 0.111661
H	-0.6697252694	-0.6861304929	-0.4539922698	 0.100477
H	 2.1641795449	-1.7556715281	-0.911369541	 0.092497
H	 2.7935665138	-0.9367846088	-3.1461331133	 0.104307
H	 2.5632764578	 0.7537449066	-2.6258368695	 0.098933
H	 4.2146141951	 0.2484327058	 0.1572848481	 0.104708
H	 4.5183684177	-1.4625258442	-0.2539569305	 0.107296
44.3489	63.631	146.6363	213.7881	272.5303	361.7375	462.2908	486.6477	601.1447	737.5869	774.2156	825.6434	872.2216	890.9477	908.952	923.9554	931.2092	962.2976	1004.5496	1006.2847	1023.7713	1046.6054	1071.9516	1099.6389	1150.6427	1160.4107	1163.3312	1208.1539	1212.9724	1220.0984	1249.2694	1263.7843	1296.4574	1309.6196	1324.0518	1382.2568	1460.7648	1464.406	1494.3401	1511.9396	1537.4334	3006.4401	3018.6985	3051.9069	3060.6928	3065.6513	3072.7788	3094.9633	3116.7684	3132.9156	3177.5712
C1CC2(OC12)C1COC1	C1C[C@]2(O[C@@H]12)C1COC1	
InChI=1S/C7H10O2/c1-2-7(6(1)9-7)5-3-8-4-5/h5-6H,1-4H2	InChI=1S/C7H10O2/c1-2-7(6(1)9-7)5-3-8-4-5/h5-6H,1-4H2/t6-,7-/m0/s1
