19
gdb 72452	2.32422	2.15444	1.51086	2.9475	72.49	-0.2533	0.0694	0.3227	930.1724	0.161686	-423.019469	-423.01249	-423.011546	-423.050268	29.637	
O	-0.1110109836	 1.3726747294	 0.03854664	-0.510192
C	 0.0142679303	-0.0246153862	 0.0432484708	 0.400446
C	 0.7775538704	-0.6487924481	-1.1634863049	-0.260759
C	 1.0759505116	-2.1046639563	-0.6856553919	-0.21353
C	 0.4405973108	-2.1459517413	 0.7367534526	-0.073135
C	 0.7219540112	-0.7137766049	 1.2355546165	-0.290068
C	-1.0706175839	-2.0935218437	 0.4885278713	 0.052452
O	-1.8107031444	-1.1874748197	 1.3153195197	-0.263326
C	-1.3453859413	-0.7232067975	 0.0430437027	 0.022446
H	 0.7721990137	 1.7547567403	-0.0017508837	 0.275183
H	 0.1850058458	-0.6096336141	-2.0821219609	 0.103329
H	 1.6994377132	-0.0857996784	-1.3475778963	 0.087812
H	 0.6449429313	-2.8591797934	-1.3509865098	 0.099666
H	 2.1510049273	-2.297898252	-0.6322295571	 0.101117
H	 0.7898247976	-2.9670783982	 1.3644263878	 0.067149
H	 1.7917267669	-0.485762141	 1.2696702529	 0.080221
H	 0.2569436016	-0.4792587639	 2.1912046207	 0.124714
H	-1.6142998036	-2.963130024	 0.1301026222	 0.096143
H	-2.1061311548	-0.4463669071	-0.6806640225	 0.100333
218.2855	251.3436	303.6165	306.3195	386.5182	422.974	465.6187	563.5597	578.472	618.4043	765.9207	779.7142	819.391	858.0432	880.6237	893.9112	925.3228	932.4249	953.684	980.9007	1004.5897	1017.1341	1054.5182	1092.388	1139.6979	1148.7471	1160.9243	1172.547	1227.8082	1238.3012	1252.0631	1258.0342	1288.6373	1314.777	1327.301	1341.7615	1405.2091	1420.5069	1483.3431	1489.0582	1512.6982	3037.4076	3052.669	3063.7819	3080.3183	3098.1329	3102.718	3152.8691	3154.5156	3167.811	3806.4623
OC12CCC(C1)C1OC21	O[C@@]12CC[C@@H](C1)[C@H]1O[C@@H]21	
InChI=1S/C7H10O2/c8-7-2-1-4(3-7)5-6(7)9-5/h4-6,8H,1-3H2	InChI=1S/C7H10O2/c8-7-2-1-4(3-7)5-6(7)9-5/h4-6,8H,1-3H2/t4-,5+,6+,7-/m0/s1
