18
gdb 55479	3.28012	1.18443	0.91686	15.6602	73.16	-0.1678	-0.0223	0.1456	1239.2515	0.149489	-476.177733	-476.169522	-476.168578	-476.211413	30.684	
O	 0.1163316667	 0.0010170121	 0.4192602737	-0.435621
C	 0.0885898846	 1.1735077022	 0.0660247097	 0.348932
O	 0.9482544227	 2.0091367105	-0.2812786783	-0.487035
C	-1.3710364902	 1.8481804368	 0.0400378269	-0.03882
C	-1.3959539666	 2.8087262047	-1.1257136109	-0.211729
N	-2.7836925237	 3.4804626079	-1.2022014676	-0.26105
H	-2.8930727253	 4.0561309788	-0.3635421291	 0.300735
H	-2.8492672318	 4.103264688	-2.0102201259	 0.304428
C	-3.8848148069	 2.4483072638	-1.2349263653	-0.206974
C	-3.6865751929	 1.4891641271	-0.0551304968	-0.062438
O	-2.4256364195	 0.8935283774	-0.0815223098	-0.206413
H	-1.4971121773	 2.4082872931	 0.98462246	 0.07205
H	-0.636513327	 3.5773545968	-1.0074663018	 0.178219
H	-1.2676216704	 2.2919520976	-2.0789048055	 0.160858
H	-4.8459970201	 2.9677161827	-1.2003129488	 0.143095
H	-3.7814927249	 1.9191372311	-2.1846491282	 0.168931
H	-3.8588612709	 2.041168374	 0.8882965055	 0.094685
H	-4.4428705166	 0.7003946853	-0.1223306677	 0.138149
37.167	115.0174	191.4653	238.9382	290.8985	326.4175	420.3866	444.7047	473.6937	534.5479	639.8578	746.8823	778.4525	822.4155	844.3009	858.7552	868.4324	946.3704	1014.3889	1031.3717	1086.3666	1108.8411	1125.9559	1172.4629	1210.9743	1224.9713	1275.9125	1308.8595	1311.6945	1341.7288	1378.7042	1384.1957	1400.0765	1413.8778	1460.1157	1483.3638	1489.7223	1628.0531	1830.2045	2931.4168	2944.8521	3072.334	3082.1706	3102.6943	3139.5539	3198.5621	3409.6443	3476.3102
[O-]C(=O)C1C[NH2+]CCO1	[O]C(=O)[C@H]1C[NH2]CCO1	
InChI=1S/C5H9NO3/c7-5(8)4-3-6-1-2-9-4/h4,6H,1-3H2,(H,7,8)	InChI=1S/C5H9NO3/c7-5(8)4-3-6-1-2-9-4/h4H,1-3,6H2/t4-/m1/s1
