15
gdb 125811	2.72181	1.49225	0.9795	3.6809	68.38	-0.2633	-0.036	0.2273	1132.027	0.112751	-453.982293	-453.97393	-453.972986	-454.015784	30.335	
C	 0.05300784	 1.4717652003	 0.0726713917	-0.479945
C	 0.0021561706	-0.0200174525	 0.0671328539	 0.323336
N	 0.0081480041	-0.6805252952	-1.0637993065	-0.193814
O	-0.0561804754	-2.0395470835	-0.7209761385	-0.168027
C	-0.0920591489	-2.1442757621	 0.6054346349	-0.010977
C	-0.0527219506	-0.9148933571	 1.1908008782	-0.001207
C	-0.1063014765	-0.5277362702	 2.617395775	 0.308388
N	 0.1168191555	-1.5419372963	 3.5184018347	-0.540308
O	-0.3676948162	 0.6084551049	 2.9698784663	-0.361366
H	 0.9400576804	 1.8243496497	 0.6067659355	 0.145624
H	 0.0743173678	 1.8459492808	-0.9523230855	 0.140225
H	-0.8112359875	 1.8775131922	 0.6029626287	 0.160812
H	-0.1704968231	-3.1482164746	 0.9957386639	 0.156984
H	 0.6509424833	-2.3504618624	 3.245967544	 0.256347
H	 0.1992268165	-1.2528042538	 4.4813484237	 0.263929
53.1093	124.8373	171.312	194.0553	280.5178	311.8686	383.3137	415.1106	504.2611	536.5436	613.7295	659.7595	680.9955	699.7837	788.3574	867.4999	888.0695	934.8783	1031.5552	1070.1995	1087.8212	1141.7707	1177.0551	1285.311	1368.5476	1407.3394	1434.221	1467.8217	1473.1528	1529.9108	1619.7197	1630.6369	1778.7379	3057.858	3122.307	3151.0026	3252.6254	3584.9905	3711.3233
CC1=NOC=C1C(N)=O	Cc1nocc1C(=O)N	
InChI=1S/C5H6N2O2/c1-3-4(5(6)8)2-9-7-3/h2H,1H3,(H2,6,8)	InChI=1S/C5H6N2O2/c1-3-4(5(6)8)2-9-7-3/h2H,1H3,(H2,6,8)
