18
gdb 106938	3.96859	1.11217	0.99887	3.669	74.04	-0.2516	0.0256	0.2772	1203.9833	0.148641	-439.086507	-439.078211	-439.077267	-439.119596	31.284	
O	-0.0888709519	 1.3601200423	 0.4245869834	-0.421447
C	-0.0194875981	 0.0137840025	-0.027940979	-0.187361
C	-1.4151760008	-0.5376067159	-0.0271653066	 0.343095
C	-2.0094808946	-1.168353539	 1.1957787061	-0.322099
C	-1.7249840429	-2.0194637663	-0.0296100022	-0.19286
C	-2.8776697122	-2.1974759778	-0.950010096	 0.427952
N	-3.3457726506	-3.2998412182	-1.350685278	-0.553225
O	-3.3709214444	-0.9649119746	-1.3009561261	-0.25441
C	-2.431845743	 0.0764986649	-0.9780860421	-0.145095
H	 0.7834265106	 1.7550989937	 0.3324595031	 0.291502
H	 0.3990751408	-0.0385621748	-1.0461884942	 0.09356
H	 0.6209051733	-0.600264685	 0.6245280593	 0.091714
H	-1.3524221491	-1.3179270724	 2.0452134834	 0.123728
H	-3.0435152231	-0.9590551579	 1.4498537293	 0.130127
H	-0.9746695015	-2.7970492236	 0.0104437338	 0.114411
H	-4.1155980904	-3.1414765575	-2.0031652582	 0.221247
H	-2.9882472889	 0.9112180487	-0.5439464203	 0.128791
H	-1.9477005832	 0.4193217511	-1.9014728457	 0.110372
78.8607	117.702	168.2332	228.9554	268.048	347.1839	371.5631	378.8489	454.351	612.2027	672.435	713.155	759.431	819.3885	888.2209	912.5784	946.8949	955.7773	969.6476	1013.118	1031.5473	1057.3235	1072.603	1077.6969	1102.6673	1118.3796	1217.5781	1224.9024	1238.6483	1263.7045	1280.1158	1351.072	1386.6603	1415.7329	1470.038	1493.8944	1513.2795	1522.4514	1777.9579	2964.9479	2996.8273	3025.5417	3094.6124	3132.654	3214.2812	3224.2646	3473.2366	3826.6961
OCC12CC1C(=N)OC2	OC[C@]12C[C@H]1[C]([NH])OC2	
InChI=1S/C6H9NO2/c7-5-4-1-6(4,2-8)3-9-5/h4,7-8H,1-3H2	InChI=1S/C6H9NO2/c7-5-4-1-6(4,2-8)3-9-5/h4,7-8H,1-3H2/t4-,6-/m0/s1
