15
gdb 18550	4.22896	1.97915	1.58111	3.7243	66.33	-0.2341	0.0083	0.2425	803.601	0.121141	-362.697021	-362.690636	-362.689691	-362.72761	24.713	
O	-0.0091207715	-0.0142512411	-0.0875520973	-0.3592
C	 0.0055000249	 1.1838489534	-0.0263127426	 0.425953
N	-0.9844178026	 2.1305958173	 0.0881935559	-0.32493
C	-0.1079346776	 3.3061233958	 0.059809541	 0.027588
C	 0.0426040276	 4.0790507172	 1.3863447037	-0.27297
C	 1.2090504451	 3.396039643	 2.064241231	-0.058486
C	 1.7892510129	 2.4704404117	 1.2980513433	-0.06909
C	 1.095985269	 2.3050205288	-0.0231032677	-0.230891
H	-1.9829354123	 2.037419572	 0.2069915762	 0.247219
H	-0.2774524897	 3.9479727022	-0.8081475942	 0.086647
H	 0.2445538475	 5.1434843067	 1.2104504551	 0.111582
H	-0.87729808	 4.0327840549	 1.9832866509	 0.109588
H	 1.5207525538	 3.6494610647	 3.0717035514	 0.098982
H	 2.6379946699	 1.8608748152	 1.5842514623	 0.108112
H	 1.738878783	 2.3195387982	-0.9055414591	 0.099894
97.4268	185.1376	333.6132	379.9043	423.3245	501.0645	646.8105	687.559	737.6501	778.5239	825.2909	842.7137	885.8461	948.1452	961.0815	974.1777	1018.9657	1033.1954	1041.5249	1127.4557	1158.5207	1172.91	1181.0047	1236.9639	1280.2156	1315.6086	1341.1341	1376.9217	1388.9768	1474.0261	1673.9186	1895.4449	3020.6824	3049.8385	3076.3775	3098.3654	3187.5912	3215.2084	3601.7186
O=C1NC2CC=CC12	O=C1N[C@H]2CC=C[C@@H]12	
InChI=1S/C6H7NO/c8-6-4-2-1-3-5(4)7-6/h1-2,4-5H,3H2,(H,7,8)	InChI=1S/C6H7NO/c8-6-4-2-1-3-5(4)7-6/h1-2,4-5H,3H2,(H,7,8)/t4-,5+/m1/s1
