19
gdb 16770	5.00362	1.3647	1.20687	2.3161	71.42	-0.2379	0.0714	0.3093	1044.3666	0.166921	-365.034526	-365.026863	-365.025918	-365.066919	28.97	
C	 0.1253526164	 1.255658214	 0.2105549881	-0.236497
O	-0.135735305	-0.0913682089	-0.1055128733	-0.239149
C	 0.5735937583	-0.5659307453	-1.2276252422	 0.158224
C	 2.1016491991	-0.7764060214	-1.0033548659	-0.240391
C	 2.4471740503	-1.9934695913	-1.8499143631	-0.044247
N	 2.0714875538	-3.2693895507	-1.2051943849	-0.326166
C	 1.188798384	-2.6898448867	-2.2400203649	-0.044229
C	 0.0033101156	-1.9387295431	-1.6535153663	-0.244128
H	 1.1697298344	 1.4202134609	 0.5152093143	 0.106487
H	-0.0927378925	 1.9222652467	-0.639668423	 0.100129
H	-0.5267139789	 1.5256957348	 1.0450492764	 0.125525
H	 0.4460804868	 0.1463097808	-2.0614492819	 0.05858
H	 2.6844158936	 0.1010290873	-1.2972467325	 0.092781
H	 2.291585706	-0.9790090925	 0.0554926389	 0.118681
H	 3.3164554957	-1.9755987189	-2.4994800846	 0.082997
H	 2.6173951257	-4.0235427008	-1.6171948008	 0.226362
H	 1.0916194044	-3.2066283978	-3.1892554819	 0.083841
H	-0.3843312995	-2.4543889056	-0.7702852477	 0.124541
H	-0.8142867282	-1.8264803315	-2.3702762646	 0.096659
59.1647	106.0007	201.4805	254.7344	332.536	395.8708	440.7258	473.055	574.5501	681.246	771.1359	833.5182	849.3434	907.885	910.6009	950.0954	974.3936	1008.962	1059.4982	1080.268	1089.3595	1132.1631	1159.0799	1178.735	1184.5303	1196.2969	1214.3139	1238.7835	1262.5913	1287.8064	1316.6865	1335.7743	1382.7702	1393.2892	1421.9876	1475.0275	1479.6263	1484.8085	1492.934	1510.3756	2942.4601	2970.6033	3018.7944	3051.1847	3061.488	3099.6492	3109.277	3110.611	3154.0125	3164.9768	3485.0016
COC1CC2NC2C1	CO[C@H]1C[C@H]2N[C@H]2C1	
InChI=1S/C6H11NO/c1-8-4-2-5-6(3-4)7-5/h4-7H,2-3H2,1H3	InChI=1S/C6H11NO/c1-8-4-2-5-6(3-4)7-5/h4-7H,2-3H2,1H3/t4-,5+,6-
