21
gdb 72121	2.33589	2.1956	1.69533	0.1304	85.73	-0.2278	0.02	0.2478	934.1147	0.185969	-349.954541	-349.947651	-349.946707	-349.985105	30.127	
C	-0.0000609542	 1.5242600005	-6.6003*^-6	-0.504964
C	-0.0224348188	 0.0140849344	-0.0253586919	 0.364002
C	 0.1875090832	-0.805181408	-1.3204634914	-0.281951
C	-0.438911374	-1.9524641246	-0.4897944042	-0.047051
C	 0.6865336421	-2.2012460279	 0.5227045772	-0.212773
C	 0.7434328757	-0.743511518	 1.1235873486	-0.10498
C	-0.2698756289	-0.7543214579	 2.2522819581	-0.087688
C	-1.4879198421	-0.8751264244	 1.7092634186	-0.099462
C	-1.3277989134	-0.8174161567	 0.2207048466	-0.077332
H	 1.0139348349	 1.9049284037	-0.1709288196	 0.112257
H	-0.6466343914	 1.9429532505	-0.7786612678	 0.109672
H	-0.3417793698	 1.9065329579	 0.9675781297	 0.121261
H	-0.4661832913	-0.4487632082	-2.1220009866	 0.089181
H	 1.2025817259	-0.94633717	-1.7058327344	 0.082141
H	-0.9090831723	-2.8179356263	-0.9554624064	 0.059986
H	 0.4621338715	-2.9494582312	 1.2859350835	 0.091757
H	 1.6145341448	-2.4853500169	 0.0168641225	 0.091774
H	 1.7425154422	-0.3798937436	 1.3683174965	 0.0543
H	-0.0134162981	-0.8065581889	 3.3037504734	 0.089443
H	-2.4253951994	-1.0182635046	 2.2325371061	 0.090732
H	-2.1945121267	-0.5348150296	-0.3786614284	 0.059696
225.0458	243.5029	273.8216	368.5093	401.8667	460.5619	513.4506	598.328	623.2718	729.9844	756.4975	781.069	819.8948	832.8069	854.7335	887.821	901.2207	926.173	939.9433	955.7333	972.3185	988.1959	1019.0712	1033.426	1076.2597	1082.213	1116.2097	1125.0593	1153.8133	1180.2099	1206.1826	1223.265	1230.2716	1256.8244	1280.2234	1301.6343	1320.5839	1336.5241	1361.3773	1409.1951	1491.7611	1493.0267	1495.2343	1514.0384	1636.6107	3024.5375	3040.7166	3052.1647	3086.0961	3096.0867	3097.5235	3099.2837	3103.0841	3106.237	3120.9344	3190.3541	3216.2265
CC12CC3CC1C=CC23	C[C@@]12C[C@H]3C[C@@H]1C=C[C@@H]23	
InChI=1S/C9H12/c1-9-5-6-4-7(9)2-3-8(6)9/h2-3,6-8H,4-5H2,1H3	InChI=1S/C9H12/c1-9-5-6-4-7(9)2-3-8(6)9/h2-3,6-8H,4-5H2,1H3/t6-,7+,8-,9-/m1/s1
