15
gdb 46092	4.98983	1.03107	0.88388	4.3297	74.27	-0.2703	-0.0546	0.2157	1235.9081	0.112597	-420.630988	-420.623154	-420.62221	-420.663589	29.39	
O	-0.0555977469	 0.0352984829	 0.4664293916	-0.333205
C	-0.0196968422	 1.1632678246	 0.0519065411	 0.420963
O	-1.1833137379	 1.8285637493	-0.1940318225	-0.239257
C	-1.1297025171	 3.0345412792	-0.9604766345	-0.083504
C	-0.0589826913	 4.0064513051	-0.4344548807	-0.245712
C	 1.2456614014	 3.2452921966	-0.3205913118	-0.050315
C	 1.2373137402	 1.9236306011	-0.1445664232	-0.208373
C	 0.0435305184	 5.1742824028	-1.3026676776	 0.30287
C	 0.1176912688	 6.1222655093	-2.0367226344	-0.438168
H	-0.9148406098	 2.7968253719	-2.0091373768	 0.128204
H	-2.1266396999	 3.472682475	-0.8972194488	 0.13812
H	-0.354541274	 4.3410540689	 0.572247448	 0.139785
H	 2.1718739248	 3.8084040008	-0.3753216679	 0.130403
H	 2.1442706251	 1.3400526826	-0.0422960104	 0.130721
H	 0.1849007405	 6.9672867599	-2.676867892	 0.207468
73.1608	137.1877	181.7575	249.191	329.7498	408.5831	444.5333	478.7217	528.4883	596.3042	644.9639	664.7949	699.8674	740.6508	804.5394	844.3754	930.8048	1004.2009	1014.2922	1062.7722	1070.3316	1104.3092	1163.6814	1235.2282	1256.9687	1289.3239	1327.3289	1390.118	1419.2594	1503.7222	1690.3917	1833.034	2242.8807	2987.5989	3042.629	3127.1568	3183.564	3215.6439	3502.0603
O=C1OCC(C=C1)C#C	O=C1OC[C@@H](C=C1)C#C	
InChI=1S/C7H6O2/c1-2-6-3-4-7(8)9-5-6/h1,3-4,6H,5H2	InChI=1S/C7H6O2/c1-2-6-3-4-7(8)9-5-6/h1,3-4,6H,5H2/t6-/m1/s1
