21
gdb 104894	2.12691	1.40729	1.11012	1.9025	73.61	-0.2417	0.0684	0.3101	1203.4396	0.182557	-461.362921	-461.35335	-461.352406	-461.397786	35.493	
O	 0.8008142881	 0.2464396554	-0.83125207	-0.424468
C	-0.08872235	 0.448268853	 0.2584142861	-0.122045
C	-1.3745633436	-0.3802003101	 0.1219731233	 0.347945
C	-2.2390910762	 0.1126908354	-1.0460781487	-0.095289
O	-2.6956236816	 1.4325026865	-0.832147731	-0.428619
C	-1.1227451753	-1.8998441022	 0.0544836556	-0.279792
C	-2.1907513051	-2.4799330937	 0.997995617	-0.222833
C	-2.3220669704	-1.3698578848	 2.0406864275	-0.073397
O	-2.1501644339	-0.1491539865	 1.3221273191	-0.317484
H	 0.5362832771	 0.8364647284	-1.542764334	 0.293052
H	 0.4393141722	 0.129690542	 1.1633103167	 0.102975
H	-0.3571091903	 1.504560519	 0.3756297813	 0.108474
H	-1.6502460063	 0.1157444682	-1.9702986407	 0.098381
H	-3.078924492	-0.5856459676	-1.193155794	 0.081108
H	-3.0648696638	 1.4306983174	 0.0606029129	 0.290831
H	-1.2010815852	-2.285074493	-0.9651688901	 0.11014
H	-0.115437319	-2.132477899	 0.4124658477	 0.113196
H	-3.1408770825	-2.6158300426	 0.4712525436	 0.109289
H	-1.9055246741	-3.4412729873	 1.4322514115	 0.105255
H	-3.2966804951	-1.3392555354	 2.5370759969	 0.107685
H	-1.5471898731	-1.4646342032	 2.8168250393	 0.095595
51.3089	75.2692	147.1322	178.4946	231.8612	252.4062	273.1974	344.3533	382.1099	415.2748	499.5552	532.4963	595.4922	683.5849	763.2742	861.3136	877.833	889.379	932.3122	934.6502	1002.6551	1019.6168	1056.7724	1077.1846	1080.0684	1103.5882	1137.258	1189.6952	1200.9594	1205.7505	1248.9696	1260.2974	1304.2491	1327.9673	1341.1158	1378.088	1385.4592	1396.2816	1405.4663	1432.4375	1482.8791	1490.5623	1498.7483	1506.4083	1524.1969	2971.711	2985.8368	3034.8519	3051.7511	3059.4665	3065.3589	3079.573	3086.3107	3101.101	3113.2455	3771.423	3834.8496
OCC1(CO)CCCO1	OCC1(CO)CCCO1	
InChI=1S/C6H12O3/c7-4-6(5-8)2-1-3-9-6/h7-8H,1-5H2	InChI=1S/C6H12O3/c7-4-6(5-8)2-1-3-9-6/h7-8H,1-5H2
