12
gdb 11093	9.00151	1.08002	1.03315	2.312	60.02	-0.3145	-0.0429	0.2716	1047.3452	0.084044	-377.514314	-377.507124	-377.50618	-377.546743	24.612	
N	-0.4807813886	-1.0297665253	-0.5293507895	-0.301598
C	-0.1718850775	 0.0476558039	-0.2493331194	 0.280799
C	 0.1953266076	 1.4158798871	 0.1181340146	 0.005817
C	-0.1542171788	 1.8549160819	 1.5638867634	-0.31167
C	 1.3816842258	 1.9795005678	 1.7388637864	 0.005799
O	 1.6114036146	 1.5604064384	 0.3738588108	-0.270186
C	 1.8952657036	 3.323365285	 2.007458751	 0.280847
N	 2.2852856048	 4.3871443819	 2.2331154408	-0.30163
H	-0.138612125	 2.1010350712	-0.6681917999	 0.148912
H	-0.7081701114	 2.7891625702	 1.6326055738	 0.15699
H	-0.620476011	 1.090805647	 2.1828644303	 0.156989
H	 1.825994926	 1.276017261	 2.4508595577	 0.148931
37.5521	122.287	196.3916	232.5078	277.9009	473.4932	519.6411	555.0405	615.7125	749.9498	776.1332	902.2915	963.5453	1000.3775	1020.3673	1055.6526	1089.3009	1153.7459	1245.3587	1263.8962	1284.3914	1351.3788	1377.8625	1488.5013	2360.5103	2361.6632	3058.4676	3061.0516	3115.0672	3181.1914
N#CC1CC(O1)C#N	N#C[C@H]1C[C@@H](O1)C#N	
InChI=1S/C5H4N2O/c6-2-4-1-5(3-7)8-4/h4-5H,1H2	InChI=1S/C5H4N2O/c6-2-4-1-5(3-7)8-4/h4-5H,1H2/t4-,5-/m1/s1
