20
gdb 79043	3.63443	1.59391	1.36066	1.9129	82.57	-0.2178	0.0875	0.3053	1012.293	0.172992	-365.911087	-365.904072	-365.903128	-365.942054	29.347	
C	-0.1795759427	 1.5931756614	-0.1539555998	-0.4169
C	-0.0091142036	 0.1019763804	 0.0503650288	-0.044562
N	 1.1632052928	-0.5619104298	-0.7087876649	-0.204042
C	 2.1227480195	-0.153763229	 0.439927762	-0.017753
C	 2.5809699842	-1.5563853211	 0.8522306422	-0.086076
C	 2.4618989223	-1.5832508708	 2.4070393583	-0.225365
C	 1.1310929654	-0.766505886	 2.6795530274	-0.36234
C	 0.8210395682	-0.470213554	 1.2216758814	 0.300002
C	 1.1460390829	-1.7000142	 0.3378163723	-0.003146
H	 0.7427025123	 2.1439140983	 0.0531154354	 0.115801
H	-0.4734539016	 1.8007789677	-1.1878436589	 0.128828
H	-0.9621517606	 1.9852084723	 0.5045072421	 0.117843
H	-0.9489505405	-0.4280096321	-0.1509011535	 0.069389
H	 2.6838259752	 0.7809598808	 0.4133216143	 0.075719
H	 3.434724247	-2.0652942395	 0.4015182807	 0.067216
H	 2.3929411241	-2.6071885775	 2.7868608634	 0.103981
H	 3.3285240054	-1.1156914713	 2.8843705755	 0.103593
H	 0.3700470864	-1.3723531653	 3.1793403889	 0.102706
H	 1.3105052705	 0.1256056478	 3.2861382425	 0.102621
H	 0.5266339127	-2.5875120822	 0.1924718519	 0.072484
196.094	201.2023	221.2316	280.646	372.2217	471.4674	520.7017	662.0353	706.3356	770.864	774.0758	804.8967	823.2012	858.3	864.7932	896.2988	905.9341	923.0024	944.4833	974.4694	1022.1068	1049.0592	1064.6566	1079.9137	1114.9685	1130.8163	1151.2682	1182.7154	1185.0908	1202.3772	1214.3902	1230.7184	1254.0222	1258.577	1298.1682	1307.4354	1344.3364	1397.7653	1415.5457	1489.049	1492.0947	1492.9687	1509.454	3025.4573	3036.5274	3048.6197	3058.7832	3086.9264	3088.8325	3096.9467	3102.7283	3106.4191	3108.9674	3114.5884
CC1N2C3C4CCC13C24	C[C@H]1N2[C@@H]3[C@H]4CC[C@@]13[C@@H]24	
InChI=1S/C8H11N/c1-4-8-3-2-5-6(8)9(4)7(5)8/h4-7H,2-3H2,1H3	InChI=1S/C8H11N/c1-4-8-3-2-5-6(8)9(4)7(5)8/h4-7H,2-3H2,1H3/t4-,5-,6-,7+,8-/m1/s1
