17
gdb 35809	2.48443	1.72058	1.30273	1.4596	72.09	-0.2533	0.0289	0.2822	1003.3797	0.136438	-421.763742	-421.756029	-421.755085	-421.796521	29.28	
C	-0.3508359211	-1.1403639525	 0.1772086075	-0.480448
C	-0.1693448466	 0.0393643974	 0.0335935717	 0.370424
C	 0.0248781937	 1.4813970293	-0.1452495989	-0.109183
O	-0.6850018478	 2.23583666	 0.8400530812	-0.243033
C	 0.1636495303	 2.4011254395	 1.9737213204	-0.106865
C	 1.5865600119	 2.5273854565	 1.4078082193	 0.110058
O	 2.4992758554	 1.4856167348	 1.8155062729	-0.290967
C	 2.5926141121	 0.9846326386	 0.4623489195	-0.091742
C	 1.502226821	 1.958964823	-0.0253064351	-0.102251
H	-0.5195890818	-2.1814304657	 0.3041938117	 0.204138
H	-0.4006293294	 1.7724222542	-1.1110067875	 0.113879
H	-0.1858997164	 3.2879346163	 2.5076621332	 0.111744
H	 0.1230034062	 1.5304853932	 2.6426380334	 0.115382
H	 2.0258549667	 3.5215900808	 1.5394733834	 0.084992
H	 3.5823091352	 1.178698211	 0.0315907483	 0.099675
H	 2.3633905166	-0.0828731444	 0.3961438702	 0.121863
H	 1.7708640039	 2.6149358278	-0.8518891515	 0.092336
56.1105	111.9698	168.0869	249.4025	355.4307	400.2354	495.2727	556.4967	632.3379	658.5224	669.7369	704.3401	747.8744	856.3702	894.6309	912.8025	925.0754	964.0896	1009.6172	1032.5639	1065.6263	1083.0891	1099.4751	1110.154	1171.4717	1208.0226	1233.0301	1256.5151	1287.5698	1322.0458	1336.7164	1345.6013	1368.0289	1381.8462	1503.6952	1517.7755	2229.7479	3016.7419	3025.227	3051.7162	3056.4028	3089.2956	3104.7273	3123.054	3500.7072
C#CC1OCC2OCC12	C#C[C@H]1OC[C@H]2OC[C@@H]12	
InChI=1S/C7H8O2/c1-2-6-5-3-8-7(5)4-9-6/h1,5-7H,3-4H2	InChI=1S/C7H8O2/c1-2-6-5-3-8-7(5)4-9-6/h1,5-7H,3-4H2/t5-,6+,7+/m0/s1
