18
gdb 52908	2.50338	1.06039	0.84919	4.2891	86.06	-0.2601	0.0197	0.2799	1428.4163	0.146473	-364.793707	-364.78403	-364.783086	-364.830209	33.889	
C	 0.2192307879	 1.5926551374	-0.2687163408	-0.504209
C	 0.1225331945	 0.1480196181	-0.1237552363	 0.177058
C	 0.0521652715	-1.0487195026	-0.0135398596	-0.067903
C	-0.0650209424	-2.487640904	 0.1520674183	-0.015136
C	 0.035891438	-3.0713447134	 1.6177889102	-0.239911
C	-1.1493549828	-4.0164377771	 1.3027109209	-0.224175
C	-1.5124158387	-3.1207340676	 0.0930875584	-0.239913
C	 0.847641043	-3.1960275792	-0.7517780646	 0.25507
N	 1.5567759956	-3.7806875456	-1.4529565927	-0.345844
H	 0.9666817589	 1.8621986933	-1.02250715	 0.15869
H	-0.7381089345	 2.0254070804	-0.5786405687	 0.152747
H	 0.510337847	 2.0676100723	 0.6744168429	 0.152698
H	 0.9945055291	-3.510306942	 1.8958764242	 0.128016
H	-0.2292719354	-2.2902157896	 2.3323512693	 0.123208
H	-0.8091708971	-5.0061240673	 0.9893191837	 0.127569
H	-1.9082518584	-4.1352920035	 2.077206032	 0.110811
H	-2.2478735793	-2.3546052744	 0.34452595	 0.12321
H	-1.790343337	-3.5991401153	-0.8465107973	 0.128015
15.1762	78.6968	107.4029	112.8563	192.1179	222.6368	299.0198	311.2949	458.2825	473.3766	482.7864	566.2878	581.1781	683.7001	795.8781	854.9394	880.7187	933.5686	944.8147	969.0351	1018.5973	1052.0081	1053.6505	1068.1181	1153.5738	1209.544	1227.7541	1255.6325	1272.228	1281.561	1310.1553	1413.9298	1472.4002	1476.3051	1476.4558	1484.8107	1503.328	2352.608	2372.4604	3030.0807	3075.5164	3080.6103	3084.1686	3092.1055	3094.3289	3124.1348	3144.3531	3149.8807
CC#CC1(CCC1)C#N	CC#CC1(CCC1)C#N	
InChI=1S/C8H9N/c1-2-4-8(7-9)5-3-6-8/h3,5-6H2,1H3	InChI=1S/C8H9N/c1-2-4-8(7-9)5-3-6-8/h3,5-6H2,1H3
