19
gdb 98163	2.14329	1.36268	1.02342	0.8966	77.48	-0.2626	0.0165	0.2792	1252.7977	0.157171	-419.265489	-419.254819	-419.253875	-419.3018	37.295	
C	 0.0667179761	 1.6394587149	-0.5123374354	-0.340314
N	 0.1679398995	 0.2632308374	-0.9633041826	-0.34668
C	 0.3221653909	-0.7705156694	-0.1041878921	 0.460779
O	 0.3902765716	-0.6549631732	 1.1062878321	-0.391579
C	 0.417200369	-2.1993936984	-0.7250113059	-0.056704
C	 1.7803800825	-2.8029175065	-0.3114131268	-0.405009
C	-0.7438719233	-3.0424651708	-0.1464115385	-0.405002
C	 0.3183544213	-2.1657690323	-2.1879528925	 0.288924
N	 0.2371168493	-2.1043535985	-3.3405708737	-0.35961
H	 0.1378543299	 1.6369246446	 0.5754941149	 0.173468
H	 0.8777382597	 2.2484090859	-0.9252453021	 0.134356
H	-0.890274732	 2.0805931531	-0.8100377362	 0.134355
H	 0.1216372772	 0.0702579517	-1.9517983671	 0.271797
H	 1.8596119928	-2.7562835929	 0.7760072393	 0.154508
H	 1.8518623119	-3.8428240774	-0.6395364512	 0.131067
H	 2.6107579029	-2.2426522695	-0.7488790643	 0.135034
H	-1.7138586957	-2.6530326349	-0.4661995022	 0.135036
H	-0.6610389736	-4.081285954	-0.4753080035	 0.131066
H	-0.6894510599	-2.9982156497	 0.9426291077	 0.154508
34.074	69.3137	138.9399	142.9974	191.7729	218.5274	238.3884	271.704	278.2712	305.5375	348.9108	428.4037	504.9319	530.0032	585.7636	620.7146	764.3005	780.8224	871.8848	945.1944	958.0012	1037.2677	1061.5399	1143.0015	1159.4175	1172.6328	1204.7868	1246.0219	1265.6279	1390.2034	1412.098	1441.2024	1479.098	1486.7658	1494.4218	1497.8046	1500.1595	1507.8885	1574.5695	1779.0153	2340.459	3035.9118	3051.4089	3053.9141	3091.1171	3126.6723	3128.8993	3146.656	3150.3489	3159.3474	3623.4231
CNC(=O)C(C)(C)C#N	CNC(=O)C(C)(C)C#N	
InChI=1S/C6H10N2O/c1-6(2,4-7)5(9)8-3/h1-3H3,(H,8,9)	InChI=1S/C6H10N2O/c1-6(2,4-7)5(9)8-3/h1-3H3,(H,8,9)
