19
gdb 61511	3.54068	0.78584	0.67131	1.4638	73.42	-0.258	-0.0418	0.2162	1627.1871	0.153372	-460.171572	-460.160783	-460.159839	-460.209295	36.568	
C	 0.4836881154	 1.2880325947	 0.3297157499	-0.401137
C	 0.2126812142	-0.2108353416	 0.2188515672	 0.032802
O	-1.1589805512	-0.5640593671	 0.2111044356	-0.277282
C	-1.8399390568	-0.5816763675	 1.4557789715	 0.029152
C	-2.7537941896	 0.6253150065	 1.6541157458	-0.395766
C	-2.6206354851	-1.8975216049	 1.5121857615	 0.153181
O	-3.5704180653	-2.091196868	 2.222292669	-0.238942
C	 0.7968365135	-0.802343636	-1.0637327705	 0.147683
O	 1.8147847501	-0.4231801416	-1.5777806721	-0.23973
H	 1.5432150302	 1.4732446802	 0.1367174385	 0.146594
H	-0.1057110338	 1.8322573836	-0.4133926662	 0.134566
H	 0.2343275696	 1.6666356765	 1.323965101	 0.119955
H	 0.7257171927	-0.7367916627	 1.045913982	 0.100041
H	-1.1084092969	-0.6363926174	 2.280819642	 0.102367
H	-3.3707734231	 0.4693032536	 2.5421885523	 0.144758
H	-2.1763938667	 1.5444216829	 1.7721843353	 0.122111
H	-3.4137643631	 0.7368988592	 0.7894856119	 0.135473
H	-2.2132477116	-2.6767630955	 0.8302669346	 0.0893
H	 0.1939800675	-1.6410357849	-1.4747076991	 0.094873
29.6418	53.8349	71.5179	86.8093	186.0702	219.8795	230.4158	251.3186	269.9757	317.8831	370.3149	434.5662	459.9016	613.1992	618.7833	827.9131	832.4412	896.3785	911.6173	928.672	994.3943	1102.6913	1117.807	1127.8205	1137.6781	1153.8497	1171.5182	1311.7468	1316.2572	1331.3144	1365.8216	1382.1373	1397.1108	1402.36	1412.1725	1483.5918	1487.4986	1495.5924	1499.6543	1840.3098	1842.5884	2893.8337	2906.3601	2933.6316	2959.1195	3050.0545	3055.8851	3126.9556	3132.8341	3136.0379	3142.9182
CC(OC(C)C=O)C=O	C[C@@H](O[C@@H](C)C=O)C=O	
InChI=1S/C6H10O3/c1-5(3-7)9-6(2)4-8/h3-6H,1-2H3	InChI=1S/C6H10O3/c1-5(3-7)9-6(2)4-8/h3-6H,1-2H3/t5-,6+
