17
gdb 44547	3.46306	1.4749	1.39584	5.2228	71.34	-0.2311	0.0438	0.2749	967.5439	0.139252	-418.0046	-417.9978	-417.996856	-418.03589	27.59	
O	 0.0182545277	-0.0159139613	 0.149955169	-0.376766
C	-0.0317232336	 1.1887871356	 0.0650276594	 0.413689
C	-1.3017158222	 2.0576026278	 0.0265264335	-0.346858
C	-0.8053070761	 3.5050989121	 0.0464731481	-0.034986
C	-0.69975148	 4.2319608637	 1.4001356971	-0.057559
N	-0.0116627383	 3.3012485907	 2.3197616247	-0.327404
C	 0.788065671	 4.1387267448	 1.4015010714	-0.065853
C	 0.7670478698	 3.4266681198	 0.0252234571	-0.025351
N	 1.0579117792	 2.0250549428	-0.055815159	-0.283273
H	-1.8669774379	 1.8124551368	-0.8771509566	 0.123008
H	-1.9199835539	 1.7999605176	 0.8888271459	 0.139172
H	-1.2170112084	 4.1347463737	-0.7419446641	 0.083826
H	-1.3482322858	 5.0128228157	 1.7775511039	 0.097048
H	 0.0206606996	 3.7390853089	 3.2388964398	 0.23569
H	 1.5342002708	 4.8277670527	 1.778086123	 0.094842
H	 1.2532728159	 4.0134652279	-0.7585488095	 0.084293
H	 1.9808435222	 1.6372523207	 0.0637704164	 0.246481
86.6063	182.0066	298.3534	405.2193	465.3618	494.1709	581.6917	601.3587	645.6032	677.927	743.8458	817.9988	828.8517	853.9903	874.5165	897.465	913.6115	962.7974	1009.476	1029.8406	1063.029	1087.1057	1109.4795	1113.7521	1164.8725	1184.4032	1231.8826	1240.9497	1261.8056	1285.1576	1321.9766	1349.4476	1371.5556	1382.0897	1418.5574	1457.1331	1832.8641	3068.6419	3069.3432	3112.1298	3123.8802	3183.0005	3196.9577	3490.0982	3633.7032
O=C1CC2C3NC3C2N1	O=C1C[C@H]2[C@H]3N[C@H]3[C@H]2N1	
InChI=1S/C6H8N2O/c9-3-1-2-4(7-3)6-5(2)8-6/h2,4-6,8H,1H2,(H,7,9)	InChI=1S/C6H8N2O/c9-3-1-2-4(7-3)6-5(2)8-6/h2,4-6,8H,1H2,(H,7,9)/t2-,4+,5-,6+/m1/s1
