22
gdb 123071	7.98321	0.39195	0.38924	2.5041	85.51	-0.2477	0.0234	0.271	2779.6414	0.191335	-441.472133	-441.460579	-441.459635	-441.511027	38.57	
C	-0.0779414905	 1.3979397683	-0.0250646014	-0.248663
O	-0.0009338946	-0.0191191897	 0.0605180481	-0.192368
C	 0.5858878121	-0.6334539842	-0.9864073524	 0.127685
N	 0.6996716231	-1.8851714588	-1.0168462908	-0.208931
C	 1.3525638807	-2.4718954286	-2.1718679842	-0.1588
C	 2.5859532617	-3.2798431734	-1.7513471656	-0.171444
C	 3.258225856	-3.9874543213	-2.9301237266	-0.165664
C	 4.4776845414	-4.7992290379	-2.5145860763	-0.073488
O	 5.0241094609	-5.3997995415	-3.6800205398	-0.422401
H	 0.9182851022	 1.8531392681	-0.0871155355	 0.125957
H	-0.6745344283	 1.7176206495	-0.888332905	 0.126711
H	-0.566723079	 1.7351077085	 0.889719504	 0.146153
H	 0.9363852621	 0.0494582698	-1.7777666614	 0.07011
H	 0.6381163578	-3.1475557105	-2.6610669732	 0.105993
H	 1.6434441532	-1.715528533	-2.92341212	 0.077389
H	 3.298626031	-2.6048664399	-1.2596350006	 0.093053
H	 2.2783710241	-4.0087521545	-0.9920461945	 0.109918
H	 2.5468125941	-4.6606110512	-3.4245423321	 0.104957
H	 3.571803617	-3.2569819306	-3.6864964108	 0.102059
H	 5.2132123702	-4.140235093	-2.0240238002	 0.082376
H	 4.1816475356	-5.5610987008	-1.7748528934	 0.085105
H	 5.7880608692	-5.9217523752	-3.4185687585	 0.284294
37.0173	52.426	60.579	100.2565	120.8476	141.6093	160.8432	208.8819	264.5711	267.1064	302.3411	375.6749	455.181	500.8909	618.0849	750.5882	809.9549	940.6804	981.5238	996.4614	1040.0038	1045.3631	1062.4486	1075.8293	1095.1858	1172.9931	1177.2426	1179.7355	1213.7775	1229.5259	1276.634	1287.9197	1295.1688	1315.0291	1323.9983	1366.333	1394.3722	1416.5274	1463.3953	1484.8536	1487.0595	1493.8772	1494.869	1501.4242	1509.7824	1529.2169	1776.0581	2936.206	2957.9714	2979.5189	2983.2673	3013.5306	3018.9188	3024.8777	3032.6475	3055.7123	3074.5276	3079.8481	3144.2223	3830.7969
COC=NCCCCO	COC=NCCCCO	
InChI=1S/C6H13NO2/c1-9-6-7-4-2-3-5-8/h6,8H,2-5H2,1H3	InChI=1S/C6H13NO2/c1-9-6-7-4-2-3-5-8/h6,8H,2-5H2,1H3
