19
gdb 61423	2.93729	0.96321	0.85445	1.2693	73.12	-0.2497	-0.0194	0.2303	1439.5428	0.154284	-460.224954	-460.213934	-460.21299	-460.263398	36.867	
C	-0.1804157707	 1.4881059428	-0.0334000017	-0.417232
C	-0.0146040101	-0.0356321057	-0.0100777233	 0.028313
O	 0.6391676318	-0.4692074537	-1.2092368475	-0.233061
C	-0.1567500008	-0.773269127	-2.2598806604	 0.432588
C	 0.6766076593	-1.2209732141	-3.43490419	-0.478102
O	-1.3596271006	-0.6922641089	-2.2407705036	-0.356664
C	 0.8487515733	-0.4881011858	 1.1749486681	 0.367731
C	 0.1322259939	-0.5602673679	 2.5115920368	-0.487161
O	 2.0139058634	-0.7686783505	 1.0471851894	-0.284493
H	 0.7944543211	 1.970438193	-0.1458272634	 0.141187
H	-0.8205156308	 1.7688656766	-0.8727898025	 0.148666
H	-0.6478747228	 1.850302164	 0.8863224858	 0.126412
H	-1.0001839796	-0.5084821048	 0.0446968945	 0.118307
H	 1.2963851005	-2.07537396	-3.1499259606	 0.156267
H	 0.0224911473	-1.4887794253	-4.2635965453	 0.147178
H	 1.3541502559	-0.4175400479	-3.7377183889	 0.152946
H	-0.4911352876	 0.3206543495	 2.692164808	 0.13864
H	-0.5376110853	-1.4288692287	 2.5119253235	 0.150786
H	 0.862340072	-0.6736810156	 3.3135666711	 0.147692
28.0186	44.5926	56.6055	94.9975	105.0999	159.0535	217.441	233.6819	309.7403	320.1656	389.1133	477.3735	587.8966	601.6387	614.3857	631.9811	791.4935	867.4764	942.2539	959.5997	994.2446	1020.7696	1064.8862	1072.0092	1114.8918	1128.6976	1194.9997	1267.4239	1330.9152	1372.3004	1384.1911	1397.9082	1402.672	1462.7174	1468.3537	1474.6123	1474.7434	1487.6849	1500.5261	1816.2987	1832.367	3037.4581	3049.5411	3058.6091	3068.9679	3101.6575	3124.07	3126.2744	3135.6302	3154.6984	3170.1073
CC(OC(C)=O)C(C)=O	C[C@@H](OC(=O)C)C(=O)C	
InChI=1S/C6H10O3/c1-4(7)5(2)9-6(3)8/h5H,1-3H3	InChI=1S/C6H10O3/c1-4(7)5(2)9-6(3)8/h5H,1-3H3/t5-/m1/s1
