19
gdb 99036	4.71022	0.73907	0.64647	2.8489	79.95	-0.2507	-0.0165	0.2343	1712.917	0.156844	-456.380802	-456.3702	-456.369256	-456.417658	36.479	
C	-0.9288298876	 1.7724426673	-0.9352140302	-0.32745
N	-0.5318348475	 0.3915755922	-1.0659944292	-0.279965
C	-0.6102583427	-0.4504440942	-0.1180492947	 0.370948
C	-1.0970402556	-0.2731103804	 1.2953194148	-0.462605
N	-0.164277707	-1.7446977307	-0.4775754656	-0.356364
C	-0.0909239489	-2.9004225382	 0.2435390075	 0.393522
O	-0.4196259164	-3.0363761104	 1.4107654428	-0.383465
C	 0.4606400108	-4.1052645259	-0.5294622359	-0.142246
O	 0.4928950488	-5.227607524	 0.297123437	-0.418526
H	-0.0719131062	 2.4131970718	-1.1748083013	 0.132548
H	-1.7007971779	 1.9929647374	-1.6820235279	 0.132546
H	-1.3128082134	 2.0745962653	 0.047534852	 0.109329
H	-1.4157637013	 0.7527953206	 1.4722583137	 0.127672
H	-1.9280809815	-0.951485484	 1.500675722	 0.16053
H	-0.3103134963	-0.5361260055	 2.0058268997	 0.16061
H	 0.1433981616	-1.7724094748	-1.441527254	 0.256663
H	-0.1742972137	-4.2781480417	-1.4138384782	 0.115262
H	 1.4670851542	-3.8547229779	-0.9028519049	 0.115263
H	 0.1462221004	-4.914212977	 1.1497655224	 0.29573
48.2404	72.9785	77.6605	100.371	144.0408	149.5417	267.9484	302.9041	329.8462	387.4214	393.7044	431.2451	531.3227	588.4016	595.8781	708.6381	736.5449	805.0243	944.7084	987.647	1033.1972	1057.4184	1115.123	1133.0979	1137.7735	1149.571	1220.5425	1248.9274	1306.8095	1314.8954	1409.8534	1440.6433	1457.1488	1467.8627	1472.3673	1484.9468	1501.8444	1507.3447	1538.7552	1752.6392	1776.5362	2970.6975	2989.7725	3006.2685	3066.5366	3071.5359	3073.3832	3132.1007	3166.4197	3581.2007	3657.4465
CN=C(C)NC(=O)CO	CN=C(C)NC(=O)CO	
InChI=1S/C5H10N2O2/c1-4(6-2)7-5(9)3-8/h8H,3H2,1-2H3,(H,6,7,9)	InChI=1S/C5H10N2O2/c1-4(6-2)7-5(9)3-8/h8H,3H2,1-2H3,(H,6,7,9)
