14
gdb 45654	3.39415	1.65141	1.30245	3.0642	67.84	-0.2211	-0.0275	0.1936	926.1043	0.101983	-436.64372	-436.637163	-436.636219	-436.674731	25.815	
O	-0.1754446971	-0.0473717808	-0.0493551422	-0.35486
C	-0.018858241	 1.1423371675	 0.0526900673	 0.405309
N	-1.0565492724	 2.081535409	 0.2162771797	-0.31223
C	-0.5853839101	 3.3767971377	 0.4339912312	-0.045915
C	 0.7315988641	 3.4326923348	 0.1649871457	 0.030041
C	 1.964460934	 3.7427105569	 0.9937384233	-0.052123
O	 1.8900414154	 2.8274748414	 2.1167922914	-0.232054
C	 2.3873019337	 2.3303929753	 0.8805733435	 0.013322
C	 1.2237442152	 2.0253269754	-0.1170954366	-0.209325
H	-2.019844055	 1.791827293	 0.2813427154	 0.264993
H	-1.2432848391	 4.1158278663	 0.8726294362	 0.136539
H	 2.5390961265	 4.6489470239	 1.1299995382	 0.117337
H	 3.3714675905	 1.87718109	 0.8774862464	 0.115707
H	 1.6387646753	 1.8617999097	-1.1176848293	 0.123257
125.3318	160.807	328.7816	348.1562	507.0472	526.1167	555.7912	633.8851	660.6525	725.2176	746.6945	827.5949	838.825	861.0558	883.473	924.8173	960.1005	1011.6399	1038.5295	1070.4097	1115.0349	1143.4356	1154.4844	1218.0305	1244.7872	1255.968	1327.0067	1356.9786	1396.1842	1647.0057	1845.0478	3060.9511	3189.192	3214.9946	3217.5221	3643.6679
O=C1NC=C2C3OC3C12	O=C1N[CH][C]2[C@H]3O[C@H]3[C@@H]12	
InChI=1S/C6H5NO2/c8-6-3-2(1-7-6)4-5(3)9-4/h1,3-5H,(H,7,8)	InChI=1S/C6H5NO2/c8-6-3-2(1-7-6)4-5(3)9-4/h1,3-5H,(H,7,8)/t3-,4+,5-/m0/s1
