18
gdb 105337	2.30769	1.5143	1.14052	2.7057	77.48	-0.2333	0.0493	0.2825	1119.753	0.146474	-401.854237	-401.845431	-401.844487	-401.887481	33.725	
O	 0.1560343882	 1.3679806908	-0.0581649764	-0.414807
C	 0.0433646278	-0.0269971348	 0.160485811	-0.128048
C	-1.4081212628	-0.5262070027	 0.0639446664	 0.103595
C	-2.0796257517	-0.4646953328	-1.3789284818	-0.287663
C	-2.2371210705	-1.9855020537	-1.3322537768	-0.021543
N	-0.8673361722	-2.538094332	-1.2031505887	-0.34139
C	-1.590741672	-2.0673205131	 0.0011667303	-0.10561
C	-2.25607069	 0.0702607253	 1.0826234217	 0.284258
C	-2.9594899663	 0.5392572829	 1.9377124475	-0.44387
H	-0.0557974774	 1.5395001514	-0.9812248499	 0.283698
H	 0.6522960421	-0.6055447936	-0.5442215448	 0.114246
H	 0.4220273221	-0.2054050476	 1.1719013272	 0.111523
H	-3.022129603	 0.081893821	-1.3641854666	 0.125868
H	-1.4423527505	-0.0948835251	-2.1879440434	 0.097645
H	-3.0381342728	-2.5799130362	-1.7526985563	 0.097355
H	-0.9449640213	-3.5546700444	-1.2147981331	 0.232228
H	-1.7814601556	-2.721320454	 0.842584377	 0.101079
H	-3.572463644	 0.9681014385	 2.6912116269	 0.191435
99.3499	132.4867	162.9456	178.7104	235.7983	303.7525	376.9823	394.7187	477.6709	523.8443	541.8779	624.2485	629.4665	655.1655	763.3762	820.1835	842.5529	901.6155	909.8718	948.9421	970.7526	1004.7979	1026.4189	1061.6546	1085.7847	1111.4965	1131.9838	1148.4084	1203.9236	1238.7636	1279.2544	1289.9035	1320.0098	1374.7589	1388.296	1413.4331	1468.253	1505.9242	2233.1931	3033.3461	3057.4625	3089.0557	3141.6459	3190.8691	3204.2423	3475.9569	3503.0702	3818.5626
OCC1(CC2NC12)C#C	OC[C@]1(C[C@H]2N[C@@H]12)C#C	
InChI=1S/C7H9NO/c1-2-7(4-9)3-5-6(7)8-5/h1,5-6,8-9H,3-4H2	InChI=1S/C7H9NO/c1-2-7(4-9)3-5-6(7)8-5/h1,5-6,8-9H,3-4H2/t5-,6-,7-/m1/s1
