18
gdb 84599	2.45485	1.59425	1.21571	4.2289	81.53	-0.2519	-0.0043	0.2476	1074.5664	0.14876	-364.832163	-364.82417	-364.823226	-364.864449	31.122	
C	-0.1731138215	 1.5646932264	 0.0487358008	-0.402582
C	 0.0255645449	 0.044001002	-0.003412261	-0.102419
C	 0.8482474849	-0.4540169778	-1.1759321319	-0.085626
C	 1.8324988114	-1.2773911874	-0.8123038059	-0.086981
C	 1.9174462449	-1.426708618	 0.6694991411	-0.120139
C	 2.2353268236	-0.1620759381	 1.424110948	-0.314599
C	 0.779492526	-0.5461755803	 1.2079729934	 0.182195
C	 0.0115688333	-0.9402849382	 2.3515123724	 0.208415
N	-0.6267246689	-1.2463640584	 3.2675257293	-0.353863
H	 0.7839072529	 2.0922968968	 0.102193564	 0.120399
H	-0.6998736462	 1.9145719777	-0.8446122073	 0.120817
H	-0.7689435888	 1.8471999288	 0.921758657	 0.134606
H	-0.9700711235	-0.419999909	-0.0403214362	 0.104847
H	 0.6331944662	-0.1422659692	-2.1919198973	 0.104522
H	 2.5295061087	-1.7658114197	-1.483021001	 0.109173
H	 2.1492939331	-2.3829675054	 1.1238453803	 0.115927
H	 2.6038476239	-0.2562784791	 2.4393199694	 0.13789
H	 2.6265063251	 0.6799293688	 0.864275235	 0.127418
111.8628	156.069	207.232	225.8669	260.4556	365.6386	417.2877	495.9773	546.218	565.9951	603.873	695.1523	748.0031	779.1178	851.4578	857.0174	902.4633	935.674	965.314	991.6009	1040.4941	1051.4374	1074.8615	1083.3763	1099.5812	1119.2779	1155.8195	1221.9463	1248.3309	1305.575	1334.7489	1360.7884	1392.2619	1412.7648	1471.4645	1497.5404	1497.7455	1672.0054	2346.6534	3006.4162	3039.8841	3109.0179	3115.8223	3137.7282	3182.9446	3190.597	3214.34	3232.3238
CC1C=CC2CC12C#N	C[C@H]1C=C[C@H]2C[C@@]12C#N	
InChI=1S/C8H9N/c1-6-2-3-7-4-8(6,7)5-9/h2-3,6-7H,4H2,1H3	InChI=1S/C8H9N/c1-6-2-3-7-4-8(6,7)5-9/h2-3,6-7H,4H2,1H3/t6-,7-,8+/m0/s1
