20
gdb 116102	3.04405	1.08407	0.85861	2.7975	76.49	-0.2172	-0.0172	0.2	1361.6653	0.171462	-440.292119	-440.283037	-440.282092	-440.326485	33.398	
C	 0.003050925	 1.3724768102	 0.1406019503	-0.243405
O	-0.0859914673	-0.0216519179	-0.0602437501	-0.2379
C	 0.6338451927	-0.5092386395	-1.1775065863	 0.108685
C	 2.139222664	-0.6791378987	-0.8935718961	-0.191621
N	 2.8657219642	-1.3055446202	-1.9966109886	-0.285519
C	 2.3264301842	-2.6207225226	-2.3582667088	-0.257938
C	 0.8184372895	-2.5992099722	-2.6159741968	 0.367394
O	 0.3121587407	-3.1118568976	-3.5865061602	-0.304576
C	 0.0117670163	-1.8614188093	-1.5549784491	-0.314062
H	 1.0209032128	 1.7013922712	 0.3945032971	 0.110122
H	-0.3292468752	 1.9305248244	-0.7483000982	 0.108547
H	-0.6571422876	 1.6175433118	 0.9760111511	 0.132493
H	 0.5170914789	 0.1888094843	-2.0258947755	 0.066053
H	 2.6035847366	 0.2880261635	-0.6777799519	 0.104642
H	 2.2565274192	-1.3024692259	 0.0029359384	 0.113319
H	 2.8457572675	-0.6984871846	-2.8108769261	 0.224375
H	 2.8331514434	-3.0035430991	-3.2469492377	 0.125648
H	 2.5296927294	-3.3146160102	-1.5292591652	 0.121646
H	 0.0029322743	-2.4802690621	-0.6462321967	 0.128273
H	-1.0198531485	-1.7470858157	-1.8939803895	 0.123824
65.1789	96.1749	115.0256	177.2037	234.6049	290.2261	344.8162	389.3464	430.248	456.6335	505.8509	520.7202	663.7238	751.9035	826.9867	852.4053	912.0976	914.9986	974.3367	1014.2497	1095.5755	1109.4892	1128.8637	1145.5453	1147.6146	1181.549	1218.2976	1236.6275	1264.5833	1281.6484	1321.1772	1331.6656	1347.6188	1373.2055	1398.718	1457.8401	1468.1993	1480.1658	1483.4653	1491.5559	1492.831	1509.4686	1817.5673	2942.7249	2981.4042	3005.4797	3021.1905	3026.133	3032.3681	3083.3143	3111.8145	3115.1774	3115.9031	3507.5775
COC1CNCC(=O)C1	CO[C@H]1CNCC(=O)C1	
InChI=1S/C6H11NO2/c1-9-6-2-5(8)3-7-4-6/h6-7H,2-4H2,1H3	InChI=1S/C6H11NO2/c1-9-6-2-5(8)3-7-4-6/h6-7H,2-4H2,1H3/t6-/m1/s1
