19
gdb 58957	2.64731	1.37759	1.13877	0.557	70.74	-0.2399	0.0496	0.2896	1139.0072	0.157661	-460.112102	-460.103007	-460.102063	-460.145815	34.393	
C	-0.0171885386	 1.4649278525	-0.2249928114	-0.404057
C	 0.0348098982	-0.0349632133	 0.090706846	 0.005163
O	 0.5764530912	-0.2777355433	 1.3827171371	-0.429964
C	-1.3203951912	-0.6672494736	-0.0288659206	 0.403282
O	-2.2777138825	-0.2734634609	 0.9852771259	-0.355686
C	-2.7443877442	-1.65615952	 1.0970922723	-0.107629
C	-1.8596749064	-2.0961188501	-0.0560977235	-0.240583
C	-2.083685939	-1.1378706482	-1.2187883609	 0.066238
O	-3.3264945301	-0.6067135195	-1.5497617919	-0.438523
H	 0.970838536	 1.9074612113	-0.076768031	 0.125053
H	-0.3333861044	 1.6397406874	-1.2582826425	 0.120947
H	-0.7264262299	 1.9700171993	 0.4391768174	 0.12532
H	 0.7087585679	-0.5358393883	-0.6143016534	 0.094576
H	-0.104483341	-0.0071529387	 2.0109502186	 0.285492
H	-2.4573989501	-2.0723889876	 2.0669716002	 0.120382
H	-3.8282065319	-1.7317240958	 0.9579785428	 0.116238
H	-1.3454347324	-3.0435683179	-0.1459457728	 0.106327
H	-1.4908416186	-1.3707115446	-2.099261997	 0.110768
H	-3.5546956129	 0.0052624813	-0.8367892251	 0.296657
70.6451	117.759	180.9115	220.762	243.8587	269.0273	322.8293	338.4576	411.1663	442.0859	485.1361	541.8109	649.0805	710.6336	790.9571	830.6389	888.9941	914.18	958.4155	970.9146	987.3314	1008.3843	1030.0069	1083.0184	1098.7936	1107.4556	1120.4385	1165.7784	1190.0903	1240.3517	1286.9985	1309.5655	1328.2841	1338.8528	1381.2271	1399.2398	1426.992	1479.4818	1492.0358	1502.0078	1512.7208	3037.8335	3040.1955	3047.4104	3095.0367	3109.7577	3126.0112	3156.3321	3204.3389	3755.1906	3785.8779
CC(O)C12OCC1C2O	C[C@@H](O)[C@]12OC[C@H]1[C@H]2O	
InChI=1S/C6H10O3/c1-3(7)6-4(2-9-6)5(6)8/h3-5,7-8H,2H2,1H3	InChI=1S/C6H10O3/c1-3(7)6-4(2-9-6)5(6)8/h3-5,7-8H,2H2,1H3/t3-,4+,5-,6+/m1/s1
