16
gdb 38036	3.70645	1.66847	1.32833	2.3887	68.42	-0.2411	0.004	0.2452	938.5627	0.127304	-437.869037	-437.862666	-437.861722	-437.899737	25.629	
C	 0.1243705611	 1.5238577875	-0.0208547747	-0.286801
C	 1.3546991504	 0.6618836454	-0.0216496117	-0.000576
N	 1.983819936	 0.5533701443	 1.2909709522	-0.305322
C	 1.1707711896	-0.1297362823	 1.9812856637	 0.389774
O	 1.0548682281	-0.2379641387	 3.3163185213	-0.250729
C	-0.3012467793	-0.7132510399	 3.5286885703	 0.017748
O	-1.0275556582	-0.4721534885	 2.3480532659	-0.261025
C	-0.0575351841	-0.711731935	 1.3185196731	 0.019037
C	-0.0528815929	 0.0199276903	 0.0082145704	-0.113929
H	-0.0812902069	 2.0997463623	 0.8751350312	 0.131717
H	-0.1619359287	 2.0073811448	-0.9487710547	 0.120017
H	 2.0014876108	 0.6137551367	-0.8888106055	 0.100196
H	-0.2508954878	-1.7865382969	 3.7673177406	 0.110978
H	-0.7408309082	-0.147582066	 4.3521873045	 0.139516
H	 0.0320096945	-1.7978989341	 1.1533034932	 0.09289
H	-0.4619638145	-0.46862606	-0.8660184399	 0.09651
162.6292	192.399	258.1807	452.034	456.018	511.3797	648.7441	655.3666	727.9829	754.9109	786.0482	816.7403	882.2489	917.5768	937.6054	959.4501	1012.9624	1046.7431	1067.3865	1069.7148	1093.6836	1101.0819	1123.2706	1153.8221	1187.783	1225.5412	1252.5144	1308.9512	1327.5806	1365.2802	1387.7791	1437.1658	1474.9129	1531.9257	1759.8917	2971.8956	2991.8907	3119.8571	3132.8797	3191.7352	3201.0183	3223.6329
C1C2N=C3OCOC3C12	C1[C@H]2[N][C]3OCO[C@H]3[C@@H]12	
InChI=1S/C6H7NO2/c1-3-4(1)7-6-5(3)8-2-9-6/h3-5H,1-2H2	InChI=1S/C6H7NO2/c1-3-4(1)7-6-5(3)8-2-9-6/h3-5H,1-2H2/t3-,4+,5-/m0/s1
