20
gdb 16700	3.32253	1.85385	1.59383	1.2352	74.29	-0.2559	0.0834	0.3392	910.5109	0.179002	-348.994633	-348.987231	-348.986287	-349.025716	29.93	
C	-0.1696401678	 1.5184837092	 0.009392285	-0.437668
C	-0.0002568585	 0.0044704783	 0.0054880413	 0.06382
C	 1.1265548198	-0.5997340564	-0.8958354668	-0.020499
C	 2.1148112896	-0.295500708	 0.2689088764	-0.243624
C	 0.8704149994	-0.6282177629	 1.1412976557	-0.028319
C	 0.7003380055	-2.1277210005	 0.8592931859	 0.136971
O	-0.5862695105	-2.5514876805	 1.2821420794	-0.443269
C	 0.9003067054	-2.1107020323	-0.6994703793	-0.263124
H	 0.7725603512	 2.0598744149	 0.1334443498	 0.113531
H	-0.621070697	 1.8567564822	-0.9300542278	 0.112506
H	-0.8359986579	 1.8275725644	 0.8222653299	 0.116745
H	-0.9805242611	-0.4670145589	-0.1123491242	 0.07435
H	 1.3017330865	-0.2439631416	-1.9126821752	 0.052808
H	 2.9961872792	-0.9376460516	 0.3683735549	 0.084571
H	 2.4193015455	 0.7488223184	 0.3311402548	 0.100708
H	 0.7838227473	-0.3172414708	 2.1829773937	 0.059194
H	 1.4773820576	-2.7202039853	 1.3632972384	 0.059198
H	-0.7049126388	-3.4654278281	 1.0060779051	 0.279885
H	 0.0013669604	-2.4753716804	-1.2066884836	 0.092264
H	 1.7533725943	-2.7135696402	-1.0258126134	 0.089954
169.5181	198.8761	259.7551	268.5485	282.2289	374.8696	454.2757	481.0045	537.5767	669.187	775.3474	831.5727	836.665	847.2323	873.1455	938.2344	954.8404	975.8045	994.7345	1033.7817	1049.0694	1075.5212	1088.4051	1104.1576	1111.3254	1145.2774	1194.6669	1203.3581	1230.5217	1255.9378	1256.4697	1273.067	1290.5545	1315.1366	1346.7189	1403.0025	1415.624	1422.9865	1485.5893	1497.8028	1499.3818	1520.8511	2989.5355	3031.372	3043.6275	3051.6301	3059.8014	3088.5802	3091.9914	3096.5431	3107.7483	3110.9855	3136.8417	3821.3569
CC1C2CC1C(O)C2	C[C@H]1[C@H]2C[C@@H]1[C@@H](O)C2	
InChI=1S/C7H12O/c1-4-5-2-6(4)7(8)3-5/h4-8H,2-3H2,1H3	InChI=1S/C7H12O/c1-4-5-2-6(4)7(8)3-5/h4-8H,2-3H2,1H3/t4-,5-,6-,7-/m0/s1
