19
gdb 120074	5.68304	0.87816	0.86691	2.3252	75.89	-0.2305	0.0804	0.3109	1399.8344	0.157993	-422.919184	-422.911054	-422.91011	-422.952663	30.645	
C	 0.0180611308	 1.5187020753	 0.0620208964	-0.384599
C	 0.261050552	 0.0223393096	-0.0342423619	-0.039384
O	 0.3528644582	-0.5032997659	 1.278844775	-0.265898
C	 0.5363390629	-1.8917835628	 1.321068377	 0.13044
C	 1.9755100358	-2.4412898279	 1.1701284882	-0.140888
C	 2.3342617767	-2.0321695529	 2.6368113356	 0.10112
O	 2.8299471682	-3.3520737783	 3.0102153078	-0.327921
C	 1.675341864	-3.6111316912	 2.1576450546	 0.081575
C	 0.8249964508	-2.4324599814	 2.7246205863	-0.141849
H	 0.8408111273	 2.0077741813	 0.5912411909	 0.12698
H	-0.0619464892	 1.9573966586	-0.9370127456	 0.115443
H	-0.9079564345	 1.722046922	 0.6072283702	 0.127765
H	-0.5620654126	-0.4699100151	-0.5787535625	 0.087604
H	 1.1871587323	-0.1837503939	-0.5946556996	 0.08943
H	-0.2406005971	-2.411767489	 0.7406635369	 0.065003
H	 2.6490362753	-2.4695853791	 0.3144929693	 0.084745
H	 2.847597475	-1.1510308944	 3.0147643379	 0.104827
H	 1.3915914093	-4.6426054419	 1.9544412544	 0.097421
H	 0.1966658747	-2.439551163	 3.6138862491	 0.088184
64.4684	81.3832	130.6564	228.9107	264.2272	343.8489	385.9274	555.2659	601.364	748.4353	788.2205	801.3892	819.9098	837.4915	863.2568	887.1957	912.0734	925.0136	960.9002	981.7973	1029.2814	1056.234	1106.4601	1125.3414	1135.9632	1145.966	1161.2088	1167.2872	1174.9899	1182.4049	1190.0061	1257.6017	1289.0163	1296.9705	1332.6526	1379.0091	1405.0594	1444.6997	1483.0381	1499.9054	1529.033	2961.8754	2990.0969	2992.1046	3045.2612	3119.9993	3121.8009	3123.2116	3131.2085	3137.3719	3153.9583
CCOC1C2C3OC2C13	CCO[C@H]1[C@H]2[C@@H]3O[C@H]2[C@H]13	
InChI=1S/C7H10O2/c1-2-8-5-3-6-4(5)7(3)9-6/h3-7H,2H2,1H3	InChI=1S/C7H10O2/c1-2-8-5-3-6-4(5)7(3)9-6/h3-7H,2H2,1H3/t3-,4+,5-,6-,7+
