18
gdb 93128	2.01501	1.84713	1.28863	3.8002	72.09	-0.2495	-0.039	0.2105	1049.6884	0.147624	-439.104389	-439.095914	-439.09497	-439.137752	31.109	
C	 0.0030184545	 1.5506003084	-0.0228356794	-0.420409
C	 0.0652684747	 0.0210155734	-0.0022554657	-0.041209
C	 0.7442487699	-0.5683751446	-1.2472778521	-0.15943
N	 0.9651336197	-2.0072329414	-1.1727550037	-0.268267
C	 0.9663563763	-2.5480218191	-0.0331811017	 0.13962
O	 0.7898971285	-1.9832586969	 1.1932685471	-0.22262
C	 0.7725729248	-0.5624928279	 1.2422722571	 0.009738
C	 2.1890465271	-0.0262497162	 1.4241321984	 0.152217
O	 3.1862636048	-0.667016257	 1.2291460877	-0.231411
H	 0.9930818313	 2.0003389961	-0.1500213926	 0.127457
H	-0.6176534615	 1.8887843823	-0.8581241566	 0.131118
H	-0.4347688175	 1.9516331135	 0.8977105323	 0.120025
H	-0.9592945775	-0.3692075884	 0.0384114843	 0.101375
H	 0.1350563193	-0.3618134152	-2.1344653941	 0.113612
H	 1.7123923353	-0.0770157886	-1.4216918051	 0.120617
H	 1.1016765454	-3.6210154639	 0.081460345	 0.129424
H	 0.2080752809	-0.2961743266	 2.1455629927	 0.109754
H	 2.2324940844	 1.0330344522	 1.7623714064	 0.088391
80.8618	96.8917	154.1543	227.3731	268.8684	286.6506	309.4328	455.4069	476.6179	497.6403	530.6062	725.6885	764.7737	845.8097	895.8258	918.6976	952.0329	964.6094	977.0279	1017.9656	1041.4277	1104.1979	1139.0248	1165.3963	1191.1057	1228.8465	1297.6034	1327.2497	1345.9796	1381.0669	1391.9849	1409.3108	1417.1883	1420.5161	1484.8775	1498.0068	1504.7885	1741.3351	1840.9054	2883.797	3007.1303	3025.3847	3033.8072	3034.5377	3057.8689	3099.9233	3107.6019	3171.5387
CC1CN=COC1C=O	C[C@H]1CN=CO[C@H]1C=O	
InChI=1S/C6H9NO2/c1-5-2-7-4-9-6(5)3-8/h3-6H,2H2,1H3	InChI=1S/C6H9NO2/c1-5-2-7-4-9-6(5)3-8/h3-6H,2H2,1H3/t5-,6-/m0/s1
