20
gdb 15631	2.95718	1.64829	1.11599	1.4853	77.4	-0.2226	0.037	0.2596	1098.3067	0.1771	-349.018586	-349.009894	-349.008949	-349.051799	32.142	
C	-0.0707045987	 1.5684303403	-0.0133002724	-0.403097
C	 0.0397883427	 0.0395719983	 0.0500407221	-0.061092
C	 0.7563114531	-0.5772539025	-1.1802439046	-0.213211
C	 1.5361587466	-1.8019586031	-0.6448025312	-0.258367
C	 1.6582274592	-1.5029043818	 0.8292615596	-0.161583
C	 0.8542060608	-0.5106060142	 1.2115069939	 0.321958
C	 0.6650970546	-0.0054352845	 2.605620018	-0.183536
O	 1.430039389	-0.7830660285	 3.5102066772	-0.414637
H	 0.9220927042	 2.0314605238	-0.0478415365	 0.114804
H	-0.6161109244	 1.8795302916	-0.9106412573	 0.112905
H	-0.6041944579	 1.9772475168	 0.8516559112	 0.109702
H	-0.9839170798	-0.3627384661	 0.1241905734	 0.072408
H	 0.0637692008	-0.8250216478	-1.9895072604	 0.09162
H	 1.4658106913	 0.1583588523	-1.5767899251	 0.097727
H	 0.9838230992	-2.7395874291	-0.8049113544	 0.101376
H	 2.5049275582	-1.9326780577	-1.1407854785	 0.09807
H	 2.2892417114	-2.0685328842	 1.50323536	 0.102385
H	 0.9534458797	 1.0589774435	 2.6559677877	 0.095199
H	-0.4112409873	-0.0397869671	 2.8580901827	 0.089859
H	 1.3465982574	-0.39087719	 4.3837014648	 0.287509
84.0854	103.6486	180.2847	213.5821	246.3201	249.804	280.1726	351.4444	440.2441	535.1409	599.3811	682.4887	794.5775	825.2851	854.9882	906.5072	933.4972	970.3689	1017.6291	1023.0976	1049.1988	1080.0306	1103.5415	1118.8938	1168.9835	1202.2935	1225.1656	1238.7758	1252.5234	1284.5257	1315.7325	1329.4333	1335.9313	1365.2819	1405.872	1465.845	1484.5716	1497.1499	1498.4408	1502.5615	1508.5397	1723.2923	2928.7119	2953.485	2963.2487	3000.0208	3024.2064	3034.2868	3052.0466	3089.121	3093.6029	3095.4694	3216.3262	3838.0702
CC1CCC=C1CO	C[C@H]1CCC=C1CO	
InChI=1S/C7H12O/c1-6-3-2-4-7(6)5-8/h4,6,8H,2-3,5H2,1H3	InChI=1S/C7H12O/c1-6-3-2-4-7(6)5-8/h4,6,8H,2-3,5H2,1H3/t6-/m0/s1
