19
gdb 97704	2.66957	0.85776	0.7142	2.9497	87.91	-0.2386	-0.0164	0.2222	1656.4388	0.156721	-385.869072	-385.859033	-385.858089	-385.907151	35.298	
C	 0.0278208674	 1.517715804	-0.167635403	-0.364159
C	-0.022638355	 0.0230300911	 0.1992426969	-0.321469
C	-1.3727150045	-0.5285750492	 0.1651720157	 0.17325
C	-2.4992638644	-0.9545382273	 0.1389643249	-0.066634
C	-3.8406872605	-1.4632778109	 0.116175998	 0.050587
C	-4.4335633912	-1.9558050444	-1.2165856828	-0.290947
C	-4.070946617	-2.9557633045	-0.1828538645	-0.290607
C	-4.8358427448	-0.8573361099	 1.0505177907	 0.120934
O	-4.6193874089	 0.0307271997	 1.8307561883	-0.254065
H	 1.0569136914	 1.886523385	-0.122161114	 0.11317
H	-0.354118548	 1.6828501886	-1.1787299525	 0.125803
H	-0.5819629274	 2.105744963	 0.5231070981	 0.136556
H	 0.6190061929	-0.5459245766	-0.48611025	 0.126441
H	 0.4032011706	-0.1232346496	 1.2002583173	 0.13233
H	-5.4836963621	-1.7475852928	-1.3930580001	 0.130079
H	-3.791233494	-1.8361796179	-2.0797202038	 0.14308
H	-3.1720106051	-3.5445034298	-0.3139354341	 0.143487
H	-4.8668103439	-3.4485130331	 0.3658878179	 0.130183
H	-5.8483633254	-1.3197447552	 0.9599627969	 0.06198
4.3899	72.5645	100.6315	130.2686	196.6766	214.1085	250.1503	320.5144	347.7604	438.1382	475.7881	536.9631	562.7007	663.928	784.4769	785.2372	793.3118	899.052	916.7108	955.9407	986.2332	1041.46	1064.182	1071.1237	1089.8276	1102.512	1104.3264	1199.9482	1260.8985	1286.0286	1339.6166	1372.6007	1408.8068	1440.025	1461.9344	1473.5331	1491.4558	1494.2847	1505.7014	1831.2668	2367.6868	2840.9971	3018.3731	3044.2596	3045.8682	3117.405	3125.9503	3139.9306	3142.0551	3230.4738	3244.4202
CCC#CC1(CC1)C=O	CCC#CC1(CC1)C=O	
InChI=1S/C8H10O/c1-2-3-4-8(7-9)5-6-8/h7H,2,5-6H2,1H3	InChI=1S/C8H10O/c1-2-3-4-8(7-9)5-6-8/h7H,2,5-6H2,1H3
