23
gdb 70326	2.11457	1.96254	1.32685	0.3316	88.07	-0.2324	0.0859	0.3182	1092.1037	0.206625	-351.146756	-351.138185	-351.137241	-351.179053	35.295	
C	-0.0160640706	 1.5352003814	 0.0693196024	-0.486891
C	 0.0514231982	 0.0240751395	 0.0021294747	 0.300383
C	-0.6060122985	-0.7638074082	 1.1154181763	-0.344524
C	 0.8975543382	-0.7744292001	 0.9791922803	-0.066905
C	 1.5842781851	-1.9188830808	 0.2305233929	-0.25237
C	 1.1220836882	-1.8292336279	-1.2255682029	-0.066906
C	-0.3330930092	-2.0459393596	-1.5645143983	-0.344522
C	 0.192319065	-0.6378216981	-1.3813800242	 0.300385
C	 0.2558061347	 0.2579119094	-2.6004763504	-0.486891
H	 0.845247743	 2.0089479295	-0.4136550671	 0.114855
H	-0.9214136092	 1.9238041795	-0.4112231074	 0.115968
H	-0.0307737736	 1.8684933928	 1.1115335433	 0.110485
H	-1.0166079594	-0.1862886182	 1.9384751759	 0.100473
H	-1.1735687315	-1.6612530863	 0.9019715972	 0.10733
H	 1.469201049	-0.2680743023	 1.7512982877	 0.076024
H	 2.6698713068	-1.7766594581	 0.2730364976	 0.09911
H	 1.3792061801	-2.8989242987	 0.6785113499	 0.098862
H	 1.8508718313	-2.0611286679	-1.9965517957	 0.076023
H	-0.5561266192	-2.3495251821	-2.5831564742	 0.100472
H	-0.996804349	-2.4916941621	-0.8338449683	 0.107331
H	-0.6829029924	 0.8026206468	-2.7544607799	 0.115968
H	 1.0604176428	 0.997454474	-2.5281303621	 0.114854
H	 0.4390752201	-0.3377537327	-3.4999795874	 0.110486
117.4116	202.3901	226.5285	240.4534	310.7314	317.9203	340.0927	387.3192	444.8277	455.2187	585.4697	585.8996	673.1385	787.9538	791.3429	821.8436	843.1876	864.9141	869.8497	944.3638	953.1467	973.109	991.7834	1033.7978	1052.2264	1062.4926	1065.2871	1085.9069	1114.6091	1115.8758	1130.393	1132.0021	1194.6552	1224.5586	1256.4346	1275.5357	1321.5113	1329.5378	1389.2801	1394.753	1417.101	1424.7109	1478.6662	1483.5387	1487.9596	1494.7399	1500.5425	1508.7875	1512.0153	3022.6778	3028.0206	3029.1137	3063.3321	3080.8685	3089.7912	3096.9809	3101.2189	3123.5075	3130.6956	3146.3123	3149.4843	3204.2944	3215.8098
CC12CC1CC1CC21C	C[C@]12C[C@H]1C[C@H]1C[C@@]21C	
InChI=1S/C9H14/c1-8-4-6(8)3-7-5-9(7,8)2/h6-7H,3-5H2,1-2H3	InChI=1S/C9H14/c1-8-4-6(8)3-7-5-9(7,8)2/h6-7H,3-5H2,1-2H3/t6-,7+,8+,9-
