19
gdb 36974	7.07073	0.56321	0.5569	2.8629	74.04	-0.262	0.0749	0.3369	1977.57	0.156966	-460.093652	-460.0843	-460.083356	-460.129679	32.44	
C	-0.0547222431	 1.4099337767	-0.1472679274	-0.072843
O	-0.0201684805	 0.0080313616	 0.0012855456	-0.250643
C	-1.2965182349	-0.5669619153	 0.1713393698	-0.072838
C	-1.13464846	-2.0560244033	 0.2996196818	 0.082942
C	-2.2292748717	-2.9717877042	-0.0391333169	-0.181798
O	-1.1121317068	-2.8119143131	-0.9118344503	-0.226133
C	 1.3556592152	 1.907395211	-0.3001363064	 0.082946
C	 1.7180789628	 3.2849343965	 0.0499715014	-0.181805
O	 2.0745344574	 2.1958013206	 0.8996612284	-0.226143
H	-0.64588368	 1.688524748	-1.0376095683	 0.091838
H	-0.5182337681	 1.8919007439	 0.7291193074	 0.094509
H	-1.7817703761	-0.1661279761	 1.0788913565	 0.091835
H	-1.9512344993	-0.3440562364	-0.6870618852	 0.094498
H	-0.3980369634	-2.3700492934	 1.039344978	 0.105801
H	-2.3021375342	-3.9331886081	 0.4668579491	 0.11826
H	-3.1731249017	-2.5722538466	-0.4095602884	 0.112751
H	 1.939562142	 1.3885145143	-1.0605467714	 0.105808
H	 2.5427322721	 3.7721821579	-0.4678665051	 0.118265
H	 0.9594252503	 3.9590677461	 0.4470700111	 0.112751
44.8389	49.4439	96.4509	117.8433	153.1443	230.4486	302.2035	380.8824	405.4338	479.3241	531.1073	796.5907	812.732	866.7625	875.9926	943.893	956.2836	988.8226	1004.5636	1037.0342	1091.7038	1111.2418	1143.0023	1156.741	1159.4069	1161.2302	1168.4695	1174.3693	1179.8939	1263.516	1274.4268	1292.29	1293.0431	1353.3379	1390.3384	1451.1519	1474.0979	1489.4923	1515.1907	1533.3801	1534.6363	2944.6347	2954.7473	2989.1579	2993.7409	3081.6035	3081.7451	3117.4111	3117.6411	3167.2852	3167.3405
C(OCC1CO1)C1CO1	C(OC[C@H]1CO1)[C@H]1CO1	
InChI=1S/C6H10O3/c1(5-3-8-5)7-2-6-4-9-6/h5-6H,1-4H2	InChI=1S/C6H10O3/c1(5-3-8-5)7-2-6-4-9-6/h5-6H,1-4H2/t5-,6-/m0/s1
