20
gdb 102869	3.05662	0.92967	0.81093	2.3724	85.56	-0.2243	0.0075	0.2317	1520.7442	0.168829	-436.460981	-436.450112	-436.449168	-436.497687	37.078	
C	 0.5430142479	 0.623712336	 1.2616418088	-0.242748
O	-0.3145766509	 0.6548794108	 0.1150191044	-0.232885
C	-1.2567377729	-0.2921683957	-0.0447690222	 0.452259
N	-0.9968369447	-1.5849967769	 0.4658701212	-0.368153
C	 0.1065593115	-2.380933404	 0.1898892031	 0.084646
N	 1.2023494953	-1.9670646511	-0.2887305073	-0.193483
C	 2.2555343618	-2.941431105	-0.4819976071	-0.316033
N	-2.379627323	-0.0924034811	-0.59427291	-0.322942
C	-2.7457820001	 1.2570183856	-0.9835277618	-0.318753
H	 1.3229929181	-0.128244606	 1.1310827834	 0.149079
H	 0.987182119	 1.6189286606	 1.3190662848	 0.133462
H	-0.0293143772	 0.4281597459	 2.1737371243	 0.122495
H	-1.8639329271	-2.099746353	 0.5256052645	 0.259511
H	-0.0790607191	-3.4298122614	 0.4645678776	 0.090091
H	 1.9713837553	-3.9658511264	-0.1893321054	 0.095497
H	 2.5548662678	-2.9559684352	-1.5363507066	 0.129811
H	 3.1426862628	-2.6539616694	 0.0947769655	 0.124165
H	-2.203088319	 2.0368611174	-0.4358547774	 0.114384
H	-2.5518862281	 1.405125024	-2.0535327581	 0.124877
H	-3.8214551975	 1.3916424545	-0.8308321517	 0.114724
45.3505	88.0151	116.7644	125.1226	143.8634	177.899	211.0425	243.8296	257.2536	288.4842	344.4293	374.029	462.6925	612.5217	622.3105	730.7272	789.1787	836.6425	984.0836	1032.0399	1052.2456	1087.0533	1128.1041	1142.9793	1152.7203	1170.6274	1183.8054	1193.4947	1231.7341	1310.3484	1414.6398	1438.8901	1450.5437	1475.275	1479.3765	1483.8025	1485.6384	1493.0216	1502.714	1504.5488	1518.5777	1756.7846	1772.517	2965.0815	3008.231	3010.7269	3041.895	3054.5454	3065.5971	3073.524	3087.7675	3126.5481	3146.8975	3610.7089
COC(NC=NC)=NC	COC(=NC)NC=NC	
InChI=1S/C5H11N3O/c1-6-4-8-5(7-2)9-3/h4H,1-3H3,(H,6,7,8)	InChI=1S/C5H11N3O/c1-6-4-8-5(7-2)9-3/h4H,1-3H3,(H,6,7,8)
