14
gdb 130147	6.11876	0.93178	0.81345	2.3419	67.98	-0.2235	0.0035	0.227	1306.4793	0.103461	-429.092649	-429.084618	-429.083674	-429.126142	28.95	
N	-0.6642127882	 1.1440773562	 0.7596129856	-0.582503
C	-0.1375241077	 0.0030242654	 0.196116837	 0.394891
N	-0.7086916595	-0.6313440877	-0.821173849	-0.292987
N	 0.117778596	-1.7083828572	-0.9675550992	-0.241688
C	 1.1119830872	-1.6604200364	-0.0688687956	 0.399725
C	 2.2039755061	-2.6844106951	 0.0598583546	-0.462458
C	 2.1158856335	-3.7256339544	-0.9617523304	 0.268881
N	 2.0117669629	-4.5318437308	-1.7823449108	-0.302453
N	 0.9911707728	-0.5884665142	 0.6928290945	-0.373767
H	 0.0256448503	 1.7212442383	 1.2166401672	 0.260709
H	-1.2748977239	 1.6613196503	 0.1447379783	 0.260782
H	-0.0592452496	-2.3938144774	-1.6844466145	 0.293555
H	 3.1793844057	-2.1899085963	-0.0084243071	 0.188248
H	 2.1604557946	-3.1483043709	 1.0520926194	 0.189064
32.0711	112.0008	192.7509	272.3918	319.341	357.5561	376.776	437.8568	508.2287	528.6873	607.1417	682.6542	716.1917	773.5065	797.1514	950.6424	951.6791	1022.7112	1072.7266	1091.5147	1182.4864	1210.209	1300.2301	1306.4599	1420.2367	1453.4397	1500.6894	1570.4408	1593.6371	1651.7628	2369.0587	3048.3552	3081.404	3578.5196	3657.9106	3685.6385
NC1=NNC(CC#N)=N1	Nc1n[nH]c(CC#N)n1	
InChI=1S/C4H5N5/c5-2-1-3-7-4(6)9-8-3/h1H2,(H3,6,7,8,9)	InChI=1S/C4H5N5/c5-2-1-3-7-4(6)9-8-3/h1H2,(H3,6,7,8,9)
