14
gdb 131932	4.5491	1.06428	0.86497	6.6133	70.6	-0.2184	-0.0585	0.1598	1233.8711	0.102308	-469.959326	-469.951513	-469.950568	-469.992017	28.722	
N	 0.118198659	 1.3861086182	 0.1443844903	-0.607554
C	-0.0472419217	-0.0042921206	 0.0502168609	 0.348611
C	-1.1521214053	-0.8196347674	 0.0475367617	-0.344538
C	-0.6538026692	-2.1527920627	 0.0125562344	 0.361824
C	 0.7222662054	-2.1273556266	-0.0151362054	-0.117724
N	 1.0759592767	-0.8110605728	 0.0157856103	-0.281136
N	-1.4389083307	-3.3482958537	-0.0081548317	 0.329987
O	-2.6605943542	-3.2230405758	 0.032860453	-0.373643
O	-0.8442995099	-4.4237984507	-0.0657677744	-0.388355
H	 0.4172943712	 1.8080036498	-0.7298945029	 0.252265
H	-0.7422673625	 1.8346534569	 0.4322391977	 0.257955
H	-2.188059958	-0.5268059551	 0.0511509187	 0.127378
H	 1.4361569494	-2.9307866	-0.052586535	 0.162467
H	 2.0164536497	-0.4589943294	 0.0843289325	 0.272462
88.9424	146.5212	163.7277	192.455	314.7337	383.9892	422.4927	532.9455	557.9074	619.9269	655.1242	706.3941	742.914	775.3222	810.3975	830.2569	842.678	980.8753	996.2429	1122.861	1126.6921	1169.6356	1270.9421	1329.8398	1411.4942	1434.8456	1474.3752	1544.561	1607.3657	1628.5519	1661.2235	3285.1339	3301.7268	3501.0245	3607.3087	3666.4353
NC1=CC(=CN1)N(=O)=O	Nc1cc(c[nH]1)N(=O)=O	
InChI=1S/C4H5N3O2/c5-4-1-3(2-6-4)7(8)9/h1-2,6H,5H2	InChI=1S/C4H5N3O2/c5-4-1-3(2-6-4)7(8)9/h1-2,6H,5H2
