12
gdb 16101	4.83922	1.80231	1.55697	4.4147	58.72	-0.2777	-0.0159	0.2617	779.6817	0.085306	-377.522647	-377.516606	-377.515662	-377.552813	22.79	
N	 0.0218282507	-1.1377002273	-0.0578907566	-0.338218
C	 0.0010121924	 0.0163103873	 0.0071437223	 0.237183
C	 0.0127856811	 1.4508861133	 0.0598295426	 0.18832
C	 0.3825314762	 2.2684630541	-1.174574635	-0.339321
C	 1.281312397	 2.3232451398	 0.0147108915	 0.036223
O	 1.0367535786	 3.3494056751	 0.9555019998	-0.20227
C	-0.2259633657	 3.1328318013	 1.4105193032	 0.101097
N	-0.8636767093	 2.1091164799	 1.0052344795	-0.293377
H	 0.7577285539	 1.7086063292	-2.0231614035	 0.154149
H	-0.2537763853	 3.1152432511	-1.4071914036	 0.146269
H	 2.3044166187	 1.973628839	 0.0078566841	 0.146691
H	-0.5934359882	 3.8740011674	 2.1084299158	 0.163254
156.6623	173.6041	345.5271	409.3701	494.6453	554.3629	565.1984	646.2543	752.9086	788.3733	854.508	909.2307	939.6616	972.4236	999.7771	1040.6295	1067.4349	1098.3399	1148.5432	1215.5254	1280.1865	1319.2373	1380.2444	1461.1597	1663.1434	2362.2074	3141.8832	3218.8602	3241.6796	3243.2914
N#CC12CC1OC=N2	N#C[C@]12C[C@H]1OC=N2	
InChI=1S/C5H4N2O/c6-2-5-1-4(5)8-3-7-5/h3-4H,1H2	InChI=1S/C5H4N2O/c6-2-5-1-4(5)8-3-7-5/h3-4H,1H2/t4-,5-/m1/s1
