21
gdb 89276	2.22086	1.84885	1.33106	1.6982	82.68	-0.2335	0.0155	0.2491	1071.2868	0.182728	-387.099634	-387.091198	-387.090253	-387.1322	33.473	
C	-0.519926439	 1.3434735983	-0.1776683174	-0.40685
C	 0.06870747	-0.0464709033	-0.0206794727	 0.153649
O	 1.268840232	-0.2293685173	-0.8133425599	-0.35046
C	 2.0561075432	-0.5708663276	 0.3681821116	 0.425807
C	 2.7542429549	-1.9052393572	 0.1891596647	-0.458883
C	 2.9466982292	 0.5623709473	 0.8178052994	-0.117081
C	 2.4480865834	 1.2052320459	 1.8731255614	-0.068438
C	 1.1244461209	 0.6399217861	 2.3409397311	-0.287902
C	 0.8092260161	-0.4403251008	 1.288897722	-0.155355
H	 0.1972450132	 2.1170197184	 0.1090778783	 0.125527
H	-0.7906267231	 1.507801471	-1.2254938988	 0.124703
H	-1.4266903726	 1.4549644541	 0.4273180066	 0.110143
H	-0.6831852192	-0.7938367338	-0.310075444	 0.070413
H	 3.4875758812	-1.8434250163	-0.6222566658	 0.123997
H	 3.2810976346	-2.1954108002	 1.1042866187	 0.116735
H	 2.0326214477	-2.6865770949	-0.0665758035	 0.118679
H	 3.8790224315	 0.7978105334	 0.315897344	 0.094152
H	 2.92033996	 2.0485185458	 2.3670529341	 0.095446
H	 1.2057832211	 0.2120499847	 3.3487428678	 0.105907
H	 0.3479464708	 1.4122093535	 2.4044537733	 0.108736
H	 0.4414407542	-1.3683580071	 1.7284700191	 0.071077
86.3611	208.0626	220.9041	239.6964	248.715	283.2934	333.3647	427.6582	480.9443	485.8197	625.6252	654.955	740.838	779.3961	789.805	849.1801	893.98	909.2284	934.9365	947.5876	970.7626	983.2949	1008.7082	1067.4083	1089.8711	1109.4467	1131.9686	1136.7696	1170.905	1194.5819	1235.3114	1262.1747	1300.3393	1324.0066	1334.3161	1385.9071	1387.753	1401.3411	1407.4048	1479.2257	1481.4027	1488.3068	1488.4954	1503.9095	1679.0304	2996.7864	3019.8019	3031.4953	3035.2693	3048.8131	3097.1351	3101.8147	3103.1665	3111.8434	3122.2045	3175.3708	3201.6211
CC1OC2(C)C=CCC12	C[C@H]1O[C@@]2(C)C=CC[C@@H]12	
InChI=1S/C8H12O/c1-6-7-4-3-5-8(7,2)9-6/h3,5-7H,4H2,1-2H3	InChI=1S/C8H12O/c1-6-7-4-3-5-8(7,2)9-6/h3,5-7H,4H2,1-2H3/t6-,7+,8+/m1/s1
