19
gdb 34955	3.05366	1.52201	1.45352	0.7515	83.75	-0.2492	0.0468	0.296	997.2168	0.160714	-348.681178	-348.673946	-348.673002	-348.712572	29.946	
C	-0.1105599855	-1.2600264932	-0.2127356532	-0.463102
C	-0.062128845	-0.0620601248	-0.1055105908	 0.323782
C	 0.0227421247	 1.3758778015	 0.0529601434	-0.168833
C	-0.2490924184	 2.0189238981	 1.4518013803	-0.050855
C	 0.5242118955	 1.3389763901	 2.6055606326	-0.231954
C	 1.8275396333	 2.0527402807	 2.1636385418	-0.031243
C	 2.478317852	 1.4103414607	 0.911750889	-0.231955
C	 1.4179163974	 2.0798031354	 0.0068462379	-0.05086
C	 0.9737711502	 2.9770297881	 1.2176051341	-0.050782
H	-0.163528332	-2.3152959441	-0.3175635235	 0.192588
H	-0.6289772698	 1.8677608213	-0.6782037998	 0.098899
H	-1.273112458	 2.3409030364	 1.6420653221	 0.068616
H	 0.1792966997	 1.7212017774	 3.5710838585	 0.097547
H	 0.5237662258	 0.2450658854	 2.6384699091	 0.104422
H	 2.4929570807	 2.4175897852	 2.9466857959	 0.061566
H	 3.4660727625	 1.8412448708	 0.7221070015	 0.097545
H	 2.5565228722	 0.319306179	 0.876492552	 0.104432
H	 1.7372056965	 2.4508391201	-0.9672560442	 0.068617
H	 0.9440819382	 4.063831542	 1.2291441735	 0.061572
118.3554	140.1357	302.2453	311.592	388.3851	529.3511	532.5682	611.3891	624.3597	631.593	632.7875	753.2919	819.0448	837.5418	840.8251	846.9877	923.0861	939.1689	954.8076	978.7583	995.2188	1043.1222	1067.8641	1067.9355	1106.8805	1113.0041	1128.673	1163.8477	1176.3449	1208.7278	1214.0417	1254.3634	1270.8179	1281.687	1283.6014	1326.9854	1333.6295	1338.8351	1478.1727	1489.1866	2225.0648	3036.7395	3044.4957	3045.4195	3091.4615	3093.7401	3097.9603	3100.695	3103.746	3144.0571	3502.8054
C#CC1C2CC3CC1C23	C#C[C@H]1[C@H]2C[C@H]3C[C@@H]1[C@@H]23	
InChI=1S/C9H10/c1-2-6-7-3-5-4-8(6)9(5)7/h1,5-9H,3-4H2	InChI=1S/C9H10/c1-2-6-7-3-5-4-8(6)9(5)7/h1,5-9H,3-4H2/t5-,6-,7+,8-,9+
