20
gdb 112941	4.41882	0.82108	0.75612	5.5844	75.66	-0.2449	0.0187	0.2636	1538.7604	0.171448	-440.310292	-440.301134	-440.30019	-440.345043	33.548	
C	-0.1378784163	 1.6548726241	-0.3994988024	-0.387322
C	-0.0151773699	 0.1422532169	-0.1892885896	-0.192212
C	-1.3382992949	-0.5311964826	 0.1641987335	 0.076699
C	-1.22427864	-2.020247389	 0.5888321503	-0.271534
C	-1.4911724935	-1.5410409707	 2.0462126372	-0.104662
N	-1.8843179714	-0.2089630788	 1.5202394126	-0.359182
H	-1.4608243486	 0.5900301638	 1.9816416033	 0.227756
H	-3.5988201653	-0.8020492878	 2.1712648163	 0.301741
C	-2.6219065997	-2.2531261155	 2.7858564777	 0.419522
O	-2.4766741145	-3.2944955582	 3.3682059676	-0.345695
O	-3.7974734637	-1.6159128643	 2.6863720444	-0.36941
H	 0.8298206741	 2.0968691843	-0.6533269623	 0.124086
H	-0.8355479304	 1.8847297618	-1.2117754603	 0.124709
H	-0.501888163	 2.1638001934	 0.5003321933	 0.114371
H	 0.3683555453	-0.32597582	-1.1049436909	 0.108738
H	 0.7215222683	-0.0710993303	 0.5972069149	 0.099332
H	-2.071849192	-0.3262885132	-0.624603418	 0.081825
H	-2.011087561	-2.6631200644	 0.1914545323	 0.126843
H	-0.2564225777	-2.4924300706	 0.4172186847	 0.120292
H	-0.5978873958	-1.5597848787	 2.6768947456	 0.104105
50.4457	98.339	113.7892	154.8716	217.7416	251.2882	282.4238	390.4121	441.0131	497.7237	611.0512	698.9483	737.9696	772.5598	797.6856	818.6269	873.6767	912.3973	966.7485	971.5821	986.4551	995.0157	1035.0683	1074.537	1115.356	1126.8021	1182.2951	1232.1522	1250.5577	1257.4652	1278.8098	1300.3891	1320.956	1344.1278	1367.781	1414.944	1417.6168	1431.1277	1479.3818	1491.1992	1502.8843	1503.2064	1871.5905	3013.5633	3027.6505	3033.3614	3053.8334	3069.9121	3086.7338	3096.9027	3110.9585	3142.5728	3462.9478	3519.3708
CCC1CC([NH2+]1)C([O-])=O	CC[C@H]1C[C@@H](N1)C(=O)O	
InChI=1S/C6H11NO2/c1-2-4-3-5(7-4)6(8)9/h4-5,7H,2-3H2,1H3,(H,8,9)	InChI=1S/C6H11NO2/c1-2-4-3-5(7-4)6(8)9/h4-5,7H,2-3H2,1H3,(H,8,9)/t4-,5+/m0/s1
