13
gdb 29499	3.42462	1.70998	1.14224	3.238	66.31	-0.2021	-0.0124	0.1897	967.9475	0.09218	-452.75796	-452.751316	-452.750372	-452.788914	25.677	
N	 0.0428628875	 1.4315445313	 0.1753091287	-0.611486
C	 0.0563315899	 0.0411112666	 0.039327082	 0.058302
C	-1.0079688334	-0.8318135004	-0.0132719444	-0.087097
O	-0.6183269611	-2.1682038928	-0.0492095	-0.199402
C	 0.7216924505	-2.1118261659	-0.0315783918	 0.336851
C	 1.1813235194	-0.8357670582	 0.0249706883	 0.231417
O	 2.5451559551	-0.8951116085	 0.0358262734	-0.210002
C	 2.7865934367	-2.2492449201	-0.0153523287	 0.036453
N	 1.7394520666	-3.0226523289	-0.05665169	-0.346887
H	 0.7794459673	 1.8854319682	-0.3494196906	 0.255008
H	-0.8488439263	 1.8438503731	-0.0658755272	 0.250464
H	-2.0714105723	-0.6646829423	-0.0141549491	 0.131214
H	 3.8240701898	-2.5411975222	-0.0157138706	 0.155166
169.6824	217.269	256.0423	275.0972	431.9131	551.9525	573.9671	621.8354	627.321	664.8417	693.5664	736.2442	764.9137	791.2368	799.1417	935.4812	1058.8086	1087.2194	1090.0321	1152.4839	1242.7539	1278.0738	1332.0667	1440.753	1488.1858	1535.7518	1587.4345	1642.999	1669.4968	3286.3543	3288.2566	3540.0349	3631.3237
NC1=COC2=C1OC=N2	Nc1coc2c1ocn2	
InChI=1S/C5H4N2O2/c6-3-1-8-5-4(3)9-2-7-5/h1-2H,6H2	InChI=1S/C5H4N2O2/c6-3-1-8-5-4(3)9-2-7-5/h1-2H,6H2
