16
gdb 64668	4.06472	1.05054	1.04252	4.8358	68.37	-0.2541	0.0298	0.2839	1174.3781	0.123502	-437.84393	-437.83578	-437.834836	-437.876978	30.412	
O	-0.3036854822	 1.4487033785	 0.2745584388	-0.472912
C	-0.0991280202	 0.0802264909	 0.1354336814	 0.427376
C	 1.0597487785	-0.4049699045	 0.9872840072	-0.409539
C	 2.3448830301	 0.1421100385	 0.5462750468	 0.274034
N	 3.3612862569	 0.5580911153	 0.1889268808	-0.305072
C	-1.2612671874	-0.8951002544	-0.0125206373	-0.211649
C	-2.3289781949	-0.2204358708	-0.8619698649	-0.112492
O	-1.3465841778	 0.1370926903	-1.8855067501	-0.3015
C	-0.3316492548	-0.5856617974	-1.1822306898	 0.011626
H	-0.5552043813	 1.7794685259	-0.5989660664	 0.302288
H	 0.8869750438	-0.1097811597	 2.028327924	 0.167864
H	 1.1178524981	-1.4983727291	 0.9661949106	 0.153322
H	-1.3868197166	-1.7883297908	 0.5854604024	 0.106837
H	-3.0667434607	-0.9115535853	-1.2792771268	 0.125474
H	-2.8240336858	 0.6592798445	-0.4388067923	 0.123235
H	 0.3798638845	-1.163592612	-1.7624231843	 0.121109
63.7881	109.7927	222.547	232.492	298.1991	334.8014	387.4638	421.5734	443.5229	538.7694	627.851	721.6713	797.0473	835.4548	894.6795	924.8734	947.293	959.8254	979.1169	1018.0012	1030.1913	1067.7996	1104.2173	1132.9857	1164.8931	1198.6536	1238.7109	1280.9359	1323.5775	1340.4231	1383.4717	1444.3957	1451.5784	1508.7017	2368.1855	3047.1832	3048.7206	3091.3385	3102.8947	3172.0352	3198.9614	3752.4918
OC1(CC#N)C2COC12	O[C@@]1(CC#N)[C@H]2CO[C@@H]12	
InChI=1S/C6H7NO2/c7-2-1-6(8)4-3-9-5(4)6/h4-5,8H,1,3H2	InChI=1S/C6H7NO2/c7-2-1-6(8)4-3-9-5(4)6/h4-5,8H,1,3H2/t4-,5+,6-/m0/s1
