18
gdb 17830	4.1668	1.60622	1.42251	2.5755	72.68	-0.2303	-0.0097	0.2206	947.7857	0.153578	-347.795859	-347.788103	-347.787158	-347.82843	29.074	
C	-0.0915978451	 1.5080001826	 0.0506486299	-0.481167
C	 0.1147296387	 0.0034769766	-0.0373872462	 0.378551
O	 1.2290087209	-0.4744676197	-0.107221401	-0.324917
C	-1.1394743557	-0.8102197534	-0.0305021204	-0.102935
C	-1.3855952638	-2.072631841	-0.8470797237	-0.075016
C	-0.1354821128	-2.9558889643	-0.9675168478	-0.218705
C	-0.0732340983	-3.038519068	 0.5920465781	-0.218699
C	-1.3252665519	-2.1527726106	 0.6652118644	-0.075023
H	 0.8733440595	 2.0157448818	 0.0393235907	 0.138392
H	-0.7042049233	 1.857673722	-0.7885557622	 0.137766
H	-0.6346161879	 1.7645113072	 0.9677879328	 0.137753
H	-2.0398704974	-0.2044740518	 0.0375142865	 0.084434
H	-2.2487271802	-2.1069478539	-1.5021230534	 0.088605
H	-0.3705340718	-3.9211254631	-1.4220623673	 0.098286
H	 0.7276214381	-2.5177227338	-1.4684132852	 0.122892
H	-0.2754852939	-4.0473033244	 0.9594545062	 0.098284
H	 0.8287827347	-2.65200834	 1.0661861097	 0.122893
H	-2.1337197098	-2.2597614161	 1.3795030588	 0.088606
39.9411	148.146	198.2445	200.2699	320.7004	330.3203	409.4163	594.7179	625.7372	732.1796	760.437	776.4539	782.1348	870.4395	939.7415	940.6171	953.4769	971.3349	994.6093	1024.0283	1048.1794	1083.7822	1107.466	1136.2274	1151.9553	1206.8631	1222.2429	1243.5383	1259.9468	1306.581	1348.6627	1375.2387	1436.262	1464.9132	1469.7925	1475.7304	1491.3741	1788.1455	3031.8653	3069.8898	3078.4591	3091.7437	3130.0064	3138.4157	3142.7448	3152.4779	3167.1099	3180.5092
CC(=O)C1C2CCC12	CC(=O)[C@H]1[C@H]2CC[C@@H]12	
InChI=1S/C7H10O/c1-4(8)7-5-2-3-6(5)7/h5-7H,2-3H2,1H3	InChI=1S/C7H10O/c1-4(8)7-5-2-3-6(5)7/h5-7H,2-3H2,1H3/t5-,6+,7-
