15
gdb 62411	2.4634	1.52211	1.38701	5.4426	69.78	-0.2689	-0.0424	0.2265	999.8382	0.111804	-416.794966	-416.786806	-416.785862	-416.827655	29.886	
C	-0.0632690337	 1.5935842311	-0.0351390306	-0.446342
C	 0.0186351172	 0.0631338774	-0.0502851984	-0.022276
C	-1.290593898	-0.5314257523	 0.199645188	 0.261013
N	-2.3346459064	-0.9902066838	 0.3888977097	-0.322652
C	 0.7616234054	-0.6663335252	-1.1904134552	-0.03904
C	 2.1969435832	-0.3641949332	-1.1971541312	-0.265273
N	 1.7028996877	-1.3848625298	-0.2186922902	-0.164334
C	 1.1069716399	-0.6245061936	 0.8572060886	 0.388363
O	 1.350573379	-0.609344271	 2.0169562456	-0.274675
H	 0.9103614621	 2.0400961008	-0.2474192956	 0.132265
H	-0.7811706283	 1.9485845224	-0.7790441179	 0.148731
H	-0.3889296681	 1.9340941922	 0.9508138501	 0.162882
H	 0.2650175019	-1.2289855191	-1.9703237079	 0.140405
H	 2.8056624225	-0.8117625648	-1.9752922566	 0.156307
H	 2.5738175256	 0.5802066592	-0.8162313084	 0.144627
116.0005	138.9654	185.1545	191.3789	218.0642	272.7108	413.6252	445.7774	516.021	569.4969	643.0557	690.2823	743.4292	774.872	819.0346	886.5213	960.8551	980.822	1025.9399	1051.9579	1116.3753	1136.7515	1145.8759	1176.5279	1198.0515	1243.86	1351.3173	1411.9875	1486.6315	1487.8329	1510.5178	1930.472	2353.3639	3054.3825	3128.8889	3132.5829	3137.5477	3207.6181	3221.8534
CC1(C#N)C2CN2C1=O	C[C@@]1(C#N)[C@H]2CN2C1=O	
InChI=1S/C6H6N2O/c1-6(3-7)4-2-8(4)5(6)9/h4H,2H2,1H3	InChI=1S/C6H6N2O/c1-6(3-7)4-2-8(4)5(6)9/h4H,2H2,1H3/t4-,6-,8?/m1/s1
