19
gdb 95904	2.24367	1.54678	1.32583	2.6843	76.72	-0.2472	0.044	0.2912	1079.958	0.157052	-422.99441	-422.984949	-422.984005	-423.028419	35.535	
C	-0.0556896539	 1.5292546875	-0.0933050774	-0.433055
C	-0.0034759213	 0.0060210619	 0.0349952412	 0.163174
O	 0.6656366674	-0.5169593961	-1.1228721939	-0.286945
C	 1.4915908851	-1.6293102529	-0.7700593245	-0.058555
C	 1.2492476592	-1.898263345	 0.7226902009	-0.277665
C	 0.8324705794	-0.5143643729	 1.2351664066	 0.099095
O	 1.9443727213	 0.3511624005	 1.400656801	-0.444938
C	-1.3660222809	-0.5524759191	 0.1189985979	 0.358189
C	-2.4771984208	-1.0066223142	 0.1867388424	-0.498134
H	 0.9586658845	 1.9255543754	-0.130883003	 0.141552
H	-0.5875205425	 1.7957789729	-1.0092627055	 0.129705
H	-0.5840621617	 1.9673669674	 0.757621565	 0.119745
H	 1.2329657466	-2.4882945086	-1.3987899452	 0.104394
H	 2.5378490312	-1.3618665586	-0.962813407	 0.104653
H	 0.4285610642	-2.6064385953	 0.867126428	 0.123013
H	 2.1322222635	-2.2872006545	 1.2377323351	 0.093673
H	 0.2246859296	-0.5588146026	 2.1470702067	 0.080139
H	 2.5136534219	-0.02568081	 2.0782953173	 0.286278
H	-3.4598593429	-1.4067328058	 0.2357635144	 0.195683
61.1196	146.2246	148.6465	188.7519	223.978	240.8643	285.0124	350.7752	389.6455	442.117	512.6186	545.4724	628.435	636.6369	654.8249	700.6775	796.8367	855.6209	889.0243	906.8971	914.3386	995.1282	1035.8497	1059.5916	1107.9197	1123.6457	1178.9082	1194.6427	1218.5049	1223.3491	1249.9075	1314.8341	1342.9193	1391.2891	1397.2902	1419.7331	1478.5379	1482.2372	1488.2391	1524.9556	2227.6457	3022.5724	3030.6456	3057.7534	3058.5685	3065.4116	3109.0022	3131.4025	3161.7228	3500.0654	3826.9301
CC1(OCCC1O)C#C	C[C@]1(OCC[C@H]1O)C#C	
InChI=1S/C7H10O2/c1-3-7(2)6(8)4-5-9-7/h1,6,8H,4-5H2,2H3	InChI=1S/C7H10O2/c1-3-7(2)6(8)4-5-9-7/h1,6,8H,4-5H2,2H3/t6-,7+/m1/s1
