20
gdb 119185	1.90608	1.20087	0.8399	1.4949	82.88	-0.2378	0.0361	0.2739	1432.3097	0.168286	-403.08655	-403.076099	-403.075155	-403.122186	37.907	
C	-0.00145774	 1.5043245086	-0.1196625025	-0.404246
C	 0.0716636865	 0.0074611786	 0.0581812188	-0.037125
N	 1.3953724621	-0.6229242243	 0.0281597954	-0.367525
C	 0.6022514989	-0.6802814605	 1.2881904093	 0.106814
C	 1.1873837228	 0.0806193098	 2.4670351374	-0.252884
C	 2.3592412921	-0.654821166	 3.1091313504	-0.074263
O	 2.8305013185	 0.1539322048	 4.1779434821	-0.423083
C	-0.0141145839	-1.9443902957	 1.616462083	 0.300757
C	-0.5147153458	-3.0035092415	 1.8932346343	-0.46248
H	 0.8537032854	 2.0081309939	 0.3337853775	 0.13438
H	-0.0031074547	 1.7507962954	-1.1869534804	 0.123769
H	-0.9210454224	 1.9050443688	 0.319474853	 0.123079
H	-0.7344772109	-0.5365178922	-0.4317310892	 0.092255
H	 1.3542402363	-1.5222085689	-0.444481171	 0.237379
H	 1.5398582992	 1.0598672625	 2.1366923996	 0.115478
H	 0.4101513478	 0.2451988027	 3.221354817	 0.111388
H	 2.0301563726	-1.641608515	 3.4682073329	 0.095383
H	 3.1396838576	-0.8173592866	 2.3505691238	 0.099211
H	 3.5803453676	-0.292123915	 4.5816683505	 0.285161
H	-0.9616407098	-3.9352558693	 2.1377189681	 0.19655
73.4137	89.4283	127.9252	142.7773	163.3687	187.7816	249.6499	270.9536	339.7514	377.544	402.8151	487.6471	550.1411	572.8438	596.4349	653.297	718.5948	784.0501	815.7966	871.1971	978.6339	991.6549	1019.3159	1049.7138	1079.427	1092.5852	1101.1905	1139.3482	1218.7451	1242.3104	1244.599	1288.6397	1308.0795	1325.217	1363.4574	1406.9903	1451.5136	1459.8406	1476.6419	1490.3221	1501.1907	1531.3127	2226.414	2981.7687	3014.7334	3039.7399	3055.3528	3099.1172	3114.7156	3117.7469	3142.8761	3501.5367	3506.9346	3832.0354
CC1NC1(CCO)C#C	C[C@H]1N[C@]1(CCO)C#C	
InChI=1S/C7H11NO/c1-3-7(4-5-9)6(2)8-7/h1,6,8-9H,4-5H2,2H3	InChI=1S/C7H11NO/c1-3-7(4-5-9)6(2)8-7/h1,6,8-9H,4-5H2,2H3/t6-,7+/m1/s1
