16
gdb 31185	2.68829	1.25737	0.86695	5.6458	76.	-0.2195	-0.0264	0.1931	1260.1557	0.124969	-437.931565	-437.923095	-437.922151	-437.965246	30.588	
O	-0.1196004247	 1.3898106843	 0.3951067131	-0.426616
C	 0.0069561318	 0.042142312	-0.0472129915	-0.20158
C	-1.3566872512	-0.5744919711	-0.0079215741	 0.259267
C	-1.7954727371	-1.8962693266	 0.0376866525	 0.084467
C	-0.9586962352	-3.0797159593	 0.1231201682	 0.071193
O	-1.3653413035	-4.2235438613	 0.1437090182	-0.296148
C	-3.2271713253	-1.8641781681	-0.0066157943	-0.242168
C	-3.604381745	-0.5523167704	-0.0734873356	-0.07716
N	-2.4572518833	 0.2163807376	-0.0837588144	-0.278295
H	 0.6995070433	 1.8512831777	 0.1945178872	 0.298655
H	 0.4096631886	 0.0091313359	-1.0724976495	 0.117311
H	 0.6962939005	-0.5307177228	 0.5887971214	 0.121403
H	 0.1363947308	-2.8729706088	 0.175146834	 0.041565
H	-3.870265377	-2.7290134317	 0.0150387094	 0.125083
H	-4.577472392	-0.0899058264	-0.1076800999	 0.128183
H	-2.3994344006	 1.2215000791	-0.0703996046	 0.27484
59.4446	143.6153	157.166	194.4874	246.3211	258.8444	302.0577	394.8878	557.0342	593.5916	652.5552	660.6232	701.0761	741.3176	800.504	864.0208	924.0659	1019.6948	1035.5516	1043.3709	1077.4683	1096.2103	1160.5507	1209.133	1242.3844	1282.8111	1341.1952	1403.3303	1443.1693	1454.6197	1492.9148	1516.476	1526.1186	1602.8371	1779.8495	2842.1058	2968.3859	3015.0531	3261.6776	3280.8757	3666.3549	3841.1499
OCC1=C(C=O)C=CN1	OCc1c(C=O)cc[nH]1	
InChI=1S/C6H7NO2/c8-3-5-1-2-7-6(5)4-9/h1-3,7,9H,4H2	InChI=1S/C6H7NO2/c8-3-5-1-2-7-6(5)4-9/h1-3,7,9H,4H2
