15
gdb 44848	3.61314	1.69514	1.54525	3.0058	64.37	-0.2554	0.016	0.2713	868.0551	0.116033	-453.917549	-453.911561	-453.910617	-453.947805	24.844	
N	-0.0678649479	 1.2520689991	 0.0139078373	-0.556542
C	-0.0282606513	-0.0050471421	 0.0010916011	 0.4524
O	 1.0935378977	-0.8064113342	 0.0076839072	-0.263341
C	 0.5569152104	-2.1602789548	 0.0245904617	 0.18491
O	-0.6105853188	-2.0615558509	-0.7428910085	-0.224005
C	-1.1977448183	-0.9875953544	 0.0097188594	-0.057518
C	-1.1906618188	-1.5458753936	 1.4466207244	-0.053445
N	-1.2770170056	-3.0178967716	 1.4954980072	-0.329406
C	 0.0449487029	-2.3647372758	 1.4582756574	-0.092475
H	 0.8734686742	 1.6488868259	 0.0321064955	 0.229054
H	 1.2781164787	-2.8467760388	-0.4117493998	 0.112656
H	-2.1291687283	-0.6480451585	-0.4322560907	 0.121525
H	-1.4997085631	-0.9252859739	 2.2779363879	 0.121329
H	-1.472858342	-3.2929869852	 2.4562051161	 0.241112
H	 0.7343241904	-2.4035712612	 2.2919347037	 0.113745
151.9163	307.4477	361.4379	447.5576	496.6409	577.0549	659.1814	712.6848	772.8359	815.0688	841.8087	869.5072	879.0167	885.4563	900.4602	913.065	953.5097	963.6725	1007.1213	1037.7312	1067.9347	1102.6567	1136.7764	1147.7193	1211.7908	1230.5431	1258.432	1263.5641	1327.5081	1342.2001	1353.7903	1407.3121	1806.2957	3165.0302	3184.1884	3198.3565	3208.1958	3470.681	3496.3658
N=C1OC2OC1C1NC21	[NH][C]1O[C@@H]2O[C@H]1[C@H]1N[C@@H]21	
InChI=1S/C5H6N2O2/c6-4-3-1-2(7-1)5(8-3)9-4/h1-3,5-7H	InChI=1S/C5H6N2O2/c6-4-3-1-2(7-1)5(8-3)9-4/h1-3,5-7H/t1-,2+,3-,5-/m0/s1
