16
gdb 71879	3.05496	1.96698	1.48294	3.0881	67.47	-0.2403	-0.0205	0.2198	872.3382	0.124823	-437.811377	-437.804669	-437.803724	-437.841944	27.796	
O	 0.1253095181	 1.3995439781	 0.0450506065	-0.485547
C	 0.0351995214	 0.003933555	 0.0166835599	 0.36936
C	 0.1207206958	-0.661845729	-1.4378657262	-0.316719
C	-1.3235824991	-1.2768926305	-1.2852033455	 0.082788
O	-1.3422457527	-2.6398808283	-0.6662944253	-0.276654
C	-0.8615964206	-1.9829433255	 0.4513816068	 0.318724
N	 0.2427474055	-2.1488373608	 1.0481552013	-0.254418
C	 0.7568253288	-0.7523072507	 1.1816606109	-0.230755
C	-1.3758241393	-0.6003352705	 0.0894894485	-0.178902
H	 1.0518455257	 1.6467200859	-0.0503628963	 0.283999
H	 0.1044064923	 0.1385232272	-2.181500056	 0.121583
H	 0.9286431091	-1.3621512948	-1.6546993828	 0.12788
H	-2.04808735	-1.2157707937	-2.0942999252	 0.106949
H	 1.8460508423	-0.7868318892	 1.0665708513	 0.111361
H	 0.5314573915	-0.2753418002	 2.1449226664	 0.115645
H	-2.2435327288	-0.159300223	 0.5734055158	 0.104707
244.0263	263.8809	277.9458	328.3489	384.5841	421.094	513.9332	581.9071	621.4648	666.3046	739.6124	773.8452	827.2865	851.3951	884.3781	914.0158	932.733	965.105	986.8389	1056.3862	1062.3442	1085.9085	1136.5391	1148.3389	1185.187	1190.6436	1216.6669	1234.2513	1257.0398	1306.6191	1311.3151	1387.6487	1447.8222	1486.8129	1692.9495	3017.6068	3070.3768	3074.1226	3141.0266	3145.708	3156.1395	3800.6235
OC12CC3OC(=NC1)C23	O[C@@]12C[C@H]3O[C]([N]C1)[C@@H]23	
InChI=1S/C6H7NO2/c8-6-1-3-4(6)5(9-3)7-2-6/h3-4,8H,1-2H2	InChI=1S/C6H7NO2/c8-6-1-3-4(6)5(9-3)7-2-6/h3-4,8H,1-2H2/t3-,4+,6+/m1/s1
