18
gdb 45548	3.13749	1.46964	1.26648	3.0364	71.48	-0.2595	0.0271	0.2866	1036.4222	0.15102	-439.124094	-439.116805	-439.115861	-439.156862	28.023	
N	 0.2418353302	 0.8617563331	-0.8076250212	-0.536253
C	 0.0861261538	-0.1707987078	-0.0991101761	 0.396586
C	-1.2203284304	-0.9048834107	 0.1107767148	-0.3162
C	-0.821268192	-2.2426623608	 0.7488355628	-0.086547
C	-0.6836746384	-3.4478673087	-0.2159190943	-0.234942
C	 0.8302601814	-3.5473202436	-0.4528728867	-0.097912
O	 1.4135689011	-3.0787186626	 0.7666148564	-0.230456
C	 0.6450220439	-2.015311175	 1.2206510485	 0.205716
O	 1.0759731374	-0.7806028855	 0.6182728856	-0.249215
H	 1.2129004084	 1.1766359377	-0.7726830809	 0.22293
H	-1.8480129501	-0.3127658271	 0.7843319708	 0.137303
H	-1.7641131095	-1.0014290021	-0.8303650683	 0.137498
H	-1.4669280424	-2.4936354646	 1.5905935047	 0.091644
H	-1.0467274886	-4.3588550184	 0.2667398233	 0.115717
H	-1.2459594758	-3.3110557347	-1.1424317599	 0.112498
H	 1.1910364448	-4.5640296219	-0.6197462818	 0.117921
H	 1.1520539349	-2.9195047017	-1.2947027386	 0.114884
H	 0.8070635216	-1.9253107356	 2.296658321	 0.098829
44.7347	80.6803	210.8549	351.8425	410.537	507.8811	519.8149	581.3749	650.7722	667.6111	789.6672	837.3876	877.0327	888.1787	894.4764	908.3092	947.5638	966.2197	987.1797	1016.3246	1061.7288	1080.6358	1121.32	1142.6406	1192.1768	1203.7799	1240.3353	1269.2459	1276.05	1294.5397	1331.9989	1342.0123	1360.3581	1390.4494	1408.6769	1470.6788	1493.1423	1524.6229	1776.544	3018.7909	3061.8935	3065.8299	3093.6026	3107.0731	3108.9061	3117.7678	3123.6369	3473.1956
N=C1CC2CCOC2O1	[NH][C]1C[C@H]2CCO[C@H]2O1	
InChI=1S/C6H9NO2/c7-5-3-4-1-2-8-6(4)9-5/h4,6-7H,1-3H2	InChI=1S/C6H9NO2/c7-5-3-4-1-2-8-6(4)9-5/h4,6-7H,1-3H2/t4-,6+/m1/s1
