18
gdb 84742	2.07006	1.88464	1.15471	3.3424	74.12	-0.2288	-0.0168	0.212	1078.7076	0.148486	-439.135192	-439.126527	-439.125583	-439.168399	32.816	
C	-0.062586854	 1.5694984201	 0.0108752215	-0.391855
C	 0.0975849146	 0.0500773798	 0.0069426317	-0.142175
C	 0.737981964	-0.492489775	-1.295734371	 0.065962
O	 1.9081727932	 0.2346168669	-1.6827158383	-0.426691
C	 1.0260204886	-1.9643130793	-1.1758579037	-0.174399
C	 1.2868326508	-2.4983224911	 0.0214409414	 0.02219
N	 1.23206821	-1.7575254286	 1.200853001	-0.33933
C	 0.7936876506	-0.4463733048	 1.2745147543	 0.402
O	 0.9152358475	 0.1981996611	 2.2949409057	-0.359898
H	 0.9069366552	 2.0543126963	-0.1188355577	 0.135244
H	-0.7111758465	 1.8849553946	-0.8119010591	 0.10681
H	-0.4943373567	 1.9062037158	 0.954372617	 0.133486
H	-0.8976886967	-0.4212499134	 0.0523531227	 0.110795
H	 0.0262436339	-0.3058585153	-2.1071703114	 0.095162
H	 2.6523744182	-0.1306458005	-1.1917377976	 0.282548
H	 1.1045304893	-2.5699173899	-2.069655945	 0.102321
H	 1.5606704987	-3.5388862655	 0.1559302652	 0.122028
H	 1.6191797493	-2.1333674311	 2.0534962135	 0.255802
83.46	119.5042	176.1495	233.0061	275.6495	281.8412	322.8253	441.8137	489.4439	495.1257	553.0226	583.6694	638.7837	684.6768	760.9467	777.3828	847.5838	903.6383	959.3409	977.3368	1015.1988	1052.8392	1096.8782	1129.3755	1144.363	1186.8999	1245.3397	1267.9877	1299.2622	1311.8204	1395.4995	1408.6592	1413.0653	1430.7288	1467.8384	1487.1623	1500.1227	1712.8214	1800.198	2986.23	3050.111	3055.8621	3127.4031	3149.4201	3190.9926	3217.0504	3623.8104	3805.7343
CC1C(O)C=CNC1=O	C[C@H]1[C@@H](O)C=CNC1=O	
InChI=1S/C6H9NO2/c1-4-5(8)2-3-7-6(4)9/h2-5,8H,1H3,(H,7,9)	InChI=1S/C6H9NO2/c1-4-5(8)2-3-7-6(4)9/h2-5,8H,1H3,(H,7,9)/t4-,5-/m0/s1
