19
gdb 114451	4.47507	1.16632	1.07658	2.7835	75.01	-0.2279	0.0789	0.3068	1163.4422	0.159901	-422.953461	-422.945924	-422.94498	-422.985677	29.479	
C	 0.1167461456	 1.3636602192	 0.1005701003	-0.235914
O	-0.1596498731	 0.001562005	-0.1298330249	-0.250479
C	 0.5647198791	-0.5531133234	-1.2108565233	 0.114876
C	 2.0509742931	-0.9042406647	-0.8643191923	-0.282963
C	 2.003220594	-2.4200714046	-0.9976444168	-0.033764
C	 1.1002553886	-2.804639815	-2.2063803629	 0.042415
O	 0.632641672	-4.0150710347	-1.5191968926	-0.320346
C	 0.6293596204	-2.9553961517	-0.4967457549	 0.063797
C	 0.0156813888	-1.9388182611	-1.5025728354	-0.060346
H	 1.1692814137	 1.5374890442	 0.3710588604	 0.105868
H	-0.1158328509	 1.978956832	-0.7829952645	 0.104998
H	-0.5145525316	 1.6869274089	 0.9317906266	 0.128614
H	 0.495241531	 0.115883718	-2.0828469868	 0.063976
H	 2.7692211414	-0.4468218546	-1.5520874895	 0.100871
H	 2.2977280449	-0.5786156803	 0.150730749	 0.111063
H	 2.8890340794	-3.0243130591	-0.8061075482	 0.079149
H	 1.3473236231	-2.8812696411	-3.2661384399	 0.089324
H	 0.3035846746	-3.2157310681	 0.5096491384	 0.095892
H	-1.0260633542	-2.0524633289	-1.7963040927	 0.082968
97.1536	120.4602	188.5155	257.943	346.7081	406.9432	465.6235	521.8378	674.1823	738.6128	772.1642	797.0245	842.2574	887.8033	897.8	905.2377	960.9467	973.6341	989.1885	994.5573	1052.6956	1061.3406	1119.4982	1128.2097	1158.1652	1165.2215	1182.6683	1184.6329	1216.2698	1232.2678	1244.2652	1248.9818	1271.7212	1281.027	1326.9983	1368.3738	1395.7024	1479.8993	1483.8622	1489.6416	1509.4057	2971.3209	2979.7002	3020.7314	3050.2123	3096.009	3106.8262	3114.2643	3124.1866	3136.3273	3149.4599
COC1CC2C3OC2C13	CO[C@H]1C[C@@H]2[C@H]3O[C@@H]2[C@@H]13	
InChI=1S/C7H10O2/c1-8-4-2-3-6-5(4)7(3)9-6/h3-7H,2H2,1H3	InChI=1S/C7H10O2/c1-8-4-2-3-6-5(4)7(3)9-6/h3-7H,2H2,1H3/t3-,4-,5+,6-,7+/m0/s1
