21
gdb 107077	3.41675	0.98575	0.89047	0.8591	89.47	-0.2447	0.0521	0.2968	1404.9504	0.18126	-349.899971	-349.890696	-349.889751	-349.934057	35.65	
C	 0.0489548257	 1.5643494067	 0.3077093565	-0.373689
C	 0.0286219743	 0.0741399532	-0.0601665536	-0.299782
C	-1.3605466782	-0.5016034985	-0.1030674128	 0.409798
C	-2.0797495286	-1.0135009565	 1.1170683265	-0.341354
C	-1.8345542412	-1.9537456907	-0.0319043869	-0.117779
C	-2.8873054914	-1.7024762454	-1.1334285722	-0.167939
C	-2.3907558353	-0.206686974	-1.2057912681	-0.310675
C	-2.696995771	-2.4601704039	-2.3545339225	 0.300953
C	-2.5262715905	-3.0903157503	-3.3648075702	-0.449537
H	 1.0713695943	 1.9543148189	 0.3197576095	 0.111427
H	-0.5245220087	 2.1575021706	-0.4127643496	 0.118489
H	-0.3891611619	 1.7308840208	 1.2972256879	 0.117955
H	 0.5108238682	-0.067862323	-1.0365640824	 0.099364
H	 0.6291744227	-0.4915359706	 0.6634965648	 0.095821
H	-1.4531542336	-1.1796164287	 1.9882529215	 0.109282
H	-3.0908115103	-0.6864607538	 1.35381592	 0.101018
H	-1.2582438468	-2.8654158574	 0.0690615001	 0.094019
H	-3.9211452633	-1.8185298907	-0.7860048807	 0.097532
H	-3.1416918737	 0.5598439873	-0.9890109239	 0.09636
H	-1.9296986114	 0.0069670991	-2.1719886237	 0.117204
H	-2.3843322593	-3.6479054431	-4.2570267502	 0.191534
68.2306	88.7223	168.1936	185.08	215.0202	286.9992	346.0795	392.7924	419.7058	479.14	520.2894	614.5563	623.4161	642.3876	739.9271	786.4056	808.0639	856.278	877.5851	935.6329	957.0831	991.9514	1002.1544	1028.1579	1045.6334	1058.493	1080.5477	1091.3566	1129.7948	1151.8053	1214.8237	1229.5681	1249.4132	1263.6768	1328.195	1335.8317	1360.0721	1403.4933	1412.1098	1479.1045	1480.2836	1498.2062	1504.0868	1507.5308	2233.7128	3014.0602	3024.7856	3033.2379	3047.9837	3048.4087	3096.6968	3101.3535	3106.3766	3117.3598	3183.4969	3193.3645	3505.1337
CCC12CC1C(C2)C#C	CC[C@]12C[C@H]1[C@@H](C2)C#C	
InChI=1S/C9H12/c1-3-7-5-9(4-2)6-8(7)9/h1,7-8H,4-6H2,2H3	InChI=1S/C9H12/c1-3-7-5-9(4-2)6-8(7)9/h1,7-8H,4-6H2,2H3/t7-,8+,9+/m1/s1
