21
gdb 75286	2.95202	1.63059	1.21479	0.0161	88.64	-0.2199	0.0272	0.2471	1093.7564	0.185214	-349.930583	-349.923266	-349.922321	-349.961915	30.508	
C	 0.00985547	 1.5315262677	 0.0184523686	-0.495216
C	-0.0032746962	 0.0315892588	-0.048193785	 0.321947
C	-0.0113042076	-0.6681294461	-1.1837390847	-0.173723
C	-0.0239925228	-2.1706906314	-1.1288848956	-0.308569
C	-0.0258139354	-2.6758297271	 0.3096885214	 0.024384
C	-0.956764527	-1.9759665124	 1.3555056071	-0.056461
C	-0.0207145441	-2.5242566679	 2.4622810528	-0.240977
C	 0.9207034858	-1.9920965903	 1.3521905431	-0.056464
C	-0.0074686494	-0.7339116734	 1.2486704993	-0.067562
H	 0.8936783792	 1.8976809704	 0.5573428406	 0.121989
H	 0.0099517622	 1.9797270827	-0.97904887	 0.118191
H	-0.863358866	 1.9127778018	 0.5640784608	 0.121943
H	-0.0089761683	-0.1788772661	-2.1545479995	 0.075192
H	-0.9018292038	-2.5664067643	-1.6611985672	 0.103902
H	 0.8451765258	-2.5812593931	-1.664170212	 0.103906
H	-0.0351374339	-3.7700512997	 0.3558123741	 0.056622
H	-2.0485963021	-1.954809216	 1.3531158484	 0.064296
H	-0.0143690742	-1.9805888573	 3.4114030434	 0.085313
H	-0.0297358275	-3.6066445352	 2.6195321011	 0.086327
H	 2.0127235191	-1.9897199028	 1.3459562347	 0.064291
H	-0.0003132236	-0.0828387283	 2.1283950185	 0.050668
154.6619	188.5188	275.7423	285.3477	312.2614	442.877	514.3052	527.6566	552.2845	697.3817	769.5337	786.6653	816.2841	847.0822	891.1637	904.0799	917.5848	959.4297	977.6973	997.252	1021.9484	1030.7714	1062.6148	1078.2567	1081.5706	1087.4237	1114.9715	1135.9393	1155.5134	1184.0867	1199.1366	1217.3801	1246.1058	1258.5971	1263.6302	1299.2933	1353.6758	1394.0582	1412.0468	1418.6469	1472.5707	1477.6603	1490.5574	1516.4563	1740.375	2992.4558	3010.8951	3011.1707	3043.5369	3048.369	3055.8595	3057.0925	3085.699	3093.1939	3106.3307	3108.5204	3155.2331
CC1=CCC2C3CC2C13	CC1=CC[C@@H]2[C@H]3C[C@@H]2[C@@H]13	
InChI=1S/C9H12/c1-5-2-3-6-7-4-8(6)9(5)7/h2,6-9H,3-4H2,1H3	InChI=1S/C9H12/c1-5-2-3-6-7-4-8(6)9(5)7/h2,6-9H,3-4H2,1H3/t6-,7-,8+,9+
