17
gdb 128795	3.49678	1.08093	0.85917	4.1486	71.75	-0.2269	0.0054	0.2324	1319.072	0.136359	-455.126509	-455.11782	-455.116876	-455.160293	31.576	
C	 0.0655027633	 1.3666985199	 0.920185217	-0.226316
O	-0.0052329296	-0.0346012212	 1.069584877	-0.241238
C	 0.9314733041	-0.7194937327	 0.2465672538	-0.214301
C	 0.8265357075	-2.179372561	 0.5193591017	 0.108823
C	 0.7310990332	-3.2333338298	-0.3267702878	-0.009286
O	 0.7080526933	-4.3916224713	 0.3400570393	-0.178463
N	 0.7655310945	-4.1205613643	 1.7191912113	-0.233825
C	 0.8461469669	-2.8113597556	 1.8078700013	 0.359271
N	 0.9791170553	-2.1504865506	 3.0121145346	-0.595558
H	-0.1635543149	 1.674091465	-0.1115369707	 0.11172
H	-0.6762582284	 1.8040673551	 1.5921080245	 0.132364
H	 1.0616478374	 1.7553999637	 1.1826067312	 0.11087
H	 0.7385947414	-0.5076029693	-0.816862049	 0.102699
H	 1.9472994426	-0.3511195507	 0.4714544236	 0.107506
H	 0.6813947395	-3.3058515818	-1.4032418429	 0.146372
H	 0.7406652343	-2.7181845495	 3.8136825703	 0.257331
H	 0.5146116497	-1.251949976	 3.0075415748	 0.262031
76.9887	101.7163	129.2321	228.2129	250.3407	292.3032	338.7902	371.0939	435.2826	462.3645	586.2115	656.0457	724.5672	754.4636	789.3742	849.8054	911.6529	928.157	974.4118	1024.3564	1135.6848	1146.0415	1176.4988	1184.6658	1218.4821	1248.8459	1260.8468	1315.3572	1413.5271	1474.6194	1482.666	1486.2608	1501.1841	1519.2125	1554.1965	1638.5388	1687.2106	2952.0728	2977.9425	2994.3529	3025.4169	3121.1025	3252.4447	3547.8289	3654.0945
COCC1=CON=C1N	COCc1conc1N	
InChI=1S/C5H8N2O2/c1-8-2-4-3-9-7-5(4)6/h3H,2H2,1H3,(H2,6,7)	InChI=1S/C5H8N2O2/c1-8-2-4-3-9-7-5(4)6/h3H,2H2,1H3,(H2,6,7)
