17
gdb 96605	2.55442	1.23092	0.83928	3.3429	83.37	-0.2475	-0.0442	0.2033	1333.8445	0.13314	-417.999146	-417.989087	-417.988143	-418.034434	35.04	
C	 0.0460410453	 1.4221478213	 0.1176031537	-0.334779
N	-0.0133599248	-0.0214797966	 0.0958867852	-0.302188
C	-1.1246218477	-0.641554566	 0.0098606647	 0.303574
C	-2.4154796053	-0.0042384739	-0.0736666928	 0.25763
C	-3.4472498412	 0.6116018746	-0.1391224377	-0.441417
N	-1.1033243148	-2.0450097687	-0.0058283668	-0.149439
C	 0.1941862978	-2.7097085164	 0.0775664322	-0.337478
C	-2.2501930653	-2.813633729	-0.095765887	 0.159775
O	-2.2606328298	-4.0229313807	-0.1110946775	-0.325385
H	 0.6732462994	 1.7622586283	-0.7148165977	 0.13431
H	-0.9258644545	 1.9263550274	 0.0553311377	 0.120158
H	 0.5498558969	 1.7408890459	 1.0376928475	 0.134307
H	-4.3687918635	 1.1383057133	-0.1978086101	 0.217729
H	 0.7030513434	-2.4269995335	 1.0017297954	 0.144123
H	 0.0058036117	-3.7813270674	 0.052723177	 0.162451
H	 0.826172149	-2.4080892674	-0.7606816761	 0.144038
H	-3.1623209767	-2.2019383513	-0.1524815378	 0.112593
60.0571	98.581	136.5515	157.4988	164.5635	209.6331	256.6383	298.2537	335.8272	359.4888	390.1707	460.5183	515.0756	656.3326	668.8704	694.0659	720.7636	813.4254	959.1617	1032.1074	1077.2871	1128.9126	1129.6175	1159.5624	1171.3822	1338.3426	1367.4773	1438.0218	1443.2465	1449.08	1487.1397	1489.021	1495.6509	1509.1795	1683.7952	1800.0978	2219.1023	3011.5817	3034.788	3063.6984	3074.533	3082.0606	3126.5204	3180.927	3493.2631
CN=C(C#C)N(C)C=O	CN=C(C#C)N(C)C=O	
InChI=1S/C6H8N2O/c1-4-6(7-2)8(3)5-9/h1,5H,2-3H3	InChI=1S/C6H8N2O/c1-4-6(7-2)8(3)5-9/h1,5H,2-3H3
