19
gdb 91563	2.83611	1.28574	1.03991	1.9726	80.41	-0.2514	0.0466	0.298	1203.4473	0.156853	-385.823992	-385.814922	-385.813977	-385.857927	34.268	
C	-0.1691226747	 1.5036860036	-0.1101106333	-0.409492
C	 0.0408332698	-0.0024710479	-0.1606534778	-0.038976
C	 1.3115979348	-0.5588705127	-0.9090486606	-0.264686
C	 1.7464540185	-1.2110579148	 0.4072008359	-0.053199
O	 1.8681911787	-0.1580975127	 1.3796033328	-0.285432
C	 0.566171262	-0.6948961359	 1.1193061675	 0.426982
C	-0.2178864796	-1.2473994517	 2.2806169616	-0.472508
C	-0.9151236712	-0.2178017136	 3.0487613006	 0.311962
C	-1.4940727726	 0.6322475288	 3.6698922292	-0.451059
H	 0.7195449705	 1.9949599426	 0.2957493243	 0.132598
H	-0.3565368791	 1.9055272714	-1.1116041501	 0.109335
H	-1.0217592298	 1.7617809549	 0.5253095257	 0.125677
H	-0.8586980261	-0.5114279219	-0.5232408867	 0.074673
H	 1.0639279525	-1.2766593899	-1.6946643331	 0.103886
H	 2.0079547748	 0.1873225315	-1.3003254215	 0.110582
H	 2.3418163744	-2.1019980195	 0.5743959513	 0.101232
H	-0.9480314801	-1.9759249643	 1.9038042977	 0.135015
H	 0.4719697757	-1.7964662875	 2.932449334	 0.144282
H	-1.9982606984	 1.3825731397	 4.2269438327	 0.199127
56.074	95.6484	172.2663	223.4009	231.0266	286.4731	340.7068	354.0614	414.7366	480.2602	557.1762	621.3406	643.9411	703.445	719.9464	785.6567	858.2137	875.2108	928.1601	944.6499	957.2091	964.3996	1020.5908	1063.1419	1104.4802	1115.5877	1145.4452	1191.9871	1224.461	1243.8348	1256.99	1292.4753	1329.7337	1361.4433	1403.066	1450.8191	1453.7639	1480.8821	1491.5418	1504.0341	2240.7274	3020.1468	3036.3623	3050.2857	3062.9405	3063.9467	3103.1974	3118.3177	3122.2957	3178.6985	3505.4151
CC1CC2OC12CC#C	C[C@H]1C[C@H]2O[C@@]12CC#C	
InChI=1S/C8H10O/c1-3-4-8-6(2)5-7(8)9-8/h1,6-7H,4-5H2,2H3	InChI=1S/C8H10O/c1-3-4-8-6(2)5-7(8)9-8/h1,6-7H,4-5H2,2H3/t6-,7+,8-/m0/s1
