23
gdb 69647	3.71586	1.14297	1.06144	0.2753	90.2	-0.2384	0.0922	0.3305	1271.1937	0.206109	-351.124437	-351.115788	-351.114844	-351.157354	34.69	
C	-0.0166550057	 1.5485788854	 0.3219823109	-0.496825
C	 0.0471812621	 0.0684075229	 0.0777713727	 0.38026
C	-0.7687138404	-0.9318251883	 0.850294809	-0.335883
C	 0.7343791015	-1.0433462402	 0.8777277357	-0.15737
C	 1.236362856	-1.6994500202	-0.414738642	 0.399532
C	 2.7700180058	-1.908090867	-0.5317064712	-0.287217
C	 2.5510801016	-3.4208800514	-0.2604415692	-0.207875
C	 1.0529374893	-3.2275150548	-0.6205767258	-0.281286
C	 0.5186596384	-0.5842480684	-1.2322513405	-0.390617
H	 0.9126162195	 2.0451625653	 0.0188791535	 0.113266
H	-0.8363319114	 2.0103209056	-0.2427938164	 0.117054
H	-0.1833941046	 1.7693514555	 1.3817376348	 0.114456
H	-1.2217326788	-0.5556131115	 1.7629286038	 0.103873
H	-1.3667933433	-1.682657385	 0.3368098749	 0.100628
H	 1.2956799701	-0.9751899936	 1.8042524238	 0.075084
H	 3.1221005273	-1.7243207635	-1.552293507	 0.094323
H	 3.4055257457	-1.347589679	 0.1603099372	 0.092908
H	 3.1283492282	-4.1285184084	-0.8599263333	 0.093506
H	 2.6877645857	-3.6709768062	 0.7952209733	 0.101661
H	 0.3072315798	-3.7288461418	 0.0027646376	 0.093395
H	 0.8527295222	-3.4720930554	-1.6690243786	 0.094972
H	-0.269685302	-0.9045920656	-1.9240317163	 0.086453
H	 1.2352262332	 0.0333741855	-1.7833383069	 0.095702
103.8456	110.2635	202.4691	210.7424	289.7099	320.1271	361.6854	393.451	441.2875	494.8129	642.726	683.2327	768.5737	795.1927	812.093	848.8281	881.9944	887.7013	936.037	940.8549	963.9515	969.8515	976.9122	1014.7795	1031.6897	1053.6898	1071.7334	1088.7306	1141.2079	1151.6133	1172.9983	1188.414	1216.316	1239.1255	1242.2335	1254.4863	1275.4597	1279.4154	1296.0596	1322.1049	1390.7987	1423.2521	1472.4215	1476.5403	1483.1439	1486.1842	1497.4959	1503.4959	1505.6482	3015.2219	3023.9323	3038.4366	3044.0387	3058.8962	3072.143	3078.4561	3086.9734	3090.647	3093.1906	3096.0413	3114.4796	3156.1114	3187.4056
CC12CC1C1(CCC1)C2	C[C@]12C[C@H]1C1(CCC1)C2	
InChI=1S/C9H14/c1-8-5-7(8)9(6-8)3-2-4-9/h7H,2-6H2,1H3	InChI=1S/C9H14/c1-8-5-7(8)9(6-8)3-2-4-9/h7H,2-6H2,1H3/t7-,8-/m1/s1
