18
gdb 50178	4.56048	1.08736	0.91729	4.0157	81.33	-0.241	-0.0042	0.2368	1251.2465	0.149084	-401.946323	-401.938598	-401.937654	-401.978905	29.287	
O	 0.2176049963	-0.0765414197	 0.7626710366	-0.322748
C	 0.0993742649	 1.0949056782	 0.47367736	 0.132779
N	 1.0335612686	 1.8262398661	-0.190030346	-0.081355
C	 2.4762370791	 1.4821668817	-0.33755599	-0.262226
C	 2.6747446032	 2.9508652632	-0.6599211189	 0.25092
C	 3.1457542174	 3.8253549796	-1.538040743	-0.210339
C	 2.1383608509	 4.967123047	-1.6836386482	-0.242651
C	 0.796444808	 4.3134875155	-1.2039054481	-0.248284
C	 1.2938804463	 3.2959706964	-0.1628273256	-0.001862
H	-0.8078816148	 1.6937605803	 0.6975722538	 0.071332
H	 2.9049301933	 1.1194933758	 0.604261943	 0.131987
H	 2.7035463745	 0.7686498335	-1.1334586553	 0.13922
H	 4.034852323	 3.7350452691	-2.1502594542	 0.106162
H	 2.4006765589	 5.8397473504	-1.069841816	 0.113831
H	 2.0760121015	 5.3235165495	-2.7167917848	 0.112819
H	 0.0768519928	 5.0393855199	-0.8156142695	 0.09995
H	 0.3348263046	 3.7813530206	-2.0414746706	 0.117895
H	 1.2372952813	 3.684934443	 0.8636374569	 0.092572
68.4732	157.2466	187.5946	238.9731	317.0538	333.1095	386.9003	516.0965	631.8203	653.3176	756.6901	819.0396	838.9475	865.0507	880.0061	909.8051	955.509	993.744	1010.2945	1036.0209	1066.2705	1098.3059	1109.8173	1139.3916	1165.885	1198.8705	1228.8302	1273.972	1281.7025	1311.1108	1329.401	1352.2994	1361.3438	1424.1035	1480.3803	1494.9678	1501.0401	1753.2279	1792.6776	2919.96	3001.2135	3016.5597	3036.5059	3055.2164	3075.2591	3099.3048	3109.4464	3207.4034
O=CN1CC2=CCCC12	O=CN1C[C]2[CH]CC[C@@H]12	
InChI=1S/C7H9NO/c9-5-8-4-6-2-1-3-7(6)8/h2,5,7H,1,3-4H2	InChI=1S/C7H9NO/c9-5-8-4-6-2-1-3-7(6)8/h2,5,7H,1,3-4H2/t7-/m1/s1
