15
gdb 24782	2.68798	2.05361	1.18169	3.4808	75.22	-0.2303	-0.0462	0.1841	976.9491	0.116612	-413.01652	-413.009761	-413.008817	-413.047864	25.773	
N	-0.1313189875	 1.3571351999	 0.0103545352	-0.560923
C	-0.0118033274	 0.0912168994	 0.002902428	 0.39603
N	 1.1682379855	-0.6657299814	-0.007020319	-0.303814
C	 1.1061005421	-1.9637263986	-0.013797106	 0.058198
N	-0.0088482396	-2.792265691	-0.0131750398	-0.384669
C	-1.0847073822	-2.0736480129	-0.0038171316	 0.454504
C	-2.5933034962	-2.2258766378	 0.0024927269	-0.379547
C	-2.6120709556	-0.6502661557	 0.0114468966	-0.167734
N	-1.1443350857	-0.7292668702	 0.0041393159	-0.065821
H	 0.7998554604	 1.7719648978	 0.007978352	 0.227055
H	 2.0560917755	-2.4957043028	-0.0217867499	 0.125013
H	-3.0112110289	-2.6946199716	-0.8898069865	 0.152934
H	-3.002775305	-2.7046465137	 0.893379802	 0.152928
H	-3.0235088773	-0.1709340941	-0.878911064	 0.147927
H	-3.0151798782	-0.1809558873	 0.9109052601	 0.147918
119.2654	161.5886	219.3095	303.6928	446.6825	526.2595	548.1618	599.649	660.4495	739.244	774.4874	803.5082	861.2069	888.0097	907.0437	976.9644	1011.6899	1064.2567	1098.6903	1146.7317	1173.0889	1174.3668	1195.0544	1242.8376	1263.7015	1342.8986	1418.7323	1440.7363	1464.354	1515.2984	1549.4251	1689.2458	1744.0203	3080.4023	3093.6282	3134.9181	3151.0439	3151.706	3504.5357
N=C1N=CN=C2CCN12	[NH]C1=NCN=C2CCN12	
InChI=1S/C5H6N4/c6-5-8-3-7-4-1-2-9(4)5/h3,6H,1-2H2	InChI=1S/C5H7N4/c6-5-8-3-7-4-1-2-9(4)5/h6H,1-3H2
