14
gdb 7948	3.76825	1.78953	1.25907	1.8839	60.38	-0.2628	-0.0159	0.2469	897.3132	0.108678	-415.914166	-415.907123	-415.906178	-415.945689	26.419	
O	 0.1756790205	 1.327856193	 0.2937672045	-0.433631
C	 0.0091940487	-0.0392607091	 0.0294820987	 0.091239
C	-1.4590208202	-0.4435077914	-0.1612860474	-0.358982
C	-1.4400109025	-1.4498958781	-1.3093636545	 0.401839
O	-2.3174596702	-2.1797552838	-1.6891053791	-0.340537
N	-0.1745306893	-1.3575486181	-1.8967510829	-0.361223
C	 0.6750877374	-0.4522255718	-1.2824597144	 0.364307
N	 1.7906936088	 0.0319665976	-1.6388838634	-0.55124
H	 1.0389790396	 1.5640670492	-0.0751638832	 0.299165
H	 0.4608869468	-0.6534159876	 0.8267023499	 0.102292
H	-1.9384993603	-0.8703657371	 0.7198668509	 0.143319
H	-2.0392302049	 0.4304201834	-0.4761877263	 0.158031
H	 0.0421496954	-1.8649866862	-2.742876013	 0.263962
H	 2.1131219702	-0.3086626401	-2.5442729097	 0.221459
81.9255	135.5891	268.1135	352.4529	414.1274	418.1313	528.8227	543.9292	588.2722	635.2222	637.2041	716.4636	822.5212	861.7371	879.154	981.105	1037.1184	1096.2944	1128.6863	1174.3141	1218.596	1254.0365	1283.2899	1351.526	1362.2834	1395.1409	1431.1585	1461.5501	1771.1546	1865.562	2961.9245	3069.714	3138.6143	3483.2498	3614.6697	3740.3206
OC1CC(=O)NC1=N	O[C@H]1CC(=O)N[C]1[NH]	
InChI=1S/C4H6N2O2/c5-4-2(7)1-3(8)6-4/h2,7H,1H2,(H2,5,6,8)	InChI=1S/C4H6N2O2/c5-4-2(7)1-3(8)6-4/h2,7H,1H2,(H2,5,6,8)/t2-/m0/s1
