17
gdb 20724	3.32716	1.94569	1.25216	1.8422	71.78	-0.1984	0.0344	0.2328	969.6204	0.142826	-360.073355	-360.064518	-360.063574	-360.106747	31.279	
C	-0.0087480615	 1.4660005444	-0.0198510173	-0.505987
C	 0.0155745528	-0.0274623132	 0.0561653283	 0.313781
N	 0.0132014416	-0.7725743343	-1.0480509205	-0.297895
N	 0.0327536279	-2.0439249751	-0.5990392718	-0.269927
C	 0.0252457439	-2.1453275773	 0.7574453979	 0.359788
C	 0.0190407382	-3.437050513	 1.5012148963	-0.512891
C	 0.0238817411	-0.8410837117	 1.2204000319	-0.000453
N	-0.0122640866	-0.4526410039	 2.5846479541	-0.616158
H	 0.8001519694	 1.9122339429	 0.5708636121	 0.116672
H	 0.1069961114	 1.7852246542	-1.0576914604	 0.141723
H	-0.9518814782	 1.8819640886	 0.356253114	 0.123151
H	 0.0432786262	-2.7949463223	-1.2673213702	 0.264003
H	 1.0163926771	-3.8893251904	 1.5724292478	 0.130151
H	-0.3385202207	-3.259390282	 2.5191340511	 0.151894
H	-0.6422720886	-4.17261855	 1.03027815	 0.126523
H	 0.8906832301	-0.5543049532	 3.0369994968	 0.238617
H	-0.2861021641	 0.5182495363	 2.6790418799	 0.237009
74.3954	116.542	137.9894	156.8294	239.4504	250.7331	308.7219	328.3318	454.8792	491.3336	577.9327	669.9871	711.5039	720.4136	767.8924	831.1044	987.9465	1006.3854	1024.1833	1062.6448	1064.7852	1186.4198	1226.2908	1252.7788	1309.0538	1402.3356	1413.2818	1435.4563	1477.0579	1482.8576	1486.7356	1495.1657	1512.1303	1536.789	1635.0097	1664.55	3020.0793	3021.456	3067.4926	3073.6157	3116.7581	3129.5141	3501.7311	3586.8655	3675.9809
CC1=NNC(C)=C1N	Cc1n[nH]c(C)c1N	
InChI=1S/C5H9N3/c1-3-5(6)4(2)8-7-3/h6H2,1-2H3,(H,7,8)	InChI=1S/C5H9N3/c1-3-5(6)4(2)8-7-3/h6H2,1-2H3,(H,7,8)
