15
gdb 43448	2.91238	1.58128	1.11588	0.9362	69.75	-0.2555	-0.0126	0.2429	1048.1769	0.113605	-453.98906	-453.9816	-453.980656	-454.021115	28.617	
N	-0.1520147928	 1.2904975186	 0.0104897459	-0.555294
C	-0.0150991702	 0.0380214487	 0.0031444221	 0.474841
N	 1.1291281186	-0.7686891076	-0.0070607159	-0.428574
C	 0.8322925138	-2.1187158673	-0.0125512204	 0.393382
O	 1.6021718671	-3.0471360609	-0.0219738218	-0.368699
C	-0.6613955874	-2.1365928717	-0.0057709955	 0.281989
C	-1.4481499376	-3.1680954467	-0.7620309238	-0.312981
C	-1.4410902205	-3.1765433824	 0.7462007614	-0.313013
O	-1.0951910869	-0.7895916025	 0.0037995509	-0.25243
H	 0.7451284136	 1.7681343528	 0.008520612	 0.223161
H	 2.0682890836	-0.4052041032	-0.0100096753	 0.273977
H	-2.3416580597	-2.8115218267	-1.2608857088	 0.144163
H	-0.877011824	-3.9243861556	-1.2885729306	 0.14767
H	-0.8650859543	-3.9386475422	 1.2588785036	 0.147661
H	-2.3298579833	-2.8256024934	 1.2573649564	 0.144147
104.1694	142.9694	224.8128	226.7285	364.6448	424.56	512.8819	517.4181	608.2215	653.2807	715.2392	746.7423	757.722	772.8872	775.9353	909.0775	925.9534	959.3064	968.9419	1028.2731	1058.4041	1070.7961	1085.9195	1157.7497	1200.1479	1299.2415	1340.3409	1364.4008	1400.3408	1442.2617	1482.2771	1795.6646	1861.1152	3143.7302	3143.7719	3234.5473	3247.5713	3537.8376	3661.0055
N=C1NC(=O)C2(CC2)O1	[NH][C]1NC(=O)C2(CC2)O1	
InChI=1S/C5H6N2O2/c6-4-7-3(8)5(9-4)1-2-5/h1-2H2,(H2,6,7,8)	InChI=1S/C5H6N2O2/c6-4-7-3(8)5(9-4)1-2-5/h1-2H2,(H2,6,7,8)
