18
gdb 12138	4.87865	1.53385	1.40839	2.5863	72.49	-0.2361	0.0769	0.313	944.9741	0.154634	-343.917657	-343.910269	-343.909325	-343.948951	28.954	
C	 0.0573879225	 1.5308846202	-0.0187321842	-0.482733
C	-0.0484712372	 0.040396106	 0.0884007907	 0.350013
C	-1.3613959702	-0.7749905245	 0.0556417397	-0.394417
C	-0.7048176917	-1.756144677	 1.0525195339	 0.362283
C	-1.3570738018	-2.4621593084	 2.1709187145	-0.313562
N	-0.7407625948	-3.2196151428	 1.0554709009	-0.368382
C	 0.5711173956	-0.9408488389	 1.0531635609	-0.149623
N	 1.0811157966	-0.7929415307	-0.3111626485	-0.359164
H	 1.0794721133	 1.8544391827	 0.1937727141	 0.134579
H	-0.1982749396	 1.8701298215	-1.0298030903	 0.120762
H	-0.6223017867	 2.0271418199	 0.6822085875	 0.115917
H	-2.2180758873	-0.2466665439	 0.4845614571	 0.110732
H	-1.6444708997	-1.1715075737	-0.9271384553	 0.094899
H	-0.8450886485	-2.5674426945	 3.1241248292	 0.12103
H	-2.4414223808	-2.4221248049	 2.2434792066	 0.111063
H	-1.4693697493	-3.5484665269	 0.4257002481	 0.228885
H	 1.2536658079	-0.7920885329	 1.8824094664	 0.090699
H	 0.8191403116	-1.5798946412	-0.9032411413	 0.227017
104.5948	202.3067	235.1814	276.995	329.6738	380.0525	416.6384	489.4988	568.4952	668.5902	790.2708	825.1135	839.4381	895.5521	920.683	951.3909	959.4857	977.0028	984.7898	1015.2646	1059.2156	1100.0964	1117.8428	1133.4689	1148.7649	1176.4534	1235.1965	1238.1199	1253.6618	1267.8618	1307.6436	1399.8974	1420.1035	1447.4959	1483.0918	1485.5016	1495.4657	1516.4395	3025.4822	3029.2547	3086.3516	3089.0713	3100.487	3121.4621	3177.7208	3184.1595	3455.9284	3489.1574
CC12CC3(CN3)C1N2	C[C@]12C[C@]3(CN3)[C@H]1N2	
InChI=1S/C6H10N2/c1-5-2-6(3-7-6)4(5)8-5/h4,7-8H,2-3H2,1H3	InChI=1S/C6H10N2/c1-5-2-6(3-7-6)4(5)8-5/h4,7-8H,2-3H2,1H3/t4-,5-,6-/m0/s1
