14
gdb 77789	2.66484	1.45272	1.10417	2.5397	71.03	-0.2577	-0.0284	0.2293	1070.6731	0.101109	-432.833345	-432.825416	-432.824472	-432.86595	29.405	
N	-0.0928156007	 1.496811548	 0.080165517	-0.510852
C	-0.0729296067	 0.0786663589	-0.0166627627	-0.047722
C	-1.3194921221	-0.7798250961	 0.0681498891	-0.261679
C	-2.3862829478	-0.1776611008	-0.7907031988	 0.435382
N	-3.5899284246	 0.1127608924	-0.6310817406	-0.540278
O	-1.5684854	-0.0644824492	-1.9247986541	-0.294117
C	-0.4941284587	-0.743315413	-1.2283423998	 0.29859
C	 0.2482640271	-1.7451893715	-1.9081784409	 0.219864
N	 0.8931150393	-2.5470039417	-2.4386030843	-0.336435
H	 0.7499598092	 1.8984453915	-0.3180109998	 0.249785
H	-0.8877279054	 1.8968708581	-0.4066566272	 0.256725
H	 0.7641423622	-0.3738317356	 0.5100995856	 0.138664
H	-1.4563442957	-1.5692373299	 0.7928004504	 0.148333
H	-4.0096180161	 0.489741259	-1.4821748038	 0.243739
104.3435	143.6641	160.8608	208.3355	269.1718	400.2953	418.9943	509.1474	518.6075	540.9703	659.9227	688.8741	734.3884	822.2463	836.6852	872.422	916.7597	930.6985	970.106	1002.4356	1055.4654	1088.902	1186.5458	1197.3967	1255.8959	1286.6881	1311.7524	1460.3223	1660.9786	1844.9627	2344.9967	3152.5951	3233.4164	3488.0739	3510.6716	3594.077
NC1C2C(=N)OC12C#N	N[C@H]1[C@H]2[C]([NH])O[C@@]12C#N	
InChI=1S/C5H5N3O/c6-1-5-2(3(5)7)4(8)9-5/h2-3,8H,7H2	InChI=1S/C5H5N3O/c6-1-5-2(3(5)7)4(8)9-5/h2-3,8H,7H2/t2-,3-,5+/m0/s1
