12
gdb 133367	2.38664	1.83672	1.03858	2.6829	61.32	-0.2409	-0.0419	0.199	1006.2959	0.077014	-518.065488	-518.058319	-518.057375	-518.097063	27.107	
N	-0.0227382145	 1.366757476	-0.1426395043	-0.562533
C	 0.0065014026	-0.0001066452	-0.0566073357	 0.309064
N	-1.1634295472	-0.6494897327	-0.0226961061	-0.277581
N	-1.192469199	-1.9771075226	 0.0002360766	-0.196887
C	-0.0644550531	-2.6728879736	 0.0017327167	-0.10778
C	 1.1918449615	-2.0580499073	-0.0157229264	 0.165444
F	 2.3065109869	-2.7738095634	-0.0015309598	-0.044171
C	 1.2332956841	-0.6877063697	-0.0465555941	 0.095495
F	 2.3793751456	-0.0077065657	-0.0576979197	-0.056265
H	 0.7931500556	 1.8693516396	 0.1663106011	 0.267053
H	-0.913969196	 1.7812143423	 0.0844123259	 0.270497
H	-0.1431915965	-3.7543071677	 0.0234032457	 0.137663
142.512	244.0614	266.0691	292.3406	311.6786	399.3861	483.3668	492.7889	539.1009	580.5852	586.5811	642.3017	708.7696	779.5728	874.464	894.8769	1032.764	1127.2473	1173.0636	1249.6886	1292.3193	1348.6761	1429.2398	1527.091	1594.5968	1624.8951	1674.4005	3195.4959	3587.9148	3709.5301
NC1=NN=CC(F)=C1F	Nc1nncc(F)c1F	
InChI=1S/C4H3F2N3/c5-2-1-8-9-4(7)3(2)6/h1H,(H2,7,9)	InChI=1S/C4H3F2N3/c5-2-1-8-9-4(7)3(2)6/h1H,(H2,7,9)
