14
gdb 53926	1.85634	1.74411	1.19861	3.8838	67.67	-0.2776	-0.0399	0.2377	1055.7226	0.100606	-429.049784	-429.040453	-429.039508	-429.083904	33.393	
N	-0.0889471808	 1.3424136525	-0.2322679218	-0.539435
C	 0.0791504219	 0.0000999519	 0.0283697428	 0.365681
N	 1.1969433549	-0.4786719939	 0.3896095282	-0.512828
C	-1.2843645387	-0.7785087343	 0.0338760581	-0.161971
N	-2.0775728752	-0.5037490764	 1.2447386767	-0.504538
C	-2.0884134695	-0.3873713467	-1.1438411487	 0.328175
N	-2.6743779915	-0.0046426512	-2.0624114723	-0.323352
C	-1.019182561	-2.2276407158	-0.0320827012	 0.347606
N	-0.7800042194	-3.3563870414	-0.0495099032	-0.316505
H	 0.7824133208	 1.8531309777	-0.2684492498	 0.27264
H	-0.7478568	 1.5974167618	-0.9543753846	 0.278094
H	 1.1469035265	-1.4703269059	 0.614869676	 0.244018
H	-1.5451640861	-0.8166158836	 2.052908131	 0.260264
H	-2.183259512	 0.5042044953	 1.3311372588	 0.262152
59.1297	133.9571	153.2114	177.434	226.3681	247.5895	265.1031	386.9589	416.4896	454.0282	512.2427	528.5417	568.6335	589.4619	619.9659	662.9438	751.5649	845.997	873.155	981.322	1011.8228	1119.7821	1143.1716	1160.2571	1339.8614	1375.6152	1628.3296	1653.5346	1742.2983	2362.4945	2376.0114	3485.8151	3510.6674	3558.7306	3571.8982	3666.6361
NC(=N)C(N)(C#N)C#N	NC(=N)C(N)(C#N)C#N	
InChI=1S/C4H5N5/c5-1-4(9,2-6)3(7)8/h9H2,(H3,7,8)	InChI=1S/C4H5N5/c5-1-4(9,2-6)3(7)8/h9H2,(H3,7,8)
