18
gdb 12085	3.19536	1.74281	1.60437	2.7387	67.13	-0.2316	0.0824	0.3141	903.7101	0.15244	-384.903338	-384.895239	-384.894295	-384.935606	31.065	
C	 0.0936215724	 1.1793756781	-1.1090623712	-0.457404
C	-0.0694470214	 0.0605539264	-0.1050888636	 0.397248
C	 1.0915273291	-0.7467070962	 0.3032855038	-0.222303
O	 0.5935717201	 0.2920251984	 1.1584219848	-0.292196
C	-1.4622809626	-0.4933451753	 0.0121100471	-0.132483
C	-1.8939387812	-1.2572391482	 1.2531472236	-0.358322
C	-2.4124201522	 0.1334451002	 1.0114620941	 0.145195
O	-2.0254426548	 1.2123254513	 1.8044734719	-0.432116
H	 1.1230132651	 1.5456261589	-1.1220576038	 0.124212
H	-0.1691131237	 0.8360864872	-2.1152629273	 0.121307
H	-0.5707771055	 2.0091386322	-0.8487780342	 0.144056
H	 0.9371225044	-1.7606213491	 0.6672718547	 0.117538
H	 2.0706201352	-0.5471338451	-0.1289106239	 0.116455
H	-1.8846559795	-0.8084061097	-0.938581154	 0.087294
H	-2.5598324101	-2.105319364	 1.1357288684	 0.111314
H	-1.155706966	-1.3642769416	 2.041927273	 0.123352
H	-3.450921378	 0.2478019802	 0.7182566869	 0.104268
H	-1.1045495312	 1.073950846	 2.0600270698	 0.302587
67.26	172.5246	206.2273	223.3087	337.397	347.0279	398.6984	412.0039	465.3572	509.1547	603.8999	704.1401	787.673	793.2172	833.3347	877.0293	921.7246	980.0958	1006.226	1043.4967	1059.4799	1075.1802	1113.9726	1124.6888	1131.9824	1137.3986	1173.2852	1224.721	1237.9364	1346.2309	1379.03	1403.6347	1412.3947	1448.0814	1479.9273	1485.0533	1498.013	1523.1728	3039.601	3089.2284	3108.0507	3126.6106	3127.5156	3139.0997	3166.5157	3179.1432	3216.9148	3776.6832
CC1(CO1)C1CC1O	C[C@]1(CO1)[C@H]1C[C@H]1O	
InChI=1S/C6H10O2/c1-6(3-8-6)4-2-5(4)7/h4-5,7H,2-3H2,1H3	InChI=1S/C6H10O2/c1-6(3-8-6)4-2-5(4)7/h4-5,7H,2-3H2,1H3/t4-,5+,6-/m0/s1
