12
gdb 132893	3.11619	1.45421	0.99151	1.0926	63.28	-0.2228	-0.0645	0.1583	1050.8678	0.077509	-513.929235	-513.922253	-513.921309	-513.960942	26.504	
O	-0.0523877353	 1.2698234612	 0.1644752847	-0.364936
C	 0.0105520803	-0.0553178506	 0.0675130638	 0.379949
N	 1.1450985726	-0.6606162039	 0.0164234025	-0.387782
C	 1.1188496016	-2.0230266705	-0.082744481	 0.244922
F	 2.3100904441	-2.6068676372	-0.1326082436	-0.065137
C	-0.0089127159	-2.7410038317	-0.1281729299	-0.122187
O	-1.2219754297	-2.104974642	-0.0743650663	-0.224103
C	-1.3026838958	-0.7379545692	 0.0257999785	 0.34425
N	-2.4012095157	-0.1116255901	 0.0781804965	-0.505167
H	 0.8615217159	 1.5919852669	 0.1823496498	 0.312708
H	-0.0860461403	-3.8141056661	-0.2059355109	 0.153131
H	-3.1894978618	-0.7593740268	 0.0357858259	 0.234351
85.1645	216.8713	328.7668	346.6736	360.1206	425.0283	474.2343	546.7059	587.8304	602.0328	638.4499	682.0615	782.9707	789.6513	819.6488	875.5053	1005.4151	1021.0165	1200.6769	1205.2671	1259.955	1320.687	1402.4321	1460.596	1653.4238	1695.4887	1740.7077	3260.1181	3484.301	3750.6495
OC1=NC(F)=COC1=N	OC1=C(OC=C([N]1)F)[NH]	
InChI=1S/C4H3FN2O2/c5-2-1-9-3(6)4(8)7-2/h1,6H,(H,7,8)	InChI=1S/C4H3FN2O2/c5-2-1-9-3(6)4(8)7-2/h1,6H,(H,7,8)
