20
gdb 99340	6.06273	0.54254	0.51916	3.7718	83.75	-0.2462	0.0307	0.2769	2111.4169	0.16834	-403.153812	-403.14282	-403.141876	-403.191836	37.766	
C	 0.031778067	 1.4572211389	-0.167821079	-0.333557
N	-0.1456034624	 0.0221677624	-0.2733779504	-0.313315
C	-1.146341173	-0.6455035439	 0.3717129548	 0.414886
O	-1.9780482437	-0.0865424149	 1.0654450258	-0.374888
C	-1.1367760955	-2.1617783684	 0.1801862148	-0.321632
C	-2.5551422198	-2.7267349486	 0.0598119099	-0.159173
C	-2.5721943288	-4.2675396983	 0.0632034235	-0.361355
C	-3.9145706083	-4.8197546621	-0.0727068529	 0.291776
C	-5.0304153137	-5.2513098365	-0.1880266888	-0.431666
H	 0.9988602287	 1.7099003903	 0.2816181258	 0.124684
H	-0.0351871086	 1.9407560996	-1.1487614542	 0.12505
H	-0.7675450388	 1.8344180697	 0.4709462934	 0.173109
H	 0.5031904964	-0.5057298223	-0.8322901363	 0.243807
H	-0.5274478554	-2.4464364491	-0.6865315678	 0.091415
H	-0.644294186	-2.5917100164	 1.0632525441	 0.128334
H	-3.1553317479	-2.3424622211	 0.8879410819	 0.142513
H	-3.0249321251	-2.3630247792	-0.8604709774	 0.113183
H	-1.9399482376	-4.6479084119	-0.750709086	 0.124436
H	-2.1186417275	-4.635215755	 0.9935756306	 0.129195
H	-6.0132384601	-5.640217843	-0.286884152	 0.193199
23.8233	75.1371	78.6679	85.1983	106.091	154.1478	216.2154	285.9645	304.8729	348.3391	419.8625	449.6184	531.8402	615.8222	630.2558	634.9031	718.6358	749.3153	850.8129	892.1643	965.9461	1029.6167	1043.6269	1066.9466	1100.9978	1152.1201	1162.2691	1173.5923	1226.4487	1268.283	1297.1287	1322.0201	1363.3411	1392.1686	1438.0164	1465.4772	1473.8719	1492.489	1500.7881	1502.3386	1559.0124	1777.8415	2239.6649	3009.1363	3015.4286	3026.3701	3036.8781	3050.4055	3059.7648	3077.8179	3116.3325	3154.1607	3508.1481	3652.7549
CNC(=O)CCCC#C	CNC(=O)CCCC#C	
InChI=1S/C7H11NO/c1-3-4-5-6-7(9)8-2/h1H,4-6H2,2H3,(H,8,9)	InChI=1S/C7H11NO/c1-3-4-5-6-7(9)8-2/h1H,4-6H2,2H3,(H,8,9)
