17
gdb 108294	2.69714	1.4336	1.09958	3.0567	68.02	-0.2746	0.003	0.2776	1107.653	0.135945	-458.971929	-458.963829	-458.962884	-459.004998	30.318	
O	 0.0601889773	 1.4507023432	 0.069162327	-0.412607
C	 0.1036149567	 0.0414847331	 0.1916672135	-0.155672
C	-1.2704611783	-0.5573940237	 0.0527535505	 0.435154
C	-2.3845622711	-0.332978086	 1.098373416	-0.274544
C	-2.7817668572	-1.8374118939	 0.9805827397	-0.234469
C	-1.640707791	-2.061013135	-0.0666036377	-0.306218
C	-2.0712729036	-1.6787802748	-1.4756545413	 0.453308
O	-2.5118816802	-2.2081251797	-2.4436466514	-0.323773
O	-1.7911394303	-0.3359664242	-1.3122038832	-0.302075
H	-0.3069368346	 1.6458433629	-0.8010182746	 0.298342
H	 0.7773254167	-0.4155026725	-0.5500168361	 0.099632
H	 0.5037601218	-0.1751312456	 1.1876333074	 0.116681
H	-1.9989141358	-0.0591720085	 2.0826723841	 0.119638
H	-3.1361292371	 0.397636808	 0.7972380484	 0.126194
H	-2.6094370995	-2.4002352518	 1.8990491656	 0.121788
H	-3.7892370933	-2.0565432221	 0.6233451037	 0.129294
H	-0.9625608704	-2.9039308994	 0.0502256783	 0.109326
74.6739	119.7289	152.2802	210.8591	313.2515	379.1361	395.2104	420.241	477.365	637.8047	683.897	750.7358	753.0706	819.7226	873.1696	908.8013	939.895	951.0105	980.617	1033.7873	1052.0233	1094.7657	1125.0492	1140.9268	1164.9502	1212.0127	1228.5172	1246.0044	1273.9816	1284.8567	1328.0922	1384.7278	1429.4767	1468.3196	1490.8472	1494.7871	1934.9493	2986.8877	3077.378	3080.4374	3084.5034	3127.8197	3141.2376	3146.3285	3798.9814
OCC12CCC1C(=O)O2	OC[C@]12CC[C@H]1C(=O)O2	
InChI=1S/C6H8O3/c7-3-6-2-1-4(6)5(8)9-6/h4,7H,1-3H2	InChI=1S/C6H8O3/c7-3-6-2-1-4(6)5(8)9-6/h4,7H,1-3H2/t4-,6+/m0/s1
