19
gdb 84703	2.97225	1.58276	1.12026	1.746	82.4	-0.231	0.0137	0.2447	1104.4601	0.160614	-385.895547	-385.887849	-385.886905	-385.927623	30.21	
C	-0.0491730878	 1.5567102903	 0.123878992	-0.396681
C	-0.0033798041	 0.0307065009	-0.0038829442	-0.141337
C	 0.8761931302	-0.48900462	-1.1458883012	-0.059703
C	 1.6556078982	-1.5159569025	-0.793677214	-0.132824
C	 1.3618187829	-1.9269072803	 0.6326149916	 0.055051
O	 2.4460438421	-2.1385572304	 1.5317550197	-0.284558
C	 2.1552917341	-1.4230121541	 2.737993487	-0.111846
C	 1.1101128492	-0.3966537182	 2.3516987805	-0.25208
C	 0.6534077127	-0.6928514538	 1.1421275938	 0.287952
H	 0.9559468963	 1.9631320746	 0.270922274	 0.124275
H	-0.4748885749	 2.010810318	-0.7767689828	 0.114361
H	-0.6682709097	 1.860083679	 0.9740579727	 0.118425
H	-1.0322515128	-0.3332403684	-0.1571912077	 0.093601
H	 0.8264592499	-0.050601369	-2.1378841093	 0.095876
H	 2.3341141616	-2.0532953487	-1.4455708871	 0.103433
H	 0.7214999484	-2.8297015959	 0.6325813848	 0.075838
H	 1.8064714832	-2.1164633205	 3.5226281641	 0.098216
H	 3.0795050528	-0.9557080662	 3.1028180468	 0.11096
H	 0.8800392075	 0.4701045549	 2.9582103992	 0.101041
107.7561	162.778	217.839	240.6585	285.1282	338.7613	454.997	516.9994	623.6603	656.6463	711.5753	748.915	791.5084	831.6545	883.297	892.6325	938.2397	970.2796	980.918	1006.4262	1023.0469	1045.1876	1072.0143	1088.2748	1118.0307	1137.8803	1174.9584	1200.7225	1256.719	1266.2017	1309.1109	1328.8394	1343.4971	1372.3977	1374.953	1406.3473	1494.0146	1498.8113	1516.4215	1656.1515	1742.5332	2909.0569	2953.7557	2970.4616	3028.6902	3035.1653	3103.1693	3112.6148	3176.6674	3211.647	3213.3499
CC1C=CC2OCC=C12	C[C@H]1C=C[C@H]2OC[CH][C]12	
InChI=1S/C8H10O/c1-6-2-3-8-7(6)4-5-9-8/h2-4,6,8H,5H2,1H3	InChI=1S/C8H10O/c1-6-2-3-8-7(6)4-5-9-8/h2-4,6,8H,5H2,1H3/t6-,8+/m0/s1
