18
gdb 110403	5.79016	0.97265	0.96195	2.8003	76.93	-0.2227	0.0013	0.224	1267.9531	0.14694	-401.864978	-401.857175	-401.856231	-401.897497	30.071	
C	 0.0790403552	 1.6483128791	 0.0520934019	-0.379426
C	 0.08693051	 0.1217230021	 0.0931220003	-0.126875
N	 0.6409156047	-0.4272591831	-1.1452147374	-0.114707
C	-0.2932879233	-0.5425917946	-2.3058057676	-0.009526
C	 0.5353372508	-1.7279957082	-2.9167429666	-0.213392
C	 0.4535718773	-1.890668092	-1.3573046214	-0.007012
C	-1.078822311	-1.8179710773	-1.7733082502	-0.235052
C	-0.7405849091	-2.540950993	-3.068650672	 0.449539
O	-1.2258301965	-3.3343075475	-3.8173210781	-0.330589
H	 1.086024086	 2.0315421565	-0.1341455411	 0.129571
H	-0.5761977857	 2.0201272039	-0.7429684875	 0.115828
H	-0.2830509159	 2.0590755358	 0.9991985456	 0.116181
H	 0.7304253341	-0.2230352549	 0.9120009582	 0.103577
H	-0.9297241308	-0.2527461295	 0.3075830822	 0.081574
H	-0.710811458	 0.3039188613	-2.8498995566	 0.105125
H	 1.4434031599	-1.6388257312	-3.5059865667	 0.108264
H	 0.9330910481	-2.6624458479	-0.7550102483	 0.103191
H	-1.9589552157	-1.8589315498	-1.1383854746	 0.103732
79.767	140.0898	173.7776	211.8696	279.9149	407.1697	438.4708	567.8455	658.8915	667.1228	761.1458	777.0769	804.3575	813.5257	821.6162	833.6284	937.921	948.1353	973.5173	985.6036	1023.6759	1087.6463	1099.244	1104.3568	1127.3757	1135.2104	1146.2156	1168.676	1185.77	1219.1411	1257.5491	1301.6847	1312.1147	1386.8845	1410.7962	1490.1786	1492.4766	1510.5299	1918.1508	2947.6326	3038.7943	3044.3828	3106.011	3116.3917	3121.8199	3123.1805	3168.5327	3173.2029
CCN1C2C3C1C2C3=O	CCN1[C@H]2[C@H]3[C@@H]1[C@@H]2C3=O	
InChI=1S/C7H9NO/c1-2-8-5-3-6(8)4(5)7(3)9/h3-6H,2H2,1H3	InChI=1S/C7H9NO/c1-2-8-5-3-6(8)4(5)7(3)9/h3-6H,2H2,1H3/t3-,4+,5-,6+
