19
gdb 71729	2.57794	2.01779	1.48387	1.3003	77.54	-0.2159	0.073	0.2889	948.0675	0.159696	-385.846432	-385.838921	-385.837977	-385.87769	31.156	
C	 0.092194387	 1.4521849191	 0.0487873473	-0.499586
C	 0.0636976611	-0.0508968322	-0.0445096097	 0.23653
C	 0.2028533985	-0.7843605628	-1.3687010313	-0.286442
C	 0.11890408	-2.2151530053	-0.8719834355	-0.073763
C	-0.7914246802	-2.3025362758	 0.3406605225	-0.077622
C	 0.7139277587	-2.3393689837	 0.5178852235	-0.170993
C	 0.6603271198	-0.8881777326	 1.0797812044	 0.357499
O	 1.3919025204	-0.397252743	 2.1407834569	-0.466548
C	-0.8344628465	-0.8608945753	 0.9031227474	-0.184982
H	 1.0096513928	 1.8595613333	-0.3931302135	 0.109808
H	-0.7551989092	 1.9031237784	-0.479514568	 0.117821
H	 0.0553284496	 1.7793482094	 1.0919928808	 0.128681
H	-0.6059797807	-0.5396079674	-2.0677922452	 0.095469
H	 1.1587894428	-0.5653926302	-1.8613906212	 0.089232
H	 0.1794263868	-3.0580628252	-1.5511734027	 0.082118
H	-1.5199092518	-3.0838712505	 0.5081969728	 0.084943
H	 1.3493805719	-3.1436710647	 0.8630643323	 0.08668
H	 2.2558785385	-0.1210179235	 1.8126181723	 0.283884
H	-1.6030236994	-0.419119778	 1.5225256769	 0.087268
186.1228	207.4764	226.7622	294.2934	325.6907	374.8968	421.8603	534.9768	594.0154	624.607	712.7229	730.5622	753.9302	773.913	841.8921	869.2988	913.9732	917.2579	935.8165	957.506	974.4559	1002.4934	1029.1014	1041.2655	1069.9464	1079.6379	1109.2523	1165.7898	1199.1897	1203.571	1227.5242	1261.1167	1285.1689	1302.2594	1350.1991	1376.8305	1415.4202	1455.4771	1491.4664	1492.6064	1505.4874	3020.2754	3024.4969	3060.9069	3078.2311	3106.9985	3179.7224	3198.1234	3207.1651	3213.4351	3773.1723
CC12CC3C4C3C1(O)C24	C[C@@]12C[C@@H]3[C@H]4[C@@H]3[C@]1(O)[C@@H]24	
InChI=1S/C8H10O/c1-7-2-3-4-5(3)8(7,9)6(4)7/h3-6,9H,2H2,1H3	InChI=1S/C8H10O/c1-7-2-3-4-5(3)8(7,9)6(4)7/h3-6,9H,2H2,1H3/t3-,4+,5-,6-,7+,8+/m1/s1
