17
gdb 53300	3.20512	0.80727	0.68657	4.9938	83.98	-0.2433	0.0105	0.2539	1621.4408	0.134133	-380.824853	-380.815093	-380.814149	-380.861577	33.351	
C	 0.1561172295	 1.5383764895	 0.176261715	-0.499745
C	 0.0909562828	 0.0851080383	 0.1336275482	 0.054644
C	 0.0447761081	-1.1194663916	 0.1094747407	 0.101057
C	 0.0163973778	-2.5547035589	 0.0386303993	-0.184458
C	-0.6961646405	-3.3521318369	 1.0911188407	-0.237946
N	-1.2303672126	-3.2974578941	-0.2623103348	-0.085578
C	-2.4391044346	-2.5014688673	-0.4567577308	-0.287589
C	-3.6294805641	-3.3012207907	-0.1529785611	 0.282507
N	-4.5757808165	-3.913894398	 0.0979860577	-0.301982
H	 1.1928358312	 1.8794527215	 0.2698973249	 0.15768
H	-0.2582067787	 1.9837497854	-0.7347868122	 0.154268
H	-0.4032984253	 1.9381042007	 1.0289265377	 0.154281
H	 0.8843914755	-3.00596971	-0.4360055737	 0.124437
H	-0.3021337042	-4.3149149004	 1.4021414992	 0.133351
H	-1.2037086222	-2.7848211783	 1.8684551981	 0.129058
H	-2.4676559784	-1.5863530987	 0.1548796397	 0.146194
H	-2.4841917278	-2.1869887106	-1.5053108285	 0.159823
27.2161	52.6886	71.7355	127.9943	160.9932	248.095	299.1558	368.837	378.5418	389.0357	486.4972	528.2796	590.3834	719.39	794.8575	873.0892	949.2603	982.3065	1000.4447	1042.1466	1051.612	1053.2003	1086.814	1117.6747	1156.1775	1199.0946	1269.5137	1313.4093	1369.3657	1379.978	1414.1817	1473.1984	1475.0361	1477.4343	1503.8924	2361.9446	2368.3267	2991.5334	3029.806	3070.2498	3091.5713	3093.7818	3106.118	3133.8861	3198.9395
CC#CC1CN1CC#N	CC#C[C@H]1CN1CC#N	
InChI=1S/C7H8N2/c1-2-3-7-6-9(7)5-4-8/h7H,5-6H2,1H3	InChI=1S/C7H8N2/c1-2-3-7-6-9(7)5-4-8/h7H,5-6H2,1H3/t7-,9?/m0/s1
