13
gdb 132713	5.66049	0.97277	0.83011	3.3895	75.38	-0.2638	-0.0515	0.2124	1235.0934	0.090901	-423.659642	-423.652763	-423.651819	-423.691183	26.074	
F	 0.0017832194	 0.0216876957	 0.0037246467	-0.067963
C	-0.0162924107	 1.3528779754	 0.0107275991	 0.307719
C	-1.2405342506	 2.0100864559	 0.0301843731	-0.234672
C	-1.2568312135	 3.3975865951	 0.0374517755	-0.17423
C	-0.0538383906	 4.1179838888	 0.0252723657	 0.18002
C	 1.1682690526	 3.4306824643	 0.0056997049	-0.174229
C	 1.1896521545	 2.0432520404	-0.0016327204	-0.234672
C	-0.0732443373	 5.5471759854	 0.0327855887	 0.204257
N	-0.0889601106	 6.7048943724	 0.0388696818	-0.331206
H	-2.1574865558	 1.4338604567	 0.039326021	 0.128019
H	-2.1997075279	 3.9307443465	 0.0525763222	 0.134469
H	 2.0963197626	 3.9893737277	-0.0036751282	 0.134469
H	 2.1219100077	 1.4922623658	-0.0166961702	 0.128019
108.8824	155.2537	276.6645	403.5897	410.5956	419.1907	486.5029	561.106	575.5663	657.6939	701.3565	736.9349	842.5264	853.2196	864.7329	958.1427	972.3733	1026.1919	1118.1608	1181.2885	1218.7348	1296.3356	1312.2262	1328.2433	1436.9472	1542.3145	1616.0999	1647.8344	2344.5165	3204.2955	3205.5206	3218.3332	3219.426
FC1=CC=C(C=C1)C#N	Fc1ccc(cc1)C#N	
InChI=1S/C7H4FN/c8-7-3-1-6(5-9)2-4-7/h1-4H	InChI=1S/C7H4FN/c8-7-3-1-6(5-9)2-4-7/h1-4H
