12
gdb 21490	5.23063	1.6792	1.27348	4.1585	57.62	-0.2462	-0.0477	0.1985	867.7654	0.085587	-410.840554	-410.833918	-410.832974	-410.87175	24.213	
N	 0.2007321323	 0.7145184547	 1.0383546013	-0.551616
C	-0.0126021089	 0.07701281	-0.1618196744	 0.253732
N	 0.6723306982	 0.1442467765	-1.2373303462	-0.493797
C	-1.2463974935	-0.7548856742	-0.1420505602	 0.411839
N	-1.7486527585	-1.3455572974	-1.1963731791	-0.161221
O	-2.8737557123	-2.0008452253	-0.6908126399	-0.142773
C	-2.9203747236	-1.7279826425	 0.6118367053	 0.106145
N	-1.9580700899	-0.9694898684	 1.0249065281	-0.329924
H	 1.1117052208	 1.1071220878	 1.2088872916	 0.253085
H	-0.3115004052	 0.3823904892	 1.84082768	 0.272888
H	 1.4874147459	 0.7486945775	-1.1164151504	 0.207381
H	-3.7335349353	-2.1546267281	 1.1801669439	 0.174261
65.4697	214.1634	226.5037	371.9441	413.5249	476.8633	511.4825	609.4571	640.9618	657.3314	811.9293	869.7112	901.2265	917.521	986.6527	996.369	1105.7438	1130.1287	1149.0095	1275.3712	1330.8743	1404.7413	1532.0873	1593.3053	1630.3174	1725.2043	3269.4073	3455.9801	3584.9701	3710.2075
NC(=N)C1=NOC=N1	NC(=N)c1nocn1	
InChI=1S/C3H4N4O/c4-2(5)3-6-1-8-7-3/h1H,(H3,4,5)	InChI=1S/C3H4N4O/c4-2(5)3-6-1-8-7-3/h1H,(H3,4,5)
