17
gdb 55387	2.65411	1.50508	1.00178	6.8333	69.96	-0.2509	0.013	0.2639	1136.2513	0.138195	-455.213238	-455.205286	-455.204342	-455.246185	29.912	
N	-0.0402921749	 1.3269540139	-0.0449613082	-0.611769
C	-0.0802908871	 0.0448962806	-0.0555878263	 0.437906
N	-1.133158603	-0.814329983	-0.0961608528	-0.324741
H	-2.082529753	-0.498342682	 0.0186223152	 0.249463
C	-0.760368183	-2.2236711188	 0.0010284203	-0.183013
C	 0.7269964854	-2.2053877885	-0.405479828	-0.216761
C	 1.1924935215	-0.7894282445	-0.0277792268	-0.227048
C	 2.3479691883	-0.2423852758	-0.8832421199	 0.414691
O	 2.4417072017	 1.0822104949	-0.931512351	-0.375537
O	 3.1288370238	-0.9825152806	-1.4248062185	-0.342316
H	 1.6053497186	 1.4797738884	-0.5528382787	 0.327423
H	-0.9519741188	 1.7774714791	-0.0720332261	 0.214634
H	-0.8976030537	-2.6013586193	 1.0239540081	 0.112801
H	-1.372121944	-2.836000282	-0.6677705315	 0.122722
H	 1.3028165955	-2.9894125	 0.0856728204	 0.125571
H	 0.8351175803	-2.3442434525	-1.4837461804	 0.138216
H	 1.5572701724	-0.7656925699	 1.0087272343	 0.137759
79.1759	104.6509	165.9896	248.7485	294.6731	420.5576	437.6408	449.0084	547.0121	615.1598	642.308	691.4889	745.8653	795.0612	842.6204	892.152	908.5644	950.4379	993.4037	1019.2971	1053.1214	1122.4607	1150.027	1195.7276	1219.437	1251.9426	1268.4786	1294.198	1318.8462	1336.713	1413.5033	1449.2811	1496.9221	1532.8503	1534.8144	1731.0711	1852.7158	3005.067	3021.326	3075.9278	3090.3415	3111.6968	3141.8454	3505.5608	3642.7855
NC1=[NH+]CCC1C([O-])=O	[NH][C]1NCC[C@H]1C(=O)O	
InChI=1S/C5H8N2O2/c6-4-3(5(8)9)1-2-7-4/h3H,1-2H2,(H2,6,7)(H,8,9)	InChI=1S/C5H8N2O2/c6-4-3(5(8)9)1-2-7-4/h3H,1-2H2,(H2,6,7)(H,8,9)/t3-/m1/s1
