18
gdb 15619	3.23121	1.68754	1.14029	2.4377	71.78	-0.2199	0.0289	0.2488	1037.7034	0.152535	-384.939589	-384.930642	-384.929698	-384.974637	30.877	
C	 0.1882152561	 1.5514571342	-0.0030857685	-0.504193
C	 0.0177679864	 0.0655654845	-0.0545477825	 0.179087
C	-1.0710177028	-0.7058593744	-0.0058397328	 0.179124
C	-2.5272988017	-0.3913299519	 0.1199049374	-0.178964
O	-2.7748154957	 1.0031763144	 0.105850991	-0.408664
C	-0.6627102488	-2.1571797761	-0.09938877	-0.141891
O	 0.7537098411	-2.1607388633	-0.1898684067	-0.263729
C	 1.2312727743	-0.8225731778	-0.1855097012	-0.136516
H	 0.8388430171	 1.8335944908	 0.8351172426	 0.119456
H	 0.6843838341	 1.9136193978	-0.9131254299	 0.120683
H	-0.7653018692	 2.0632179615	 0.1034578052	 0.159423
H	-3.0653854805	-0.8946174633	-0.703948427	 0.09786
H	-2.9061167182	-0.850192419	 1.051314534	 0.099538
H	-3.7195275614	 1.1377975303	 0.2211466699	 0.290725
H	-0.9825950739	-2.7400299509	 0.7812385444	 0.096354
H	-1.0991714705	-2.6541046876	-0.9831103205	 0.096002
H	 1.7908621137	-0.6170816107	-1.1138761369	 0.097561
H	 1.9376378598	-0.6792670183	 0.6492379214	 0.098144
15.8664	94.5613	140.4873	180.6461	225.45	229.0041	269.6456	327.5137	399.284	495.7651	621.4397	674.364	820.2457	942.5222	945.0973	961.0899	1015.0591	1061.1162	1076.5196	1097.0953	1099.9847	1127.3381	1176.0119	1185.2266	1226.2614	1250.5862	1263.7046	1274.7655	1369.2503	1394.8721	1412.3597	1471.4599	1488.7257	1492.605	1510.2456	1518.6769	1532.6217	1764.9024	2931.6411	2942.2717	2948.4923	2958.8948	2961.2987	2971.0823	3016.8194	3055.4987	3179.5719	3837.1881
CC1=C(CO)COC1	CC1=C(CO)COC1	
InChI=1S/C6H10O2/c1-5-3-8-4-6(5)2-7/h7H,2-4H2,1H3	InChI=1S/C6H10O2/c1-5-3-8-4-6(5)2-7/h7H,2-4H2,1H3
