17
gdb 80134	2.53592	1.84311	1.32473	2.5404	74.16	-0.2362	-0.0033	0.2329	978.3357	0.138259	-417.996906	-417.989507	-417.988563	-418.028741	28.997	
O	 0.656922208	 0.7497378302	 0.9081724035	-0.419691
C	 0.1144224455	-0.3506568462	 0.2372578117	 0.024743
C	-1.4340659212	-0.4551558526	 0.0156286094	-0.078471
C	-2.2372430712	 0.8184061449	-0.008984314	-0.103575
C	-2.582037675	 1.134148895	-1.2596306765	-0.068831
C	-2.0441132964	 0.1321953056	-2.2641139314	-0.228699
N	-1.1713707871	-0.7150497438	-1.4356458824	-0.085939
C	 0.1805989454	-0.3416594104	-1.302181211	 0.290414
N	 0.9891627969	 0.0181582159	-2.203611063	-0.535429
H	 0.3294328084	 1.5483809845	 0.4770548798	 0.287457
H	 0.5391996431	-1.2433489363	 0.7029396712	 0.115047
H	-1.9357407075	-1.2689207436	 0.5517172903	 0.087894
H	-2.5359728927	 1.3493801775	 0.8865189283	 0.11296
H	-3.2010784903	 1.9751319405	-1.5507662033	 0.109285
H	-2.850615387	-0.4468559545	-2.7326609489	 0.117431
H	-1.4495132213	 0.5859374917	-3.0634239844	 0.147495
H	 1.8894514024	 0.2633497016	-1.7901391694	 0.22791
98.2936	166.4677	214.8944	269.1138	375.7868	378.289	478.0863	583.7593	610.0459	667.7846	729.9758	761.1023	827.3705	846.9139	859.5575	864.7517	925.2599	957.5698	967.4733	993.1603	1044.7589	1083.3423	1110.88	1123.5422	1173.3155	1196.3443	1232.0695	1240.9582	1271.8675	1307.8608	1339.9823	1348.2228	1362.7852	1434.5634	1492.8449	1658.9834	1776.5201	3020.962	3038.04	3084.1043	3089.0394	3195.3806	3220.549	3479.5021	3786.5569
OC1C2C=CCN2C1=N	O[C@H]1[C@H]2C=CCN2[C]1[NH]	
InChI=1S/C6H8N2O/c7-6-5(9)4-2-1-3-8(4)6/h1-2,4-5,7,9H,3H2	InChI=1S/C6H8N2O/c7-6-5(9)4-2-1-3-8(4)6/h1-2,4-5,7,9H,3H2/t4-,5+/m1/s1
