20
gdb 61218	3.06256	0.94184	0.88297	4.4194	79.12	-0.2773	0.0333	0.3106	1397.2523	0.168633	-403.154421	-403.144406	-403.143462	-403.189789	36.211	
C	-0.0979920749	 1.6992705554	 0.4334665979	-0.417163
C	-0.0920947822	 0.2070520763	 0.0808826134	-0.039207
C	 0.803627086	-0.6196881792	 1.0398708104	-0.352825
C	 2.2074678265	-0.2231727568	 0.9747636347	 0.263523
N	 3.3130383097	 0.1076230075	 0.9091524988	-0.31372
C	-1.4919143033	-0.4017510238	 0.0357375886	 0.418739
C	-2.3623424117	-0.301419321	 1.2710480186	-0.477549
C	-2.1317251521	-0.5755050759	-1.2777335007	-0.235993
O	-1.5236279003	-1.6854092285	-0.6107425318	-0.283824
H	 0.9117225414	 2.1131820841	 0.3659355029	 0.147523
H	-0.740305944	 2.2587934023	-0.2534091031	 0.12295
H	-0.460894996	 1.8727893777	 1.4518976935	 0.122627
H	 0.3310107252	 0.0870583192	-0.922282182	 0.101747
H	 0.4656886601	-0.5118257247	 2.0769166684	 0.14752
H	 0.7240570653	-1.680329976	 0.7792508024	 0.169981
H	-2.5990299438	 0.7402208046	 1.5076843161	 0.131042
H	-3.298433284	-0.8405875029	 1.1094130472	 0.135092
H	-1.8718230302	-0.7422400544	 2.1451237922	 0.127833
H	-3.2181600446	-0.6125352784	-1.3471732024	 0.115715
H	-1.6231161769	-0.2354986755	-2.179006235	 0.115988
53.6311	69.5296	128.6357	182.1519	202.5441	242.0926	263.8108	294.2434	366.8713	398.2353	405.6438	466.8265	503.0546	545.6276	729.7292	830.7834	855.638	887.2829	920.4203	925.3364	962.1106	998.0874	1059.4552	1094.0736	1115.5815	1133.832	1138.2454	1168.8205	1244.4842	1271.303	1296.4824	1341.1036	1359.3294	1405.4827	1413.5185	1429.2536	1467.6366	1485.08	1494.1578	1499.8271	1504.1257	1530.7247	2359.786	3037.9989	3040.4116	3044.5387	3052.5092	3080.6897	3091.7477	3105.2942	3108.5058	3119.2406	3129.074	3166.8719
CC(CC#N)C1(C)CO1	C[C@@H](CC#N)[C@@]1(C)CO1	
InChI=1S/C7H11NO/c1-6(3-4-8)7(2)5-9-7/h6H,3,5H2,1-2H3	InChI=1S/C7H11NO/c1-6(3-4-8)7(2)5-9-7/h6H,3,5H2,1-2H3/t6-,7+/m0/s1
