25
gdb 100968	2.20833	1.05416	0.9897	1.6681	89.02	-0.2529	0.0815	0.3344	1456.6748	0.225663	-389.492869	-389.481459	-389.480515	-389.529482	41.785	
C	-0.2615207744	 2.4325693717	 2.1500604968	-0.394066
C	-0.8140027378	 1.0638414395	 1.7392013667	-0.177141
C	-1.3766378672	 0.2358040934	 2.9139060262	-0.021906
C	-2.6492438501	 0.8481316745	 3.5211750601	-0.408638
C	-1.5963939277	-1.2183167363	 2.4987929005	 0.398088
C	-2.6303142041	-1.4774331087	 1.4179764532	-0.471915
O	-0.3824468001	-1.9770987922	 2.3248020378	-0.313874
C	-1.2579091762	-2.340453804	 3.4007680619	 0.022991
C	-0.7223017816	-2.2427802112	 4.8070955627	-0.429944
H	 0.1714590225	 2.9518451451	 1.2893341959	 0.112686
H	-1.0380789406	 3.082266639	 2.5661135148	 0.115206
H	 0.5262240035	 2.3302239626	 2.905067081	 0.114742
H	-1.5913591602	 1.2031348829	 0.9771509837	 0.092381
H	-0.0146244255	 0.4808930934	 1.2674339461	 0.113926
H	-0.6019072274	 0.2290540136	 3.6880410376	 0.072972
H	-2.4476223915	 1.8361025308	 3.9439550397	 0.118237
H	-3.4369443343	 0.9666882591	 2.7693432673	 0.11694
H	-3.0462506194	 0.2199677481	 4.3255210121	 0.113248
H	-2.3900459361	-0.9288948416	 0.5022033673	 0.126577
H	-2.6577121339	-2.5418993236	 1.1730225441	 0.124765
H	-3.6305825333	-1.1718167749	 1.7406712041	 0.120336
H	-1.7997361649	-3.2718372383	 3.2133327674	 0.076676
H	-0.018343001	-3.0613625937	 4.9921868693	 0.128858
H	-0.197557529	-1.3042509995	 4.9921860491	 0.129095
H	-1.5383428397	-2.3370275197	 5.5321679245	 0.119762
42.6937	80.976	127.9167	164.2844	172.8829	203.7751	224.1036	250.73	264.0451	281.3039	315.4996	362.8945	457.1778	478.0194	488.0429	540.8557	709.3529	768.2585	784.5395	844.5415	899.9763	933.1293	968.2906	990.1217	993.9898	1025.4668	1047.0808	1091.1144	1099.3602	1135.1831	1153.0076	1173.4242	1190.4017	1271.3858	1294.1569	1301.7633	1350.156	1361.2691	1391.1051	1405.3382	1410.0287	1414.3773	1415.9343	1460.8751	1481.0108	1485.1182	1491.569	1494.8896	1497.8527	1503.8226	1506.5179	1509.8959	1516.618	3022.9428	3031.5234	3035.6128	3036.9128	3044.2961	3047.043	3063.2929	3065.6534	3095.2491	3098.1189	3100.5084	3103.0316	3109.2257	3113.5454	3123.8817	3137.8312
CCC(C)C1(C)OC1C	CC[C@@H](C)[C@@]1(C)O[C@H]1C	
InChI=1S/C8H16O/c1-5-6(2)8(4)7(3)9-8/h6-7H,5H2,1-4H3	InChI=1S/C8H16O/c1-5-6(2)8(4)7(3)9-8/h6-7H,5H2,1-4H3/t6-,7+,8-/m1/s1
