20
gdb 98892	2.95513	1.15875	0.97978	3.0008	75.87	-0.2303	0.0363	0.2666	1289.3776	0.172232	-440.329827	-440.320587	-440.319643	-440.364901	33.095	
C	 0.6363047546	 1.3866583256	-0.9712091512	-0.332273
N	 0.7501433536	-0.0545211508	-0.912092508	-0.298824
C	-0.2799818146	-0.8593741041	-0.5587414222	 0.3622
O	-1.4067389884	-0.4766798757	-0.2866186634	-0.392433
C	 0.0733494557	-2.3568371914	-0.4987247821	 0.026197
C	-0.8658859724	-3.2022020064	-1.375849387	-0.237146
C	-0.0560332395	-3.338762146	-2.6739154196	-0.226609
C	 1.372553166	-3.4323412341	-2.1348920781	-0.067111
O	 1.4066897596	-2.6077033061	-0.9626139538	-0.286554
H	 1.3179064761	 1.8710256232	-0.2627546128	 0.125386
H	 0.8547875968	 1.7643832516	-1.9765547344	 0.122803
H	-0.3911289246	 1.6444917584	-0.7094735341	 0.167083
H	 1.6278802278	-0.5170120333	-1.0928895259	 0.257625
H	 0.008667488	-2.6454423368	 0.5569956045	 0.108994
H	-1.0263391211	-4.1837442134	-0.9194775212	 0.104194
H	-1.8335917846	-2.7148953275	-1.4962069793	 0.137695
H	-0.3380309702	-4.2071061477	-3.2734756856	 0.106851
H	-0.1722562951	-2.4436340978	-3.2938637606	 0.115263
H	 1.6255721626	-4.4663909413	-1.8591961127	 0.100301
H	 2.1334913297	-3.0698946763	-2.8329386926	 0.10636
56.6169	69.2858	97.7631	138.8295	190.8744	236.484	319.6127	336.4122	465.9866	561.3864	587.421	642.3921	697.5106	788.4538	844.0915	886.0884	898.9099	931.4809	951.7662	963.4086	1038.147	1085.8745	1100.1938	1124.1517	1155.2129	1180.5964	1190.4409	1193.6941	1249.6976	1261.0621	1293.9378	1319.5383	1339.6466	1352.0568	1392.9614	1439.8518	1490.5098	1495.3944	1500.0598	1501.0983	1527.7816	1567.8524	1776.8356	2999.7501	3025.35	3038.7876	3052.977	3064.1353	3075.9015	3077.1658	3113.7913	3139.4486	3146.583	3625.9566
CNC(=O)C1CCCO1	CNC(=O)[C@H]1CCCO1	
InChI=1S/C6H11NO2/c1-7-6(8)5-3-2-4-9-5/h5H,2-4H2,1H3,(H,7,8)	InChI=1S/C6H11NO2/c1-7-6(8)5-3-2-4-9-5/h5H,2-4H2,1H3,(H,7,8)/t5-/m1/s1
