21
gdb 93779	3.15931	1.12803	0.87016	1.6483	90.44	-0.2104	-0.0271	0.1833	1362.1562	0.18338	-387.10904	-387.100017	-387.099073	-387.143085	34.779	
C	-0.0176411337	 1.5397496433	 0.044303209	-0.468839
C	 0.0330896937	 0.0366043617	-0.0336344118	 0.277522
C	 0.0220917739	-0.5827192392	-1.2273455308	-0.147123
C	-0.0114850907	-2.0050064549	-1.5565371023	-0.061993
C	 0.01297627	-3.0948805833	-0.7751818425	-0.126207
C	 0.1589436395	-3.1898872595	 0.7193418779	 0.077791
O	 0.8452031551	-4.3978000107	 1.0621162203	-0.432008
C	 0.8407270425	-1.9862704698	 1.3799620055	-0.226717
C	 0.0733314416	-0.6615581665	 1.3072295642	-0.30278
H	 0.8840718004	 1.9428427802	 0.5244705122	 0.124147
H	-0.1142650791	 1.9993424718	-0.9424552454	 0.120723
H	-0.8651422728	 1.8710910013	 0.6596515043	 0.124714
H	-0.0089555195	 0.0636230742	-2.1025114483	 0.074032
H	-0.1083972569	-2.193405309	-2.6243397089	 0.085017
H	-0.0736135171	-4.0681839091	-1.2538374449	 0.092389
H	-0.835054614	-3.3208875662	 1.1704570989	 0.096637
H	 1.696655217	-4.3782326724	 0.6104636225	 0.274888
H	 0.9945554467	-2.2514448763	 2.4308103313	 0.105526
H	 1.8357002141	-1.8546743515	 0.9353571325	 0.093711
H	 0.5226921062	 0.0274783119	 2.032821699	 0.103279
H	-0.9587298168	-0.807276846	 1.6621588273	 0.115293
31.9195	162.0781	204.0289	226.5301	297.2463	305.2135	325.2763	340.0235	370.1276	460.4869	478.4786	567.7425	616.4883	693.7451	753.6234	818.1169	845.3366	909.2475	921.4682	952.9929	1004.7111	1015.2537	1047.7492	1056.8579	1063.5024	1080.0023	1136.	1174.4499	1185.9878	1245.6299	1276.8162	1280.2377	1346.4179	1368.9056	1387.7549	1404.2956	1411.6848	1419.0227	1442.5501	1466.2266	1479.2291	1487.9423	1491.0034	1686.2048	1713.9963	2992.6209	3004.1486	3008.9909	3026.2146	3045.4225	3052.03	3080.503	3113.3196	3125.6287	3141.3732	3158.1276	3793.6173
CC1=CC=CC(O)CC1	CC1=CC=C[C@@H](O)CC1	
InChI=1S/C8H12O/c1-7-3-2-4-8(9)6-5-7/h2-4,8-9H,5-6H2,1H3	InChI=1S/C8H12O/c1-7-3-2-4-8(9)6-5-7/h2-4,8-9H,5-6H2,1H3/t8-/m1/s1
