18
gdb 102984	1.92456	1.4612	1.13198	6.1463	73.22	-0.2702	0.0281	0.2983	1171.7345	0.14611	-439.075848	-439.066049	-439.065105	-439.110295	35.509	
C	-0.0578829407	 1.5115433126	-0.1056262352	-0.4326
C	 0.0753140256	 0.0081793053	-0.001163531	-0.094727
C	 1.415283163	-0.676472631	-0.0147755572	 0.048038
O	 2.589618176	 0.0793825661	 0.0760009641	-0.42309
C	 0.6009075294	-0.6919775448	 1.2685301264	 0.075877
C	 1.1449535076	 0.1003449722	 2.4617167091	-0.12924
O	 2.346347311	-0.4489950587	 2.9549147996	-0.417804
C	-0.0216000584	-1.9460067685	 1.6089999065	 0.254908
N	-0.5385594449	-2.9470910588	 1.8724253204	-0.346844
H	 0.8532926346	 2.0252600842	 0.2067953846	 0.13511
H	-0.2561381217	 1.7908319643	-1.1459198609	 0.126962
H	-0.8898227591	 1.8839559155	 0.4994837836	 0.137418
H	-0.7147954357	-0.5477152345	-0.497576324	 0.115119
H	 1.5160092472	-1.6157825544	-0.5545126088	 0.119858
H	 2.8094502049	 0.4235490704	-0.7962601417	 0.303105
H	 1.2654447787	 1.1515822813	 2.1791681907	 0.101411
H	 0.4220883994	 0.0573269094	 3.2811482324	 0.12815
H	 3.0014843631	-0.3468076307	 2.2543576813	 0.298348
92.6077	124.1688	153.0165	165.2465	194.2008	207.9749	253.455	296.8364	327.2241	428.9474	456.6081	487.6848	562.6695	576.5427	611.1336	735.8391	816.0739	870.0432	933.1921	972.4765	1029.8793	1060.0112	1079.0423	1108.1515	1130.5275	1169.9254	1206.9115	1256.0207	1289.6845	1301.7599	1377.657	1392.5507	1418.6842	1434.1657	1447.8647	1496.2578	1499.6648	1509.9252	2349.0949	3041.279	3045.9767	3097.4874	3101.6554	3127.1904	3131.1583	3157.4342	3798.871	3810.2279
CC1C(O)C1(CO)C#N	C[C@H]1[C@@H](O)[C@]1(CO)C#N	
InChI=1S/C6H9NO2/c1-4-5(9)6(4,2-7)3-8/h4-5,8-9H,3H2,1H3	InChI=1S/C6H9NO2/c1-4-5(9)6(4,2-7)3-8/h4-5,8-9H,3H2,1H3/t4-,5+,6-/m0/s1
