20
gdb 83383	2.60515	1.91914	1.58021	1.1614	78.68	-0.2041	0.0645	0.2686	949.9914	0.172681	-403.056011	-403.048772	-403.047828	-403.087025	30.258	
C	 0.1092461119	 1.4154964185	-0.070724426	-0.33954
N	 0.0204644273	-0.0365221289	 0.0066451173	-0.128444
C	-1.2133821254	-0.6132307374	 0.6179562382	-0.070404
C	-0.9472815257	-2.1140504123	 0.2405003413	-0.203575
C	 0.6033413173	-2.2229292227	 0.5824327808	-0.298872
C	 0.7013084343	-0.8105152569	 1.1375758165	 0.290971
C	 1.4058126557	 0.0780979319	 2.1519926611	-0.20453
O	 0.1011577998	 0.5250451849	 2.6373701131	-0.301934
C	-0.5519167184	-0.6183318511	 2.0103552428	 0.122113
H	 1.1204966033	 1.6968016498	-0.3836885377	 0.11386
H	-0.5705182675	 1.7444384222	-0.8649343798	 0.113856
H	-0.1413437885	 1.9596773062	 0.8493828647	 0.12432
H	-2.1865127037	-0.1949921868	 0.3506202937	 0.066663
H	-1.5507384587	-2.81722348	 0.8215464916	 0.098719
H	-1.1457862658	-2.2680520991	-0.8206051664	 0.113705
H	 0.8145668457	-2.9953978923	 1.3258735833	 0.099948
H	 1.2117376353	-2.3954427899	-0.306327726	 0.108873
H	 1.9512755951	-0.4676765367	 2.9330891247	 0.107396
H	 2.0144629499	 0.9089818709	 1.7830499134	 0.112899
H	-0.901304512	-1.3301270701	 2.7671969832	 0.073976
200.4902	242.6386	292.3742	297.4436	313.6437	369.1016	421.4932	507.9808	606.6538	679.532	728.6893	749.8374	812.6743	847.8216	856.3689	891.9344	905.3599	947.8328	964.1639	1005.555	1008.2877	1052.2937	1068.1587	1132.8626	1152.1281	1160.3616	1166.9751	1202.7512	1207.6567	1215.9391	1239.2997	1251.8424	1283.384	1293.8864	1301.5819	1331.7216	1364.5282	1447.0908	1474.9123	1485.599	1498.9045	1510.1445	1521.502	3004.9675	3015.6105	3034.2286	3063.321	3068.9893	3074.0263	3082.3281	3090.2043	3092.2413	3121.3721	3137.3033
CN1C2CCC11COC21	CN1[C@H]2CC[C@]31CO[C@@H]23	
InChI=1S/C7H11NO/c1-8-5-2-3-7(8)4-9-6(5)7/h5-6H,2-4H2,1H3	InChI=1S/C7H11NO/c1-8-5-2-3-7(8)4-9-6(5)7/h5-6H,2-4H2,1H3/t5-,6-,7-/m0/s1
