18
gdb 127793	3.05631	1.36274	1.0087	4.9936	78.27	-0.2414	0.0051	0.2465	1178.4373	0.149132	-398.119328	-398.111016	-398.110072	-398.153264	30.197	
C	-0.4670873956	 1.3030805077	 0.1859968945	-0.334398
N	-0.0605061418	-0.0836020677	 0.1069027986	-0.0094
N	-0.0776382217	-0.7252563767	-1.0823946354	-0.153906
N	 0.3283753672	-1.9445582402	-0.8755482904	-0.192596
C	 0.6147897573	-2.0945369685	 0.4447604944	-0.162528
C	 0.3699617672	-0.9071987368	 1.1017745434	 0.331299
C	 0.4928053702	-0.4814964932	 2.5077685511	-0.136037
C	-0.6913887572	-0.5930805241	 3.4568792491	-0.255323
C	 0.4930176303	-1.505870459	 3.6141250415	-0.263344
H	 0.373121048	 1.9425259392	 0.4738267416	 0.143079
H	-0.8181659906	 1.5925532119	-0.8042242286	 0.168976
H	-1.2729373248	 1.4259888133	 0.9145902738	 0.14793
H	 0.9801176004	-3.0269743397	 0.843834202	 0.119249
H	 1.1304416547	 0.3847349087	 2.66736707	 0.102139
H	-0.834957006	 0.201769454	 4.1800478494	 0.11916
H	-1.6068959198	-1.0198775911	 3.0634016034	 0.126832
H	 0.3652031291	-2.5459914503	 3.3380204907	 0.12804
H	 1.1655031531	-1.3440832775	 4.4483333909	 0.120828
39.6447	104.1198	152.6845	163.268	219.7163	304.8384	388.6555	485.8634	596.679	703.0421	718.6913	732.586	797.19	828.3191	847.6991	908.2546	930.593	985.0831	1030.9566	1062.4028	1086.6976	1092.4253	1127.0327	1145.2117	1152.1172	1177.4979	1200.4336	1229.1143	1274.9512	1306.7401	1341.3227	1397.1244	1440.2551	1467.6524	1476.0237	1484.6739	1501.3138	1505.8324	1598.1458	3045.7221	3109.488	3128.2451	3138.3718	3146.127	3163.5935	3221.5625	3236.144	3267.3031
CN1N=NC=C1C1CC1	Cn1nncc1C1CC1	
InChI=1S/C6H9N3/c1-9-6(4-7-8-9)5-2-3-5/h4-5H,2-3H2,1H3	InChI=1S/C6H9N3/c1-9-6(4-7-8-9)5-2-3-5/h4-5H,2-3H2,1H3
