23
gdb 93825	2.38161	1.35974	1.04719	1.814	81.74	-0.246	0.0753	0.3213	1266.2242	0.206259	-425.44841	-425.439054	-425.43811	-425.481844	36.72	
C	 0.0461631407	 1.5253019102	 0.101684499	-0.400686
C	 0.0500457523	 0.0072812202	 0.0085598156	 0.130622
C	 0.7015553839	-0.5212008737	-1.2758979585	-0.208272
C	 0.8444898519	-2.0539804635	-1.2596737768	 0.003757
C	 1.6088358277	-2.5758241047	-2.4776210841	-0.405572
C	 1.5067032257	-2.4874863177	 0.0666067236	 0.135396
O	 2.8654402774	-2.0699156212	 0.1434965768	-0.445797
C	 0.7246960175	-1.9000467556	 1.2412853921	-0.120203
O	 0.7431640752	-0.4810584241	 1.1626435357	-0.273356
H	 1.0696484493	 1.9126673217	 0.0738399125	 0.120541
H	-0.5099345297	 1.9593216123	-0.7346109604	 0.115813
H	-0.4178363654	 1.850813935	 1.0364640105	 0.123911
H	-0.9896448438	-0.3637486592	 0.054420422	 0.0639
H	 0.1117807138	-0.2042820543	-2.1440314603	 0.094558
H	 1.6935011979	-0.0629293487	-1.3845158717	 0.098205
H	-0.1659059753	-2.4899289124	-1.2633342449	 0.064491
H	 2.6443724222	-2.2254803863	-2.4537204989	 0.13233
H	 1.6275155169	-3.6710396443	-2.49245957	 0.108144
H	 1.1476267736	-2.2348259673	-3.4105366296	 0.104449
H	 1.5156936578	-3.5822748127	 0.134638997	 0.074154
H	 2.8455892907	-1.1586888623	 0.4616158056	 0.284861
H	-0.3113146271	-2.2761202694	 1.2500988745	 0.087471
H	 1.2019891968	-2.1626123719	 2.1898244101	 0.111285
111.2662	153.7494	211.6666	226.7898	240.0102	256.4214	273.5405	361.3537	401.639	417.9005	446.3392	496.8532	498.7429	587.1038	707.5583	815.922	824.884	875.5128	910.4956	937.6985	961.5583	991.8387	1018.4944	1052.1294	1060.1661	1098.1769	1124.2186	1149.1525	1171.3259	1197.1103	1230.9474	1253.6389	1284.1611	1296.7768	1342.3901	1358.2026	1376.7389	1379.2361	1397.2332	1404.7232	1408.1493	1412.8677	1429.5408	1479.5042	1485.3516	1487.6197	1493.6488	1500.8683	1506.0682	2941.712	2974.7577	2993.891	3022.3173	3032.6952	3039.1617	3041.7875	3067.1558	3088.854	3095.3545	3113.8659	3119.2162	3122.1251	3777.1798
CC1CC(C)C(O)CO1	C[C@H]1C[C@@H](C)[C@@H](O)CO1	
InChI=1S/C7H14O2/c1-5-3-6(2)9-4-7(5)8/h5-8H,3-4H2,1-2H3	InChI=1S/C7H14O2/c1-5-3-6(2)9-4-7(5)8/h5-8H,3-4H2,1-2H3/t5-,6+,7+/m1/s1
