16
gdb 75064	2.42999	1.85962	1.14021	4.0444	72.18	-0.2167	-0.0268	0.19	1042.6449	0.123773	-437.909282	-437.90102	-437.900076	-437.942029	30.662	
C	-0.0270072325	 1.5090649978	 0.0465806867	-0.506518
C	 0.0118795244	 0.019301437	-0.0063223755	 0.168497
C	-0.046382426	-0.7902547614	-1.0739852162	-0.127855
N	 0.0013683083	-2.1524526851	-0.713605878	-0.369029
C	 0.050622524	-2.3031483087	 0.6570776247	 0.382266
O	 0.0647134418	-3.3336305007	 1.2865528722	-0.36492
C	 0.1055923918	-0.8687588732	 1.1842337107	 0.248957
C	 0.7916732129	-0.5916604156	 2.4616369597	-0.227749
O	-0.6257864013	-0.5863408931	 2.3830922078	-0.260401
H	 0.9169711666	 1.9306603821	 0.4152707941	 0.12726
H	-0.2169515372	 1.9349106106	-0.9424290621	 0.126166
H	-0.8157262313	 1.852416294	 0.7256191635	 0.145053
H	-0.1134935795	-0.5233855683	-2.1194074733	 0.13472
H	-0.1005797301	-2.9274824684	-1.3466929632	 0.26477
H	 1.2251709061	-1.4331632112	 2.999545121	 0.139307
H	 1.262654022	 0.3786821142	 2.6110974179	 0.119476
92.8216	156.0877	205.6373	221.1902	239.979	283.2011	305.4205	459.9056	509.4924	547.1779	598.426	656.3221	743.9658	757.038	840.4971	848.7981	890.5633	968.5997	996.7166	1066.9668	1079.0573	1099.2978	1133.3557	1153.9015	1183.7471	1320.0742	1336.4242	1394.8021	1415.1796	1418.4421	1474.2354	1497.7042	1507.671	1706.6716	1846.7069	3019.2033	3070.8093	3085.0362	3112.1866	3182.7904	3234.4019	3669.6012
CC1=CNC(=O)C11CO1	CC1=CNC(=O)[C@]21CO2	
InChI=1S/C6H7NO2/c1-4-2-7-5(8)6(4)3-9-6/h2H,3H2,1H3,(H,7,8)	InChI=1S/C6H7NO2/c1-4-2-7-5(8)6(4)3-9-6/h2H,3H2,1H3,(H,7,8)/t6-/m1/s1
