20
gdb 118933	2.40226	1.31666	1.10472	1.8382	76.24	-0.2514	0.0253	0.2767	1201.8478	0.169568	-440.272513	-440.262786	-440.261842	-440.307335	34.999	
C	 0.2662510263	 0.7751148027	 0.4924444087	-0.258698
O	-0.3627285881	 0.2716386452	-0.6772153905	-0.233154
C	 0.4530871229	-0.5253313669	-1.4958023932	-0.118975
C	 0.5322168335	-2.0121473813	-1.0868727179	 0.12513
C	-0.8473254163	-2.588584077	-0.7772758629	-0.438978
C	 1.4153580566	-2.8421119993	-2.0551067528	-0.120968
O	 2.3711180534	-3.1038105048	-0.9819557318	-0.255545
C	 1.6166897504	-2.3865456759	-0.0808447277	 0.416081
N	 1.8053056231	-2.1728628898	 1.1411200392	-0.547256
H	 0.5581382208	-0.0221868822	 1.1846101532	 0.156946
H	 1.161758954	 1.361239358	 0.234778106	 0.101118
H	-0.4590013682	 1.4358223825	 0.9736324778	 0.12158
H	 0.0009825907	-0.4892260029	-2.4957673189	 0.106304
H	 1.4688590372	-0.1049419157	-1.5746923662	 0.09155
H	-1.5069785708	-2.4891317841	-1.6461549635	 0.118329
H	-0.7834559488	-3.6472180626	-0.509737671	 0.11981
H	-1.3029559544	-2.0465677059	 0.0532553725	 0.151079
H	 0.9770056374	-3.7722107539	-2.4253631976	 0.120433
H	 1.8894908472	-2.2916621927	-2.8731104775	 0.117106
H	 2.6632196332	-2.6170010133	 1.4725101641	 0.228108
64.5398	100.7197	131.6771	180.3975	202.7902	202.9847	255.268	273.3536	337.1894	400.5759	464.4449	502.5316	686.0907	722.9829	754.7599	859.2371	878.8124	913.5428	958.9563	973.4403	988.6257	1010.3526	1020.8809	1137.7617	1154.0112	1178.7186	1185.85	1211.6862	1234.4214	1246.2141	1256.5399	1334.669	1377.872	1397.603	1419.1501	1475.5261	1483.4962	1491.4296	1493.0935	1501.3553	1514.5592	1518.9846	1814.6631	2970.7949	2988.4953	3038.7084	3040.8485	3052.3359	3072.5621	3107.2114	3112.1799	3121.5748	3139.4966	3475.5961
COCC1(C)COC1=N	COC[C@@]1(C)CO[C]1[NH]	
InChI=1S/C6H11NO2/c1-6(3-8-2)4-9-5(6)7/h7H,3-4H2,1-2H3	InChI=1S/C6H11NO2/c1-6(3-8-2)4-9-5(6)7/h7H,3-4H2,1-2H3/t6-/m0/s1
