19
gdb 50558	4.33745	0.96415	0.88816	2.196	77.26	-0.2445	-0.0236	0.221	1330.0636	0.158842	-423.024599	-423.016121	-423.015177	-423.058915	31.548	
O	 0.2612254689	-0.132155493	-0.1458404343	-0.252062
C	 0.2274675469	 1.0695431109	-0.1009867257	 0.153644
C	 1.4224697588	 1.9724444807	 0.0916704346	-0.083642
C	 1.5566709864	 2.9975050882	-1.0803343523	-0.123108
O	 1.2989621683	 4.2852378897	-0.540599944	-0.274626
C	 1.6962561851	 4.2447406408	 0.8069895202	 0.459061
C	 3.0039182558	 4.8887488169	 1.1959010868	-0.329452
C	 1.6693130271	 5.5245502892	 1.5631907801	-0.341348
C	 1.2525726969	 2.8916037066	 1.3327295584	-0.325809
H	-0.7355759264	 1.6253709286	-0.2096340568	 0.078047
H	 2.3126828179	 1.345888325	 0.1680617608	 0.098694
H	 2.5695409542	 2.9410385275	-1.5013105013	 0.108503
H	 0.8387474319	 2.8290173501	-1.8897309555	 0.116112
H	 3.5977298004	 4.4406225844	 1.9859716772	 0.112652
H	 3.5737042765	 5.36419398	 0.4054787322	 0.122944
H	 1.3735577859	 6.4121942894	 1.0156243727	 0.129813
H	 1.3520897134	 5.5035636721	 2.6003522063	 0.11801
H	 0.1983991863	 2.9377966714	 1.6329480353	 0.112735
H	 1.8326814858	 2.5426946216	 2.1885734253	 0.119832
30.6617	76.8309	134.0741	268.9689	282.3059	323.5025	367.9127	404.1273	461.6518	561.8883	724.8231	758.4373	776.8902	862.9277	872.6413	898.9981	923.4194	952.0508	968.7639	986.7322	1002.3365	1044.2047	1072.4306	1078.4037	1095.0694	1145.3418	1187.8527	1193.0577	1240.212	1264.041	1268.9588	1293.4244	1330.9661	1373.843	1391.2999	1425.6945	1451.8112	1488.0636	1500.1398	1515.6555	1835.3041	2842.0772	3009.635	3030.8886	3072.6237	3099.2074	3119.3203	3130.3156	3136.4781	3216.7776	3230.642
O=CC1COC2(CC2)C1	O=C[C@H]1COC2(CC2)C1	
InChI=1S/C7H10O2/c8-4-6-3-7(1-2-7)9-5-6/h4,6H,1-3,5H2	InChI=1S/C7H10O2/c8-4-6-3-7(1-2-7)9-5-6/h4,6H,1-3,5H2/t6-/m0/s1
