16
gdb 73334	2.77955	2.06243	1.42862	2.7477	68.16	-0.2472	-0.0297	0.2175	892.6065	0.125382	-437.813789	-437.807089	-437.806145	-437.84444	27.558	
O	-0.0452748078	 1.3257388544	 0.240732508	-0.462998
C	 0.0206535145	-0.033399347	-0.0473285169	 0.357373
C	 1.394509249	-0.7364274639	 0.2400709296	-0.146663
O	 1.5713027429	-1.7404865518	-0.8188993801	-0.256564
C	 0.2237917786	-1.9756457633	-0.9951987365	 0.254352
N	-0.4038098045	-2.8440888088	-0.3156106037	-0.206825
C	-1.6626408536	-2.1845847984	 0.1100857954	-0.189971
C	-1.4002026007	-0.6935550888	-0.1421258309	-0.098799
C	-0.4713151323	-0.6547962348	-1.3111527839	-0.232671
H	 0.5869215662	 1.7899818752	-0.3209759677	 0.287105
H	 2.20257186	-0.0047575815	 0.1415998087	 0.112597
H	 1.4510535796	-1.2359258261	 1.2113386947	 0.132974
H	-2.5514084615	-2.525011493	-0.4388924061	 0.115354
H	-1.8080878087	-2.4431578436	 1.1643175743	 0.12513
H	-2.2013415582	 0.0307879088	-0.0403363787	 0.103295
H	-0.5823743035	-0.2231680073	-2.2974820563	 0.106307
219.3461	240.2324	302.526	334.949	370.3719	454.0478	508.7637	547.3323	639.2699	681.3985	750.914	784.9438	840.2707	896.706	904.8627	917.9023	956.0705	971.1824	1002.3631	1028.3704	1040.2324	1053.1203	1117.8326	1175.1686	1190.8912	1213.7156	1240.1621	1247.0994	1313.1756	1320.3956	1333.8402	1403.4097	1482.4276	1491.5384	1664.4387	3016.281	3047.0232	3070.4409	3108.2724	3179.0094	3197.4369	3778.6107
OC12COC3=NCC1C23	O[C@@]12CO[C]3[N]C[C@@H]1[C@@H]23	
InChI=1S/C6H7NO2/c8-6-2-9-5-4(6)3(6)1-7-5/h3-4,8H,1-2H2	InChI=1S/C6H7NO2/c8-6-2-9-5-4(6)3(6)1-7-5/h3-4,8H,1-2H2/t3-,4-,6+/m1/s1
