17
gdb 108686	2.13764	1.5619	0.91801	2.5061	81.72	-0.2218	-0.0172	0.2046	1226.5025	0.133724	-421.787048	-421.777582	-421.776638	-421.822485	33.102	
O	 0.2190382586	 1.313657247	 0.0524141392	-0.404406
C	 0.0650084131	-0.0861132206	 0.0011428796	-0.201082
C	-1.3766063569	-0.4668391367	-0.0186637874	 0.166337
C	-2.4872508018	 0.2846887532	-0.0104544132	 0.080645
C	-3.6985404062	-0.6298441879	-0.041341561	-0.161742
O	-3.1829251698	-1.9526915855	-0.0706081771	-0.263496
C	-1.765032208	-1.9224811658	-0.055308802	-0.139134
C	-2.6667054925	 1.6852343371	 0.0201676846	 0.229722
C	-2.961076824	 2.8533188425	 0.0441417496	-0.433721
H	 1.1595316048	 1.5128725152	 0.0504774626	 0.292483
H	 0.549478606	-0.5171063158	-0.8946893401	 0.103506
H	 0.5422683028	-0.5806999766	 0.8675439201	 0.103079
H	-4.3348603172	-0.488695877	 0.8449762175	 0.113737
H	-4.3226354458	-0.445361097	-0.9283089096	 0.113847
H	-1.3661722863	-2.433289606	-0.9481118213	 0.10533
H	-1.3837302501	-2.4723548197	 0.8218831343	 0.105326
H	-3.1718188666	 3.8934631035	 0.0667312443	 0.189569
33.4982	73.8175	137.7084	147.4501	198.0489	210.9725	231.9128	387.2559	397.868	509.1896	570.4962	583.0155	609.4178	636.0278	678.1773	818.3028	957.0887	961.305	1042.6933	1055.5254	1073.9989	1080.6603	1120.3615	1159.8044	1172.4359	1225.1024	1245.2713	1258.7293	1261.0451	1363.5272	1395.7417	1472.6455	1505.3723	1517.8782	1531.0568	1721.9254	2224.2488	2928.041	2937.1224	2956.4835	2967.917	2987.872	3010.6523	3504.431	3836.1143
OCC1=C(COC1)C#C	OCC1=C(COC1)C#C	
InChI=1S/C7H8O2/c1-2-6-4-9-5-7(6)3-8/h1,8H,3-5H2	InChI=1S/C7H8O2/c1-2-6-4-9-5-7(6)3-8/h1,8H,3-5H2
