17
gdb 44050	2.61555	1.7084	1.55431	1.9394	71.24	-0.2479	-0.0343	0.2136	938.8181	0.135369	-421.763838	-421.75643	-421.755486	-421.795752	29.015	
O	-0.0030301105	 0.0251264293	-0.5435756369	-0.282982
C	-0.0253121105	 1.1624006193	-0.1801714843	 0.34159
C	-1.1545308842	 2.0996904828	 0.3686939094	-0.423011
C	-0.0421005688	 3.1452808166	 0.6265254579	 0.392029
C	 0.7302772483	 3.2920781121	 1.965591881	-0.295252
C	 1.8392056864	 2.3289768021	 1.3918744299	-0.300639
C	 1.0451696519	 2.2516195998	 0.049729288	 0.058119
C	 1.200739538	 3.3810707023	-0.997946218	-0.152649
O	 0.1387301934	 4.1675623531	-0.3740537168	-0.331044
H	-1.8880477812	 2.4066187844	-0.381913851	 0.147536
H	-1.684404263	 1.6986021921	 1.2380845438	 0.134597
H	 1.0637415223	 4.3146879952	 2.1493874098	 0.124206
H	 0.2087575162	 2.926137506	 2.8532305831	 0.110927
H	 2.8383782763	 2.7617064312	 1.3028170383	 0.117043
H	 1.9260247375	 1.3725735657	 1.9113381353	 0.124644
H	 2.1638317924	 3.904441465	-0.9677826417	 0.114112
H	 0.9643679956	 3.122832673	-2.0359143177	 0.120775
74.1653	163.7757	260.7779	292.3588	339.8979	388.5765	454.0104	588.2181	609.5906	668.221	710.6314	722.8919	813.4	824.1909	885.5889	906.2575	926.4546	955.9777	990.5785	1004.0825	1031.6041	1132.4562	1141.9817	1164.3955	1173.1742	1206.5959	1224.0575	1237.9192	1243.4562	1261.3907	1275.6002	1333.0463	1411.7928	1462.361	1477.3603	1514.6598	1883.5011	3021.8493	3058.5048	3066.9162	3071.6158	3073.2818	3117.3735	3118.889	3136.7143
O=C1CC23CCC12CO3	O=C1C[C@@]23CC[C@@]12CO3	
InChI=1S/C7H8O2/c8-5-3-7-2-1-6(5,7)4-9-7/h1-4H2	InChI=1S/C7H8O2/c8-5-3-7-2-1-6(5,7)4-9-7/h1-4H2/t6-,7+/m1/s1
