19
gdb 85071	2.42327	1.37169	1.07889	4.1174	77.84	-0.2314	-0.0207	0.2107	1189.677	0.158968	-423.053972	-423.045023	-423.044079	-423.08777	33.574	
C	 0.0192545703	 1.5602903517	 0.0062938537	-0.40291
C	 0.0571180057	 0.0248666148	 0.0057360757	-0.029684
C	 0.7342931213	-0.5281906029	-1.2710594178	-0.316641
C	 1.0011864952	-2.0121340878	-1.1128749795	 0.378574
O	 0.5202436724	-2.8620888539	-1.8222996618	-0.313147
C	 1.9256058729	-2.3531362082	 0.0652826653	 0.008014
O	 3.2894627763	-2.1009675018	-0.3052335501	-0.433747
C	 1.5322335169	-1.5735533451	 1.2904062305	-0.145972
C	 0.7181731902	-0.5157081455	 1.2511821928	-0.034248
H	 1.0322439529	 1.9773613937	 0.0177109874	 0.118586
H	-0.4917450126	 1.9370550177	-0.8849381571	 0.12323
H	-0.5112256173	 1.9409083152	 0.885184128	 0.119252
H	-0.9850934022	-0.3294632	 0.0067703773	 0.107395
H	 0.1211293734	-0.3565598024	-2.158259788	 0.119905
H	 1.6951719983	-0.0150330649	-1.4100123975	 0.110806
H	 1.8581961129	-3.4320683611	 0.2348618506	 0.106576
H	 3.4859620644	-1.1876392632	-0.0708958035	 0.281718
H	 1.9693783039	-1.8975466571	 2.2317258372	 0.104723
H	 0.4864146551	 0.0091125607	 2.1764788467	 0.09757
59.6516	104.6897	198.8362	229.221	260.2422	272.5016	300.5583	352.408	416.6333	487.1005	508.3309	578.8899	657.0402	707.7684	784.3662	818.8096	879.5458	932.3559	955.3055	991.3139	1008.2049	1031.2459	1056.5076	1098.0729	1126.5817	1147.6946	1232.1802	1248.7333	1255.7619	1289.4683	1325.3581	1338.0946	1343.7595	1395.8745	1407.9168	1421.2627	1471.7496	1495.9298	1498.1684	1704.843	1830.1551	2988.2085	3027.5947	3031.6539	3071.3487	3100.4201	3107.9335	3113.3787	3138.4315	3165.2424	3811.4274
CC1CC(=O)C(O)C=C1	C[C@H]1CC(=O)[C@@H](O)C=C1	
InChI=1S/C7H10O2/c1-5-2-3-6(8)7(9)4-5/h2-3,5-6,8H,4H2,1H3	InChI=1S/C7H10O2/c1-5-2-3-6(8)7(9)4-5/h2-3,5-6,8H,4H2,1H3/t5-,6+/m1/s1
