18
gdb 80367	2.33328	1.69939	1.19438	2.7365	75.67	-0.2449	0.0174	0.2623	1069.4782	0.147888	-398.082934	-398.074251	-398.073307	-398.115885	33.038	
C	-0.1383696027	 1.5358960269	 0.1031668409	-0.439248
C	 0.0547916443	 0.0472593258	-0.076286032	 0.019535
C	 0.6279315103	-0.6631073101	-1.2383420166	-0.081486
N	 1.3243127925	-0.6876662289	 0.1217229801	-0.153784
C	 2.4242089083	 0.1494632322	-0.4693085957	-0.220448
C	 1.8228123914	 0.0271726361	-1.9142679957	 0.133587
N	 2.4850417445	-0.9019405166	-2.8248873185	-0.54951
C	 1.5760677435	 1.2786404377	-2.6406302387	 0.283863
N	 1.4070675186	 2.2853166974	-3.1830203859	-0.346315
H	 0.5757474308	 2.1507071739	-0.4447287038	 0.14696
H	-1.1367863135	 1.8135975061	-0.2486183673	 0.137103
H	-0.0749514072	 1.7939848223	 1.1656547681	 0.129543
H	-0.7441836586	-0.5285183293	 0.3895218851	 0.108363
H	 0.1758614132	-1.5464458765	-1.6800741884	 0.109251
H	 2.5227626884	 1.1487725221	-0.0384836956	 0.120831
H	 3.3798464927	-0.3734467967	-0.3929570573	 0.115061
H	 3.3747089346	-0.5198923012	-3.1336634001	 0.242657
H	 2.6818048989	-1.7689628513	-2.3320451588	 0.244036
112.0363	139.305	170.2349	205.7679	265.0008	281.6912	326.9408	388.4845	466.8374	507.0604	543.1657	597.9783	652.5555	706.2779	781.636	839.3469	858.7821	920.1263	931.116	962.8044	996.9257	1051.9055	1068.7032	1086.6483	1115.8022	1126.9456	1186.5845	1220.8852	1254.5234	1279.6461	1340.1179	1357.596	1417.232	1442.0154	1484.2363	1499.7218	1507.942	1649.2643	2353.0681	3045.3967	3065.635	3105.0585	3115.5023	3123.2564	3149.5035	3158.4866	3484.1228	3571.3278
CC1C2N1CC2(N)C#N	C[C@H]1[C@@H]2N1C[C@]2(N)C#N	
InChI=1S/C6H9N3/c1-4-5-6(8,2-7)3-9(4)5/h4-5H,3,8H2,1H3	InChI=1S/C6H9N3/c1-4-5-6(8,2-7)3-9(4)5/h4-5H,3,8H2,1H3/t4-,5-,6+,9?/m0/s1
