16
gdb 30032	3.25035	1.57891	1.11569	2.9849	78.6	-0.1974	-0.0041	0.1933	1039.8391	0.127303	-400.780791	-400.773646	-400.772702	-400.812131	28.648	
O	 0.1620794686	 1.4203395537	-0.1879046842	-0.421872
C	 0.0449918904	 0.0067953658	-0.0482372451	-0.076868
C	 0.6540516687	-0.5446937479	 1.2456442909	-0.130248
C	-0.2235375004	-1.2898971055	 1.9411462547	-0.215474
C	-1.4976249303	-1.322322934	 1.2242591489	 0.259884
C	-2.7799192404	-1.8097222213	 1.2670036345	-0.236423
N	-3.4186933606	-1.3311208558	 0.138888977	-0.245843
C	-2.5616238326	-0.5537692972	-0.6161599876	-0.235746
C	-1.3618854465	-0.5372892373	 0.0397483541	 0.215562
H	-0.3375315922	 1.8118429775	 0.5375635533	 0.277448
H	 0.5819630028	-0.3948798281	-0.9175057706	 0.102854
H	 1.6767012838	-0.325709146	 1.5262389225	 0.098263
H	-0.0252521059	-1.7863464348	 2.8835389461	 0.098709
H	-3.298511446	-2.4444809367	 1.9672348633	 0.12254
H	-4.3793401589	-1.5128272266	-0.09335019	 0.259773
H	-2.8975691406	-0.0950715159	-1.5324244477	 0.127443
138.1742	168.6324	293.1178	342.2791	359.8788	434.9362	498.5877	562.1202	618.5207	656.7817	692.0472	703.1927	722.799	767.1913	777.0227	856.5113	933.5911	949.8614	967.9794	1043.2924	1064.2168	1066.7076	1132.9284	1176.749	1219.0371	1250.1927	1267.6872	1305.3396	1343.4838	1415.467	1417.9861	1457.6711	1574.2333	1604.3958	1646.533	3028.1105	3197.6416	3223.4894	3258.8653	3261.8426	3683.0903	3797.4122
OC1C=CC2=CNC=C12	O[C@H]1C=Cc2c[nH]cc12	
InChI=1S/C7H7NO/c9-7-2-1-5-3-8-4-6(5)7/h1-4,7-9H	InChI=1S/C7H7NO/c9-7-2-1-5-3-8-4-6(5)7/h1-4,7-9H/t7-/m0/s1
