19
gdb 52621	3.59893	0.77727	0.74254	5.5857	85.55	-0.2475	0.026	0.2734	1604.7075	0.156703	-382.061786	-382.050793	-382.049849	-382.09947	38.227	
C	-0.0209703731	 1.4782486786	 0.074633059	-0.50012
C	-0.0100784849	 0.022657885	 0.0335815428	 0.069382
C	-0.0084868111	-1.1820251112	-0.0038571476	 0.070455
C	 0.0214582882	-2.6537820433	-0.0802965835	 0.009745
C	-1.4021087711	-3.223187842	 0.0490568711	-0.402505
N	 0.602158355	-3.1516328382	-1.339145139	-0.502851
C	 0.9232384884	-3.166681582	 1.0836093466	-0.332996
C	 0.9983941308	-4.6237802587	 1.1646210345	 0.279768
N	 1.0552025187	-5.7735885908	 1.2626959954	-0.319963
H	 0.6288378913	 1.8578685136	 0.8706302368	 0.152
H	 0.3297013256	 1.9053179217	-0.8713268239	 0.151364
H	-1.0301193796	 1.8626166189	 0.2585147449	 0.153114
H	-2.0335472987	-2.8384925326	-0.7568888792	 0.122225
H	-1.3726908581	-4.313549839	-0.0145381136	 0.153343
H	-1.8534385761	-2.9272123506	 0.9993281642	 0.126102
H	-0.0112758215	-2.9010029344	-2.1097433856	 0.233838
H	 1.4834215167	-2.6769518087	-1.5185915863	 0.231231
H	 1.9348143622	-2.7668177297	 0.9558234388	 0.149684
H	 0.5459304572	-2.7764558765	 2.0338816746	 0.156185
15.4972	67.356	78.5349	126.2203	163.9812	236.8393	275.6507	288.8828	296.1104	351.4048	357.2233	380.0284	400.3996	483.2473	553.0695	555.0362	720.9861	836.5682	876.2121	925.1184	964.2052	1000.7932	1027.9457	1052.2914	1053.082	1074.7726	1154.3498	1213.3228	1263.8774	1329.2908	1342.4404	1408.0528	1414.4356	1459.4028	1477.3775	1477.844	1487.8043	1495.2189	1663.2141	2358.5634	2364.4198	3028.476	3047.4345	3054.3661	3089.8137	3090.9859	3096.6683	3121.3439	3136.9958	3484.6922	3562.9562
CC#CC(C)(N)CC#N	CC#C[C@@](C)(N)CC#N	
InChI=1S/C7H10N2/c1-3-4-7(2,9)5-6-8/h5,9H2,1-2H3	InChI=1S/C7H10N2/c1-3-4-7(2,9)5-6-8/h5,9H2,1-2H3/t7-/m1/s1
