13
gdb 129264	6.40258	0.92285	0.81058	2.3404	66.92	-0.2576	-0.0132	0.2444	1310.791	0.08757	-452.695631	-452.687737	-452.686793	-452.728832	28.472	
N	-0.304277584	 1.2991692548	 0.0115023549	-0.575194
C	-0.0513283627	 0.0739055204	 0.0034252338	 0.509192
O	 1.1470768761	-0.5791602066	-0.0062720411	-0.243014
N	 0.9051798978	-1.9831300597	-0.0128283643	-0.172421
C	-0.3694818172	-2.0768093673	-0.0068642493	 0.464496
C	-1.201063135	-3.3180724751	-0.0096476757	-0.500026
C	-0.4284393813	-4.5509586166	-0.0192065149	 0.330942
C	 0.1805922056	-5.5840072722	-0.0270833261	-0.420445
O	-1.0315933084	-0.893900982	 0.0030703697	-0.208814
H	 0.5503763541	 1.8498759823	 0.0102136253	 0.24873
H	-1.8606398961	-3.2793447631	 0.8678762584	 0.177126
H	-1.8680517857	-3.2704807292	-0.8811235719	 0.177135
H	 0.7321716167	-6.4917702258	-0.034154629	 0.212293
46.8675	111.7312	160.242	275.4513	289.395	326.1497	415.0209	503.9929	622.4837	644.6756	675.0772	723.8985	729.0527	773.8239	782.9281	906.0141	942.2921	953.0567	961.6575	1007.2717	1056.2834	1229.7486	1242.0544	1282.2414	1416.4964	1451.4547	1706.0699	1819.2972	2259.9262	3022.0326	3048.5751	3504.1671	3549.3517
N=C1ON=C(CC#C)O1	[NH][C@H]1ON=C(CC#C)O1	
InChI=1S/C5H4N2O2/c1-2-3-4-7-9-5(6)8-4/h1,6H,3H2	InChI=1S/C5H5N2O2/c1-2-3-4-7-9-5(6)8-4/h1,5-6H,3H2/t5-/m1/s1
