13
gdb 129097	2.63348	1.72455	1.08783	0.5705	73.98	-0.2777	-0.0934	0.1843	1020.6282	0.088585	-448.810671	-448.80326	-448.802316	-448.843528	27.147	
N	-0.1098180822	 1.2874353057	 0.5311918177	-0.431015
C	-0.0313917619	 0.1018721877	 0.0698107084	 0.220361
C	 1.2506259506	-0.5001406421	-0.3446275696	-0.005327
N	 1.6075590778	-1.4564951637	-1.1130080084	-0.043911
O	 0.765499171	-2.257275168	-1.8687139817	-0.243048
N	-0.6191365604	-2.3134483305	-1.9014190095	-0.043913
C	-1.4183286665	-1.683245223	-1.1290480841	-0.00533
C	-1.2783132628	-0.7181506127	-0.0214647778	 0.220363
N	-2.1958349739	-0.5370387022	 0.8445227621	-0.43101
H	 0.8123698305	 1.7321228558	 0.5547974208	 0.23593
H	 2.1231249458	-0.0090315956	 0.0899568306	 0.145483
H	-2.4542130837	-1.9500869172	-1.3459477533	 0.145486
H	-2.9976174942	-1.1469497541	 0.6604352347	 0.23593
49.8104	72.9448	291.9301	331.0396	362.3336	400.7663	441.936	489.955	592.9206	638.9634	728.8036	750.9348	812.4603	824.3439	874.5422	904.1876	935.9199	962.5679	973.3597	1062.0996	1135.1446	1318.2339	1360.2585	1360.949	1414.9031	1656.024	1658.8232	1686.6304	1686.772	3119.9466	3120.3769	3431.839	3432.7378
N=C1C=NON=CC1=N	[NH][C]1C=NON=C[C]1[NH]	
InChI=1S/C4H4N4O/c5-3-1-7-9-8-2-4(3)6/h1-2,5-6H	InChI=1S/C4H4N4O/c5-3-1-7-9-8-2-4(3)6/h1-2,5-6H
