16
gdb 44847	3.58378	1.67843	1.5314	2.6722	67.99	-0.2631	0.0217	0.2848	891.4772	0.127698	-437.884582	-437.878477	-437.877533	-437.914897	25.582	
N	-0.0662488662	 1.2539211714	 0.0200884298	-0.55964
C	-0.0259391165	-0.0034735433	 0.0024095695	 0.457904
O	 1.0942838829	-0.8040811099	 0.0050270936	-0.259099
C	 0.5594322679	-2.1560279916	 0.0258966389	 0.169967
O	-0.6074249339	-2.0562187	-0.7565549543	-0.2467
C	-1.194606132	-0.9834240184	 0.0069711739	-0.065577
C	-1.2212874488	-1.5581566716	 1.4330786633	-0.043784
C	-1.3049881968	-3.0569684798	 1.5543673781	-0.311352
C	 0.0456373828	-2.3971843772	 1.4443867888	-0.07625
H	 0.8749755924	 1.6502565487	 0.0464129778	 0.22743
H	 1.2853134573	-2.8351331834	-0.4161513748	 0.107837
H	-2.1197849698	-0.6342522468	-0.4424453115	 0.116303
H	-1.4893138599	-0.9062930954	 2.2537093649	 0.1176
H	-1.5709986053	-3.43924589	 2.5335595092	 0.121761
H	-1.6774326897	-3.634338729	 0.7167690057	 0.133895
H	 0.7488200055	-2.3862466336	 2.266461347	 0.109705
151.8851	294.4346	350.7354	444.2406	483.3496	572.3141	650.5854	707.4864	740.0572	791.0708	830.9684	851.5491	868.4001	890.3025	902.3508	916.4311	953.3148	988.5612	1003.4694	1027.0385	1063.0922	1074.1594	1095.816	1103.5964	1121.2766	1186.6418	1230.1776	1257.5615	1267.5648	1308.8168	1328.0401	1341.8777	1380.3133	1472.8098	1805.9113	3144.1863	3155.5108	3174.385	3204.6602	3211.7794	3234.7035	3471.3524
N=C1OC2OC1C1CC21	[NH][C]1O[C@@H]2O[C@H]1[C@H]1C[C@@H]21	
InChI=1S/C6H7NO2/c7-5-4-2-1-3(2)6(8-4)9-5/h2-4,6-7H,1H2	InChI=1S/C6H7NO2/c7-5-4-2-1-3(2)6(8-4)9-5/h2-4,6-7H,1H2/t2-,3+,4-,6-/m0/s1
