21
gdb 105537	2.26127	1.44123	1.10785	1.147	78.49	-0.2479	0.0756	0.3235	1201.8375	0.181471	-424.173287	-424.163917	-424.162973	-424.208396	34.278	
C	-0.0452348598	 1.3473680458	-0.281482946	-0.256321
O	 0.0891820741	-0.0438067248	-0.0826477357	-0.298286
C	 0.7173267289	-0.5020551779	 1.0887283152	 0.341819
C	 2.0488010862	 0.1501644956	 1.5661524482	-0.13601
O	 1.5161057706	 0.3251216654	 2.8939912907	-0.274243
C	 0.1841858895	-0.030606637	 2.4727855278	-0.133482
C	 0.8156033856	-2.0082099613	 0.9867063201	-0.006711
C	-0.263846925	-2.8228001571	 0.3236985261	-0.279251
C	 1.0920238064	-2.6882312455	-0.3285293622	-0.279049
H	 0.9230434635	 1.846118537	-0.4188469416	 0.115774
H	-0.6299561425	 1.4692624546	-1.1963546791	 0.13238
H	-0.5782666555	 1.8432061713	 0.5400209939	 0.115912
H	 2.9334276025	-0.4959286998	 1.551492556	 0.10628
H	 2.2988126296	 1.1090367862	 1.0953751854	 0.095601
H	-0.4851811298	 0.8385071756	 2.443437587	 0.096522
H	-0.2633154857	-0.8039927902	 3.1067957118	 0.106172
H	 1.281487006	-2.4452213599	 1.8653949033	 0.092332
H	-0.5333091672	-3.7730826932	 0.7711135336	 0.106892
H	-1.0837131122	-2.2826307602	-0.1336190781	 0.124231
H	 1.1513842052	-2.0600166112	-1.2089005975	 0.122591
H	 1.7556530597	-3.5457821532	-0.3308445988	 0.106847
46.7214	72.1259	87.5299	184.5921	195.267	246.4324	335.427	357.6845	369.2082	500.7864	517.596	637.9793	773.4374	798.237	831.2038	874.7727	924.6363	952.098	960.489	983.9257	1031.7436	1051.5369	1063.8061	1074.7071	1089.7806	1135.5244	1146.4748	1148.4811	1151.2375	1159.0388	1178.6347	1203.7307	1224.0216	1237.8548	1290.7066	1297.5832	1370.5939	1415.9346	1457.4703	1480.2823	1486.6458	1501.2651	1506.5556	1515.3877	1537.2245	3002.843	3011.5212	3026.6168	3059.7886	3067.8474	3069.0263	3116.9977	3139.8608	3141.7092	3149.8774	3225.4253	3238.8861
COC1(COC1)C1CC1	COC1(COC1)C1CC1	
InChI=1S/C7H12O2/c1-8-7(4-9-5-7)6-2-3-6/h6H,2-5H2,1H3	InChI=1S/C7H12O2/c1-8-7(4-9-5-7)6-2-3-6/h6H,2-5H2,1H3
