15
gdb 67021	2.27199	1.74529	1.6246	3.1809	65.34	-0.2417	0.0007	0.2424	918.3084	0.111517	-457.720146	-457.712501	-457.711557	-457.751946	29.796	
O	 0.0707850777	 1.4023376072	 0.2728671815	-0.436114
C	 0.0152246954	 0.0702292301	 0.0015737221	 0.297294
C	-1.0346805645	-0.98891329	-0.0773325148	-0.155866
C	-0.4178235612	-1.639290762	-1.3221848061	-0.282016
C	 0.9022815155	-0.9466004304	-0.9304859265	 0.220491
O	 1.8775720685	-0.6700188816	-1.8472386717	-0.472077
C	 1.2898595389	-1.5292204186	 0.430363488	 0.365273
O	 2.3720263298	-1.8765586137	 0.8291238943	-0.362017
C	 0.0219172401	-1.0542273264	 1.0545722842	-0.238286
H	-0.0798316656	 1.8866805146	-0.5478739663	 0.304536
H	-2.0790881349	-0.9257293385	 0.1968729334	 0.110749
H	-0.3935978247	-2.7331995115	-1.3788332008	 0.108701
H	-0.8388786161	-1.2220781414	-2.2407594063	 0.114825
H	 2.727057856	-0.817716492	-1.4055932983	 0.300625
H	-0.2438979749	-0.9611253957	 2.0976101672	 0.123883
129.0376	171.1788	210.973	299.5004	304.2973	407.7238	457.0586	463.5409	506.96	605.1162	638.796	685.3143	718.6191	761.1207	792.5449	874.2883	882.1765	953.6347	978.4201	1013.4475	1053.0901	1065.5826	1117.8915	1142.3182	1186.995	1244.787	1265.6624	1305.8317	1366.1057	1413.2963	1472.8887	1498.7859	1855.6021	3043.2997	3108.8543	3211.0892	3233.2426	3726.4761	3784.6452
OC12C3CC1(O)C(=O)C23	O[C@@]12[C@H]3C[C@]1(O)C(=O)[C@@H]23	
InChI=1S/C6H6O3/c7-4-3-2-1-5(4,8)6(2,3)9/h2-3,8-9H,1H2	InChI=1S/C6H6O3/c7-4-3-2-1-5(4,8)6(2,3)9/h2-3,8-9H,1H2/t2-,3-,5-,6+/m0/s1
