17
gdb 46412	4.00881	0.85515	0.74474	2.273	76.26	-0.2328	-0.0319	0.2009	1496.149	0.132667	-421.778767	-421.769534	-421.76859	-421.813851	32.937	
O	 0.2182140715	 0.0520988281	-0.0264365209	-0.293159
C	 0.0781299365	 1.2402522376	 0.0152426498	 0.370363
C	-1.1127444974	 2.1811914428	 0.2688458975	-0.342735
C	-0.0744927254	 3.2684667239	 0.6831532043	-0.272903
C	 1.0704503434	 2.4329790933	 0.0506691702	 0.065705
O	 2.230541419	 2.3233028435	 0.820709903	-0.25557
C	 3.2271909218	 1.5051143066	 0.209444536	-0.226471
C	 4.4271872563	 1.5026307033	 1.0328420683	 0.284793
C	 5.4298132462	 1.4826800143	 1.6930540448	-0.416909
H	-1.6485882408	 2.4175278995	-0.6559705147	 0.135586
H	-1.8356485093	 1.8467412935	 1.0154997515	 0.138051
H	-0.2176520775	 4.2716517089	 0.2827087457	 0.115702
H	 0.0555280598	 3.3201076334	 1.7657154062	 0.134924
H	 1.2951091679	 2.7646977804	-0.9791084033	 0.086862
H	 2.8503394546	 0.4815028625	 0.0820695884	 0.155484
H	 3.4651126747	 1.8933127175	-0.7955471936	 0.118442
H	 6.3142765087	 1.467663761	 2.2806577267	 0.201836
45.8274	85.2498	95.8921	142.625	203.8914	268.4255	333.1672	372.2571	420.8679	527.2677	574.8281	609.0162	679.4917	684.5052	750.7627	766.4491	916.3447	934.4074	970.7803	1009.2449	1030.6978	1038.448	1075.929	1108.2246	1174.6448	1191.9181	1227.7238	1249.7518	1258.5066	1262.4395	1351.936	1425.6247	1445.7382	1486.591	1503.9497	1885.112	2249.1925	2943.6554	2963.1097	3034.7944	3064.0811	3089.4402	3123.4578	3151.538	3506.104
O=C1CCC1OCC#C	O=C1CC[C@H]1OCC#C	
InChI=1S/C7H8O2/c1-2-5-9-7-4-3-6(7)8/h1,7H,3-5H2	InChI=1S/C7H8O2/c1-2-5-9-7-4-3-6(7)8/h1,7H,3-5H2/t7-/m1/s1
