18
gdb 51874	4.46272	0.93578	0.81083	3.4086	71.69	-0.251	0.0182	0.2692	1388.8198	0.148328	-476.212652	-476.204297	-476.203353	-476.246335	30.527	
N	-0.1032389764	 1.2752065455	-0.0915603198	-0.436749
C	-0.0477833175	 0.0191246917	-0.0243037448	 0.134106
O	-1.1916554175	-0.7058039874	-0.1070586301	-0.184637
C	-1.044598397	-2.0966491014	-0.0746119313	 0.195083
C	-2.4266287134	-2.7116764283	 0.1268769853	-0.11654
O	-2.3447217256	-4.122793619	 0.0385130455	-0.250502
C	-1.8026475442	-4.532684333	-1.208372684	-0.078486
C	-0.4191701856	-3.9251203963	-1.4044544677	-0.08287
O	-0.4915552764	-2.505518138	-1.3084644915	-0.260784
H	 0.8308410779	 1.669301076	 0.0006541419	 0.232382
H	 0.849177096	-0.5984073823	 0.1038609739	 0.100619
H	-0.3701081913	-2.4025772958	 0.7463745915	 0.073435
H	-2.8155628118	-2.4700567166	 1.1187246283	 0.123247
H	-3.1018780365	-2.2973625702	-0.6371762047	 0.113879
H	-1.7521940469	-5.6251247362	-1.1870106353	 0.114485
H	-2.4631451218	-4.2224969103	-2.0336313405	 0.103099
H	 0.2714591623	-4.323845291	-0.6443389048	 0.101037
H	-0.0188617644	-4.1502130373	-2.3966451719	 0.119196
70.5818	106.7396	111.423	227.0698	251.0051	353.3268	374.7903	429.3708	468.6763	524.644	581.4494	712.9436	824.8473	856.5839	894.1992	926.3665	990.9412	1039.8813	1047.1015	1078.9022	1113.5778	1118.5229	1145.1464	1154.8745	1176.8615	1245.2727	1282.2292	1293.2112	1318.4077	1339.3682	1375.9544	1399.2324	1413.0621	1425.2594	1435.7573	1480.6276	1487.0827	1493.1829	1754.3817	2937.2807	2980.9534	2991.0849	3002.2337	3052.9144	3093.821	3098.2923	3110.9952	3518.2477
N=COC1COCCO1	[NH][CH]O[C@H]1COCCO1	
InChI=1S/C5H9NO3/c6-4-9-5-3-7-1-2-8-5/h4-6H,1-3H2	InChI=1S/C5H9NO3/c6-4-9-5-3-7-1-2-8-5/h4-6H,1-3H2/t5-/m0/s1
