25
gdb 89981	2.58726	1.25692	1.11609	0.141	92.28	-0.259	0.0785	0.3375	1284.5307	0.229046	-352.344828	-352.335277	-352.334333	-352.378763	37.509	
C	-0.338111333	 1.4786451286	-0.0919830308	-0.39753
C	-0.0422223222	-0.0158783848	 0.011072982	 0.008777
C	 1.1530411274	-0.4915581834	-0.8661681105	-0.300208
C	 2.0511062436	-0.5391789153	 0.4015354242	 0.385433
C	 3.1411217676	-1.6309707244	 0.5325983488	-0.290015
C	 4.2077247893	-0.5740639529	 0.1403834707	-0.211831
C	 3.1782934894	 0.5317190507	 0.4951912451	-0.276924
C	 0.7651271495	-0.4800638622	 1.2707087015	-0.04359
C	 0.7467947286	 0.3420361535	 2.5512506714	-0.419862
H	 0.5651748737	 2.0859184203	 0.0306265505	 0.117234
H	-0.76031651	 1.7167531311	-1.0746442249	 0.110419
H	-1.0598775461	 1.8011875234	 0.6663554297	 0.111398
H	-0.9719079889	-0.5716289206	-0.1480566901	 0.058957
H	 0.9904638794	-1.4860447868	-1.2935991616	 0.090914
H	 1.4668370231	 0.1830926706	-1.6696834622	 0.089353
H	 3.2582597202	-1.9595195057	 1.5714226574	 0.094086
H	 3.0382288022	-2.5175682827	-0.10047613	 0.089105
H	 5.1529885574	-0.5781385765	 0.6883683404	 0.092767
H	 4.4292661012	-0.5974503872	-0.9302090272	 0.101707
H	 3.1097479596	 1.3975648654	-0.1696341947	 0.091265
H	 3.3150425032	 0.8923454651	 1.5197081549	 0.096783
H	 0.4722712535	-1.5109419566	 1.5085716655	 0.064535
H	 1.0125942821	 1.388156809	 2.3720124237	 0.115902
H	-0.2454829653	 0.3271022258	 3.0161401378	 0.110832
H	 1.4567700646	-0.0579842645	 3.2844707085	 0.110493
77.6444	110.3268	191.1851	214.5502	237.7764	242.2315	260.5734	329.4463	370.9738	410.9035	503.2359	529.0783	671.7111	723.682	784.0369	791.5753	836.6612	866.8244	889.5148	910.5372	936.742	940.0723	965.0633	982.5048	1025.6041	1030.0902	1065.1743	1104.7789	1115.5318	1180.7994	1183.434	1191.1042	1206.5094	1209.345	1250.3083	1255.0519	1257.2784	1271.4679	1291.2636	1297.0499	1302.3415	1369.5183	1370.2188	1406.1607	1411.6107	1471.6284	1478.7631	1486.3915	1490.4935	1491.8347	1501.5997	1505.7777	1507.6549	3012.7506	3025.0402	3027.8125	3033.8628	3034.9318	3043.272	3046.8156	3058.1371	3082.6094	3084.8321	3086.6254	3090.5859	3090.9136	3097.6905	3104.804	3113.1127
CC1CC2(CCC2)C1C	C[C@H]1CC2(CCC2)[C@H]1C	
InChI=1S/C9H16/c1-7-6-9(8(7)2)4-3-5-9/h7-8H,3-6H2,1-2H3	InChI=1S/C9H16/c1-7-6-9(8(7)2)4-3-5-9/h7-8H,3-6H2,1-2H3/t7-,8-/m0/s1
