20
gdb 109840	3.05531	0.90689	0.85136	3.0148	78.5	-0.2416	0.011	0.2526	1471.6945	0.168694	-440.25773	-440.247486	-440.246542	-440.2943	36.085	
C	 0.0238234689	 1.4750490086	-0.4326391058	-0.376245
C	-0.0740093323	 0.1415496425	 0.3166572444	-0.190286
C	-1.4263476674	-0.515786664	 0.1213254199	-0.106951
C	-1.7197764325	-1.3502612269	-1.1154290286	 0.089851
O	-0.7170713514	-1.5991846902	-2.0510145304	-0.428704
C	-1.6217614263	-2.0072120705	 0.2407188958	 0.023561
O	-0.4499014471	-2.7681390123	 0.4527050419	-0.205474
C	-0.5955893713	-4.1153577652	 0.4394405061	 0.131773
N	 0.4251154929	-4.8512930787	 0.5011497409	-0.437241
H	 0.9943558114	 1.9509425037	-0.2621009277	 0.11176
H	-0.0953954249	 1.3185364964	-1.5087410436	 0.133988
H	-0.7530998289	 2.1747374783	-0.1048141496	 0.109177
H	 0.7183326583	-0.5295924745	-0.0237477009	 0.110278
H	 0.0983742279	 0.2951885635	 1.3887061234	 0.101187
H	-2.266425689	 0.0690271539	 0.4907576136	 0.090617
H	-2.6932079471	-1.2629593443	-1.588973058	 0.102766
H	-0.0595272721	-2.1708534241	-1.6351927435	 0.304151
H	-2.4996113701	-2.4034761583	 0.7447594755	 0.105208
H	-1.6431741235	-4.4386425151	 0.3855408625	 0.095827
H	 0.1500145845	-5.8311657328	 0.5057189541	 0.234757
38.7828	68.5867	83.0678	95.4614	180.7875	238.7816	254.3612	279.3466	305.2571	325.7801	528.3106	565.4842	616.26	680.7197	739.817	792.0287	812.8052	823.9525	890.303	979.7851	1005.3184	1035.2493	1044.5438	1082.2733	1096.5561	1105.1354	1142.0345	1155.4934	1179.7999	1240.5797	1276.7156	1292.7591	1317.9138	1341.5158	1369.4821	1396.7178	1409.9438	1420.5743	1460.4535	1488.0852	1499.5085	1508.6753	1747.323	3033.9689	3037.9404	3038.6288	3088.1235	3106.1048	3116.253	3125.1885	3133.6618	3154.0016	3522.0109	3776.0742
CCC1C(O)C1OC=N	CC[C@H]1[C@@H](O)[C@H]1O[CH][NH]	
InChI=1S/C6H11NO2/c1-2-4-5(8)6(4)9-3-7/h3-8H,2H2,1H3	InChI=1S/C6H11NO2/c1-2-4-5(8)6(4)9-3-7/h3-8H,2H2,1H3/t4-,5+,6-/m0/s1
