15
gdb 30005	3.47041	1.71344	1.15548	7.1654	73.15	-0.1993	0.0214	0.2208	995.4337	0.116201	-413.023306	-413.01602	-413.015076	-413.05517	27.048	
C	-0.0140294824	 1.484317424	 0.0028960852	-0.353387
N	-0.0070631091	 0.0398639944	 0.040766722	-0.152798
C	-0.0357384254	-0.83112944	-1.0531319559	-0.024797
N	-0.0207912904	-2.1037686855	-0.7374589749	-0.343781
C	 0.0201778507	-2.0943853013	 0.638004958	 0.292038
C	 0.028970083	-0.8021923419	 1.116086557	 0.387896
N	 0.0692369656	-0.8779243878	 2.4811508613	-0.424374
C	 0.08295052	-2.2493216643	 2.7476810926	-0.010197
N	 0.0543113784	-3.0003663654	 1.6734239858	-0.327145
H	 0.8892175431	 1.898638405	 0.4643895753	 0.141229
H	-0.0462082321	 1.8071277378	-1.0394877674	 0.152475
H	-0.89169006	 1.8914547745	 0.517143784	 0.141242
H	-0.0671786383	-0.4275482097	-2.0550825365	 0.125613
H	 0.0873488667	-0.1401717928	 3.1629323524	 0.267097
H	 0.1146053401	-2.6054012369	 3.7665164711	 0.128888
103.0061	145.5883	199.6228	252.989	331.822	372.0656	549.1912	603.6217	620.6632	651.712	722.8975	749.0156	776.6267	801.5002	815.3547	958.4261	1035.1164	1059.4727	1117.5415	1152.4542	1233.8134	1259.4274	1301.6597	1360.0134	1365.5856	1405.3959	1462.4541	1481.9904	1495.2105	1503.9983	1520.66	1540.2662	1635.7324	3027.3818	3082.7417	3134.2601	3242.8027	3254.0509	3680.2608
CN1C=NC2=C1NC=N2	Cn1cnc2c1[nH]cn2	
InChI=1S/C5H6N4/c1-9-3-8-4-5(9)7-2-6-4/h2-3H,1H3,(H,6,7)	InChI=1S/C5H6N4/c1-9-3-8-4-5(9)7-2-6-4/h2-3H,1H3,(H,6,7)
