23
gdb 122580	5.09601	0.62463	0.57644	1.3804	87.39	-0.2341	0.0308	0.2648	1935.5789	0.206206	-388.301202	-388.291404	-388.290459	-388.336843	35.984	
O	-0.0542533197	 1.4659161823	-0.0134121942	-0.422231
C	 0.0337877996	 0.0495068779	 0.0448782884	-0.074945
C	-1.3785369178	-0.5148735282	-0.0301685659	-0.167524
C	-1.4131875208	-2.0458210993	 0.0165141232	-0.209447
C	-2.8260332097	-2.6347795337	-0.0282022421	 0.042587
C	-3.6167757907	-2.3493508464	-1.3373704679	-0.256857
C	-4.4390558916	-3.6013299128	-1.5306041633	-0.064223
C	-4.0365736289	-4.591404853	-0.7362568331	-0.061077
C	-2.8715478405	-4.1805507797	 0.1312773632	-0.277066
H	 0.8366661631	 1.824509902	 0.0324267184	 0.284125
H	 0.6370187436	-0.3463788719	-0.7891142989	 0.082
H	 0.5172948853	-0.2813795047	 0.9791457718	 0.081826
H	-1.9623023767	-0.0995062925	 0.8009115678	 0.10272
H	-1.8459205094	-0.1491848613	-0.9519589583	 0.108946
H	-0.8310654407	-2.4540302881	-0.8224110731	 0.090887
H	-0.9112256159	-2.3917607433	 0.9308126227	 0.090516
H	-3.403024936	-2.2044271806	 0.8005335999	 0.07393
H	-4.226195076	-1.4411819184	-1.2699954437	 0.102993
H	-2.9378841521	-2.1978170101	-2.1909724239	 0.099719
H	-5.2339327261	-3.6708632246	-2.2654703697	 0.087662
H	-4.4520167019	-5.5933286948	-0.7230817469	 0.087699
H	-1.9404838806	-4.6478122165	-0.2250361947	 0.098781
H	-2.9824729666	-4.4858601924	 1.1784322702	 0.098977
63.2791	71.8373	91.9887	129.8472	163.2285	263.4166	275.7901	301.1772	395.3821	424.4483	493.367	620.1051	716.9876	760.3188	778.6903	828.8943	869.0429	921.9097	945.5005	976.1972	978.2025	997.2063	1015.6907	1032.7339	1067.6992	1076.7078	1111.7647	1126.2512	1135.455	1156.7674	1200.6071	1233.2975	1246.3563	1290.6604	1294.8905	1307.2325	1318.2718	1323.4919	1335.1929	1364.112	1380.4995	1397.5509	1463.9248	1483.6104	1485.5655	1494.4089	1501.9721	1528.4399	1688.9301	2955.4031	2980.2179	2988.4839	2988.6134	2999.9952	3013.562	3030.2717	3034.4469	3048.321	3057.657	3077.2989	3177.569	3203.4839	3829.6739
OCCCC1CC=CC1	OCCC[C@H]1CC=CC1	
InChI=1S/C8H14O/c9-7-3-6-8-4-1-2-5-8/h1-2,8-9H,3-7H2	InChI=1S/C8H14O/c9-7-3-6-8-4-1-2-5-8/h1-2,8-9H,3-7H2
