20
gdb 11570	5.10531	0.91654	0.87812	2.8351	71.92	-0.26	0.0672	0.3272	1386.2026	0.175068	-386.120418	-386.111039	-386.110095	-386.155004	33.632	
C	-0.1235348341	 1.5259825995	-0.0342370537	-0.380986
C	 0.015470598	 0.0021605432	-0.004346899	-0.192322
C	 0.7558565083	-0.5601793695	-1.2228961808	 0.14526
O	 2.060161221	 0.0075867008	-1.3557691258	-0.432966
C	 0.82820847	-2.0949271106	-1.2075332136	-0.248126
C	 1.4441455282	-2.6516947079	-2.4675006949	 0.10316
C	 1.0632303436	-3.9590936186	-3.0129177275	-0.18378
O	 0.5727660393	-2.7534356484	-3.6010940575	-0.239365
H	 0.8565333015	 2.0008309195	-0.1280668133	 0.126255
H	-0.7290547442	 1.847179227	-0.8887054927	 0.117899
H	-0.6037555101	 1.8985311167	 0.8754199456	 0.109167
H	 0.5521160136	-0.3086866417	 0.905193135	 0.082455
H	-0.9745757142	-0.4669696293	 0.0537112787	 0.099305
H	 0.2318218262	-0.249671759	-2.1354709713	 0.104675
H	 2.5453706891	-0.1889184486	-0.5458254938	 0.274926
H	 1.4199947401	-2.4163719051	-0.3372068845	 0.087366
H	-0.1775431564	-2.5133922753	-1.0871465591	 0.10361
H	 2.4320345188	-2.2604476822	-2.7083674959	 0.102461
H	 1.7702923483	-4.5237219471	-3.6195212837	 0.112808
H	 0.3189799829	-4.5611881834	-2.4919572922	 0.1082
64.6256	76.1226	120.8044	139.4815	216.61	253.9838	309.6007	333.6942	362.2821	437.6436	475.6182	551.8673	779.3836	790.2056	844.412	864.0331	923.7044	957.3462	980.6504	1021.2743	1058.0624	1083.1673	1103.2888	1125.597	1149.6838	1157.9088	1170.3192	1219.4889	1266.7643	1283.1171	1296.6457	1344.0965	1364.3437	1389.0058	1407.0089	1421.9698	1445.9301	1460.5679	1483.1494	1494.9976	1509.0392	1530.8451	2994.0225	3001.58	3038.8424	3041.2699	3052.3329	3071.7846	3077.817	3103.8506	3122.3219	3123.5732	3163.0871	3787.0447
CCC(O)CC1CO1	CC[C@@H](O)C[C@H]1CO1	
InChI=1S/C6H12O2/c1-2-5(7)3-6-4-8-6/h5-7H,2-4H2,1H3	InChI=1S/C6H12O2/c1-2-5(7)3-6-4-8-6/h5-7H,2-4H2,1H3/t5-,6+/m1/s1
