19
gdb 64816	2.63481	1.37504	1.12063	4.1556	75.02	-0.2701	0.0131	0.2832	1153.8804	0.158297	-423.051984	-423.043387	-423.042443	-423.08537	32.817	
C	-0.1981335446	 1.7506848273	-0.4064370223	-0.436803
C	-0.0626160085	 0.2630541444	-0.1300393031	 0.381676
C	 0.976846029	-0.4937066038	-0.9945029986	-0.464323
C	 1.748494432	-0.6169688159	 0.3145057192	 0.445285
O	 2.7752192652	-1.0785620835	 0.6968433395	-0.319932
O	 0.8064246927	 0.0489358702	 1.0564288754	-0.275893
C	-1.3967921061	-0.4206736295	 0.0528377605	-0.029104
C	-1.5352268641	-1.7061458986	 0.8258912079	-0.287148
C	-2.085143628	-0.4196725879	 1.3931406704	-0.269267
H	 0.7837680376	 2.2215058241	-0.5071210152	 0.126249
H	-0.7571519908	 1.9129249928	-1.3337772829	 0.12457
H	-0.7376157197	 2.2419626388	 0.407951843	 0.137914
H	 0.646187405	-1.4483666936	-1.4064857499	 0.143217
H	 1.4860680688	 0.0888796265	-1.7643152424	 0.137839
H	-2.037516468	-0.3120710512	-0.8187607994	 0.090402
H	-2.2311474305	-2.4490918902	 0.453019249	 0.11397
H	-0.6514255997	-2.1139552871	 1.3024649244	 0.133382
H	-1.5454558879	 0.0151019575	 2.2268350415	 0.133553
H	-3.1592146524	-0.2759538303	 1.4204074332	 0.114413
78.2825	90.7761	195.8869	229.9236	233.108	315.7682	358.8694	419.2332	503.1078	528.5421	556.3659	599.6312	777.6778	806.3115	827.4586	849.22	859.9694	921.048	946.9766	966.042	988.3619	1040.5253	1065.5542	1088.0486	1093.0385	1102.2372	1135.3359	1190.5663	1199.5288	1220.8164	1228.6461	1251.0675	1274.544	1410.5064	1412.1533	1449.8601	1461.8119	1485.5314	1493.2585	1503.6918	1935.8876	3041.0721	3087.1939	3113.3744	3123.2023	3137.036	3139.7007	3144.3642	3146.1587	3221.9421	3235.292
CC1(CC(=O)O1)C1CC1	C[C@]1(CC(=O)O1)C1CC1	
InChI=1S/C7H10O2/c1-7(5-2-3-5)4-6(8)9-7/h5H,2-4H2,1H3	InChI=1S/C7H10O2/c1-7(5-2-3-5)4-6(8)9-7/h5H,2-4H2,1H3/t7-/m0/s1
