15
gdb 43687	2.48653	1.53226	1.24063	4.7502	72.59	-0.2655	-0.0499	0.2156	1037.6402	0.112338	-420.630315	-420.622519	-420.621575	-420.66286	29.373	
O	 0.0367194218	 0.0100197364	 0.4787996373	-0.329254
C	 0.0395667837	 1.1500227957	 0.0974439969	 0.418289
O	-1.152752937	 1.7664083278	-0.1643722182	-0.240153
C	-1.1526790412	 3.0081185487	-0.9002954294	-0.075924
C	-0.1052855089	 3.9891898942	-0.3506420485	-0.283312
C	 1.2136208375	 3.2915655526	-0.1931963251	-0.061123
C	 1.2648902299	 1.9687950146	-0.0304370756	-0.165454
C	-0.9797057881	 2.7593595635	-2.3331181754	 0.354127
C	-0.8508668112	 2.5690559402	-3.5119394972	-0.473305
H	-2.1565834694	 3.409535245	-0.7330143579	 0.132055
H	-0.0238835722	 4.8449306257	-1.0271308793	 0.135338
H	-0.4418643589	 4.3807363316	 0.6187242016	 0.13516
H	 2.1209656915	 3.8888615683	-0.1963134795	 0.118456
H	 2.1914666105	 1.4231188598	 0.0988754846	 0.124898
H	-0.739917908	 2.3901534359	-4.5533608642	 0.210202
86.3374	106.9089	190.3461	270.1693	324.2045	406.2209	445.1441	489.7271	583.9933	621.1974	640.4373	662.2186	682.3067	790.1715	814.624	845.4534	913.8792	941.1188	977.174	1015.5433	1057.0188	1069.4575	1145.957	1223.4645	1232.7056	1315.6311	1361.0345	1389.2707	1403.7243	1463.246	1698.6045	1832.3371	2239.7316	3024.158	3068.1952	3089.5227	3171.362	3217.4832	3500.5949
O=C1OC(CC=C1)C#C	O=C1O[C@@H](CC=C1)C#C	
InChI=1S/C7H6O2/c1-2-6-4-3-5-7(8)9-6/h1,3,5-6H,4H2	InChI=1S/C7H6O2/c1-2-6-4-3-5-7(8)9-6/h1,3,5-6H,4H2/t6-/m1/s1
