19
gdb 76350	2.60416	1.34991	1.12218	4.4758	71.33	-0.241	-0.0143	0.2267	1137.9742	0.157037	-460.152774	-460.143266	-460.142322	-460.187169	34.939	
C	-0.3440358007	 1.4060241764	 0.0620322278	-0.392019
C	-0.0020556881	-0.0826987072	 0.0210744536	-0.05231
C	 1.2024115439	-0.4584339158	-0.8924088461	 0.080363
O	 1.594704187	 0.548442631	-1.8061835855	-0.422077
C	 2.1211076288	-0.5934736725	 0.3613827757	 0.069596
O	 2.8606449535	 0.5867926296	 0.5807985027	-0.438364
C	 0.8246023041	-0.6520466944	 1.2223278554	-0.11884
C	 0.8651631225	 0.0392926525	 2.559944325	 0.160726
O	-0.0059279145	 0.7414761012	 3.0072508406	-0.255244
H	 0.5267791124	 2.0152597749	 0.3139504243	 0.122766
H	-0.7123183191	 1.7306336008	-0.9153050446	 0.114587
H	-1.1097083376	 1.5954382444	 0.8157264989	 0.138631
H	-0.9067948892	-0.6544498006	-0.2020340241	 0.077146
H	 1.0506188695	-1.4183214075	-1.3983056999	 0.077785
H	 2.1695271445	 0.1563088074	-2.4712442924	 0.29638
H	 2.7847416026	-1.4659986811	 0.4082623232	 0.065799
H	 2.7961154793	 1.09371861	-0.242806565	 0.291307
H	 0.5617309902	-1.7000330871	 1.4241317527	 0.099089
H	 1.7854442011	-0.1751706222	 3.1487117575	 0.084678
64.6389	90.2959	166.6919	199.2655	237.6336	251.7084	273.0323	275.7264	331.1441	454.6873	501.1615	525.7954	611.3737	668.3174	746.6503	789.8371	826.1962	883.7382	921.5642	945.4963	1024.9524	1042.0776	1093.2589	1125.3945	1139.0917	1155.0844	1166.0774	1221.737	1238.3503	1274.0842	1286.7253	1317.5197	1357.1239	1368.9357	1402.9186	1412.0272	1425.4805	1430.3178	1487.1999	1503.4623	1823.4791	2877.6816	3010.8721	3022.6129	3041.0101	3054.8456	3067.0677	3125.4386	3144.7565	3704.3806	3822.3478
CC1C(O)C(O)C1C=O	C[C@H]1[C@@H](O)[C@@H](O)[C@H]1C=O	
InChI=1S/C6H10O3/c1-3-4(2-7)6(9)5(3)8/h2-6,8-9H,1H3	InChI=1S/C6H10O3/c1-3-4(2-7)6(9)5(3)8/h2-6,8-9H,1H3/t3-,4+,5-,6+/m1/s1
