19
gdb 127069	2.46967	1.54812	0.99182	3.8129	80.81	-0.1976	0.015	0.2126	1208.4702	0.158741	-419.198253	-419.188852	-419.187908	-419.232815	33.689	
C	-0.0965209561	 1.540109709	 0.1131272396	-0.33329
N	-0.0928390417	 0.084863256	 0.1899454844	-0.168462
C	 0.8595845535	-0.4671939049	 1.1431187058	-0.343479
C	-1.2891927555	-0.5661816169	 0.0084220947	 0.45661
C	-1.6483573752	-1.896365961	-0.0624593068	 0.029196
C	-0.8175335906	-3.1406674702	 0.0167632954	-0.52118
C	-3.0383871457	-1.81537366	-0.3269440989	-0.013245
N	-3.4979027733	-0.5926944963	-0.42110093	-0.176618
O	-2.3679171135	 0.2151452916	-0.1902189255	-0.230168
H	 0.9334309484	 1.8820968738	-0.0218848776	 0.122934
H	-0.6925308342	 1.8669684563	-0.7389608418	 0.154673
H	-0.5047141697	 2.0119826931	 1.019751342	 0.122654
H	 0.6078154497	-0.2060109302	 2.1832977013	 0.119713
H	 0.9026464451	-1.5524134383	 1.0620713869	 0.143731
H	 1.8546926865	-0.0705918717	 0.9215094992	 0.129957
H	-0.495950521	-3.3807112708	 1.038052927	 0.128454
H	-1.3940025323	-3.9975962818	-0.3434266192	 0.1267
H	 0.0827930627	-3.0743373093	-0.6043675012	 0.131124
H	-3.7249214671	-2.6399785285	-0.4724290854	 0.120696
42.3279	130.1829	165.1073	184.7293	214.423	226.5134	260.5544	295.2708	353.0741	380.8996	505.4516	612.7146	631.1535	688.0139	726.4748	908.352	916.6345	933.6915	975.0272	1007.4394	1065.8399	1083.453	1125.6858	1165.7573	1175.3137	1203.7487	1220.3126	1285.1499	1358.4981	1403.3277	1432.5463	1451.1287	1469.883	1480.6363	1488.9183	1497.296	1500.4468	1506.1274	1509.4509	1567.6051	1664.4914	2980.9629	2993.7735	3017.6954	3067.533	3084.124	3085.1436	3103.2915	3149.8392	3160.4788	3222.9279
CN(C)C1=C(C)C=NO1	CN(C)c1c(C)cno1	
InChI=1S/C6H10N2O/c1-5-4-7-9-6(5)8(2)3/h4H,1-3H3	InChI=1S/C6H10N2O/c1-5-4-7-9-6(5)8(2)3/h4H,1-3H3
