21
gdb 80680	3.12921	1.14289	1.04398	1.2923	82.49	-0.2436	0.0737	0.3173	1255.4982	0.183383	-387.038775	-387.030349	-387.029405	-387.071926	33.225	
O	 0.16079224	 1.2668827533	 0.0100208166	-0.421302
C	-0.0878333987	-0.1135925433	-0.0207350779	 0.112334
C	-0.4246555937	-0.833224808	 1.2345379048	-0.090086
C	-1.3306945815	 0.0270730737	 2.124733954	-0.263561
C	-2.4090688935	 0.0574621819	 0.9876139089	 0.022104
C	-2.9718774456	 1.377134324	 0.5245731442	 0.014036
C	-4.2366573235	 1.4117792147	-0.2997099314	-0.272475
C	-4.2527919241	 1.9007391424	 1.1271169367	-0.269554
C	-1.4535726658	-0.7323720958	 0.0739026548	-0.144847
H	-0.1032696266	 1.6311098368	-0.8413845003	 0.285875
H	 0.5878214191	-0.6675937021	-0.6745166219	 0.085149
H	 0.1473485529	-1.6891579358	 1.5727116245	 0.084576
H	-1.6766643751	-0.4898131505	 3.021696831	 0.096827
H	-0.9108047484	 0.9949395937	 2.4088616228	 0.11135
H	-3.2410436923	-0.5966268437	 1.2727322395	 0.065546
H	-2.2216258256	 2.1229824246	 0.2858609644	 0.079654
H	-4.3173999376	 2.1427267842	-1.0969824371	 0.105695
H	-4.7263449087	 0.4673633558	-0.5159070172	 0.10624
H	-4.752753324	 1.2838284188	 1.867329105	 0.107081
H	-4.3422020811	 2.9664163687	 1.3069482119	 0.108262
H	-1.7688167762	-1.4931378534	-0.6327296432	 0.077097
72.3122	127.8249	156.5135	246.6125	278.6184	318.6115	372.2953	419.1784	495.2852	612.1233	717.0084	746.6311	778.3327	809.2274	820.9921	835.297	909.7479	916.4517	950.3696	968.5575	993.2404	1014.3249	1024.4948	1039.6496	1056.8641	1064.8002	1077.3059	1087.9094	1147.0236	1151.1417	1199.4504	1208.4195	1214.6188	1228.2747	1248.9856	1263.8352	1291.0049	1298.1819	1320.4563	1354.6156	1428.8063	1458.0587	1470.7179	1490.717	1504.5337	3032.7674	3068.5807	3090.0948	3121.0284	3124.951	3130.1741	3159.1008	3170.5788	3180.1823	3202.2313	3218.4695	3808.46
OC1C2CC(C3CC3)C12	O[C@H]1[C@H]2C[C@@H](C3CC3)[C@@H]12	
InChI=1S/C8H12O/c9-8-6-3-5(7(6)8)4-1-2-4/h4-9H,1-3H2	InChI=1S/C8H12O/c9-8-6-3-5(7(6)8)4-1-2-4/h4-9H,1-3H2/t5-,6-,7+,8-/m0/s1
