18
gdb 106011	3.37617	1.61572	1.41021	2.7931	74.15	-0.2202	0.0593	0.2795	958.0705	0.148819	-401.851159	-401.843957	-401.843013	-401.882825	28.687	
O	 0.0019388516	 1.40878577	 0.1011699666	-0.418446
C	 0.055709386	-0.0100698732	 0.0146440601	-0.249703
C	-1.3450223073	-0.5292251254	-0.0023254303	 0.386762
C	-1.8380064573	-1.9990344967	-0.0696962189	-0.150545
C	-3.0173983516	-1.5932568698	 0.728831541	-0.045392
C	-2.4671435365	-0.1952909295	 1.0735539424	-0.117484
C	-3.1398240984	 0.7719646923	 0.0696789795	-0.245796
C	-2.4995977715	-0.1433012178	-0.984008954	-0.034317
N	-3.0742950099	-1.5426007164	-0.7749302853	-0.151895
H	 0.9022512375	 1.7462429113	 0.0889421126	 0.291687
H	 0.5806439709	-0.3343120489	-0.8998596725	 0.092795
H	 0.6004678526	-0.4426021151	 0.8711216697	 0.091175
H	-1.3623457568	-2.9551896874	-0.2558610295	 0.090821
H	-3.7622815572	-2.1913343954	 1.2387381399	 0.093021
H	-2.2529562958	 0.0578130813	 2.1100587707	 0.073248
H	-4.2293272594	 0.8651889901	 0.0810850418	 0.096669
H	-2.658928736	 1.7524139063	 0.0788997884	 0.124049
H	-2.3848845811	 0.1183326941	-2.0350641422	 0.073351
86.7251	162.3303	220.9679	288.935	372.2581	431.355	538.5065	636.6509	711.5175	764.7699	775.5795	794.2686	843.7307	879.2663	889.1483	930.0403	931.7334	980.0489	1002.6387	1004.1515	1025.9674	1052.7083	1076.1819	1092.3433	1107.4655	1143.5352	1163.4285	1179.8622	1207.9211	1234.1062	1252.0322	1260.5146	1270.4016	1284.1278	1331.333	1358.398	1465.7392	1480.17	1514.8106	2951.0397	2975.3609	3060.6272	3125.3228	3131.5515	3138.9437	3171.1553	3192.5236	3831.7703
OCC12C3C4C1CC2N34	OC[C@@]12[C@H]3[C@H]4[C@@H]1C[C@@H]2N34	
InChI=1S/C7H9NO/c9-2-7-3-1-4(7)8-5(3)6(7)8/h3-6,9H,1-2H2	InChI=1S/C7H9NO/c9-2-7-3-1-4(7)8-5(3)6(7)8/h3-6,9H,1-2H2/t3-,4-,5+,6+,7+,8?/m0/s1
