16
gdb 10793	4.13764	1.59221	1.24766	0.0007	64.7	-0.2504	-0.0345	0.2159	940.964	0.131106	-383.795287	-383.787978	-383.787034	-383.827385	26.991	
O	 0.0038462729	-0.0929302132	 0.0498048458	-0.296872
C	-0.0133119099	 1.1138524326	 0.0120861252	 0.386599
C	-1.308283766	 1.9187490034	 0.0081587475	-0.305557
C	-1.338089976	 2.959040174	-1.1351533725	-0.30556
C	-0.0664542424	 3.7994108087	-1.1735064205	 0.386647
O	-0.083624829	 5.0061669643	-1.2120831271	-0.29692
C	 1.2284474503	 2.9944454029	-1.1699963113	-0.30556
C	 1.2583859529	 1.9541536212	-0.0266879964	-0.305557
H	-2.1523071351	 1.2288774296	-0.0545356109	 0.130195
H	-1.3761886725	 2.4445650568	 0.9704535573	 0.130481
H	-1.417265125	 2.4311748051	-2.0954660202	 0.130514
H	-2.1988776799	 3.6253311906	-1.0495420182	 0.130198
H	 1.2960580729	 2.4686069461	-2.1323027012	 0.130514
H	 2.0725375993	 3.6842555379	-1.1075282102	 0.130198
H	 1.3378595875	 2.482000897	 0.9336068273	 0.130481
H	 2.1191008399	 1.2877977931	-0.1125287846	 0.130195
67.2839	126.0987	137.5253	385.7157	393.8886	413.5903	454.423	517.8717	601.1927	715.1404	734.2609	738.0874	802.2635	880.5611	966.4607	976.0607	1000.5315	1061.8607	1102.1817	1123.2826	1207.3607	1209.4991	1238.5951	1263.9482	1307.5838	1320.0588	1352.96	1353.0046	1464.2199	1469.6867	1477.0684	1482.9473	1823.0191	1825.4346	3017.4732	3024.285	3025.5677	3033.1761	3112.0497	3113.8273	3114.0712	3114.9729
O=C1CCC(=O)CC1	O=C1CCC(=O)CC1	
InChI=1S/C6H8O2/c7-5-1-2-6(8)4-3-5/h1-4H2	InChI=1S/C6H8O2/c7-5-1-2-6(8)4-3-5/h1-4H2
