22
gdb 94583	3.18266	0.90049	0.80426	3.3028	82.51	-0.2426	0.0351	0.2777	1514.5927	0.19345	-404.381309	-404.371008	-404.370064	-404.418188	37.223	
C	-0.264016568	 1.4745625272	-0.0736232221	-0.391421
C	 0.0537008261	-0.0195936291	-0.084487206	-0.016111
C	 1.2954444198	-0.3851551085	-0.9536226565	-0.220186
C	 2.15105684	-0.46225104	 0.3393048374	-0.228854
C	 0.8341978622	-0.5703305781	 1.1552750555	 0.071538
C	 0.7302475778	 0.1220064197	 2.5077919816	-0.355099
C	 1.4900831261	-0.6419800623	 3.5941068621	 0.416423
N	 2.0584012993	 0.139179533	 4.5599935562	-0.523577
O	 1.5764144616	-1.8548672336	 3.6099905725	-0.362655
H	 0.6264645185	 2.0808148156	 0.1282604135	 0.109511
H	-0.6565441778	 1.787895095	-1.047220212	 0.112415
H	-1.0164374258	 1.7256388275	 0.6821387428	 0.108952
H	-0.8593054421	-0.5754063307	-0.3218123802	 0.063248
H	 1.1899207303	-1.3606041423	-1.4359136238	 0.100248
H	 1.5939641801	 0.3449193909	-1.7113102703	 0.08948
H	 2.8644151315	-1.2837123643	 0.4321690835	 0.106005
H	 2.6803332093	 0.4764059657	 0.5355498499	 0.089866
H	 0.5892660889	-1.6248179138	 1.305403736	 0.098633
H	 1.0779219976	 1.1599730184	 2.4537160578	 0.091393
H	-0.3208725096	 0.1598721399	 2.8272485605	 0.125854
H	 1.9395554708	 1.1361323346	 4.5840939752	 0.256007
H	 2.4991171635	-0.316424155	 5.3424248863	 0.258329
21.5599	59.5303	105.571	131.9664	134.2959	221.2273	258.3229	340.3624	350.2855	388.7936	485.1318	522.3802	592.9034	655.7659	698.7882	770.2086	823.4018	856.1487	873.7983	888.207	917.0385	956.2935	988.4326	1020.4236	1071.9065	1080.5302	1119.4202	1148.5167	1167.6306	1208.3809	1227.0519	1258.1974	1265.1777	1266.3568	1285.8176	1304.5288	1357.8415	1367.7473	1407.1521	1411.3369	1460.4735	1479.1894	1496.1802	1500.3129	1501.5263	1615.2174	1794.9449	3014.2119	3023.8032	3039.1363	3045.7767	3054.9283	3059.4863	3082.9609	3090.158	3091.1388	3098.7873	3115.4029	3601.9709	3740.7456
CC1CCC1CC(N)=O	C[C@H]1CC[C@H]1CC(=O)N	
InChI=1S/C7H13NO/c1-5-2-3-6(5)4-7(8)9/h5-6H,2-4H2,1H3,(H2,8,9)	InChI=1S/C7H13NO/c1-5-2-3-6(5)4-7(8)9/h5-6H,2-4H2,1H3,(H2,8,9)/t5-,6-/m0/s1
