13
gdb 23191	2.69616	1.36043	0.9863	4.3125	68.53	-0.2729	-0.0346	0.2383	1127.0988	0.087695	-452.659428	-452.651653	-452.650709	-452.692001	28.574	
O	-0.1179630702	 1.3372626634	-0.0818283569	-0.375041
N	 0.0123294729	-0.0430526193	 0.0693177673	-0.235225
C	-1.1062859642	-0.6244022754	-0.0071996754	 0.372215
C	-2.5860340128	-0.2379287712	-0.0923614072	-0.348069
C	-2.8914784807	-1.7397928816	 0.0949862986	-0.04555
O	-2.2688865559	-2.4384653057	-0.97179007	-0.258535
C	-1.4386348994	-2.080466166	 0.1566188455	 0.262533
C	-0.7327716876	-3.1105659971	 0.8491368302	 0.20079
N	-0.1488977925	-3.9238836099	 1.4264125917	-0.334279
H	 0.7919895503	 1.6432883794	 0.008778415	 0.318892
H	-2.8878687835	 0.3928788826	 0.748263468	 0.148027
H	-2.9387814093	 0.1937359235	-1.0305111311	 0.14958
H	-3.7174575571	-2.2174879428	 0.6066421044	 0.144661
101.9537	141.426	161.9368	228.91	341.3496	408.7936	422.7636	468.3794	529.6839	535.8009	592.1498	665.3736	737.2107	817.4308	863.5975	925.5437	960.8571	1012.184	1027.4975	1066.4727	1129.2791	1191.3102	1242.7494	1259.2694	1385.8105	1426.4361	1458.873	1795.9461	2366.1325	3075.4541	3135.6762	3211.6607	3805.8937
ON=C1CC2OC12C#N	ON=C1C[C@H]2O[C@@]12C#N	
InChI=1S/C5H4N2O2/c6-2-5-3(7-8)1-4(5)9-5/h4,8H,1H2	InChI=1S/C5H4N2O2/c6-2-5-3(7-8)1-4(5)9-5/h4,8H,1H2/t4-,5+/m1/s1
