21
gdb 69533	2.97546	1.52869	1.40162	1.4813	81.49	-0.2369	0.0986	0.3355	1055.8334	0.182702	-387.053701	-387.045618	-387.044674	-387.08555	33.236	
C	 0.0705629733	 1.4547319882	 0.008429871	-0.48268
C	-0.0277157026	-0.0487219062	-0.0103156789	 0.364523
C	-0.925281064	-0.8129639607	 0.9321144931	-0.367942
C	 0.5757534735	-0.9602886028	 1.0425696468	-0.120289
C	 1.3324994009	-1.9412858019	 0.1155731472	 0.42142
C	 2.304054698	-2.9151385358	 0.7207885871	-0.50208
C	 0.3201669407	-2.2977925187	-1.0019330557	-0.291377
C	 0.5292973409	-0.7928357572	-1.2498979191	 0.004026
O	 1.9332148814	-0.98940953	-0.8557424761	-0.337735
H	 1.0648625133	 1.7759433225	-0.3202048395	 0.130831
H	-0.6716424806	 1.9172292485	-0.6534956153	 0.11349
H	-0.0948086462	 1.8508614462	 1.015539283	 0.112925
H	-1.3895243974	-0.2155478164	 1.7127209678	 0.107727
H	-1.5524721728	-1.6310234818	 0.5987268153	 0.110478
H	 1.0973508963	-0.5717133366	 1.9106590678	 0.085722
H	 1.7775206189	-3.6194925539	 1.3728593968	 0.124274
H	 2.8265001085	-3.4795294519	-0.056038152	 0.126003
H	 3.0498200106	-2.3865131511	 1.3239407367	 0.128274
H	 0.8083489914	-2.8848943811	-1.7799101772	 0.107552
H	-0.6623147276	-2.7085067036	-0.768158191	 0.093339
H	 0.4104643535	-0.3218175558	-2.2261225276	 0.071519
158.3092	196.4464	214.2904	248.8611	291.8326	334.1015	397.1425	459.5399	514.6371	571.8153	614.964	625.2934	726.0803	762.8123	810.3123	853.5901	867.9765	902.2787	926.5996	957.4005	969.3384	974.2228	1015.8445	1037.547	1048.1805	1073.755	1096.2471	1118.4994	1135.6363	1203.8278	1211.3509	1225.5841	1250.6846	1272.4539	1290.2151	1340.7881	1391.905	1413.4114	1416.0222	1478.6119	1483.6857	1489.2491	1492.5479	1500.5046	1520.749	3021.8207	3037.5602	3082.9908	3085.7537	3099.6282	3105.8428	3117.9297	3119.3559	3122.9069	3146.6744	3168.0257	3203.1194
CC12CC1C1(C)CC2O1	C[C@]12C[C@H]1[C@@]1(C)C[C@@H]2O1	
InChI=1S/C8H12O/c1-7-3-5(7)8(2)4-6(7)9-8/h5-6H,3-4H2,1-2H3	InChI=1S/C8H12O/c1-7-3-5(7)8(2)4-6(7)9-8/h5-6H,3-4H2,1-2H3/t5-,6+,7+,8-/m1/s1
