16
gdb 85602	2.8883	1.36722	0.97153	2.9488	65.56	-0.2555	-0.047	0.2085	1142.8068	0.124758	-475.080462	-475.072312	-475.071368	-475.113582	30.353	
O	 0.0085146644	 1.3882396529	 0.1463062037	-0.437956
C	-0.0354346812	 0.0013822916	-0.0153997672	 0.045835
C	-1.4719398032	-0.5223976687	-0.1762511081	-0.347473
C	-1.5083586765	-2.0402108621	-0.308198389	 0.382011
O	-2.4098372795	-2.7286063387	 0.121940798	-0.359002
N	-0.4077525739	-2.5905181076	-0.9245271796	-0.317397
C	 0.6057870307	-1.8756160243	-1.6769976092	-0.255816
C	 0.7598017865	-0.4286518607	-1.2337635746	 0.358069
O	 1.4509039171	 0.3565492715	-1.8409553748	-0.325621
H	 0.6583491491	 1.7087467956	-0.499293072	 0.296206
H	 0.4156534899	-0.5081853293	 0.8562242019	 0.110187
H	-2.0838632373	-0.242394562	 0.6818635294	 0.15292
H	-1.9284065031	-0.067725844	-1.0644385205	 0.136768
H	-0.4601876534	-3.5929706342	-1.0380241988	 0.254868
H	 1.5794775474	-2.3644175502	-1.5470376337	 0.155955
H	 0.4060299228	-1.8626346498	-2.7583351455	 0.150445
68.6145	130.4719	136.5343	292.3914	311.9252	375.5792	419.5745	438.8314	463.3403	546.7604	590.8824	605.8206	657.939	714.6006	794.0591	848.1627	911.0713	1023.0896	1061.6551	1085.338	1130.6929	1154.5448	1182.1324	1239.0664	1269.6625	1292.1498	1315.1067	1368.6182	1371.7194	1434.6261	1460.4386	1472.2457	1500.9221	1806.4373	1815.2742	2940.1515	3004.7921	3045.268	3050.1383	3133.9103	3605.1259	3692.9085
OC1CC(=O)NCC1=O	O[C@H]1CC(=O)NCC1=O	
InChI=1S/C5H7NO3/c7-3-1-5(9)6-2-4(3)8/h3,7H,1-2H2,(H,6,9)	InChI=1S/C5H7NO3/c7-3-1-5(9)6-2-4(3)8/h3,7H,1-2H2,(H,6,9)/t3-/m0/s1
