19
gdb 103058	2.50643	1.42905	1.09058	1.562	82.3	-0.2474	0.0405	0.2879	1162.605	0.158512	-385.817343	-385.808543	-385.807599	-385.850697	33.992	
O	 0.1064316178	 1.3084303446	-0.4035686042	-0.419503
C	 0.0154350415	 0.0028574343	 0.1344763839	-0.138567
C	-1.3950072131	-0.571421556	 0.0233987948	 0.109319
C	-2.352882693	 0.2170226522	 0.7603210491	 0.234398
C	-3.1022388067	 0.9268035309	 1.3806740061	-0.428595
C	-1.9589512955	-1.1856957182	-1.2503774991	-0.069022
C	-0.8813295541	-1.9420098345	-2.0347271423	-0.257382
C	-0.6322439099	-2.8458603356	-0.7818401223	-0.251765
C	-1.7107843379	-2.0597148762	-0.0234272121	-0.095601
H	-0.5684399122	 1.8412508681	 0.0336082826	 0.286264
H	 0.7284592508	-0.6033100488	-0.4270744489	 0.109823
H	 0.32193162	-0.0199017319	 1.1918118006	 0.09317
H	-3.7792806727	 1.5325053743	 1.9305734617	 0.193958
H	-2.8973591547	-0.8236708526	-1.6509780484	 0.098785
H	-1.3005848181	-2.50829622	-2.8688076341	 0.109168
H	-0.042882754	-1.3477808554	-2.4083936906	 0.114758
H	-0.9358123784	-3.8794446371	-0.9605317011	 0.109132
H	 0.3730745027	-2.8549158764	-0.3509184146	 0.104774
H	-2.4248249027	-2.4800982519	 0.6739886788	 0.096887
73.6191	137.1684	148.4803	199.6968	277.8224	312.2996	380.6533	428.8372	438.2467	521.3127	544.601	582.7755	663.4647	677.893	761.6314	792.3724	845.6139	875.4427	928.4834	946.483	978.1495	1005.3009	1028.3664	1037.9019	1071.3073	1094.0639	1100.2082	1160.4402	1219.3235	1226.6192	1254.0608	1259.561	1286.5107	1287.5187	1373.6836	1387.8636	1433.5966	1481.5227	1503.5658	1514.5087	2223.9855	2984.4871	3057.383	3064.561	3102.5415	3114.5782	3121.8202	3184.4436	3196.5359	3501.0412	3786.2939
OCC1(C#C)C2CCC12	OC[C@@]1(C#C)[C@H]2CC[C@@H]12	
InChI=1S/C8H10O/c1-2-8(5-9)6-3-4-7(6)8/h1,6-7,9H,3-5H2	InChI=1S/C8H10O/c1-2-8(5-9)6-3-4-7(6)8/h1,6-7,9H,3-5H2/t6-,7+,8-
