18
gdb 126501	3.57269	1.23165	0.97403	5.4266	78.38	-0.25	0.0096	0.2596	1216.0461	0.149493	-398.096865	-398.088924	-398.08798	-398.129876	29.329	
C	-0.0177623574	 1.5963405903	 0.1066163347	-0.38316
C	-0.0040527188	 0.0985162592	-0.2089881829	-0.186729
C	-1.3794219117	-0.5458402623	-0.053962184	-0.156961
C	-1.4343594708	-2.1276465763	-0.1116410278	-0.20215
N	-1.9445714547	-2.0445641117	 1.2738904458	 0.089223
N	-2.4024012124	-2.6640600926	 2.371943366	-0.181551
N	-2.6797554614	-1.6820487081	 3.2016801147	-0.181871
C	-2.4098224489	-0.4606975624	 2.6383479486	-0.223397
C	-1.9271088597	-0.7080760312	 1.3714358561	 0.326757
H	 0.9774485075	 2.0320841167	-0.0183361636	 0.122937
H	-0.7047149357	 2.1359342596	-0.5542951754	 0.119786
H	-0.33451757	 1.7767408251	 1.1390765975	 0.129985
H	 0.3442653549	-0.0633217848	-1.2368438048	 0.105159
H	 0.7076333276	-0.4140489089	 0.4496623333	 0.109949
H	-2.0987100077	-0.0837222719	-0.7372896861	 0.104895
H	-2.149363058	-2.5619564183	-0.8128313844	 0.142937
H	-0.4671392453	-2.6288182607	-0.1889880487	 0.1413
H	-2.5847822874	 0.4523070383	 3.181441751	 0.12289
83.9586	116.7327	132.7224	204.8565	251.7609	354.3267	414.6083	487.603	659.8729	697.1063	719.0141	771.4124	814.9998	829.7718	865.8509	951.1889	968.1442	1005.7132	1038.8589	1090.3118	1101.577	1116.3481	1134.1419	1177.4601	1207.3293	1218.5818	1249.825	1280.3945	1287.0647	1318.1387	1349.8642	1389.804	1414.3906	1474.3925	1485.6297	1499.6265	1506.706	1515.4917	1533.9046	3024.9018	3036.034	3053.8769	3071.0579	3075.0992	3104.9033	3113.3907	3137.7101	3283.2941
CCC1CN2N=NC=C12	CC[C@H]1Cn2nncc12	
InChI=1S/C6H9N3/c1-2-5-4-9-6(5)3-7-8-9/h3,5H,2,4H2,1H3	InChI=1S/C6H9N3/c1-2-5-4-9-6(5)3-7-8-9/h3,5H,2,4H2,1H3/t5-/m0/s1
