15
gdb 43526	2.22955	1.49368	1.09315	1.3778	71.15	-0.2475	-0.0508	0.1967	1106.8412	0.110152	-420.636905	-420.62852	-420.627576	-420.670836	30.774	
O	 0.0794589072	-0.0238114832	-0.0396750422	-0.295344
C	 0.0181797435	 1.1741149091	 0.020682205	 0.403306
C	-1.2809407201	 1.9868176914	 0.1219933434	-0.339002
C	-0.8565584215	 3.4294259422	 0.4847669243	-0.27405
C	-0.811632923	 3.6512260473	 1.924095455	 0.317669
C	-0.7382327585	 3.8064247034	 3.1139899688	-0.461407
C	 0.5968300612	 3.5275104308	-0.076894396	 0.39054
O	 1.0994716941	 4.5251321496	-0.5097301407	-0.290274
C	 1.2079788782	 2.1356908203	-0.0180970382	-0.432666
H	-1.7555787341	 1.9656916603	-0.8668334828	 0.145128
H	-1.9735625974	 1.5325837959	 0.8317889607	 0.151918
H	-1.4704756771	 4.1945168061	 0.0020282578	 0.133925
H	-0.6889743373	 3.9596148692	 4.1639620991	 0.209935
H	 1.7752665472	 2.0328168853	 0.9161125641	 0.17785
H	 1.8962379276	 1.9331001322	-0.8411858583	 0.162472
45.6449	73.4268	131.8815	207.3384	360.0744	391.1926	446.4438	451.9156	493.4369	560.8723	606.4724	636.7556	646.7814	673.048	733.5392	798.2048	822.9379	901.5714	985.8734	1023.4073	1086.3439	1129.0097	1155.3204	1196.7874	1223.4311	1237.9179	1283.7551	1318.698	1399.159	1445.876	1843.3168	1879.3031	2232.4748	3046.08	3047.4658	3079.0417	3123.6923	3130.4553	3502.1057
O=C1CC(C#C)C(=O)C1	O=C1C[C@@H](C#C)C(=O)C1	
InChI=1S/C7H6O2/c1-2-5-3-6(8)4-7(5)9/h1,5H,3-4H2	InChI=1S/C7H6O2/c1-2-5-3-6(8)4-7(5)9/h1,5H,3-4H2/t5-/m1/s1
