20
gdb 70144	2.82094	1.59847	1.22586	1.3989	85.72	-0.215	0.0149	0.2299	1086.7016	0.172844	-365.995438	-365.987481	-365.986537	-366.02723	32.417	
C	-0.2428922462	 1.5052321011	 0.0865427134	-0.480005
C	-0.0251133862	 0.0075938676	-0.0106978989	 0.270973
N	-0.6818676366	-0.849781086	 0.9925515292	-0.364802
C	 0.778009408	-0.6541272965	 1.0994166135	-0.114557
C	 1.6806694851	-1.8070508842	 0.8819067271	 0.001282
C	 1.4758489106	-2.8310680025	 0.0495873939	-0.097258
C	 0.2727570057	-2.9888982686	-0.8605608477	-0.312966
C	 0.1536952179	-1.7917969507	-1.7838624784	-0.097206
C	 0.0409431171	-0.5170901635	-1.402279449	-0.043678
H	 0.5329942333	 2.0545462268	-0.4575498473	 0.127472
H	-1.2112507873	 1.7847474057	-0.345514856	 0.12539
H	-0.2259447154	 1.8432885041	 1.1276127594	 0.110477
H	-1.1546899272	-0.2693995734	 1.6808419686	 0.226974
H	 1.1158895103	 0.0343060864	 1.8714374652	 0.077321
H	 2.6096448627	-1.773621064	 1.4461982907	 0.079508
H	 2.2464968858	-3.594401183	-0.021533227	 0.08853
H	 0.3855354304	-3.8971859179	-1.4582932293	 0.091887
H	-0.6391126991	-3.1024828181	-0.2674796383	 0.147024
H	 0.2108925859	-1.9949163957	-2.8505458127	 0.088362
H	 0.018363625	 0.2478020024	-2.1756730963	 0.075273
153.7367	192.2439	235.5087	282.4034	312.9477	335.9005	380.3657	398.5079	556.4852	566.2069	629.7724	668.1317	713.1835	777.2793	782.9013	820.7197	875.3653	921.7819	928.9729	977.9589	986.5342	991.6864	1013.5857	1020.806	1045.2679	1086.322	1130.8969	1181.6888	1219.5516	1242.1976	1264.798	1283.9384	1339.7206	1352.0212	1408.9639	1417.4767	1439.4349	1453.1637	1476.3312	1485.5431	1502.2077	1714.8823	1716.5118	3023.7197	3057.6542	3087.4696	3094.8159	3100.7208	3118.9622	3135.8159	3144.277	3160.8909	3167.5684	3494.0605
CC12NC1C=CCC=C2	C[C@]12N[C@H]1C=CCC=C2	
InChI=1S/C8H11N/c1-8-6-4-2-3-5-7(8)9-8/h3-7,9H,2H2,1H3	InChI=1S/C8H11N/c1-8-6-4-2-3-5-7(8)9-8/h3-7,9H,2H2,1H3/t7-,8+/m0/s1
