14
gdb 56433	2.34353	1.30547	1.0286	3.2678	64.63	-0.256	-0.0829	0.173	1163.3806	0.097701	-473.822283	-473.812738	-473.811794	-473.857151	33.835	
N	-0.06024068	 1.2642692555	-0.1602249763	-0.519557
C	 0.0629301475	-0.0715655538	-0.0091313103	 0.345629
O	 1.0968762124	-0.6927948484	 0.1339979601	-0.340913
C	-1.2978562222	-0.7910833885	-0.0088000533	 0.277904
O	-2.3456068045	-0.1893555994	 0.0019785694	-0.320923
C	-1.2696730207	-2.3272194655	-0.0198586764	-0.102158
O	-2.5075672206	-2.8363555944	 0.4036680297	-0.408898
C	-0.9059426978	-2.7306477826	-1.3859432194	 0.320535
C	-0.6426672399	-3.032312525	-2.5189371063	-0.465446
H	 0.7583142914	 1.8487767804	-0.1331351566	 0.275488
H	-0.9794867136	 1.6719374824	-0.2149437297	 0.282937
H	-0.4906426457	-2.6640442838	 0.6727403047	 0.152557
H	-3.1722516094	-2.1777249167	 0.1536043707	 0.294404
H	-0.3968436369	-3.3217631803	-3.5110667363	 0.20844
62.0432	64.0273	120.6404	184.0945	227.3889	299.3369	322.5474	354.5042	370.4864	389.5509	487.5971	526.3586	570.4015	635.0756	641.3862	647.0672	679.2088	772.7608	872.2806	956.9097	1052.3013	1098.2877	1118.6738	1254.1798	1308.3661	1373.5676	1424.5738	1597.22	1802.8369	1811.6598	2229.4512	3064.2161	3502.103	3597.3594	3731.8195	3735.6583
NC(=O)C(=O)C(O)C#C	NC(=O)C(=O)[C@@H](O)C#C	
InChI=1S/C5H5NO3/c1-2-3(7)4(8)5(6)9/h1,3,7H,(H2,6,9)	InChI=1S/C5H5NO3/c1-2-3(7)4(8)5(6)9/h1,3,7H,(H2,6,9)/t3-/m0/s1
