17
gdb 84384	2.13085	1.83475	1.19047	2.9887	69.12	-0.2449	-0.01	0.2349	1045.746	0.135413	-458.936463	-458.928249	-458.927305	-458.969303	31.671	
O	 0.4111251555	 1.1075390343	-0.6390343437	-0.419906
C	 0.0922247307	-0.1530844461	-0.0643527028	 0.007196
C	 0.6023313753	-0.3321666825	 1.3441836333	-0.124062
C	-0.3323157453	-0.7899019902	 2.1784709246	-0.124061
C	-1.662298413	-1.0123472117	 1.5017740315	 0.007197
O	-2.7665917989	-0.4487224201	 2.1974674853	-0.419905
C	-1.4107991488	-0.4537947035	 0.0884043458	 0.344186
C	-2.4387859425	 0.2812311626	-0.6599629448	-0.24499
O	-2.0901545424	-1.0622577436	-1.0065049582	-0.2782
H	 0.118718367	 1.7895672063	-0.0238890519	 0.274338
H	 0.5324750297	-0.8839313562	-0.7526565753	 0.116788
H	 1.6323202964	-0.10865502	 1.6004607371	 0.111456
H	-0.1966431403	-1.0043735408	 3.233035961	 0.111456
H	-1.9062395672	-2.0782709856	 1.4241932117	 0.116788
H	-2.5606536805	 0.4773782086	 2.3677467164	 0.274338
H	-3.4237016721	 0.4050396285	-0.2143852966	 0.12369
H	-2.1254627535	 1.04084222	-1.3732276934	 0.12369
53.8075	199.8644	237.7764	265.8593	309.3004	332.5329	342.476	376.6268	491.5299	514.5378	556.1872	608.7464	719.9182	752.7915	819.941	892.835	902.9558	974.3932	988.8435	1013.5979	1017.7783	1054.0254	1098.7744	1140.0172	1146.2621	1168.2218	1205.6093	1246.5998	1257.7588	1272.9995	1296.2317	1365.3295	1405.6285	1421.7499	1430.8049	1512.6707	1676.1695	3049.0564	3050.1098	3093.1754	3183.3824	3189.5593	3207.2155	3797.2498	3798.3447
OC1C=CC(O)C11CO1	O[C@H]1C=C[C@@H](O)[C@]21CO2	
InChI=1S/C6H8O3/c7-4-1-2-5(8)6(4)3-9-6/h1-2,4-5,7-8H,3H2	InChI=1S/C6H8O3/c7-4-1-2-5(8)6(4)3-9-6/h1-2,4-5,7-8H,3H2/t4-,5+,6+
