15
gdb 72979	2.71979	1.54804	1.22028	2.6976	66.38	-0.2394	0.0036	0.243	1011.4084	0.111249	-453.887217	-453.878531	-453.877587	-453.920395	31.692	
N	-0.1295098516	 1.4556841371	-0.1095873171	-0.584731
C	-0.0974999458	 0.0082866157	-0.0609925736	 0.069563
C	 0.9388239696	-0.6031222228	-0.8504572769	 0.243396
N	 1.7732474777	-1.0776967833	-1.4966233691	-0.331262
C	-0.487285531	-0.7784858055	 1.2018588339	-0.013364
O	-1.4079773195	 0.0170200844	 1.9388998593	-0.293053
C	-2.3932539301	-0.0748273536	 0.8601431378	-0.167733
C	-1.3867233774	-0.821994086	-0.0116508978	 0.302325
O	-1.6966605272	-1.8488048882	-0.8634281487	-0.440613
H	-0.469555255	 1.78043212	 0.7943773532	 0.255602
H	 0.8162932154	 1.8119100999	-0.2083674881	 0.248365
H	 0.1402838933	-1.4889971039	 1.7258761766	 0.136288
H	-3.2303036224	-0.7094686607	 1.1644979139	 0.137349
H	-2.7439097617	 0.9059035782	 0.5261496905	 0.129422
H	-1.5448482842	-1.5680319811	-1.773210844	 0.308446
108.8314	124.1309	168.0477	176.8672	261.3743	274.7224	308.3755	365.216	450.5167	493.741	553.5911	580.9148	690.1446	719.0958	746.9217	895.5474	952.2184	970.2897	986.4832	1021.8459	1040.9239	1048.3853	1133.8444	1152.829	1226.1443	1235.9937	1295.9802	1322.6887	1372.4774	1458.5894	1502.9298	1646.4537	2348.0592	3053.0096	3115.8103	3196.5563	3471.4292	3563.1071	3798.765
NC1(C#N)C2OCC12O	N[C@@]1(C#N)[C@H]2OC[C@@]12O	
InChI=1S/C5H6N2O2/c6-1-4(7)3-5(4,8)2-9-3/h3,8H,2,7H2	InChI=1S/C5H6N2O2/c6-1-4(7)3-5(4,8)2-9-3/h3,8H,2,7H2/t3-,4+,5+/m1/s1
