23
gdb 121290	4.06895	0.8465	0.73251	1.0204	88.08	-0.2418	0.0257	0.2675	1626.748	0.206093	-388.308233	-388.298753	-388.297809	-388.342995	35.558	
C	 0.0328526146	 1.5577759202	-0.0215087195	-0.38113
C	 0.0066239972	 0.0283400932	 0.0310808789	-0.170058
C	-1.4131731582	-0.5467441188	-0.0007487124	-0.184287
C	-1.4566393746	-2.0710539336	 0.0029894069	 0.127079
C	-2.8780710371	-2.6386627148	 0.1093784605	-0.261609
C	-2.8844165839	-4.1110198206	-0.2080330907	-0.067928
C	-1.8528946617	-4.6969293023	-0.8101347863	-0.06526
C	-0.6479498227	-3.914469747	-1.2535148638	-0.114844
O	-0.844314769	-2.5157491977	-1.2055265168	-0.262639
H	 1.0580078297	 1.940522164	 0.0041696408	 0.109781
H	-0.4375805846	 1.9300806162	-0.938519037	 0.11386
H	-0.5068103444	 1.9960636091	 0.8259719361	 0.109372
H	 0.5701435439	-0.3859796904	-0.8112209393	 0.115046
H	 0.5148284363	-0.3164584619	 0.9418100114	 0.087859
H	-1.9854588351	-0.1817390766	 0.8624296451	 0.089252
H	-1.9369258478	-0.192592354	-0.8985180213	 0.100481
H	-0.8694014353	-2.4493609589	 0.8593708115	 0.060368
H	-3.2655235331	-2.4670541784	 1.1220213737	 0.101423
H	-3.549460287	-2.095619173	-0.5713759738	 0.1095
H	-3.7580202246	-4.68976897	 0.0802909362	 0.087452
H	-1.8415498285	-5.7657529068	-1.0068482437	 0.088734
H	 0.2321921246	-4.2045863472	-0.6486396989	 0.093546
H	-0.4012828485	-4.1503822705	-2.2960974576	 0.114002
68.5134	83.5061	105.0132	175.9876	223.6988	244.6496	303.4727	348.4658	389.5953	472.497	527.0502	544.2426	668.417	741.4365	799.2927	832.0918	883.2587	904.3804	926.2081	957.2221	990.0512	999.2787	1035.3438	1039.9036	1060.0028	1085.0194	1121.1358	1136.4334	1159.5708	1208.4657	1219.8592	1256.665	1281.9027	1286.2607	1328.0359	1334.8996	1373.0718	1383.4176	1404.8337	1409.4716	1412.0778	1414.1618	1466.1938	1474.8097	1488.0862	1493.6069	1499.494	1510.3268	1727.6827	2924.9109	2937.6014	3005.3802	3014.3693	3020.4928	3027.023	3042.5588	3043.5893	3053.8216	3073.9752	3097.4005	3099.8455	3150.4615	3174.0649
CCCC1CC=CCO1	CCC[C@H]1CC=CCO1	
InChI=1S/C8H14O/c1-2-5-8-6-3-4-7-9-8/h3-4,8H,2,5-7H2,1H3	InChI=1S/C8H14O/c1-2-5-8-6-3-4-7-9-8/h3-4,8H,2,5-7H2,1H3/t8-/m0/s1
