16
gdb 67872	2.67924	1.69988	1.3941	1.9108	71.09	-0.2584	-0.008	0.2504	964.57	0.124901	-437.892019	-437.884426	-437.883482	-437.923953	29.272	
O	 0.19419887	 1.3253934777	-0.2280096182	-0.476351
C	 0.1322475964	-0.0576776544	-0.0476762686	 0.246491
C	 0.8390131633	-0.8294787383	-1.1329301617	-0.116519
C	 0.0864970567	-1.8036737181	-1.6428065668	-0.059806
C	-1.2875643441	-1.886282952	-1.0142427125	-0.290747
C	-1.2224417997	-0.8397928187	 0.0929696519	 0.059676
O	-0.7344911077	-1.3952167674	 1.3689231176	-0.273158
C	 0.3729922782	-0.5812604787	 1.3605515506	 0.36211
N	 1.2124639336	-0.2993521554	 2.2485314569	-0.55502
H	 0.3760276353	 1.7252678222	 0.6303649135	 0.298295
H	 1.8529636437	-0.5802373561	-1.4197076066	 0.113138
H	 0.4049781906	-2.4884177182	-2.4209069934	 0.1072
H	-2.0845196777	-1.6776859414	-1.7387305675	 0.119307
H	-1.4968834515	-2.8737317039	-0.5859863289	 0.132018
H	-2.1235768079	-0.2507614442	 0.264653154	 0.100667
H	 1.0238248609	-0.7912801232	 3.1235756096	 0.2327
121.0072	160.8698	193.0183	256.6366	311.8224	343.6716	443.1567	518.9152	618.6177	681.8979	704.2172	749.4477	777.0135	836.2147	855.5669	866.9751	937.2878	972.7326	979.168	999.7188	1023.1159	1036.6652	1108.9309	1144.7641	1171.8338	1202.2011	1228.0886	1286.4681	1323.2795	1344.8411	1356.0579	1402.9433	1462.1596	1678.1511	1817.7918	3031.282	3068.0115	3116.8724	3194.0597	3224.036	3476.4744	3799.3447
OC12C=CCC1OC2=N	O[C@]12C=CC[C@H]1O[C]2[NH]	
InChI=1S/C6H7NO2/c7-5-6(8)3-1-2-4(6)9-5/h1,3-4,7-8H,2H2	InChI=1S/C6H7NO2/c7-5-6(8)3-1-2-4(6)9-5/h1,3-4,7-8H,2H2/t4-,6-/m1/s1
