19
gdb 95041	2.49115	1.81391	1.26443	1.0729	74.88	-0.2429	0.0212	0.2641	1020.8789	0.161724	-423.03761	-423.029964	-423.029019	-423.070031	30.054	
O	 0.1322336887	 1.3776246886	-0.2723424571	-0.425241
C	 0.0154667041	 0.0143180056	 0.0924678943	 0.102758
C	 0.3447663103	-0.2847039583	 1.5650481919	-0.125545
O	-0.2903909277	-1.5211762917	 1.8261491468	-0.260754
C	-1.5677983918	-1.4850785372	 1.1625524108	 0.070461
C	-2.655753859	-0.8962192644	 2.0249028522	-0.086603
C	-3.158756914	 0.2234673162	 1.5101780909	-0.062037
C	-2.5334287057	 0.597807984	 0.1910268333	-0.271339
C	-1.4445441555	-0.4864348043	-0.0337328463	-0.081053
H	 1.0621018741	 1.6202815083	-0.2284613075	 0.2875
H	 0.6570407324	-0.6093410109	-0.54646254	 0.073465
H	 1.4133499308	-0.4062356083	 1.7678447558	 0.096975
H	-0.045937553	 0.530419313	 2.1953103994	 0.095296
H	-1.7759155141	-2.5191638707	 0.8687101793	 0.078539
H	-2.9476057613	-1.356374911	 2.9620393879	 0.09629
H	-3.9427758769	 0.8211758807	 1.9645744557	 0.094649
H	-3.2740599958	 0.5857244683	-0.6181229849	 0.104708
H	-2.1104437949	 1.606903478	 0.2015363101	 0.133715
H	-1.5887004506	-0.9844695759	-0.9931006025	 0.078217
52.6273	177.9053	249.5562	258.6383	300.8184	377.266	481.9301	519.2909	570.7335	618.1023	724.2549	763.0817	806.7054	846.483	878.2866	944.1476	949.5092	971.7532	992.8801	1003.9518	1036.7251	1070.0433	1078.4889	1104.8131	1127.8863	1135.0865	1192.8262	1231.4472	1239.3202	1249.9903	1298.9972	1319.9904	1327.3989	1332.5716	1356.097	1378.354	1382.7792	1425.6008	1487.8687	1511.0383	1689.3667	2978.0436	2995.4177	3030.6483	3049.2942	3079.8531	3082.0689	3099.3541	3176.7925	3207.3106	3825.1607
OC1COC2C=CCC12	O[C@H]1CO[C@H]2C=CC[C@@H]12	
InChI=1S/C7H10O2/c8-6-4-9-7-3-1-2-5(6)7/h1,3,5-8H,2,4H2	InChI=1S/C7H10O2/c8-6-4-9-7-3-1-2-5(6)7/h1,3,5-8H,2,4H2/t5-,6-,7-/m0/s1
