22
gdb 78244	2.13895	1.67724	1.24048	0.7069	81.95	-0.2209	0.0864	0.3072	1145.8417	0.193758	-404.331883	-404.322652	-404.321708	-404.365315	35.384	
C	-0.0397283685	 1.7560190102	 0.5654592097	-0.402615
C	-0.418568094	 0.2761694406	 0.6254034362	 0.10328
O	-0.3028130831	-0.3554767266	-0.6582268424	-0.286237
C	 0.8552234992	-1.2005501934	-0.7280715752	 0.103274
C	 1.9671775971	-0.570610473	-1.5669991084	-0.402611
C	 1.2772861254	-1.4473784875	 0.7106733994	-0.052457
C	 0.4760098422	-0.5184559587	 1.5620719243	-0.052459
N	 0.3024230618	-1.9599494314	 1.661948763	-0.11317
C	-0.9241652574	-2.6207500698	 1.2285475291	-0.332621
H	 1.0269680985	 1.8862127852	 0.3575392089	 0.118858
H	-0.607428106	 2.2521776398	-0.2260609376	 0.125991
H	-0.267682175	 2.2514465589	 1.5154594755	 0.113891
H	-1.476903236	 0.1941797661	 0.9104765156	 0.081986
H	 0.5260456601	-2.1278613072	-1.2177652666	 0.081986
H	 2.3790940941	 0.3186001976	-1.0795063303	 0.118861
H	 2.7826683321	-1.2846218127	-1.7253527259	 0.11389
H	 1.5733914843	-0.2762207508	-2.543333143	 0.125988
H	 2.3174659079	-1.6961635041	 0.9059939409	 0.090439
H	 0.8706101386	-0.0188161737	 2.4433601657	 0.09044
H	-1.3898032824	-2.1981726351	 0.3292334171	 0.133029
H	-0.699370866	-3.6757906456	 1.0426781287	 0.120129
H	-1.646920973	-2.5772618789	 2.0494759754	 0.120129
113.7372	139.5859	188.4424	211.7616	212.7151	229.129	281.8053	328.7428	362.4228	417.6385	512.9269	561.9753	706.9401	719.899	760.4253	824.3629	842.7384	881.9318	908.5881	983.1282	992.5899	1039.0969	1046.4769	1079.1954	1099.2975	1116.1099	1132.9651	1148.3563	1152.2483	1176.4146	1187.6161	1292.1441	1306.2306	1330.9556	1355.2691	1366.1754	1387.3847	1401.0571	1404.1166	1415.8486	1455.9712	1483.114	1489.53	1491.4783	1492.0468	1498.5558	1514.0258	3002.4089	3005.4776	3015.1322	3035.0655	3036.7676	3081.525	3099.8769	3104.4789	3108.2436	3120.3744	3122.327	3132.8493	3142.3809
CC1OC(C)C2C1N2C	C[C@H]1O[C@@H](C)[C@H]2[C@@H]1N2C	
InChI=1S/C7H13NO/c1-4-6-7(8(6)3)5(2)9-4/h4-7H,1-3H3	InChI=1S/C7H13NO/c1-4-6-7(8(6)3)5(2)9-4/h4-7H,1-3H3/t4-,5+,6-,7+,8?
