15
gdb 123597	4.19096	1.64324	1.41915	2.8753	70.29	-0.2524	-0.0034	0.249	891.4736	0.11626	-416.721863	-416.716127	-416.715183	-416.751825	24.006	
C	-0.0281608748	 1.5107121006	-0.0677595562	-0.180824
C	 1.5339931034	 1.3533568593	-0.0070706422	-0.179462
C	 1.150001625	 0.1641235804	 0.9453075332	-0.180821
N	-0.0959301702	-0.0247475712	 0.0566403758	-0.235889
C	 0.6007923568	-0.3438525813	-1.1780200977	 0.227205
C	 0.6899777192	-1.098994312	-2.2860473176	-0.132873
O	 1.7747195642	-0.6926029254	-3.0062734549	-0.195282
N	 2.4268964778	 0.3825609951	-2.3355263331	-0.283308
C	 1.7052671923	 0.5501698761	-1.2737222003	 0.409459
H	-0.4553314181	 1.9724179981	 0.8252803045	 0.121332
H	-0.4816170788	 1.9126534842	-0.975221619	 0.127726
H	 2.2218252827	 2.1531567539	 0.2561294802	 0.098889
H	 1.8083653591	-0.7047060517	 0.9938670036	 0.127732
H	 0.8456485553	 0.4855126098	 1.9439310948	 0.121341
H	 0.1289747659	-1.9127740658	-2.7157812813	 0.154775
181.4029	304.3571	448.3633	502.5996	564.9903	589.4718	679.8328	702.7792	765.3497	815.1274	820.4373	824.8114	829.2688	847.7578	908.4352	952.153	996.0068	1024.91	1046.7224	1070.9737	1094.0436	1105.3462	1169.5105	1202.5799	1234.5235	1246.8157	1257.8895	1299.0646	1368.4528	1492.2426	1525.456	1608.9178	1691.384	3067.7314	3074.6738	3141.7272	3145.0029	3155.0003	3276.3424
C1C2CN1C1=CON=C21	C1[C@H]2CN1c1conc21	
InChI=1S/C6H6N2O/c1-4-2-8(1)5-3-9-7-6(4)5/h3-4H,1-2H2	InChI=1S/C6H6N2O/c1-4-2-8(1)5-3-9-7-6(4)5/h3-4H,1-2H2
