14
gdb 28261	4.86045	1.28718	1.03293	1.2788	63.59	-0.1945	0.0226	0.2171	1073.627	0.103269	-473.838127	-473.831198	-473.830254	-473.869724	25.974	
O	-0.0817499929	 1.2387557344	 0.1793794979	-0.391942
C	 0.0597190974	-0.0760398667	 0.0540561728	 0.451231
N	 1.1632617206	-0.7405706584	-0.1603776238	-0.471917
C	 0.6879900751	-2.0330001509	-0.1492953167	 0.372609
C	-0.6274962971	-2.0927872289	 0.0860542883	 0.152214
C	-1.1732828969	-3.4529907909	-0.1555012133	-0.365232
C	 0.2221355599	-4.1914460296	-0.2202981854	-0.087737
O	 1.2919448125	-3.2084242188	-0.4262976215	-0.277915
O	-1.0789951399	-0.7806435101	 0.1944396091	-0.206426
H	 0.7985659623	 1.6237230412	 0.0790274597	 0.325411
H	-1.7898589389	-3.8792134999	 0.6426111149	 0.122693
H	-1.7355194574	-3.5445684614	-1.0952442861	 0.120323
H	 0.4245424772	-4.6939715537	 0.7300569267	 0.127641
H	 0.2872099081	-4.9144600564	-1.0340916525	 0.129047
114.0957	131.8041	271.1267	321.7086	335.4677	433.3201	539.0168	562.8139	691.527	721.4381	746.5497	749.1569	838.7451	852.7959	912.5544	974.6266	1000.9331	1075.2307	1133.9253	1185.07	1190.4785	1242.924	1264.2688	1325.6386	1354.6585	1446.0187	1483.0345	1503.9817	1518.5139	1629.2685	1721.9894	3001.2559	3051.7581	3066.577	3131.8532	3805.5612
OC1=NC2=C(CCO2)O1	Oc1nc2c(CCO2)o1	
InChI=1S/C5H5NO3/c7-5-6-4-3(9-5)1-2-8-4/h1-2H2,(H,6,7)	InChI=1S/C5H5NO3/c7-5-6-4-3(9-5)1-2-8-4/h1-2H2,(H,6,7)
