17
gdb 31280	2.14634	1.69067	0.97825	2.0044	72.48	-0.1798	0.0387	0.2185	1187.1725	0.135841	-455.153353	-455.144145	-455.143201	-455.188366	32.082	
C	 0.0425276608	 0.5402625015	-0.6250279741	-0.254228
O	-0.1707914337	 0.577874564	 0.7877443026	-0.271887
C	 0.5119167404	-0.3535434218	 1.4900298684	 0.266249
C	 0.7512766685	-1.7025595898	 1.3544767081	 0.252247
O	 0.3241975672	-2.4734646234	 0.3236953829	-0.282996
C	 0.7782495394	-3.8211913396	 0.3385399301	-0.233495
N	 1.4858987525	-2.1703570464	 2.4058397725	-0.340929
C	 1.6896544786	-1.1316417416	 3.1911137878	-0.002424
N	 1.1257334871	-0.0047808355	 2.6772331052	-0.307854
H	-0.246365903	-0.4297101467	-1.0398066722	 0.15077
H	-0.5829210516	 1.3281373071	-1.0483650849	 0.129902
H	 1.0953362089	 0.7346618146	-0.8646985388	 0.116937
H	 0.432982605	-4.3473868023	 1.2344239102	 0.131792
H	 0.3571124779	-4.2873957516	-0.5540371708	 0.120517
H	 1.8721709158	-3.8744268899	 0.3081889713	 0.125613
H	 2.2206889334	-1.1419938955	 4.1297447965	 0.130122
H	 1.1227894028	 0.921531827	 3.0702623952	 0.269664
45.8766	62.1214	158.1753	167.3313	167.8374	239.311	295.9701	346.0987	418.372	488.2104	541.7888	638.5286	668.0358	710.5265	737.8535	755.0917	946.4673	1036.6136	1069.6155	1113.0221	1173.7726	1180.4288	1182.6763	1204.2292	1233.0777	1273.5599	1324.8893	1386.0248	1458.8839	1469.8035	1478.767	1483.9066	1502.8921	1508.8223	1510.173	1530.5481	1674.7534	3020.3129	3027.9931	3092.2935	3099.0211	3135.4544	3140.2282	3261.0238	3666.8164
COC1=C(OC)N=CN1	COc1c(OC)nc[nH]1	
InChI=1S/C5H8N2O2/c1-8-4-5(9-2)7-3-6-4/h3H,1-2H3,(H,6,7)	InChI=1S/C5H8N2O2/c1-8-4-5(9-2)7-3-6-4/h3H,1-2H3,(H,6,7)
