21
gdb 116333	2.40939	1.62089	1.2429	0.4682	78.02	-0.2498	0.0823	0.3321	1107.7609	0.183903	-424.210144	-424.201602	-424.200657	-424.243307	32.719	
C	 0.657333592	 1.1392207558	 0.2317418783	-0.241733
O	 0.6547528774	-0.26194815	 0.0341577332	-0.241748
C	 0.4466876302	-0.6424598939	-1.3065847049	 0.207717
O	 1.4644777838	-0.1468600286	-2.1575347706	-0.280758
C	 2.7184668897	-0.8407473823	-2.1829160533	-0.047992
C	 2.8275957939	-1.9914426338	-1.1742443439	-0.254016
C	 1.6228431604	-2.9050148533	-1.3222219181	-0.014361
C	 0.6124458735	-3.042726926	-0.2152056333	-0.299855
C	 0.3113227262	-2.1528549419	-1.3926033125	-0.063492
H	 1.4589221979	 1.6274296212	-0.3338816679	 0.123013
H	-0.3027080528	 1.5848726789	-0.0706845752	 0.104899
H	 0.8064326421	 1.3104631785	 1.3001756052	 0.121939
H	-0.4597077124	-0.1472465631	-1.6838275089	 0.069901
H	 2.8574701218	-1.2316711735	-3.2005952304	 0.096277
H	 3.5051435362	-0.0975155252	-2.0050241326	 0.097295
H	 3.7630737585	-2.5302349687	-1.3548423015	 0.095535
H	 2.8758888357	-1.5837469215	-0.1610695417	 0.119855
H	 1.7442345978	-3.7473626498	-1.9963555743	 0.081774
H	 0.0604279313	-3.973641365	-0.1461657967	 0.10642
H	 0.8198584784	-2.5615771239	 0.7325052657	 0.130865
H	-0.4332376816	-2.485400694	-2.1069805764	 0.088465
96.416	121.6582	151.7087	194.0105	225.7573	309.579	379.595	439.4674	480.5408	521.738	582.5864	721.438	792.5904	807.8132	823.1173	890.8538	935.1982	950.3596	971.318	988.3731	1022.1435	1064.1055	1070.7371	1089.5833	1117.8546	1126.3	1148.8754	1172.9123	1181.8982	1217.065	1226.8205	1261.1233	1268.9938	1340.0593	1374.6292	1389.6585	1397.4338	1413.8695	1422.1948	1471.5662	1475.9742	1482.6906	1492.9559	1514.5125	1521.7208	2989.2834	2998.8712	3003.7476	3041.2278	3056.7581	3064.9059	3101.3546	3122.465	3141.0363	3149.883	3170.4278	3234.5417
COC1OCCC2CC12	CO[C@H]1OCC[C@H]2C[C@@H]12	
InChI=1S/C7H12O2/c1-8-7-6-4-5(6)2-3-9-7/h5-7H,2-4H2,1H3	InChI=1S/C7H12O2/c1-8-7-6-4-5(6)2-3-9-7/h5-7H,2-4H2,1H3/t5-,6+,7-/m0/s1
