20
gdb 78213	2.25666	1.57189	1.39092	2.2621	79.61	-0.2226	-0.0208	0.2018	1078.9892	0.168761	-403.118128	-403.108773	-403.107829	-403.151656	35.22	
C	 0.4198687343	 1.7390633852	-0.6210222151	-0.321566
N	 0.4583950008	 0.3004548338	-0.3709540343	-0.089362
C	 1.6915353638	-0.4688066102	-0.4271171011	-0.183013
C	 0.8567077031	-0.3505128065	 0.8466295801	-0.073032
C	 2.012901358	 0.322811562	 1.6311640176	 0.152244
C	 1.7845963293	 1.6347645567	 2.3780247356	-0.459276
C	 2.6937969037	-0.7015319085	 2.5591137995	-0.423391
C	 2.8051715986	 0.2878025451	 0.2853697109	 0.372599
O	 3.9200507032	 0.6121624772	-0.0088746729	-0.322088
H	 1.3294183167	 2.2886250695	-0.3496557365	 0.126448
H	 0.2492131848	 1.8852102376	-1.6919969734	 0.130561
H	-0.4293304462	 2.1694618394	-0.0819925941	 0.129159
H	 1.7913266321	-1.2666539659	-1.1553200306	 0.109544
H	 0.1965017531	-1.108072094	 1.2581872393	 0.102306
H	 1.2196580758	 1.455190732	 3.2996726921	 0.11837
H	 2.7470558205	 2.0748519584	 2.6607206145	 0.132291
H	 1.2376058265	 2.374093412	 1.7928399513	 0.121824
H	 2.8711419457	-1.655606106	 2.0524298373	 0.122539
H	 3.657986304	-0.3180597239	 2.9049390769	 0.135376
H	 2.0659270022	-0.8959778738	 3.4354576731	 0.118466
111.9851	139.976	162.4742	187.815	228.5106	254.0009	288.0802	295.4505	347.7719	396.7595	485.3778	567.9737	658.7322	675.3871	724.4422	777.6908	856.6339	901.9675	916.6086	957.0181	970.2755	987.7296	1020.5085	1048.3118	1086.2258	1153.1525	1168.359	1181.8301	1195.5286	1223.9611	1245.5257	1306.1459	1360.6893	1396.1668	1420.0357	1454.5065	1482.0265	1483.7806	1490.664	1500.7015	1507.0538	1518.3322	1877.7312	3014.976	3030.9099	3037.7369	3084.1516	3093.8937	3099.9174	3110.607	3114.869	3146.5111	3157.3774	3172.7032
CN1C2C1C(C)(C)C2=O	CN1[C@@H]2[C@H]1C(C)(C)C2=O	
InChI=1S/C7H11NO/c1-7(2)5-4(6(7)9)8(5)3/h4-5H,1-3H3	InChI=1S/C7H11NO/c1-7(2)5-4(6(7)9)8(5)3/h4-5H,1-3H3/t4-,5+,8?/m1/s1
