19
gdb 65554	3.27907	1.37178	1.26011	2.5054	75.68	-0.2612	-0.0355	0.2257	1057.9226	0.160383	-423.027509	-423.019935	-423.018991	-423.05934	30.703	
O	-0.0160857352	 1.3965903974	 0.0874786007	-0.494583
C	-0.0006175416	-0.0066229249	 0.042419795	 0.354449
C	 0.4749831149	-0.6471632309	 1.4050117212	-0.282752
C	-0.834950134	-1.3346550914	 1.8338562346	-0.014236
C	-1.248251707	-2.0580331624	 0.5212162248	-0.241821
C	-1.4411164155	-0.5979416466	 0.0145101829	-0.066685
C	-1.9063965264	-0.2704881054	 1.4639695757	-0.227109
C	 0.8352465638	-0.4489538296	-1.1352748074	 0.095096
O	 1.3775837905	 0.3443658129	-1.8695923887	-0.279966
H	 0.5227401744	 1.6877359573	-0.6656531266	 0.28935
H	 1.3005948021	-1.3575452743	 1.2905689119	 0.098342
H	 0.7953634312	 0.1570163182	 2.0702516934	 0.122476
H	-0.8332835861	-1.8436772526	 2.7975781382	 0.065972
H	-0.5160748552	-2.7080248814	 0.033309051	 0.089852
H	-2.2020205537	-2.5833537731	 0.6085277732	 0.105537
H	-2.04046495	-0.3492992223	-0.8613235196	 0.071882
H	-2.9244353024	-0.6184505707	 1.6525941213	 0.098318
H	-1.7746791183	 0.7526310006	 1.8195145936	 0.118789
H	 0.9296437785	-1.5398226707	-1.2997724252	 0.097088
99.4072	171.5402	254.6999	330.0304	374.2614	419.993	432.0772	477.723	495.3569	532.3146	706.9869	820.2574	832.0486	846.7132	853.4886	868.7926	905.805	935.5788	954.1793	1001.3562	1023.3999	1034.1453	1050.1641	1059.3846	1087.4608	1110.9271	1141.635	1164.6688	1227.7195	1238.0266	1245.3591	1262.256	1282.8249	1295.702	1325.2329	1391.1863	1441.6204	1485.7954	1489.7455	1525.0469	1800.5574	2943.7205	3049.0772	3055.82	3072.0036	3112.9701	3115.0607	3117.4007	3120.9778	3136.8836	3680.4193
OC1(CC2CC1C2)C=O	O[C@]1(C[C@@H]2C[C@H]1C2)C=O	
InChI=1S/C7H10O2/c8-4-7(9)3-5-1-6(7)2-5/h4-6,9H,1-3H2	InChI=1S/C7H10O2/c8-4-7(9)3-5-1-6(7)2-5/h4-6,9H,1-3H2/t5-,6+,7-/m1/s1
