16
gdb 52591	2.5702	1.00754	0.79975	4.3053	77.8	-0.2677	0.0139	0.2816	1450.4811	0.121885	-400.705104	-400.695383	-400.694438	-400.742113	32.652	
C	-0.0675530867	 1.4335683291	-0.1463210225	-0.499314
C	-0.0286991661	-0.0182899632	-0.0571664058	 0.094417
C	-0.0074154777	-1.2181527168	 0.0166856092	 0.090113
C	 0.0508117258	-2.6796734725	 0.0848846263	-0.369662
C	-1.2976635334	-3.2693661743	 0.135929372	 0.314114
N	-2.3430839523	-3.7558169183	 0.1966153756	-0.33306
C	 0.8808107164	-3.2591088143	-1.0712876851	 0.095262
C	 0.6217434168	-4.573705966	-1.6661543998	-0.192369
O	 0.2532016953	-3.358007098	-2.3331659351	-0.213366
H	 0.9433741999	 1.8539477487	-0.1720963247	 0.15441
H	-0.5886921513	 1.7573426942	-1.0532209055	 0.160761
H	-0.5886436371	 1.8669258406	 0.7138118176	 0.157695
H	 0.5586992489	-2.9743379118	 1.0159557981	 0.156785
H	 1.8936388049	-2.8561948965	-1.0867839856	 0.114213
H	 1.4449416765	-5.1231591316	-2.1189063484	 0.125021
H	-0.21228977	-5.1737367092	-1.3097278762	 0.144982
16.1879	59.8586	83.3073	123.6209	148.9765	242.6027	273.4156	364.2409	368.7358	389.6093	474.8506	543.8048	653.0137	774.4148	822.6214	901.9324	916.5927	967.1466	1052.1527	1053.0352	1086.8494	1098.3552	1165.1002	1169.2143	1179.4804	1266.3401	1293.727	1317.5102	1413.1283	1420.1725	1474.9273	1476.5721	1526.7401	2367.0436	2382.7923	2998.9846	3033.7354	3097.2918	3097.3883	3099.4106	3114.6481	3191.9234
CC#CC(C#N)C1CO1	CC#C[C@@H](C#N)[C@H]1CO1	
InChI=1S/C7H7NO/c1-2-3-6(4-8)7-5-9-7/h6-7H,5H2,1H3	InChI=1S/C7H7NO/c1-2-3-6(4-8)7-5-9-7/h6-7H,5H2,1H3/t6-,7+/m0/s1
