18
gdb 30829	2.39891	1.27063	0.87869	1.8421	76.41	-0.1649	0.0651	0.23	1317.1189	0.146267	-439.118701	-439.108722	-439.107778	-439.153797	35.885	
C	 0.2647269214	 1.5937519265	-0.1740530938	-0.362405
C	-0.0563961992	 0.1062094969	 0.0658363607	-0.304431
C	 0.6068652014	-0.4836153863	 1.2645097546	 0.210628
C	 0.1015171889	-0.862439937	 2.482230568	 0.264725
O	-1.2201532554	-0.7394225625	 2.8225347281	-0.456465
C	 1.162613979	-1.358564437	 3.3070315204	-0.440154
C	 2.3019649244	-1.2580654701	 2.5418356638	 0.391394
O	 3.6028818722	-1.5750560012	 2.7707956591	-0.436798
N	 1.9832723491	-0.7310486984	 1.3321691054	-0.356778
H	 1.3390994921	 1.7521847863	-0.3192459893	 0.10348
H	-0.2502377873	 1.9686605685	-1.0649926596	 0.106545
H	-0.0446283433	 2.198787635	 0.6832464317	 0.124467
H	-1.1357876778	-0.0153391246	 0.2010414341	 0.124519
H	 0.2042693253	-0.4660322667	-0.836856974	 0.092579
H	-1.3832686543	-1.2757464362	 3.6029334604	 0.292805
H	 1.0928221267	-1.7248082385	 4.3201839445	 0.079287
H	 3.6743621679	-1.9300080444	 3.6615639599	 0.306004
H	 2.644030389	-0.5895850602	 0.5886023861	 0.260599
51.8096	113.3808	129.9161	188.5474	200.3033	224.145	269.845	278.8792	308.7843	371.3255	430.4251	523.2127	596.9663	627.5268	656.225	670.4484	700.7604	774.0546	810.5167	961.7003	1032.6456	1059.5491	1077.0635	1109.9825	1176.8955	1192.0691	1240.8107	1256.7898	1326.2301	1351.7669	1363.2808	1406.4305	1475.0836	1480.8768	1496.042	1504.8139	1545.4709	1599.7983	1687.1493	2993.4741	3029.5315	3075.8736	3097.8603	3112.1149	3236.7047	3687.269	3847.611	3851.8234
CCC1=C(O)C=C(O)N1	CCc1c(O)cc(O)[nH]1	
InChI=1S/C6H9NO2/c1-2-4-5(8)3-6(9)7-4/h3,7-9H,2H2,1H3	InChI=1S/C6H9NO2/c1-2-4-5(8)3-6(9)7-4/h3,7-9H,2H2,1H3
