19
gdb 131803	5.43569	0.63663	0.61507	2.9411	77.85	-0.233	0.0262	0.2591	1798.0915	0.160765	-419.222618	-419.213433	-419.212489	-419.258419	32.623	
O	-0.0066842306	 1.4598470694	-0.1503068775	-0.421622
C	 0.0600654009	 0.0472459225	-0.0279832855	-0.072121
C	-1.3632708728	-0.4934441871	-0.0342181849	-0.152748
C	-1.4171432639	-2.026286787	 0.093215334	-0.342458
C	-2.8136980021	-2.5752398291	 0.0709817605	 0.222225
C	-3.5695957543	-3.0258034821	 1.1358377291	-0.131796
N	-4.7714551849	-3.4009301566	 0.6319246698	-0.176355
N	-4.862438481	-3.2308540266	-0.6993917199	-0.224599
C	-3.6789246732	-2.7296412722	-1.0403257284	-0.078601
H	 0.8909630363	 1.8043796233	-0.1543153344	 0.284656
H	 0.6310831286	-0.3989165545	-0.8595361383	 0.082678
H	 0.5667361463	-0.2486374846	 0.9061709194	 0.081113
H	-1.9221029006	-0.0319838447	 0.7878040473	 0.107621
H	-1.8557887712	-0.1773705208	-0.9608337559	 0.111022
H	-0.8334679207	-2.4739489992	-0.7219463364	 0.10594
H	-0.9209547658	-2.330451676	 1.023087341	 0.098624
H	-3.3433061996	-3.1077739623	 2.1877357054	 0.128279
H	-5.5574046758	-3.7829531959	 1.1292810948	 0.272977
H	-3.4775862457	-2.4969611664	-2.0766392899	 0.105163
25.9844	78.2727	90.4499	119.6591	247.8759	264.693	313.5921	328.4112	465.3702	506.7068	657.7845	695.7572	730.5927	756.0648	791.433	863.7945	887.2925	952.6706	1008.388	1023.0168	1035.469	1065.8714	1081.2299	1087.5883	1169.0614	1205.8658	1231.428	1244.5239	1290.1748	1304.512	1313.4298	1327.4115	1378.0386	1394.1445	1420.0071	1463.989	1485.4373	1494.2121	1500.5927	1528.1382	1613.6895	2952.6728	2976.7576	3015.5972	3042.3935	3049.3035	3088.1107	3236.0245	3255.2606	3678.6189	3830.2869
OCCCC1=CNN=C1	OCCCc1c[nH]nc1	
InChI=1S/C6H10N2O/c9-3-1-2-6-4-7-8-5-6/h4-5,9H,1-3H2,(H,7,8)	InChI=1S/C6H10N2O/c9-3-1-2-6-4-7-8-5-6/h4-5,9H,1-3H2,(H,7,8)
