19
gdb 72700	2.57879	2.03404	1.64506	0.7302	74.3	-0.2417	0.0623	0.304	908.4311	0.159974	-422.943508	-422.936453	-422.935509	-422.974314	29.969	
C	-0.1343308336	 1.4737421694	 0.0703555478	-0.444335
C	-0.0097368415	-0.0433911432	 0.0852937274	 0.373489
C	 1.2630398716	-0.4625336167	-0.7412241765	-0.200697
O	 2.0159022679	-0.4928653635	 0.5291815116	-0.36528
C	 0.7635571735	-0.7179346374	 1.1946423258	 0.393931
C	-0.1054012006	-0.3841761565	 2.4305991465	-0.34625
C	-1.0825543804	-1.2932567543	 1.5505243756	 0.085652
C	 0.1458390615	-2.1505612458	 1.228624379	-0.286125
O	-1.3079908176	-0.6349706924	 0.2642129441	-0.34425
H	 0.8417643278	 1.9439215846	 0.2212715248	 0.132332
H	-0.5237249723	 1.7945072458	-0.9022577583	 0.123647
H	-0.8275994681	 1.8292659476	 0.8347106968	 0.121355
H	 1.2387128351	-1.4480719732	-1.2137961646	 0.116101
H	 1.6731235924	 0.2855528815	-1.4231653172	 0.112833
H	 0.1470392964	-0.9015614711	 3.3575508228	 0.111999
H	-0.3641625522	 0.6568501255	 2.6206994704	 0.11227
H	-2.020889049	-1.6738835223	 1.9456390699	 0.094491
H	 0.0950008761	-2.739026623	 0.3124142514	 0.105129
H	 0.5263180028	-2.7398799251	 2.0645944526	 0.103706
195.857	250.6761	268.9092	347.0765	390.093	455.747	495.8605	529.4205	546.6433	591.818	715.8638	773.9198	802.2578	858.4944	869.4933	886.9935	925.9209	928.7987	945.075	958.5607	988.1266	1006.6648	1037.4378	1100.5924	1128.0258	1139.9327	1149.5126	1151.739	1190.7209	1217.1608	1227.0071	1244.1952	1286.8738	1298.1542	1333.3803	1400.8579	1473.9117	1485.9376	1497.1573	1506.6776	1521.4353	3039.8159	3056.3531	3079.7695	3089.8551	3106.2392	3122.3458	3133.28	3149.2716	3158.1369	3162.451
CC12COC11CC(C1)O2	C[C@@]12CO[C@]31C[C@H](C3)O2	
InChI=1S/C7H10O2/c1-6-4-8-7(6)2-5(3-7)9-6/h5H,2-4H2,1H3	InChI=1S/C7H10O2/c1-6-4-8-7(6)2-5(3-7)9-6/h5H,2-4H2,1H3/t5-,6-,7-/m1/s1
