19
gdb 63109	2.24556	1.64217	1.17283	1.1172	83.39	-0.2309	0.0308	0.2617	1117.9803	0.15666	-385.819662	-385.810526	-385.809582	-385.852803	35.176	
C	 0.0091349709	 1.5446433076	 0.0342275512	-0.469268
C	 0.0375128849	 0.0296470201	 0.0306717756	 0.237458
C	-1.1948546984	-0.6302615742	-0.5615003694	-0.463104
C	 1.3131120364	-0.7218428311	-0.1929541229	 0.013906
O	 2.4539706224	-0.0184965817	 0.2850273006	-0.283204
C	 1.9601003196	-0.0892595592	 1.6471800666	-0.146087
C	 0.6600202666	-0.766652749	 1.198270528	 0.056441
C	-0.0059710798	-1.7903376732	 1.9209995744	 0.193009
C	-0.564843595	-2.6422372372	 2.5634615006	-0.41988
H	 0.9835585622	 1.9666783022	 0.2861369283	 0.137736
H	-0.2610800633	 1.9142246074	-0.9612295271	 0.118879
H	-0.735008595	 1.9237476049	 0.7429229995	 0.119421
H	-1.3619310043	-0.2700143072	-1.5821807644	 0.118357
H	-1.1009102402	-1.719140584	-0.5925881758	 0.128795
H	-2.0855416741	-0.3964699644	 0.0312255074	 0.128397
H	 1.4678678743	-1.4954223113	-0.9381172601	 0.112114
H	 2.5893429328	-0.7528800247	 2.2482960642	 0.122031
H	 1.886765517	 0.8947924114	 2.1227754307	 0.110112
H	-1.0559605468	-3.3982765965	 3.1240612125	 0.184888
123.7775	142.3965	178.1106	216.2685	240.4463	275.0199	308.6355	354.4288	398.7146	470.7627	512.1692	561.2362	570.9109	602.8263	660.3983	679.1065	753.0076	902.5222	951.3561	971.2429	974.7937	992.2923	1012.0789	1051.2169	1063.4286	1104.5447	1147.9479	1162.9996	1213.2651	1241.7485	1313.1647	1325.9541	1405.9089	1418.0035	1429.6256	1481.4614	1487.2452	1500.2467	1510.8214	1522.541	2227.388	3032.379	3034.9202	3037.7128	3090.627	3091.2509	3098.0151	3114.6164	3134.0485	3169.3931	3502.6276
CC1(C)C2OCC12C#C	CC1(C)[C@H]2OC[C@@]12C#C	
InChI=1S/C8H10O/c1-4-8-5-9-6(8)7(8,2)3/h1,6H,5H2,2-3H3	InChI=1S/C8H10O/c1-4-8-5-9-6(8)7(8,2)3/h1,6H,5H2,2-3H3/t6-,8-/m1/s1
