14
gdb 108752	2.64099	1.34945	0.89806	3.9169	68.69	-0.2833	-0.0857	0.1976	1195.5809	0.100811	-473.875562	-473.867528	-473.866584	-473.908634	28.886	
O	 0.0101105583	 1.4038413683	 0.0071652505	-0.414197
C	-0.0010414068	-0.0077142246	 0.0025646147	-0.178364
C	-1.4138049424	-0.4731801582	 0.0121105634	 0.280687
C	-2.5502100151	 0.2341001642	 0.0229318842	-0.384012
C	-3.6874290657	-0.7096089984	 0.0289041338	 0.442678
O	-4.8652404822	-0.5244960669	 0.0384942824	-0.312596
O	-3.1480822333	-2.0062478909	 0.0209281034	-0.235375
C	-1.7755880581	-1.9050799287	 0.0106792713	 0.353669
N	-0.9664005337	-2.8738659226	 0.0016280476	-0.520714
H	 0.9249684725	 1.6990238393	 0.0009918739	 0.299913
H	 0.50041591	-0.4303819251	-0.8829942234	 0.131559
H	 0.5142981298	-0.4362739306	 0.8772424881	 0.13157
H	-2.6746529271	 1.3052792252	 0.0270668131	 0.161087
H	-1.4606320562	-3.7678217112	 0.0028041169	 0.244094
88.6396	158.7446	164.2281	178.8144	231.371	321.6905	373.7825	434.0264	575.4923	625.3305	670.1122	696.0273	767.42	831.8824	887.0151	894.5911	916.4507	1000.0942	1031.6315	1093.0098	1132.2624	1166.9363	1213.2781	1242.0593	1289.7798	1375.5902	1470.8614	1491.1298	1693.0985	1762.3902	1898.5331	2978.101	2997.0771	3273.8315	3482.8615	3842.8835
OCC1=CC(=O)OC1=N	OCC1=C(OC(=O)[CH]1)[NH]	
InChI=1S/C5H5NO3/c6-5-3(2-7)1-4(8)9-5/h1,6-7H,2H2	InChI=1S/C5H5NO3/c6-5-3(2-7)1-4(8)9-5/h1,6-7H,2H2
