17
gdb 128522	2.02722	1.82894	1.01471	1.9955	72.27	-0.1935	0.0457	0.2392	1149.7734	0.137114	-451.322119	-451.312632	-451.311688	-451.356161	34.283	
C	-0.1751740314	 1.4394268803	 0.0682285786	-0.257586
O	 0.1400233195	 0.0575304816	-0.1092930435	-0.297727
C	 0.7073249868	-0.5261335714	 0.9937965062	 0.123498
C	 2.0173615436	-0.9530461383	 1.1030159186	 0.304519
N	 3.0944108736	-0.8085920515	 0.2260102002	-0.612957
N	 2.1200514165	-1.539212618	 2.3190796889	-0.27312
N	 0.9453776288	-1.5085449147	 3.0293440085	-0.32254
C	 0.0933515291	-0.8974367252	 2.219185192	 0.295141
N	-1.2266655017	-0.6301229465	 2.590935973	-0.598006
H	 0.7305162069	 2.0304626517	 0.2559212717	 0.113973
H	-0.6450692562	 1.7764845907	-0.8589770613	 0.121442
H	-0.8684481368	 1.5822299197	 0.9053254377	 0.13459
H	 2.7706153153	-0.4033065857	-0.644975494	 0.25691
H	 3.5572377699	-1.6877825555	 0.0211538359	 0.249144
H	 2.9613298657	-1.8303265784	 2.7834609437	 0.265989
H	-1.4854956282	-1.157600232	 3.4160603063	 0.248831
H	-1.8797765514	-0.8162238969	 1.8395375676	 0.2479
80.8007	153.1334	168.8774	192.6768	211.803	237.2958	261.5087	269.8001	322.0279	411.4301	456.5555	558.2337	589.063	652.7547	707.8039	734.6135	785.6958	822.3589	828.3699	1035.7699	1060.3446	1091.5469	1142.0058	1181.8468	1191.6895	1215.4996	1289.9677	1356.5992	1458.2845	1476.861	1485.8373	1510.4987	1556.2753	1576.9745	1633.3486	1644.4594	1679.0766	3008.7893	3075.2928	3121.3038	3510.6644	3526.1347	3599.3465	3620.9648	3692.051
COC1=C(N)NN=C1N	COc1c(N)[nH]nc1N	
InChI=1S/C4H8N4O/c1-9-2-3(5)7-8-4(2)6/h1H3,(H5,5,6,7,8)	InChI=1S/C4H8N4O/c1-9-2-3(5)7-8-4(2)6/h1H3,(H5,5,6,7,8)
