25
gdb 59956	2.74594	0.80943	0.75718	2.5133	89.58	-0.2375	-0.0077	0.2298	1704.43	0.225269	-389.528741	-389.51693	-389.515986	-389.566683	42.279	
C	 0.1520897036	 1.5279498052	-0.0321842069	-0.382275
C	 0.034922899	 0.0006400909	 0.0727756805	 0.020955
C	 0.6517418726	-0.4972788914	 1.3878971629	-0.386594
C	-1.4192318854	-0.4923366971	-0.0389428534	-0.161364
C	-2.1653132157	-0.1516270963	-1.3421092983	-0.09984
C	-1.4707508843	-0.7139432601	-2.6008416957	-0.394069
C	-3.585638259	-0.7297330593	-1.3019217654	 0.394041
C	-4.6841331107	 0.1240209243	-1.9095707669	-0.481682
O	-3.8140707678	-1.8194236725	-0.8279141019	-0.313122
H	 1.1919751238	 1.8492551464	 0.0881926702	 0.110349
H	-0.1973036055	 1.9054152729	-0.9983153557	 0.110609
H	-0.4383965235	 2.0197586987	 0.750732422	 0.110271
H	 0.6149056843	-0.4408399356	-0.7487721643	 0.074195
H	 0.11962012	-0.0810990546	 2.2518091128	 0.111592
H	 0.6035489657	-1.5885460135	 1.4631399783	 0.112839
H	 1.702323002	-0.1994972596	 1.4707841167	 0.107281
H	-1.4483170883	-1.5801698736	 0.0845073791	 0.114769
H	-1.9898812941	-0.0812668633	 0.8058632726	 0.088219
H	-2.2479501975	 0.9359907028	-1.4550438483	 0.074319
H	-2.0571632312	-0.5170753813	-3.5045332941	 0.114122
H	-0.4863372291	-0.2611075008	-2.7445612277	 0.124253
H	-1.343629275	-1.7974043967	-2.5119479549	 0.134829
H	-4.3975044664	 0.4834098482	-2.9039096478	 0.13514
H	-5.614456102	-0.4422706898	-1.968480097	 0.139746
H	-4.8390926554	 1.0137055261	-1.2869315769	 0.14142
31.6012	51.9537	93.8953	130.217	156.9752	214.3471	224.7734	245.0642	249.4585	280.8652	300.2631	330.502	403.5041	420.8887	496.7987	594.9501	601.0935	771.2302	825.8099	853.912	896.6982	930.2264	954.4711	958.5883	969.6294	1004.8263	1037.0491	1049.5332	1123.9386	1146.786	1168.9968	1191.6621	1199.4059	1270.9962	1305.4038	1338.6685	1358.5198	1373.1106	1379.8915	1394.8064	1401.7502	1404.1723	1421.7949	1461.5624	1475.1141	1478.7373	1488.4339	1494.571	1500.4655	1502.4812	1505.5482	1510.443	1809.4495	3005.4812	3017.0182	3022.0114	3027.2506	3030.9596	3036.3301	3037.3058	3075.605	3086.5141	3092.9467	3093.7968	3098.0162	3100.4085	3102.8582	3118.9538	3150.1746
CC(C)CC(C)C(C)=O	CC(C)C[C@@H](C)C(=O)C	
InChI=1S/C8H16O/c1-6(2)5-7(3)8(4)9/h6-7H,5H2,1-4H3	InChI=1S/C8H16O/c1-6(2)5-7(3)8(4)9/h6-7H,5H2,1-4H3/t7-/m1/s1
