22
gdb 22458	2.57022	0.93161	0.78211	1.4844	81.75	-0.2522	0.0012	0.2535	1561.8083	0.191646	-441.445874	-441.434945	-441.434	-441.48205	39.831	
C	-0.088149189	 1.5299424273	-0.0373613893	-0.390745
C	 0.1237182398	 0.0145127497	 0.0337131819	-0.173758
C	 0.7610169428	-0.6008477714	-1.2391700608	-0.053752
C	 2.1921221906	-0.1056564983	-1.4735807324	-0.393002
C	 0.6532332736	-2.1101095175	-1.1714266196	 0.328629
C	-0.7192435802	-2.7625950015	-1.266804787	-0.134988
O	-0.8154288726	-3.6611145807	-2.3556424512	-0.420362
N	 1.7324024604	-2.7807983302	-1.0418327846	-0.177938
O	 1.4744047305	-4.1734388851	-0.9561330984	-0.418193
H	 0.8572159837	 2.0724808172	-0.1267229828	 0.123444
H	-0.7120183579	 1.8021581947	-0.8961701601	 0.116147
H	-0.5900905746	 1.8921142327	 0.8651646318	 0.115627
H	 0.7601445788	-0.2356658997	 0.8920120894	 0.106245
H	-0.8444562843	-0.4647177231	 0.2233052622	 0.102693
H	 0.140512424	-0.2914370869	-2.0943574203	 0.088558
H	 2.838749973	-0.358341945	-0.6285613562	 0.126007
H	 2.6234751731	-0.5673180275	-2.3649852066	 0.123113
H	 2.2078298461	 0.978791211	-1.6093725712	 0.108574
H	-0.9432716569	-3.2580787734	-0.3086531253	 0.10933
H	-1.4833398955	-1.9973912935	-1.4278822374	 0.108492
H	-0.1229831842	-4.3178107172	-2.210461845	 0.296163
H	 2.3622903588	-4.5418417116	-0.9088696272	 0.309715
58.5072	77.2938	102.3062	166.4582	214.2187	219.4529	255.9168	282.4016	289.3541	313.7525	357.9702	406.0511	427.4473	469.4608	516.6449	582.7293	718.2266	776.3948	810.7407	862.8585	937.3143	966.3725	973.6779	994.1402	1036.7484	1072.9701	1107.4889	1127.875	1161.7296	1204.0381	1256.0794	1283.6375	1320.0967	1358.5711	1368.6675	1374.2437	1396.6703	1409.8565	1415.9492	1458.8616	1482.0298	1490.4128	1492.1887	1496.6597	1504.5975	1509.0232	1722.6004	2978.0109	2989.0418	3023.816	3035.1791	3050.3058	3057.4407	3090.1263	3100.8205	3111.4904	3121.7637	3125.2223	3778.1907	3830.6521
CCC(C)C(CO)=NO	CC[C@@H](C)C(=NO)CO	
InChI=1S/C6H13NO2/c1-3-5(2)6(4-8)7-9/h5,8-9H,3-4H2,1-2H3	InChI=1S/C6H13NO2/c1-3-5(2)6(4-8)7-9/h5,8-9H,3-4H2,1-2H3/t5-/m1/s1
