20
gdb 83927	2.47257	1.42681	1.20048	3.2665	79.72	-0.2336	-0.0215	0.2122	1135.5415	0.171221	-403.14818	-403.139413	-403.138469	-403.181695	32.756	
C	-0.0185584087	 1.6232341434	 0.0403973827	-0.4304
C	 0.0446780053	 0.1124604516	 0.0916732407	-0.031184
N	 1.1969572304	-0.7051785228	-0.2727051829	-0.149698
C	 2.5029676916	-0.0244946337	-0.3640976337	-0.157345
C	 2.8679041062	 0.5979496707	 1.0123676868	-0.233188
C	 1.8149757619	 0.0527164284	 2.0115328041	-0.305913
C	 0.7762765775	-0.6577701878	 1.1595353305	 0.216261
C	 0.1507489395	-1.9015926823	 1.6820022506	 0.097707
O	 0.2559295111	-2.293378171	 2.8185319856	-0.265782
H	 0.8163423016	 2.1185375527	 0.5364404257	 0.129332
H	-0.0461765309	 1.9646765893	-1.0004806625	 0.13244
H	-0.9411124074	 1.9643708332	 0.5207552831	 0.1324
H	-0.8787870614	-0.3466317312	-0.2644488558	 0.094744
H	 3.2321909088	-0.78659838	-0.6539724475	 0.116686
H	 2.4771562597	 0.719531366	-1.1667845187	 0.110517
H	 3.8821053121	 0.3200210555	 1.3107917923	 0.109866
H	 2.8465589642	 1.6897492213	 0.9696252828	 0.11044
H	 2.2407140889	-0.6748748309	 2.7067698786	 0.131215
H	 1.3775955276	 0.8491079457	 2.6208237024	 0.112407
H	-0.439646358	-2.459739478	 0.9216922853	 0.079495
90.9251	113.1198	157.2255	190.4924	214.6207	256.5585	276.9201	430.2618	473.7543	533.5927	658.9811	696.6469	722.508	756.5849	783.9206	834.9208	898.0357	910.4058	992.4491	1013.4885	1025.2407	1035.4345	1044.9629	1101.2824	1147.1184	1168.7465	1197.3268	1237.4566	1247.9969	1282.6631	1303.1798	1321.0252	1351.8936	1359.1209	1411.7037	1419.9429	1434.1848	1486.5332	1492.2074	1504.7956	1506.874	1522.8542	1814.1034	2889.0301	3041.8936	3048.7838	3059.2279	3068.9747	3079.567	3088.1313	3097.2286	3098.3644	3114.6378	3149.3611
CC1N2CCCC12C=O	C[C@H]1N2CCC[C@@]12C=O	
InChI=1S/C7H11NO/c1-6-7(5-9)3-2-4-8(6)7/h5-6H,2-4H2,1H3	InChI=1S/C7H11NO/c1-6-7(5-9)3-2-4-8(6)7/h5-6H,2-4H2,1H3/t6-,7-,8?/m1/s1
