17
gdb 26980	3.18374	1.24309	0.95878	1.319	80.54	-0.187	0.0492	0.2363	1208.3757	0.136412	-380.868416	-380.859541	-380.858597	-380.90214	33.459	
N	-0.0391328203	 1.2816937464	-0.5117072996	-0.619433
C	-0.0760976911	-0.0855986451	-0.1642447283	 0.183814
C	-1.1031047441	-1.0044307186	-0.0486642763	 0.241084
C	-2.580827677	-0.7279956646	-0.1912903412	-0.473291
C	-2.9317358877	 0.0841026901	-1.3577407613	 0.306557
C	-3.2127467108	 0.7648090688	-2.3092956902	-0.463848
C	-0.5066929365	-2.2591799493	 0.2738276983	-0.2518
C	 0.8520037565	-2.0710978606	 0.3542793559	-0.090617
N	 1.100624466	-0.7489322368	 0.0810508234	-0.25234
H	-0.81793417	 1.5039092244	-1.1238182218	 0.251635
H	-0.1087816971	 1.8872422377	 0.3016740168	 0.238699
H	-3.1158727558	-1.6831920526	-0.2553107861	 0.138413
H	-2.9756912951	-0.2311550294	 0.7075364001	 0.133317
H	-3.4751085951	 1.3448776109	-3.1590638482	 0.196476
H	-1.028936058	-3.1905808646	 0.4360536481	 0.08784
H	 1.6527835012	-2.7557477494	 0.5805402139	 0.115223
H	 2.0033796049	-0.3169284272	-0.0160203934	 0.258271
47.5299	119.065	177.6268	233.4593	253.7937	288.952	330.4075	428.4926	453.4718	507.4084	612.7334	627.3306	638.8714	652.084	688.6335	710.1244	758.3127	816.1951	851.6769	912.2717	930.6003	952.3227	1072.7601	1098.7198	1165.1507	1200.4713	1240.6707	1263.4546	1306.7032	1348.9958	1429.7753	1463.1491	1500.3401	1509.5111	1620.896	1664.1315	2228.9335	2991.9172	3048.5114	3236.9197	3271.8122	3481.2154	3503.8458	3561.0558	3677.5616
NC1=C(CC#C)C=CN1	Nc1c(CC#C)cc[nH]1	
InChI=1S/C7H8N2/c1-2-3-6-4-5-9-7(6)8/h1,4-5,9H,3,8H2	InChI=1S/C7H8N2/c1-2-3-6-4-5-9-7(6)8/h1,4-5,9H,3,8H2
