18
gdb 7650	4.71106	1.28943	1.09343	1.8617	68.35	-0.2325	-0.0154	0.2171	1111.7841	0.151288	-384.949364	-384.940499	-384.939555	-384.984069	31.115	
C	-0.2073634148	 1.5234777885	 0.3460837289	-0.398098
C	 0.5137972348	 0.1923112228	 0.3509289902	 0.168995
C	 0.3435382322	-0.7355024703	-0.8747960612	-0.306941
C	 1.8651425202	-0.5744739891	-1.0324397704	 0.049824
O	 1.939587447	 0.3384767608	 0.0837844888	-0.311955
C	 2.7085977997	-1.8365350287	-0.8517532804	 0.343582
C	 3.9895185896	-1.6787187587	-0.063624678	-0.474067
O	 2.351719025	-2.8817356955	-1.3452859431	-0.29764
H	-0.075267688	 2.0342589091	-0.6128927829	 0.120435
H	-1.2792286068	 1.3758970016	 0.5184974656	 0.1193
H	 0.1799276501	 2.172409399	 1.1377356333	 0.128649
H	 0.363782844	-0.3176662448	 1.3120946152	 0.080624
H	 0.014373093	-1.755980389	-0.6797020803	 0.129013
H	-0.2508207426	-0.3092406019	-1.6845365022	 0.110807
H	 2.1972653502	-0.0932526957	-1.9652155256	 0.102251
H	 3.7603437174	-1.314499475	 0.941965081	 0.156174
H	 4.520128443	-2.6302585052	-0.0203664996	 0.137112
H	 4.6246237761	-0.9146945479	-0.5270515593	 0.141935
31.7365	57.0435	116.0492	170.4549	234.5839	253.127	333.4884	426.8292	430.1526	522.2116	591.7252	714.6257	758.4451	882.7572	890.1407	913.1612	947.4787	975.4961	1022.9454	1041.4165	1086.2141	1098.8986	1136.8393	1198.5882	1209.7928	1254.177	1262.5211	1321.9914	1343.7208	1378.1529	1389.4806	1411.0738	1457.8222	1465.8659	1483.0333	1492.0894	1498.5746	1810.9892	2987.4762	3010.0911	3033.2759	3042.7887	3087.2035	3106.0943	3107.9851	3112.685	3147.3656	3159.0657
CC1CC(O1)C(C)=O	C[C@H]1C[C@@H](O1)C(=O)C	
InChI=1S/C6H10O2/c1-4-3-6(8-4)5(2)7/h4,6H,3H2,1-2H3	InChI=1S/C6H10O2/c1-4-3-6(8-4)5(2)7/h4,6H,3H2,1-2H3/t4-,6+/m0/s1
