21
gdb 41474	3.02011	1.65217	1.33728	1.1864	81.29	-0.2305	0.0829	0.3134	1035.2166	0.185339	-387.078362	-387.071052	-387.070108	-387.109952	30.132	
C	 0.2250041817	 1.5805565082	 0.3911679466	-0.226591
C	 1.6560562325	 1.564031156	-0.2359290208	-0.316584
C	 1.4446956036	 0.098638696	-0.606411783	 0.471512
O	 1.9642608108	-0.3633646226	-1.8167547745	-0.295298
C	 1.9030285689	-1.7878516143	-1.7846887004	-0.103117
C	 2.2133751179	-2.1830373313	-0.326957222	-0.237049
C	 1.6324885073	-1.0125021021	 0.479867875	-0.080962
C	 0.0947209222	-1.0152218796	 0.747842941	-0.249234
C	-0.0861583306	 0.1780513951	-0.2183488282	-0.094273
H	 0.2136010579	 1.5942946899	 1.484715149	 0.097461
H	-0.4170129065	 2.3879801432	 0.034433312	 0.104013
H	 1.7129717196	 2.1853553668	-1.1339355392	 0.11094
H	 2.5061965907	 1.8015083241	 0.4106457245	 0.092989
H	 0.8991405291	-2.1315668842	-2.0789091456	 0.093907
H	 2.6219952162	-2.1731747225	-2.511864503	 0.107764
H	 1.7843017364	-3.152480143	-0.0572520862	 0.100208
H	 3.2964440773	-2.2402295221	-0.1815889347	 0.106722
H	 2.2517091137	-0.7513510956	 1.3408672354	 0.066193
H	-0.3929373088	-1.931959037	 0.4003295205	 0.093183
H	-0.2075923606	-0.8426739056	 1.7852038094	 0.094367
H	-0.8965638094	 0.1428953205	-0.9476332359	 0.06385
96.8975	194.0476	219.8743	327.2161	373.3379	426.8766	467.6917	607.7609	648.2768	702.0674	760.312	791.1411	817.5686	862.8693	870.5885	901.7977	920.2596	938.6906	960.9475	1007.8793	1019.979	1032.6399	1067.1459	1074.0529	1102.2108	1138.3146	1160.8332	1186.0539	1211.0162	1219.7909	1222.3772	1240.2656	1255.2536	1276.3467	1277.9916	1293.6517	1311.0873	1318.3279	1341.7908	1390.7015	1474.3265	1480.3899	1485.3981	1495.7858	1518.395	2984.3147	3039.3833	3049.2712	3050.1286	3059.706	3075.5174	3090.2068	3093.1445	3095.5625	3102.2507	3104.1178	3120.4851
C1CC23OCCC2CC13	C1C[C@@]23OCC[C@@H]2C[C@@H]13	
InChI=1S/C8H12O/c1-3-8-6(1)5-7(8)2-4-9-8/h6-7H,1-5H2	InChI=1S/C8H12O/c1-3-8-6(1)5-7(8)2-4-9-8/h6-7H,1-5H2/t6-,7-,8+/m1/s1
