20
gdb 71767	3.15529	1.82466	1.6016	1.5047	80.45	-0.2178	0.0905	0.3083	933.094	0.174313	-366.010045	-366.00325	-366.002306	-366.040662	29.021	
C	-0.0236340905	 1.5178646411	-0.0078963679	-0.474781
C	-0.0527512116	 0.0122449991	-0.0922399966	 0.32272
C	 0.8670018938	-0.6851215033	-1.0915509817	-0.289826
C	 0.3326903629	-2.1056243959	-1.1933723971	-0.066623
C	 0.0932060535	-2.8087808228	 0.1184340074	-0.071134
C	 0.3927234215	-1.974680519	 1.3536589264	-0.180227
N	-0.3003894722	-0.685635	 1.1882364892	-0.154804
C	-1.284004671	-0.8230747342	 0.0882716148	-0.104584
C	-1.0674351299	-2.1515274934	-0.6042492805	-0.071017
H	 0.9689521829	 1.8743366267	 0.2916514182	 0.115918
H	-0.2661615474	 1.972017522	-0.9752374455	 0.110666
H	-0.7421335555	 1.8714910123	 0.7355667499	 0.126748
H	 0.8068552831	-0.1763147434	-2.060953351	 0.100623
H	 1.9178433541	-0.6481220448	-0.7749112595	 0.101032
H	 0.5886854083	-2.7055998252	-2.0596598261	 0.081279
H	 0.1869774592	-3.888739331	 0.1605223611	 0.082202
H	 0.0059217769	-2.4593772792	 2.2572980247	 0.104664
H	 1.4645350174	-1.8004004573	 1.5066098126	 0.103363
H	-2.2797424792	-0.4215158392	 0.243074778	 0.081007
H	-1.8849936566	-2.7050477926	-1.0457369465	 0.082774
189.1555	233.3192	292.6921	309.9755	433.8297	454.9847	564.8135	659.4458	707.2017	712.0672	751.366	768.8342	791.1388	809.9167	893.4976	931.1562	935.6554	960.6184	983.1142	1004.4371	1013.6373	1028.0693	1055.0091	1062.6891	1093.1603	1107.0023	1113.0081	1128.0678	1209.0437	1220.5634	1237.5309	1266.4612	1301.3083	1307.0111	1333.3818	1339.9826	1382.795	1413.6223	1429.8417	1485.7434	1486.8743	1494.5788	1507.7403	3019.2471	3027.4509	3031.1939	3056.3224	3065.1766	3086.5901	3120.5435	3161.1111	3164.6285	3170.96	3207.1932
CC12CC3C4CN1C2C34	C[C@@]12C[C@H]3[C@H]4CN1[C@@H]2[C@@H]34	
InChI=1S/C8H11N/c1-8-2-4-5-3-9(8)7(8)6(4)5/h4-7H,2-3H2,1H3	InChI=1S/C8H11N/c1-8-2-4-5-3-9(8)7(8)6(4)5/h4-7H,2-3H2,1H3/t4-,5+,6-,7+,8-,9?/m0/s1
