17
gdb 50743	2.80172	1.36297	0.9819	4.8797	69.37	-0.2417	-0.0349	0.2069	1174.6856	0.134849	-458.986591	-458.978114	-458.977169	-459.02064	30.479	
O	-0.8081506764	 0.9973456282	 0.4987441437	-0.235308
C	 0.1780952855	 0.8127916843	-0.1581713334	 0.160073
C	 1.4010478436	 1.7206944419	-0.1193827159	-0.077686
O	 2.5379737894	 0.9016666182	-0.3405149632	-0.263216
C	 3.7634560739	 1.6220144106	-0.3530693032	-0.069511
C	 3.8028783164	 2.6081622106	-1.5169162831	-0.214155
C	 2.6037435612	 3.5716741707	-1.4382501113	-0.310276
C	 1.3002101312	 2.8316328447	-1.1918419357	 0.37574
O	 0.2675501466	 3.0809696994	-1.7617802672	-0.285043
H	 0.2881630924	-0.0435218985	-0.8568841972	 0.097692
H	 1.4418036675	 2.2071710365	 0.8706033086	 0.10924
H	 3.9020469994	 2.1480300361	 0.6065525142	 0.095891
H	 4.550656917	 0.868890044	-0.4418909552	 0.120876
H	 4.7443428917	 3.1679453271	-1.5089689355	 0.110882
H	 3.7638485467	 2.0456656153	-2.4562939698	 0.123421
H	 2.743189114	 4.2523428415	-0.5853669587	 0.129662
H	 2.4931897399	 4.1853136494	-2.3353018371	 0.131717
58.9341	64.9114	138.21	203.9864	271.8207	322.0627	373.7917	421.3812	497.297	527.0117	547.6894	653.9667	782.8786	836.4787	873.3899	926.9083	967.1671	1014.3215	1047.2316	1066.9575	1110.1431	1132.2622	1159.9502	1209.395	1242.7976	1278.2308	1296.0087	1320.0911	1343.4711	1373.2353	1402.4415	1410.0486	1461.22	1485.3377	1500.8154	1815.1591	1857.8991	2914.2567	2965.0705	2969.9541	3012.6567	3042.2192	3086.7729	3097.4592	3108.5276
O=CC1OCCCC1=O	O=C[C@H]1OCCCC1=O	
InChI=1S/C6H8O3/c7-4-6-5(8)2-1-3-9-6/h4,6H,1-3H2	InChI=1S/C6H8O3/c7-4-6-5(8)2-1-3-9-6/h4,6H,1-3H2/t6-/m1/s1
