16
gdb 22796	2.76891	1.47627	1.03074	3.534	77.23	-0.2335	-0.0683	0.1653	1123.8158	0.124875	-437.872735	-437.864842	-437.863898	-437.90541	29.894	
O	 0.0031312405	 1.3439843027	-0.0634593375	-0.356178
N	 0.0348766001	-0.0370528539	-0.0372643221	-0.186529
C	-1.1145637025	-0.6022234488	 0.01132413	 0.266996
C	-1.1239296893	-2.1106160945	 0.0434212705	-0.296909
C	-1.9831563803	-2.6418509871	 1.2023209279	-0.265984
C	-3.2967729082	-1.9200743421	 1.2944046964	-0.057681
C	-3.5153848517	-0.7149118268	 0.7521520457	-0.135435
C	-2.4649008491	 0.0718332385	 0.0645565414	 0.314923
O	-2.6905760564	 1.1738085048	-0.3926425384	-0.314515
H	 0.9414337418	 1.5659810528	-0.0548283029	 0.311509
H	-1.5544403008	-2.4791129913	-0.8979639414	 0.121864
H	-0.0965090547	-2.4768291072	 0.1008902658	 0.124058
H	-2.156088795	-3.7173168019	 1.0821567841	 0.117758
H	-1.4477060643	-2.5314960404	 2.1570538062	 0.133205
H	-4.0971864347	-2.4141624412	 1.8410315372	 0.110971
H	-4.4770233854	-0.2170413337	 0.829095487	 0.111946
61.9379	149.5243	228.7456	286.9303	330.2491	354.5595	427.3951	439.7115	485.7975	524.6819	621.7178	681.8215	688.8768	743.725	862.5376	886.7921	930.5102	1001.7526	1022.2086	1032.4976	1050.7412	1135.2377	1171.0887	1193.5633	1246.7126	1289.7838	1342.6925	1366.5097	1406.5298	1421.8826	1468.9076	1480.8243	1681.8992	1692.7237	1770.5562	3004.9859	3018.0437	3060.4515	3107.5435	3152.1766	3189.204	3799.7043
ON=C1CCC=CC1=O	ON=C1CCC=CC1=O	
InChI=1S/C6H7NO2/c8-6-4-2-1-3-5(6)7-9/h2,4,9H,1,3H2	InChI=1S/C6H7NO2/c8-6-4-2-1-3-5(6)7-9/h2,4,9H,1,3H2
