13
gdb 129323	2.69376	1.78837	1.13009	2.4276	74.76	-0.2679	-0.1165	0.1514	991.3186	0.088554	-448.858248	-448.850648	-448.849704	-448.890819	27.748	
N	 0.1024340736	 1.0344533635	-0.831491835	-0.491874
C	-0.0252704769	 0.1455725559	 0.0668257879	 0.319511
O	 0.8386069654	-0.0255266396	 1.0829013927	-0.322595
N	 1.5008549365	-1.5061227161	 1.2630789002	-0.017411
N	 0.7556800037	-2.3657626278	 1.6159383976	 0.007034
C	-0.6287764897	-2.3839140175	 1.8153446568	-0.012996
C	-1.5301415395	-1.6674637658	 1.1269313688	-0.038707
C	-1.3032929057	-0.6609617197	 0.083519179	 0.207525
N	-2.2560604122	-0.460617193	-0.7430120002	-0.45177
H	 0.9950939081	 1.518939432	-0.7293742933	 0.239567
H	-0.9314597808	-3.1672221426	 2.4982247412	 0.15387
H	-2.5772553691	-1.9083118804	 1.2840324668	 0.150966
H	-1.9540340834	 0.2621535211	-1.4083217825	 0.256882
63.3465	113.7799	216.1014	300.5982	313.2132	395.7705	427.181	463.1881	561.2004	618.3961	682.9118	737.7957	768.9858	822.2194	868.1223	898.7178	953.7154	993.2275	1014.4092	1078.0699	1110.6158	1251.789	1302.2909	1387.8245	1435.8768	1642.9849	1667.0809	1689.7765	1786.664	3188.0318	3224.641	3401.3375	3491.038
N=C1ON=NC=CC1=N	[NH]C1=C(C=CN=NO1)[NH]	
InChI=1S/C4H4N4O/c5-3-1-2-7-8-9-4(3)6/h1-2,5-6H	InChI=1S/C4H4N4O/c5-3-1-2-7-8-9-4(3)6/h1-2,5-6H
