12
gdb 130519	4.00619	1.80534	1.24451	1.8969	71.47	-0.2554	-0.1193	0.136	888.3723	0.080162	-431.647625	-431.641852	-431.640908	-431.677719	22.664	
O	-0.0967775845	 1.3180672957	 0.010266556	-0.244911
N	 1.0897926752	 2.0546788171	 0.0026255496	-0.081444
C	 2.1955016583	 1.3680521801	-0.0118599795	 0.088292
N	 2.4072076139	 0.0091325767	-0.0212177207	-0.313634
C	 1.307724304	-0.6767019593	-0.0141307021	 0.365652
N	 1.1486940108	-2.0293436026	-0.0199284615	-0.323038
C	-0.1717827753	-2.1862486858	-0.0077196619	 0.012978
C	-0.9671788452	-0.9809216631	 0.0064697487	-0.32626
C	-0.0219043733	-0.003933266	 0.0024614901	 0.393402
H	 3.0795415039	 1.9981078873	-0.0171371319	 0.158225
H	-0.5928583927	-3.1870034409	-0.0090429089	 0.136597
H	-2.0416730551	-0.9033068592	 0.0173722422	 0.134141
208.7081	244.0426	356.0044	474.5048	550.3268	561.2045	606.6254	637.1474	750.5672	787.3218	803.8555	851.8293	915.1547	939.1019	955.2585	980.6247	1008.2086	1114.6168	1227.5358	1262.8129	1327.2031	1336.3913	1364.2797	1421.9627	1530.629	1630.5002	1677.8866	3194.0918	3196.2117	3272.519
O1N=CN=C2N=CC=C12	o1ncnc2nccc12	
InChI=1S/C5H3N3O/c1-2-6-5-4(1)9-8-3-7-5/h1-3H	InChI=1S/C5H3N3O/c1-2-6-5-4(1)9-8-3-7-5/h1-3H
