21
gdb 99899	2.25798	1.32811	1.03044	1.6372	84.31	-0.2585	0.0391	0.2976	1275.4004	0.179332	-387.040493	-387.030229	-387.029285	-387.075252	38.792	
C	-0.1705922159	 1.5092177046	 0.0086595822	-0.390741
C	-0.0351807657	-0.0091948055	-0.1140033629	-0.213678
C	 0.7948748246	-0.4794346736	-1.3343749509	 0.104268
O	 0.2296245763	 0.0290950088	-2.5485768008	-0.454437
C	 2.1631407186	 0.0520666037	-1.257025076	 0.405735
C	 3.29093336	 0.4530490728	-1.1539039154	-0.494326
C	 0.8658393212	-2.0129125548	-1.3588003405	 0.019312
C	-0.195762022	-2.8348803553	-2.0457371891	-0.293824
C	 1.1948085732	-2.7442751687	-2.6271925472	-0.263248
H	 0.8068330264	 1.9761267261	 0.1577280029	 0.133591
H	-0.6085692345	 1.9398911985	-0.8959591853	 0.120042
H	-0.8086292787	 1.7720184391	 0.8575140478	 0.109536
H	 0.4213022625	-0.4238557823	 0.7915416616	 0.107801
H	-1.0251416653	-0.4780880584	-0.2009145249	 0.092433
H	-0.722828077	-0.107239207	-2.495388974	 0.28358
H	 4.2872038979	 0.8131688355	-1.0780045918	 0.196515
H	 1.2726391742	-2.4265027868	-0.4407012745	 0.089763
H	-0.510305187	-3.7576597919	-1.5711176968	 0.11167
H	-0.986740783	-2.3229725257	-2.5832494648	 0.096733
H	 1.3098455939	-2.1406661641	-3.5198468684	 0.130383
H	 1.8436283703	-3.6107189052	-2.5705937413	 0.108893
78.287	112.6761	145.548	158.6707	188.856	225.6577	269.3034	308.6363	325.7942	388.8498	425.1569	481.5162	546.5418	604.9211	623.8362	665.6218	692.7328	786.9354	795.7003	827.8371	891.529	919.6869	975.0456	988.8392	1020.1312	1059.8433	1072.2663	1086.3578	1093.9275	1137.8327	1138.5618	1191.3723	1197.7898	1232.6187	1280.8655	1360.5191	1368.0282	1399.7986	1412.5631	1460.22	1482.6987	1492.6085	1502.618	1510.0674	2237.9064	3016.0931	3046.6119	3067.8003	3115.7165	3123.6822	3132.0398	3142.3126	3152.0021	3211.7863	3234.4986	3501.2501	3807.144
CCC(O)(C#C)C1CC1	CC[C@@](O)(C#C)C1CC1	
InChI=1S/C8H12O/c1-3-8(9,4-2)7-5-6-7/h1,7,9H,4-6H2,2H3	InChI=1S/C8H12O/c1-3-8(9,4-2)7-5-6-7/h1,7,9H,4-6H2,2H3/t8-/m0/s1
