14
gdb 17164	4.39502	1.92565	1.58469	3.7731	62.79	-0.2364	-0.0357	0.2007	789.1503	0.107792	-378.600726	-378.594466	-378.593521	-378.631315	23.769	
O	 0.0322520672	-0.0435046303	-0.0230009948	-0.25161
C	 0.1012867743	 1.1550149635	-0.1376090557	 0.023622
C	 1.3736071769	 1.9177489888	-0.0770931908	 0.289647
N	 2.7419378996	 1.3301716278	-0.032851619	-0.373607
C	 2.9850164151	 2.8060334465	 0.0514158176	-0.04022
C	 1.8419099916	 3.1166904715	-0.9692853291	-0.051615
N	 1.1274739443	 4.1238824664	-0.1231235505	-0.347295
C	 1.6867239695	 3.1500136279	 0.8649344819	-0.08152
H	-0.7990453556	 1.791178967	-0.276372257	 0.099278
H	 2.9066956911	 0.8761030373	 0.8682660265	 0.220693
H	 3.98009414	 3.2496132486	 0.1193162051	 0.092174
H	 1.8839099565	 3.1469362156	-2.0576572276	 0.106491
H	 1.6546347845	 5.0004783231	-0.0954851347	 0.216588
H	 1.5340620251	 3.2220643564	 1.9438149983	 0.097373
105.3556	163.2659	281.2206	374.1664	489.6284	563.4715	688.9049	714.3325	801.9293	822.438	829.1442	894.5322	910.1763	951.1343	1004.1879	1016.0569	1071.4214	1088.5828	1092.2764	1110.0107	1153.3199	1183.9948	1207.9911	1252.7246	1276.9819	1293.9633	1315.2786	1350.0366	1420.8752	1814.8684	2907.0726	3095.8515	3106.9205	3131.4883	3406.6608	3424.764
O=CC12NC3C1NC23	O=C[C@@]12N[C@H]3[C@@H]1N[C@@H]23	
InChI=1S/C5H6N2O/c8-1-5-3-2(7-5)4(5)6-3/h1-4,6-7H	InChI=1S/C5H6N2O/c8-1-5-3-2(7-5)4(5)6-3/h1-4,6-7H/t2-,3-,4+,5+
