20
gdb 101552	2.18073	0.96574	0.90295	2.3822	77.94	-0.2492	-0.0745	0.1748	1462.7649	0.168514	-440.335273	-440.324756	-440.323812	-440.372234	36.795	
C	-0.1084550846	 1.4657500129	 0.2680305489	-0.384575
C	-0.095118119	-0.0630177999	 0.2095397614	-0.172421
C	-1.4825239251	-0.6953595459	 0.0089511537	 0.039603
C	-1.3989502646	-2.215682903	-0.1757337754	-0.394336
N	-2.3693040471	-0.3631693367	 1.1201664798	-0.302012
C	-3.5771778163	 0.2219267449	 0.9817068036	 0.302731
O	-4.1079400344	 0.5825349454	-0.0553357709	-0.365358
C	-4.2981660507	 0.4241909214	 2.3190839296	 0.100875
O	-3.8451944026	 0.0848412165	 3.3821966541	-0.249489
H	 0.9023194593	 1.8607072213	 0.4059242557	 0.116301
H	-0.5129937201	 1.8926024541	-0.655762233	 0.125653
H	-0.7248066174	 1.8263493019	 1.0969542023	 0.120534
H	 0.5472293926	-0.3982330469	-0.6133072636	 0.104523
H	 0.3515815291	-0.4712972779	 1.1272461881	 0.093463
H	-1.9572177115	-0.2520891047	-0.872168006	 0.121888
H	-2.3924500964	-2.6428023591	-0.3359746301	 0.129273
H	-0.7741136959	-2.4629957537	-1.0393155883	 0.122616
H	-0.9582501349	-2.6956105589	 0.7057795634	 0.114599
H	-2.1075805916	-0.6118087994	 2.0655400367	 0.259171
H	-5.2843508291	 0.9150459378	 2.2012647799	 0.116961
24.899	59.8412	118.5747	142.2729	173.4061	210.3527	230.8016	238.6005	302.0774	377.1057	424.824	478.7467	516.8399	579.6889	648.7239	670.532	789.1271	845.5092	905.6446	971.7159	993.7092	1018.9369	1026.2711	1056.1979	1127.5276	1179.9797	1185.41	1248.0324	1300.5632	1331.5277	1361.8438	1381.8381	1386.9848	1409.5221	1416.0697	1481.2065	1492.5095	1496.005	1499.0104	1507.6003	1552.3471	1781.5739	1822.1188	2955.7953	3011.4826	3032.9952	3039.7574	3057.2281	3075.3004	3104.5975	3108.3469	3113.6602	3120.5466	3583.4351
CCC(C)NC(=O)C=O	CC[C@@H](C)NC(=O)C=O	
InChI=1S/C6H11NO2/c1-3-5(2)7-6(9)4-8/h4-5H,3H2,1-2H3,(H,7,9)	InChI=1S/C6H11NO2/c1-3-5(2)7-6(9)4-8/h4-5H,3H2,1-2H3,(H,7,9)/t5-/m1/s1
