16
gdb 55350	2.3968	1.90925	1.24611	5.5079	63.74	-0.2635	0.0046	0.2682	980.7586	0.126992	-475.045705	-475.038621	-475.037677	-475.077643	27.329	
O	 0.2596765038	 0.1046071205	-0.021847702	-0.342124
C	-0.0998777074	 1.2088119051	 0.270063324	 0.428324
O	 0.6440371797	 2.0491996231	 1.0305245313	-0.23113
C	-1.4080384916	 1.8803576716	-0.1264510554	-0.186633
C	-2.6251562831	 1.4763816282	 0.7477482513	-0.175214
N	-2.3777129009	 2.668183613	 1.6105864707	-0.330494
H	-3.1890464538	 3.2507288476	 1.7777109527	 0.237032
H	-0.8709897978	 3.1160987398	 2.9274636927	 0.288576
C	-1.399381917	 3.2143586176	 0.6335577002	-0.077481
C	 0.0014865847	 3.3325268953	 1.2835923097	 0.217639
O	-0.0696182953	 3.5856085456	 2.6278835174	-0.387602
H	-1.5450945053	 1.8550304665	-1.2058189991	 0.117436
H	-3.5672773715	 1.5222930432	 0.1921083511	 0.114802
H	-2.5635965061	 0.5180246948	 1.2704158306	 0.135434
H	-1.7024137111	 4.1247435755	 0.1125683261	 0.086398
H	 0.6396947028	 4.0903726027	 0.8228162186	 0.105039
96.1131	110.0889	239.36	301.0073	403.2246	507.6637	539.5444	620.0419	651.979	700.9113	724.2486	780.5089	804.8316	831.1396	916.8248	949.6896	978.5118	999.0667	1015.3482	1043.9196	1087.0013	1137.35	1159.6925	1191.5744	1206.5028	1243.5555	1270.8517	1298.7047	1330.1167	1347.6416	1380.9152	1388.1948	1482.3543	1519.3201	1873.9901	3044.1001	3082.5129	3095.8318	3098.0472	3137.9142	3554.0031	3598.7804
[O-]C(=O)C1C[NH2+]C1C=O	O=C1O[C@@H]([C@H]2[C@@H]1CN2)O	
InChI=1S/C5H7NO3/c7-2-4-3(1-6-4)5(8)9/h2-4,6H,1H2,(H,8,9)	InChI=1S/C5H7NO3/c7-4-2-1-6-3(2)5(8)9-4/h2-3,5-6,8H,1H2/t2-,3+,5-/m0/s1
