18
gdb 19020	4.54291	1.64239	1.62951	1.7802	70.68	-0.2426	0.0676	0.3102	884.8099	0.154888	-347.741904	-347.735144	-347.734199	-347.772473	27.089	
C	-0.0573362326	 1.4325313145	 0.0344522751	-0.428147
C	 0.0592148842	-0.0762082362	-0.0281921546	-0.007142
C	 0.7679406867	-0.6601451511	-1.2206876423	-0.084845
C	 1.4228688737	-0.6715400774	 0.1772127987	-0.068586
C	 1.3591161725	-2.2136337726	 0.1670465756	 0.09998
O	 0.1648557767	-2.8275740284	 0.719951766	-0.299622
C	-0.4292545865	-2.9551363685	-0.5998324824	-0.10879
C	 0.7535132263	-2.2067642023	-1.2472917035	-0.079074
H	 0.8257624885	 1.9188428676	-0.3938784152	 0.11446
H	-0.9331236943	 1.7833899977	-0.5218587646	 0.11862
H	-0.1574797641	 1.7764355128	 1.0693484324	 0.121577
H	-0.7842074681	-0.6088477084	 0.4006922979	 0.101822
H	 1.0148772868	-0.0420156326	-2.0762106243	 0.08375
H	 2.2514579013	-0.0846181719	 0.5572634848	 0.078926
H	 2.2733582326	-2.7443638687	 0.4431296533	 0.076549
H	-0.5081047229	-4.0092098286	-0.8940135869	 0.100154
H	-1.419826534	-2.4891640568	-0.6596220054	 0.101952
H	 1.2555867831	-2.6654537491	-2.0975122545	 0.078418
192.0136	206.9582	234.1919	261.924	363.3442	433.1499	556.9155	698.9748	762.0686	766.9834	836.1585	867.3771	873.7045	917.6103	931.0744	970.7228	983.3701	1007.8412	1012.9705	1043.5317	1053.2363	1088.7044	1114.9719	1146.5416	1160.2033	1187.1304	1201.6487	1218.5986	1268.7696	1285.3334	1294.2362	1332.2407	1351.1347	1418.0449	1427.7298	1495.7765	1503.4656	1517.79	3013.9365	3028.9587	3059.6612	3079.755	3094.4389	3095.9244	3125.1166	3156.8968	3167.8644	3178.8305
CC1C2C1C1OCC21	C[C@H]1[C@H]2[C@@H]1[C@H]1OC[C@@H]21	
InChI=1S/C7H10O/c1-3-5-4-2-8-7(4)6(3)5/h3-7H,2H2,1H3	InChI=1S/C7H10O/c1-3-5-4-2-8-7(4)6(3)5/h3-7H,2H2,1H3/t3-,4-,5+,6+,7-/m0/s1
