18
gdb 98348	3.81549	0.81822	0.73958	1.1662	70.28	-0.2599	-0.0451	0.2148	1517.8395	0.145077	-476.263712	-476.25356	-476.252616	-476.300394	35.119	
C	-0.1082235552	 1.5769862211	-0.0078563871	-0.408228
C	-0.0109811053	 0.0360029444	 0.010781862	-0.055783
N	 0.6786468138	-0.4519416845	 1.1875601649	-0.279597
C	 2.0279494391	-0.3919666389	 1.3072603027	 0.15477
O	 2.7684278636	 0.1292822211	 0.4972064946	-0.331417
C	-1.3869067917	-0.6147689014	-0.0386607048	 0.348962
O	-1.8152340455	-1.2741909069	 0.8878590917	-0.335862
C	-2.243747772	-0.4440086873	-1.2835177485	-0.129016
O	-3.4656685205	-1.1060017444	-1.157805379	-0.418338
H	 0.9026042583	 1.9814835229	 0.064747601	 0.167639
H	-0.5580752613	 1.9369652562	-0.93685649	 0.127542
H	-0.7003856814	 1.9386053834	 0.8377288345	 0.129961
H	 0.5514635745	-0.2728064475	-0.8805449109	 0.129061
H	 0.1203664259	-0.9723310998	 1.8493034726	 0.263824
H	 2.3866571447	-0.8705396571	 2.2390227233	 0.0863
H	-2.3960092614	 0.63056897	-1.468043108	 0.128542
H	-1.6651765788	-0.8238876061	-2.1428472342	 0.124877
H	-3.4412244868	-1.5353807852	-0.2886825149	 0.296763
26.0687	52.9338	97.851	146.8227	209.5758	236.6853	248.5102	294.1662	334.6455	370.5052	403.4486	467.672	546.9551	597.8775	664.0815	792.457	875.3671	896.9123	953.7611	1033.5817	1035.7164	1080.5129	1103.6134	1143.2515	1165.0713	1226.1051	1253.7482	1301.6635	1325.9004	1364.0706	1401.1646	1423.5966	1450.2998	1477.4112	1490.9867	1507.2074	1517.8709	1778.865	1796.9624	2949.293	2972.2596	3003.6114	3028.2415	3050.5785	3126.6266	3147.8941	3605.3515	3703.5026
CC(NC=O)C(=O)CO	C[C@@H](NC=O)C(=O)CO	
InChI=1S/C5H9NO3/c1-4(6-3-8)5(9)2-7/h3-4,7H,2H2,1H3,(H,6,8)	InChI=1S/C5H9NO3/c1-4(6-3-8)5(9)2-7/h3-4,7H,2H2,1H3,(H,6,8)/t4-/m1/s1
