13
gdb 127367	3.59461	1.79676	1.2071	7.563	64.73	-0.2658	-0.0304	0.2354	933.4497	0.092081	-445.066046	-445.059305	-445.058361	-445.097809	24.151	
C	 0.0102007953	 1.4785279078	-0.0006706091	-0.345864
N	-0.012057789	 0.0266488048	 0.0247593489	-0.166399
C	-0.1350699857	-0.8453670002	-1.0378213624	 0.046065
N	-0.123807339	-2.1124854691	-0.7042288084	-0.240407
N	 0.0146794532	-2.0381884256	 0.652748548	 0.100797
N	 0.1041893804	-2.8997286546	 1.6888461467	-0.150727
N	 0.2234598922	-2.1287443517	 2.7333174511	-0.100158
N	 0.2171420331	-0.7898792992	 2.4358648376	-0.365099
C	 0.0848313814	-0.7818221492	 1.1257947504	 0.55292
H	 0.952177523	 1.8507883737	 0.4097869822	 0.171833
H	-0.0875594405	 1.8114009532	-1.034814959	 0.155487
H	-0.8186307956	 1.8811787385	 0.5869655565	 0.171793
H	-0.2317359788	-0.4973995384	-2.0548519825	 0.169758
68.3562	149.2276	246.7966	249.9682	369.4153	527.5794	626.0144	629.461	696.5352	733.8485	765.372	850.6935	856.4513	979.7503	1062.7895	1080.0961	1144.9473	1157.7581	1215.2566	1248.2341	1321.1083	1333.1586	1381.5125	1460.8442	1474.5794	1478.398	1514.7102	1560.6867	1629.2567	3056.0097	3126.751	3153.5052	3269.6305
CN1C=NN2N=NN=C12	Cn1cnn2nnnc12	
InChI=1S/C3H4N6/c1-8-2-4-9-3(8)5-6-7-9/h2H,1H3	InChI=1S/C3H4N6/c1-8-2-4-9-3(8)5-6-7-9/h2H,1H3
