13
gdb 125118	2.36385	1.92286	1.06728	4.1294	65.32	-0.2681	-0.0984	0.1697	1021.944	0.087423	-489.876831	-489.868884	-489.867939	-489.90979	28.556	
C	-0.0259564223	 1.5454422388	 0.0213386877	-0.491153
C	-0.0347238844	 0.0490088673	 0.0235063961	-0.030129
C	-1.1418819688	-0.7226100873	-0.1009452266	 0.418464
O	-2.3708275127	-0.2114399114	-0.2419775376	-0.396202
N	-1.1113308372	-2.1111224274	-0.0945265376	-0.224535
N	-0.0530441442	-2.7530942637	 0.0273559997	 0.070051
O	 1.1416180236	-2.0552360407	 0.1619327708	-0.249475
C	 1.2246032693	-0.648965096	 0.1684086971	 0.446796
O	 2.3132718291	-0.16058795	 0.291361092	-0.326048
H	 0.6075017272	 1.9191764175	-0.7897711949	 0.15831
H	-1.0329350533	 1.94626805	-0.0944371918	 0.14764
H	 0.4086044756	 1.9228764158	 0.9527633785	 0.158306
H	-2.9893397419	-0.9522454128	-0.3108711034	 0.317976
73.087	110.1383	160.359	263.1106	272.685	355.1296	489.7468	489.9761	510.0249	533.4973	547.1779	662.2188	713.2799	776.1633	818.1939	916.6787	925.0713	1049.5817	1055.2016	1110.0364	1289.8716	1296.6343	1388.5212	1418.679	1475.4032	1479.1906	1560.6301	1715.7531	1849.7662	3045.8323	3097.9726	3155.3074	3769.1994
CC1=C(O)N=NOC1=O	C[C]1C(=N[N]OC1=O)O	
InChI=1S/C4H4N2O3/c1-2-3(7)5-6-9-4(2)8/h7H,1H3	InChI=1S/C4H4N2O3/c1-2-3(7)5-6-9-4(2)8/h7H,1H3
