20
gdb 55802	3.99498	0.94493	0.87257	3.3599	79.96	-0.2435	0.0348	0.2783	1382.6789	0.171792	-403.131639	-403.122874	-403.12193	-403.167389	32.793	
N	 0.0579095371	 1.2256028217	 0.2540852905	-0.524313
C	 0.1671569957	-0.0939082558	-0.0860320439	 0.42317
O	 1.2431284242	-0.621394495	-0.2901368058	-0.35938
C	-1.1656880214	-0.8392114836	-0.1966510075	-0.396079
C	-0.9945244733	-2.3318700398	 0.0480530009	 0.09692
C	-0.9773288228	-2.935354711	 1.4914829417	-0.042662
C	-2.5223263746	-2.743723452	 1.5498500734	-0.225263
C	-2.219806681	-3.2980037816	 0.1258469947	-0.074083
C	-1.260816397	-4.3100051364	 0.8190457343	-0.215508
H	 0.8923282623	 1.7891804251	 0.2355798897	 0.258444
H	-0.8317738172	 1.6857740537	 0.3319177614	 0.256012
H	-1.9054686565	-0.3808854062	 0.4662634848	 0.099096
H	-1.531776611	-0.6818149073	-1.2213943393	 0.127063
H	-0.1764404968	-2.6934963373	-0.5799114764	 0.088432
H	-0.2535284977	-2.7275325505	 2.2807330072	 0.073323
H	-3.0648644382	-3.4143644604	 2.2221704931	 0.088402
H	-2.9117749342	-1.727084886	 1.6313672704	 0.084509
H	-2.9407230853	-3.5117857305	-0.6660148804	 0.063275
H	-0.4609757294	-4.7308453124	 0.2039770287	 0.092694
H	-1.7309044728	-5.0712514346	 1.4472258224	 0.08595
11.2493	54.7704	131.1888	168.4432	301.3267	312.0687	369.1935	503.9245	560.429	582.9341	622.4076	659.2486	763.2137	790.5553	837.8667	853.1586	900.3568	903.3666	907.1244	974.8738	1008.0921	1025.3661	1030.6422	1073.3411	1088.1797	1107.985	1115.4909	1144.3919	1160.8743	1188.0351	1209.814	1216.5512	1240.4695	1253.2041	1275.195	1283.5859	1371.2583	1436.7888	1460.4638	1504.4412	1543.396	1616.4243	1797.6231	3016.0308	3050.3097	3056.196	3072.6722	3086.7232	3090.5316	3105.2137	3116.3564	3118.0772	3599.7917	3736.9571
NC(=O)CC1C2CC1C2	NC(=O)C[C@H]1[C@H]2C[C@@H]1C2	
InChI=1S/C7H11NO/c8-7(9)3-6-4-1-5(6)2-4/h4-6H,1-3H2,(H2,8,9)	InChI=1S/C7H11NO/c8-7(9)3-6-4-1-5(6)2-4/h4-6H,1-3H2,(H2,8,9)/t4-,5+,6-
