17
gdb 71842	2.49187	1.77551	1.55437	1.846	72.68	-0.2104	0.016	0.2264	936.2114	0.136038	-421.785097	-421.777604	-421.77666	-421.816354	30.711	
O	-0.1833983582	 1.3787863872	-0.0513289328	-0.464137
C	-0.0512106478	 0.0079081247	-0.0797483109	 0.345078
C	 0.7535206371	-0.796515852	-1.0862676224	-0.289807
C	-0.1690888266	-2.0409233264	-0.7536791692	-0.171045
C	 0.4709526613	-2.8179685944	 0.3690308288	-0.102303
C	 0.4311849434	-2.080739136	 1.4880839584	-0.083302
C	-0.3329792479	-0.833818348	 1.2336848843	-0.244751
C	-1.1391081632	-1.009721267	-0.0393523401	 0.337341
O	-2.4896340252	-0.8545844155	-0.2154535115	-0.456105
H	 0.5930393819	 1.7513535848	 0.3814782264	 0.28724
H	 0.5565661849	-0.4249606686	-2.0946468671	 0.114356
H	 1.8289890729	-0.9302438872	-0.9313792266	 0.088216
H	-0.5395494088	-2.5953942706	-1.6147708892	 0.074471
H	 0.9819900499	-3.763243763	 0.2361456648	 0.093943
H	 0.889589305	-2.3246064073	 2.4386965176	 0.093749
H	-0.7510184772	-0.2197765354	 2.0236512767	 0.087222
H	-2.9440966915	-1.5278103954	 0.3045702627	 0.289836
198.8813	220.8711	260.749	304.2097	334.4879	364.0502	381.0044	500.2345	538.7609	581.5021	663.3096	689.3451	750.6649	781.7989	810.6862	852.5255	891.9033	922.801	940.3776	955.6993	1015.6264	1031.044	1052.4754	1100.9856	1124.1252	1148.6101	1171.4387	1219.2489	1234.9984	1267.6358	1294.0861	1309.1983	1338.7075	1359.8259	1474.7986	1536.6686	1631.734	3045.2526	3111.3072	3124.4929	3183.0095	3197.4314	3221.4226	3782.693	3793.1415
OC12CC3C=CC1C23O	O[C@@]12C[C@H]3C=C[C@@H]1[C@@]23O	
InChI=1S/C7H8O2/c8-6-3-4-1-2-5(6)7(4,6)9/h1-2,4-5,8-9H,3H2	InChI=1S/C7H8O2/c8-6-3-4-1-2-5(6)7(4,6)9/h1-2,4-5,8-9H,3H2/t4-,5+,6+,7-/m1/s1
