21
gdb 40960	3.25706	1.33063	1.18815	0.212	78.39	-0.2306	0.0892	0.3198	1134.5145	0.184419	-424.215762	-424.207873	-424.206929	-424.247966	31.573	
C	 0.1466004973	 1.3767096533	-0.548190465	-0.22012
C	 1.4311798133	 1.6119760343	 0.2945169599	-0.287351
C	 1.3201587693	 0.1639709446	 0.8141069672	 0.420816
C	-0.1588376	 0.1239412505	 0.3188729249	-0.27591
C	 2.2374938295	-0.821261523	 0.0930848985	-0.128272
O	 2.0198005836	-2.1484939953	 0.5445129387	-0.254109
C	 2.2384857457	-2.2419132886	 1.9436134212	-0.077844
C	 1.3335197893	-1.2666277822	 2.686768759	-0.096354
O	 1.5304160348	 0.0591925105	 2.2143219738	-0.304021
H	-0.5988543854	 2.1738128177	-0.5459777131	 0.103143
H	 0.3708983267	 1.1204509777	-1.5868210594	 0.105071
H	 2.3515801365	 1.8868570807	-0.2287028351	 0.095494
H	 1.2659850952	 2.3129508596	 1.1162164507	 0.114354
H	-0.8403134762	 0.3556816849	 1.1416709597	 0.105831
H	-0.4970382118	-0.7839457219	-0.1850625129	 0.105311
H	 2.0520384945	-0.8221257421	-0.9852172898	 0.105502
H	 3.285366955	-0.524489203	 0.2697553874	 0.088157
H	 2.0243894985	-3.2755008463	 2.2323074158	 0.106319
H	 3.2928395661	-2.0197701479	 2.1781593513	 0.092114
H	 0.2825289343	-1.5677794211	 2.5545310404	 0.09663
H	 1.5600853639	-1.2571002626	 3.7574433268	 0.105238
125.5871	131.4632	200.7233	283.6869	312.7389	385.4153	419.2724	469.8513	478.9585	580.1298	669.8826	734.578	794.7058	856.4668	871.8916	895.7865	922.2404	927.576	933.3198	984.1666	1004.7391	1042.7601	1109.2096	1115.2171	1136.4558	1149.168	1172.8486	1197.3981	1205.5155	1247.4073	1255.2094	1272.3208	1283.7586	1299.5725	1308.1381	1332.3	1379.2851	1405.7975	1418.7682	1469.8189	1478.8988	1483.6257	1487.395	1492.1545	1506.1068	2962.9192	2971.7441	2988.4064	3056.7607	3062.7186	3068.6749	3083.4208	3083.8798	3086.2824	3106.6182	3117.6368	3129.3719
C1CC2(C1)COCCO2	C1CC2(C1)COCCO2	
InChI=1S/C7H12O2/c1-2-7(3-1)6-8-4-5-9-7/h1-6H2	InChI=1S/C7H12O2/c1-2-7(3-1)6-8-4-5-9-7/h1-6H2
