18
gdb 126471	4.99192	0.90497	0.80479	3.0038	76.34	-0.2279	0.0157	0.2436	1464.0065	0.147874	-435.285525	-435.276191	-435.275247	-435.320436	32.677	
C	-0.2330596009	 1.4805255692	 0.1217873804	-0.376703
C	 0.1548233629	 0.001871061	-0.0305180212	-0.289627
C	 0.8550595222	-0.5308195984	 1.1776140501	 0.373348
N	 2.0761154918	-0.9939745704	 1.112860397	-0.205186
O	 2.3401049343	-1.3811264623	 2.46282075	-0.220232
C	 1.230277576	-1.0837334071	 3.1459047495	 0.532046
N	 1.2168022482	-1.3126945447	 4.4756931841	-0.392393
C	 2.2246894331	-2.1186926486	 5.1428781688	-0.332926
N	 0.2714738636	-0.5632883939	 2.421904562	-0.41681
H	 0.6558630676	 2.107506579	 0.2400078038	 0.125147
H	-0.7784050613	 1.8259690987	-0.7611437958	 0.114504
H	-0.8683643601	 1.6237864942	 0.9995815169	 0.138639
H	-0.7484683556	-0.5977436203	-0.1941207852	 0.12135
H	 0.8060761654	-0.1431411935	-0.896711054	 0.12557
H	 0.3071845259	-1.2273496836	 4.8989137867	 0.268253
H	 3.2194754265	-1.7880615572	 4.8375714516	 0.16247
H	 2.129033546	-1.9759601766	 6.2208637962	 0.136974
H	 2.1326198744	-3.1891595557	 4.917197669	 0.135578
60.5375	81.2022	107.8162	147.8439	184.2056	226.9944	270.6203	351.1263	416.4288	453.6754	519.5041	645.0366	716.0141	753.8562	778.1161	806.4622	886.5931	976.0001	1011.5776	1030.3256	1081.4002	1100.7197	1104.9204	1154.6973	1189.1756	1278.5475	1342.4546	1372.0514	1402.6378	1423.93	1440.5957	1474.5029	1482.2077	1491.1426	1496.4353	1510.3891	1516.1683	1589.9831	1685.5241	3019.4377	3041.6685	3044.8325	3096.7048	3103.89	3115.365	3128.8627	3143.8566	3653.2235
CCC1=NOC(NC)=N1	CCc1noc(NC)n1	
InChI=1S/C5H9N3O/c1-3-4-7-5(6-2)9-8-4/h3H2,1-2H3,(H,6,7,8)	InChI=1S/C5H9N3O/c1-3-4-7-5(6-2)9-8-4/h3H2,1-2H3,(H,6,7,8)
