23
gdb 83947	2.19415	1.62421	1.38491	1.3936	84.49	-0.2309	0.0856	0.3166	1117.0948	0.207516	-388.284352	-388.275717	-388.274773	-388.316905	34.444	
C	-0.0655385031	 1.6242489649	 0.0686326336	-0.429781
C	 0.0620640867	 0.1112526105	-0.0069018753	 0.026883
C	 0.7888699177	-0.6077479214	-1.1919126481	-0.046941
C	 2.0723580915	 0.162132665	-1.5410637802	-0.243499
C	 3.0038974377	 0.2059877852	-0.3044884046	-0.067185
O	 2.3114533423	 0.1209613134	 0.9432041617	-0.281575
C	 1.0999625388	-0.6247088806	 0.8888748655	 0.112503
C	 1.1546527758	-1.7501091753	-0.1879335779	 0.009471
C	 0.1339715074	-2.8729268877	-0.0294377033	-0.433689
H	 0.9098745297	 2.1145526141	 0.112804511	 0.125322
H	-0.6120740343	 2.0211816266	-0.7945019941	 0.109011
H	-0.6161532217	 1.9175999696	 0.9692680831	 0.11241
H	-0.9228473464	-0.3429535992	 0.1335367635	 0.069765
H	 0.2029633424	-0.8582770478	-2.0812037298	 0.053205
H	 2.6043028973	-0.3277745332	-2.3648275067	 0.0961
H	 1.8198629379	 1.1717330627	-1.8819170916	 0.104251
H	 3.7303240693	-0.6160851586	-0.3658730075	 0.098075
H	 3.5785972417	 1.1366347302	-0.2709425788	 0.103935
H	 0.8454100815	-0.8756802581	 1.9224295902	 0.064594
H	 2.1439635942	-2.1967391894	-0.3271641589	 0.065961
H	-0.885365066	-2.5037624627	 0.1168816694	 0.118676
H	 0.126043707	-3.5138092861	-0.9179692569	 0.115528
H	 0.3822581525	-3.5039558721	 0.8311824556	 0.11698
171.7264	183.3647	193.3837	220.6491	240.6792	253.7325	287.8094	367.6842	452.9594	519.8726	560.6543	614.5976	741.2601	788.4061	829.2751	839.7696	863.3274	898.9237	937.2335	974.4184	1019.3907	1030.1281	1041.8	1056.5105	1073.313	1101.5254	1129.495	1141.5758	1164.2486	1177.7504	1225.0304	1234.201	1259.0575	1274.2533	1285.481	1317.0451	1344.1905	1351.0063	1379.2408	1395.6243	1407.2821	1413.8926	1416.2679	1488.2662	1494.7644	1499.2219	1499.2953	1510.87	1523.9915	2996.9787	3030.2873	3030.9596	3034.2675	3053.1656	3056.6842	3063.6366	3065.2932	3073.7749	3081.3938	3088.3032	3090.7859	3107.7513	3121.0634
CC1C2CCOC1C2C	C[C@H]1[C@H]2CCO[C@@H]1[C@H]2C	
InChI=1S/C8H14O/c1-5-7-3-4-9-8(5)6(7)2/h5-8H,3-4H2,1-2H3	InChI=1S/C8H14O/c1-5-7-3-4-9-8(5)6(7)2/h5-8H,3-4H2,1-2H3/t5-,6-,7-,8+/m0/s1
