13
gdb 50777	3.41432	0.69011	0.59041	1.4084	72.46	-0.2679	-0.1134	0.1545	1737.6256	0.084485	-456.55086	-456.541268	-456.540324	-456.588288	30.68	
O	-0.4147242405	 0.4547451892	 0.5661482893	-0.217945
C	 0.0456660531	 1.0171164323	-0.3865775684	 0.168108
C	 1.3634290595	 1.8075021466	-0.3297396962	-0.429094
C	 1.3486929568	 2.9768742463	-1.1855490649	 0.054411
C	 1.2800204832	 3.9349422621	-1.9170544765	 0.111759
C	 1.1943484779	 5.0653164383	-2.7996637302	 0.115935
O	 1.7951344976	 6.1089588912	-2.6543253298	-0.253729
C	 0.2631472353	 4.9136330616	-4.0134181976	 0.083489
O	-0.3745974687	 3.9256122582	-4.2518933002	-0.215376
H	-0.4340414637	 0.9944996009	-1.3870618824	 0.11692
H	 1.5818125097	 2.0558565497	 0.7136994458	 0.172465
H	 2.1556421127	 1.1220789198	-0.6686674448	 0.177118
H	 0.2531665072	 5.8284112039	-4.6417156541	 0.11594
22.7442	46.177	68.1405	121.4385	135.5521	170.4801	262.6336	367.8194	425.7048	475.1165	510.3479	605.6537	647.7835	706.7912	748.2169	1014.2118	1027.6334	1030.0561	1040.313	1202.1895	1244.4002	1287.3179	1362.3473	1410.8668	1428.4577	1754.6207	1831.783	1845.597	2332.0564	2925.1333	2935.5976	3009.1651	3088.0708
O=CCC#CC(=O)C=O	O=CCC#CC(=O)C=O	
InChI=1S/C6H4O3/c7-4-2-1-3-6(9)5-8/h4-5H,2H2	InChI=1S/C6H4O3/c7-4-2-1-3-6(9)5-8/h4-5H,2H2
