22
gdb 71298	2.51109	1.86088	1.37222	1.8469	84.25	-0.2211	0.0792	0.3003	1039.2816	0.197147	-367.187108	-367.179418	-367.178474	-367.218615	32.064	
C	-0.0140393617	 1.4709021982	 0.0574510077	-0.473379
C	 0.0266557564	-0.0494255976	-0.0120249319	 0.313754
C	 0.1732699946	-0.6295452877	-1.452584157	-0.202509
N	-1.1491470349	-1.3394171279	-1.3915318744	-0.161702
C	-1.1950087201	-2.1803773986	-0.1661147532	-0.001759
C	-0.057042289	-2.9506908681	 0.4840943295	-0.22724
C	 1.226457768	-2.1467625891	 0.7937235586	-0.230295
C	 0.962632909	-0.6551775465	 1.0462311166	-0.241971
C	-1.3589345321	-0.7247890333	-0.0171701865	-0.086945
H	 0.967896572	 1.9006411389	-0.1711268194	 0.113479
H	-0.73712478	 1.8827320961	-0.6545642385	 0.117956
H	-0.3004337363	 1.8116951775	 1.0595536707	 0.112839
H	 0.1110110982	 0.1475031443	-2.2190796388	 0.103503
H	 1.0274373794	-1.2723427312	-1.6819084783	 0.096542
H	-2.1252795075	-2.7454662356	-0.1771151693	 0.092025
H	-0.470630428	-3.3421465014	 1.4231131206	 0.106177
H	 0.1902815864	-3.8310759778	-0.1210923953	 0.105114
H	 1.7290903926	-2.5897591741	 1.6600414189	 0.093369
H	 1.9318224454	-2.2458379651	-0.0372806458	 0.10609
H	 1.9175692419	-0.1149634111	 1.0637537528	 0.090292
H	 0.5040701509	-0.508116604	 2.0340266242	 0.093437
H	-2.2900984154	-0.2392546858	 0.2626272989	 0.081221
145.3176	232.809	245.0976	285.7078	342.211	360.5237	378.6274	491.2711	514.3299	607.9415	654.2234	738.431	774.8612	811.4661	841.0801	866.0013	904.4853	915.2873	942.0351	967.6763	990.1291	1008.4161	1037.6651	1066.5802	1072.3064	1095.655	1147.0634	1165.7817	1185.1407	1230.6588	1238.7946	1251.9914	1273.7674	1296.0994	1301.7181	1340.0282	1363.5015	1379.2791	1388.358	1414.5054	1438.0028	1480.6199	1483.1553	1492.7483	1494.1071	1500.6501	1518.5777	3007.4765	3016.441	3021.1366	3036.014	3049.2605	3051.1398	3054.507	3078.3276	3085.651	3095.1594	3101.7323	3122.8759	3143.0071
CC12CN3C(CCC1)C23	C[C@@]12CN3[C@@H](CCC1)[C@@H]23	
InChI=1S/C8H13N/c1-8-4-2-3-6-7(8)9(6)5-8/h6-7H,2-5H2,1H3	InChI=1S/C8H13N/c1-8-4-2-3-6-7(8)9(6)5-8/h6-7H,2-5H2,1H3/t6-,7-,8-,9?/m0/s1
