15
gdb 131616	4.18494	1.00574	0.87039	2.457	62.36	-0.2664	-0.0398	0.2266	1264.855	0.112806	-491.069065	-491.060855	-491.059911	-491.102718	29.294	
O	 0.1222035013	 1.3864524655	 0.0680340005	-0.417782
C	 0.0639471868	-0.0114562261	 0.2069901132	-0.063442
C	-1.3794074885	-0.502815444	-0.0216008955	-0.011216
O	-1.8512427571	-0.0187315077	-1.2690774144	-0.435581
C	-1.4666303082	-1.993759521	 0.0767074724	 0.360621
N	-1.6886259856	-2.740164248	-0.9718450765	-0.191887
O	-1.6373152632	-4.0435474314	-0.4664783167	-0.151774
C	-1.3889111279	-3.9190440298	 0.837684374	 0.109282
N	-1.2688555223	-2.6972115807	 1.24765157	-0.307784
H	-0.3543019899	 1.5875831724	-0.7480531345	 0.290591
H	 0.7271922374	-0.5266735284	-0.5093601891	 0.084689
H	 0.3942756611	-0.26478364	 1.2186616566	 0.129178
H	-2.0161045767	-0.055876307	 0.7503394264	 0.125931
H	-1.6413000539	-0.6742232348	-1.9460635637	 0.30369
H	-1.3167151631	-4.8301371289	 1.4135384373	 0.175484
55.409	116.2428	123.2607	226.1975	284.5631	306.0751	366.0522	435.232	504.6971	527.2575	629.925	728.4241	820.3457	886.9236	908.6069	934.0232	987.1272	1024.0724	1070.9362	1088.9677	1109.7185	1146.5802	1211.3731	1239.8603	1305.6234	1309.6053	1363.1072	1383.8728	1430.6375	1439.8596	1503.8061	1519.4032	1596.4091	2957.6708	3058.9151	3092.9124	3268.2712	3769.9258	3784.1146
OCC(O)C1=NOC=N1	OC[C@@H](O)c1nocn1	
InChI=1S/C4H6N2O3/c7-1-3(8)4-5-2-9-6-4/h2-3,7-8H,1H2	InChI=1S/C4H6N2O3/c7-1-3(8)4-5-2-9-6-4/h2-3,7-8H,1H2/t3-/m1/s1
