20
gdb 40213	2.82086	1.48543	1.14244	2.2918	80.	-0.2373	0.0218	0.2591	1118.0819	0.172989	-403.141483	-403.133398	-403.132454	-403.174325	31.409	
C	 0.1278111325	 1.505703236	-0.0172595264	-0.328262
C	 1.3509461477	 0.6235391782	-0.0565282654	-0.295867
C	-0.0229331696	 0.0019973576	 0.0220662459	 0.367644
C	-0.4634077882	-0.6635706398	 1.3087120524	-0.302028
C	 0.1415131429	-2.0592835785	 1.5094568832	-0.144071
N	-0.1627502225	-3.106743874	 0.5509045305	-0.248897
C	-0.1862037342	-2.994998759	-0.7032173044	 0.119954
O	-0.0469109114	-1.9360534124	-1.5501133766	-0.229697
C	-0.5772302913	-0.6446369668	-1.2216380527	-0.142763
H	-0.0798119536	 2.055063108	 0.8946591835	 0.115119
H	-0.1547615735	 2.0317456572	-0.9233801119	 0.113024
H	 1.8971247724	 0.5425333707	-0.9900656327	 0.119776
H	 1.9783596846	 0.5831966771	 0.8276185886	 0.114938
H	-0.1749007533	-0.046768158	 2.1685724465	 0.094546
H	-1.5594710089	-0.7354571275	 1.3265124079	 0.100713
H	 1.2365914579	-1.9620922553	 1.5472206562	 0.11394
H	-0.1630523885	-2.4297157134	 2.4947199802	 0.104079
H	-0.2914324566	-3.9001463535	-1.3044245387	 0.113482
H	-1.6693359135	-0.7361637669	-1.1333739997	 0.10559
H	-0.356578533	-0.0382701598	-2.1038233767	 0.10878
59.3677	143.3008	188.1514	270.2672	317.2657	328.5179	406.9494	426.066	502.011	560.6104	703.5034	774.3446	787.0983	830.7939	873.4698	917.323	942.375	954.1124	963.8563	983.15	995.5071	1027.456	1050.1933	1061.4712	1078.8009	1100.3909	1155.0127	1186.8388	1205.0774	1272.0793	1291.7868	1342.7933	1367.9431	1372.2913	1399.2736	1430.1433	1436.447	1470.5529	1475.4492	1485.1498	1492.4084	1508.6323	1761.5163	3001.3857	3004.537	3013.4999	3053.6704	3058.471	3094.5754	3118.5089	3128.6737	3133.2421	3206.545	3220.5822
C1CC11CCN=COC1	C1CC21CCN=COC2	
InChI=1S/C7H11NO/c1-2-7(1)3-4-8-6-9-5-7/h6H,1-5H2	InChI=1S/C7H11NO/c1-2-7(1)3-4-8-6-9-5-7/h6H,1-5H2
