18
gdb 13764	3.12651	1.44452	1.18911	1.7222	74.14	-0.2597	0.0204	0.2802	1081.1694	0.150697	-347.75566	-347.746628	-347.745684	-347.789323	32.999	
C	 0.0007061647	 1.3792957496	-0.3129115473	-0.391928
C	 0.0756184215	-0.0425192353	 0.2617335923	-0.010058
C	 0.6851601667	-0.0623645745	 1.6706904503	-0.395924
C	-1.303045193	-0.6644482076	 0.2840261528	 0.091681
O	-1.8726167631	-1.058443252	-0.9618840719	-0.253352
C	-1.5610642673	-2.0927256761	-0.0107380595	-0.161451
C	-0.5104916856	-3.0162540293	-0.3471518728	 0.342754
C	 0.3470438777	-3.8193852398	-0.6026847219	-0.436054
H	 0.9985802717	 1.8238933927	-0.3801139008	 0.113312
H	-0.4396178017	 1.3717943664	-1.314048127	 0.132208
H	-0.6116307444	 2.0300073879	 0.3227539177	 0.111151
H	 0.6979318448	-0.6548742987	-0.4001712854	 0.094015
H	 0.0685457558	 0.506601643	 2.376586175	 0.113129
H	 0.7777052823	-1.0846756332	 2.0500620918	 0.123642
H	 1.6821971008	 0.3885273218	 1.6662361036	 0.117432
H	-2.0151213737	-0.1791706631	 0.9580726231	 0.090486
H	-2.4406193379	-2.5517264293	 0.4407295066	 0.115357
H	 1.1059195106	-4.5243105027	-0.8379504766	 0.2036
55.3611	108.933	174.6951	217.5753	234.5565	239.6915	299.7288	333.5359	419.5641	474.675	554.7763	609.7712	628.6805	669.3451	778.8538	838.015	880.1456	928.7059	955.5284	968.072	993.9129	1072.3424	1120.223	1158.8661	1183.0508	1207.1212	1280.4038	1315.6199	1345.5944	1385.8727	1396.1617	1416.6469	1460.6154	1488.0366	1491.0501	1503.6331	1512.9572	2238.0284	3027.5584	3030.7177	3049.9693	3068.9451	3093.4702	3100.8138	3109.6712	3109.8587	3114.6087	3502.4981
CC(C)C1OC1C#C	CC(C)[C@H]1O[C@H]1C#C	
InChI=1S/C7H10O/c1-4-6-7(8-6)5(2)3/h1,5-7H,2-3H3	InChI=1S/C7H10O/c1-4-6-7(8-6)5(2)3/h1,5-7H,2-3H3/t6-,7+/m0/s1
