19
gdb 42002	3.46086	1.38649	1.0475	1.0171	77.42	-0.2405	0.0114	0.2519	1131.5435	0.162086	-423.030497	-423.023089	-423.022145	-423.062432	28.947	
C	 0.0371927469	 1.5257529914	-0.0903945606	-0.102378
O	 1.4281859543	 1.8181103	-0.2026585555	-0.260912
C	 2.1626985282	 0.8750701835	 0.5789783823	-0.162241
C	 1.2047206461	-0.2604471335	 0.8539542734	 0.307018
C	 1.2593925259	-1.2330728547	 1.7552389308	-0.24214
C	 0.1008646653	-2.1785746754	 1.9454670823	-0.106317
O	-0.9547058339	-1.9923710939	 1.0211022455	-0.251397
C	-1.2347008444	-0.6295596195	 0.7328705019	-0.112451
C	-0.0354619284	-0.0021967966	 0.0291985593	-0.093294
H	-0.3967139116	 2.0058392699	 0.8033530659	 0.088241
H	-0.4570624724	 1.9322394028	-0.9764700641	 0.110943
H	 3.0414655936	 0.5686663062	-0.0024593218	 0.117161
H	 2.5219882066	 1.3349010173	 1.5120463077	 0.105645
H	 2.1093014196	-1.3606871378	 2.4215734863	 0.090179
H	 0.4214034817	-3.2210417166	 1.8271282578	 0.119934
H	-0.2725742084	-2.0794007503	 2.9818694997	 0.098108
H	-2.1313852226	-0.6353779985	 0.1069771443	 0.109275
H	-1.4622026975	-0.0711639947	 1.6562061488	 0.088285
H	 0.0695876509	-0.4437225599	-0.9705517142	 0.09634
102.8506	170.4261	230.14	284.6649	327.3843	345.077	455.1053	534.5084	591.477	663.9864	755.8886	794.2916	819.7982	900.1216	941.685	963.4199	985.1212	1023.9312	1026.2943	1065.8424	1079.3802	1093.1334	1118.3382	1150.258	1181.7042	1210.8951	1233.0667	1242.4496	1286.4033	1295.2282	1316.7715	1341.4918	1353.2048	1375.4267	1406.8722	1419.0428	1488.674	1499.501	1506.4514	1519.8489	1764.5302	2932.0943	2957.5638	2970.0341	2988.2256	3021.3682	3034.3052	3042.4618	3086.7931	3094.3248	3155.6963
C1OCC2=CCOCC12	C1OCC2=CCOC[C@@H]12	
InChI=1S/C7H10O2/c1-2-8-4-7-5-9-3-6(1)7/h1,7H,2-5H2	InChI=1S/C7H10O2/c1-2-8-4-7-5-9-3-6(1)7/h1,7H,2-5H2/t7-/m0/s1
