21
gdb 110306	2.25731	1.47669	1.32277	2.6401	78.35	-0.2353	0.0721	0.3074	1123.0102	0.182005	-424.183386	-424.174204	-424.17326	-424.216862	35.075	
C	-0.1438364635	 1.2676368837	 0.0933995226	-0.246638
O	 0.2630634677	-0.0844076095	 0.1686740156	-0.252482
C	 0.6967397516	-0.6396915376	-1.0644904556	 0.089203
C	 1.3711767058	-1.9917947579	-0.8885092263	-0.164479
C	 0.3977771736	-2.9929999672	-0.353878046	 0.135372
O	-0.5668177107	-2.7113191422	 0.618370682	-0.439185
C	 0.2974323509	-2.6444493427	-1.8109017989	-0.117586
C	-0.3670030607	-1.2812266665	-2.0442976029	-0.02001
C	-1.8660180604	-1.1421278734	-1.7936475744	-0.414998
H	 0.6711833699	 1.9027934259	-0.2840811291	 0.111746
H	-1.0202123045	 1.4023747748	-0.5534504687	 0.118845
H	-0.3996181139	 1.5855371397	 1.1067283476	 0.132315
H	 1.3285540421	 0.0921989737	-1.5836616049	 0.07408
H	 2.444242379	-2.137384107	-0.8491842377	 0.086021
H	 0.8389741365	-3.9741282045	-0.1881549679	 0.09826
H	-0.4577085285	-1.7821550635	 0.8633534523	 0.296357
H	 0.4496972456	-3.3901615528	-2.5831314344	 0.083868
H	-0.1352992009	-0.9291697763	-3.0551809352	 0.071985
H	-2.1316383806	-1.4328365478	-0.7769197717	 0.138466
H	-2.2104408332	-0.1180389167	-1.9752745007	 0.104139
H	-2.4171959458	-1.7963312722	-2.4784956357	 0.114722
114.5043	148.7019	154.769	187.654	207.3795	244.6189	301.0288	329.9589	402.7576	474.8362	518.6646	551.484	677.3428	725.007	746.5439	804.2308	818.0005	917.0734	961.4173	977.2235	991.4691	1008.8722	1042.7859	1077.3013	1097.6427	1109.2106	1142.7135	1152.9733	1183.6404	1202.2347	1226.2419	1229.2116	1277.4408	1313.0702	1342.5737	1368.074	1383.867	1407.6952	1411.7364	1464.6809	1481.4014	1485.9394	1495.2079	1505.9444	1512.003	2992.2794	3014.6389	3032.9759	3045.9937	3053.4966	3088.6763	3120.9685	3128.8206	3147.4012	3170.2495	3181.6358	3736.4996
COC1C2C(O)C2C1C	CO[C@H]1[C@H]2[C@@H](O)[C@H]2[C@H]1C	
InChI=1S/C7H12O2/c1-3-4-5(6(4)8)7(3)9-2/h3-8H,1-2H3	InChI=1S/C7H12O2/c1-3-4-5(6(4)8)7(3)9-2/h3-8H,1-2H3/t3-,4+,5-,6+,7-/m1/s1
