19
gdb 53811	3.40718	1.05311	0.89295	1.7602	78.58	-0.2459	-0.0506	0.1953	1340.5167	0.159681	-419.225299	-419.216107	-419.215163	-419.260204	33.861	
N	 0.1492189876	 1.3104837411	 0.1551992248	-0.534733
C	 0.1165900824	-0.0526260529	 0.1191917747	 0.265203
N	 1.0637308676	-0.8970439581	 0.2986581453	-0.511025
C	-1.2874252177	-0.5880013873	-0.1522440481	 0.353939
O	-2.1756267226	 0.1972507788	-0.4198314437	-0.335317
C	-1.4979270769	-2.0682297116	-0.0313034203	-0.053841
C	-1.8187234469	-2.5877436992	 1.4164468319	-0.22139
C	-2.8909519329	-3.5194014878	 0.7916055983	-0.209693
C	-2.8522551476	-2.6553529096	-0.4975607313	-0.242057
H	 1.02781803	 1.7963476359	 0.1006051048	 0.252093
H	-0.6806326457	 1.7794535711	-0.1763502521	 0.270388
H	 1.9579421519	-0.4310071272	 0.4695465241	 0.205423
H	-0.6283505532	-2.5954341928	-0.4239189109	 0.112622
H	-0.9888872111	-3.0381338147	 1.9624928248	 0.115913
H	-2.2683865433	-1.8041908535	 2.032998107	 0.109263
H	-2.4993735072	-4.5260318249	 0.6210349281	 0.10451
H	-3.8465054237	-3.6026775455	 1.3141335766	 0.099408
H	-3.6217369732	-1.8797392984	-0.5043226359	 0.120791
H	-2.8631142275	-3.1743629033	-1.458483608	 0.098503
41.6952	68.9017	110.5033	166.8396	240.4494	316.518	324.2785	374.8432	465.4091	503.7597	553.6202	598.5669	642.8488	736.3531	777.152	819.9251	863.733	884.2656	917.063	939.819	960.4409	1003.6799	1020.4238	1083.0888	1116.5108	1138.3044	1152.991	1206.7571	1230.9359	1247.6041	1258.7816	1276.9982	1279.6037	1365.3654	1434.4959	1479.0756	1485.6371	1507.456	1597.1844	1714.8692	1778.9118	3059.6579	3062.8522	3069.5403	3103.6678	3114.8192	3124.9093	3135.9674	3439.7463	3580.0325	3715.2232
NC(=N)C(=O)C1CCC1	NC(=N)C(=O)C1CCC1	
InChI=1S/C6H10N2O/c7-6(8)5(9)4-2-1-3-4/h4H,1-3H2,(H3,7,8)	InChI=1S/C6H10N2O/c7-6(8)5(9)4-2-1-3-4/h4H,1-3H2,(H3,7,8)
