18
gdb 53128	5.90005	0.85718	0.82569	2.0224	86.06	-0.234	0.0485	0.2825	1446.0758	0.147363	-364.685703	-364.677512	-364.676568	-364.720106	30.165	
C	 0.0582813401	 1.5736506402	-0.0839066451	-0.500204
C	 0.0687436333	 0.1188662184	-0.0313863883	 0.110385
C	 0.0796750447	-1.0852817595	 0.0100315309	 0.017532
C	 0.0872115447	-2.5316819048	 0.0646421861	-0.198773
C	-0.0444851908	-3.2346003344	 1.4324479624	-0.002792
C	-1.5806715175	-3.006281403	 1.5461533937	-0.071357
C	-1.7627593171	-4.5032648909	 1.769017689	-0.186771
N	-0.6141165104	-4.5138797618	 0.7630215805	-0.169811
C	-1.2553319688	-3.2930580188	 0.0505466552	-0.002789
H	 0.8122566834	 1.9513924836	-0.7833525655	 0.149516
H	-0.9159885282	 1.953954707	-0.4107741081	 0.147919
H	 0.2707460841	 2.0097755082	 0.8986058114	 0.147939
H	 0.848833999	-2.9782781012	-0.58381345	 0.105629
H	 0.686157873	-3.3066165882	 2.2400229618	 0.086902
H	-2.1054379361	-2.1456644815	 1.969560436	 0.076437
H	-1.4899252398	-4.919882085	 2.7442864995	 0.101666
H	-2.6750559332	-4.977093921	 1.3917126419	 0.101667
H	-1.9554526503	-3.4341623671	-0.7747556313	 0.086903
22.116	82.7941	103.6439	246.575	281.5855	386.0522	411.9012	464.885	532.5526	718.1228	787.0931	801.082	845.4224	850.9271	891.1977	910.8204	919.5369	948.3124	1027.5719	1028.7754	1052.2342	1053.5821	1063.1295	1103.4472	1129.304	1154.0247	1163.1804	1185.0351	1188.3986	1215.4774	1253.5932	1273.2287	1306.3682	1364.0521	1415.0178	1478.1077	1478.3742	1520.5984	2368.448	3025.96	3035.7487	3053.2455	3069.482	3085.7503	3087.4376	3094.5667	3099.6137	3106.6174
CC#CC1C2C3CN2C13	CC#C[C@H]1[C@H]2[C@@H]3CN2[C@H]13	
InChI=1S/C8H9N/c1-2-3-5-7-6-4-9(7)8(5)6/h5-8H,4H2,1H3	InChI=1S/C8H9N/c1-2-3-5-7-6-4-9(7)8(5)6/h5-8H,4H2,1H3/t5-,6-,7-,8+
