19
gdb 63897	2.38873	1.69221	1.36997	2.8199	74.38	-0.2392	-0.0308	0.2084	1029.4786	0.158384	-423.043072	-423.034564	-423.03362	-423.075762	32.832	
C	-0.2459622002	 1.5471739435	 0.0895307544	-0.429242
C	-0.019326113	 0.025863455	-0.0381373266	 0.165472
C	-1.3681309107	-0.7049650638	-0.072701786	-0.424582
C	 0.8860143238	-0.3322951282	-1.2543485381	-0.295411
C	 2.2789864197	-0.5491985338	-0.6892452048	 0.048892
O	 2.7349103533	 0.5379587346	 0.1110898454	-0.242624
C	 2.2309412827	-0.6363731371	 0.7818970269	-0.088759
C	 0.7916746987	-0.4567891278	 1.1909462939	 0.409434
O	 0.3358270473	-0.7033133684	 2.2788094533	-0.335141
H	 0.7026057192	 2.0877160394	 0.1001240183	 0.14038
H	-0.843474036	 1.9081842337	-0.7548438765	 0.113063
H	-0.7882898585	 1.7753657853	 1.0121159358	 0.129399
H	-1.972821869	-0.3528180099	-0.9147070727	 0.112295
H	-1.2371396007	-1.7869829014	-0.1765791256	 0.113139
H	-1.9181787165	-0.5234810465	 0.8542601289	 0.137631
H	 0.5457410347	-1.2582772116	-1.731439957	 0.108581
H	 0.885405357	 0.4494515348	-2.0206031555	 0.115801
H	 3.0473949329	-1.0607364821	-1.2634397412	 0.106889
H	 2.932453335	-1.1792075955	 1.4070218672	 0.114782
87.6678	199.8452	219.6786	223.8086	255.748	299.2545	336.2268	366.5371	394.9969	481.7338	608.1522	622.1771	702.8041	784.7276	814.9094	856.4028	877.4442	916.8502	944.657	966.8666	996.8825	1017.6753	1035.1969	1096.5298	1137.1508	1161.3971	1219.6872	1232.1202	1239.4229	1266.7605	1314.9153	1332.3184	1390.6966	1403.7614	1422.8968	1477.694	1486.6689	1490.3229	1499.469	1515.6425	1837.0871	3032.9968	3035.556	3043.9738	3085.4012	3101.1838	3104.3771	3122.6508	3133.7787	3149.1456	3178.879
CC1(C)CC2OC2C1=O	CC1(C)C[C@H]2O[C@H]2C1=O	
InChI=1S/C7H10O2/c1-7(2)3-4-5(9-4)6(7)8/h4-5H,3H2,1-2H3	InChI=1S/C7H10O2/c1-7(2)3-4-5(9-4)6(7)8/h4-5H,3H2,1-2H3/t4-,5-/m1/s1
