20
gdb 114014	4.50771	0.65579	0.61938	3.5283	79.75	-0.253	0.027	0.28	1833.4912	0.168827	-440.248675	-440.238397	-440.237453	-440.286751	35.068	
C	 0.1414394102	 1.0572491241	-0.5743643189	-0.233192
O	-0.1643255265	 0.1733327423	 0.4870702869	-0.239055
C	-1.3721342956	-0.4956601328	 0.3045325747	 0.111666
C	-1.4130839988	-1.7323291551	-0.5567493608	-0.311826
C	-1.5139358071	-1.8408806317	 0.9536713568	-0.065131
C	-0.3646722071	-2.4173386994	 1.7300543538	-0.090649
O	-0.4352221709	-3.8474409292	 1.6303944709	-0.184876
C	 0.4854097894	-4.5312621826	 2.3311867063	 0.132419
N	 0.5070952003	-5.7937240207	 2.2908308623	-0.441683
H	 1.0961148407	 1.5302639224	-0.3337221063	 0.129266
H	 0.230695102	 0.5248720501	-1.5316631789	 0.113262
H	-0.6264008978	 1.8379377312	-0.6817319306	 0.109379
H	-2.2455466381	 0.1586114716	 0.3005905429	 0.089605
H	-2.2933637451	-1.9354656899	-1.155736164	 0.118328
H	-0.4757436125	-2.0499145679	-1.0011940325	 0.125493
H	-2.491590392	-2.0770909668	 1.3622929501	 0.100951
H	 0.5867888749	-2.0543930936	 1.3274792822	 0.119575
H	-0.4236224428	-2.1199617717	 2.7857716869	 0.109347
H	 1.1693451166	-3.8894101875	 2.9054488686	 0.081235
H	 1.2613217303	-6.1439493925	 2.8779095497	 0.225885
12.9038	47.6394	95.6349	107.1808	135.4239	192.7711	198.417	283.225	302.185	425.7095	484.2246	549.0385	665.6241	778.9747	821.5627	833.4547	900.04	920.5373	994.447	1021.7694	1044.9534	1049.7556	1055.1094	1102.6679	1131.5576	1133.9587	1169.3436	1183.4077	1185.6994	1225.2869	1259.9288	1275.3571	1299.2814	1359.8434	1399.8959	1422.064	1439.6028	1474.8688	1485.8554	1492.7636	1509.3555	1515.9028	1748.1353	2987.0685	3004.4356	3019.1127	3040.2823	3075.0681	3086.0556	3121.9004	3136.6752	3159.0049	3226.0181	3515.5611
COC1CC1COC=N	CO[C@H]1C[C@H]1CO[CH][NH]	
InChI=1S/C6H11NO2/c1-8-6-2-5(6)3-9-4-7/h4-7H,2-3H2,1H3	InChI=1S/C6H11NO2/c1-8-6-2-5(6)3-9-4-7/h4-7H,2-3H2,1H3/t5-,6-/m0/s1
