19
gdb 62295	3.33254	1.46171	1.17092	0.6248	86.02	-0.2507	0.0503	0.301	1090.6235	0.158261	-348.646802	-348.638852	-348.637908	-348.678763	32.122	
C	-0.1406471107	 1.5740188119	-0.0243406952	-0.469628
C	-0.053239722	 0.0460045157	-0.0089300992	 0.142783
C	-1.3370558136	-0.5590384997	-0.3386371865	 0.260052
C	-2.4045481621	-1.0423144159	-0.6126035676	-0.453242
C	 1.1932055033	-0.6191986715	-0.667659806	-0.068004
C	 2.127289585	-0.2766030232	 0.5449918507	-0.066458
C	 2.6200673633	-1.7318352595	 0.6639649038	-0.282368
C	 1.1333047704	-1.8619658146	 0.2847122265	-0.040329
C	 0.7276724737	-0.6274047494	 1.1601502921	-0.068006
H	 0.8227891725	 2.0281516885	 0.2231520538	 0.116423
H	-0.4461154407	 1.9335323794	-1.0118987426	 0.125145
H	-0.8821722042	 1.9258549242	 0.699663578	 0.125145
H	-3.3442907656	-1.4738159019	-0.8535281811	 0.187424
H	 1.4701057677	-0.6244818733	-1.7234997533	 0.072346
H	 2.688679624	 0.6459634645	 0.6921160833	 0.074363
H	 3.3505031206	-2.0660860711	-0.0798490989	 0.09344
H	 2.9064311205	-2.0739156906	 1.6637127264	 0.093439
H	 0.5310527947	-2.755630359	 0.1273097327	 0.085129
H	 0.465788063	-0.6421856644	 2.2197244232	 0.072346
135.5189	153.7104	208.4059	253.446	265.1939	394.5795	453.5176	517.5494	542.8102	614.67	620.8872	634.1252	754.2331	812.6832	842.8419	854.0062	877.2504	879.7463	918.5415	933.3456	966.7592	998.6567	1027.7122	1066.3061	1079.757	1121.4461	1141.1082	1144.6666	1156.2348	1170.8251	1179.1841	1203.9514	1225.217	1249.1423	1298.6801	1313.171	1409.7899	1486.5006	1496.4791	1512.1306	2224.9979	3037.695	3038.7863	3093.9	3095.2851	3095.8147	3106.0747	3111.1166	3118.4924	3128.9491	3502.5914
CC1(C#C)C2C3CC2C13	C[C@@]1(C#C)[C@H]2[C@@H]3C[C@H]2[C@H]13	
InChI=1S/C9H10/c1-3-9(2)7-5-4-6(7)8(5)9/h1,5-8H,4H2,2H3	InChI=1S/C9H10/c1-3-9(2)7-5-4-6(7)8(5)9/h1,5-8H,4H2,2H3/t5-,6+,7-,8+,9-
