17
gdb 20757	3.26572	1.94914	1.24899	3.2531	71.45	-0.2373	0.005	0.2422	979.3325	0.140662	-363.886015	-363.877314	-363.87637	-363.919557	30.396	
C	 0.0296625411	 1.4972927114	-0.0201944947	-0.496406
C	 0.0668796974	 0.0040716512	 0.0314951574	 0.334148
N	 0.1559455226	-0.6938293462	-1.0744335022	-0.212118
O	 0.1669594793	-2.0295754406	-0.6766640312	-0.221296
C	 0.0834597446	-2.0938659207	 0.6672960141	 0.359994
C	 0.0827118588	-3.4571472354	 1.2632715547	-0.493776
C	 0.0162239866	-0.837268049	 1.1900012721	-0.000321
C	-0.0861012463	-0.4041786507	 2.6178539145	-0.514553
H	 0.866644127	 1.931967557	 0.5373659147	 0.133546
H	 0.0857751972	 1.8384562874	-1.0555461835	 0.15005
H	-0.8929676023	 1.8842625119	 0.4262996922	 0.133538
H	-0.7624984613	-4.0469505681	 0.89306578	 0.149158
H	 0.9988211688	-3.9988725181	 1.0052353016	 0.149157
H	 0.0118640186	-3.3998644617	 2.3512390411	 0.136423
H	 0.761424987	 0.2263311494	 2.9112866478	 0.132573
H	-0.9963648511	 0.1792064324	 2.7995859893	 0.13257
H	-0.1061928179	-1.2616597101	 3.295748872	 0.127314
63.2928	103.6262	138.0491	154.9894	233.153	267.8034	285.7918	342.104	459.7107	572.7459	638.1156	690.1871	694.364	760.3892	930.0601	954.1733	1012.4033	1031.5994	1051.2907	1063.0169	1079.0938	1130.7061	1224.0993	1290.4964	1402.7388	1412.6426	1425.7114	1456.1066	1471.9014	1475.2405	1478.8935	1485.4636	1486.0977	1501.4429	1547.954	1685.0788	3026.3577	3035.879	3040.533	3073.8284	3088.3791	3095.5973	3110.4499	3133.734	3138.3632
CC1=NOC(C)=C1C	Cc1noc(C)c1C	
InChI=1S/C6H9NO/c1-4-5(2)7-8-6(4)3/h1-3H3	InChI=1S/C6H9NO/c1-4-5(2)7-8-6(4)3/h1-3H3
