23
gdb 104214	2.54653	1.24757	1.1914	1.5819	85.4	-0.2376	0.0816	0.3191	1238.9632	0.203975	-388.269355	-388.259518	-388.258573	-388.303848	37.422	
C	 0.0540238488	 1.4828738895	 0.19685547	-0.394067
C	-0.2720337315	 0.04570864	-0.2238629942	-0.205811
C	 0.6406280943	-0.4992771757	-1.3267397138	 0.361365
C	 0.526675421	 0.2573399238	-2.6439537797	-0.437305
O	 2.0321245158	-0.5160117737	-0.8697504243	-0.335335
C	 2.1071560984	-1.9543925421	-0.9332819055	-0.13933
C	 0.675121089	-2.0360278869	-1.4412831055	 0.259363
C	-0.377781163	-3.0426900133	-1.0972848614	-0.330219
C	 0.1273595285	-2.9184347395	-2.5186167085	-0.328961
H	 1.1114737852	 1.566624985	 0.4631295835	 0.137249
H	-0.1542092343	 2.2024586351	-0.600650235	 0.113888
H	-0.5416385356	 1.7752365271	 1.0668081036	 0.108848
H	-0.1792157683	-0.615831244	 0.6446742473	 0.097271
H	-1.3151456016	-0.0248431714	-0.5599675368	 0.088228
H	 0.8260302889	 1.3013187369	-2.516571831	 0.126448
H	 1.1759844147	-0.1925942721	-3.3992173298	 0.118855
H	-0.503283993	 0.2408131013	-3.0176559015	 0.109337
H	 2.886001232	-2.2949076025	-1.6288850253	 0.097713
H	 2.2922970038	-2.4020927051	 0.0527613428	 0.097219
H	-0.0809052749	-3.9125043799	-0.5191026931	 0.112637
H	-1.3809416426	-2.6891377238	-0.8815097632	 0.11552
H	-0.5360672281	-2.4796701539	-3.2571992723	 0.11467
H	 0.7674810223	-3.7037689849	-2.9090652963	 0.112418
65.1874	92.979	161.7476	205.9794	210.9407	251.7792	267.9633	296.7872	352.9947	380.3965	453.2336	499.116	574.5689	671.9674	775.1438	785.2228	867.9272	875.0645	892.6144	903.7112	937.401	980.8386	997.278	1019.6123	1031.9983	1054.4608	1060.2091	1077.5228	1099.3874	1153.211	1154.4701	1187.1201	1196.4301	1229.4589	1271.1115	1310.2099	1331.4383	1366.7652	1402.6809	1405.4183	1409.1462	1464.6757	1473.7808	1486.8294	1490.8172	1503.4308	1509.1627	1510.172	1526.9749	2995.2386	3020.8542	3033.0016	3037.6053	3042.0523	3063.4695	3105.3549	3109.4793	3120.103	3121.0873	3123.8856	3124.7268	3197.9191	3212.6983
CCC1(C)OCC11CC1	CC[C@@]1(C)OCC21CC2	
InChI=1S/C8H14O/c1-3-7(2)8(4-5-8)6-9-7/h3-6H2,1-2H3	InChI=1S/C8H14O/c1-3-7(2)8(4-5-8)6-9-7/h3-6H2,1-2H3/t7-/m1/s1
