23
gdb 101480	3.381	0.98664	0.9702	2.2125	81.17	-0.2556	0.0711	0.3267	1382.9812	0.20671	-425.435737	-425.426145	-425.425201	-425.470553	35.916	
C	-0.1892289746	 1.5976486356	-0.2741836934	-0.3818
C	-0.0305857356	 0.0944133787	-0.0324180977	-0.188783
C	-1.3803353741	-0.6397316477	-0.0203520993	 0.14268
O	-2.0830607529	-0.4523992121	-1.2468297506	-0.45257
C	-1.2707257107	-2.1338656129	 0.3514328324	-0.034338
C	-2.6610756789	-2.8227139708	 0.3615876349	-0.250734
C	-2.7358261165	-3.5367788934	-1.012074017	-0.077934
O	-1.5313838446	-3.204267137	-1.7138982052	-0.260568
C	-0.5406771905	-2.9672567607	-0.7151393004	-0.111725
H	 0.7828090536	 2.0968862698	-0.3296197038	 0.105372
H	-0.725053307	 1.7744233982	-1.2100832139	 0.135007
H	-0.7616931386	 2.0687183489	 0.5329196353	 0.109511
H	 0.6126908095	-0.3327722816	-0.8122535474	 0.091936
H	 0.4785740073	-0.0829437753	 0.9243816129	 0.086608
H	-2.0084065195	-0.1621023918	 0.7462584866	 0.073669
H	-1.827280094	-1.1708648696	-1.8420890909	 0.290632
H	-0.7749383991	-2.2143470894	 1.3236713387	 0.075042
H	-2.736645328	-3.5441856306	 1.1790030259	 0.100668
H	-3.4632940787	-2.0919650479	 0.4797887003	 0.121183
H	-2.8004290184	-4.6272891975	-0.892951847	 0.098309
H	-3.5745744095	-3.20515105	-1.6283110486	 0.118532
H	 0.3018378891	-2.4667005493	-1.1976159688	 0.115511
H	-0.1801688384	-3.9182892438	-0.291518033	 0.093791
68.2926	84.3906	98.8501	179.9905	213.6114	233.9534	298.0534	331.8243	361.6335	480.0699	507.8172	547.5192	706.263	765.9037	778.5085	820.9816	837.7959	905.2341	921.2388	930.9382	975.1242	988.9635	1011.836	1043.0166	1061.1543	1091.9308	1098.9761	1141.3989	1158.2734	1218.2461	1221.6943	1246.9569	1271.3594	1284.6887	1300.4329	1316.5992	1337.2174	1358.4165	1374.2442	1396.7255	1400.1672	1408.8691	1452.6352	1478.3935	1488.1058	1496.3925	1510.1753	1512.5684	1525.9987	2977.4864	2993.1533	3005.8226	3014.5385	3035.4397	3051.5679	3061.3899	3074.019	3096.5251	3099.6429	3106.0773	3121.8952	3125.9669	3728.3703
CCC(O)C1CCOC1	CC[C@@H](O)[C@H]1CCOC1	
InChI=1S/C7H14O2/c1-2-7(8)6-3-4-9-5-6/h6-8H,2-5H2,1H3	InChI=1S/C7H14O2/c1-2-7(8)6-3-4-9-5-6/h6-8H,2-5H2,1H3/t6-,7+/m0/s1
