19
gdb 97223	2.75851	1.50779	1.07926	1.897	78.96	-0.2257	0.0085	0.2342	1144.4182	0.159969	-419.171534	-419.163131	-419.162187	-419.20503	31.308	
C	 0.4494031735	 1.3428963802	 0.1491791349	-0.325601
N	 0.4231047587	-0.1044206752	 0.0219545384	-0.26084
C	 0.4038949795	-0.6285304743	-1.1343825435	 0.261861
C	 0.4525809869	 0.1261769078	-2.4640763943	-0.146001
O	 0.8762109402	-0.6509688783	-3.571910894	-0.248352
C	 1.8087306251	-1.6564988577	-3.1882924279	-0.11867
C	 1.0750127153	-2.6560086918	-2.3264794241	-0.018721
C	 1.4189028597	-2.8796687836	-0.8890028336	-0.247041
N	 0.2985696776	-2.0246394322	-1.2600337357	-0.078362
H	 1.3543892693	 1.7926486276	-0.2873840261	 0.113836
H	-0.4164789444	 1.8281674435	-0.3238558683	 0.116523
H	 0.4337804627	 1.6054195011	 1.210123654	 0.124521
H	-0.5409500195	 0.5187488659	-2.7108901388	 0.137325
H	 1.1226923514	 0.9904980015	-2.3369553722	 0.111416
H	 2.1804873983	-2.1040966643	-4.1125107819	 0.119613
H	 2.6612682916	-1.2125511658	-2.6496345342	 0.098625
H	 0.5360193896	-3.4338610372	-2.8632647521	 0.10458
H	 1.152597518	-3.8188701148	-0.4140027697	 0.128065
H	 2.3005586466	-2.3902817423	-0.4831543507	 0.127222
60.0058	89.5983	171.7895	233.6165	251.6307	309.6372	378.8579	476.2598	499.1971	514.3061	572.3941	668.394	708.2961	853.5659	892.3943	947.8712	971.2587	979.7263	1019.483	1053.8422	1100.3987	1103.1676	1109.6486	1126.5976	1149.4298	1162.0051	1180.9938	1214.4347	1251.5519	1303.2587	1352.0135	1374.0847	1384.8148	1427.3727	1438.5198	1476.9306	1487.4408	1491.5476	1508.4678	1509.9814	1732.3826	2977.8557	2979.1239	2987.074	3028.5587	3056.9679	3096.4876	3105.0905	3114.0002	3131.9064	3203.9157
CN=C1COCC2CN12	CN=C1COC[C@H]2CN12	
InChI=1S/C6H10N2O/c1-7-6-4-9-3-5-2-8(5)6/h5H,2-4H2,1H3	InChI=1S/C6H10N2O/c1-7-6-4-9-3-5-2-8(5)6/h5H,2-4H2,1H3/t5-,8?/m1/s1
