21
gdb 86309	2.07447	1.62407	1.17623	2.2269	78.23	-0.2434	0.0733	0.3167	1165.244	0.18101	-424.202441	-424.193178	-424.192234	-424.236694	34.482	
C	-0.2961006052	 1.3075090075	-1.4690742868	-0.416227
C	 0.3079289728	 0.0117221675	-0.9723090314	 0.119524
O	 1.7302820724	-0.0767516159	-1.2288144582	-0.326474
C	 1.9922038391	-0.5619642826	 0.1100948156	 0.119525
C	 3.1731633661	 0.1258289204	 0.7604511122	-0.416226
C	 0.5443943424	-0.2284985088	 0.5360551944	 0.321881
C	 0.1851000175	 0.7914249218	 1.6357185532	-0.354525
C	-0.6093905364	-0.373100414	 2.2549578979	-0.075243
O	-0.2203468196	-1.2572606116	 1.1807788244	-0.311062
H	 0.2011956778	 2.1725691329	-1.0200984606	 0.118535
H	-0.186840833	 1.3799634064	-2.5555902364	 0.130748
H	-1.3648963801	 1.3504854227	-1.2328455113	 0.117875
H	-0.2205590953	-0.8528300727	-1.4016599201	 0.080521
H	 2.1307186166	-1.6537086243	 0.1093966566	 0.080521
H	 3.0279939216	 1.2097278545	 0.7965135597	 0.118535
H	 3.3229422817	-0.2462429379	 1.7798158345	 0.117874
H	 4.0851250924	-0.0751479543	 0.1898034288	 0.130748
H	 1.027164884	 1.1540493695	 2.2270263167	 0.115955
H	-0.4099154811	 1.6433921048	 1.3035671001	 0.115956
H	-0.2535330225	-0.7326794345	 3.2273818775	 0.105778
H	-1.6966315813	-0.2411994914	 2.3001911631	 0.10578
66.924	77.8784	191.2698	198.4441	216.725	235.1239	258.361	333.5258	448.7175	470.0784	498.0845	514.5046	725.3153	782.6936	851.9754	863.4999	871.2457	910.1729	952.1902	975.5539	1029.0954	1029.5695	1071.5155	1097.0158	1110.1572	1129.2757	1158.3776	1167.0108	1182.936	1220.8961	1230.0875	1267.3478	1284.2267	1328.8534	1355.9851	1356.9015	1396.8168	1398.962	1421.6393	1478.9271	1479.6573	1489.8735	1494.1696	1497.8466	1531.1842	2989.4073	2996.7277	3023.4587	3034.4423	3035.0784	3064.5374	3083.3521	3106.7294	3107.1206	3112.591	3113.9359	3136.3838
CC1OC(C)C11CCO1	C[C@H]1O[C@@H](C)[C@]21CCO2	
InChI=1S/C7H12O2/c1-5-7(3-4-8-7)6(2)9-5/h5-6H,3-4H2,1-2H3	InChI=1S/C7H12O2/c1-5-7(3-4-8-7)6(2)9-5/h5-6H,3-4H2,1-2H3/t5-,6+,7-
