16
gdb 51913	6.1281	0.52541	0.50474	2.8946	76.22	-0.2417	-0.026	0.2156	2044.2157	0.121853	-434.078017	-434.068049	-434.067104	-434.115511	32.904	
O	-0.4921743405	 0.5144829676	 0.7637110883	-0.234612
C	 0.0163218591	 1.0578571601	-0.180444268	 0.157677
C	 1.2600827128	 1.9355741294	-0.0911174797	-0.233537
N	 1.3264086767	 2.851477158	-1.205860785	-0.247727
C	 1.389752235	 4.0957419487	-0.9501045856	 0.110002
N	 1.3748868613	 5.0445616839	-1.9346093893	-0.313431
C	 1.4419490262	 4.6367377711	-3.3261208	-0.2498
C	 1.142041262	 5.7624273458	-4.2109548156	 0.247668
N	 0.9239236881	 6.6575551113	-4.9071008354	-0.289459
H	-0.3813202596	 0.948969116	-1.2139378304	 0.086857
H	 1.2789674017	 2.4118818657	 0.9018120534	 0.112618
H	 2.1187205496	 1.2463891065	-0.1344383114	 0.135054
H	 1.4365964258	 4.5211827342	 0.0609950488	 0.10681
H	 1.6836743797	 5.9743425733	-1.704091118	 0.266453
H	 2.4237319811	 4.2196909171	-3.5946587669	 0.16085
H	 0.715571421	 3.8334358912	-3.4850913252	 0.184577
21.9595	48.7539	74.5215	99.5501	135.4242	218.2901	294.0259	321.6963	378.5213	392.0324	437.6753	495.7822	552.1156	720.6657	759.0187	956.2107	986.1911	998.8889	1018.8155	1052.1919	1099.1617	1122.6531	1224.9783	1236.7509	1255.3558	1322.3266	1367.821	1397.3055	1412.4831	1457.3538	1488.9035	1518.3062	1747.9822	1839.7665	2371.8962	2892.0258	2972.9657	3006.6488	3013.3929	3037.5188	3083.8616	3655.4133
O=CCN=CNCC#N	O=CCN=CNCC#N	
InChI=1S/C5H7N3O/c6-1-2-7-5-8-3-4-9/h4-5H,2-3H2,(H,7,8)	InChI=1S/C5H7N3O/c6-1-2-7-5-8-3-4-9/h4-5H,2-3H2,(H,7,8)
