20
gdb 119673	3.83282	0.99602	0.9102	1.774	79.26	-0.2279	0.075	0.3029	1331.7065	0.170891	-403.041867	-403.03347	-403.032526	-403.075523	31.929	
O	-0.103206522	 1.4642870778	-0.0072063105	-0.418026
C	 0.0312193841	 0.0521748696	-0.0411570521	-0.06941
C	-1.3646533781	-0.5504439704	 0.0831004107	-0.333829
C	-1.3603145061	-2.0589619255	 0.0698697531	 0.32536
C	-0.7144030744	-3.064519986	 1.0252596218	-0.231281
N	-1.3811313385	-4.0197310398	 0.0439378527	-0.162367
C	-2.5746188069	-3.0346396772	-0.0823871351	-0.050387
C	-2.5033634276	-3.0761976632	-1.611147459	-0.261058
C	-1.0550693239	-3.0425294107	-1.1158270994	-0.039107
H	 0.7735632504	 1.8527983746	-0.0782203204	 0.285817
H	 0.4972290345	-0.283037994	-0.9820150145	 0.087692
H	 0.6674574832	-0.3082636967	 0.7832292001	 0.089303
H	-1.8191319017	-0.1885511743	 1.0138752788	 0.110004
H	-1.9843750954	-0.168184367	-0.7375252193	 0.108534
H	 0.3783210366	-3.1471385911	 1.0376755801	 0.09516
H	-1.112643565	-3.1375479546	 2.0437569626	 0.096741
H	-3.4350594543	-3.1282692083	 0.5838738502	 0.079488
H	-2.8278997441	-4.0084693303	-2.0804841126	 0.108605
H	-2.8682775496	-2.2006845655	-2.1532138721	 0.100841
H	-0.1211804612	-3.1480872274	-1.672363545	 0.077918
66.9316	81.4134	128.7009	261.2028	268.8779	336.6851	349.4269	434.6871	466.0048	675.2344	721.0481	773.3297	802.9432	865.5804	872.4483	888.702	915.6906	921.551	966.8892	1011.5898	1019.1931	1026.1216	1063.51	1078.4822	1097.1715	1125.7638	1142.4817	1161.1126	1193.3017	1196.8795	1222.3819	1244.6956	1251.1508	1256.1865	1290.2673	1315.1815	1323.3911	1368.9851	1461.2929	1480.1301	1489.7362	1519.1663	1527.6154	2962.8511	2988.7411	3025.2581	3026.9535	3058.5902	3068.0505	3082.4105	3087.4681	3095.1995	3124.5232	3829.0836
OCCC12CN3C1CC23	OCC[C@@]12CN3[C@@H]1C[C@@H]23	
InChI=1S/C7H11NO/c9-2-1-7-4-8-5(7)3-6(7)8/h5-6,9H,1-4H2	InChI=1S/C7H11NO/c9-2-1-7-4-8-5(7)3-6(7)8/h5-6,9H,1-4H2/t5-,6+,7-
