16
gdb 108404	2.54074	1.37348	1.08398	3.6671	69.55	-0.259	0.025	0.284	1125.5347	0.123694	-437.844787	-437.836348	-437.835403	-437.878325	30.668	
O	 0.6356676999	 0.2550298569	-0.723553389	-0.403363
C	-0.1942728527	 0.2845554245	 0.4223226064	-0.18982
C	-1.4671515567	-0.4978008877	 0.2308090317	 0.428864
O	-2.4271154318	-0.4530594269	 1.2753149347	-0.311108
C	-2.7680470971	-1.8528385597	 1.0353762937	-0.107208
C	-1.808260436	-1.914116052	-0.1457127675	-0.18925
C	-2.1256611542	-0.769192094	-1.1124229277	-0.273465
C	-3.4690365854	-0.3604607239	-1.4148667307	 0.312434
N	-4.5539168936	-0.036512226	-1.6522875338	-0.345054
H	 0.3212013908	 0.9252395258	-1.3380631471	 0.29702
H	 0.3796661172	-0.1562012817	 1.2441591099	 0.132099
H	-0.4607535986	 1.3078570731	 0.7244900061	 0.122513
H	-2.4516548939	-2.4692208919	 1.8819902997	 0.1256
H	-3.8354636086	-1.9891212748	 0.8383302872	 0.13866
H	-1.1898143617	-2.747951998	-0.4471038619	 0.123967
H	-1.4316017877	-0.7316124937	-1.9458194316	 0.13811
63.1747	130.7251	139.7401	196.4751	248.0692	298.2381	371.8289	391.0455	450.8053	579.7678	603.2923	696.1461	775.3175	796.6483	876.5597	953.3107	969.6878	981.581	1001.892	1026.8122	1072.7588	1088.035	1099.0738	1145.4485	1162.9666	1217.3721	1239.7655	1310.0114	1332.0352	1393.687	1405.0521	1456.8005	1498.0903	1511.8942	2352.4772	3006.5781	3050.2506	3076.9866	3107.3831	3174.9457	3214.6774	3828.034
OCC12OCC1C2C#N	OC[C@]12OC[C@H]1[C@H]2C#N	
InChI=1S/C6H7NO2/c7-1-4-5-2-9-6(4,5)3-8/h4-5,8H,2-3H2	InChI=1S/C6H7NO2/c7-1-4-5-2-9-6(4,5)3-8/h4-5,8H,2-3H2/t4-,5+,6-/m1/s1
