19
gdb 94488	4.14464	0.75503	0.68311	1.3704	99.6	-0.2364	-0.0117	0.2247	1662.6736	0.157726	-348.697866	-348.688419	-348.687475	-348.732434	35.225	
C	-0.170156786	 1.5238910955	-0.116689727	-0.394544
C	 0.0010451675	 0.0117310578	-0.0465050738	 0.014997
C	 1.1896732331	-0.5407769529	-0.8868191918	-0.228134
C	 2.0508551906	-0.6207501404	 0.3993088208	-0.222047
C	 0.738573239	-0.5211824645	 1.2450032442	-0.218917
C	 0.7388205871	 0.2720722075	 2.4503608659	 0.411597
C	 0.7443423744	 0.9479680436	 3.4566445358	-0.2485
C	 0.7544337384	 1.7065030419	 4.5855117198	 0.296746
C	 0.7632605859	 2.3801328457	 5.5883382104	-0.572127
H	 0.7775017421	 2.0472957182	 0.049580256	 0.120946
H	-0.5452273869	 1.8168415607	-1.1031770188	 0.113385
H	-0.8784250701	 1.8794302395	 0.6377725102	 0.1276
H	-0.9610241667	-0.4765263512	-0.2248224251	 0.075691
H	 0.9785417028	-1.5285791968	-1.3053654604	 0.102579
H	 1.5567731128	 0.1036576316	-1.6892672421	 0.100999
H	 2.6598868584	-1.5132527126	 0.5547017037	 0.107327
H	 2.6799647001	 0.2608012228	 0.5380006256	 0.117698
H	 0.3737685921	-1.5289320108	 1.4735945859	 0.106999
H	 0.7720623255	 2.9715694345	 6.4696716307	 0.187706
67.0262	75.3038	134.9884	197.2287	235.7423	252.4659	330.6572	353.9409	440.4024	481.3525	510.3195	538.495	582.8633	596.6205	644.8098	729.988	785.4081	864.1989	886.838	917.3358	953.725	969.2626	1017.7047	1075.119	1114.7171	1158.4299	1201.5726	1219.2728	1239.9419	1257.5835	1275.1073	1280.7784	1343.3017	1368.0294	1414.8609	1481.8436	1492.8302	1496.3213	1499.9448	2177.6212	2351.455	3032.058	3037.8083	3055.5724	3064.8186	3075.1741	3099.5121	3105.9246	3108.9583	3132.0453	3506.485
CC1CCC1C#CC#C	C[C@H]1CC[C@H]1C#CC#C	
InChI=1S/C9H10/c1-3-4-5-9-7-6-8(9)2/h1,8-9H,6-7H2,2H3	InChI=1S/C9H10/c1-3-4-5-9-7-6-8(9)2/h1,8-9H,6-7H2,2H3/t8-,9+/m0/s1
