13
gdb 128572	4.12702	1.18719	0.92739	5.0851	66.45	-0.27	-0.1029	0.1671	1166.0507	0.087483	-489.854555	-489.846715	-489.84577	-489.887446	27.775	
C	-0.0223639698	 1.4288731562	 0.0085604641	-0.242147
O	-0.0334498748	-0.0083919219	 0.0049295563	-0.254262
C	-1.1957750059	-0.6501496956	 0.012363544	 0.525802
C	-1.2490061958	-2.004568647	 0.0091623355	-0.404133
C	-2.5306715602	-2.6500234045	 0.0174647035	 0.493254
O	-2.7876535676	-3.8191927521	 0.0167200098	-0.329782
O	-3.6258316369	-1.7450038266	 0.028737461	-0.249828
N	-3.4837729749	-0.3656255842	 0.0312636196	 0.065145
N	-2.3446077367	 0.1369251078	 0.0235247601	-0.209617
H	 1.0332806025	 1.6991785243	 0.0011125633	 0.149223
H	-0.5218832989	 1.8265272697	-0.8775874623	 0.153113
H	-0.5081483735	 1.821933412	 0.9043355468	 0.153125
H	-0.3560664875	-2.6145238381	 0.0005340283	 0.150108
82.108	144.0645	155.2471	191.8299	231.2979	404.9481	437.6348	438.245	542.0859	603.4812	713.887	737.9932	759.9902	804.0123	877.5301	878.9058	991.2122	1030.2564	1173.468	1186.054	1198.9331	1303.6061	1353.7364	1485.5877	1486.776	1492.7742	1554.4512	1675.3019	1871.705	3056.6882	3137.5221	3164.6009	3234.6866
COC1=CC(=O)ON=N1	COC1=N[N]OC(=O)[CH]1	
InChI=1S/C4H4N2O3/c1-8-3-2-4(7)9-6-5-3/h2H,1H3	InChI=1S/C4H4N2O3/c1-8-3-2-4(7)9-6-5-3/h2H,1H3
