21
gdb 111693	2.38841	1.47501	1.27745	2.1492	78.89	-0.2318	0.0743	0.3061	1135.3814	0.182332	-424.205893	-424.196898	-424.195954	-424.239553	33.636	
C	-0.0190839098	 1.2855111108	-0.4025643205	-0.234638
O	-0.1363432305	 0.1732932362	 0.4615068757	-0.226669
C	-1.3106699035	-0.5438638757	 0.2611094748	 0.128063
C	-1.423878559	-1.6391762941	-0.7747702871	-0.137467
C	-0.1308607122	-2.2314444129	-1.3157690594	-0.088017
O	 0.685196065	-2.5405428115	-0.1977605713	-0.263461
C	-0.1332107621	-2.7649416194	 0.9502304062	 0.143661
C	 0.6657719272	-2.403793173	 2.1951965622	-0.405545
C	-1.4115926567	-1.9685684438	 0.7112857317	-0.146108
H	 0.9302119611	 1.7737296121	-0.1716912718	 0.129886
H	-0.022282443	 0.9838949128	-1.4592644591	 0.110413
H	-0.838020149	 2.004961259	-0.24626786	 0.104316
H	-2.2138494065	 0.0557493697	 0.4005723605	 0.082008
H	-2.3188320192	-1.7153453889	-1.3825148432	 0.087396
H	-0.3656951397	-3.1339140036	-1.9043829636	 0.089215
H	 0.4406028875	-1.5512049955	-1.9574278967	 0.105409
H	-0.4180976227	-3.8313743759	 0.9975100159	 0.062272
H	 0.9303272877	-1.3452993031	 2.1758231406	 0.145992
H	 0.0787627737	-2.6103857943	 3.0959458964	 0.10536
H	 1.5815252377	-3.0003743029	 2.240445318	 0.118516
H	-2.3033901459	-2.2838462461	 1.2415773306	 0.089398
95.3395	119.6202	160.1317	172.7873	225.1656	235.689	257.9165	341.0887	435.7377	525.861	566.4403	708.6392	747.7662	765.9641	799.7464	845.3006	888.3119	980.886	993.4098	1012.9396	1031.9891	1067.0596	1088.4354	1105.7648	1113.8107	1133.9603	1142.1019	1163.4876	1182.1012	1204.1427	1238.1502	1256.4099	1324.0652	1341.7282	1359.3713	1371.2943	1391.8243	1407.2033	1444.4476	1484.2319	1485.1275	1489.0831	1503.7197	1508.1418	1518.8941	2933.8361	2964.437	2980.3601	3034.1862	3045.2124	3053.3009	3065.9626	3110.9405	3122.3261	3148.0488	3165.5253	3175.125
COC1C2COC(C)C12	CO[C@H]1[C@H]2CO[C@@H](C)[C@@H]12	
InChI=1S/C7H12O2/c1-4-6-5(3-9-4)7(6)8-2/h4-7H,3H2,1-2H3	InChI=1S/C7H12O2/c1-4-6-5(3-9-4)7(6)8-2/h4-7H,3H2,1-2H3/t4-,5-,6+,7-/m0/s1
