15
gdb 8642	2.50009	1.83446	1.4471	3.1533	67.64	-0.2845	-0.0071	0.2774	939.0997	0.115028	-362.618577	-362.609466	-362.608522	-362.651967	32.19	
C	-0.0729211063	 1.4070480415	 0.064478323	-0.258074
O	 0.0425909015	-0.0087240436	 0.0117323831	-0.258373
C	 0.6877170603	-0.5494081999	-1.1313148317	 0.035837
C	 2.1687932307	-0.119733891	-1.2444935374	-0.419392
C	 0.5999244877	-2.0095847413	-1.0062763307	 0.330505
C	 0.5691676248	-3.2051376193	-0.9148320266	-0.4117
C	-0.0324452015	-0.1354837841	-2.3716735811	 0.273412
N	-0.5811710102	 0.2257246309	-3.3219728125	-0.341301
H	 0.898701017	 1.8990003519	 0.1966451288	 0.118832
H	-0.5624463479	 1.8086816601	-0.8317371394	 0.139515
H	-0.6954646601	 1.6191085829	 0.9353340399	 0.143744
H	 2.6770602204	-0.3865832974	-0.3154914739	 0.14607
H	 2.6450487723	-0.6397017673	-2.077876666	 0.151245
H	 2.2508767007	 0.9556356581	-1.4139752749	 0.138824
H	 0.5253244106	-4.2636029714	-0.8318724207	 0.210855
92.3342	127.9788	154.8769	174.3931	205.6596	228.4976	283.2733	336.0619	412.5538	478.6947	511.6267	569.6015	603.4297	651.4921	678.6817	685.7789	890.5261	934.3184	1056.4825	1106.883	1155.0818	1179.1818	1196.6463	1248.4625	1399.5489	1471.7963	1482.3449	1483.9796	1500.6133	1509.1693	2252.6983	2353.2028	3011.2025	3060.0291	3073.8428	3135.0572	3145.9818	3149.5063	3499.9332
COC(C)(C#C)C#N	CO[C@@](C)(C#C)C#N	
InChI=1S/C6H7NO/c1-4-6(2,5-7)8-3/h1H,2-3H3	InChI=1S/C6H7NO/c1-4-6(2,5-7)8-3/h1H,2-3H3/t6-/m0/s1
