25
gdb 114919	3.02268	1.04759	0.86023	0.2618	94.84	-0.2243	0.0345	0.2588	1486.1714	0.228593	-352.387431	-352.377148	-352.376204	-352.422305	39.011	
C	 0.0457064449	 1.63271107	 0.0244389301	-0.385588
C	 0.0462430174	 0.1009365456	-0.0330257446	-0.195423
C	 0.6279399518	-0.5522508951	 1.2238930293	 0.043056
C	-0.1611064434	-0.2918598481	 2.5351559659	-0.264245
C	 0.1825586191	-1.4983647739	 3.3719278501	-0.175725
C	 0.7333636488	-2.4804815269	 2.6551414038	 0.341164
C	 1.1868827556	-3.8166731324	 3.1555744008	-0.497453
C	 0.8129483654	-2.1024524777	 1.1819974769	-0.104632
C	-0.2376836212	-2.8670187452	 0.3539591213	-0.393709
H	 1.0597643796	 2.0232651446	 0.1673548303	 0.111835
H	-0.3492180712	 2.0635386248	-0.901026734	 0.108457
H	-0.5696070608	 2.0039192881	 0.8506130858	 0.118372
H	-0.9787409546	-0.2543871948	-0.196801634	 0.095008
H	 0.6251215683	-0.223327172	-0.9079919163	 0.090645
H	 1.6317003465	-0.1337854218	 1.3797928444	 0.069669
H	 0.1217654861	 0.6539873135	 3.0111180823	 0.097952
H	-1.2453835149	-0.2280261511	 2.3525035838	 0.09639
H	-0.0222197428	-1.5535291124	 4.4367579855	 0.078587
H	 1.0313908398	-3.9161422176	 4.2335458895	 0.120359
H	 0.6522405986	-4.6377827127	 2.6617962076	 0.124099
H	 2.2537563815	-3.9749383568	 2.9501091099	 0.121336
H	 1.7997053175	-2.3493293135	 0.7661240345	 0.061973
H	-1.2534026196	-2.6599198097	 0.7072603773	 0.115962
H	-0.1852969326	-2.6012499617	-0.7061753861	 0.112811
H	-0.0770921397	-3.9474365832	 0.4280131757	 0.109098
69.2693	109.1415	168.114	172.72	218.3705	231.4104	257.4328	271.4735	290.035	311.1617	408.2065	455.7802	560.7483	624.4999	664.3367	765.7318	785.8396	827.6632	834.1058	923.4974	945.1633	964.7463	983.1988	1030.0955	1031.8728	1042.8155	1062.4332	1079.8575	1106.0508	1137.7984	1152.2078	1177.7562	1210.5678	1280.512	1288.0928	1310.8049	1317.2253	1325.1206	1353.1822	1373.4074	1389.9975	1403.9351	1410.6469	1413.8445	1479.0287	1484.554	1488.845	1491.5056	1497.4368	1499.6558	1503.2644	1509.1601	1721.9668	2982.2269	2994.2251	3010.4525	3015.2344	3015.6243	3029.3012	3032.4732	3048.3118	3054.5835	3060.3609	3096.0345	3098.6306	3101.2763	3104.4744	3105.7108	3175.5222
CCC1CC=C(C)C1C	CC[C@H]1CC=C(C)[C@H]1C	
InChI=1S/C9H16/c1-4-9-6-5-7(2)8(9)3/h5,8-9H,4,6H2,1-3H3	InChI=1S/C9H16/c1-4-9-6-5-7(2)8(9)3/h5,8-9H,4,6H2,1-3H3/t8-,9+/m1/s1
