19
gdb 33454	2.78068	1.34316	1.04686	1.2175	81.63	-0.2425	0.0441	0.2866	1186.1764	0.158164	-385.824173	-385.815328	-385.814384	-385.85809	33.288	
C	 0.3771541613	-1.2377631711	-0.2224361101	-0.441009
C	 0.1988183884	-0.0544353439	-0.0943312442	 0.256751
C	-0.0605853416	 1.3541004262	 0.023434002	 0.151497
C	 0.161171131	 2.0273610257	 1.36799671	-0.300191
C	 1.1108642497	 2.299633815	 0.2373991896	-0.304621
C	-1.2071164824	 1.8322376133	-0.8553657791	 0.049988
C	-2.650382594	 1.4851517405	-0.4222643155	-0.280145
C	-2.8598826436	 3.0110670721	-0.4136712458	-0.0678
O	-1.4647349079	 3.2474881982	-0.7160110107	-0.295039
H	 0.5483577651	-2.2803087685	-0.3267629682	 0.190096
H	-0.5312610786	 2.8185449484	 1.6306910709	 0.127534
H	 0.4931022073	 1.4016288581	 2.187448512	 0.122026
H	 2.1018902459	 1.8637715329	 0.2710095466	 0.124156
H	 1.0372812844	 3.2656671925	-0.2482746233	 0.138838
H	-0.984211948	 1.577678515	-1.9000954196	 0.084128
H	-3.2430654421	 0.9202716868	-1.1420697359	 0.113952
H	-2.7140065861	 1.0075897614	 0.5564746813	 0.118326
H	-3.5116738489	 3.3987646872	-1.2059323866	 0.105368
H	-3.15215308	 3.4632336301	 0.5408084365	 0.106146
65.3396	86.5337	132.476	200.7759	224.43	255.2769	389.3498	446.2152	514.3662	557.0453	584.7418	650.6785	661.5198	774.889	792.1046	826.9666	885.9299	890.2124	949.4988	955.1044	958.5179	1013.0874	1029.5513	1066.7861	1074.1146	1090.2667	1112.9718	1168.8047	1199.7992	1216.0689	1255.4107	1265.0216	1283.6312	1314.0422	1359.9515	1382.446	1449.6183	1484.9101	1490.1538	1530.7664	2231.1093	3011.5964	3022.2964	3063.456	3087.523	3144.4255	3145.1978	3147.0529	3233.339	3246.5994	3503.8346
C#CC1(CC1)C1CCO1	C#CC1(CC1)[C@H]1CCO1	
InChI=1S/C8H10O/c1-2-8(4-5-8)7-3-6-9-7/h1,7H,3-6H2	InChI=1S/C8H10O/c1-2-8(4-5-8)7-3-6-9-7/h1,7H,3-6H2/t7-/m1/s1
