15
gdb 54070	2.34937	1.13704	0.81606	6.1857	69.45	-0.2611	-0.0157	0.2454	1338.5931	0.111977	-450.159575	-450.150145	-450.149201	-450.195114	32.849	
N	 0.0126515517	 1.2877142992	 0.5493264003	-0.51112
C	 0.0415864015	 0.0986156432	 0.1017576974	 0.369782
N	 1.1252986323	-0.6499599978	-0.2840609505	-0.536971
H	 0.9683209775	-1.4242431147	-0.9128439107	 0.275702
H	 1.9893406692	-0.155651685	-0.4464904804	 0.26465
C	-1.2948045599	-0.6723172081	 0.0406326908	-0.165486
N	-2.3727337107	 0.1775111597	 0.4684647085	-0.251845
C	-3.5642475098	-0.2832057434	 0.9509201647	 0.166303
O	-4.4325076208	 0.416649449	 1.4131957443	-0.311598
C	-1.488734424	-1.2097595373	-1.3264373803	 0.275411
N	-1.6116570347	-1.658413162	-2.3842892449	-0.315627
H	 0.9319925021	 1.7275588709	 0.5715663266	 0.224097
H	-2.1182816588	 1.1514391581	 0.5995892961	 0.28104
H	-1.1957350056	-1.5429979768	 0.7049542685	 0.161883
H	-3.6543584901	-1.3863274347	 0.8629186697	 0.073779
35.5405	64.2145	143.854	150.1402	163.9562	266.4968	362.4654	382.7811	399.6486	461.5833	501.5354	518.6971	563.5884	636.5651	652.6878	727.2733	853.8198	913.4199	961.5806	1048.4492	1097.2162	1116.3383	1187.7951	1239.1232	1267.637	1344.9528	1400.9325	1419.4323	1477.8921	1651.716	1749.7432	1829.7956	2352.7285	2915.9196	3010.1239	3489.6089	3541.2967	3571.4525	3680.2036
NC(=[NH2+])C([N-]C=O)C#N	N=C(N)[C@@H](NC=O)C#N	
InChI=1S/C4H6N4O/c5-1-3(4(6)7)8-2-9/h2-3H,(H4,6,7,8,9)	InChI=1S/C4H6N4O/c5-1-3(4(6)7)8-2-9/h2-3H,(H3,6,7)(H,8,9)/t3-/m0/s1
