16
gdb 91312	2.2784	1.87737	1.26758	3.9066	67.65	-0.2747	-0.0115	0.2633	987.8344	0.124711	-437.851268	-437.843581	-437.842637	-437.883713	29.208	
O	 0.4745441802	 0.9063378305	-0.86476345	-0.426384
C	 0.0885828873	-0.1573122332	-0.052641615	 0.139239
C	 0.0314451285	-0.0238744159	 1.5069730709	-0.298753
C	-1.328585189	-0.7605189422	 1.4955031871	 0.116254
O	-2.4522640373	 0.1491911196	 1.5999908859	-0.286235
C	-2.5450023714	 0.2664750424	 0.1672880001	-0.034994
C	-2.3951279296	 1.6533535986	-0.2936805734	 0.294822
N	-2.2606116293	 2.7485773959	-0.6400098158	-0.332193
C	-1.3680118176	-0.7196236812	-0.0611110892	-0.142931
H	-0.0525958414	 1.6865614091	-0.6559088195	 0.300607
H	 0.7531570215	-0.9842868775	-0.3213340455	 0.10533
H	 0.8496765801	-0.5089250265	 2.0430240224	 0.114454
H	-0.0758761165	 1.0012785351	 1.8705119752	 0.125485
H	-1.4646615693	-1.6529213395	 2.1066727403	 0.095136
H	-3.5060003703	-0.1142008407	-0.1988801136	 0.135732
H	-1.591487206	-1.5609429345	-0.7145076698	 0.094433
68.3132	145.1316	193.7274	263.9743	357.9712	400.7662	431.1733	468.8699	550.3894	614.9517	634.8518	743.2981	767.9294	860.7591	889.3032	940.3284	956.4406	1001.3276	1021.0785	1037.4101	1076.7153	1105.7693	1160.9669	1175.2826	1198.299	1209.1916	1263.3173	1287.8861	1308.44	1327.0804	1331.1489	1359.5379	1444.8323	1469.1338	2345.2055	3035.964	3062.0022	3069.7301	3110.6354	3129.0786	3133.0907	3790.3965
OC1CC2OC(C#N)C12	O[C@H]1C[C@H]2O[C@@H](C#N)[C@@H]12	
InChI=1S/C6H7NO2/c7-2-5-6-3(8)1-4(6)9-5/h3-6,8H,1H2	InChI=1S/C6H7NO2/c7-2-5-6-3(8)1-4(6)9-5/h3-6,8H,1H2/t3-,4+,5-,6-/m0/s1
