19
gdb 75960	2.11711	1.89366	1.04377	0.9874	78.57	-0.2519	-0.0099	0.242	1139.6238	0.161749	-419.271581	-419.263226	-419.262282	-419.304788	31.71	
C	-0.0253991178	 1.4548393277	 0.1056724389	-0.376285
N	-0.0075477964	-0.003003372	 0.0068970423	-0.159869
C	-1.2448769678	-0.6809963185	-0.013048744	 0.3809
N	-2.383278506	-0.1210227545	 0.1055481873	-0.517831
C	-1.1922884979	-2.1782865461	-0.2136877676	-0.260315
C	 0.0263483905	-2.8062762884	 0.4581462561	-0.234306
C	 1.2803882556	-2.139950593	-0.0988218266	-0.303535
C	 1.2489962278	-0.6222891768	-0.0351972831	 0.412689
O	 2.2734147015	 0.0285930434	-0.0278746464	-0.35923
H	 1.0054593583	 1.798252949	 0.0672191035	 0.176331
H	-0.5889134467	 1.8880271255	-0.7267482385	 0.137682
H	-0.4810604693	 1.7752530685	 1.0485180834	 0.137657
H	-2.3172126258	 0.8896818161	 0.210106662	 0.21547
H	-2.1368816436	-2.5824950794	 0.1517202584	 0.135108
H	-1.152360271	-2.3781391237	-1.2936079155	 0.121544
H	-0.0277415818	-2.6635941614	 1.5439994667	 0.114777
H	 0.0533344145	-3.8850273002	 0.2788760062	 0.109765
H	 2.1943367367	-2.4483957724	 0.4132724219	 0.135821
H	 1.409271099	-2.4094449038	-1.1559720251	 0.133627
71.7654	93.7948	202.8763	220.8502	285.5826	378.633	396.9432	448.3326	464.4207	544.5763	563.0468	624.4361	657.9108	693.6754	872.4718	884.2791	887.5153	930.0466	937.126	1050.9124	1079.517	1093.9972	1135.4526	1153.6714	1169.2636	1207.9082	1232.7824	1278.1645	1324.03	1355.3526	1358.1759	1375.7945	1397.4396	1443.2923	1461.5856	1479.7943	1501.3819	1505.792	1512.3962	1703.5774	1783.9022	3018.9242	3027.8696	3036.6575	3041.9924	3088.2234	3094.3679	3111.0596	3127.5437	3183.4654	3507.0303
CN1C(=N)CCCC1=O	CN1[C]([NH])CCCC1=O	
InChI=1S/C6H10N2O/c1-8-5(7)3-2-4-6(8)9/h7H,2-4H2,1H3	InChI=1S/C6H10N2O/c1-8-5(7)3-2-4-6(8)9/h7H,2-4H2,1H3
