15
gdb 128306	4.65174	0.94833	0.79482	3.6577	78.11	-0.2144	-0.0383	0.1761	1364.0447	0.114744	-413.018497	-413.010144	-413.0092	-413.051821	30.025	
C	 0.0341516989	 1.3784450651	 0.1719793675	-0.328842
N	-0.1772071104	-0.024275816	-0.1349600459	-0.377757
C	 0.548190984	-0.612953729	-1.1484441802	 0.433311
N	 0.7089617309	-1.9422575381	-1.1819635263	-0.301524
N	 1.4008059895	-2.1767344463	-2.3102445273	-0.273466
C	 1.6968895641	-1.0395663746	-2.9918009919	 0.313224
C	 1.1582445375	 0.0108149718	-2.2630500595	-0.405403
C	 2.4251202092	-1.0537245576	-4.2038553682	 0.225459
N	 3.0236151633	-1.0814730362	-5.1953045955	-0.338407
H	 1.0778748108	 1.6241789991	 0.4217736679	 0.118468
H	-0.2672195386	 1.9995333133	-0.6781043941	 0.136898
H	-0.5997655251	 1.6534607537	 1.0174573178	 0.132624
H	-0.2823107961	-0.6298362834	 0.6656861724	 0.248009
H	 1.6502631181	-3.1200154417	-2.5551416127	 0.289755
H	 1.2052258641	 1.0557798997	-2.515454184	 0.127651
90.3043	118.3145	138.1172	179.7629	233.7517	332.7911	433.7243	439.2557	512.4968	534.1397	566.7592	606.6013	686.8006	715.2581	752.1664	801.0056	988.1154	1041.0833	1086.6574	1153.7357	1162.4581	1193.5191	1225.8701	1297.2819	1384.6029	1446.6897	1462.6757	1488.2547	1502.6843	1520.1725	1554.7869	1616.4543	2345.4413	2985.0763	3069.5513	3125.4328	3288.252	3609.1483	3677.6932
CNC1=NNC(=C1)C#N	CNc1n[nH]c(c1)C#N	
InChI=1S/C5H6N4/c1-7-5-2-4(3-6)8-9-5/h2H,1H3,(H2,7,8,9)	InChI=1S/C5H6N4/c1-7-5-2-4(3-6)8-9-5/h2H,1H3,(H2,7,8,9)
