18
gdb 70531	2.71903	1.53996	1.14465	2.1191	72.53	-0.2584	0.0245	0.2829	1088.0965	0.148071	-439.087829	-439.079811	-439.078866	-439.120357	30.989	
C	-0.1837923609	 1.4691390675	 0.0385278761	-0.474704
C	 0.0445071004	-0.0202456432	 0.0367138787	 0.401267
C	-0.9846902232	-0.897311771	-0.6758673097	-0.365915
C	-1.7925798588	-1.7130473292	 0.3091031994	 0.394486
N	-3.0468851977	-1.8408010442	 0.1906519785	-0.515215
O	-1.106590473	-2.2887717182	 1.3381575706	-0.247732
C	 0.3246848708	-2.1386219951	 1.3826842048	-0.116
C	 0.7514714535	-0.7057040742	 1.1297576131	-0.045595
O	 1.405308497	-0.4486742817	-0.1189498889	-0.287062
H	 0.586540024	 1.9793726015	 0.6217251556	 0.129862
H	-0.1572245361	 1.8605210775	-0.9842329433	 0.133932
H	-1.1650904789	 1.7062964648	 0.4624473783	 0.136787
H	-1.6840333569	-0.3183283597	-1.2788298339	 0.137678
H	-0.4430801396	-1.5742300329	-1.3468176242	 0.140914
H	-3.4111382817	-2.4353262404	 0.9384305109	 0.218656
H	 0.6075170005	-2.4809932446	 2.3796106623	 0.126593
H	 0.7955418184	-2.7935579512	 0.6403273229	 0.128737
H	 1.1397763924	-0.1371238357	 1.9724475389	 0.103308
85.4453	148.5339	208.4028	236.2298	332.2844	370.8471	426.4321	457.0523	492.3999	494.2708	578.4051	661.542	781.5661	815.1266	836.0208	909.1468	915.2069	941.26	951.5393	1015.3943	1051.3418	1076.4595	1091.5205	1110.2199	1138.4899	1182.7286	1251.5666	1270.0731	1304.8654	1328.3003	1340.813	1410.6798	1415.2936	1456.3563	1469.0272	1485.5546	1498.9082	1500.1712	1751.0982	3036.9209	3040.5699	3049.4531	3102.1605	3115.1207	3126.2836	3134.9775	3138.7753	3460.6437
CC12CC(=N)OCC1O2	C[C@]12C[C]([NH])OC[C@H]1O2	
InChI=1S/C6H9NO2/c1-6-2-5(7)8-3-4(6)9-6/h4,7H,2-3H2,1H3	InChI=1S/C6H9NO2/c1-6-2-5(7)8-3-4(6)9-6/h4,7H,2-3H2,1H3/t4-,6+/m1/s1
