21
gdb 121883	2.1442	1.06259	0.96137	4.9723	75.01	-0.2362	0.0228	0.2591	1391.7611	0.18319	-457.571338	-457.56122	-457.560276	-457.607284	36.605	
C	 0.1658836283	 1.0510386027	-0.5088441555	-0.395407
C	-0.2629903193	-0.3767606488	-0.1867396375	-0.117015
N	-1.481017333	-0.3771657096	 0.6315991891	-0.298754
H	-1.3589819132	 0.2668436694	 1.4046912404	 0.220635
H	-3.3703508665	-0.6703448825	-0.525687015	 0.246851
C	-1.8939106588	-1.6792994906	 1.1505896934	-0.179367
C	-2.7046011538	-2.4738626621	 0.0997928751	-0.118612
N	-3.6650301909	-1.6410465957	-0.6377782605	-0.53453
C	-1.7702013464	-3.1998741298	-0.895650889	 0.43802
O	-0.8309039542	-3.8655048879	-0.5436009303	-0.353182
O	-2.1200884394	-3.0272610643	-2.1736314011	-0.374901
H	 1.0541415147	 1.0522931769	-1.1464375315	 0.125369
H	-0.6329344916	 1.5909493543	-1.0263007263	 0.123226
H	 0.4122729934	 1.6057803243	 0.4045158442	 0.111545
H	-0.4697118109	-0.9120577707	-1.1196875555	 0.12837
H	 0.5616390714	-0.9193055779	 0.3056667459	 0.098389
H	-1.0538711463	-2.3103134247	 1.476570836	 0.124345
H	-2.5399720649	-1.4994096296	 2.016120595	 0.094064
H	-3.2325128741	-3.2774754961	 0.624430214	 0.113963
H	-2.9138025121	-2.4399411278	-2.1219992599	 0.305518
H	-4.6042187324	-1.7339608395	-0.2704526611	 0.241471
53.7134	78.8167	85.1275	104.2871	217.8948	245.3004	283.1909	317.7074	356.1707	373.6666	429.1814	521.2543	576.644	597.6036	734.3487	778.7045	806.7934	840.6659	873.2424	906.6642	929.7199	987.3792	1001.8362	1053.1904	1096.0627	1140.1982	1156.4343	1161.8093	1201.9403	1228.4724	1273.0976	1302.2498	1319.3126	1378.6938	1390.6806	1396.9463	1416.5512	1448.3854	1483.8117	1489.9337	1497.3429	1502.8282	1524.4784	1642.178	1860.8681	2963.2142	3001.9317	3031.0701	3057.6719	3064.7572	3072.4613	3100.1313	3120.3777	3371.8189	3446.7228	3532.0732	3583.4233
CC[NH2+]CC(N)C([O-])=O	CCNC[C@@H](N)C(=O)O	
InChI=1S/C5H12N2O2/c1-2-7-3-4(6)5(8)9/h4,7H,2-3,6H2,1H3,(H,8,9)	InChI=1S/C5H12N2O2/c1-2-7-3-4(6)5(8)9/h4,7H,2-3,6H2,1H3,(H,8,9)/t4-/m1/s1
