16
gdb 126088	3.157	1.60363	1.13224	3.514	70.68	-0.2435	-0.0083	0.2353	1038.0432	0.126603	-434.053671	-434.046281	-434.045337	-434.085849	27.614	
C	 0.1055248762	 1.5623250316	-0.0840273854	-0.385556
C	-0.0438470644	 0.0562347984	 0.09041533	 0.028256
O	 0.5207668538	-0.6278843389	-1.0651929592	-0.29756
C	 1.476449684	-1.6411774224	-0.7198702082	-0.175442
C	 1.5845705688	-1.4968251524	 0.7593752082	 0.297915
C	 0.7271761757	-0.5461217241	 1.2232265154	 0.265685
N	 0.8391673617	-0.4419763424	 2.5700249118	-0.292377
N	 1.7420244984	-1.2972415843	 2.9676239218	-0.119596
N	 2.2060085949	-1.9519635585	 1.8620527967	-0.32765
H	 1.1617189053	 1.8388631583	-0.1434982374	 0.120917
H	-0.3964224664	 1.8883241248	-0.9988814219	 0.126101
H	-0.3447416991	 2.0819323394	 0.767440755	 0.132439
H	-1.1114913312	-0.2016045726	 0.1442271453	 0.099686
H	 1.1069862269	-2.6299419354	-1.0302297605	 0.121079
H	 2.4172013877	-1.4522768209	-1.2548149383	 0.124003
H	 2.9159498077	-2.6564594706	 1.9801983967	 0.282099
78.5487	155.5098	218.9595	228.9042	300.237	448.4767	467.0185	551.5651	599.3578	679.4935	707.7329	746.3919	786.7236	851.9346	991.5701	1004.4144	1034.6881	1038.6923	1060.0186	1078.26	1116.6001	1181.2957	1191.6538	1235.3452	1293.5625	1344.2192	1370.8921	1372.4825	1404.1313	1424.8292	1485.3747	1493.804	1520.7794	1536.9744	1610.488	2989.3186	2996.7949	3020.1036	3043.6769	3121.147	3126.9518	3663.3516
CC1OCC2=C1N=NN2	C[C@H]1OCc2c1nn[nH]2	
InChI=1S/C5H7N3O/c1-3-5-4(2-9-3)6-8-7-5/h3H,2H2,1H3,(H,6,7,8)	InChI=1S/C5H7N3O/c1-3-5-4(2-9-3)6-8-7-5/h3H,2H2,1H3,(H,6,7,8)/t3-/m1/s1
