19
gdb 50519	2.4491	1.3464	1.03486	3.1729	75.55	-0.2502	-0.029	0.2212	1191.9802	0.158332	-422.995705	-422.987015	-422.986071	-423.030386	31.283	
O	-0.672974089	 0.3692632505	-0.2865507138	-0.256062
C	-0.2280263973	 1.4875742948	-0.2454941709	 0.169519
C	 1.203707858	 1.838344364	 0.0558586299	-0.16534
C	 1.7532758126	 2.9755901506	-0.8656613958	-0.240808
C	 1.524955039	 3.9970401376	 0.278221851	-0.293209
C	 1.3443392498	 2.8216515952	 1.2668703351	 0.287371
C	 0.3867624015	 2.8643834736	 2.4735080163	-0.142455
O	 1.4707148744	 2.6818042224	 3.4048557242	-0.269866
C	 2.4250163329	 2.5468352178	 2.3353151265	-0.125586
H	-0.8869052985	 2.369682312	-0.4358690089	 0.068924
H	 1.7853267205	 0.9161934546	 0.1213849909	 0.091585
H	 2.8085072582	 2.8229310285	-1.1004462568	 0.119424
H	 1.2137917875	 3.1475161904	-1.8004397029	 0.111801
H	 2.334229787	 4.6990375287	 0.4958722688	 0.109433
H	 0.601037058	 4.569643863	 0.1492566317	 0.110051
H	-0.1355334375	 3.8176287345	 2.6278009158	 0.103873
H	-0.3421849527	 2.04435462	 2.5274556426	 0.112977
H	 2.8683439049	 1.5424142138	 2.3039895949	 0.105104
H	 3.2286568008	 3.292303648	 2.4004322313	 0.103264
50.0043	69.7702	79.7687	169.7353	269.2119	296.9536	363.7048	418.6365	465.785	498.2189	719.0892	845.9056	858.0468	868.7861	883.9271	937.4276	953.1032	962.183	972.8968	1004.1863	1045.0597	1051.1128	1149.5167	1155.6035	1162.4455	1172.1809	1190.301	1204.0372	1229.4324	1255.6562	1272.5886	1294.8228	1300.2847	1313.2427	1384.1574	1435.7492	1480.2506	1495.8075	1505.4307	1531.036	1828.0599	2835.0966	2994.1572	3006.2176	3043.2606	3044.8172	3051.2774	3067.2636	3090.2597	3099.152	3123.9536
O=CC1CCC11COC1	O=C[C@H]1CCC21COC2	
InChI=1S/C7H10O2/c8-3-6-1-2-7(6)4-9-5-7/h3,6H,1-2,4-5H2	InChI=1S/C7H10O2/c8-3-6-1-2-7(6)4-9-5-7/h3,6H,1-2,4-5H2/t6-/m1/s1
