15
gdb 48745	4.50599	1.24158	1.16006	3.5294	66.27	-0.258	-0.0532	0.2048	1040.1929	0.11136	-457.685874	-457.678689	-457.677745	-457.717787	26.993	
O	-0.1988362195	 0.2916414366	-0.8380879651	-0.247416
C	 0.0238858517	 1.069096518	 0.0541019655	 0.051342
C	 1.2517198281	 1.8911211373	 0.1690285131	 0.303243
O	 2.0864368271	 2.0730619432	-0.9708007342	-0.233597
C	 2.6839070215	 1.4323966206	 0.1332524761	-0.040327
C	 3.063470195	 2.5166444967	 1.1892715761	 0.093305
O	 3.5286884595	 3.7606227455	 0.6591094821	-0.280109
C	 2.1814150356	 4.3079920866	 0.6375973581	-0.084279
C	 1.5948939851	 2.9941188822	 1.2034462561	-0.195988
H	-0.6860612484	 1.2154129589	 0.8991396645	 0.07996
H	 3.0833793042	 0.4358528094	-0.0245631746	 0.12858
H	 3.6125138225	 2.1609693042	 2.0641370252	 0.093012
H	 2.0981623022	 5.1659075417	 1.3134113951	 0.108573
H	 1.867506524	 4.5866574817	-0.3717450814	 0.125696
H	 0.9928053316	 3.0160824275	 2.1096675535	 0.098003
90.4407	168.1475	184.9381	265.1293	327.8463	385.2981	501.2788	645.1351	718.297	749.872	799.7829	847.9251	860.4459	893.0808	920.1527	944.8676	987.6705	1009.9472	1029.1705	1052.2252	1076.7818	1120.1387	1160.7572	1167.5726	1218.1241	1240.8321	1282.2633	1297.5238	1352.3933	1402.8404	1430.8888	1505.7336	1816.9933	2879.0233	3039.1386	3089.3157	3101.6179	3139.0478	3178.5776
O=CC12OC1C1OCC21	O=C[C@]12O[C@H]1[C@H]1OC[C@@H]21	
InChI=1S/C6H6O3/c7-2-6-3-1-8-4(3)5(6)9-6/h2-5H,1H2	InChI=1S/C6H6O3/c7-2-6-3-1-8-4(3)5(6)9-6/h2-5H,1H2/t3-,4+,5+,6-/m1/s1
