19
gdb 72027	2.75722	2.03694	1.81706	1.2558	76.36	-0.2354	0.0766	0.312	863.7194	0.162418	-385.87065	-385.864327	-385.863382	-385.900733	28.157	
O	-0.0573603462	 1.376642271	-0.0195463986	-0.50836
C	 0.0152201046	-0.0145928026	-0.0604496131	 0.425552
C	 0.8528123956	-0.7142359556	-1.1480723354	-0.278314
C	 0.6896759358	-2.1281944342	-0.5453363991	-0.05285
C	 1.3379224091	-1.9231635292	 0.8489858979	-0.218653
C	 0.3494378308	-0.8334307249	 1.2894591845	-0.121688
C	-1.0330035288	-1.5012254228	 1.1534486576	-0.071686
C	-0.8347094661	-2.1668163492	-0.1991978596	-0.062139
C	-1.3409147854	-0.7368719432	-0.1065196208	-0.107257
H	 0.8378653374	 1.7223180068	 0.0615377194	 0.275936
H	 0.3999648215	-0.598639355	-2.1375004482	 0.096188
H	 1.8990750047	-0.387538353	-1.1880224645	 0.078444
H	 1.0548717982	-2.9624006444	-1.1432286483	 0.058984
H	 1.2884768935	-2.8123338492	 1.4855189872	 0.092627
H	 2.3799114131	-1.5912883404	 0.7830837166	 0.084309
H	 0.5567925902	-0.2339784737	 2.1743276639	 0.062542
H	-1.6893101432	-1.8654018543	 1.9341127716	 0.079811
H	-1.4882804597	-2.9636128371	-0.5281419613	 0.082796
H	-2.2731910449	-0.363095099	-0.5111332999	 0.083759
250.369	281.5636	347.4106	440.6106	466.1763	546.8567	584.9456	644.3156	667.7252	774.2745	775.832	802.0433	836.7911	877.9498	897.9298	907.234	919.3567	927.9526	954.7603	969.7919	1003.7526	1012.6621	1036.6107	1053.6733	1069.2866	1097.9501	1113.9026	1141.8384	1162.0611	1192.4365	1231.6742	1240.5004	1248.4551	1262.3536	1277.6436	1309.0001	1322.8024	1367.73	1402.5625	1480.5355	1501.3157	3029.2548	3040.773	3088.0565	3093.3959	3121.04	3131.8578	3180.285	3191.0581	3207.8389	3806.8797
OC12CC3CC1C1C3C21	O[C@@]12C[C@H]3C[C@@H]1[C@@H]1[C@H]3[C@H]21	
InChI=1S/C8H10O/c9-8-2-3-1-4(8)6-5(3)7(6)8/h3-7,9H,1-2H2	InChI=1S/C8H10O/c9-8-2-3-1-4(8)6-5(3)7(6)8/h3-7,9H,1-2H2/t3-,4-,5+,6-,7+,8+/m1/s1
