19
gdb 41769	2.46321	1.86564	1.39074	1.4736	80.54	-0.2336	-0.0033	0.2303	995.6186	0.1619	-385.868038	-385.860604	-385.859659	-385.899909	29.467	
C	 0.1504723531	 1.5354994641	 0.290364396	-0.074706
O	 1.5603786439	 1.4357642569	 0.0083793496	-0.290426
C	 1.3811222136	 0.1194437678	-0.5889548889	 0.085092
C	 2.4561798587	-0.8669423098	-0.2555736598	-0.056033
C	 2.7683891799	-1.2427950873	 0.9843105384	-0.055904
C	 2.0470563711	-0.7570933502	 2.2228628533	-0.316456
C	 0.5765219309	-1.130442545	 2.1997517937	-0.068601
C	-0.2985924566	-0.8195709294	 1.2416150036	-0.048215
C	-0.0595781372	 0.0200935023	 0.0191326009	-0.122488
H	-0.0411529947	 1.8804506186	 1.3111893481	 0.107092
H	-0.3654797598	 2.1948338471	-0.4222460026	 0.094547
H	 1.3113822591	 0.2268236794	-1.6805694144	 0.068671
H	 3.0046418636	-1.2884736382	-1.0937464701	 0.085628
H	 3.5732885083	-1.9591118044	 1.1300351588	 0.095435
H	 2.5146832569	-1.1801880423	 3.115174688	 0.098991
H	 2.1572362585	 0.3316057858	 2.2939540747	 0.145059
H	 0.2208024964	-1.7224162923	 3.0395385589	 0.090393
H	-1.320914064	-1.1739255457	 1.3576363606	 0.08483
H	-0.8253270119	-0.1966319274	-0.7289945087	 0.077092
96.1717	136.8227	257.7592	267.2008	327.3044	392.1214	524.8782	564.9578	636.7906	690.4336	724.4532	761.104	801.5123	828.2625	894.7722	905.2412	971.6215	973.6767	992.4534	997.4994	1004.2375	1012.3157	1064.0119	1086.3155	1124.3206	1171.7376	1217.0127	1221.1539	1250.3939	1263.0406	1281.7779	1338.3562	1346.9356	1371.6634	1385.9516	1424.579	1427.8877	1480.7553	1522.7399	1716.0597	1723.3228	2991.9907	2999.5517	3037.8437	3072.1166	3080.8958	3091.3532	3134.7898	3145.9968	3161.4015	3170.1953
C1OC2C=CCC=CC12	C1O[C@H]2C=CCC=C[C@@H]12	
InChI=1S/C8H10O/c1-2-4-7-6-9-8(7)5-3-1/h2-5,7-8H,1,6H2	InChI=1S/C8H10O/c1-2-4-7-6-9-8(7)5-3-1/h2-5,7-8H,1,6H2/t7-,8-/m0/s1
