18
gdb 57509	3.033	1.03085	0.93008	4.765	74.52	-0.305	-0.0633	0.2417	1324.9739	0.144056	-439.133466	-439.123414	-439.12247	-439.168321	36.161	
C	-0.0805016869	 1.5719933471	 0.0777687896	-0.421259
C	 0.0340237177	 0.0466904912	 0.0680321641	 0.35202
C	 0.6967405597	-0.5030552837	 1.3322945049	-0.421256
C	-1.3232763882	-0.6098806752	-0.1770956291	-0.404255
O	 0.8129027536	-0.3826149633	-1.1245621968	-0.276379
C	 2.0728455914	-0.0123304431	-1.2942756117	 0.356563
O	 2.7654826132	 0.6738889526	-0.590140527	-0.343643
C	 2.5794242002	-0.5850685646	-2.5549609366	 0.261653
N	 3.0293975176	-1.0071181303	-3.531293926	-0.307719
H	 0.8874541858	 2.0446248629	 0.2453574326	 0.15496
H	-0.4946589381	 1.9313379239	-0.8687595916	 0.127718
H	-0.7597099667	 1.8735650134	 0.8806647053	 0.125331
H	 0.0532261946	-0.294171304	 2.1920488936	 0.125365
H	 0.8222308856	-1.5872232	 1.2588884128	 0.127724
H	 1.6695003908	-0.0427554605	 1.5062691386	 0.154917
H	-1.7647073554	-0.2511391321	-1.1105841988	 0.131266
H	-1.2231730213	-1.6967835856	-0.2368896585	 0.131272
H	-2.0042893536	-0.3688989489	 0.6437499145	 0.125722
64.8614	109.8601	131.6313	199.0464	230.0429	253.6379	261.0298	303.0035	315.5181	359.0403	374.5918	420.235	465.5876	535.9827	611.6935	759.1698	778.5177	842.0703	920.5167	928.0629	935.3278	971.5019	1054.3508	1060.8195	1189.4831	1269.4547	1279.1779	1291.2157	1401.1571	1404.8105	1430.9426	1468.7187	1487.4836	1489.743	1496.489	1501.4531	1524.7233	1805.9153	2357.86	3047.1202	3048.567	3054.909	3115.2546	3116.9866	3127.3296	3129.0602	3153.0786	3156.3433
CC(C)(C)OC(=O)C#N	CC(C)(C)OC(=O)C#N	
InChI=1S/C6H9NO2/c1-6(2,3)9-5(8)4-7/h1-3H3	InChI=1S/C6H9NO2/c1-6(2,3)9-5(8)4-7/h1-3H3
