25
gdb 89480	2.6105	1.46462	1.28321	0.1056	91.16	-0.2776	0.076	0.3536	1169.8443	0.231793	-352.394415	-352.385808	-352.384863	-352.426892	35.631	
C	-0.2623619782	 1.5445562216	-0.0032589244	-0.420719
C	 0.0350758143	 0.0453326572	 0.0030181024	 0.059741
C	 0.773616015	-0.4845348	-1.2707942038	-0.257488
C	 1.948660163	-1.3294658686	-0.7082775802	 0.351182
C	 2.5156164029	-2.3493050146	-1.6832821793	-0.482613
C	 2.9964539483	-0.3370152127	-0.1393942478	-0.233088
C	 2.3081094073	 0.2366532025	 1.138409191	-0.220515
C	 0.9389783254	-0.4807216162	 1.1497979511	-0.015523
C	 1.3225652693	-1.8694775958	 0.6020812397	-0.251257
H	 0.6410297454	 2.1424584418	-0.1628862896	 0.114449
H	-0.9627392997	 1.7965717095	-0.8069719257	 0.11086
H	-0.7139816587	 1.8668425373	 0.9419409753	 0.108344
H	-0.9249411223	-0.4786269048	 0.0907366932	 0.064681
H	 0.1104075626	-1.1010803182	-1.887033605	 0.086147
H	 1.135193327	 0.33067662	-1.9079202795	 0.086508
H	 2.9370121469	-1.8606536943	-2.5696609731	 0.109935
H	 3.315416977	-2.9394574267	-1.2214696237	 0.10751
H	 1.741645709	-3.0445710917	-2.0277290571	 0.107438
H	 3.9226520185	-0.8641250717	 0.1137045521	 0.087479
H	 3.256704342	 0.4377279337	-0.8680002385	 0.088228
H	 2.8760458626	-0.0202777271	 2.0379730557	 0.091986
H	 2.2181561124	 1.3254083258	 1.1235602423	 0.093877
H	 0.4452952403	-0.4638460972	 2.1248090153	 0.047843
H	 0.4594306211	-2.5212327362	 0.427683834	 0.082896
H	 2.0435504086	-2.4036429036	 1.2308782756	 0.082097
100.2859	217.0771	225.744	233.5986	284.0261	300.6508	372.8834	403.9136	453.555	471.682	527.5955	590.323	720.309	785.4615	803.9832	825.4601	876.9301	892.7404	910.0312	922.7819	946.7153	958.3144	970.9833	998.3607	1014.1582	1063.6143	1075.2487	1085.3057	1114.1455	1147.1423	1173.2487	1192.3798	1211.6185	1238.4999	1264.0845	1271.0352	1284.8821	1289.279	1314.0718	1333.2018	1351.213	1363.5157	1381.4052	1408.7345	1412.6484	1485.1681	1490.3656	1492.1747	1492.8917	1496.2199	1499.1044	1506.982	1524.5977	3012.5045	3018.5544	3024.8684	3030.3473	3033.1885	3038.4629	3053.842	3068.6707	3074.8192	3080.0307	3080.9121	3083.2016	3087.5951	3089.9477	3093.9556	3104.2881
CC1CC2(C)CCC1C2	C[C@H]1C[C@@]2(C)CC[C@@H]1C2	
InChI=1S/C9H16/c1-7-5-9(2)4-3-8(7)6-9/h7-8H,3-6H2,1-2H3	InChI=1S/C9H16/c1-7-5-9(2)4-3-8(7)6-9/h7-8H,3-6H2,1-2H3/t7-,8+,9+/m0/s1
