16
gdb 6431	4.77025	1.28491	1.22217	0.2123	66.67	-0.2581	-0.0323	0.2258	1001.0455	0.127474	-383.762417	-383.754283	-383.753339	-383.795227	29.567	
C	-0.1710188643	 1.6474661195	-0.0098455529	-0.452472
C	 0.0078090078	 0.1344479716	 0.0163024731	 0.209379
C	 1.1768841703	-0.3869291273	-0.899558918	-0.38851
C	 2.0267533524	-0.5470439163	 0.3691939545	 0.413301
O	 3.1976649512	-0.6560745976	 0.5748389019	-0.279098
C	 0.7946697255	-0.3944977364	 1.2727455454	-0.388494
C	-1.2876510539	-0.6040393417	-0.2141178443	 0.123912
O	-2.3590563457	-0.089407554	-0.4006288639	-0.250392
H	 0.7834549241	 2.1560849248	 0.1592431804	 0.118723
H	-0.5703631558	 1.9732352313	-0.9739975667	 0.135945
H	-0.8748967805	 1.9672735971	 0.7631157848	 0.135928
H	 0.9635528114	-1.3636559197	-1.3512677409	 0.135152
H	 1.5458640258	 0.2870208938	-1.6760998912	 0.140677
H	 0.8756039277	 0.2737912782	 2.1330934858	 0.140679
H	 0.4411040568	-1.3739990686	 1.617861981	 0.135155
H	-1.1789905927	-1.7160869145	-0.1989887289	 0.070117
63.7276	90.9307	202.5316	253.627	296.084	340.9498	355.2465	405.8005	467.3895	494.9607	687.1913	705.7996	751.456	851.6451	874.7289	924.4275	970.4719	991.3251	1053.4006	1081.6611	1132.3292	1158.4906	1168.5681	1208.3563	1244.1394	1320.0065	1411.0808	1425.353	1428.7341	1447.8898	1485.3908	1492.7806	1830.146	1904.2719	2837.7011	3038.6355	3041.4938	3044.0106	3113.3498	3117.2332	3117.3935	3123.7506
CC1(CC(=O)C1)C=O	CC1(CC(=O)C1)C=O	
InChI=1S/C6H8O2/c1-6(4-7)2-5(8)3-6/h4H,2-3H2,1H3	InChI=1S/C6H8O2/c1-6(4-7)2-5(8)3-6/h4H,2-3H2,1H3
