19
gdb 14775	2.96077	1.14986	0.87773	3.8005	71.04	-0.2534	0.0334	0.2868	1334.4182	0.163657	-402.188182	-402.178607	-402.177663	-402.223889	32.531	
C	-0.6286477333	 1.4204758682	-0.3774010918	-0.387088
C	-0.3540820149	-0.0712960289	-0.3016756398	-0.030496
O	-1.5705005479	-0.7400901328	-0.0210984779	-0.245416
C	-1.4437735702	-2.1406623563	 0.0488632538	-0.054068
C	-2.8329919182	-2.7430686014	 0.1696474934	-0.09997
O	-3.5746501117	-2.6194143519	-1.0380810407	-0.183137
C	-4.2358740801	-1.4586067897	-1.2361462429	 0.135742
N	-4.8000364526	-1.2433472761	-2.3445100734	-0.447113
H	 0.2945344857	 1.9661638734	-0.5932420166	 0.118637
H	-1.3526126602	 1.6363382172	-1.1681012396	 0.131649
H	-1.0341203082	 1.7859437528	 0.5703888259	 0.125911
H	 0.0655670465	-0.4383309619	-1.2523828217	 0.095715
H	 0.3864672818	-0.2911247108	 0.4855448864	 0.087889
H	-0.9523224684	-2.537592601	-0.8536454006	 0.106098
H	-0.8387289721	-2.4413952788	 0.9219693247	 0.088975
H	-2.7553311591	-3.8153909672	 0.3679329371	 0.121997
H	-3.3691101446	-2.2725763614	 1.0043261792	 0.114528
H	-4.2243800194	-0.7948962011	-0.3639900186	 0.095174
H	-5.2756066731	-0.3437468125	-2.3167609669	 0.224974
46.5537	63.6468	97.7284	136.9108	161.3357	184.0115	248.6504	325.1465	368.8019	430.7695	512.0031	618.2895	819.0603	821.7335	846.7863	900.062	957.6004	1004.8277	1038.0977	1063.6465	1115.7488	1146.7561	1161.3577	1174.2237	1190.0487	1252.8781	1278.7284	1298.9311	1342.6021	1385.967	1402.067	1408.1972	1426.7105	1448.4551	1483.8234	1489.4577	1498.5855	1503.4247	1533.5845	1744.1117	2953.4861	2965.1459	2990.8682	2999.9503	3029.0323	3046.1056	3057.9163	3103.7375	3121.0007	3123.1989	3515.5684
CCOCCOC=N	CCOCCO[CH][NH]	
InChI=1S/C5H11NO2/c1-2-7-3-4-8-5-6/h5-6H,2-4H2,1H3	InChI=1S/C5H11NO2/c1-2-7-3-4-8-5-6/h5-6H,2-4H2,1H3
