15
gdb 56879	3.3794	1.01454	0.8208	2.8727	66.83	-0.2666	-0.0068	0.2599	1308.5032	0.111754	-453.967915	-453.959132	-453.958188	-454.002214	31.228	
O	 0.1380311008	 1.5189440701	-0.0996548691	-0.403167
C	 0.0485251801	 0.1141694042	-0.0028913509	-0.018245
C	 0.5984810597	-0.5585920397	-1.1983670693	 0.245065
N	 1.0769059047	-1.0822441391	-2.1107988181	-0.308425
C	 0.7344501622	-0.4242629596	 1.2649241783	 0.026978
C	 0.0182284321	-0.088359459	 2.6031330788	-0.409796
C	-0.1383055598	-1.6221594974	 2.7673511146	 0.434774
O	-0.577580735	-2.3663902646	 3.5962248574	-0.340843
N	 0.4717460503	-1.8340193404	 1.5451341724	-0.328292
H	 1.0583742052	 1.7613036427	-0.2557631552	 0.300703
H	-1.0199505973	-0.1199020524	 0.0565172622	 0.148699
H	 1.8001092367	-0.1644545413	 1.2417705014	 0.097371
H	 0.64380828	 0.3783815893	 3.3647623716	 0.142969
H	-0.9162681784	 0.4666305611	 2.5053801331	 0.145941
H	 0.7963393685	-2.6765916141	 1.0924149829	 0.266267
59.1638	74.4573	129.2561	209.8654	258.6681	288.8943	358.527	402.8984	418.4456	488.5113	541.0592	561.7955	608.2685	768.3764	843.6875	900.7756	965.4943	1000.8566	1026.3558	1071.7938	1086.9759	1136.9571	1166.979	1194.8677	1252.222	1272.3523	1304.3371	1377.936	1389.7788	1415.0182	1462.3937	1909.6534	2353.3074	3029.262	3069.2178	3094.4535	3153.3012	3607.0626	3801.189
OC(C#N)C1CC(=O)N1	O[C@@H](C#N)[C@H]1CC(=O)N1	
InChI=1S/C5H6N2O2/c6-2-4(8)3-1-5(9)7-3/h3-4,8H,1H2,(H,7,9)	InChI=1S/C5H6N2O2/c6-2-4(8)3-1-5(9)7-3/h3-4,8H,1H2,(H,7,9)/t3-,4+/m1/s1
