13
gdb 128899	4.35169	1.10536	0.96552	4.1048	69.74	-0.2561	-0.0914	0.1647	1155.6241	0.090765	-411.808319	-411.801046	-411.800102	-411.841431	25.693	
N	-0.083596195	-1.0987350697	 0.5058526035	-0.301368
C	-0.0320827784	 0.0217501465	 0.2314673065	 0.273289
C	 0.0276221601	 1.4381062382	-0.1274950826	-0.399375
C	 1.4364813	 1.9951620658	-0.0620555705	 0.393832
N	 2.0753474723	 1.9322896681	 1.1132937209	-0.245674
C	 3.2972636507	 2.4400787235	 1.10950569	-0.005674
C	 3.8314731366	 2.995223911	-0.0557004469	 0.02368
N	 3.1354571031	 3.0372583691	-1.1863456151	-0.161527
N	 1.9080485011	 2.5221428452	-1.1925463604	-0.220985
H	-0.3575706158	 1.5791852362	-1.1401765466	 0.182236
H	-0.6132373892	 1.9987002715	 0.5628976847	 0.175891
H	 3.859832206	 2.4114629469	 2.0394656492	 0.143716
H	 4.8300599486	 3.4182561076	-0.0893479125	 0.14196
30.5942	100.1288	203.9463	331.9236	375.1729	380.8217	435.1722	501.0009	641.6377	689.9896	816.4494	866.9017	894.0948	946.194	957.668	1019.0755	1038.8385	1083.9708	1123.2771	1167.499	1236.3019	1290.5199	1335.5969	1405.9835	1448.6355	1451.663	1572.4662	1592.4838	2371.2557	3053.118	3118.6729	3164.346	3195.6206
N#CCC1=NC=CN=N1	N#CCc1nccnn1	
InChI=1S/C5H4N4/c6-2-1-5-7-3-4-8-9-5/h3-4H,1H2	InChI=1S/C5H4N4/c6-2-1-5-7-3-4-8-9-5/h3-4H,1H2
