22
gdb 31018	2.44498	1.19455	0.86082	1.8489	92.55	-0.1818	0.0497	0.2315	1443.1306	0.193576	-367.273496	-367.263108	-367.262164	-367.309269	37.613	
C	-0.2517270966	 1.6350537903	-0.0748393437	-0.357925
C	 0.057141619	 0.131731635	 0.0412565399	-0.300318
C	 0.7358711673	-0.4347376521	-1.1735118164	 0.218868
C	 2.0754689393	-0.7361045273	-1.3215858388	 0.201527
C	 3.2292239617	-0.6322689863	-0.37863465	-0.509235
N	 2.2501172074	-1.1994852413	-2.610165036	-0.347604
C	 1.0549853583	-1.2051758162	-3.2927358803	 0.314276
C	 0.9538839555	-1.669995994	-4.7077583169	-0.503418
C	 0.1027528759	-0.7332583845	-2.4215781051	-0.319751
H	 0.6688691444	 2.2130298212	-0.2051507458	 0.111742
H	-0.8909071572	 1.8363956711	-0.9403274438	 0.116444
H	-0.7647218752	 2.0055850313	 0.8193586647	 0.101619
H	 0.674769596	-0.0389221994	 0.930903932	 0.090972
H	-0.8809608858	-0.4092472661	 0.2208887862	 0.097736
H	 3.7688571879	-1.583312803	-0.2814781765	 0.119661
H	 3.9605685221	 0.1244428513	-0.6925507664	 0.123227
H	 2.8818797238	-0.3523218799	 0.6183258096	 0.136157
H	 3.1287515029	-1.5066714519	-2.9909539157	 0.246594
H	 1.2636260289	-2.7165312236	-4.8264281757	 0.121686
H	-0.0807024278	-1.5932656343	-5.0501511034	 0.135525
H	 1.5718262979	-1.070047788	-5.3884551141	 0.122016
H	-0.9477758659	-0.6182688923	-2.6482060439	 0.080201
49.885	94.4036	106.2774	132.3115	190.6896	203.2257	252.4649	271.2242	294.3184	396.1536	446.8011	460.1909	580.8369	621.0644	645.9876	694.2679	761.4698	793.7962	797.3815	967.0371	970.0137	1020.8125	1027.7336	1047.3061	1055.0859	1064.5361	1082.2982	1166.4318	1179.3736	1249.1646	1286.4529	1324.1885	1356.4931	1405.0228	1411.0322	1419.6462	1434.7608	1474.0552	1480.3703	1480.6939	1485.6843	1495.0183	1497.8573	1503.4126	1508.8976	1564.2583	1651.2126	3008.3981	3011.0837	3018.9656	3030.0289	3049.1167	3052.1694	3053.5599	3099.1042	3107.0683	3120.3698	3121.1364	3230.0221	3667.2429
CCC1=C(C)NC(C)=C1	CCc1c(C)[nH]c(C)c1	
InChI=1S/C8H13N/c1-4-8-5-6(2)9-7(8)3/h5,9H,4H2,1-3H3	InChI=1S/C8H13N/c1-4-8-5-6(2)9-7(8)3/h5,9H,4H2,1-3H3
