21
gdb 69000	2.94479	1.2387	1.09423	1.8325	83.46	-0.2303	0.0874	0.3177	1229.8097	0.181558	-387.052555	-387.043703	-387.042759	-387.08613	34.218	
C	 0.0309261758	 1.5385195425	 0.0356886196	-0.498295
C	-0.0962112433	 0.0561003815	 0.1713869482	 0.333788
C	-1.3329554231	-0.8221685285	-0.0869714924	-0.280279
C	-0.7508344047	-1.8682633845	 0.9251908904	-0.299125
C	 0.4528623352	-0.9287666694	 1.1328461989	 0.379366
O	 1.0407854847	-0.7568021616	-0.1744126303	-0.337113
C	 1.3456691651	-0.7981917785	 2.3046854646	-0.104256
C	 0.8520560398	-1.1016082458	 3.7004444236	-0.277125
C	 1.8323891936	-2.0304990483	 3.0357322722	-0.263879
H	 0.9812773934	 1.8857614084	 0.449863968	 0.130228
H	-0.0059741298	 1.8349024627	-1.0191951099	 0.129487
H	-0.7864705172	 2.0485170078	 0.5559405366	 0.121532
H	-2.2656010985	-0.3731068365	 0.2644777938	 0.10023
H	-1.4543166078	-1.1541315521	-1.1211282016	 0.105038
H	-1.3801409433	-1.9878541927	 1.8102644602	 0.103315
H	-0.4973269262	-2.8513781643	 0.5213884054	 0.106706
H	 2.0602159444	 0.0133607753	 2.2094196984	 0.087446
H	 1.2027666742	-0.4670281715	 4.5064704134	 0.11449
H	-0.1699811324	-1.444235085	 3.8188916734	 0.114126
H	 1.4651350485	-2.9929999892	 2.6965804788	 0.118675
H	 2.8586592416	-2.0421007602	 3.3845613987	 0.115645
63.2245	130.8832	171.5512	189.0813	233.1095	271.6033	337.2271	417.6897	483.1916	527.4019	571.3333	681.739	725.0211	776.4111	788.5419	825.8937	878.3888	894.6411	920.8399	928.7157	942.6197	994.9009	1022.0503	1063.0106	1078.9979	1082.0661	1090.0741	1130.9457	1168.4626	1199.2907	1205.5152	1216.3471	1218.776	1220.2115	1258.3243	1315.3831	1371.4403	1412.6392	1462.5324	1468.5999	1471.7616	1480.2698	1490.8489	1501.9951	1534.0282	3030.7044	3058.3717	3067.1949	3091.9401	3109.3903	3117.2291	3126.6705	3135.8632	3139.4661	3156.7651	3214.1715	3229.2086
CC12CCC1(O2)C1CC1	C[C@]12CC[C@]1(O2)C1CC1	
InChI=1S/C8H12O/c1-7-4-5-8(7,9-7)6-2-3-6/h6H,2-5H2,1H3	InChI=1S/C8H12O/c1-7-4-5-8(7,9-7)6-2-3-6/h6H,2-5H2,1H3/t7-,8-/m0/s1
