23
gdb 117935	2.74076	0.74719	0.66505	3.1033	83.32	-0.2603	-0.0224	0.2379	1808.2389	0.202758	-425.454183	-425.442898	-425.441954	-425.49189	39.804	
C	-0.2536758932	 1.4351983123	 0.29042317	-0.382094
C	 0.0073618462	-0.0528312636	 0.0379497815	-0.181492
C	 0.7771778855	-0.7137797965	 1.1873857477	-0.158036
C	 1.0074143159	-2.2368281191	 1.013718689	-0.091356
C	 1.9438926633	-2.5748792061	-0.1553364748	-0.39468
C	 1.579191347	-2.768311904	 2.3178414334	 0.361616
O	 2.7422113039	-2.6209241603	 2.6351973513	-0.342976
C	 0.6431920898	-3.4933611997	 3.2731734947	-0.138691
O	 1.2852292653	-3.8336530567	 4.4630712307	-0.420262
H	 0.6852481558	 1.986997509	 0.4086158979	 0.119142
H	-0.803672647	 1.8878791756	-0.5402084478	 0.115232
H	-0.842231756	 1.5860744769	 1.2020758969	 0.116564
H	-0.9481263365	-0.5747435346	-0.1051868427	 0.096568
H	 0.5629331808	-0.1675389165	-0.8997320004	 0.105147
H	 1.7532214521	-0.2296015285	 1.3157763844	 0.116376
H	 0.225587289	-0.5399314699	 2.1214188554	 0.09792
H	 0.0300342256	-2.7118482967	 0.8525362288	 0.078838
H	 2.9322489073	-2.1409409413	 0.0168660457	 0.140837
H	 2.0676104922	-3.6572561571	-0.2595414597	 0.119237
H	 1.5503235181	-2.192504261	-1.0999930608	 0.119757
H	-0.2352591474	-2.8526757237	 3.4582739065	 0.114662
H	 0.2605281894	-4.3854855436	 2.7453659512	 0.114259
H	 2.2056599227	-3.549838075	 4.3357714011	 0.293431
32.1488	64.9577	94.4307	98.9932	164.9095	197.384	232.4787	251.2435	267.9216	303.7849	343.5248	361.2529	443.4709	489.2811	569.1525	696.7193	744.0629	833.5516	854.6896	871.758	925.8463	989.2829	1006.5306	1029.0273	1055.1521	1074.5618	1118.4064	1130.1937	1150.8925	1197.2928	1242.105	1264.0118	1297.1805	1311.4086	1331.3848	1345.4274	1378.6701	1394.4892	1406.7421	1414.3948	1452.3591	1480.7604	1488.0687	1493.024	1496.0229	1499.7468	1502.4137	1510.9427	1790.4251	2955.0125	2982.0617	3011.7432	3014.7372	3021.3506	3031.6799	3046.516	3052.0234	3070.4439	3100.3624	3105.0961	3114.1042	3131.9402	3670.9381
CCCC(C)C(=O)CO	CCC[C@@H](C)C(=O)CO	
InChI=1S/C7H14O2/c1-3-4-6(2)7(9)5-8/h6,8H,3-5H2,1-2H3	InChI=1S/C7H14O2/c1-3-4-6(2)7(9)5-8/h6,8H,3-5H2,1-2H3/t6-/m1/s1
