19
gdb 105182	2.14894	1.49927	1.04188	3.9766	73.16	-0.2396	-0.02	0.2196	1186.9841	0.156695	-460.163344	-460.153744	-460.1528	-460.197495	35.916	
C	 0.2468673301	 1.3478167724	 0.4200048702	-0.499723
C	 0.0345329816	-0.0305219555	-0.1656230883	 0.3585
O	 0.9376037976	-0.59593725	-0.770731222	-0.367168
C	-1.2815124296	-0.6969720541	 0.0336246386	 0.175633
C	-2.3730842949	 0.0127374213	 0.7938334062	-0.195808
O	-2.8730482636	 1.0805311627	-0.0082167406	-0.414858
C	-1.7205995551	-1.6382726509	-1.1033594424	-0.340098
C	-1.2095139001	-2.2524268312	 0.1435694356	 0.108331
O	-0.0042136107	-2.9105379674	 0.2196942564	-0.421395
H	 1.2025207817	 1.7424010308	 0.0744805737	 0.139639
H	-0.5776175132	 2.0100011827	 0.1436737499	 0.159464
H	 0.2629012863	 1.2870074855	 1.5152799595	 0.141276
H	-3.1738645371	-0.7062941563	 1.0236144613	 0.091794
H	-1.9920324802	 0.3887812165	 1.7553179226	 0.094858
H	-3.5523539102	 1.5412557013	 0.4944564681	 0.290153
H	-2.7831885656	-1.6572715636	-1.3189425479	 0.125187
H	-1.0664894096	-1.6567698282	-1.9680634726	 0.13747
H	-1.9271230252	-2.6856980525	 0.8340342398	 0.11079
H	 0.6316010179	-2.3868092835	-0.3009088581	 0.305956
81.3518	113.5837	169.1257	191.8498	226.2227	268.162	286.2946	318.6633	354.7523	401.8513	479.6725	486.3897	576.8997	600.5456	661.7131	679.4862	795.566	832.3596	914.6978	951.8599	974.823	1030.357	1056.8844	1059.9794	1069.5618	1111.4971	1149.9581	1203.0883	1239.4839	1252.8316	1272.9102	1350.008	1374.5063	1391.7613	1454.8048	1458.7328	1467.0327	1478.5057	1490.0142	1519.5134	1733.3586	2978.1951	3007.4085	3037.4299	3109.9278	3136.6457	3158.8383	3161.3143	3232.2218	3609.8055	3818.6471
CC(=O)C1(CO)CC1O	CC(=O)[C@@]1(CO)C[C@H]1O	
InChI=1S/C6H10O3/c1-4(8)6(3-7)2-5(6)9/h5,7,9H,2-3H2,1H3	InChI=1S/C6H10O3/c1-4(8)6(3-7)2-5(6)9/h5,7,9H,2-3H2,1H3/t5-,6+/m1/s1
