20
gdb 96019	3.06925	1.15527	0.96726	2.8903	74.86	-0.2408	0.06	0.3008	1261.8079	0.171985	-440.248831	-440.23998	-440.239036	-440.283016	32.605	
O	-0.1183331317	 1.4878134229	 0.3432538117	-0.433335
C	-0.0714003654	 0.10412277	 0.0184562012	 0.077663
C	 0.6658397763	-0.7225798262	 1.0823077158	-0.084704
O	-0.2950479939	-1.1123846385	 2.0590024707	-0.264554
C	-1.5877240228	-0.6611958394	 1.6630326445	-0.075405
C	-1.5051317666	-0.4440612299	 0.1433702935	-0.042641
C	-2.5855661724	 0.429593053	-0.4429207652	 0.017764
C	-3.0416865328	 0.2299416721	-1.8401070473	-0.250368
N	-3.9233514682	-0.1299600786	-0.7139585828	-0.32907
H	 0.7839753481	 1.8137495435	 0.412657052	 0.287014
H	 0.3496331961	-0.0476443408	-0.9848215193	 0.068939
H	 1.1231508822	-1.6198677658	 0.6406855638	 0.095509
H	 1.4645529406	-0.1350238576	 1.5563629999	 0.089429
H	-2.3200882037	-1.420612846	 1.9529719288	 0.105047
H	-1.8425756461	 0.2807163561	 2.1695850326	 0.105535
H	-1.52682486	-1.4247373018	-0.3513483598	 0.07107
H	-2.6158221564	 1.4360057948	-0.0373809494	 0.111013
H	-3.376254028	 1.0774001375	-2.4313694529	 0.120448
H	-2.5822907084	-0.5689208923	-2.417769018	 0.104948
H	-3.9067622368	-1.139413743	-0.5823479898	 0.225698
74.9453	82.0326	124.6963	161.2034	241.9696	264.5979	313.4219	406.1734	439.2162	487.3681	668.9106	761.8294	825.0905	860.8569	868.4683	890.2245	937.2848	956.4396	966.0202	1001.4194	1015.879	1045.2906	1086.1468	1116.6822	1127.0649	1139.8788	1167.1284	1188.5921	1215.6899	1228.8861	1251.3973	1259.4045	1284.9006	1311.6585	1313.4425	1343.3887	1366.097	1391.3737	1423.388	1444.7914	1508.9819	1512.2765	1522.1487	2989.3999	3001.5747	3011.6648	3019.3379	3028.9761	3079.1257	3104.5003	3161.7296	3190.3523	3482.1687	3827.2778
OC1COCC1C1CN1	O[C@H]1COC[C@H]1[C@H]1CN1	
InChI=1S/C6H11NO2/c8-6-3-9-2-4(6)5-1-7-5/h4-8H,1-3H2	InChI=1S/C6H11NO2/c8-6-3-9-2-4(6)5-1-7-5/h4-8H,1-3H2/t4-,5+,6-/m0/s1
