14
gdb 66053	2.75819	1.27985	1.12396	2.3694	69.06	-0.2761	-0.0169	0.2593	1098.316	0.097953	-436.622749	-436.613843	-436.612898	-436.65724	31.556	
O	 0.0279570195	 1.4207062293	-0.255907002	-0.436105
C	 0.0389970711	 0.035875601	-0.0604612733	 0.201995
C	 0.0244386422	-0.470267703	 1.4100974067	-0.111129
O	-1.2825641794	-1.046007434	 1.2530071619	-0.265882
C	-1.4026631392	-0.5956054369	-0.1164477936	-0.140058
C	-2.499930036	 0.3198465661	-0.3486437698	 0.379245
C	-3.4291976182	 1.0537415022	-0.5490270779	-0.428897
C	 1.0208665976	-0.6227905894	-0.9278283976	 0.230652
N	 1.8183908301	-1.1204718965	-1.6003523675	-0.327082
H	 0.9354583925	 1.7465653526	-0.2524142898	 0.302474
H	 0.7803630863	-1.2162673182	 1.6750015096	 0.126635
H	 0.034350757	 0.3585973739	 2.1269026497	 0.125391
H	-1.4655207993	-1.4493302156	-0.8010501112	 0.132122
H	-4.2470160142	 1.7088861685	-0.724480505	 0.210639
28.1558	129.1499	141.8019	188.2146	220.6965	249.5896	336.3894	388.4853	460.9862	505.6611	568.0042	597.4566	642.6928	663.7874	689.7611	858.3757	912.5394	950.1293	977.2683	1032.958	1065.1143	1135.4647	1159.3223	1199.3181	1269.8606	1321.5318	1353.0162	1377.0444	1506.9574	2242.019	2352.411	3031.7918	3042.699	3092.8123	3500.3235	3804.4294
OC1(COC1C#C)C#N	O[C@]1(CO[C@H]1C#C)C#N	
InChI=1S/C6H5NO2/c1-2-5-6(8,3-7)4-9-5/h1,5,8H,4H2	InChI=1S/C6H5NO2/c1-2-5-6(8,3-7)4-9-5/h1,5,8H,4H2/t5-,6-/m0/s1
