15
gdb 129606	3.32593	1.28185	0.96694	4.7539	72.8	-0.216	0.0118	0.2278	1154.0347	0.113133	-412.95121	-412.942809	-412.941865	-412.984479	31.157	
N	-0.1375158927	 1.2932531966	-0.5278226191	-0.609419
C	-0.0891957658	-0.0474108967	-0.175040872	 0.276255
C	-1.0720803974	-1.0050120989	 0.0044666284	 0.269039
C	-2.561674429	-0.9148590604	-0.1759619231	-0.463002
C	-2.9704589945	-0.0391776998	-1.2736749827	 0.295136
C	-3.2930889861	 0.7042136903	-2.1629443342	-0.456669
N	-0.4752621181	-2.1540477803	 0.4345608106	-0.249895
N	 0.8047185835	-1.983028914	 0.535381596	-0.135827
N	 1.0504018579	-0.6943061876	 0.1681678772	-0.229991
H	 0.6331726763	 1.5934499807	-1.111786393	 0.250839
H	-1.0194166328	 1.5244050049	-0.9719332803	 0.265415
H	-2.9384842693	-1.9290578267	-0.3505604393	 0.163282
H	-3.0468477015	-0.5696266644	 0.7483819813	 0.148252
H	-3.6070573456	 1.3305114062	-2.9613038271	 0.202828
H	 1.9933655152	-0.3418732598	 0.1960509473	 0.273759
51.1324	125.5323	230.3135	254.621	263.7348	323.7864	335.2248	425.1676	460.5434	507.9755	618.3333	646.6087	673.6323	709.8173	727.9017	759.6432	787.9534	942.8858	960.2446	1009.6514	1035.5021	1106.4924	1194.0894	1258.0585	1279.5008	1308.7238	1357.5244	1408.3482	1463.3444	1532.6585	1639.2318	1673.6479	2231.0822	3003.9295	3064.5764	3501.8202	3517.8424	3609.057	3659.4382
NC1=C(CC#C)N=NN1	Nc1c(CC#C)nn[nH]1	
InChI=1S/C5H6N4/c1-2-3-4-5(6)8-9-7-4/h1H,3H2,(H3,6,7,8,9)	InChI=1S/C5H6N4/c1-2-3-4-5(6)8-9-7-4/h1H,3H2,(H3,6,7,8,9)
