19
gdb 67745	3.09243	2.00126	1.44367	0.0816	83.76	-0.2157	0.0055	0.2212	941.049	0.159875	-348.651308	-348.644465	-348.643521	-348.681867	29.423	
C	 0.018764562	 1.6302841937	-0.0654331816	-0.513898
C	 0.0656189953	 0.1195020408	 0.0011342339	 0.256498
C	 0.572207268	-0.6706250977	-1.2394991695	-0.126177
C	 0.5143158358	-1.9726799236	-0.9226518767	-0.258112
C	-0.0247319898	-1.9115836346	 0.4963257955	 0.304738
C	-0.5056501515	-2.4989911679	 1.8430613965	-0.358679
C	-0.6427979917	-0.9457652586	 2.0101043387	-0.110991
C	 0.6620673786	-0.6923287783	 1.1976245563	-0.06732
C	-1.1018480955	-0.7763860062	 0.5310565974	-0.067321
H	 1.0141206177	 2.0510275513	-0.2490691708	 0.115788
H	-0.6383395043	 1.9722681425	-0.8733582883	 0.11579
H	-0.3554155125	 2.0565054197	 0.8712302281	 0.115021
H	 0.9019538337	-0.2229248915	-2.1682201421	 0.097278
H	 0.7787511687	-2.8375845219	-1.5134410692	 0.107906
H	-1.4363104608	-3.0752590831	 1.829602074	 0.096992
H	 0.2460361076	-2.9951000112	 2.4653473218	 0.096993
H	-0.9995598416	-0.4042434776	 2.8858952378	 0.069701
H	 1.6889992319	-0.6901726058	 1.574061049	 0.062898
H	-2.1172041817	-0.87155993	 0.1357181891	 0.062896
208.9066	249.4064	254.1918	368.9128	412.1005	457.6282	547.4322	601.0589	665.4119	701.6116	757.3899	769.9287	814.8131	843.1338	847.2822	872.5823	880.2971	883.6944	914.7036	986.5768	994.5284	1051.9859	1052.5557	1071.9639	1096.7975	1128.7861	1133.2091	1140.2287	1170.3827	1182.5553	1196.0885	1206.8254	1235.2845	1276.0395	1317.2675	1337.551	1413.5306	1492.7222	1494.	1503.0389	1590.546	3023.5955	3037.7738	3071.0086	3075.7505	3085.4816	3095.0291	3097.7731	3114.3703	3209.6593	3243.5725
CC12C=CC34CC(C13)C24	C[C@@]12C=C[C@@]34C[C@@H]([C@H]13)[C@@H]24	
InChI=1S/C9H10/c1-8-2-3-9-4-5(6(8)9)7(8)9/h2-3,5-7H,4H2,1H3	InChI=1S/C9H10/c1-8-2-3-9-4-5(6(8)9)7(8)9/h2-3,5-7H,4H2,1H3/t5-,6+,7-,8+,9+
