17
gdb 34333	2.96297	1.59113	1.28819	1.4414	77.83	-0.2439	0.0286	0.2726	1008.2776	0.135682	-384.590209	-384.582822	-384.581878	-384.621749	29.863	
C	-0.0202447746	-1.2020840446	 0.0279470935	-0.38814
C	-0.0153751556	 0.0010347877	 0.0177056144	 0.190387
C	-0.0220290068	 1.4368243416	 0.0093022023	 0.10457
C	-0.3678196493	 2.1839787773	-1.3071610478	-0.143169
O	 0.8157284027	 3.0121345301	-1.1969020976	-0.29205
C	 1.268471237	 2.304953631	-0.02070344	 0.058635
C	 0.9152048708	 2.9301116293	 1.3431852872	-0.055038
C	-0.4117071309	 3.6257306559	 1.2697993653	-0.305086
C	-0.3946854659	 2.1271783545	 1.3570096834	-0.113564
H	-0.0196774555	-2.2639042623	 0.0319481811	 0.190192
H	-0.3241227452	 1.5408804104	-2.1926412988	 0.11456
H	-1.2934798887	 2.7696719358	-1.3170088233	 0.107332
H	 2.2675844765	 1.8793372355	-0.1298266539	 0.091815
H	 1.6242025393	 3.1050226996	 2.1426525031	 0.091159
H	-0.7180659466	 4.1196005136	 2.1862182328	 0.116774
H	-0.6979088167	 4.1483596185	 0.3642983092	 0.132887
H	-0.8568031103	 1.5900996862	 2.175213139	 0.098736
136.6479	147.9748	227.5503	313.7607	392.34	464.622	496.292	527.2246	609.5701	615.9464	635.237	681.2675	764.4776	814.1854	850.6455	903.0264	926.7454	947.5167	979.0485	987.6071	1002.9096	1036.0342	1058.9486	1060.3763	1083.2482	1138.1569	1166.0159	1182.6338	1188.4478	1232.2286	1284.895	1301.0747	1341.0755	1365.7855	1487.053	1519.094	2233.3215	3029.2738	3082.5221	3098.7011	3136.9263	3186.8957	3198.2287	3220.2313	3501.9255
C#CC12COC1C1CC21	C#C[C@]12CO[C@H]1[C@H]1C[C@@H]21	
InChI=1S/C8H8O/c1-2-8-4-9-7(8)5-3-6(5)8/h1,5-7H,3-4H2	InChI=1S/C8H8O/c1-2-8-4-9-7(8)5-3-6(5)8/h1,5-7H,3-4H2/t5-,6+,7-,8+/m0/s1
