16
gdb 65304	2.72836	1.33094	1.11262	3.8889	70.06	-0.2586	0.0038	0.2624	1108.8444	0.123025	-437.847127	-437.838646	-437.837702	-437.880459	31.063	
O	-0.0572921064	 1.3669864532	-0.0488641755	-0.44112
C	 0.0138833285	-0.0240770804	 0.0024022867	 0.199537
C	-0.4917570322	-0.7456931999	 1.2485263905	-0.414732
C	-1.3159310384	-0.7295353991	 0.0045019117	 0.244085
C	-2.6587499147	-0.0677228635	-0.2792847014	-0.131573
O	-3.0189596111	-1.1497695654	-1.1668243221	-0.271936
C	-1.7915874896	-1.8617696346	-0.8978766748	-0.140836
C	 1.1074137692	-0.61990331	-0.7352625297	 0.245213
N	 1.984344179	-1.0957580869	-1.3208904815	-0.344646
H	 0.6898179469	 1.7323483543	 0.4395130757	 0.301144
H	-0.001193127	-1.6688228116	 1.5393052425	 0.142916
H	-0.7942194696	-0.0979522573	 2.0653601226	 0.135646
H	-3.3364372892	 0.0033036796	 0.581016953	 0.108569
H	-2.6114031367	 0.8990239967	-0.7913189612	 0.129136
H	-1.1992318927	-2.0359393563	-1.8039478977	 0.12806
H	-1.9723063558	-2.817869489	-0.3902710688	 0.110538
84.2202	117.6211	141.0634	216.6063	242.6299	311.992	366.8719	412.4139	444.7833	502.4762	576.9326	660.7161	688.0931	855.9685	875.7282	891.9862	918.9903	978.9737	995.7561	1031.1396	1059.2324	1114.5316	1134.8963	1150.576	1169.2053	1186.6316	1270.718	1308.6501	1312.302	1365.0704	1424.7415	1483.8579	1509.723	1533.4156	2345.8389	3011.5191	3021.9752	3063.249	3076.1841	3127.9852	3222.8618	3793.4261
OC1(CC11COC1)C#N	O[C@]1(CC21COC2)C#N	
InChI=1S/C6H7NO2/c7-2-6(8)1-5(6)3-9-4-5/h8H,1,3-4H2	InChI=1S/C6H7NO2/c7-2-6(8)1-5(6)3-9-4-5/h8H,1,3-4H2/t6-/m1/s1
