21
gdb 87156	3.42212	0.99056	0.96889	2.9417	78.28	-0.2419	0.0755	0.3174	1321.1826	0.181334	-424.181438	-424.171877	-424.170933	-424.216935	35.178	
C	-0.073868337	 1.5932070113	 0.1459211877	-0.470852
C	-0.0131080889	 0.0789807381	 0.0546683075	 0.312753
C	 1.0476213138	-0.5176934628	-0.863345796	-0.377928
C	 1.1950062959	-0.6155864816	 0.6353123776	 0.071115
O	 2.1433988842	 0.1709965421	 1.2962809223	-0.422782
C	-1.3228894249	-0.6787832337	 0.1506808986	-0.094553
C	-2.280246062	-0.3573816095	 1.3260884272	-0.088641
O	-3.3048703647	 0.1112425894	 0.4270603352	-0.273246
C	-2.5111674485	-0.2158643936	-0.7305794803	-0.086789
H	-0.6101888959	 1.922433377	 1.0415020106	 0.124701
H	 0.932859259	 2.0099948241	 0.1996141536	 0.131305
H	-0.5799881715	 2.0245113668	-0.7236022838	 0.116726
H	 0.8167416759	-1.4153931622	-1.4279979799	 0.107554
H	 1.7034036161	 0.1820058022	-1.3713505363	 0.112175
H	 1.0285584497	-1.592403456	 1.0913595258	 0.082114
H	 3.0170373169	-0.1583994253	 1.0616992553	 0.288621
H	-1.1234618302	-1.7493962442	 0.0544933379	 0.070555
H	-2.6118245032	-1.227210545	 1.907642307	 0.095725
H	-1.9508187934	 0.4238840607	 2.0211893873	 0.10502
H	-2.3310445427	 0.6587797074	-1.3667176909	 0.10147
H	-2.9767538285	-1.002649215	-1.3380695866	 0.094955
32.0727	48.2363	155.2466	175.6583	246.7937	277.4715	288.9611	305.6889	339.6557	453.4823	474.2504	541.7847	678.1516	797.1092	829.876	868.1296	889.9328	915.9957	954.0255	971.0662	997.4598	1036.2193	1040.6955	1052.2961	1078.2391	1093.1213	1115.6958	1122.2823	1159.9273	1161.6028	1183.9146	1256.7707	1269.8782	1283.0381	1308.6004	1336.9776	1368.0985	1394.1916	1422.6346	1427.9702	1482.5898	1490.9353	1504.381	1519.664	1540.0579	3005.8285	3015.7986	3041.4729	3050.7201	3053.7239	3069.0202	3087.2174	3100.4826	3123.6739	3137.977	3212.3178	3807.476
CC1(CC1O)C1COC1	C[C@]1(C[C@H]1O)C1COC1	
InChI=1S/C7H12O2/c1-7(2-6(7)8)5-3-9-4-5/h5-6,8H,2-4H2,1H3	InChI=1S/C7H12O2/c1-7(2-6(7)8)5-3-9-4-5/h5-6,8H,2-4H2,1H3/t6-,7+/m1/s1
