17
gdb 57024	2.50555	1.33442	0.91178	5.474	73.6	-0.2767	0.0094	0.2861	1238.3836	0.135766	-418.01907	-418.010193	-418.009248	-418.053309	31.727	
C	 0.0281529166	 1.5749470133	-0.0893536011	-0.398207
C	 0.0302058702	 0.0331288359	-0.0420962467	-0.167
C	 0.7105333341	-0.4994558568	-1.2280483531	 0.294137
N	 1.2534343326	-0.8681967228	-2.178716706	-0.316325
C	 0.6834547944	-0.4945244556	 1.2469006421	-0.123025
C	-0.0577946653	-0.2267889079	 2.5770115652	-0.113203
O	-0.1740666964	-1.6620851738	 2.8100411757	-0.249059
C	 0.4473522491	-1.9523167565	 1.6100839176	 0.427767
N	 0.6896537227	-3.044797571	 1.0527368153	-0.523039
H	 1.049864879	 1.9639826947	-0.0658143484	 0.142555
H	-0.4520241965	 1.9326331763	-1.0028351583	 0.147115
H	-0.5178476242	 1.9789734873	 0.767732845	 0.127233
H	-1.0064285418	-0.3257748902	-0.0741945848	 0.13465
H	 1.7409340105	-0.2197607334	 1.2707523587	 0.127912
H	 0.5173002126	 0.2577608104	 3.3686563954	 0.129925
H	-1.0462226615	 0.2335568036	 2.4892300826	 0.12308
H	 0.360081504	-3.8376635337	 1.6053550506	 0.235483
58.1056	104.6221	128.6363	198.7928	216.7762	235.8267	302.3482	347.3876	484.7253	506.7443	561.9055	651.121	748.4329	808.8506	867.4648	883.9546	936.0225	972.4734	977.8696	1003.5035	1067.5877	1084.2287	1107.1663	1153.5677	1175.9175	1219.1931	1241.272	1273.3084	1323.8378	1356.4648	1383.6779	1414.3507	1492.6831	1498.5773	1517.443	1833.4422	2363.2061	3033.4074	3049.1955	3058.4128	3088.3485	3120.842	3124.7705	3133.6729	3484.2324
CC(C#N)C1COC1=N	C[C@@H](C#N)[C@H]1CO[C]1[NH]	
InChI=1S/C6H8N2O/c1-4(2-7)5-3-9-6(5)8/h4-5,8H,3H2,1H3	InChI=1S/C6H8N2O/c1-4(2-7)5-3-9-6(5)8/h4-5,8H,3H2,1H3/t4-,5+/m0/s1
