23
gdb 109688	1.79277	1.37295	1.20049	2.9718	82.19	-0.2428	0.0712	0.314	1267.7306	0.203391	-425.402445	-425.391608	-425.390664	-425.437859	39.779	
C	-0.3661129655	 0.2277577819	-2.3999979036	-0.250422
O	-0.387321212	-0.8451046251	-1.4741486872	-0.291896
C	-1.6509573656	-1.1497331921	-0.9256590597	 0.404323
C	-2.2788806829	-0.0399975912	-0.1118130881	-0.462915
C	-2.5202408431	-2.1387163761	-1.6803073937	-0.083722
C	-2.1844856537	-2.6280333042	-3.0740839212	-0.420015
C	-1.7363133052	-2.5737705385	-0.4432796645	-0.121621
C	-0.5017201491	-3.4548228296	-0.5160530607	-0.078554
O	 0.5465201091	-2.9659690192	 0.3077253163	-0.430649
H	 0.6313606867	 0.2402360779	-2.8457763569	 0.129159
H	-1.1114896528	 0.0917678024	-3.1941513022	 0.114977
H	-0.5438436106	 1.1953581241	-1.9127556326	 0.116694
H	-2.5528992014	 0.8227458932	-0.7287118189	 0.116452
H	-3.1911445189	-0.3980535957	 0.3726943159	 0.122575
H	-1.5899512464	 0.3003924683	 0.6689690019	 0.125712
H	-3.5879066654	-2.0170986235	-1.5108826334	 0.079946
H	-1.1152782275	-2.5605507659	-3.2847209627	 0.132553
H	-2.490032675	-3.6709948302	-3.2119502874	 0.118784
H	-2.7097580761	-2.0311063598	-3.827718834	 0.113254
H	-2.3179875199	-2.7120385108	 0.4643734522	 0.086123
H	-0.7404397508	-4.4568822643	-0.1442906568	 0.102287
H	-0.1631513353	-3.5685399109	-1.5531920979	 0.087949
H	 0.7627783012	-2.0954225707	-0.0478698646	 0.289008
90.3612	119.7524	132.3809	147.8868	181.4728	194.994	214.2704	248.7782	284.5283	305.9399	366.9683	408.1605	492.862	501.2602	559.3523	611.2672	702.466	781.8116	814.9992	928.9998	954.982	987.8006	1018.7535	1053.1547	1070.7279	1105.3807	1126.72	1135.2988	1142.0772	1153.364	1181.0207	1203.7741	1229.0283	1268.403	1295.544	1360.2943	1393.3569	1409.6695	1414.7467	1439.184	1453.604	1475.3695	1482.5676	1489.0378	1498.8913	1500.8868	1507.1697	1507.4962	1514.3429	3004.4929	3023.4317	3031.5754	3033.9088	3061.5708	3070.2176	3086.2328	3093.7673	3114.5867	3117.976	3118.2079	3131.7999	3142.9856	3786.4509
COC1(C)C(C)C1CO	CO[C@@]1(C)[C@@H](C)[C@H]1CO	
InChI=1S/C7H14O2/c1-5-6(4-8)7(5,2)9-3/h5-6,8H,4H2,1-3H3	InChI=1S/C7H14O2/c1-5-6(4-8)7(5,2)9-3/h5-6,8H,4H2,1-3H3/t5-,6+,7-/m0/s1
