21
gdb 70446	2.89044	1.24072	1.01802	1.7071	82.72	-0.2409	0.0878	0.3286	1257.1149	0.181815	-387.046896	-387.038147	-387.037203	-387.08044	33.746	
C	-0.0804994085	 1.507060274	-0.0511139598	-0.505588
C	 0.1528049001	 0.03224792	-0.0078798358	 0.412146
O	-0.770366492	-0.7776269329	 0.7407545907	-0.292126
C	 0.6299233073	-0.8818503952	 1.0452937286	-0.040556
C	 1.233917428	-1.8516999082	 0.0259497987	-0.275587
C	 0.7299725755	-0.8864930305	-1.1153836589	-0.063974
C	-0.2375488405	-1.4169462452	-2.1370819814	 0.026191
C	-0.4150106935	-0.7168026321	-3.4633783726	-0.274371
C	 0.2629200674	-2.0632101067	-3.4049986153	-0.275489
H	 0.8182717677	 2.0339138873	-0.3882367922	 0.121001
H	-0.8926672961	 1.7508841761	-0.745121699	 0.133561
H	-0.3557754469	 1.879533904	 0.9393148362	 0.13234
H	 0.9238110785	-0.6881906195	 2.071188326	 0.097638
H	 2.3235362264	-1.9198153437	 0.0717683457	 0.100904
H	 0.8032734172	-2.8561002318	 0.0360962124	 0.108199
H	 1.5829156624	-0.4073837838	-1.6094143225	 0.065962
H	-1.1327799541	-1.8479467025	-1.6991351802	 0.095228
H	-1.4118375775	-0.6582865297	-3.8862692841	 0.111477
H	 0.203249236	 0.1517130575	-3.6678254691	 0.10583
H	 1.3355427246	-2.0967641059	-3.5681735573	 0.106819
H	-0.269446082	-2.9265108613	-3.7888402402	 0.110394
72.7605	123.4188	140.9551	201.0415	271.8862	274.2027	320.3832	421.9776	441.5114	547.0491	655.0659	723.7867	763.7234	807.6443	831.4355	864.1326	893.8244	902.8344	919.7488	951.1168	969.2467	1005.657	1045.5928	1047.7859	1055.882	1076.1825	1093.4444	1126.5746	1148.9512	1192.5085	1199.2151	1207.4571	1220.0534	1237.6206	1262.5062	1272.9997	1304.3351	1403.2855	1423.0397	1458.4564	1470.9127	1477.9248	1486.8488	1496.5832	1506.5484	3033.4672	3042.3996	3063.3968	3095.7099	3118.6358	3119.798	3126.1046	3131.1169	3157.6224	3177.9667	3203.8264	3219.4729
CC12OC1CC2C1CC1	C[C@]12O[C@H]1C[C@H]2C1CC1	
InChI=1S/C8H12O/c1-8-6(5-2-3-5)4-7(8)9-8/h5-7H,2-4H2,1H3	InChI=1S/C8H12O/c1-8-6(5-2-3-5)4-7(8)9-8/h5-7H,2-4H2,1H3/t6-,7-,8+/m0/s1
