16
gdb 9597	3.90339	1.19551	1.18188	2.8753	68.47	-0.2611	-0.0481	0.213	1065.269	0.127793	-383.753749	-383.745346	-383.744402	-383.786831	29.855	
C	-0.1111890214	 1.5802200292	-0.0381755142	-0.470763
C	-0.0459222935	 0.0701688304	 0.0521519438	 0.213916
C	 1.2436960029	-0.6769246834	-0.1750862175	-0.337034
C	 0.6680630003	-0.6602995218	 1.2164148877	-0.138387
C	 1.338230133	 0.1200366401	 2.2868006424	 0.162775
O	 1.2970584415	-0.1738906251	 3.4548490461	-0.257199
C	-1.2759722334	-0.6444716886	-0.398777956	 0.133939
O	-2.2642236593	-0.096210201	-0.8143794817	-0.256747
H	 0.8499280194	 2.0471006741	 0.1859679824	 0.119416
H	-0.406428657	 1.8713026905	-1.0497486806	 0.144177
H	-0.8615170224	 1.9818962434	 0.6483032349	 0.143918
H	 1.2226527135	-1.6196553707	-0.7114963599	 0.137612
H	 2.1235489342	-0.0703249337	-0.3639719237	 0.13773
H	 0.192380026	-1.5662469466	 1.579249065	 0.116822
H	 1.9128301175	 1.0054835914	 1.9355223776	 0.076081
H	-1.2138052413	-1.7556057283	-0.3276259661	 0.073745
77.3981	116.5626	170.5279	196.095	241.6791	286.9012	351.5863	380.3936	417.3844	489.1534	567.4952	748.7544	811.648	870.7482	909.2791	960.6364	1003.8339	1041.1328	1074.7432	1078.9397	1086.5017	1112.026	1184.6644	1244.0981	1334.9407	1358.1838	1418.4251	1436.667	1447.1239	1478.3247	1486.4948	1500.9259	1817.7716	1824.5027	2860.2833	2884.613	3054.2696	3121.2867	3130.6871	3134.1594	3165.4617	3218.4006
CC1(CC1C=O)C=O	C[C@]1(C[C@H]1C=O)C=O	
InChI=1S/C6H8O2/c1-6(4-8)2-5(6)3-7/h3-5H,2H2,1H3	InChI=1S/C6H8O2/c1-6(4-8)2-5(6)3-7/h3-5H,2H2,1H3/t5-,6-/m0/s1
