17
gdb 124700	3.84936	0.9142	0.87522	2.6541	69.77	-0.2803	-0.0456	0.2347	1346.2663	0.13523	-455.10277	-455.093969	-455.093024	-455.137395	31.329	
C	-0.2169654482	 1.5103287471	-0.0065407837	-0.397615
C	 0.0574576646	-0.0007286941	-0.0294120504	-0.125995
C	 0.8465256377	-0.4104319221	-1.2953241401	-0.070539
O	 0.1846638067	-0.0412349936	-2.4897136079	-0.409576
C	 0.7829818731	-0.4653671277	 1.1977794349	 0.336396
N	 0.3655778173	-1.4727642532	 1.9204735971	-0.157257
O	 1.2759275891	-1.6241454284	 2.9295372955	-0.148051
N	 2.2766336166	-0.7010186948	 2.8372461565	-0.059443
C	 1.992806454	 0.0147548523	 1.7857984268	-0.11084
H	 0.7144414087	 2.0810224635	 0.0793552814	 0.117699
H	-0.7015435667	 1.806451221	-0.9391594629	 0.139237
H	-0.8616295192	 1.78450033	 0.832702285	 0.127782
H	-0.8985124199	-0.5384675553	-0.0495329161	 0.098695
H	 1.8107729187	 0.1108172343	-1.3146576056	 0.1144
H	 1.0560305998	-1.4892314075	-1.2631186846	 0.107948
H	-0.5898302808	-0.6045472882	-2.5887934688	 0.288578
H	 2.6326774187	 0.8296839966	 1.485206443	 0.14858
34.6355	106.169	116.8818	207.186	224.2218	276.8659	317.836	375.8133	403.443	485.5084	651.7612	712.1259	744.942	878.0503	896.8818	898.5934	913.1055	935.0488	1011.7423	1032.8547	1048.481	1071.8137	1112.3554	1118.9694	1207.8655	1229.626	1311.2973	1354.4476	1391.3582	1404.0097	1417.4037	1422.3347	1462.4716	1491.8618	1501.5725	1504.0231	1608.1381	3002.758	3033.294	3041.4982	3069.4435	3109.8175	3136.9554	3268.5584	3814.916
CC(CO)C1=NON=C1	C[C@@H](CO)c1nonc1	
InChI=1S/C5H8N2O2/c1-4(3-8)5-2-6-9-7-5/h2,4,8H,3H2,1H3	InChI=1S/C5H8N2O2/c1-4(3-8)5-2-6-9-7-5/h2,4,8H,3H2,1H3/t4-/m0/s1
