14
gdb 28145	5.31698	1.28502	1.0349	3.22	70.57	-0.1688	0.0358	0.2046	1056.2629	0.10405	-432.909744	-432.902495	-432.901551	-432.941066	28.024	
O	 0.0778301597	 1.3139661675	 0.2244201872	-0.432936
C	 0.0673776269	-0.0230872895	-0.0015761516	 0.413963
C	 0.0824230567	-0.7594273656	-1.1726942795	-0.489817
C	 0.0582890022	-2.1158250633	-0.7250892413	 0.341474
C	 0.0305697332	-2.1406014424	 0.6565597147	 0.340621
N	 0.0362726464	-0.8342333909	 1.1089972778	-0.438415
N	 0.0061845909	-3.394282392	 1.182741513	-0.358106
C	 0.0190823588	-4.1646239446	 0.1085178925	-0.02134
N	 0.0504138655	-3.450120969	-1.0739878535	-0.407139
H	 0.09910956	 1.765334004	-0.6246399451	 0.308003
H	 0.1068120649	-0.3585796173	-2.1732035212	 0.090393
H	 0.020806631	-0.5038026216	 2.0574724644	 0.270092
H	 0.0069984	-5.2434339097	 0.1147537009	 0.122426
H	 0.0642066938	-3.8454144457	-1.9975296284	 0.260782
150.5343	203.6418	247.4593	322.5421	331.1677	371.1629	440.1157	530.8045	569.4412	636.6663	658.3138	673.5099	729.1479	758.9701	770.6769	839.358	962.6879	1014.3866	1085.969	1151.6062	1170.3451	1187.6	1259.1928	1294.752	1381.2279	1460.656	1480.9211	1519.5456	1533.7414	1582.9641	1615.2266	3251.6705	3260.9639	3683.7719	3692.2064	3849.691
OC1=CC2=C(N1)N=CN2	Oc1cc2c([nH]1)nc[nH]2	
InChI=1S/C5H5N3O/c9-4-1-3-5(8-4)7-2-6-3/h1-2,8-9H,(H,6,7)	InChI=1S/C5H5N3O/c9-4-1-3-5(8-4)7-2-6-3/h1-2,8-9H,(H,6,7)
