21
gdb 81012	2.46184	1.55128	1.27179	2.0649	78.5	-0.2325	0.0733	0.3059	1109.4788	0.181805	-424.212921	-424.204083	-424.203138	-424.245571	35.055	
C	-0.090144345	 1.5013404808	-0.0444233466	-0.414453
C	 0.0870626074	-0.0053503569	 0.0656501368	 0.153227
O	 0.9792173488	-0.5098155713	-0.9668522124	-0.338419
C	 1.9457722529	-1.2689892178	-0.2129146693	 0.444152
C	 2.9658534538	-1.907796683	-1.1083437432	-0.500961
C	 1.069837568	-2.0212304724	 0.8280168992	-0.285078
C	 0.8025615646	-0.5608156016	 1.3068451834	-0.14142
C	 2.2978846996	-0.2735778257	 0.927390626	 0.100166
O	 3.267207991	-0.8026869406	 1.8041222569	-0.448507
H	 0.8422307217	 2.04315099	 0.1339954229	 0.117799
H	-0.4439648856	 1.7611494112	-1.0465364046	 0.128835
H	-0.8369461472	 1.8472175676	 0.6787163129	 0.110981
H	-0.8948353876	-0.4842427718	-0.058637566	 0.071988
H	 3.4417117736	-1.1539946902	-1.7434327426	 0.12477
H	 3.7371137743	-2.3946320177	-0.5058135112	 0.133123
H	 2.498961063	-2.6554723881	-1.7568357626	 0.123445
H	 0.2246953356	-2.5952093255	 0.4398977011	 0.091782
H	 1.6578608839	-2.5993684124	 1.5380904641	 0.114852
H	 0.3862533245	-0.3199399514	 2.2857805854	 0.062537
H	 2.5573808317	 0.7420970207	 0.6060169775	 0.065255
H	 3.2578742409	-0.2824994838	 2.6135601623	 0.285928
183.1132	190.2292	202.1622	210.5753	219.955	264.6819	319.3731	363.2257	394.9424	484.4932	490.5719	561.0677	628.0975	653.9514	808.6938	847.5515	869.6513	887.9816	907.7502	931.7809	953.2467	1011.2261	1031.2048	1046.586	1090.2075	1107.7868	1132.9587	1145.6655	1176.4395	1195.5396	1212.2807	1222.9171	1266.2437	1291.9385	1333.7689	1344.0166	1397.3527	1408.1728	1416.2523	1424.2632	1482.9282	1485.2878	1489.6593	1491.9007	1495.5246	2991.288	3030.1635	3039.561	3041.8103	3073.4965	3106.5503	3109.8318	3110.307	3121.4268	3125.7505	3162.1495	3817.5062
CC1OC2(C)CC1C2O	C[C@H]1O[C@]2(C)C[C@H]1[C@H]2O	
InChI=1S/C7H12O2/c1-4-5-3-7(2,9-4)6(5)8/h4-6,8H,3H2,1-2H3	InChI=1S/C7H12O2/c1-4-5-3-7(2,9-4)6(5)8/h4-6,8H,3H2,1-2H3/t4-,5-,6-,7-/m1/s1
