16
gdb 21155	3.36994	1.86354	1.22039	4.3577	68.47	-0.1958	0.0093	0.2051	974.1946	0.131702	-376.100031	-376.091853	-376.090909	-376.13299	28.786	
C	-0.1113882438	 1.4730701705	-0.0044209471	-0.314235
N	 0.0212624457	 0.0240966466	-0.1056603055	-0.389726
C	-1.1447468751	-0.7288437616	-0.010527717	 0.297534
C	-1.2768085272	-2.1073868565	 0.0109014093	 0.24213
C	-0.2789009233	-3.2131446584	-0.0166328015	-0.518073
N	-2.6276974073	-2.2719206585	 0.0576468435	-0.221815
N	-3.2876624342	-1.1079524145	 0.0473957024	-0.135399
N	-2.3828051438	-0.1618412169	 0.014064444	-0.267774
H	 0.8778634059	 1.921594714	-0.1252460205	 0.112409
H	-0.7593062491	 1.83370408	-0.8061822856	 0.149907
H	-0.5465293348	 1.8102062714	 0.9472271738	 0.119041
H	 0.7662419119	-0.3382100157	 0.4724220288	 0.232744
H	 0.0012247686	-3.5584741665	 0.9867933046	 0.138006
H	-0.6523618515	-4.081132871	-0.569988555	 0.134168
H	 0.6335921428	-2.8740673177	-0.5163227509	 0.146891
H	-3.1514956646	-3.1324213354	 0.0826101766	 0.274193
72.6408	101.4085	169.2494	185.7529	238.172	281.6993	335.1511	486.484	550.3515	579.9901	651.6908	699.2002	744.862	784.0391	984.511	1020.1885	1060.8964	1079.6412	1116.9915	1137.1886	1157.8232	1214.837	1263.1996	1348.7976	1370.5618	1423.6325	1452.0272	1467.3693	1481.484	1485.1148	1497.2941	1516.8106	1545.4882	1646.324	3002.3191	3019.2301	3075.8728	3089.4436	3107.5244	3132.3435	3581.4789	3651.2231
CNC1=C(C)NN=N1	CNc1c(C)[nH]nn1	
InChI=1S/C4H8N4/c1-3-4(5-2)7-8-6-3/h1-2H3,(H2,5,6,7,8)	InChI=1S/C4H8N4/c1-3-4(5-2)7-8-6-3/h1-2H3,(H2,5,6,7,8)
