17
gdb 126638	3.36545	1.05175	0.85255	0.8262	70.66	-0.2473	-0.0221	0.2253	1351.9071	0.136667	-451.335696	-451.326943	-451.325999	-451.370557	30.818	
C	-0.1023941957	 1.5433526083	 0.0157196674	-0.382193
C	-0.0788337719	 0.0135802743	-0.0072597684	-0.179039
C	 0.7477008027	-0.5597020724	 1.1481602516	-0.149824
N	 0.7810341422	-2.0105486898	 1.1551924496	-0.071209
N	-0.2734827791	-2.7589729545	 1.5723389451	-0.117394
N	 0.0255014714	-3.9886292762	 1.4497865729	-0.071194
N	 1.2849200995	-4.0578617156	 0.9439375357	-0.309969
C	 1.8356191413	-2.8061508531	 0.726911517	 0.515119
O	 2.9199865299	-2.4832711665	 0.2943778719	-0.419469
H	 0.9071231928	 1.9589311579	-0.0738203992	 0.124117
H	-0.6985916676	 1.9367994911	-0.812094975	 0.123903
H	-0.5368700907	 1.9211895727	 0.9477303591	 0.121208
H	-1.0978958818	-0.3835374454	 0.058832126	 0.122417
H	 0.3421355386	-0.3447153056	-0.9536512328	 0.117635
H	 1.7924771122	-0.2435351589	 1.0756978174	 0.149692
H	 0.3522846903	-0.2254350721	 2.1123758974	 0.132578
H	 1.7173421262	-4.9497792042	 0.7739222042	 0.293622
34.7433	82.1389	94.5322	235.7208	238.5933	264.1375	299.2551	359.7626	487.2631	537.2361	702.7248	726.3351	751.4952	753.2834	806.5472	875.6076	904.8718	971.0375	1037.0719	1045.5089	1109.3366	1126.8219	1193.4866	1226.9492	1304.0024	1334.2199	1351.3572	1364.5094	1403.0257	1409.8837	1418.2367	1473.6904	1487.8206	1492.5524	1501.1381	1509.3296	1850.8237	3034.2412	3039.2201	3059.1428	3073.1397	3100.5589	3113.6915	3117.068	3687.8008
CCCN1N=NNC1=O	CCCn1nn[nH]c1=O	
InChI=1S/C4H8N4O/c1-2-3-8-4(9)5-6-7-8/h2-3H2,1H3,(H,5,7,9)	InChI=1S/C4H8N4O/c1-2-3-8-4(9)5-6-7-8/h2-3H2,1H3,(H,5,7,9)
