14
gdb 21640	5.77314	1.5875	1.24866	3.9084	69.73	-0.2001	-0.0342	0.1659	916.1572	0.10982	-374.931066	-374.924183	-374.923239	-374.961676	26.968	
N	-0.0289097111	 1.375685395	 0.1280063696	-0.568299
C	 0.0329880316	-0.0120667457	 0.0468160789	 0.380389
N	-1.129646677	-0.6584318598	 0.044131236	-0.269018
N	-1.1606004475	-1.9902512681	 0.0374459337	-0.269023
C	-0.0292461541	-2.6899236419	 0.0333676269	 0.380398
N	-0.1555664113	-4.074036748	 0.1006822916	-0.568296
C	 1.2346927859	-2.064529446	 0.0199282724	-0.14604
C	 1.2665125714	-0.6953338933	 0.0268024948	-0.146035
H	 0.6835378004	 1.8709432323	-0.3883594842	 0.24584
H	-0.9590189849	 1.7207908141	-0.0699379027	 0.253807
H	-1.100634299	-4.373592221	-0.1005420707	 0.25381
H	 0.5332963038	-4.5966849608	-0.4206592842	 0.245841
H	 2.1453684494	-2.654462416	 0.0169713981	 0.103311
H	 2.2036094722	-0.1483411411	 0.0295488897	 0.103313
134.1615	307.878	313.8925	340.6637	341.1862	428.974	447.73	510.3523	540.0186	639.1865	658.9028	697.6658	790.1261	817.9677	857.2255	868.5174	973.7031	1037.1347	1070.3935	1142.5941	1150.3485	1232.7982	1323.8671	1345.7041	1437.5084	1491.5602	1600.0016	1624.9306	1636.0947	1661.3963	3173.313	3190.9472	3551.38	3551.4719	3657.7873	3657.9074
NC1=NN=C(N)C=C1	Nc1nnc(N)cc1	
InChI=1S/C4H6N4/c5-3-1-2-4(6)8-7-3/h1-2H,(H2,5,7)(H2,6,8)	InChI=1S/C4H6N4/c5-3-1-2-4(6)8-7-3/h1-2H,(H2,5,7)(H2,6,8)
