18
gdb 32809	3.27134	1.0617	0.83492	0.9413	76.19	-0.18	0.0354	0.2155	1382.7399	0.147064	-439.097917	-439.088662	-439.087718	-439.132898	33.42	
C	 0.0070122913	 1.5433833083	-0.1738268082	-0.384563
C	 0.4500587277	 0.0965883709	-0.0553409921	-0.054643
O	 0.1580761878	-0.559245466	-1.2926700844	-0.294963
C	 0.5198961949	-1.8772645232	-1.3452386737	 0.205639
C	 1.4508936121	-2.3869630283	-2.2037758792	 0.284305
N	 2.3263209606	-1.7877988872	-3.1019641841	-0.600069
O	 1.5252481227	-3.7319686674	-2.0667689161	-0.171572
C	 0.6232416749	-4.0910101985	-1.0950073829	-0.024499
C	-0.0138109542	-2.9962856194	-0.6144122763	-0.27641
H	 0.5414754527	 2.0458875367	-0.9852681287	 0.123436
H	-1.0649684697	 1.6007081502	-0.3827632812	 0.128983
H	 0.2092584577	 2.0791799408	 0.7583309289	 0.117934
H	 1.5268840021	 0.0243638997	 0.1540795818	 0.098952
H	-0.0794191973	-0.4064184711	 0.76628841	 0.098626
H	 2.0801272447	-0.8124459651	-3.2217111715	 0.256333
H	 2.3365738749	-2.25066983	-4.004622247	 0.252337
H	 0.5672341257	-5.1447832703	-0.8842131164	 0.130487
H	-0.7792796487	-2.97636339	 0.1452733913	 0.109685
47.5046	58.8277	128.8549	198.8728	234.9543	264.4653	274.6806	335.3904	398.4923	496.7632	614.9463	651.154	668.5109	699.1313	773.358	808.1208	815.0578	816.247	898.3057	914.5678	1034.5109	1051.0761	1081.8638	1136.0718	1172.4882	1183.4108	1202.8851	1290.7653	1294.217	1336.829	1397.5868	1422.4614	1470.8145	1482.9158	1499.3609	1526.0577	1558.8695	1627.9843	1699.5725	2994.3078	3028.4933	3045.0256	3119.3816	3122.2371	3255.0418	3294.9461	3513.2038	3613.0337
CCOC1=C(N)OC=C1	CCOc1c(N)occ1	
InChI=1S/C6H9NO2/c1-2-8-5-3-4-9-6(5)7/h3-4H,2,7H2,1H3	InChI=1S/C6H9NO2/c1-2-8-5-3-4-9-6(5)7/h3-4H,2,7H2,1H3
