17
gdb 56931	2.20469	1.25668	0.95714	3.5485	78.92	-0.2639	0.0214	0.2852	1265.9918	0.134551	-380.825197	-380.815883	-380.814939	-380.859795	33.846	
C	 0.218829678	 1.3963944692	 0.1885666736	-0.398554
C	-0.2411195723	-0.0502408235	-0.076925684	-0.144906
C	-1.6984062557	-0.1211605279	-0.2346175831	 0.266144
N	-2.8450508162	-0.1596603571	-0.3731014168	-0.321901
C	 0.444410265	-0.6330679177	-1.3059398174	-0.006965
N	 1.8480058446	-0.9906691179	-1.1248657936	-0.33108
C	 0.8598640829	-2.0693689685	-1.381360317	-0.24618
C	 0.6079265803	-3.0050067056	-0.3203399069	 0.37137
C	 0.37276013	-3.7995412864	 0.550422862	-0.428328
H	 1.3039559938	 1.4035473141	 0.3143794699	 0.143691
H	-0.0454632313	 2.051762638	-0.6464504586	 0.131694
H	-0.2467773732	 1.7928567586	 1.0937132904	 0.138336
H	 0.0299273538	-0.6750851178	 0.7809745281	 0.145065
H	 0.1445800591	-0.175217219	-2.2471837829	 0.108917
H	 2.3837152394	-0.8054747519	-1.9686002656	 0.24404
H	 0.8525049609	-2.5056572245	-2.3778192826	 0.121602
H	 0.168568601	-4.5012899921	 1.3211967845	 0.207054
45.6777	100.7741	142.5429	207.5174	225.215	242.1731	257.3379	348.5848	417.3527	519.2996	552.8709	553.8831	621.3758	639.4422	670.4457	784.4288	837.6143	856.0882	921.0992	956.187	990.6035	1032.6573	1088.5307	1110.859	1138.9104	1191.3287	1227.4842	1251.498	1299.9174	1324.5998	1397.709	1406.6082	1455.2634	1496.6611	1498.6703	2242.8216	2358.9973	3049.8308	3062.9568	3122.1054	3126.7477	3133.665	3138.5017	3502.3195	3511.7383
CC(C#N)C1NC1C#C	C[C@@H](C#N)[C@H]1N[C@H]1C#C	
InChI=1S/C7H8N2/c1-3-6-7(9-6)5(2)4-8/h1,5-7,9H,2H3	InChI=1S/C7H8N2/c1-3-6-7(9-6)5(2)4-8/h1,5-7,9H,2H3/t5-,6-,7+/m0/s1
