22
gdb 86815	3.71502	0.82966	0.77652	3.0151	83.74	-0.2215	-0.0095	0.212	1567.5547	0.19193	-404.346324	-404.336133	-404.335188	-404.382615	36.506	
C	 0.7047880289	 1.672167995	-0.3780500224	-0.392829
C	 0.1981914578	 0.2900212681	 0.0152582156	 0.01271
C	 0.8931265371	-0.8906865157	-0.7168515139	-0.173284
N	 1.7707931139	-1.0675942971	 0.4578024734	-0.073964
C	 2.148205078	-2.402167489	 0.8571481923	-0.254845
C	 3.2238589417	-2.4425014574	 1.9486308889	 0.372696
C	 4.281342307	-1.3575386876	 1.9107504799	-0.462747
O	 3.2288909416	-3.3273807575	 2.7722321057	-0.294707
C	 0.8350871852	-0.2964854939	 1.3035773198	-0.179408
H	 1.7990517271	 1.7045181609	-0.3568834882	 0.126401
H	 0.3781269649	 1.9393624986	-1.388854258	 0.115224
H	 0.3301027131	 2.4400171685	 0.3074461136	 0.115328
H	-0.8930075926	 0.2595256586	-0.0068409556	 0.076272
H	 0.2109603075	-1.7398902889	-0.8823076645	 0.085754
H	 1.4203352075	-0.6719507137	-1.6531343975	 0.098343
H	 1.3019805741	-3.0243260238	 1.1994503904	 0.099669
H	 2.5853713957	-2.9075425176	-0.0170522073	 0.123762
H	 3.8360773623	-0.3934708404	 2.1776831647	 0.147531
H	 5.0786116607	-1.6008890827	 2.6142479238	 0.133721
H	 4.6806327588	-1.2387336635	 0.8987259267	 0.136452
H	 1.3104416067	 0.4051619748	 1.9995998358	 0.097467
H	 0.1369117232	-0.9359851256	 1.8675633768	 0.090455
42.554	68.0994	83.7709	112.2199	160.3132	241.1822	281.4361	299.5294	370.9229	389.4535	429.4435	480.6594	539.1248	725.8855	782.6387	821.1505	861.9491	891.3885	899.4895	917.5206	974.5464	1001.053	1036.2244	1071.5926	1111.4164	1124.5715	1145.0589	1155.1631	1217.2537	1227.525	1241.2696	1246.3164	1278.4612	1299.0794	1337.8556	1365.0184	1375.4949	1381.9788	1410.6049	1451.041	1459.6406	1469.9123	1495.5241	1497.5608	1506.4049	1527.675	1815.91	2947.9681	2967.3118	2976.4146	3021.4833	3029.066	3042.682	3046.1337	3046.5371	3081.6774	3095.2779	3108.2644	3108.5496	3153.0758
CC1CN(CC(C)=O)C1	CC1CN(CC(=O)C)C1	
InChI=1S/C7H13NO/c1-6-3-8(4-6)5-7(2)9/h6H,3-5H2,1-2H3	InChI=1S/C7H13NO/c1-6-3-8(4-6)5-7(2)9/h6H,3-5H2,1-2H3
