14
gdb 50610	2.45299	1.70177	1.01747	6.9186	71.91	-0.2668	-0.0707	0.1961	1085.1651	0.102001	-432.90486	-432.896803	-432.895859	-432.938441	27.697	
O	-0.1557433568	-0.0029858289	 0.0018203148	-0.282984
C	-0.0547924333	 1.1977726507	 0.0100923967	 0.147321
N	 1.1347589088	 1.8947713151	 0.0030858507	-0.151273
C	 1.2498192769	 3.3629024984	 0.0129846965	-0.206632
C	 2.7936849588	 3.5556081296	-0.0029378358	-0.187714
N	 3.3910101886	 2.2149986696	-0.0195664345	-0.277967
C	 2.4356916225	 1.3688600845	-0.0152618182	 0.317623
C	 2.6860522286	-0.0452026447	-0.0285848574	 0.303337
N	 2.9785791042	-1.1624925239	-0.0400822208	-0.323338
H	-0.9209473343	 1.8861398497	 0.0248622742	 0.097949
H	 0.7623744985	 3.7935035703	-0.8659938106	 0.139993
H	 0.7824138329	 3.7799561593	 0.9092151994	 0.139991
H	 3.1356807358	 4.1094288338	-0.8825905638	 0.141844
H	 3.1554232489	 4.0964210164	 0.8769049589	 0.141849
47.6355	130.5884	159.472	174.5395	236.4215	238.1893	430.922	454.7743	536.7901	618.8596	719.0091	780.2103	820.2137	831.7172	958.0316	1013.4357	1028.0043	1104.2173	1110.2351	1216.6023	1255.0575	1272.1275	1305.9169	1344.5037	1402.7962	1446.3939	1491.9916	1526.7615	1676.6997	1816.2738	2370.6174	2956.8577	3051.7718	3059.0507	3082.0437	3104.4616
O=CN1CCN=C1C#N	O=CN1CCN=C1C#N	
InChI=1S/C5H5N3O/c6-3-5-7-1-2-8(5)4-9/h4H,1-2H2	InChI=1S/C5H5N3O/c6-3-5-7-1-2-8(5)4-9/h4H,1-2H2
