15
gdb 28532	3.25176	1.42567	0.99459	3.4601	72.75	-0.2049	-0.0118	0.1931	1113.3625	0.1162	-450.201889	-450.194243	-450.193299	-450.23368	29.986	
N	 0.0119048736	 1.422788425	 0.1453199178	-0.616377
C	-0.0106732078	 0.0096472255	 0.0294196002	 0.175542
C	-1.1435489707	-0.7770182405	 0.0591578938	-0.056213
N	-1.116232458	-2.1186820678	 0.0022007937	-0.374993
C	 0.095012193	-2.6535728855	-0.1104767117	 0.431915
O	 0.1666635935	-3.9950383525	-0.196815803	-0.400621
N	 1.2654783914	-2.0219215559	-0.1390125952	-0.361696
C	 1.2153157926	-0.6945156418	-0.0569790518	 0.360356
N	 2.3941849157	 0.0047692689	-0.0985806095	-0.571867
H	 0.4101005876	 1.8625330502	-0.680069868	 0.248719
H	-0.917373225	 1.8022474606	 0.2860543745	 0.243953
H	-2.1273703634	-0.316253157	 0.1405773673	 0.098626
H	-0.7471761296	-4.306655534	-0.1556732433	 0.300087
H	 3.2179725807	-0.5578465203	 0.0557511011	 0.260951
H	 2.3799514265	 0.8979688951	 0.3734117841	 0.261618
134.9233	211.6444	230.7534	295.8928	356.4226	374.7367	454.9469	500.3828	531.6515	553.5699	555.872	586.689	617.4926	744.8288	785.263	790.1745	818.8583	854.3946	956.7997	999.1643	1116.3657	1147.0549	1239.1524	1273.8793	1314.1643	1345.0958	1417.4722	1498.9004	1509.1577	1614.3029	1628.6777	1645.6825	1669.5235	3133.9375	3487.4735	3558.5316	3586.1665	3678.6635	3787.361
NC1=CN=C(O)N=C1N	Nc1cnc(O)nc1N	
InChI=1S/C4H6N4O/c5-2-1-7-4(9)8-3(2)6/h1H,5H2,(H3,6,7,8,9)	InChI=1S/C4H6N4O/c5-2-1-7-4(9)8-3(2)6/h1H,5H2,(H3,6,7,8,9)
