22
gdb 10516	2.60811	1.45816	1.09672	0.8957	79.12	-0.251	0.08	0.3309	1202.9556	0.198674	-350.186755	-350.177048	-350.176104	-350.221669	35.061	
C	 0.2080117004	-0.9744956187	 1.8589093639	-0.382686
C	 0.0015483254	-0.4581109162	 0.4295648888	-0.251712
C	-1.4044353493	-0.6668442912	-0.1162570344	 0.376344
C	-2.5017849874	 0.1041083095	 0.5801051065	-0.128864
O	-2.2416401608	 1.4893095835	 0.4579117915	-0.235109
C	-3.1885942842	 2.2850961785	 1.1258337225	-0.221836
C	-1.5659745959	-0.8784466599	-1.6017736384	-0.305394
C	-1.7727663475	-2.0317058032	-0.6500885837	-0.315255
H	 1.2481612673	-0.8421492688	 2.1728941919	 0.110152
H	-0.4192795234	-0.4387808759	 2.5784252647	 0.117646
H	-0.0327095257	-2.0403969028	 1.9355952299	 0.112854
H	 0.2363268342	 0.6112770847	 0.3874879285	 0.113862
H	 0.7117419086	-0.96018181	-0.2386044072	 0.087009
H	-3.4793817684	-0.1425900561	 0.1313340758	 0.076571
H	-2.5613875579	-0.1731921342	 1.646792531	 0.084319
H	-2.8991561161	 3.3295392634	 0.9849258204	 0.125341
H	-4.2038284056	 2.1413067032	 0.7215056872	 0.100685
H	-3.2199491588	 2.0676880082	 2.2059179862	 0.100782
H	-2.4377670286	-0.451907834	-2.0863761779	 0.110637
H	-0.6716258919	-0.8755144532	-2.2156602935	 0.10873
H	-1.0142942887	-2.8067873797	-0.6123006918	 0.109207
H	-2.7833681356	-2.3966381871	-0.4971456318	 0.106717
45.5901	87.4631	115.8644	168.3485	219.2667	225.087	256.6865	313.1155	354.1848	388.3056	426.1169	529.1993	724.9	775.4236	797.3882	889.9404	921.2789	931.0254	957.002	1001.5707	1018.2975	1046.639	1052.1833	1078.5159	1102.5841	1118.9826	1155.2112	1184.0019	1187.1723	1225.7165	1250.6838	1278.5898	1331.6924	1354.2363	1382.9785	1407.7128	1429.9345	1468.5292	1478.8932	1482.6989	1485.6306	1496.7325	1502.0509	1506.3474	1510.5	1527.7309	2944.817	2965.8796	2972.5282	3005.3973	3029.1899	3033.9011	3068.7423	3101.7272	3105.3342	3110.5269	3125.4875	3131.5735	3202.8088	3218.0393
CCC1(COC)CC1	CCC1(COC)CC1	
InChI=1S/C7H14O/c1-3-7(4-5-7)6-8-2/h3-6H2,1-2H3	InChI=1S/C7H14O/c1-3-7(4-5-7)6-8-2/h3-6H2,1-2H3
