18
gdb 87596	3.46352	1.3077	1.18803	1.1543	78.2	-0.2408	-0.0032	0.2376	1105.699	0.147997	-401.910378	-401.902649	-401.901704	-401.942431	30.482	
C	-0.0538355113	 1.5248522704	-0.1383217326	-0.422992
C	-0.023469809	 0.032573135	 0.0692788524	 0.00717
O	 1.2415218605	-0.6251841289	-0.0652871248	-0.312616
C	 0.6014180996	-0.6307717194	 1.2267086325	 0.454331
C	 1.2743278848	 0.0388964131	 2.3774583361	-0.17443
C	 1.2801787109	-0.752675198	 3.4561927729	-0.058559
C	 0.5732123288	-2.038306431	 3.178863396	-0.096638
N	-0.8703359585	-1.836376739	 2.8411214126	-0.337845
C	 0.1332737593	-1.9648000759	 1.7618733799	-0.165709
H	 0.7961163657	 2.0134100342	 0.3428801272	 0.126611
H	-0.0185872227	 1.7591505808	-1.2075304634	 0.128451
H	-0.9787689178	 1.946748955	 0.2686762153	 0.128912
H	-0.8482438397	-0.5068849593	-0.4021821243	 0.086113
H	 1.6753661295	 1.0423365936	 2.3216918831	 0.105956
H	 1.6962683443	-0.4989443002	 4.423396621	 0.106302
H	 0.8701307591	-2.9632991619	 3.660277236	 0.094777
H	-1.3503981519	-2.7318301352	 2.9311383253	 0.229252
H	 0.1166842684	-2.8192197433	 1.0946316849	 0.100913
116.4612	157.3906	196.3378	231.2112	355.3949	398.0135	411.1055	495.758	538.4423	623.563	747.6019	769.2516	795.0424	819.049	847.6645	863.253	918.2791	930.042	947.9061	965.8772	985.0452	1030.7632	1063.9263	1102.5275	1126.1551	1146.3439	1149.7603	1163.228	1231.1793	1253.8308	1319.04	1343.8038	1394.744	1397.2442	1408.5795	1468.8168	1488.3882	1509.7653	1647.8063	3039.6004	3079.7944	3102.2452	3132.1462	3172.3024	3181.9594	3204.1539	3228.7247	3463.7904
CC1OC11C=CC2NC12	C[C@H]1O[C@]21C=C[C@H]1N[C@@H]21	
InChI=1S/C7H9NO/c1-4-7(9-4)3-2-5-6(7)8-5/h2-6,8H,1H3	InChI=1S/C7H9NO/c1-4-7(9-4)3-2-5-6(7)8-5/h2-6,8H,1H3/t4-,5-,6-,7+/m1/s1
