23
gdb 121740	6.18605	0.54005	0.51719	3.5734	86.27	-0.2346	0.0678	0.3024	2250.7658	0.204482	-421.658308	-421.646644	-421.6457	-421.697784	40.102	
C	-0.0151971218	 1.5584325774	-0.0860200701	-0.378097
C	-0.1858531931	 0.0553577134	-0.3192444223	-0.165188
C	 1.0881012556	-0.5960047154	-0.8658387149	-0.136802
N	 0.935780355	-2.0252039315	-1.0800037376	-0.377121
C	 1.3059950186	-2.617431304	-2.2708732758	 0.504716
O	 1.6575314182	-1.9825119839	-3.2521196721	-0.410446
N	 1.2483501607	-3.9987296729	-2.2469756375	-0.37379
C	 1.4044874025	-4.769887225	-3.4710933821	-0.12395
C	 2.1688162316	-6.0696127241	-3.2274875049	-0.377563
H	 0.7866809238	 1.7616974503	 0.6327709123	 0.114111
H	 0.2383754446	 2.0760524595	-1.0174968667	 0.122304
H	-0.9331979475	 2.006543859	 0.3053496802	 0.114165
H	-0.4719776858	-0.4339487555	 0.6219042918	 0.084445
H	-1.0046348327	-0.1301500468	-1.0240842549	 0.106412
H	 1.352987562	-0.1727293291	-1.8374709212	 0.149653
H	 1.9287020387	-0.3944077265	-0.184669327	 0.093415
H	 0.8824301444	-2.6091565309	-0.2606428849	 0.22893
H	 0.7003712678	-4.4261549338	-1.5161411927	 0.227003
H	 0.4266272043	-4.9895572612	-3.9255463677	 0.096956
H	 1.939379941	-4.1226777246	-4.1683611702	 0.149989
H	 3.1665393276	-5.8650491701	-2.8284981706	 0.125854
H	 1.6451880625	-6.7158271995	-2.5132159155	 0.106608
H	 2.275539442	-6.6302185947	-4.1613758655	 0.118396
21.9105	24.6816	70.928	84.3439	106.1435	186.2386	234.2501	249.4611	272.5451	317.7006	335.3233	342.7799	394.1068	487.1032	562.512	719.1764	756.6163	763.0201	803.0369	881.9457	895.3507	923.0069	988.9976	1040.2775	1075.3858	1115.2397	1127.9607	1157.8273	1175.76	1197.2296	1231.5954	1275.4829	1300.284	1322.8588	1338.9431	1389.4289	1406.9906	1412.4367	1414.3416	1487.5825	1490.1278	1496.0741	1497.3115	1499.1439	1511.1431	1512.7504	1515.5044	1555.697	1779.2901	2988.8404	2990.4331	3014.6139	3031.2928	3031.7051	3059.7294	3092.2024	3096.9017	3106.9481	3116.6562	3116.8818	3127.8274	3610.357	3624.775
CCCNC(=O)NCC	CCCNC(=O)NCC	
InChI=1S/C6H14N2O/c1-3-5-8-6(9)7-4-2/h3-5H2,1-2H3,(H2,7,8,9)	InChI=1S/C6H14N2O/c1-3-5-8-6(9)7-4-2/h3-5H2,1-2H3,(H2,7,8,9)
