16
gdb 52312	5.53975	0.76524	0.70656	2.619	67.	-0.2634	-0.0009	0.2626	1507.6984	0.124623	-475.051227	-475.042796	-475.041852	-475.086515	28.616	
O	-0.1410576112	 0.6401257432	-1.2155757772	-0.269052
C	 0.2582958334	 1.225080412	-0.2558329839	 0.172001
O	 0.5491903183	 2.5417626118	-0.2742395209	-0.181081
C	 1.0713956557	 3.1398441489	 0.916867031	-0.099269
C	 2.5281469673	 3.5457349245	 0.6955437371	 0.002772
C	 2.7233932105	 4.6126410872	-0.4149186134	-0.118861
O	 3.2794566301	 5.7514441219	 0.2930796721	-0.215098
C	 3.4047856053	 5.3508801255	 1.5750916058	 0.127722
N	 3.0481685271	 4.1832641191	 1.9199564778	-0.27988
H	 0.4247442429	 0.7652200568	 0.7380766284	 0.082968
H	 0.4571741822	 4.0190710231	 1.1343776567	 0.128626
H	 1.0001872355	 2.450276683	 1.7655835605	 0.13005
H	 3.1060156993	 2.6388918242	 0.4843266245	 0.100211
H	 3.4344179373	 4.3127396391	-1.1874877522	 0.13231
H	 1.7897455565	 4.9235539407	-0.8900511496	 0.13718
H	 3.8229655898	 6.099160889	 2.2394395234	 0.1494
34.8157	61.6469	69.1661	143.6468	242.8615	302.6459	375.1004	429.6523	546.7016	679.5688	729.5176	851.4377	907.1874	927.9638	957.4153	973.3221	1012.3027	1041.8754	1048.7077	1086.9248	1129.4443	1153.5569	1174.2145	1223.3342	1277.3558	1303.5806	1317.6242	1361.0401	1381.4785	1402.5662	1429.2603	1499.5756	1519.8238	1699.3336	1869.6335	2948.3338	3039.139	3042.8772	3070.8605	3098.0517	3121.2069	3218.2603
O=COCC1COC=N1	O=COC[C@H]1COC=N1	
InChI=1S/C5H7NO3/c7-4-9-2-5-1-8-3-6-5/h3-5H,1-2H2	InChI=1S/C5H7NO3/c7-4-9-2-5-1-8-3-6-5/h3-5H,1-2H2/t5-/m1/s1
