18
gdb 19292	3.37777	1.86113	1.47663	1.3372	67.45	-0.2421	0.0729	0.315	908.4314	0.153564	-384.895555	-384.887573	-384.886629	-384.927893	29.823	
C	-0.1908451391	 1.3266252307	-0.0764272287	-0.249982
O	 0.1799006705	-0.0322658012	 0.0846522746	-0.251732
C	 0.7358381756	-0.5991877733	-1.0812500979	 0.074592
C	 1.3464870737	-1.9765794904	-0.8788837829	-0.075472
C	 0.3082224824	-2.9389908914	-0.3785611051	-0.294397
C	 0.3160380906	-2.6010441217	-1.8407937449	-0.069153
C	-0.309713016	-1.2230753799	-2.0855421421	 0.102702
O	-1.6672196438	-1.0136573052	-1.7886141668	-0.438766
H	 0.6812092299	 1.9487952562	-0.3280138659	 0.108646
H	-0.950849739	 1.4517782143	-0.858256307	 0.125601
H	-0.5999360641	 1.6635341849	 0.8792066745	 0.12686
H	 1.4173509277	 0.1116233677	-1.5665119969	 0.06516
H	 2.4068780967	-2.1775459097	-0.795702128	 0.087339
H	 0.6810591585	-3.9284995995	-0.1356582782	 0.11542
H	-0.4861415532	-2.5986887585	 0.2783373694	 0.11285
H	 0.478579603	-3.3564856696	-2.599665362	 0.086628
H	-0.1527899809	-0.8803585633	-3.1113391928	 0.085618
H	-1.7374837124	-0.9838829902	-0.8267227891	 0.288085
89.6251	121.9642	173.7994	224.0525	247.0188	340.5481	384.1486	469.3357	555.1293	605.6858	726.4524	780.2355	820.1467	828.2622	924.0062	983.7182	994.7894	1015.8994	1041.9048	1058.8124	1070.5186	1080.812	1114.0913	1145.6329	1176.1606	1185.0481	1205.3873	1232.4551	1268.5474	1305.9141	1315.7422	1367.6587	1379.7859	1434.0078	1478.1595	1488.335	1500.4256	1513.355	2988.2761	3016.3046	3053.2087	3081.0514	3117.0554	3128.5008	3184.9805	3194.6464	3210.8993	3784.2588
COC1C2CC2C1O	CO[C@H]1[C@H]2C[C@H]2[C@H]1O	
InChI=1S/C6H10O2/c1-8-6-4-2-3(4)5(6)7/h3-7H,2H2,1H3	InChI=1S/C6H10O2/c1-8-6-4-2-3(4)5(6)7/h3-7H,2H2,1H3/t3-,4+,5-,6+/m1/s1
