19
gdb 70460	3.54165	0.99654	0.89882	3.7223	79.51	-0.2452	0.0315	0.2767	1331.8577	0.159355	-382.046676	-382.037888	-382.036944	-382.080532	32.697	
C	-0.0032464355	 1.534213147	 0.1310293796	-0.493528
C	-0.0507268626	 0.0407654509	-0.0039476065	 0.325492
C	-0.8688007235	-0.8361177486	 0.8623410639	-0.287539
N	 0.5977271971	-0.9073987828	 1.0016882438	-0.159049
C	 1.0517328037	-1.7608633269	-0.1536051465	-0.176503
C	 0.5195142855	-0.7406238424	-1.193455295	-0.052974
C	-0.4446734606	-1.187678365	-2.3043523417	-0.37015
C	 0.2078862875	-2.049175813	-3.2889647003	 0.260633
N	 0.7464618638	-2.7302572521	-4.051623817	-0.30442
H	 0.9793731862	 1.9262102492	-0.1525000769	 0.126914
H	-0.7549216139	 2.0103868541	-0.5099769616	 0.12287
H	-0.2025391109	 1.8350528764	 1.1633821846	 0.135565
H	-1.3547078529	-0.3688315677	 1.7136212484	 0.124181
H	-1.4015195234	-1.6971496676	 0.4625356363	 0.107502
H	 2.137064011	-1.8676853075	-0.1499531074	 0.123936
H	 0.5960283356	-2.7572174176	-0.1657550606	 0.111371
H	 1.3485832043	-0.191905642	-1.6480616811	 0.102107
H	-1.2975904965	-1.730034352	-1.8825436854	 0.149859
H	-0.8524856847	-0.3119716623	-2.8234845767	 0.153733
57.3124	115.4539	163.7437	177.5333	227.1725	310.1739	354.4419	392.5697	453.6702	499.4415	529.3336	624.3346	732.5934	773.3177	850.0513	863.9042	896.76	935.6312	968.3078	1003.5795	1027.8754	1075.9555	1088.551	1106.374	1117.8613	1133.0863	1197.4818	1222.5657	1242.9529	1273.2583	1320.1059	1322.1198	1362.9038	1400.3753	1423.6421	1463.9248	1482.393	1492.0394	1495.7683	1516.6629	2360.906	3027.7987	3041.1836	3045.5324	3068.7575	3087.4931	3089.4331	3100.9576	3114.5611	3124.7064	3192.2753
CC12CN1CC2CC#N	C[C@]12CN1C[C@H]2CC#N	
InChI=1S/C7H10N2/c1-7-5-9(7)4-6(7)2-3-8/h6H,2,4-5H2,1H3	InChI=1S/C7H10N2/c1-7-5-9(7)4-6(7)2-3-8/h6H,2,4-5H2,1H3/t6-,7-,9?/m1/s1
