17
gdb 87076	4.51668	0.70275	0.67879	1.2014	95.25	-0.23	-0.0208	0.2092	1685.8914	0.132463	-384.621901	-384.612142	-384.611198	-384.656509	36.073	
C	-0.0316130519	 1.5471083433	 0.0566546731	-0.407062
C	 0.0412512939	 0.0377754702	 0.0153864075	-0.028886
C	 1.3460714214	-0.675944675	-0.2254570024	-0.341519
C	 0.6948731697	-0.7264962305	 1.1546162263	 0.119896
O	 1.2482378806	 0.0762617576	 2.1639189559	-0.443023
C	 0.1140734405	-1.9599547421	 1.6027864793	 0.490113
C	-0.3436342231	-3.0047528201	 2.0134750564	-0.325763
C	-0.8658315319	-4.1774599677	 2.460102589	 0.299007
C	-1.3275832573	-5.219835284	 2.859848987	-0.576161
H	 0.8473638757	 1.9697534431	 0.5465181433	 0.13571
H	-0.0922902716	 1.9520664618	-0.9591663753	 0.118248
H	-0.9161207972	 1.8827678656	 0.6072625828	 0.126387
H	-0.8369746919	-0.4521547279	-0.3941360595	 0.105897
H	 1.3588606339	-1.5789237475	-0.8245671512	 0.125195
H	 2.2420755064	-0.0659916345	-0.2787984274	 0.121498
H	 1.977804502	-0.4126988479	 2.5607895963	 0.289417
H	-1.7362411591	-6.1355021542	 3.2087531589	 0.191044
72.175	80.4302	178.524	190.433	219.2249	257.9397	293.2908	321.4268	367.1106	455.7623	497.4782	501.7325	547.1597	573.5724	592.2557	610.8226	625.1186	778.4636	846.9162	891.7581	929.7468	996.7607	1022.5982	1057.1569	1112.634	1141.4742	1192.2853	1242.1255	1295.6967	1337.4464	1403.4709	1421.1052	1473.596	1492.7167	1500.8478	2177.9204	2346.6819	3039.8475	3099.4968	3132.4136	3134.3743	3159.1614	3229.5285	3504.0043	3799.7224
CC1CC1(O)C#CC#C	C[C@H]1C[C@]1(O)C#CC#C	
InChI=1S/C8H8O/c1-3-4-5-8(9)6-7(8)2/h1,7,9H,6H2,2H3	InChI=1S/C8H8O/c1-3-4-5-8(9)6-7(8)2/h1,7,9H,6H2,2H3/t7-,8+/m0/s1
