15
gdb 50312	3.34588	1.48707	1.12662	6.5496	66.92	-0.2587	-0.031	0.2277	1033.4369	0.113729	-453.973143	-453.965677	-453.964733	-454.005556	27.265	
O	-0.1585575791	 0.0277329412	 0.1376857967	-0.26083
C	-0.0127460837	 1.2182235956	 0.1183589513	 0.161554
N	 1.1959448604	 1.9004759348	 0.0108023426	-0.141496
C	 1.2523936742	 3.3610283205	-0.0283935285	-0.205965
C	 2.7482821208	 3.6283031742	 0.0264524476	-0.031066
C	 3.5285699239	 3.0877578831	 1.159664451	-0.252047
N	 3.4662882661	 2.3504566674	-0.1309005601	-0.156043
C	 2.4812629654	 1.303398594	-0.0791302019	 0.433366
O	 2.7229991547	 0.1361955994	-0.1116252012	-0.310336
H	-0.8558123235	 1.9359178527	 0.1894963375	 0.08494
H	 0.8294542149	 3.7469984972	-0.9627753915	 0.136071
H	 0.7030579532	 3.8082864996	 0.8069059016	 0.135517
H	 3.1332727893	 4.4629845193	-0.5486450407	 0.120954
H	 4.5061493002	 3.4974159518	 1.3894356425	 0.144011
H	 2.9941485433	 2.6629340094	 2.0057665332	 0.141368
67.3777	181.3289	192.0309	219.6405	266.2902	364.9315	481.4493	492.2112	671.4479	714.4305	746.0619	800.5028	833.6423	870.9567	936.4679	988.3416	1030.4296	1053.298	1091.2009	1115.3317	1119.4625	1169.325	1211.7664	1221.3476	1263.6144	1292.3442	1384.9864	1398.0021	1455.9227	1506.6393	1525.9554	1816.6355	1902.5658	2920.0798	3033.6	3072.2372	3118.6699	3175.8826	3214.6814
O=CN1CC2CN2C1=O	O=CN1C[C@H]2CN2C1=O	
InChI=1S/C5H6N2O2/c8-3-6-1-4-2-7(4)5(6)9/h3-4H,1-2H2	InChI=1S/C5H6N2O2/c8-3-6-1-4-2-7(4)5(6)9/h3-4H,1-2H2/t4-,7?/m0/s1
