20
gdb 16886	3.75258	1.76658	1.38664	0.2973	81.04	-0.2126	0.0294	0.242	968.4947	0.179311	-311.883386	-311.876003	-311.875058	-311.914539	29.693	
C	 0.0511219374	 1.539242055	 0.0020009416	-0.477804
C	-0.037880646	 0.0387493282	-0.0018414904	 0.308949
C	-0.0025229731	-0.6833589047	-1.1276212479	-0.140329
C	-0.0461234823	-2.1656172182	-1.155417603	-0.056167
C	 0.9807465109	-2.9598120102	-0.3549470681	-0.291442
C	-0.4406943154	-2.8714726202	 0.1249023204	-0.016073
C	-0.8576932734	-2.0024401783	 1.2955668161	-0.218868
C	-0.1333883133	-0.6430154024	 1.3470837274	-0.310285
H	 0.9149576943	 1.8869601195	 0.5848865729	 0.118448
H	 0.1451327103	 1.9423272688	-1.0103414203	 0.116635
H	-0.8353438573	 1.9894598627	 0.46845831	 0.11791
H	 0.0794559477	-0.1755668239	-2.0861836804	 0.072755
H	-0.3655742699	-2.6085225857	-2.0933393134	 0.077373
H	 1.3226257778	-3.9055440482	-0.7621431717	 0.106147
H	 1.7489277517	-2.391705519	 0.1582874006	 0.113288
H	-1.0336530898	-3.7742086638	 0.0067672026	 0.080089
H	-1.9367260614	-1.8197788853	 1.2101976132	 0.100259
H	-0.7070058965	-2.5336789496	 2.2428509044	 0.094966
H	 0.8773893216	-0.7747135289	 1.7595946966	 0.10884
H	-0.6490699534	 0.0124762042	 2.0597944794	 0.095309
138.1938	186.5063	224.1757	314.1382	338.1648	376.1976	463.5544	470.8153	585.6161	666.9434	750.1727	763.6478	827.6224	848.309	866.9938	917.062	949.1834	966.4679	1011.2516	1042.0887	1046.2848	1057.1181	1086.1564	1110.8012	1127.0109	1132.9801	1185.815	1220.6182	1224.6079	1268.5947	1330.0315	1356.5717	1385.9187	1394.6628	1413.7777	1418.8922	1476.8505	1482.7423	1487.4345	1492.2321	1502.8076	1729.2604	3001.5509	3007.799	3017.6895	3042.3415	3049.7958	3056.3443	3104.7452	3130.7361	3139.081	3143.3851	3159.0342	3217.4825
CC1=CC2CC2CC1	CC1=C[C@H]2C[C@H]2CC1	
InChI=1S/C8H12/c1-6-2-3-7-5-8(7)4-6/h4,7-8H,2-3,5H2,1H3	InChI=1S/C8H12/c1-6-2-3-7-5-8(7)4-6/h4,7-8H,2-3,5H2,1H3/t7-,8+/m1/s1
