21
gdb 111462	2.69418	1.39613	1.04282	2.6966	81.77	-0.2361	-0.0165	0.2196	1216.9273	0.182983	-387.118854	-387.110193	-387.109249	-387.152331	33.424	
C	-0.0729563137	 1.5303913586	 0.1948053824	-0.39057
C	-0.1355331298	 0.0106249151	 0.01002123	-0.172725
C	 0.585234713	-0.4949347411	-1.2508991731	-0.095402
C	 0.833722082	-1.9931891491	-1.3248986882	-0.051146
C	-0.3475118758	-2.8892672782	-1.6120024112	-0.293298
C	 0.5711404354	-2.484760978	-2.7379215681	-0.047213
C	 0.1277424108	-1.3063229928	-3.5810253269	-0.320022
C	-0.1438346756	-0.1791208215	-2.5727956848	 0.366255
O	-0.8364464128	 0.7839705758	-2.784662558	-0.310993
H	 0.9655076639	 1.8731853317	 0.2735959607	 0.105036
H	-0.5361941357	 2.0427138217	-0.6502502896	 0.149654
H	-0.5907003213	 1.8319842002	 1.1107916369	 0.106791
H	 0.314287669	-0.4849748886	 0.8791368914	 0.093776
H	-1.1814590191	-0.3169371247	-0.0210108148	 0.101056
H	 1.5599063204	 0.0158161533	-1.3206267915	 0.097061
H	 1.6531774758	-2.4024009987	-0.744783373	 0.086222
H	-0.2919604816	-3.9140437894	-1.262505625	 0.115415
H	-1.3494406913	-2.4690761256	-1.5821013216	 0.117683
H	 1.2064219664	-3.2398801034	-3.1855075545	 0.088077
H	 0.929870596	-0.9727680998	-4.2532106681	 0.126745
H	-0.7582071059	-1.4798673754	-4.198961963	 0.127599
67.6996	105.6062	168.1619	203.8884	260.6576	311.1143	353.9076	440.2576	468.754	555.1059	606.3898	656.6178	729.5383	784.2003	816.3996	827.5109	890.4007	900.505	933.6796	975.264	992.7503	1031.8308	1057.0757	1074.6833	1088.5774	1101.9736	1112.9774	1138.3569	1166.7493	1192.3652	1206.8843	1260.4217	1284.5405	1288.0516	1328.5611	1358.26	1372.3217	1392.5002	1407.9943	1456.2108	1485.5552	1492.7347	1496.1485	1516.3032	1835.9371	2975.8701	3025.6381	3028.4966	3032.6661	3060.9543	3088.4215	3095.0565	3121.2787	3140.8157	3167.1498	3177.6444	3210.8141
CCC1C2CC2CC1=O	CC[C@H]1[C@H]2C[C@H]2CC1=O	
InChI=1S/C8H12O/c1-2-6-7-3-5(7)4-8(6)9/h5-7H,2-4H2,1H3	InChI=1S/C8H12O/c1-2-6-7-3-5(7)4-8(6)9/h5-7H,2-4H2,1H3/t5-,6-,7-/m0/s1
