15
gdb 46830	2.66862	1.64844	1.19771	4.4948	71.91	-0.2587	0.0018	0.2605	1019.3001	0.11259	-420.622542	-420.614941	-420.613997	-420.6546	29.076	
O	-0.0368806312	 0.0296735353	 0.261659705	-0.326713
C	 0.0020134027	 1.2003225671	 0.0352704025	 0.397468
O	-1.1251624228	 1.9501722187	-0.1580098372	-0.233213
C	-0.8210494708	 3.2548901484	-0.6762066438	-0.099974
C	 0.6671135143	 3.463943426	-0.4692547977	-0.118486
C	 1.1653962818	 3.266781429	 0.9210221692	-0.309725
C	 1.2141222056	 2.098270779	-0.0719228168	 0.020914
C	 2.4603537033	 1.5536847999	-0.5058457335	 0.189644
C	 3.5123816775	 1.1036857841	-0.8727063054	-0.381992
H	-1.0873507505	 3.280328065	-1.738479101	 0.128407
H	-1.4390617211	 3.9804127651	-0.1387068278	 0.129186
H	 1.2118492316	 4.0946654029	-1.1594666653	 0.123766
H	 2.1294251063	 3.6893595398	 1.1756524099	 0.144051
H	 0.4542449517	 3.2050764347	 1.7387263752	 0.140808
H	 4.4375722118	 0.6929715249	-1.1938043132	 0.195858
119.5091	137.2085	189.2171	239.369	367.0627	403.3361	478.8989	526.7906	582.6539	603.0659	664.8414	671.4834	711.1949	772.9782	839.9048	876.0637	906.9132	954.9887	1020.763	1057.1739	1067.332	1069.041	1102.3119	1131.36	1227.8526	1258.7129	1295.8188	1379.8946	1407.333	1486.1378	1519.6266	1889.0972	2248.238	3043.7782	3090.2977	3136.7836	3205.6488	3236.3743	3502.1452
O=C1OCC2CC12C#C	O=C1OC[C@H]2C[C@@]12C#C	
InChI=1S/C7H6O2/c1-2-7-3-5(7)4-9-6(7)8/h1,5H,3-4H2	InChI=1S/C7H6O2/c1-2-7-3-5(7)4-9-6(7)8/h1,5H,3-4H2/t5-,7-/m1/s1
