14
gdb 25615	4.9469	0.86214	0.77063	2.7046	63.74	-0.2585	-0.0097	0.2488	1378.7779	0.101243	-473.866499	-473.858678	-473.857733	-473.900823	26.791	
O	 0.2726862015	 0.1118717172	-0.306023118	-0.266564
C	 0.3178044081	 1.3032021759	-0.3205668361	 0.175188
O	 0.8487002967	 2.0227566475	 0.6915275196	-0.172297
C	 0.9127122845	 3.4418583619	 0.5323939243	-0.207323
C	 2.3032354983	 3.8674563649	 0.192190919	 0.234409
C	 3.4329066396	 3.1280973645	 0.0838897585	-0.099013
O	 4.4559410336	 3.9762690038	-0.2426794437	-0.134858
C	 3.8752897454	 5.1924628468	-0.3104039174	 0.078154
N	 2.6062385795	 5.2007357526	-0.0649245399	-0.307671
H	-0.070129222	 1.9396260712	-1.1398613853	 0.085809
H	 0.2093866975	 3.7796855152	-0.240419957	 0.133926
H	 0.5901200684	 3.8822066974	 1.4809090688	 0.149987
H	 3.677288724	 2.0875195787	 0.1991589163	 0.171498
H	 4.5144034348	 6.0246670724	-0.5601493491	 0.158754
35.9111	53.9387	138.403	214.3861	252.1422	362.4892	400.7083	634.3391	673.0672	683.8178	722.7785	784.2544	854.7502	937.8948	1002.0547	1009.1695	1042.6645	1067.4684	1097.0139	1136.967	1161.6809	1243.8996	1253.4038	1297.6939	1340.8148	1404.5821	1431.5577	1495.6541	1554.8521	1637.1922	1872.3562	2949.5256	3022.6516	3081.284	3278.7789	3310.203
O=COCC1=COC=N1	O=COCc1cocn1	
InChI=1S/C5H5NO3/c7-4-9-2-5-1-8-3-6-5/h1,3-4H,2H2	InChI=1S/C5H5NO3/c7-4-9-2-5-1-8-3-6-5/h1,3-4H,2H2
