19
gdb 71358	2.8758	1.96688	1.54639	1.1456	78.08	-0.221	0.0743	0.2953	922.324	0.161752	-381.971321	-381.96445	-381.963506	-382.002113	28.887	
C	 0.0337076044	 1.5735392693	-0.0887967723	-0.522802
C	 0.0068484749	 0.0657357482	-0.014370104	 0.313821
C	 0.5608231039	-0.9359915035	-1.040846926	-0.223382
N	 0.0096423072	-1.8901928261	 0.0113512047	-0.16977
C	 0.5852781241	-0.9015624783	 1.0692986414	-0.026604
C	-0.3534118254	-0.99870178	 2.2575145527	-0.059332
N	-1.2653458056	 0.166149055	 2.3778102337	-0.342387
C	-1.6605359356	-1.0096904852	 1.5628249077	-0.059332
C	-1.2021629292	-0.9166066373	 0.1193333575	-0.026608
H	 1.0672067633	 1.9331693889	-0.1552529883	 0.110917
H	-0.4932123793	 1.9199712362	-0.9855747698	 0.110909
H	-0.4372686599	 2.0161153954	 0.7893281332	 0.149096
H	 0.0570333714	-1.0112978111	-2.01001289	 0.092304
H	 1.646866941	-0.9979250821	-1.1650679433	 0.092305
H	 1.6629749706	-0.9765567557	 1.2256153735	 0.067997
H	-0.1260695	-1.6093816754	 3.1226704529	 0.097389
H	-1.7422566877	 0.1034884662	 3.2761709549	 0.230093
H	-2.4967344	-1.629310543	 1.8627459109	 0.097388
H	-1.9336198681	-1.0068432614	-0.6858481894	 0.067998
169.0534	228.969	242.1022	354.0021	403.1139	463.7275	519.4814	638.3589	711.3334	720.9318	755.5036	807.6584	821.2838	856.3107	887.404	902.38	905.7414	942.0769	976.1172	979.2127	1017.1603	1034.5663	1047.661	1095.491	1117.1269	1123.9337	1149.1573	1160.4028	1193.2296	1203.5284	1230.2085	1251.6609	1283.064	1302.5789	1353.7415	1371.8956	1399.7748	1408.4727	1482.8527	1501.9281	1532.2786	3027.9935	3036.4269	3084.3399	3093.7942	3101.2876	3104.3774	3148.4822	3185.0796	3195.0977	3478.657
CC12CN3C1C1NC1C23	C[C@@]12CN3[C@@H]1[C@H]1N[C@H]1[C@@H]23	
InChI=1S/C7H10N2/c1-7-2-9-5(7)3-4(8-3)6(7)9/h3-6,8H,2H2,1H3	InChI=1S/C7H10N2/c1-7-2-9-5(7)3-4(8-3)6(7)9/h3-6,8H,2H2,1H3/t3-,4+,5+,6-,7+
