16
gdb 73758	2.54237	1.55503	1.04091	4.8653	77.52	-0.2575	-0.0501	0.2074	1118.966	0.124308	-400.764683	-400.756743	-400.755799	-400.79723	29.632	
C	 0.0704328919	 1.4967389356	 0.09460133	-0.506682
C	-0.0009296529	 0.01054978	 0.0114505269	 0.206021
C	-0.0516806854	-0.7443437553	-1.1073656507	 0.145862
C	-0.1006148328	-0.2548392956	-2.4378233217	 0.189064
N	-0.1540358958	 0.1268563542	-3.5310386692	-0.349089
C	-0.0089556685	-2.2054175566	-0.7674197854	-0.082575
O	 1.1976163594	-2.5809615067	-0.0771593002	-0.246592
C	 0.036214244	-2.2850260008	 0.7008455491	 0.037806
C	 0.0048708313	-0.8660071354	 1.2505250268	-0.327494
H	 1.0112280624	 1.8106143347	 0.5637999502	 0.147092
H	 0.0064337528	 1.9611609778	-0.8917345794	 0.157197
H	-0.7381390186	 1.8903909786	 0.7226681491	 0.139658
H	-0.4350848672	-2.9571615108	-1.422954187	 0.116354
H	-0.3758084121	-3.114053412	 1.2685417012	 0.108105
H	 0.8689480966	-0.6553287238	 1.8921284839	 0.138822
H	-0.8924696853	-0.6884142039	 1.8578154363	 0.12645
132.284	140.1534	153.9414	178.7353	311.9593	357.522	426.5114	454.3349	506.7297	570.624	635.3689	705.2503	770.0578	845.0692	861.2107	896.8245	923.8678	974.8975	1006.4113	1062.2436	1098.7781	1116.0943	1186.547	1189.8997	1236.3592	1257.5237	1310.7306	1355.0407	1408.5339	1417.0769	1450.9371	1476.366	1477.6059	1670.8058	2332.7654	3023.9642	3029.5734	3066.5674	3073.9715	3130.1356	3159.1153	3182.3818
CC1=C(C#N)C2OC2C1	CC1=C(C#N)[C@H]2O[C@H]2C1	
InChI=1S/C7H7NO/c1-4-2-6-7(9-6)5(4)3-8/h6-7H,2H2,1H3	InChI=1S/C7H7NO/c1-4-2-6-7(9-6)5(4)3-8/h6-7H,2H2,1H3/t6-,7+/m0/s1
