18
gdb 102971	2.30314	0.94533	0.72182	5.064	71.52	-0.2529	-0.0442	0.2086	1542.2289	0.144634	-476.238412	-476.228068	-476.227124	-476.275725	34.572	
C	 0.1729544733	 1.4916570819	 0.1165999305	-0.247411
O	 0.1133809076	 0.0840744139	 0.2622879507	-0.25304
C	 0.5440632284	-0.6264220445	-0.8827758795	 0.022037
C	 0.8160356679	-2.0712766991	-0.4373897588	-0.179978
N	 1.790329603	-2.106394111	 0.6319668622	-0.278752
C	 2.9706721483	-2.7776021601	 0.5397529452	 0.154596
O	 3.3185604438	-3.4572597035	-0.401556736	-0.317901
C	-0.5339140511	-0.6216309132	-1.9659148041	 0.134496
O	-0.3192435505	-0.8114265643	-3.1328135045	-0.231588
H	 1.2010309415	 1.8307912956	-0.076340135	 0.120761
H	-0.4682022059	 1.8501895292	-0.7015420833	 0.120608
H	-0.1787300004	 1.9266637216	 1.054386965	 0.137913
H	 1.4671092314	-0.1958010654	-1.2980552375	 0.104694
H	-0.1257561707	-2.5294543096	-0.1097928195	 0.120334
H	 1.2155992668	-2.6514477283	-1.2707161563	 0.169082
H	 1.6159141519	-1.5187183576	 1.4317612004	 0.256122
H	 3.5900900914	-2.6369797449	 1.4474485078	 0.077441
H	-1.5611674468	-0.4562290105	-1.5650371575	 0.090583
33.5543	55.0792	73.5119	116.0387	172.0085	200.1212	222.8363	268.3729	286.8943	328.6036	439.6155	507.1535	564.0031	576.4132	753.2479	885.9697	903.4646	1003.0125	1031.428	1065.1423	1082.6925	1108.4439	1151.1253	1184.2201	1207.9344	1223.2576	1269.1141	1287.6168	1342.1011	1390.5726	1404.948	1429.3104	1480.7742	1485.3367	1490.1695	1507.4083	1525.137	1806.7115	1840.9254	2868.1296	2940.2349	2988.6268	3007.7241	3030.5001	3041.8251	3126.6898	3137.7097	3641.4449
COC(CNC=O)C=O	CO[C@@H](CNC=O)C=O	
InChI=1S/C5H9NO3/c1-9-5(3-7)2-6-4-8/h3-5H,2H2,1H3,(H,6,8)	InChI=1S/C5H9NO3/c1-9-5(3-7)2-6-4-8/h3-5H,2H2,1H3,(H,6,8)/t5-/m0/s1
