22
gdb 119841	3.94552	0.86721	0.78294	1.5307	89.12	-0.2233	0.0231	0.2464	1564.3717	0.195351	-367.204385	-367.195422	-367.194478	-367.238669	34.122	
C	-0.1170102592	 1.5790992862	 0.0705711627	-0.379028
C	-0.1097576577	 0.0485634652	 0.0669439486	-0.159431
C	 0.8192165119	-0.5449089185	 1.1441626251	-0.308331
C	 0.8367879005	-2.0437790072	 1.1664405928	 0.388518
C	 1.869360525	-2.8514774813	 0.8978675957	-0.193972
C	 1.5247715857	-4.3219600507	 1.0195089279	-0.252626
C	 0.0761200348	-4.2922394685	 1.4954383998	-0.03279
N	-0.1040232739	-3.6455002776	 2.8139215086	-0.335375
C	-0.3519348406	-2.870108592	 1.5608531894	-0.157485
H	 0.8868056868	 1.979503602	-0.1102551141	 0.11483
H	-0.7788285313	 1.9769128545	-0.7050938296	 0.110901
H	-0.459060134	 1.9715890494	 1.0347268417	 0.114443
H	-1.1317408929	-0.3212726324	 0.2181815941	 0.095776
H	 0.2056525857	-0.3212338764	-0.9163029438	 0.100054
H	 1.8377276294	-0.1718785004	 0.9823967502	 0.097717
H	 0.5017848038	-0.1685823705	 2.1275928431	 0.105152
H	 2.8708987554	-2.5098857866	 0.6572115082	 0.08425
H	 1.6198718315	-4.8461874591	 0.0588803525	 0.101045
H	 2.1752099562	-4.8420705624	 1.7332958718	 0.116233
H	-0.6058570719	-5.0860738284	 1.2101996943	 0.083624
H	-1.0036844331	-3.9453979319	 3.1879387236	 0.223327
H	-1.3653558221	-2.5469435735	 1.3462494974	 0.08317
61.1387	80.6575	113.6585	237.0401	247.8186	292.5477	315.4398	349.1615	410.2214	612.0935	648.597	742.947	754.6572	813.5413	817.3776	843.8492	859.4326	885.2279	901.0982	917.5772	937.7022	978.0254	1005.5546	1042.3381	1073.911	1097.6152	1113.4024	1132.5552	1166.3225	1186.4577	1199.5634	1247.407	1250.6962	1287.6542	1309.4196	1325.8761	1333.4086	1382.2536	1389.3479	1411.5791	1413.4113	1467.6252	1477.8195	1492.0609	1498.9775	1509.368	1701.4806	3001.4972	3015.4737	3024.5708	3029.2795	3045.0292	3053.9111	3065.2808	3097.2321	3101.6993	3158.6965	3169.4894	3184.0603	3466.8836
CCCC1=CCC2NC12	CCCC1=CC[C@H]2N[C@@H]12	
InChI=1S/C8H13N/c1-2-3-6-4-5-7-8(6)9-7/h4,7-9H,2-3,5H2,1H3	InChI=1S/C8H13N/c1-2-3-6-4-5-7-8(6)9-7/h4,7-9H,2-3,5H2,1H3/t7-,8+/m1/s1
