17
gdb 42893	2.80217	1.61172	1.27769	3.628	72.88	-0.2259	-0.0192	0.2066	1020.158	0.135844	-421.791474	-421.783784	-421.78284	-421.824123	29.016	
O	-0.1754100566	 0.0165270815	-0.1006280839	-0.316623
C	-0.1504137002	 1.2048677264	 0.0429504363	 0.362226
C	-1.1727840781	 2.2977505215	-0.0537381342	-0.179889
C	-0.9563092749	 3.2677757531	 1.0970100879	-0.29827
C	-0.0107068449	 3.3345157995	-0.0493877826	-0.122575
C	 1.0377443311	 2.2298392761	 0.1017880661	 0.351211
C	 2.188815211	 2.1885285629	 1.1236091148	-0.360821
C	 3.0678928563	 1.8868577094	-0.1054874495	-0.07447
O	 1.9441423492	 2.0714789526	-0.9992142257	-0.318097
H	-2.0975644953	 2.2795658518	-0.6159274752	 0.115148
H	-1.6995033921	 4.0561051486	 1.1535550435	 0.132658
H	-0.6251905282	 2.9043846624	 2.0662364535	 0.125802
H	 0.1016151375	 4.193184722	-0.6970705231	 0.116104
H	 2.3882382811	 3.1454445009	 1.6097595529	 0.117573
H	 2.125616094	 1.4001021413	 1.8749051481	 0.12433
H	 3.8747473456	 2.5951772031	-0.3220047491	 0.1075
H	 3.4577269845	 0.8644745169	-0.1561007398	 0.118193
72.5559	106.51	189.0232	218.4397	274.121	403.8918	480.2394	578.8235	638.6688	718.1149	757.4135	796.0842	830.613	873.4912	905.2567	920.5222	933.3633	976.2945	985.0483	1019.6335	1044.3415	1075.3859	1104.1524	1108.3717	1148.8945	1162.4052	1179.8101	1215.0184	1224.9214	1258.7492	1297.4351	1327.3648	1348.6072	1480.0082	1495.6113	1526.7969	1884.0315	3032.7848	3076.8306	3079.9525	3117.7158	3136.4927	3200.1271	3205.6213	3219.0011
O=C1C2CC2C11CCO1	O=C1[C@H]2C[C@H]2[C@]21CCO2	
InChI=1S/C7H8O2/c8-6-4-3-5(4)7(6)1-2-9-7/h4-5H,1-3H2	InChI=1S/C7H8O2/c8-6-4-3-5(4)7(6)1-2-9-7/h4-5H,1-3H2/t4-,5+,7-/m0/s1
