23
gdb 58462	2.39437	1.36419	1.0786	1.5431	81.62	-0.2497	0.0795	0.3293	1258.1665	0.203528	-425.42949	-425.419319	-425.418375	-425.464037	39.021	
C	-0.2151691293	 1.4832255268	-0.0140435546	-0.414253
C	-0.0216398305	-0.0348440579	-0.0809476709	 0.086735
O	-1.2798940348	-0.6867632232	-0.1916685647	-0.442369
C	 0.8949863674	-0.4876994341	-1.2331793791	 0.427587
C	 2.2229292428	 0.2540749403	-1.2934108934	-0.456271
C	 1.0028771238	-2.0208411527	-1.4257039005	-0.352878
C	 0.3860933883	-1.7651332482	-2.8157879794	 0.16947
C	-0.886859575	-2.4938143646	-3.1940245748	-0.412977
O	 0.1633018032	-0.362767924	-2.4965401032	-0.363121
H	 0.7036195089	 2.0057763677	 0.2669667851	 0.11355
H	-0.5474181749	 1.8699654649	-0.9837873914	 0.126056
H	-0.9828399415	 1.7126385405	 0.7290458421	 0.122963
H	 0.4168194156	-0.3932545422	 0.8593405599	 0.084923
H	-1.5738050272	-0.5021270628	-1.0941297706	 0.281753
H	 2.7593463254	 0.1663552943	-0.3415684934	 0.116312
H	 2.8589161073	-0.1621203279	-2.0801647622	 0.117121
H	 2.0720251507	 1.314677341	-1.508913783	 0.129892
H	 2.0129381829	-2.4334701192	-1.4073366774	 0.098843
H	 0.3523232468	-2.5881696462	-0.7590823467	 0.121801
H	 1.1176717307	-1.8418684191	-3.6318654358	 0.075455
H	-1.6040874515	-2.4777736117	-2.3680489543	 0.126659
H	-1.3489639191	-2.0308711265	-4.0719900971	 0.124534
H	-0.6657790501	-3.5388371653	-3.4376789344	 0.118216
76.5818	83.2858	202.3047	219.3877	235.0042	254.4641	272.0569	298.394	325.9626	365.6194	412.5297	447.467	480.6448	506.2301	567.0258	641.5062	769.5684	852.6361	879.3533	894.7582	917.0626	926.5787	948.7124	991.0429	1019.8258	1069.0301	1093.835	1107.7968	1120.3854	1155.5372	1204.4296	1222.9204	1251.1319	1280.023	1304.4726	1314.3754	1356.1251	1386.6074	1399.0577	1406.3911	1408.0228	1429.94	1479.5755	1484.1839	1485.7121	1488.2649	1498.9135	1499.9364	1504.3675	3003.5584	3030.5828	3033.7316	3036.0074	3038.8127	3079.9011	3102.451	3103.7769	3110.272	3115.95	3120.7699	3126.1273	3141.112	3756.3063
CC(O)C1(C)CC(C)O1	C[C@@H](O)[C@@]1(C)C[C@@H](C)O1	
InChI=1S/C7H14O2/c1-5-4-7(3,9-5)6(2)8/h5-6,8H,4H2,1-3H3	InChI=1S/C7H14O2/c1-5-4-7(3,9-5)6(2)8/h5-6,8H,4H2,1-3H3/t5-,6-,7-/m1/s1
