17
gdb 47328	3.09301	1.1757	0.87647	3.6424	88.11	-0.2401	-0.0706	0.1694	1278.1231	0.1361	-384.704966	-384.696772	-384.695828	-384.737843	31.276	
O	-0.044885479	-0.0823433543	 0.0565876278	-0.332601
C	-0.046905063	 1.1334814914	 0.0423699649	 0.387543
C	-1.3362610722	 1.944402629	-0.0007898784	-0.307638
C	-1.1860410973	 3.2999422145	 0.6983137578	-0.230999
C	-0.0079295357	 4.0914026993	 0.1205196394	-0.29629
C	 1.2536398747	 3.2524507806	 0.0361888323	 0.135068
C	 1.2131889806	 1.9014820775	 0.0249840365	-0.246861
C	 2.4856075642	 3.9539288669	-0.0438371312	 0.235106
C	 3.5059432192	 4.5921108049	-0.1103814785	-0.383199
H	-1.5862135914	 2.0976992547	-1.0609546251	 0.123976
H	-2.136816448	 1.3375782533	 0.4293363477	 0.124305
H	-2.108422963	 3.8824677231	 0.6097215852	 0.106218
H	-1.0151120107	 3.1376341703	 1.7695846699	 0.11468
H	-0.2480000655	 4.4559333608	-0.8889167215	 0.128506
H	 0.1954426659	 4.9845530146	 0.7194124657	 0.12403
H	 2.1248807721	 1.3153346255	-0.0189469174	 0.112508
H	 4.4155886791	 5.1374256278	-0.170538325	 0.205647
98.2414	123.861	143.5795	248.8109	316.631	395.9632	421.2414	461.6337	524.4031	555.5064	586.2003	632.6639	639.9874	648.1484	758.1284	843.4555	874.1805	905.3144	937.2038	972.9613	1057.5009	1073.0902	1142.9933	1150.1664	1204.7501	1255.5059	1272.4693	1317.9244	1349.0917	1370.8645	1383.154	1458.7831	1474.9691	1495.3749	1645.2679	1769.0191	2214.9033	3010.0883	3013.1642	3035.5209	3077.1903	3082.2493	3103.2755	3196.0911	3499.6316
O=C1CCCC(=C1)C#C	O=C1CCCC(=C1)C#C	
InChI=1S/C8H8O/c1-2-7-4-3-5-8(9)6-7/h1,6H,3-5H2	InChI=1S/C8H8O/c1-2-7-4-3-5-8(9)6-7/h1,6H,3-5H2
