20
gdb 119513	4.03389	0.92116	0.86019	2.5148	78.5	-0.2189	0.0671	0.286	1395.2215	0.170467	-403.049885	-403.04123	-403.040286	-403.083607	33.121	
O	-0.1140854357	 1.4722397129	-0.0188013325	-0.418976
C	-0.0008532248	 0.0662071437	-0.1717067422	-0.065698
C	-1.360012503	-0.5487711963	 0.1558164717	-0.304964
C	-1.3537505208	-2.0475222813	 0.0678262301	 0.354349
C	-1.5508642431	-2.8352497324	-1.2037701509	-0.360063
C	-2.4828077071	-3.0454209114	-0.0401221332	-0.074538
N	-1.9886319389	-3.8696626463	 1.135784554	-0.139201
C	-0.6252911463	-4.3735046862	 0.8768915555	-0.250592
C	-0.804568809	-2.9442511407	 1.2058675179	-0.090295
H	 0.7391460006	 1.867490419	-0.2193711096	 0.285759
H	 0.287749468	-0.2061881446	-1.1993377022	 0.088429
H	 0.766770637	-0.3490965048	 0.5019133322	 0.087472
H	-1.6510045375	-0.2284796387	 1.1642647153	 0.110804
H	-2.1059020513	-0.1355237634	-0.5328265276	 0.107075
H	-2.0113317281	-2.2563799615	-1.9999364161	 0.116807
H	-0.851260852	-3.577428048	-1.571482718	 0.111897
H	-3.5532587643	-2.8970415439	-0.1109394155	 0.10377
H	-0.2790886522	-5.0170569889	 1.681205825	 0.122292
H	-0.3302330537	-4.7097198287	-0.1101051834	 0.118997
H	-0.4979286781	-2.5223115085	 2.1591343797	 0.096676
72.2944	98.2679	113.9133	260.1725	267.8458	309.8261	339.2116	408.5586	467.0591	534.927	674.6821	691.0271	755.9746	792.9626	805.4579	854.3566	902.1161	943.2844	975.5417	989.4254	1007.4759	1027.1301	1046.4801	1050.131	1070.2627	1082.6012	1105.2672	1116.9601	1138.2195	1196.3918	1220.1465	1239.4096	1256.3644	1260.7609	1305.7576	1335.7978	1345.4804	1410.8151	1459.8637	1481.5335	1486.8331	1522.7655	1526.8372	2962.6186	2990.5643	3028.2243	3073.5317	3119.4727	3130.9773	3145.2953	3185.2979	3198.3344	3211.7112	3830.2137
OCCC12CC1N1CC21	OCC[C@]12C[C@H]1N1C[C@@H]21	
InChI=1S/C7H11NO/c9-2-1-7-3-5(7)8-4-6(7)8/h5-6,9H,1-4H2	InChI=1S/C7H11NO/c9-2-1-7-3-5(7)8-4-6(7)8/h5-6,9H,1-4H2/t5-,6+,7+,8?/m1/s1
