15
gdb 97493	3.37959	0.6025	0.51462	5.4462	86.32	-0.2593	-0.0695	0.1898	2061.9398	0.108586	-420.571576	-420.560935	-420.559991	-420.610292	34.214	
C	 0.0976102359	 1.4301631895	 0.0089598063	-0.501121
C	 0.0534821132	-0.0210907461	 0.0014926982	-0.010535
C	 0.0071260608	-1.2271423779	-0.0046425332	 0.093017
C	-0.0689443438	-2.6701545244	-0.0116573382	 0.144638
O	-1.1234657719	-3.2772272592	-0.0046955285	-0.269878
C	 1.2134118962	-3.3392962543	-0.0274796307	 0.098857
C	 2.2758006498	-3.9115756216	-0.040693111	 0.019976
C	 3.5745420889	-4.5670872632	-0.0564326638	-0.217723
O	 3.4079182258	-5.9748121031	-0.0627940841	-0.401186
H	 1.1278326323	 1.8005009676	 0.0017070592	 0.158833
H	-0.4172563206	 1.8372945388	-0.8680462548	 0.165407
H	-0.4013952608	 1.8277465725	 0.8994087374	 0.165406
H	 4.1278382246	-4.2173657765	-0.9439800431	 0.129635
H	 4.144234169	-4.227302585	 0.8245851286	 0.129642
H	 4.2855869408	-6.3703774772	-0.0736974721	 0.295033
23.6444	38.097	50.2593	120.738	121.3876	167.3051	215.7374	223.1372	333.1581	371.9244	409.5298	447.4884	505.3143	587.1056	684.3181	771.2299	890.6348	1011.5097	1044.067	1050.5191	1055.6219	1103.1603	1238.7578	1246.452	1269.5936	1409.7607	1456.4432	1469.4767	1472.45	1489.786	1715.3903	2334.2871	2342.3577	2962.8407	2981.5936	3032.3886	3096.3349	3100.2844	3819.6869
CC#CC(=O)C#CCO	CC#CC(=O)C#CCO	
InChI=1S/C7H6O2/c1-2-4-7(9)5-3-6-8/h8H,6H2,1H3	InChI=1S/C7H6O2/c1-2-4-7(9)5-3-6-8/h8H,6H2,1H3
