17
gdb 67916	1.94607	1.76134	1.13944	3.3931	80.01	-0.2417	-0.0137	0.228	1115.3912	0.133631	-384.652709	-384.644126	-384.643182	-384.685762	32.788	
C	-0.0075525502	 1.5392505361	 0.0593479533	-0.496846
C	-0.012603344	 0.0391026752	 0.0395943312	 0.3226
C	-1.2803371663	-0.8324684717	-0.0559531803	-0.421926
C	-0.6421671477	-1.7532772821	 1.0164310601	 0.438624
O	-1.0746163728	-2.6409288962	 1.6930507157	-0.315054
C	 0.6235059118	-0.9468639826	 1.0573647607	-0.241964
C	 1.1784161862	-0.781634353	-0.3688369947	-0.269881
C	 1.1462489395	-1.8230133823	-1.3587583887	 0.329839
C	 1.1224865206	-2.684109721	-2.1979353352	-0.434482
H	 0.9820248432	 1.9306491578	 0.3151507152	 0.126135
H	-0.2822070799	 1.9432498346	-0.9216827357	 0.135314
H	-0.7249531424	 1.9254301829	 0.7914046898	 0.129342
H	-2.1714753754	-0.3466474876	 0.3529446607	 0.128292
H	-1.5115347656	-1.2691509166	-1.0300521571	 0.133947
H	 1.2665229353	-0.7766378922	 1.9129719703	 0.11102
H	 2.1084772879	-0.2162430562	-0.3552870062	 0.123253
H	 1.10351619	-3.4532207052	-2.9300530991	 0.201787
85.3985	142.9321	155.3577	213.6488	290.4564	318.4176	361.4643	459.6394	474.9666	536.8687	597.9938	606.2677	622.6624	660.5931	673.1987	753.277	842.7098	894.4132	948.5549	956.3036	966.3648	1027.6009	1077.7443	1085.6028	1108.7026	1144.2682	1200.0966	1216.3266	1271.7502	1317.8512	1415.055	1433.4631	1463.0177	1484.435	1496.9948	1888.0861	2236.5382	3028.6116	3063.2554	3091.3145	3103.8136	3121.8733	3127.6427	3189.6543	3501.9895
CC12CC(=O)C1C2C#C	C[C@]12CC(=O)[C@H]1[C@H]2C#C	
InChI=1S/C8H8O/c1-3-5-7-6(9)4-8(5,7)2/h1,5,7H,4H2,2H3	InChI=1S/C8H8O/c1-3-5-7-6(9)4-8(5,7)2/h1,5,7H,4H2,2H3/t5-,7-,8-/m1/s1
