21
gdb 120151	2.89794	1.02626	0.91883	1.59	79.61	-0.2426	0.0704	0.3131	1383.3093	0.181805	-424.175654	-424.166252	-424.165308	-424.210561	34.704	
C	 0.1594714641	 1.3262142425	-0.1108104397	-0.220363
O	 0.3412140738	-0.0657689767	-0.0523652894	-0.234162
C	 0.5156308975	-0.537243186	 1.2729078254	-0.093409
C	 0.6142746483	-2.0414903285	 1.219802604	-0.018478
C	 1.840426034	-2.827335667	 0.8592359121	-0.053605
C	 3.1102471597	-2.1808730466	 1.4214978557	-0.2888
C	 2.5151630069	-2.3592570149	 2.8633657614	 0.116693
O	 2.3388601854	-1.2302959298	 3.6970354005	-0.426557
C	 1.230936823	-2.9251840366	 2.2734123208	-0.104834
H	 1.0235487601	 1.8727863502	 0.3015747025	 0.098161
H	 0.0404458934	 1.5999423742	-1.1624992229	 0.12146
H	-0.737944443	 1.648123223	 0.4428062168	 0.09944
H	 1.4015257638	-0.0852020974	 1.735784981	 0.101865
H	-0.347500161	-0.247315659	 1.8967437366	 0.083374
H	-0.2867987563	-2.4905370051	 0.8059734698	 0.091636
H	 1.8237828127	-3.5748103147	 0.0761848271	 0.086346
H	 4.0131269157	-2.7756421785	 1.2657622658	 0.098277
H	 3.3058423246	-1.1523709134	 1.1047153797	 0.103852
H	 3.0624002036	-3.1474237156	 3.397610023	 0.074517
H	 3.200634055	-0.9723932169	 4.0401000555	 0.282234
H	 0.6636197588	-3.7317833929	 2.7226131242	 0.082352
48.3219	85.3091	114.8985	189.806	217.9854	257.7539	289.289	354.6466	375.6938	428.5557	506.263	616.3371	699.6816	761.2408	806.5122	848.4804	907.7569	967.5861	981.0915	992.998	995.063	1031.3964	1057.3628	1067.279	1096.4657	1122.2986	1153.4044	1173.2984	1183.4709	1207.3487	1212.0846	1230.8232	1247.3592	1274.969	1280.2573	1331.4677	1345.7951	1400.2652	1425.4618	1464.5231	1483.5948	1484.2762	1487.0281	1507.3222	1529.883	2954.8281	2965.126	3001.1633	3006.4101	3048.082	3056.7187	3106.3008	3109.4476	3130.4647	3176.4942	3193.2244	3812.2552
COCC1C2CC(O)C12	COC[C@H]1[C@H]2C[C@@H](O)[C@@H]12	
InChI=1S/C7H12O2/c1-9-3-5-4-2-6(8)7(4)5/h4-8H,2-3H2,1H3	InChI=1S/C7H12O2/c1-9-3-5-4-2-6(8)7(4)5/h4-8H,2-3H2,1H3/t4-,5+,6-,7-/m1/s1
