18
gdb 93178	2.91075	1.425	0.98974	4.8141	76.48	-0.2288	-0.029	0.1998	1182.3276	0.149659	-435.294285	-435.285887	-435.284943	-435.327452	31.848	
C	-0.1594972616	 1.4775118013	 0.0716937171	-0.404272
C	-0.0343202831	-0.0264766403	-0.094573629	 0.130716
C	 0.8984480475	-0.446767511	-1.2195250221	-0.177585
N	 0.9849435655	-1.8916240338	-1.2129990331	-0.336646
C	 1.218786481	-2.5766857443	-0.0402818516	 0.301763
N	 1.6314188964	-3.7820251902	-0.0547519806	-0.521299
C	 0.9307287293	-1.8131469489	 1.2358912183	 0.338847
N	 1.1779440111	-2.3657794281	 2.3481069102	-0.508402
O	 0.4599858493	-0.5399188159	 1.1607935195	-0.272222
H	 0.8212448515	 1.93205646	 0.2396780847	 0.132522
H	-0.6048911142	 1.9224098389	-0.8229517521	 0.124938
H	-0.7972618224	 1.7099320756	 0.9277783584	 0.137482
H	-1.0206057469	-0.4745600373	-0.2756583778	 0.101331
H	 0.4835412523	-0.1174501539	-2.1769536231	 0.121102
H	 1.8758113992	 0.0470064315	-1.0888620325	 0.110102
H	 1.3565849212	-2.3557239469	-2.0291077221	 0.251449
H	 1.6985068442	-4.1128012171	 0.9081477153	 0.242372
H	 0.94072545	-1.7398941397	 3.1188811707	 0.227802
75.0759	99.7316	217.0393	220.8567	277.6789	364.2886	410.5827	431.885	445.242	515.4833	560.11	577.4235	694.906	748.2007	783.7951	875.0777	881.618	912.2243	930.6366	955.0635	1051.988	1091.3425	1144.5936	1148.2486	1161.7855	1201.6273	1263.7785	1299.2683	1333.3021	1386.9514	1401.8123	1414.5211	1439.9821	1472.1242	1485.7485	1499.2316	1510.6311	1712.9043	1741.4927	2965.9527	3021.2487	3047.8942	3081.2752	3122.1565	3130.9025	3485.1433	3491.3744	3608.5369
CC1CNC(=N)C(=N)O1	C[C@H]1CNC(=C([NH])O1)[NH]	
InChI=1S/C5H9N3O/c1-3-2-8-4(6)5(7)9-3/h3,7H,2H2,1H3,(H2,6,8)	InChI=1S/C5H9N3O/c1-3-2-8-4(6)5(7)9-3/h3,7H,2H2,1H3,(H2,6,8)/t3-/m0/s1
