19
gdb 65294	2.54061	1.37082	1.13777	3.1775	81.02	-0.2663	0.0293	0.2957	1154.4523	0.159791	-382.057317	-382.048469	-382.047525	-382.090861	33.596	
N	-0.205229226	 1.4307588081	-0.1421276299	-0.554503
C	-0.0712221338	-0.0013288661	-0.0591088529	 0.088112
C	-0.3118293367	-0.6268803209	 1.3097504589	-0.383774
C	-1.3335677007	-0.807239022	 0.2417971386	 0.345632
C	-2.7499741369	-0.2313506313	 0.1397824334	-0.28851
C	-3.0951347228	-1.3762765543	-0.8595232624	-0.205308
C	-1.7578927547	-2.0869347281	-0.4905016731	-0.301354
C	 0.9162640208	-0.6251661931	-0.9145187398	 0.243058
N	 1.6990809723	-1.092651773	-1.6287159728	-0.360227
H	 0.6516634428	 1.8876091509	 0.1561497008	 0.244222
H	-0.3801137035	 1.7205426377	-1.0999023045	 0.242864
H	 0.3041588429	-1.4745329905	 1.5905384817	 0.132808
H	-0.5203238979	 0.0835270358	 2.1028248975	 0.13069
H	-3.29748697	-0.3083027759	 1.0839559919	 0.107747
H	-2.8282102789	 0.7961215225	-0.2204535643	 0.112435
H	-4.0117705602	-1.9345184881	-0.6611726588	 0.103584
H	-3.1146848993	-1.0358553708	-1.8974596415	 0.108958
H	-1.1197705472	-2.4114675646	-1.316133296	 0.125601
H	-1.89743055	-2.9295923764	 0.1931785831	 0.107968
73.1765	118.6406	140.82	223.9809	235.4274	279.3047	360.9384	405.159	439.6784	515.533	578.576	635.4921	665.9321	724.1406	780.0992	830.0048	858.5538	890.9177	901.7598	935.7906	937.1311	966.2611	1055.163	1071.6654	1126.789	1137.8945	1178.793	1220.5217	1231.4132	1252.7049	1254.2417	1271.5319	1282.6191	1290.0645	1393.4403	1469.7388	1477.9105	1483.7717	1506.387	1662.4677	2332.2299	3054.1515	3058.6759	3070.3913	3102.6795	3112.5291	3128.7854	3130.5693	3223.9194	3492.6603	3569.0408
NC1(CC11CCC1)C#N	N[C@]1(CC21CCC2)C#N	
InChI=1S/C7H10N2/c8-5-7(9)4-6(7)2-1-3-6/h1-4,9H2	InChI=1S/C7H10N2/c8-5-7(9)4-6(7)2-1-3-6/h1-4,9H2/t7-/m1/s1
