20
gdb 126185	2.92324	1.19765	0.91327	3.1744	82.95	-0.2366	0.0048	0.2414	1345.9824	0.169511	-403.17381	-403.163939	-403.162994	-403.209156	35.12	
C	 0.0366405347	 1.6204530806	 0.3274627707	-0.372392
C	-0.018465227	 0.1387248075	-0.0849919786	-0.296442
C	-1.4100956357	-0.389420361	-0.1848936219	 0.369707
C	-2.178305609	-0.8424040528	-1.2159148839	-0.01459
C	-1.8416102911	-0.974208275	-2.6674075406	-0.515296
C	-3.4190025468	-1.1757071575	-0.5821735663	 0.335752
C	-4.65433636	-1.729008454	-1.2160121237	-0.49618
N	-3.3870666855	-0.9395548275	 0.7068789061	-0.213546
O	-2.1124760393	-0.4398359177	 0.9660489549	-0.228639
H	 1.0739417633	 1.9579892986	 0.4079909748	 0.116368
H	-0.4728061802	 2.2506738499	-0.4076391247	 0.122875
H	-0.44997225	 1.7699907268	 1.2945835027	 0.141375
H	 0.4769742972	-0.0029302027	-1.0504175476	 0.114
H	 0.5373493885	-0.4626973041	 0.6448281403	 0.12742
H	-1.9400742882	-2.0098940068	-3.0131646579	 0.132163
H	-2.5034770066	-0.3642611112	-3.2934752928	 0.132133
H	-0.8153588784	-0.6568991095	-2.8702052511	 0.128436
H	-4.4529157479	-2.6928663267	-1.6964434317	 0.133673
H	-5.4314340709	-1.8709446253	-0.4626966452	 0.149873
H	-5.0363180971	-1.0545726318	-1.9902921335	 0.133309
41.7031	111.7031	114.439	145.8236	197.1962	227.2866	237.1791	287.4106	304.1829	393.1709	479.5666	567.9743	662.2111	685.5736	726.1074	746.8715	788.9846	941.0067	951.637	985.3441	1031.5257	1052.6267	1057.6441	1076.9754	1085.9359	1133.3667	1208.9478	1274.2392	1313.8515	1353.3249	1404.8231	1410.7095	1422.1105	1455.4537	1474.2345	1476.7182	1479.0939	1487.223	1496.3517	1501.0105	1507.3831	1546.1221	1679.536	3026.5753	3035.1112	3036.2254	3044.5265	3073.87	3082.765	3088.7302	3112.037	3115.575	3128.1933	3138.3883
CCC1=C(C)C(C)=NO1	CCc1c(C)c(C)no1	
InChI=1S/C7H11NO/c1-4-7-5(2)6(3)8-9-7/h4H2,1-3H3	InChI=1S/C7H11NO/c1-4-7-5(2)6(3)8-9-7/h4H2,1-3H3
