14
gdb 49458	3.13923	1.30467	1.1699	3.9517	63.82	-0.2584	-0.0399	0.2185	1049.8984	0.100589	-473.818512	-473.811184	-473.81024	-473.851009	26.917	
N	-0.0764841469	 0.9894506215	-0.6307905386	-0.562959
C	-0.0030186898	-0.0808035931	 0.0142174896	 0.489392
O	 1.1331891217	-0.7872619631	 0.3358585624	-0.242964
C	 0.7683378038	-1.9471827767	 1.0453807462	 0.022788
C	-0.7077897781	-1.9107632951	 1.1364946789	 0.032683
O	-1.1067209108	-0.7349366354	 0.4777754245	-0.218897
C	-0.0455585404	-3.0032171128	 0.2921805639	-0.194781
C	-0.1374355184	-3.0550207166	-1.1926739002	 0.160154
O	-0.1825529502	-4.0955181382	-1.8012154116	-0.258957
H	 0.8490528686	 1.3169289957	-0.8946586925	 0.243245
H	 1.4674306417	-2.2207168484	 1.8241636914	 0.143695
H	-1.3181361185	-2.1541479425	 1.9955726668	 0.145544
H	-0.0391393419	-3.9826186065	 0.7604861877	 0.130156
H	-0.1638907307	-2.0809928688	-1.7193868285	 0.110901
92.3187	96.2742	177.6594	205.8323	422.8594	431.3464	489.7386	598.7435	714.4963	731.6234	764.2132	780.2413	805.1239	822.4995	891.8119	981.8839	994.12	1012.0119	1024.7889	1060.5579	1094.175	1132.8841	1154.8147	1193.4536	1222.7936	1325.937	1367.7582	1395.417	1458.4252	1808.1551	1816.432	2939.8883	3173.744	3206.8386	3215.6217	3548.9353
N=C1OC2C(O1)C2C=O	[NH][C]1O[C@H]2[C@@H](O1)[C@H]2C=O	
InChI=1S/C5H5NO3/c6-5-8-3-2(1-7)4(3)9-5/h1-4,6H	InChI=1S/C5H5NO3/c6-5-8-3-2(1-7)4(3)9-5/h1-4,6H/t2-,3+,4-
