18
gdb 41050	3.1659	2.13033	1.88408	1.8338	76.9	-0.2121	0.0679	0.28	822.2392	0.150075	-364.681193	-364.675129	-364.674185	-364.711112	26.446	
C	-0.0017622559	 1.5220169686	 0.1881084521	-0.309827
C	 1.5101431955	 1.5908315963	-0.2570380925	-0.337441
C	 1.4277266393	 0.1078137188	-0.6525141729	 0.33332
C	 1.6876265841	-1.3056998671	-0.0529824867	-0.150677
C	 0.6373621841	-1.011312102	 1.0578737474	-0.302663
C	 0.0382402069	-0.0199559211	 0.0123844342	 0.210098
C	-0.3078781976	-0.7898533477	-1.2591663646	-0.109785
C	 0.8674529511	-1.714107846	-1.3107030436	-0.03108
N	 0.9494645842	-0.3963826162	-2.0181919072	-0.21673
H	-0.2198903842	 1.8783324555	 1.197633144	 0.106909
H	-0.6823596936	 2.020245868	-0.5062625644	 0.116611
H	 1.7466060123	 2.2683685241	-1.0807536938	 0.121911
H	 2.2062223162	 1.7878006728	 0.5626672889	 0.114549
H	 2.6475410362	-1.7937366242	 0.120003714	 0.070345
H	 0.0177385728	-1.835887355	 1.4226010425	 0.098083
H	 1.0796431158	-0.4832959491	 1.9089081606	 0.102068
H	-1.2524008596	-0.9788344073	-1.7594901395	 0.087212
H	 0.8897455624	-2.6480093685	-1.8575293184	 0.0971
192.1877	290.7381	373.6448	448.5886	551.9897	602.1443	667.8787	728.7264	739.3295	774.5651	794.3362	822.4863	837.8741	855.6294	881.9134	914.178	929.5781	972.8637	981.0239	1004.2734	1017.2414	1037.9759	1092.4974	1120.4019	1147.8742	1160.4291	1189.7084	1202.5622	1223.6058	1229.2496	1242.9077	1245.5457	1271.5407	1300.7647	1314.5256	1334.5526	1456.5438	1472.0326	1484.4293	3044.1578	3060.7921	3064.9928	3100.985	3104.6395	3108.669	3125.5082	3157.4735	3199.8944
C1CC23C4CC12C1C4N31	C1C[C@@]23[C@H]4C[C@@]12[C@@H]1[C@H]4N31	
InChI=1S/C8H9N/c1-2-8-4-3-7(1,8)6-5(4)9(6)8/h4-6H,1-3H2	InChI=1S/C8H9N/c1-2-8-4-3-7(1,8)6-5(4)9(6)8/h4-6H,1-3H2/t4-,5-,6-,7+,8+,9?/m0/s1
