18
gdb 89969	3.26615	1.20058	1.04662	3.1389	72.94	-0.2441	-0.0345	0.2096	1194.4841	0.146482	-439.055488	-439.04676	-439.045815	-439.089406	31.698	
C	-0.8360407604	 1.2590371674	-0.0272632258	-0.39095
C	 0.0255399055	 0.00731443	 0.0286253304	-0.06649
N	 1.2705265832	 0.0273067395	-0.797899912	-0.386947
C	 2.132286829	-0.4143265364	 0.3095746163	 0.165237
C	 2.8834401137	-1.7734906384	 0.334650243	-0.124027
O	 4.1222868114	-1.132259372	 0.6704775029	-0.267853
C	 3.5312707564	 0.1795590431	 0.5620360039	-0.115708
C	 0.9419289054	-0.1944766444	 1.2503160391	 0.326062
O	 0.8013979317	-0.1644320996	 2.4358770605	-0.2938
H	-0.2257925555	 2.1521630372	 0.1311464824	 0.127727
H	-1.3279326014	 1.3489173794	-1.0006689223	 0.123443
H	-1.6086911574	 1.2182916261	 0.7467509371	 0.133019
H	-0.5931448911	-0.8903485281	-0.1260463626	 0.098199
H	 1.2643723045	-0.5837646779	-1.607107546	 0.222985
H	 2.5648885613	-2.4936773901	 1.0978982833	 0.118959
H	 2.9184093092	-2.2713612607	-0.6458126937	 0.099179
H	 3.9206453319	 0.750162629	-0.2902026225	 0.110915
H	 3.6430063327	 0.7596463159	 1.485300686	 0.120048
69.6755	85.9754	153.8506	195.6025	210.6181	251.2922	318.4827	378.5496	478.521	535.966	663.9124	708.5472	720.4078	832.2354	868.57	929.9698	943.3734	972.3323	986.0224	997.6937	1042.9012	1074.9794	1095.7576	1138.5292	1153.8854	1156.0653	1197.5033	1233.6863	1272.2795	1297.9548	1344.8829	1362.9688	1380.1983	1405.7867	1484.5793	1492.9718	1495.8825	1520.1652	1910.7096	2986.4327	2987.649	3019.5973	3041.0435	3053.0833	3073.0924	3113.044	3124.0863	3536.851
CC1NC2(COC2)C1=O	C[C@H]1NC2(COC2)C1=O	
InChI=1S/C6H9NO2/c1-4-5(8)6(7-4)2-9-3-6/h4,7H,2-3H2,1H3	InChI=1S/C6H9NO2/c1-4-5(8)6(7-4)2-9-3-6/h4,7H,2-3H2,1H3/t4-/m1/s1
