17
gdb 55870	2.45995	1.23596	1.03135	4.6625	74.23	-0.2762	0.0146	0.2908	1223.7236	0.134635	-418.012976	-418.003837	-418.002893	-418.047739	32.657	
C	-0.2767303067	 1.3609718868	 0.1141626155	-0.448208
C	-0.1347846643	-0.1129646249	-0.1143179022	 0.418155
N	 0.7573871347	-0.6133058907	-0.8558224214	-0.506217
O	-1.1086993637	-0.7830408102	 0.6030522211	-0.239588
C	-1.1098307634	-2.1703804274	 0.5529852544	 0.111393
C	-2.3937425201	-2.8286251233	 0.905315173	-0.324606
C	-1.9118872202	-2.873950405	-0.5437985463	-0.215338
C	-2.5944370787	-2.0862147707	-1.5291909651	 0.302472
N	-3.1436242464	-1.4546657195	-2.3275182796	-0.331491
H	 0.5042197967	 1.8895169727	-0.4299506261	 0.152741
H	-1.2593543189	 1.6972734729	-0.2307247457	 0.153485
H	-0.2087351901	 1.5897121094	 1.1820124132	 0.139877
H	 0.6971326792	-1.6275486605	-0.9295918524	 0.21903
H	-0.1750864525	-2.6411106619	 0.8485469894	 0.124698
H	-2.3725659056	-3.7546609976	 1.4667441232	 0.14071
H	-3.230280754	-2.1729620009	 1.1140394521	 0.160639
H	-1.520832326	-3.8166855891	-0.9115114131	 0.142247
56.6188	66.0631	148.8965	159.1273	163.3912	239.7994	343.8696	395.0106	432.4814	547.4769	555.1574	591.1268	683.9905	777.9413	781.6296	827.1579	877.237	907.1662	977.039	1025.2449	1044.7469	1074.5175	1077.8423	1099.964	1121.9119	1130.1177	1178.1831	1235.0192	1299.3774	1369.3897	1397.9605	1416.2186	1473.2031	1477.5662	1479.3022	1752.9213	2358.5241	3053.4365	3113.0091	3135.9534	3154.2594	3171.3295	3173.3099	3250.1118	3503.3192
CC(=N)OC1CC1C#N	C[C]([NH])O[C@H]1C[C@H]1C#N	
InChI=1S/C6H8N2O/c1-4(8)9-6-2-5(6)3-7/h5-6,8H,2H2,1H3	InChI=1S/C6H8N2O/c1-4(8)9-6-2-5(6)3-7/h5-6,8H,2H2,1H3/t5-,6-/m0/s1
