19
gdb 44679	3.28736	1.37435	1.05934	2.7659	80.98	-0.2349	-0.0161	0.2188	1136.2543	0.161059	-385.9166	-385.909014	-385.90807	-385.948792	30.051	
O	 0.056761107	 0.0063080044	 0.0867445443	-0.301877
C	-0.0027897478	 1.1960229329	-0.0304210681	 0.402473
C	-1.1587952443	 2.1840270526	-0.2733458027	-0.368669
C	-0.0714533	 3.2572288508	-0.6320562081	-0.03938
C	-0.1431676414	 4.6177179264	-0.0160040052	-0.073825
C	 0.7685862303	 5.0703845663	 0.8456052248	-0.055018
C	 1.9174577861	 4.2265973385	 1.3423451826	-0.259527
C	 1.5639320586	 2.7325838444	 1.3057845733	-0.21554
C	 1.0515930305	 2.3137606068	-0.084714224	-0.139641
H	-1.8779651578	 1.8975381514	-1.044397439	 0.127229
H	-1.7039183035	 2.4120791254	 0.6484326661	 0.131783
H	 0.0002673742	 3.3478840661	-1.7216257825	 0.090325
H	-0.9668491603	 5.2576263349	-0.3256380564	 0.088444
H	 0.6925210232	 6.0852317719	 1.2275755596	 0.089387
H	 2.8176468694	 4.4204861018	 0.7405639455	 0.112487
H	 2.1768076779	 4.5182734364	 2.366526748	 0.105956
H	 2.4199413638	 2.1123456457	 1.5871261683	 0.111245
H	 0.7840040491	 2.550187625	 2.0552950075	 0.105193
H	 1.889274295	 2.1273803882	-0.7632977643	 0.088954
77.8086	156.7692	201.2383	283.1168	369.781	449.2959	474.1635	516.7769	524.055	660.3482	710.9806	733.4158	752.4578	794.541	877.8617	909.4757	951.2133	969.526	985.3017	1002.3758	1046.3402	1065.8994	1079.336	1091.437	1116.3874	1158.41	1194.3007	1201.1752	1243.9669	1257.3869	1263.2944	1309.3995	1340.5169	1360.738	1371.7655	1416.9907	1440.1869	1478.5576	1493.1174	1714.0819	1887.7833	3002.2162	3030.6076	3037.7413	3056.6334	3058.3672	3065.3441	3088.5764	3117.7276	3140.9199	3166.8053
O=C1CC2C=CCCC12	O=C1C[C@H]2C=CCC[C@@H]12	
InChI=1S/C8H10O/c9-8-5-6-3-1-2-4-7(6)8/h1,3,6-7H,2,4-5H2	InChI=1S/C8H10O/c9-8-5-6-3-1-2-4-7(6)8/h1,3,6-7H,2,4-5H2/t6-,7-/m1/s1
