21
gdb 93014	2.77447	1.31992	0.99795	1.184	85.62	-0.2247	0.0261	0.2508	1237.8815	0.183884	-387.095734	-387.08737	-387.086426	-387.128321	33.675	
O	-0.0991422211	 1.4409741586	 0.0280572017	-0.439818
C	 0.0168194116	 0.0238052601	 0.0124973131	 0.113187
C	 0.7739799862	-0.5085881987	 1.2378509316	-0.285565
C	 0.6138705212	-2.000113265	 1.3901878421	-0.098025
C	-0.3440930259	-2.6925926289	 0.7710955349	-0.09305
C	-1.3660135859	-2.0670735284	-0.1032958792	 0.348687
C	-1.6615120904	-2.7445544854	-1.4350335005	-0.304276
C	-2.6720384073	-2.8018763923	-0.324731843	-0.322459
C	-1.39884941	-0.54838016	-0.022462432	-0.290318
H	 0.78852903	 1.811308795	 0.0655251677	 0.278193
H	 0.5471677224	-0.3051483502	-0.8965617779	 0.06803
H	 1.8398335251	-0.2518521855	 1.1605463152	 0.089927
H	 0.4005977	 0.0168214978	 2.1290079963	 0.114313
H	 1.3241451762	-2.516075437	 2.0306817887	 0.084722
H	-0.4018433221	-3.7719309105	 0.8971518187	 0.081163
H	-1.8670948391	-2.1034807686	-2.2859717443	 0.114628
H	-1.1132010234	-3.647966918	-1.6793403636	 0.111869
H	-2.8184211288	-3.7456970329	 0.1902515963	 0.111652
H	-3.5714921674	-2.2019973278	-0.4173497421	 0.113857
H	-1.9178225174	-0.2316278652	 0.8916220281	 0.104426
H	-1.9469109339	-0.1202202171	-0.8677284118	 0.098857
101.6592	148.6632	254.0762	263.7744	285.4139	350.2031	380.3232	418.9519	433.8831	482.8812	528.5566	656.3055	742.9415	777.2341	798.9869	855.8978	913.0635	926.0307	937.2724	945.3748	973.0962	990.6944	996.7454	1055.2584	1072.3735	1076.4278	1086.7683	1095.2399	1159.9588	1190.9031	1195.2084	1237.1914	1256.2381	1313.1044	1314.9404	1332.2378	1359.3669	1387.1029	1429.5041	1439.4497	1467.1261	1478.3174	1496.0921	1501.234	1712.5199	2960.6353	2999.8071	3024.9649	3030.7697	3079.717	3125.5856	3129.7115	3139.3114	3166.8213	3204.8181	3220.1938	3814.9564
OC1CC=CC2(CC2)C1	O[C@H]1CC=CC2(CC2)C1	
InChI=1S/C8H12O/c9-7-2-1-3-8(6-7)4-5-8/h1,3,7,9H,2,4-6H2	InChI=1S/C8H12O/c9-7-2-1-3-8(6-7)4-5-8/h1,3,7,9H,2,4-6H2/t7-/m0/s1
