16
gdb 24242	4.05844	1.59971	1.25107	0.6788	74.12	-0.1742	0.0576	0.2317	969.377	0.127424	-400.75172	-400.74517	-400.744226	-400.782333	27.129	
C	 0.0056682774	 1.4879859554	 0.1032286304	-0.318981
C	 1.3038719513	 0.7366409582	 0.0365494637	 0.081257
O	 1.9971686727	 0.4184545053	 1.2527772376	-0.278262
C	 1.1410813357	-0.4192340737	 1.8918917153	 0.40516
C	-0.0085436038	-0.7726964508	 1.2466822839	 0.225085
C	-0.7052151856	-1.6537686286	 2.1259981681	-0.335475
C	 0.066152214	-1.7796339448	 3.2614153145	-0.082089
N	 1.2134816211	-0.9959453652	 3.1158368491	-0.390319
C	-0.0196946473	-0.0316245745	-0.0415436443	-0.221969
H	-0.3116219959	 1.9101310373	 1.0502107831	 0.123686
H	-0.2320089655	 2.0856799731	-0.7711350208	 0.113429
H	 1.9939489959	 0.8735773664	-0.785658985	 0.106563
H	-1.6538739864	-2.1417220627	 1.9628704458	 0.094812
H	-0.0857542316	-2.3549761608	 4.1592498783	 0.11596
H	 1.9634890183	-0.9136338898	 3.7786592807	 0.26709
H	-0.3714921803	-0.4771470347	-0.9655593205	 0.094054
144.4245	256.6752	360.1169	390.4152	438.0632	463.0628	611.324	617.0327	635.2952	700.5694	726.3067	768.9185	777.5984	809.6343	814.8693	928.9945	948.0538	958.7453	1025.0345	1057.8419	1062.8089	1080.4615	1090.9812	1128.5059	1169.7982	1186.0378	1236.0147	1306.4336	1344.8287	1363.98	1448.1181	1461.4984	1499.6346	1568.2957	1621.0943	3128.2088	3164.7137	3199.6023	3222.0238	3246.577	3277.9556	3692.1262
C1C2OC3=C(C=CN3)C12	C1[C@H]2Oc3c(cc[nH]3)[C@@H]12	
InChI=1S/C7H7NO/c1-2-8-7-4(1)5-3-6(5)9-7/h1-2,5-6,8H,3H2	InChI=1S/C7H7NO/c1-2-8-7-4(1)5-3-6(5)9-7/h1-2,5-6,8H,3H2/t5-,6-/m1/s1
