19
gdb 102336	1.751	1.36542	1.30324	0.7825	83.65	-0.2648	0.0135	0.2783	1207.1804	0.154004	-385.806225	-385.795461	-385.794516	-385.8415	39.076	
C	 0.0639958413	 1.5489727155	 0.109502446	-0.401119
C	 0.0112157231	 0.0280470393	-0.031823596	-0.194928
C	 0.6975833697	-0.5030611625	-1.3192570752	-0.039996
O	 2.053551089	-0.0735795143	-1.2304659653	-0.248098
C	 2.8960421763	-0.4494622404	-2.307193457	-0.249347
C	 0.6074011498	-1.9769441754	-1.3425759219	 0.341429
C	 0.5407843135	-3.1764964258	-1.3242201724	-0.457213
C	 0.0382215573	 0.0414093213	-2.5240235956	 0.361547
C	-0.496903713	 0.5011280482	-3.4968343329	-0.490646
H	 1.0973096528	 1.90192322	 0.121682436	 0.136106
H	-0.4564079835	 2.0415020485	-0.7168418283	 0.127067
H	-0.4168845986	 1.854549143	 1.0434144063	 0.110814
H	 0.5212591047	-0.4551825347	 0.8071787524	 0.116882
H	-1.0228631197	-0.3290601459	-0.0368850165	 0.115043
H	 2.9634934927	-1.540559062	-2.4033858568	 0.121025
H	 2.5474245543	-0.0277959797	-3.2584029368	 0.120872
H	 3.8835633667	-0.046136242	-2.073918362	 0.128301
H	 0.4783122708	-4.2369576329	-1.3178251609	 0.19993
H	-0.971938897	 0.8996798997	-4.359486093	 0.202331
105.9457	109.2454	125.268	146.6046	160.0597	182.542	210.9215	255.682	291.0628	338.3603	428.6901	483.6654	511.4622	561.9586	614.4063	636.6172	638.6624	669.0555	670.9692	672.1683	779.3211	934.4851	969.2614	1026.5772	1078.8975	1125.9472	1138.8938	1176.0864	1184.2595	1228.4933	1309.9539	1360.8318	1406.0125	1471.2433	1472.2475	1484.0454	1494.4706	1509.6698	1511.336	2229.2887	2232.6127	3010.0898	3048.7455	3055.931	3070.9586	3098.8689	3116.0245	3127.0215	3136.756	3498.7427	3499.6204
CCC(OC)(C#C)C#C	CCC(OC)(C#C)C#C	
InChI=1S/C8H10O/c1-5-8(6-2,7-3)9-4/h1-2H,7H2,3-4H3	InChI=1S/C8H10O/c1-5-8(6-2,7-3)9-4/h1-2H,7H2,3-4H3
