19
gdb 73318	2.95486	1.95392	1.40774	2.2327	78.13	-0.2261	0.0695	0.2955	952.68	0.159861	-385.789267	-385.782286	-385.781342	-385.820069	29.465	
C	 0.0060259569	 1.620840153	-0.1115130067	-0.493582
C	 0.0554416525	 0.1151371045	 0.0158577122	 0.280487
C	 0.5776904104	-0.6936179708	-1.2296548693	-0.24773
C	 0.4978160929	-2.2025526889	-0.7589869377	-0.357486
C	-0.0402272399	-1.8647437225	 0.609194458	 0.483841
O	-0.4813584228	-2.4236569154	 1.8743966654	-0.402081
C	-0.6257625967	-0.9324080536	 2.0012526413	 0.008447
C	 0.6771920202	-0.6323422597	 1.222092508	-0.148253
C	-1.1168107091	-0.7484880942	 0.5452752474	-0.148257
H	 1.0011543562	 2.0347478236	-0.3122493875	 0.115652
H	-0.6491908833	 1.9279014097	-0.9351022392	 0.115651
H	-0.3701940252	 2.0852468958	 0.805675463	 0.117148
H	-0.046969947	-0.5133671905	-2.1103687494	 0.103771
H	 1.6019362962	-0.406614237	-1.4882995529	 0.103771
H	-0.1852966014	-2.7993707257	-1.368604174	 0.112299
H	 1.4749275062	-2.6918799397	-0.7422492625	 0.112299
H	-1.0089334447	-0.575134767	 2.9555936414	 0.093789
H	 1.6980825084	-0.6255591492	 1.604855702	 0.075116
H	-2.1294341396	-0.8733563225	 0.1608635606	 0.075117
218.8825	224.365	256.0444	299.2328	364.467	435.2158	551.571	592.3019	666.6198	701.4574	741.6322	756.9463	813.2427	829.9155	853.3149	886.9264	903.0434	911.1399	935.9355	1005.3049	1009.3083	1035.0165	1046.0218	1108.2332	1118.6709	1134.0248	1167.4799	1169.5282	1193.9381	1206.3083	1225.8741	1251.4457	1254.574	1299.3191	1351.9739	1370.8139	1417.7209	1484.8757	1492.0711	1496.3838	1511.1334	3023.0297	3046.4799	3064.1235	3082.7917	3088.1861	3097.3787	3113.0609	3113.394	3113.9498	3136.0156
CC12CCC34OC(C13)C24	C[C@@]12CC[C@@]34O[C@@H]([C@H]13)[C@@H]24	
InChI=1S/C8H10O/c1-7-2-3-8-5(7)4(9-8)6(7)8/h4-6H,2-3H2,1H3	InChI=1S/C8H10O/c1-7-2-3-8-5(7)4(9-8)6(7)8/h4-6H,2-3H2,1H3/t4-,5+,6-,7+,8+
