19
gdb 89332	1.89651	1.73175	1.10116	1.0413	84.23	-0.2137	0.0402	0.2539	1168.1416	0.15664	-385.831659	-385.822285	-385.821341	-385.865271	35.924	
C	-0.1024878742	 1.5781833928	 0.0631642297	-0.412898
C	 0.0501979926	 0.0638340598	 0.0011255613	-0.027617
C	 1.1324533096	-0.5519881854	-0.9525516799	-0.298044
C	 1.770410169	-1.265421429	 0.2289855906	 0.373892
O	 2.2511306073	-2.5444120336	 0.0676651696	-0.451343
C	 2.1908936633	-0.3072311595	 1.2831035498	-0.409059
C	 0.7007658776	-0.6616233807	 1.1996471169	 0.117011
C	 0.0053742504	-1.2390274205	 2.2928648327	 0.166291
C	-0.5989668556	-1.7463357906	 3.204053161	-0.416951
H	 0.8496113158	 2.0781384399	 0.269748026	 0.113476
H	-0.4807789796	 1.9692496234	-0.8875899274	 0.116448
H	-0.808726497	 1.8656380479	 0.8489668336	 0.125211
H	-0.9212603597	-0.3936507534	-0.2042747245	 0.085561
H	 0.7024175552	-1.2536748138	-1.6696635387	 0.117302
H	 1.781117237	 0.1509083731	-1.4866173379	 0.097964
H	 2.7621490001	-2.7920146949	 0.844838656	 0.291009
H	 2.6806468417	-0.7530930819	 2.1450567067	 0.118159
H	 2.5437540234	 0.6954746581	 1.0474584644	 0.111966
H	-1.1315083469	-2.1876224617	 4.0091019001	 0.181621
98.8602	135.0934	165.2141	189.7507	227.9674	234.1175	351.8608	383.2309	395.1269	462.0313	524.2801	534.1229	542.1918	626.1445	642.0514	678.3735	734.2575	795.8469	839.2143	898.7281	934.8926	965.3703	1021.834	1074.5738	1085.1339	1110.4945	1128.1935	1168.4662	1172.0235	1232.0844	1249.3234	1308.9673	1361.6988	1396.0733	1412.2238	1414.505	1477.6827	1496.1022	1496.8249	1508.8145	2220.965	3031.1283	3045.533	3065.6526	3090.4617	3097.9551	3103.6966	3118.0501	3181.678	3503.8929	3824.0831
CC1CC2(O)CC12C#C	C[C@H]1C[C@@]2(O)C[C@@]12C#C	
InChI=1S/C8H10O/c1-3-7-5-8(7,9)4-6(7)2/h1,6,9H,4-5H2,2H3	InChI=1S/C8H10O/c1-3-7-5-8(7,9)4-6(7)2/h1,6,9H,4-5H2,2H3/t6-,7-,8+/m0/s1
