18
gdb 81997	2.52992	1.43938	1.29607	2.1048	78.16	-0.2321	0.0297	0.2618	1078.2449	0.145331	-401.861049	-401.851987	-401.851043	-401.894263	34.686	
C	-0.0975760517	 1.5633171117	-0.0950126481	-0.405225
C	 0.0095083896	 0.0483608358	-0.0578378182	-0.073238
C	 0.6995494982	-0.6622765569	-1.2305849959	-0.037356
N	 2.0739952334	-0.1196585365	-1.2942629612	-0.334169
C	 1.764366965	-1.2179976429	-0.3521981862	-0.09359
C	 1.1402002211	-0.5818730276	 0.897077042	 0.244327
O	 2.0061997482	 0.3108538434	 1.5619367466	-0.457937
C	 0.5855986669	-1.5741077607	 1.8115482253	 0.262424
C	 0.1230695204	-2.3609460304	 2.5951769704	-0.460349
H	 0.8699303624	 2.0084785552	-0.3315036788	 0.152491
H	-0.8247890532	 1.8775834261	-0.8518270324	 0.108532
H	-0.4333010736	 1.9561000059	 0.8707391196	 0.105468
H	-0.9524654104	-0.4166045038	 0.1710117517	 0.083681
H	 0.2298749533	-1.1092896784	-2.0975753251	 0.091927
H	 2.5378769091	-0.5487055731	-2.0943057482	 0.23082
H	 2.2935332335	-2.1617262624	-0.3888801221	 0.099434
H	 1.6220215442	 0.5095502004	 2.422508314	 0.284325
H	-0.2802106765	-3.0634012458	 3.2822495167	 0.198434
111.6714	147.2826	174.7565	196.0921	224.7596	238.4545	286.8732	391.9016	469.9374	501.6736	536.8835	593.6647	618.6669	659.7547	666.1382	738.5093	824.2621	847.1672	870.1482	923.1882	954.5743	1013.3141	1030.5489	1048.9644	1080.4229	1108.3677	1129.4277	1133.4855	1189.7931	1218.6677	1287.5917	1301.2518	1362.1923	1363.6486	1395.1237	1405.1634	1486.985	1497.5812	2227.5661	3035.0134	3080.3652	3092.4561	3144.7948	3189.5862	3202.3662	3477.6587	3499.8268	3814.4793
CC1C2NC2C1(O)C#C	C[C@H]1[C@H]2N[C@H]2[C@]1(O)C#C	
InChI=1S/C7H9NO/c1-3-7(9)4(2)5-6(7)8-5/h1,4-6,8-9H,2H3	InChI=1S/C7H9NO/c1-3-7(9)4(2)5-6(7)8-5/h1,4-6,8-9H,2H3/t4-,5+,6+,7-/m0/s1
