18
gdb 47487	2.84857	1.52643	1.13814	4.6109	74.22	-0.2398	0.0497	0.2894	1092.2482	0.148631	-439.087045	-439.079194	-439.07825	-439.119831	30.329	
N	-0.1252803634	 1.2407359743	 0.3878192059	-0.544282
C	-0.0202640989	 0.0579444302	-0.0388601661	 0.451591
O	 1.1797757161	-0.5283462354	-0.3008553102	-0.269486
C	 1.2708615054	-1.722141391	-1.0902213548	-0.074374
C	 0.1089462847	-2.6590720347	-0.8014993314	-0.298532
C	-1.1484121164	-1.8499339098	-0.9620147852	 0.458232
C	-1.8466448265	-1.7149928101	-2.2907514189	-0.324293
C	-2.502986163	-2.4466306574	-1.1318971354	-0.338164
O	-1.1421713421	-0.6919296838	-0.1457723514	-0.274872
H	 0.8019082934	 1.6532992073	 0.46776662	 0.224805
H	 1.282605835	-1.4446333854	-2.1524711501	 0.116167
H	 2.2377351668	-2.1629731953	-0.837264111	 0.122463
H	 0.1226177946	-3.5051592589	-1.4941122576	 0.114158
H	 0.179482973	-3.0489484438	 0.220374569	 0.123205
H	-2.2372127066	-0.7360338282	-2.5418101766	 0.1381
H	-1.4799509186	-2.2939332831	-3.1320699595	 0.115819
H	-2.5848159177	-3.5272089017	-1.1744186324	 0.119473
H	-3.319333186	-1.9436886833	-0.6268273244	 0.13999
72.333	88.3016	207.3148	267.4577	345.8326	396.9716	464.0547	476.5168	532.8815	646.0062	699.5409	741.2688	771.7829	823.0875	830.2259	892.4301	900.7705	952.0765	961.8661	996.9693	1009.4537	1052.292	1082.9289	1098.3839	1118.0398	1124.9826	1189.1813	1212.6651	1265.9012	1274.6736	1327.9111	1347.5933	1398.9517	1432.9803	1452.225	1474.3813	1500.1189	1515.5938	1759.1858	3021.4542	3045.53	3101.8985	3106.4976	3134.9029	3140.5857	3223.695	3236.8362	3525.1345
N=C1OCCC2(CC2)O1	[NH][C]1OCCC2(CC2)O1	
InChI=1S/C6H9NO2/c7-5-8-4-3-6(9-5)1-2-6/h7H,1-4H2	InChI=1S/C6H9NO2/c7-5-8-4-3-6(9-5)1-2-6/h7H,1-4H2
