16
gdb 43313	2.89194	1.9179	1.2675	4.0522	74.94	-0.2432	-0.0329	0.2102	955.3698	0.127485	-400.797957	-400.791363	-400.790419	-400.828909	26.31	
O	 0.2738465036	 0.1395070913	 0.4456806096	-0.3796
C	 0.0753159734	 1.2618380044	 0.0334770975	 0.378086
C	-1.2119351839	 2.0136553094	-0.0254188907	-0.182481
C	-0.9661953228	 3.2959518666	-0.2983625717	-0.090943
C	 0.5067974862	 3.4914420244	-0.5654701286	-0.073305
C	 1.3561674687	 4.3010965883	 0.3947545094	-0.093188
C	 2.385593892	 3.5761533899	 0.8278919186	-0.064405
C	 2.3615506006	 2.1785297396	 0.2482502056	-0.231647
N	 1.0602088768	 2.1401187001	-0.4284142924	-0.096451
H	-2.1608105939	 1.5432792937	 0.1906724888	 0.126171
H	-1.6869934448	 4.0987412302	-0.3911419086	 0.119619
H	 0.6323816337	 3.8790495629	-1.5916245453	 0.107588
H	 1.1522276525	 5.3387784462	 0.6259374504	 0.109001
H	 3.1723761397	 3.9212129049	 1.4879257997	 0.109627
H	 3.1919730716	 2.0154785131	-0.4527279101	 0.118372
H	 2.4042379667	 1.378513645	 0.9951453877	 0.143556
126.996	204.9188	267.9647	362.5759	421.3927	522.2848	614.5483	666.368	698.635	710.3878	741.5695	824.2147	833.1998	889.9127	939.6904	946.336	961.0236	977.5172	1008.6391	1057.2514	1069.1504	1108.8703	1133.589	1163.5906	1215.7985	1256.9701	1277.8064	1328.3194	1347.5437	1353.3105	1364.8393	1509.7891	1649.1997	1678.036	1809.207	2949.541	3008.5273	3073.0391	3202.0157	3211.0018	3227.265	3246.4567
O=C1C=CC2C=CCN12	O=C1C=C[C@H]2C=CCN12	
InChI=1S/C7H7NO/c9-7-4-3-6-2-1-5-8(6)7/h1-4,6H,5H2	InChI=1S/C7H7NO/c9-7-4-3-6-2-1-5-8(6)7/h1-4,6H,5H2/t6-/m1/s1
