20
gdb 66480	2.92384	1.74203	1.38598	1.7731	82.07	-0.2113	0.0831	0.2944	1017.7881	0.171342	-365.929748	-365.922076	-365.921132	-365.961282	31.295	
C	 0.0389063891	 1.5398520853	 0.0458702593	-0.529333
C	-0.0284062783	 0.0480945005	 0.008530896	 0.344139
C	 0.8813328967	-0.9995653094	-0.5651659655	-0.085523
C	 0.5195337606	-1.0416097301	 0.9239350565	-0.191044
C	-0.7502040558	-1.9295327555	 0.8304573488	 0.32869
C	-1.56882223	-2.211320169	 2.062941442	-0.515337
C	-0.4147158361	-2.9618691727	-0.2689176674	-0.218909
N	-0.1980758049	-1.8056691589	-1.2146253756	-0.156978
C	-1.1506087941	-0.9617845234	-0.3438947903	-0.130133
H	 1.0463888842	 1.8749162914	 0.3156180993	 0.122976
H	-0.2059696627	 1.9748870618	-0.9298825688	 0.126706
H	-0.6563381219	 1.9568325838	 0.7835882715	 0.120299
H	 1.8883614997	-0.9295094379	-0.9574221122	 0.086057
H	 1.243825824	-0.9655423669	 1.7251322032	 0.080408
H	-1.820110832	-1.2851424829	 2.5920097742	 0.119189
H	-2.5059355561	-2.7198880205	 1.8109304165	 0.115831
H	-1.0203822834	-2.8519316519	 2.7638656847	 0.118896
H	 0.4448890244	-3.6272137003	-0.1379354006	 0.095379
H	-1.2882133326	-3.5363737338	-0.5953249763	 0.099612
H	-2.1602988808	-0.7696090395	-0.7062171452	 0.069076
174.9964	200.5875	224.3907	252.5628	275.3917	301.2342	445.959	572.9384	577.4517	601.8391	747.487	777.6939	817.8355	839.9462	845.9281	863.4497	875.2569	897.2907	925.2063	951.6852	1005.1287	1018.4283	1033.5454	1056.7133	1104.7158	1110.6907	1134.3631	1154.0447	1164.1039	1191.1761	1205.6113	1240.6766	1252.1904	1254.5682	1344.9688	1410.4057	1414.7531	1459.4604	1484.4797	1490.9081	1493.088	1496.1596	1496.8411	3020.8551	3021.9312	3037.5332	3082.4165	3083.7222	3090.4877	3092.1078	3096.3868	3115.8681	3185.828	3197.2082
CC12C3C1C1(C)CN3C21	C[C@@]12[C@H]3[C@@H]1[C@]1(C)CN3[C@H]21	
InChI=1S/C8H11N/c1-7-3-9-5-4(7)8(5,2)6(7)9/h4-6H,3H2,1-2H3	InChI=1S/C8H11N/c1-7-3-9-5-4(7)8(5,2)6(7)9/h4-6H,3H2,1-2H3/t4-,5-,6+,7+,8+/m1/s1
