17
gdb 57584	2.83199	1.18609	1.03669	4.2884	75.67	-0.2539	-0.0718	0.1821	1195.3907	0.130625	-421.815598	-421.805289	-421.804345	-421.851362	36.137	
C	-0.0516567937	 1.6268479654	-0.0911616457	-0.422755
C	-0.0318130158	 0.0891080131	-0.0943219362	 0.027118
C	 0.6696767044	-0.4634028528	 1.1681057698	-0.442827
C	-1.4539670494	-0.4807533942	-0.1155317069	 0.153322
O	-2.4486902958	 0.1798851468	 0.0187669255	-0.247265
C	 0.6742663184	-0.4091664293	-1.3609287255	 0.228363
O	 0.0768679486	-0.9628623517	-2.2597215596	-0.297818
C	 2.1040703717	-0.160134555	-1.4521655456	 0.272758
C	 3.286368813	 0.0514055739	-1.5368569237	-0.399881
H	 0.9657035447	 2.0258238524	-0.0680805615	 0.125262
H	-0.5638196273	 2.0146044349	-0.9752130811	 0.14121
H	-0.5923440755	 1.9842168195	 0.7882973432	 0.139448
H	 0.1802727329	-0.0739822651	 2.0655355432	 0.138047
H	 0.6328579478	-1.557226169	 1.2039478369	 0.130747
H	 1.7189865666	-0.1584776857	 1.186906418	 0.141462
H	-1.499321806	-1.585165873	-0.2205879345	 0.093413
H	 4.3308055754	 0.2300209498	-1.6271391863	 0.219399
34.7283	76.4254	140.8397	170.7364	200.4668	231.2247	248.4989	283.6045	296.3614	331.3302	351.7185	444.4887	524.1652	652.325	659.892	710.2772	724.7692	763.0789	818.3451	924.7889	961.1347	1009.7249	1032.5383	1075.0534	1170.8653	1241.114	1268.2274	1393.8487	1408.9818	1428.2673	1480.852	1482.2894	1498.8553	1507.1908	1751.1535	1838.3712	2208.0839	2912.2572	3038.7567	3052.2823	3110.5132	3125.2134	3130.2823	3132.6287	3491.1567
CC(C)(C=O)C(=O)C#C	CC(C)(C=O)C(=O)C#C	
InChI=1S/C7H8O2/c1-4-6(9)7(2,3)5-8/h1,5H,2-3H3	InChI=1S/C7H8O2/c1-4-6(9)7(2,3)5-8/h1,5H,2-3H3
