22
gdb 36788	7.92637	0.47638	0.46697	1.1598	90.14	-0.2333	0.0573	0.2906	2331.315	0.192277	-367.149631	-367.139284	-367.13834	-367.186231	37.203	
C	-0.1146732539	-1.1966690763	 0.008254407	-0.436682
C	-0.0652517451	 0.0013657813	 0.0941721721	 0.292015
C	 0.0293842833	 1.4529588367	 0.190779889	-0.355718
C	 1.4485802764	 1.9865912429	-0.0917160143	-0.175277
C	 1.5304870974	 3.5114580064	 0.0145084356	-0.177586
C	 2.9338486432	 4.0499175207	-0.264596081	-0.148969
N	 2.9544262104	 5.5076037014	-0.2068821516	-0.059117
C	 3.2223523012	 6.0980316861	 1.1008932243	-0.219423
C	 4.2525642582	 6.1281363917	 0.0262904484	-0.220722
H	-0.1711799204	-2.2541877936	-0.0653049193	 0.192186
H	-0.6788162168	 1.9127743356	-0.5110980333	 0.130369
H	-0.2876739669	 1.7736669073	 1.1919657796	 0.128546
H	 2.1484104649	 1.5197246949	 0.6116216106	 0.108166
H	 1.7558511184	 1.6621092386	-1.0929474722	 0.110007
H	 0.8317207924	 3.9782227861	-0.6903277555	 0.108796
H	 1.2169279859	 3.8304488272	 1.0175078017	 0.096819
H	 3.6544922736	 3.599527091	 0.4446842373	 0.076381
H	 3.2518908366	 3.7519736374	-1.2716611142	 0.103091
H	 2.6519289241	 6.9889151302	 1.3474223793	 0.11619
H	 3.4009092985	 5.4245431689	 1.9385107878	 0.106856
H	 5.1162321655	 5.475983318	 0.1497284278	 0.107793
H	 4.448093473	 7.0413209276	-0.528671229	 0.116277
45.2866	65.019	80.9499	119.096	138.3014	174.8962	282.0577	314.9351	350.5045	398.7044	463.7631	540.586	614.709	634.3375	738.8923	770.5041	791.6484	840.7654	898.3618	927.0003	946.0769	1007.8108	1024.6842	1043.0977	1059.233	1084.9862	1112.9028	1116.1593	1126.1832	1161.6856	1176.6545	1225.5628	1254.4937	1287.2425	1318.0606	1323.3384	1329.3815	1335.079	1385.9777	1409.1089	1473.072	1484.1483	1490.3717	1495.3475	1509.6164	1524.3769	2238.5963	2918.6322	3014.7295	3017.7005	3033.5613	3041.2083	3041.7765	3058.6981	3083.6089	3090.2605	3095.1287	3174.269	3188.5706	3507.9304
C#CCCCCN1CC1	C#CCCCCN1CC1	
InChI=1S/C8H13N/c1-2-3-4-5-6-9-7-8-9/h1H,3-8H2	InChI=1S/C8H13N/c1-2-3-4-5-6-9-7-8-9/h1H,3-8H2
