19
gdb 105297	2.50757	1.04277	0.91023	2.9792	79.34	-0.2597	-0.0496	0.21	1357.0215	0.156416	-423.041208	-423.031534	-423.03059	-423.076106	34.7	
C	 0.2991115605	 1.54265841	 0.2937040559	-0.386237
C	-0.2073132542	 0.1528777114	-0.1151574802	-0.271928
C	 0.5864747016	-0.4448637075	-1.2663222159	 0.229328
C	 1.9509380381	-1.0439782844	-1.0443369021	-0.337713
C	 0.8262832149	-1.9719676435	-1.4166704193	-0.157281
C	 0.2894618832	-2.9331700518	-0.4204462442	 0.158754
O	-0.2058006131	-3.99167088	-0.7154445369	-0.256695
C	 0.3863876006	 0.1986497472	-2.5989827791	 0.134835
O	-0.3867938223	 1.0963129335	-2.8174753999	-0.262132
H	 1.3475686555	 1.5057868075	 0.6084874981	 0.111873
H	 0.2134437404	 2.248356152	-0.535211497	 0.146589
H	-0.2878499087	 1.9304700264	 1.1313121316	 0.118458
H	-0.1698870708	-0.5138041212	 0.7507556322	 0.099845
H	-1.2569817639	 0.2197244925	-0.4191571264	 0.12671
H	 2.7300783197	-0.8802530503	-1.7814421209	 0.136269
H	 2.3013839706	-1.0684797528	-0.0171513386	 0.137478
H	 0.8034826513	-2.3588635984	-2.4307440688	 0.11723
H	 0.3967710298	-2.6260630873	 0.6431096724	 0.078801
H	 1.0184246367	-0.2300803632	-3.412016761	 0.075817
75.4168	99.1551	102.5394	185.8932	208.7251	230.7837	256.1106	305.0174	358.3838	385.3685	434.3529	530.7634	567.5781	742.5408	794.8982	811.6854	870.4848	919.4286	957.3477	1002.7629	1022.6236	1043.5581	1076.8031	1083.2914	1100.6427	1114.1118	1186.7783	1231.3268	1311.733	1324.3273	1362.0354	1371.9188	1409.2698	1438.4935	1447.9647	1476.4521	1484.1873	1497.806	1512.6805	1815.0787	1821.4669	2856.7198	2885.5598	3042.2072	3054.9378	3091.8683	3108.7188	3129.3388	3136.4871	3165.4413	3215.5887
CCC1(CC1C=O)C=O	CC[C@]1(C[C@H]1C=O)C=O	
InChI=1S/C7H10O2/c1-2-7(5-9)3-6(7)4-8/h4-6H,2-3H2,1H3	InChI=1S/C7H10O2/c1-2-7(5-9)3-6(7)4-8/h4-6H,2-3H2,1H3/t6-,7-/m0/s1
