20
gdb 89162	2.23857	1.5476	1.31339	1.0208	75.67	-0.223	0.0719	0.2949	1095.0381	0.169998	-440.234333	-440.225462	-440.224518	-440.267372	34.505	
C	-0.0062276149	 1.5283223417	 0.0755251008	-0.322792
N	 0.0113466149	 0.0829193437	 0.1443243046	-0.109556
C	-1.2561665373	-0.6259321634	 0.4547881174	-0.250412
C	-0.4306168102	-1.6103654951	 1.3000419145	 0.372123
O	-0.9331973781	-2.1165360166	 2.4960853263	-0.483883
C	 0.5206959936	-2.5579834036	 0.4593100773	 0.057427
O	 0.2259689135	-2.6899069992	-0.907145275	-0.431097
C	 1.7272171659	-1.6243717926	 0.8110553502	-0.263089
C	 0.7203911351	-0.5664282578	 1.2904957108	-0.031184
H	 1.0110192222	 1.9050172205	-0.0751151955	 0.122905
H	-0.6134909218	 1.8500216784	-0.7772693145	 0.122183
H	-0.4178630685	 2.0027158104	 0.98495787	 0.096882
H	-1.9319964602	-0.0460133416	 1.1024437704	 0.094991
H	-1.8032907124	-0.9978661809	-0.4181930548	 0.101948
H	-1.4257156771	-2.9217414284	 2.3000337456	 0.283205
H	 0.5786767091	-3.5688355563	 0.8733924047	 0.082656
H	 0.2728756952	-1.7953954156	-1.2731631583	 0.285641
H	 2.3325118878	-2.0246818253	 1.6298696035	 0.105893
H	 2.3755218711	-1.3513768518	-0.0253407231	 0.099105
H	 0.9420463921	 0.0890842535	 2.1381536152	 0.067053
91.4898	170.8071	214.6442	225.7865	253.777	295.4361	329.3528	337.7838	426.9987	437.8392	505.951	562.8935	580.6752	690.1904	739.1721	825.9412	880.6656	911.3702	955.6685	974.5915	1015.2837	1048.8739	1079.3294	1103.0103	1131.6817	1143.5235	1159.8709	1175.8656	1198.2448	1210.7725	1234.1857	1258.2477	1273.4119	1301.8367	1316.7705	1335.1187	1399.5921	1438.1142	1452.204	1460.2235	1485.7324	1501.3912	1508.5975	2941.1869	2984.1501	3050.9664	3056.5574	3064.5359	3065.622	3071.3634	3098.295	3115.5401	3736.8494	3792.4819
CN1CC2(O)C(O)CC12	CN1C[C@@]2(O)[C@@H](O)C[C@@H]12	
InChI=1S/C6H11NO2/c1-7-3-6(9)4(7)2-5(6)8/h4-5,8-9H,2-3H2,1H3	InChI=1S/C6H11NO2/c1-7-3-6(9)4(7)2-5(6)8/h4-5,8-9H,2-3H2,1H3/t4-,5+,6+/m1/s1
