20
gdb 83790	2.65271	1.67461	1.40822	1.5772	77.94	-0.2132	0.077	0.2902	1014.8427	0.17268	-403.088862	-403.081177	-403.080233	-403.120637	31.242	
C	-0.1485490627	 1.5103736321	 0.1339231415	-0.423942
C	-0.0279473337	 0.0080418707	-0.012639542	 0.008073
C	 0.4410076168	-0.7154404864	-1.2456708025	-0.055257
C	 1.0991878818	-0.0128223851	-2.4158997639	-0.124522
O	 2.4809592347	-0.3587879136	-2.5154275325	-0.253457
C	 3.2333518739	-0.1469103479	-1.3559199433	 0.136505
C	 3.0631516607	 1.0933059803	-0.5198365048	-0.359455
C	 2.5587601783	-0.2637204514	-0.0113094656	-0.028657
N	 1.2122120795	-0.7630567566	 0.0001505957	-0.101461
H	 0.3273641546	 2.0804322122	-0.6649185843	 0.121845
H	-1.2093525523	 1.7811403469	 0.1394160723	 0.123137
H	 0.2820272309	 1.8431791453	 1.0841974546	 0.132252
H	-0.7995832916	-0.5136298469	 0.55398515	 0.092156
H	-0.0362863457	-1.6598313482	-1.5032638092	 0.090509
H	 0.6548719259	-0.3449213278	-3.3567516567	 0.116932
H	 0.987016563	 1.078641918	-2.3684213111	 0.093717
H	 4.2238820602	-0.5640039246	-1.4967224515	 0.103584
H	 3.9445713547	 1.4888401134	-0.0256438176	 0.113536
H	 2.3673478626	 1.8536532214	-0.8416836816	 0.115018
H	 3.1441257383	-0.6853013418	 0.8005733926	 0.099486
120.6846	166.9052	242.1574	294.9221	322.2435	390.884	441.5597	511.2558	531.4728	605.6013	636.2973	735.659	761.6651	793.4642	809.1295	853.1832	923.026	952.9623	980.471	1009.0093	1016.4806	1037.6965	1063.0959	1096.1822	1121.2388	1124.393	1151.2732	1160.2527	1184.8137	1194.5986	1237.809	1278.5288	1347.092	1371.8708	1379.3952	1396.6234	1415.7761	1420.2769	1434.3589	1472.017	1492.1087	1497.9784	1515.0222	3013.8194	3042.6366	3089.8875	3096.2205	3100.6454	3113.1535	3132.7477	3137.1547	3148.233	3177.636	3254.0017
CC1C2COC3CC3N12	C[C@H]1[C@H]2CO[C@H]3C[C@H]3N12	
InChI=1S/C7H11NO/c1-4-6-3-9-7-2-5(7)8(4)6/h4-7H,2-3H2,1H3	InChI=1S/C7H11NO/c1-4-6-3-9-7-2-5(7)8(4)6/h4-7H,2-3H2,1H3/t4-,5+,6+,7-,8?/m0/s1
