18
gdb 95480	2.58154	1.77737	1.31337	2.8899	71.82	-0.25	0.0211	0.2711	997.4286	0.150105	-439.078572	-439.07101	-439.070065	-439.110502	29.599	
O	 0.1212286481	 1.4742769005	-0.0628494587	-0.437657
C	 0.0941970076	 0.0558259371	-0.0350185908	 0.087651
C	 0.7462141611	-0.54002505	 1.233463017	-0.245832
C	-0.0215315998	-0.2011481448	 2.5532925003	-0.173798
N	-1.4508574332	 0.1362597295	 2.4379253449	-0.302283
C	-1.9353203583	-0.0751792963	 1.3005487446	 0.414151
O	-3.1319165675	 0.3439571415	 0.7804507664	-0.268182
C	-2.5885839779	 0.1956135652	-0.5856018988	-0.133613
C	-1.3355523871	-0.498403193	-0.0125925435	-0.155062
H	-0.2717316013	 1.800892486	 0.7557895439	 0.29585
H	 0.6451107372	-0.2563170205	-0.9266222685	 0.091742
H	 0.7980384871	-1.6266726219	 1.1001976251	 0.10576
H	 1.7756502916	-0.1797241782	 1.316336509	 0.112891
H	 0.09287612	-1.0302407334	 3.2606081823	 0.119817
H	 0.4508367213	 0.6607543703	 3.0391708801	 0.119292
H	-3.2516419097	-0.4051615894	-1.2099000155	 0.122882
H	-2.4084151251	 1.1792109217	-1.0242565757	 0.137748
H	-1.3387318842	-1.5788024542	-0.175263782	 0.108644
108.6078	158.7237	228.1638	260.8585	355.7825	386.3234	422.6215	486.6064	549.9332	617.7431	719.677	761.1779	765.191	844.1118	866.2882	929.068	945.6804	974.2718	1011.191	1039.0486	1070.529	1088.4446	1138.1144	1157.4015	1183.86	1195.8709	1223.6877	1245.0128	1278.0686	1314.63	1329.3339	1358.4746	1369.8444	1379.2482	1433.3998	1479.3495	1500.1009	1507.947	1817.1456	3032.0092	3039.411	3058.3391	3071.8043	3075.3299	3087.1909	3095.3695	3143.0883	3784.3919
OC1CCN=C2OCC12	O[C@H]1CC[N][C]2OC[C@@H]12	
InChI=1S/C6H9NO2/c8-5-1-2-7-6-4(5)3-9-6/h4-5,8H,1-3H2	InChI=1S/C6H9NO2/c8-5-1-2-7-6-4(5)3-9-6/h4-5,8H,1-3H2/t4-,5-/m0/s1
