19
gdb 120326	3.14601	1.16275	1.09406	1.6547	71.42	-0.2222	0.0732	0.2954	1211.1001	0.158553	-460.11841	-460.109703	-460.108758	-460.152627	31.463	
C	 0.1892622585	 1.4614341011	-0.3588227502	-0.389003
C	-0.0620938266	-0.0193654294	-0.5785237275	-0.036817
O	 1.1794621451	-0.639209619	-0.9124528906	-0.25004
C	 1.0666569827	-2.0029312979	-1.1145407883	 0.044219
C	 0.5142226198	-2.5594366321	-2.4235149423	-0.002658
O	 0.4138675189	-1.6701603218	-3.5050936913	-0.262694
C	 1.6976302132	-1.09727153	-3.7243850388	 0.036751
O	 2.6576779424	-1.8970056454	-3.0551542281	-0.254325
C	 1.9803255912	-2.6812656928	-2.1143915121	 0.007047
H	 0.9154981918	 1.6142181333	 0.4444857113	 0.128783
H	 0.5810667802	 1.9265383909	-1.2679534817	 0.128548
H	-0.7421597022	 1.9667794813	-0.0865546928	 0.11734
H	-0.4716432364	-0.4821656376	 0.3334337788	 0.089557
H	-0.7847925041	-0.1842073916	-1.3892996141	 0.110488
H	 0.8326034855	-2.5945128131	-0.224404016	 0.087974
H	-0.204450614	-3.3686033151	-2.4721937477	 0.109179
H	 1.914709046	-1.0977874505	-4.7995597128	 0.111277
H	 1.7206336155	-0.0777507308	-3.3213381044	 0.11029
H	 2.5100549628	-3.5944884796	-1.8731715914	 0.114083
66.2121	82.5683	116.6619	183.3728	212.168	257.536	265.6783	395.3441	584.6489	666.7134	727.7496	763.5498	778.828	782.6564	822.4993	901.0223	945.0243	947.6368	1035.6932	1058.5733	1077.1343	1096.0168	1104.7163	1122.2695	1149.1974	1152.4481	1170.3102	1187.1585	1215.7325	1242.735	1294.99	1301.954	1339.2292	1394.8355	1410.3203	1441.7543	1451.1907	1482.9964	1499.1957	1523.5454	1540.0542	2978.8919	3015.8285	3030.4016	3045.2077	3056.0164	3061.3413	3119.2419	3122.0904	3182.5389	3193.0775
CCOC1C2OCOC12	CCO[C@H]1[C@H]2OCO[C@@H]12	
InChI=1S/C6H10O3/c1-2-7-4-5-6(4)9-3-8-5/h4-6H,2-3H2,1H3	InChI=1S/C6H10O3/c1-2-7-4-5-6(4)9-3-8-5/h4-6H,2-3H2,1H3/t4-,5+,6-
