18
gdb 79713	2.71587	1.73685	1.34826	1.7359	70.97	-0.2182	0.0654	0.2836	977.2799	0.149023	-439.00839	-439.000847	-438.999903	-439.039875	30.613	
O	 0.0385793854	 1.532696877	 0.0572259253	-0.440274
C	 0.0484186799	 0.124573117	-0.0046433086	 0.124535
C	-1.2904305482	-0.6507397626	-0.0118686198	-0.110509
C	-1.9406587223	-0.3306650581	-1.3587422859	-0.043213
C	-1.5040219466	 0.8314210393	-2.1731164168	-0.252021
N	-0.7742898678	-0.4494873869	-2.3025340751	-0.125035
C	 0.3020504404	-0.7021526464	-1.308369765	-0.114154
C	-0.4121339284	-1.8613966134	-0.5050961153	 0.149131
O	 0.2952131566	-2.4953631554	 0.5309271668	-0.44407
H	 0.9177317223	 1.8247129036	 0.3141477259	 0.285938
H	 0.6796776644	-0.2835959929	 0.7870824897	 0.099734
H	-1.923411569	-0.723148464	 0.8711453704	 0.075269
H	-2.842647074	-0.8756529725	-1.6240091352	 0.093254
H	-2.0907858904	 1.048476958	-3.0623448651	 0.107655
H	-1.0309432719	 1.681784548	-1.7073822324	 0.153905
H	 1.2885746621	-0.8127956474	-1.7597223357	 0.063801
H	-0.9311772716	-2.577604742	-1.1501558346	 0.087712
H	 0.8801669992	-3.1491568916	 0.1354127415	 0.288342
161.8036	243.5159	251.145	276.6789	310.7312	312.6062	440.9432	461.2705	516.1575	659.6924	677.8941	728.8794	753.7667	816.4982	867.6615	888.9193	922.6963	948.1598	1001.204	1017.2651	1043.6169	1083.5878	1104.0557	1122.562	1129.7013	1153.0643	1167.0743	1174.3128	1192.6733	1221.4424	1249.6045	1254.9544	1275.0741	1302.7358	1333.9523	1370.7103	1419.9789	1477.1841	1505.058	3055.4867	3087.2121	3112.144	3124.2291	3132.1626	3144.9613	3264.4129	3820.6857	3833.1966
OC1C2C3CN3C1C2O	O[C@H]1[C@H]2[C@H]3CN3[C@@H]1[C@H]2O	
InChI=1S/C6H9NO2/c8-5-3-2-1-7(2)4(5)6(3)9/h2-6,8-9H,1H2	InChI=1S/C6H9NO2/c8-5-3-2-1-7(2)4(5)6(3)9/h2-6,8-9H,1H2/t2-,3-,4+,5+,6+,7?/m1/s1
