17
gdb 12198	4.22794	1.44279	1.24416	3.6356	69.13	-0.2777	0.0213	0.299	997.0788	0.141967	-363.870551	-363.862333	-363.861389	-363.903093	30.244	
C	 0.0778149398	 1.5885491349	-0.0265114773	-0.411426
C	 0.0955867077	 0.0713383459	 0.0445513658	 0.023604
C	 1.0448823613	-0.7236694937	-0.8961055388	-0.248484
C	 1.290092515	-1.7271559369	 0.2726898144	-0.177076
C	 2.6275349039	-2.2286206785	 0.518648735	 0.262493
N	 3.6990979485	-2.5879940615	 0.7664335815	-0.332296
C	 0.7779289557	-0.6143587159	 1.262500963	 0.104508
O	 1.8117696885	 0.203404017	 1.7461498211	-0.418976
H	 1.0784431627	 1.9947740234	 0.1364896896	 0.140009
H	-0.2777585774	 1.9217096448	-1.0073342966	 0.115328
H	-0.5866981342	 2.0140547311	 0.7326020014	 0.119655
H	-0.9207988733	-0.327727488	-0.0468778147	 0.080194
H	 0.6328572234	-1.1392845238	-1.8168971365	 0.113013
H	 1.9503396035	-0.1591040856	-1.1260408267	 0.132176
H	 0.5845739245	-2.5617173441	 0.2333780676	 0.12266
H	 0.1273799291	-0.9689272807	 2.0725333353	 0.074493
H	 2.4175875115	-0.3356281983	 2.2681929958	 0.300125
81.3929	127.1537	195.234	230.1575	251.1842	330.0352	349.5267	377.0579	482.0776	547.5654	588.9097	696.5618	752.9699	857.0596	891.6544	928.1789	939.9416	1010.4234	1042.9046	1080.3255	1131.725	1144.0628	1164.6184	1226.7361	1233.0972	1252.1369	1291.4219	1319.8129	1334.5748	1380.9817	1407.9097	1420.3926	1486.7987	1491.067	1501.6826	2347.1037	3012.3886	3037.8428	3047.4656	3077.9155	3080.6436	3099.7446	3130.7828	3140.7912	3794.1921
CC1CC(C#N)C1O	C[C@H]1C[C@@H](C#N)[C@H]1O	
InChI=1S/C6H9NO/c1-4-2-5(3-7)6(4)8/h4-6,8H,2H2,1H3	InChI=1S/C6H9NO/c1-4-2-5(3-7)6(4)8/h4-6,8H,2H2,1H3/t4-,5-,6-/m0/s1
