21
gdb 60609	2.69979	1.07501	0.94187	3.9211	79.78	-0.2258	0.0297	0.2554	1349.3731	0.180944	-420.410471	-420.399996	-420.399052	-420.446383	37.802	
C	-0.0450750155	 1.5296693536	-0.222132536	-0.397962
C	 0.0375724286	 0.0424737773	 0.1504655791	-0.128781
C	 0.6481724557	-0.7803069265	-0.9811108306	 0.042787
C	 0.3545123063	-2.2350090998	-1.1350289541	-0.263594
N	-0.1035486749	-1.2768707121	-2.133609805	-0.090024
C	-1.5352935084	-1.0512075215	-2.2470440275	-0.314452
C	 0.9470782111	-0.1356734768	 1.3736203135	 0.422928
N	 0.4640363143	-0.9593179688	 2.3505125522	-0.528124
O	 2.0275889353	 0.4150260141	 1.4611779923	-0.372086
H	 0.9618151373	 1.927752288	-0.3681947893	 0.147697
H	-0.6183815696	 1.6702972096	-1.1423578866	 0.116015
H	-0.5234002239	 2.1090203345	 0.5734735454	 0.116525
H	-0.9623815442	-0.337656672	 0.3847104202	 0.066434
H	 1.646854232	-0.4344969779	-1.2429186109	 0.11046
H	 1.1232758958	-2.9357612965	-1.4503026612	 0.118262
H	-0.3943063147	-2.660337308	-0.4646774471	 0.089765
H	-2.0934712164	-1.1232034302	-1.2996117646	 0.09571
H	-1.7180289771	-0.062134656	-2.6788463933	 0.127101
H	-1.9494106822	-1.7985055941	-2.9315249432	 0.125358
H	-0.3713515887	-1.5024078729	 2.2236137566	 0.255995
H	 1.0772968393	-1.1934081041	 3.1149132602	 0.259987
45.6253	64.3674	131.7238	199.1623	205.2027	216.6034	219.3221	247.9889	284.2505	345.1888	416.9734	441.4761	522.246	575.1188	628.411	740.0598	748.2877	820.1464	859.0812	917.0775	970.3254	1029.2951	1036.897	1065.345	1102.8744	1122.7174	1129.5093	1140.7326	1164.3692	1190.1754	1205.7043	1253.0249	1307.1189	1336.6055	1391.8172	1403.9452	1416.5073	1449.3068	1488.6756	1492.1228	1498.5176	1502.5389	1510.8272	1615.0443	1795.3235	2969.0832	3045.4327	3051.6262	3066.0559	3072.472	3101.5846	3114.7791	3121.7685	3135.1734	3166.5421	3597.4885	3735.8109
CC(C1CN1C)C(N)=O	C[C@@H]([C@H]1CN1C)C(=O)N	
InChI=1S/C6H12N2O/c1-4(6(7)9)5-3-8(5)2/h4-5H,3H2,1-2H3,(H2,7,9)	InChI=1S/C6H12N2O/c1-4(6(7)9)5-3-8(5)2/h4-5H,3H2,1-2H3,(H2,7,9)/t4-,5+,8?/m0/s1
