18
gdb 65684	3.69763	0.93512	0.87496	2.7669	75.1	-0.2539	-0.0323	0.2216	1353.7806	0.144576	-439.092115	-439.082941	-439.081997	-439.126557	33.765	
C	-0.1545124672	 1.7366800399	 0.0775100631	-0.437082
C	-0.0088100462	 0.2211064404	 0.0205036436	 0.38227
C	 1.1243584281	-0.2948103639	-0.9341714368	-0.40537
C	 1.9498614107	-0.611750611	 0.3241818791	 0.40928
O	 3.1028111552	-0.8619796033	 0.5145050448	-0.283571
C	 0.7391004307	-0.3904007791	 1.2394458654	-0.391026
O	-1.2817179049	-0.4127502221	-0.1276095636	-0.232513
C	-1.8922921371	-0.3153168469	-1.3263627873	 0.113204
N	-3.0640717465	-0.7608811872	-1.4721251792	-0.438676
H	 0.812415558	 2.2097616509	 0.2751873646	 0.129624
H	-0.5366246614	 2.136979045	-0.8669055187	 0.124155
H	-0.8474795669	 2.0166985234	 0.8760153304	 0.141611
H	 0.8401563578	-1.2138050378	-1.4569220389	 0.145287
H	 1.5621317056	 0.406531673	-1.6484610964	 0.13172
H	 0.8860028405	 0.2395514908	 2.1195889847	 0.133754
H	 0.2849938573	-1.3383874806	 1.5443198855	 0.15406
H	-1.2732663504	 0.1510074307	-2.1039422396	 0.09287
H	-3.3671589831	-0.6317107721	-2.4353018807	 0.230402
51.0126	87.6987	146.2883	179.7143	251.2268	311.6309	335.1302	362.0168	401.4483	427.8881	505.7885	533.8812	674.9133	697.2637	753.038	822.5502	867.4818	894.9757	936.6418	957.9385	1014.941	1048.5571	1070.1648	1096.4099	1125.6223	1168.2737	1177.6371	1214.431	1261.3776	1281.8663	1298.7601	1410.279	1416.8371	1423.9813	1438.7619	1485.6097	1494.8622	1743.3726	1901.6354	3031.4645	3039.1164	3058.364	3065.9798	3109.0058	3119.6932	3122.2341	3126.9573	3516.7101
CC1(CC(=O)C1)OC=N	CC1(CC(=O)C1)O[CH][NH]	
InChI=1S/C6H9NO2/c1-6(9-4-7)2-5(8)3-6/h4,7H,2-3H2,1H3	InChI=1S/C6H9NO2/c1-6(9-4-7)2-5(8)3-6/h4,7H,2-3H2,1H3
