19
gdb 89224	3.06998	1.57432	1.26724	0.7503	73.51	-0.218	0.0679	0.2859	1036.1924	0.159594	-422.988968	-422.981249	-422.980305	-423.020641	31.39	
C	-0.0503514798	 1.5703569802	 0.0668523823	-0.411147
C	 0.0307692786	 0.0468348825	-0.0015263028	 0.044386
C	 0.8067783488	-0.5102554291	-1.2341491812	-0.311444
C	 1.6050649795	-1.690801989	-0.6803652942	 0.358099
O	 1.9218788739	-2.7757608689	-1.493760785	-0.473852
C	 2.5261250661	-1.4008405687	 0.4974974621	 0.026825
O	 2.1964537864	-0.1486127562	 1.0966251137	-0.310695
C	 0.7907822159	-0.5850659126	 1.1691639445	 0.073296
C	 1.1772717709	-2.0121320478	 0.7357827989	-0.202163
H	 0.9550178869	 1.9974540871	 0.1285031461	 0.135052
H	-0.5455259019	 1.9814006183	-0.8185748557	 0.112721
H	-0.6144796461	 1.8993962266	 0.9464500972	 0.109374
H	-0.9825298227	-0.3771198238	 0.0024568162	 0.073864
H	 0.1340030354	-0.8595384389	-2.0225556611	 0.105111
H	 1.4590157739	 0.2573206731	-1.6658627877	 0.09904
H	 2.646892236	-2.5150101358	-2.0723947911	 0.286222
H	 3.5342988765	-1.786519365	 0.6024745893	 0.102642
H	 0.3768890946	-0.4147467281	 2.1651692957	 0.07884
H	 0.8601019072	-2.9723264439	 1.1167039429	 0.10383
132.6602	232.0883	241.9317	280.1239	327.2182	349.506	393.1072	467.8431	487.608	584.0866	626.7413	752.4176	770.9526	828.0218	857.768	885.1389	904.8312	929.9151	938.8116	959.4742	1013.9184	1022.6609	1036.3483	1087.6529	1115.8246	1131.1646	1154.4874	1202.0099	1213.9102	1237.8999	1262.8339	1287.3334	1307.9532	1324.5414	1343.4886	1360.7541	1406.6728	1429.5176	1492.9572	1496.9564	1504.2982	3014.6395	3032.952	3040.2904	3090.3871	3093.4179	3098.0262	3114.7193	3174.3065	3216.5446	3794.806
CC1CC2(O)C3OC1C23	C[C@H]1C[C@@]2(O)[C@H]3O[C@@H]1[C@@H]23	
InChI=1S/C7H10O2/c1-3-2-7(8)4-5(3)9-6(4)7/h3-6,8H,2H2,1H3	InChI=1S/C7H10O2/c1-3-2-7(8)4-5(3)9-6(4)7/h3-6,8H,2H2,1H3/t3-,4+,5-,6-,7-/m0/s1
