21
gdb 89426	2.70713	1.39605	1.08008	1.2877	84.39	-0.2299	0.0206	0.2505	1195.7035	0.183047	-387.092471	-387.08392	-387.082975	-387.125133	34.403	
C	 0.0716856753	 1.6000129634	 0.0297547655	-0.405538
C	-0.0065534846	 0.0689784026	 0.0181153312	-0.016901
C	 0.6255944811	-0.522277799	-1.2603342294	-0.274234
C	 0.6841350098	-2.0499289311	-1.2324313194	 0.392573
O	-0.2760674611	-2.7100131755	-2.016991205	-0.475222
C	 2.0103557812	-2.739682643	-1.012059595	-0.355234
C	 0.9529600639	-2.6908280224	 0.0923973858	-0.103021
C	 1.0948065027	-1.7956504332	 1.2672146475	-0.085848
C	 0.6479759356	-0.5387569062	 1.2417193751	-0.055326
H	 1.1140234076	 1.939446115	 0.0251485563	 0.114581
H	-0.4240657651	 2.0279481176	-0.8477950389	 0.110278
H	-0.4095993019	 2.0141260686	 0.9220410165	 0.112483
H	-1.0702892209	-0.2148199073	 0.0236596287	 0.093706
H	 0.0504708471	-0.2115348278	-2.1401735461	 0.089285
H	 1.6338514482	-0.1057610339	-1.3717984363	 0.09515
H	-0.0332839805	-2.5872879668	-2.9417474076	 0.276968
H	 2.1575604005	-3.6982353706	-1.4981421376	 0.108633
H	 2.9010159424	-2.1299638077	-0.89887559	 0.108557
H	 0.4470794575	-3.6369502833	 0.2646498111	 0.10235
H	 1.5631793908	-2.2000996628	 2.1614156628	 0.085593
H	 0.7470019104	 0.0937663434	 2.1211906047	 0.081167
93.8618	157.319	235.1832	278.2884	301.2556	325.6763	381.4634	398.9697	431.1644	447.9312	524.2564	556.1254	689.7201	727.5903	794.6153	811.0613	867.6715	909.1894	928.7769	933.2076	959.0275	982.1481	993.6951	1035.7489	1058.4761	1092.6179	1095.4842	1111.1389	1153.949	1179.0156	1220.5617	1249.797	1279.9951	1319.5993	1330.5955	1343.6289	1362.8669	1405.1392	1416.3486	1426.4875	1469.8813	1488.8477	1498.2023	1499.8217	1702.3242	2983.335	3023.5695	3027.6122	3070.4549	3093.6732	3099.205	3124.8105	3138.9853	3147.2389	3163.7757	3220.3864	3786.5671
CC1CC2(O)CC2C=C1	C[C@H]1C[C@@]2(O)C[C@H]2C=C1	
InChI=1S/C8H12O/c1-6-2-3-7-5-8(7,9)4-6/h2-3,6-7,9H,4-5H2,1H3	InChI=1S/C8H12O/c1-6-2-3-7-5-8(7,9)4-6/h2-3,6-7,9H,4-5H2,1H3/t6-,7-,8-/m1/s1
