14
gdb 24384	3.8185	1.67467	1.17446	3.2317	68.36	-0.2034	-0.0061	0.1973	955.3202	0.104867	-432.900082	-432.893602	-432.892657	-432.931092	25.008	
C	-0.0055751085	 1.5074412686	-0.0606878127	-0.274158
N	 1.367008993	 2.0323690599	 0.0585533852	-0.238952
C	 2.3595932191	 1.2776904564	 0.2883203792	 0.077529
N	 2.3494304693	-0.1126102595	 0.5015114302	-0.438897
C	 1.1199649171	-0.674606615	 0.2266158416	 0.384433
C	-0.0138047023	 0.0095849507	-0.0266520742	 0.176966
N	-1.0403737084	-0.913106816	-0.2089116824	-0.314492
C	-0.4726062442	-2.061846167	-0.0570049686	 0.036308
O	 0.8753622438	-2.0034216836	 0.2226028023	-0.197781
H	-0.6082832908	 1.9421646255	 0.7500748787	 0.124702
H	-0.4398659354	 1.8994883662	-0.9898458695	 0.127237
H	 3.3558923791	 1.7120064791	 0.3629555502	 0.122765
H	 3.1921996432	-0.6335076253	 0.3086568131	 0.26266
H	-0.8979668848	-3.0493923101	-0.1216946729	 0.151678
94.7666	243.7625	304.8079	383.1046	413.3161	499.6356	534.861	631.5118	652.6074	710.3859	767.2164	773.825	882.1243	929.9228	935.0596	943.5341	1038.463	1069.0749	1071.3577	1168.2749	1236.5181	1248.9124	1292.933	1355.5245	1380.396	1406.6978	1503.8318	1515.801	1542.4774	1691.2915	1750.7147	2994.4833	3021.5464	3140.4645	3292.2887	3609.7649
C1N=CNC2=C1N=CO2	C1N=CNc2c1nco2	
InChI=1S/C5H5N3O/c1-4-5(7-2-6-1)9-3-8-4/h2-3H,1H2,(H,6,7)	InChI=1S/C5H5N3O/c1-4-5(7-2-6-1)9-3-8-4/h2-3H,1H2,(H,6,7)
