15
gdb 44747	2.65881	1.83768	1.30325	4.6341	64.95	-0.2397	-0.0878	0.1519	947.5992	0.113079	-457.771625	-457.764535	-457.763591	-457.803584	27.057	
O	 0.0052264067	 0.1154499981	 0.5693715273	-0.27251
C	-0.0397007031	 1.2353509772	 0.1369927988	 0.310391
C	-1.3393270577	 1.9499652028	-0.2483462908	-0.330186
C	-1.0327020342	 3.3419127115	-0.7927972262	 0.083065
C	 0.0584635557	 3.328837614	-1.884887494	-0.275376
C	 0.9974763351	 3.4368049844	-0.6645907527	-0.018446
O	-0.0946076957	 3.9727760672	 0.135000935	-0.294582
C	 1.2801790045	 2.0516295392	-0.1012562109	 0.331078
O	 2.3630097071	 1.5957151896	 0.1428575835	-0.281586
H	-1.8938889373	 1.329297868	-0.961973041	 0.136141
H	-1.9542188934	 2.0291791714	 0.655243601	 0.15146
H	-1.9264794179	 3.9491114893	-0.9513708236	 0.097425
H	 0.1373200381	 2.4526067684	-2.5331861285	 0.121358
H	 0.0685318293	 4.241972374	-2.4811334461	 0.132009
H	 1.8814865527	 4.0752812949	-0.6921475817	 0.109758
57.9176	159.8399	328.4256	334.5581	353.9975	432.8967	457.3508	531.2372	612.9128	642.3671	706.3491	849.8339	868.2008	897.2827	913.2636	950.1041	987.2082	1001.7503	1054.5214	1083.0119	1108.2434	1161.2272	1204.6513	1227.1423	1258.4636	1300.0478	1310.3785	1321.3353	1365.6759	1435.8296	1489.391	1828.6947	1852.8599	3043.5289	3071.8605	3087.8104	3091.7878	3114.6439	3139.1895
O=C1CC2CC(O2)C1=O	O=C1C[C@@H]2C[C@@H](O2)C1=O	
InChI=1S/C6H6O3/c7-4-1-3-2-5(9-3)6(4)8/h3,5H,1-2H2	InChI=1S/C6H6O3/c7-4-1-3-2-5(9-3)6(4)8/h3,5H,1-2H2/t3-,5-/m1/s1
