25
gdb 92445	2.1411	1.65643	1.37148	0.1508	90.72	-0.2793	0.0761	0.3554	1144.9293	0.232646	-352.389003	-352.380521	-352.379577	-352.421359	35.052	
C	-0.2119949826	 1.5948884643	-0.0128381607	-0.42163
C	 0.025742036	 0.083883078	-0.0255387632	 0.063171
C	 0.7599713121	-0.4504738417	-1.3014857204	-0.23349
C	 1.9137447706	-1.3052501898	-0.7253091862	-0.000584
C	 2.9760427758	-0.346523911	-0.1413133905	-0.214375
C	 2.2803800623	 0.2038807843	 1.1473853856	-0.218893
C	 0.9002539879	-0.4900336283	 1.1230349093	-0.017838
C	 1.2903116909	-1.8874199332	 0.5709646056	 0.048415
C	 0.1817028799	-2.9259418943	 0.4052717758	-0.435128
H	 0.7131008104	 2.1607730264	-0.1628865182	 0.114649
H	-0.899460339	 1.8820423348	-0.8160006368	 0.109801
H	-0.6553447429	 1.9234911322	 0.934042885	 0.108118
H	-0.9582045896	-0.3930265571	 0.0426365684	 0.066832
H	 0.0898111709	-1.0437713054	-1.930868253	 0.089907
H	 1.1403974517	 0.3652396969	-1.9258359522	 0.087957
H	 2.319553955	-2.0354580751	-1.4299231548	 0.047671
H	 3.8967880917	-0.884087581	 0.1058769412	 0.090025
H	 3.2454143697	 0.4457624446	-0.846652849	 0.088894
H	 2.8322916286	-0.0883736997	 2.0460930374	 0.091227
H	 2.2124588601	 1.2939553651	 1.1611620377	 0.09379
H	 0.3924066361	-0.4867151443	 2.0915640736	 0.045063
H	 2.0750448052	-2.3283040943	 1.1993983834	 0.057256
H	-0.6317035328	-2.5845955702	-0.240622057	 0.117286
H	 0.5813533155	-3.8467342715	-0.0335568954	 0.110941
H	-0.2557292533	-3.1884617197	 1.3749590643	 0.110934
124.5884	195.2868	227.494	235.1643	260.605	307.9985	343.584	402.1988	469.2727	538.3506	553.3205	699.1327	748.0811	780.5743	814.0672	830.5963	878.4578	888.5756	927.4312	940.145	959.0883	972.3135	1001.8878	1010.5261	1045.4592	1077.8781	1093.1262	1101.6265	1107.9893	1139.4147	1144.8099	1194.4365	1207.0742	1242.2727	1259.2243	1267.7862	1286.1526	1309.9086	1325.9457	1331.4608	1344.0304	1351.3001	1379.4907	1403.1309	1411.264	1416.7133	1488.917	1494.2522	1498.3801	1501.0303	1503.1922	1513.7475	1521.6775	3017.2639	3026.7528	3028.8793	3033.2177	3041.127	3041.9547	3053.5632	3072.6036	3077.0173	3077.4111	3085.2031	3089.4614	3089.874	3097.805	3106.6335	3110.72
CC1CC2CCC1C2C	C[C@H]1C[C@H]2CC[C@@H]1[C@H]2C	
InChI=1S/C9H16/c1-6-5-8-3-4-9(6)7(8)2/h6-9H,3-5H2,1-2H3	InChI=1S/C9H16/c1-6-5-8-3-4-9(6)7(8)2/h6-9H,3-5H2,1-2H3/t6-,7-,8+,9-/m0/s1
