17
gdb 79437	2.87975	1.73937	1.34181	3.582	71.06	-0.2281	-0.0174	0.2107	973.3819	0.136897	-421.791348	-421.784389	-421.783445	-421.822546	27.938	
C	-0.1405765488	 1.524974912	 0.0554718938	-0.418512
C	-0.0229011847	 0.0049704265	 0.0430095666	-0.008416
C	 0.7674763859	-0.5547853081	-1.1644843447	-0.08557
C	 2.0983664612	-0.4050136396	-0.3912808355	 0.115608
O	 2.5797760102	-1.7026245246	-0.796505034	-0.301098
C	 1.1596822268	-2.0530540268	-0.8668448925	-0.061743
C	 0.8721148094	-2.0650355453	 0.6483245855	 0.478118
O	 0.5186724587	-2.9407022128	 1.382731612	-0.334111
C	 1.1686723157	-0.5823326118	 0.8856451307	-0.223782
H	 0.8196499568	 2.0110173309	-0.1461489542	 0.121215
H	-0.8515624353	 1.8630345092	-0.7062830718	 0.123277
H	-0.4967948785	 1.8804539213	 1.0273659069	 0.126693
H	-0.9982362622	-0.4502437922	 0.247606966	 0.088512
H	 0.6100321556	-0.2507144071	-2.1983817463	 0.087503
H	 2.8291290059	 0.3983600008	-0.4482911407	 0.099908
H	 0.9278333662	-2.9136745161	-1.4892478576	 0.100909
H	 1.4101735872	-0.2422691564	 1.8887892959	 0.091487
149.8024	206.9124	233.9715	259.3685	414.4832	452.7301	501.825	593.0838	728.9889	744.024	812.0528	827.0537	830.8479	845.1285	854.6224	900.5485	927.0027	955.4555	1006.9585	1049.5863	1069.2793	1075.6789	1095.3948	1132.8208	1152.8953	1181.9253	1193.959	1218.1506	1238.5042	1272.4733	1279.7919	1315.1713	1382.6435	1415.0492	1494.3288	1499.0742	1896.2611	3032.5422	3042.5293	3099.3759	3106.1164	3126.8097	3146.869	3162.9013	3165.7087
CC1C2C3OC2C(=O)C13	C[C@H]1[C@H]2[C@@H]3O[C@H]2C(=O)[C@H]13	
InChI=1S/C7H8O2/c1-2-3-5(8)7-4(2)6(3)9-7/h2-4,6-7H,1H3	InChI=1S/C7H8O2/c1-2-3-5(8)7-4(2)6(3)9-7/h2-4,6-7H,1H3/t2-,3+,4+,6-,7-/m1/s1
