15
gdb 28707	5.33067	0.87691	0.78326	4.0068	71.47	-0.2242	-0.0129	0.2113	1406.2164	0.111282	-457.815842	-457.807493	-457.806549	-457.849863	29.376	
C	-0.0799407813	 1.6361002975	-0.1914322661	-0.489928
C	-0.0119599352	 0.1534411514	-0.1449042784	 0.356339
C	-0.9126305358	-0.8245963815	 0.1370923969	-0.243722
C	-0.2317683217	-2.0818396001	-0.0113002043	-0.301413
C	 1.0345093173	-1.754614166	-0.3678500374	 0.384881
O	 2.1342170458	-2.4865258723	-0.6721741659	-0.207305
C	 2.6531736449	-3.2837533002	 0.3197284163	 0.163978
O	 3.5597620205	-4.0228797782	 0.1172664814	-0.244975
O	 1.200622642	-0.4156933307	-0.4520076442	-0.187753
H	 0.1502028556	 2.0180576514	-1.1924007135	 0.144527
H	-1.0858110546	 1.9655421896	 0.07776784	 0.139238
H	 0.6299705732	 2.0949846096	 0.5058598804	 0.142336
H	-1.9455736464	-0.6756757415	 0.4102963231	 0.115337
H	-0.6316309059	-3.0760423884	 0.1032423693	 0.12474
H	 2.1177872117	-3.1425210404	 1.2745530523	 0.103719
42.0258	121.0136	138.2867	157.1378	232.7764	283.3269	391.6636	453.8169	503.5076	633.4851	659.1093	687.2192	792.8948	821.9888	828.7162	972.7714	985.8158	1027.6736	1039.4405	1050.8917	1066.0928	1104.836	1232.2832	1237.5798	1275.6204	1392.2583	1403.6614	1418.5297	1471.6996	1491.603	1609.8584	1659.4835	1887.4158	2996.7333	3032.7042	3084.0817	3131.477	3255.7414	3271.7195
CC1=CC=C(OC=O)O1	Cc1ccc(OC=O)o1	
InChI=1S/C6H6O3/c1-5-2-3-6(9-5)8-4-7/h2-4H,1H3	InChI=1S/C6H6O3/c1-5-2-3-6(9-5)8-4-7/h2-4H,1H3
