18
gdb 35317	4.42178	1.01124	0.91266	1.4066	85.08	-0.2324	0.0105	0.2429	1291.96	0.147903	-364.759959	-364.751801	-364.750856	-364.792827	31.879	
C	-0.0318331421	-1.2421041824	-0.0041528481	-0.463961
C	-0.0104561634	-0.0400722434	-0.0037996363	 0.318409
C	 0.0200028034	 1.4182271255	 0.0015521691	-0.2123
C	-0.6532714971	 2.0627382247	 1.2546480339	-0.325324
C	 0.2092865407	 3.2884329045	 1.5679920968	 0.325688
C	-0.3674480395	 4.6534549233	 1.7380546243	-0.290338
N	 0.2029622383	 3.9334499897	 2.8902340658	-0.364354
C	 1.5073311008	 3.0359078292	 0.8861229534	-0.118565
C	 1.4233536437	 2.0165283852	 0.0352371517	-0.087512
H	-0.0496300631	-2.3037085244	-0.0051367393	 0.195228
H	-0.4900445533	 1.7687108642	-0.9084792752	 0.114045
H	-1.7071331638	 2.2983106578	 1.088675501	 0.108202
H	-0.5913477539	 1.3535717227	 2.0867416321	 0.123253
H	 0.1940463424	 5.5295735115	 1.4238645968	 0.11782
H	-1.4474006296	 4.7577642665	 1.6627875692	 0.111192
H	-0.5441771145	 3.5411720718	 3.4593902064	 0.230227
H	 2.3805926638	 3.6500711618	 1.0703265855	 0.108648
H	 2.2138246173	 1.6422023816	-0.603187997	 0.109642
59.6665	133.9288	185.2618	276.4893	323.183	342.9932	444.6619	467.4462	532.7872	591.0324	619.8584	637.6134	674.8605	772.7462	812.271	856.2472	858.8871	907.5639	952.9647	967.8883	974.9415	984.0478	1028.3095	1054.2431	1076.6612	1119.7912	1131.5806	1186.7447	1258.683	1267.0147	1276.3707	1302.0844	1329.0566	1344.5045	1417.4061	1484.4394	1509.9543	1679.6206	2235.9555	2985.5801	3050.611	3098.6744	3105.1848	3184.74	3200.2043	3224.4738	3487.8007	3505.0386
C#CC1CC2(CN2)C=C1	C#C[C@H]1C[C@]2(CN2)C=C1	
InChI=1S/C8H9N/c1-2-7-3-4-8(5-7)6-9-8/h1,3-4,7,9H,5-6H2	InChI=1S/C8H9N/c1-2-7-3-4-8(5-7)6-9-8/h1,3-4,7,9H,5-6H2/t7-,8+/m1/s1
