25
gdb 123148	5.5153	0.48495	0.46089	0.1667	88.45	-0.2469	0.0842	0.331	2497.2455	0.225152	-426.621639	-426.609592	-426.608648	-426.660765	41.517	
C	 0.7672020381	 0.9613313487	 1.1177389002	-0.384822
C	 0.2454347245	 0.0987989301	-0.0189328372	-0.024035
O	-1.1241345069	-0.1639941116	 0.2054654554	-0.246314
C	-1.7111650859	-0.9574241623	-0.7992035663	-0.064696
C	-3.1748142115	-1.161203994	-0.4356052279	-0.079692
O	-3.7614782831	-1.9193579828	-1.4687387597	-0.261544
C	-5.0727133078	-2.4050910171	-1.2030031345	 0.164944
C	-6.1205893607	-1.2888312489	-1.2521589938	-0.393576
C	-5.3448408782	-3.4918002686	-2.2373561895	-0.387519
H	 1.8291816621	 1.1814280281	 0.9734027546	 0.113841
H	 0.2193978265	 1.9068346271	 1.1645164025	 0.125888
H	 0.6456434604	 0.4478248654	 2.075764751	 0.125813
H	 0.3800825782	 0.6108191256	-0.9870706827	 0.085211
H	 0.8093573516	-0.847886361	-0.0771819954	 0.085033
H	-1.641970352	-0.4695911663	-1.7852653071	 0.093447
H	-1.2089934366	-1.9350322536	-0.881547322	 0.091173
H	-3.2468456367	-1.6849904959	 0.531230873	 0.091684
H	-3.6545156422	-0.1786035297	-0.3149947368	 0.097552
H	-5.0829014178	-2.8566906081	-0.1957989748	 0.062972
H	-7.1200198268	-1.695886029	-1.0681552813	 0.113481
H	-5.9326794872	-0.5203727377	-0.4970621835	 0.118222
H	-6.1176285247	-0.8110117832	-2.2373651747	 0.120727
H	-4.5806816201	-4.2714462957	-2.181660714	 0.119377
H	-6.3250497402	-3.9482198252	-2.0708123562	 0.11105
H	-5.327707823	-3.0674116443	-3.2463638191	 0.121784
34.1514	42.6026	78.7073	100.137	105.5826	158.8372	206.6169	211.2848	250.3972	257.1732	263.5019	361.1368	392.7867	446.8659	515.5269	527.3806	819.7069	827.8064	839.1798	896.125	926.0976	937.5886	948.1586	1047.4045	1082.5064	1119.0887	1148.1816	1156.6284	1162.4993	1174.8094	1183.5965	1194.1093	1203.8947	1233.9365	1293.3452	1295.3614	1342.5441	1368.1302	1379.9067	1396.3581	1401.5145	1413.0644	1424.5781	1461.3538	1480.6829	1483.9985	1485.7835	1494.681	1499.7474	1509.7481	1515.9648	1530.0064	1539.753	2950.4374	2951.0387	2968.2982	2975.4478	2976.6765	2992.1041	3021.9239	3036.8863	3042.5767	3044.7336	3106.9534	3113.6292	3116.1206	3119.2473	3121.0738	3122.5626
CCOCCOC(C)C	CCOCCOC(C)C	
InChI=1S/C7H16O2/c1-4-8-5-6-9-7(2)3/h7H,4-6H2,1-3H3	InChI=1S/C7H16O2/c1-4-8-5-6-9-7(2)3/h7H,4-6H2,1-3H3
