23
gdb 92494	2.46432	1.51488	1.32617	1.4013	84.27	-0.2359	0.0789	0.3148	1130.002	0.206287	-388.29986	-388.290973	-388.290029	-388.333031	35.156	
C	 0.6182464721	 1.3256991355	 0.3324023175	-0.397926
C	-0.0451910863	 0.0065669311	-0.0723375036	 0.124521
C	 0.5779478885	-0.6803878311	-1.3095863403	-0.308464
C	 1.4819782259	-1.7923008438	-0.7490028397	 0.350866
C	 1.4689705502	-3.0677766246	-1.5811894433	-0.481772
C	 2.9006781435	-1.3424181829	-0.2618154655	-0.28585
C	 2.4626219907	-1.5321502027	 1.2181585093	-0.240406
C	 1.0295945277	-1.9116141891	 0.7434550652	 0.079939
O	 0.0121898002	-0.9613190344	 0.9837272751	-0.27392
H	 1.6998116959	 1.2228076085	 0.4595487584	 0.119365
H	 0.4387828039	 2.0897687408	-0.4320693604	 0.109589
H	 0.1969443507	 1.6808465765	 1.277207138	 0.122564
H	-1.1109174053	 0.2040031462	-0.2390320865	 0.078338
H	-0.212850109	-1.1243400273	-1.9229600464	 0.098238
H	 1.1240955436	 0.0268691655	-1.9411063435	 0.099937
H	 1.8847440376	-2.8927682981	-2.5804557361	 0.115326
H	 2.066656728	-3.8565194664	-1.1108573165	 0.11188
H	 0.4488690967	-3.4488797911	-1.7049285345	 0.115528
H	 3.7074698526	-2.0055111233	-0.5848456745	 0.096264
H	 3.174959543	-0.3218429649	-0.5404840755	 0.095578
H	 2.9825314565	-2.3417979452	 1.7366922056	 0.097387
H	 2.4928243967	-0.6422165078	 1.8496474218	 0.105433
H	 0.6636375666	-2.8845737912	 1.0865833055	 0.067584
85.3405	113.6851	217.3792	234.6329	240.9111	313.8942	343.9318	379.7753	398.1944	432.4433	580.3535	629.8329	713.623	740.5258	795.7713	833.0017	850.2765	900.8772	923.4436	926.8978	950.0361	960.2651	992.2593	1034.5477	1057.1544	1077.2405	1115.3633	1150.7428	1166.7595	1190.7301	1214.0211	1219.7224	1251.7144	1263.504	1271.1359	1276.942	1329.2919	1344.3005	1375.9204	1394.3195	1408.0231	1411.7958	1466.0347	1481.3837	1490.4493	1492.523	1493.3815	1498.3993	1501.8479	3018.7173	3024.6702	3036.151	3046.2501	3050.9042	3055.6034	3068.0229	3085.0274	3086.7407	3092.2617	3100.7718	3105.8498	3118.3153	3125.6057
CC1CC2(C)CCC2O1	C[C@H]1C[C@@]2(C)CC[C@H]2O1	
InChI=1S/C8H14O/c1-6-5-8(2)4-3-7(8)9-6/h6-7H,3-5H2,1-2H3	InChI=1S/C8H14O/c1-6-5-8(2)4-3-7(8)9-6/h6-7H,3-5H2,1-2H3/t6-,7+,8+/m0/s1
