18
gdb 93749	1.97661	1.71422	0.97886	3.3978	82.01	-0.2503	-0.0429	0.2074	1207.8807	0.146646	-401.986311	-401.977057	-401.976112	-402.020636	33.031	
C	 0.104680942	 1.5772439261	-0.0772953072	-0.396967
C	-0.0043837241	 0.0603016084	 0.0375077142	 0.033074
O	 0.621921667	-0.564493651	-1.0860998967	-0.275767
C	 1.5321638338	-1.566889132	-0.6659705964	-0.147084
C	 1.5980112206	-1.4703519744	 0.8343062155	 0.177876
C	 2.5057875953	-2.3145184472	 1.6603391342	-0.511053
C	 0.7153157899	-0.542964753	 1.2314281062	 0.093668
C	 0.4420481239	-0.1623687643	 2.5687269525	 0.212764
N	 0.2016530904	 0.1635683423	 3.6548888233	-0.349255
H	 1.153530787	 1.8871679149	-0.0826100574	 0.122031
H	-0.3643280289	 1.912265996	-1.0061641012	 0.132235
H	-0.4029408766	 2.0620157268	 0.7622980797	 0.134449
H	-1.0697556797	-0.2218381916	 0.0597612472	 0.096326
H	 1.1897734854	-2.5672032297	-0.9822914242	 0.113608
H	 2.5141503241	-1.4019087488	-1.1352127198	 0.118027
H	 2.3075729109	-3.379490093	 1.4881478944	 0.14422
H	 3.553375668	-2.1421630941	 1.3850267386	 0.144544
H	 2.3883704812	-2.1079924756	 2.726091197	 0.157305
65.7867	127.8621	147.791	153.9258	177.6221	222.6106	278.8712	363.3334	405.4928	458.9465	519.5864	570.9057	614.3112	672.3892	769.2807	874.5908	927.8425	967.637	1003.2711	1060.9029	1088.6691	1094.1597	1116.18	1139.0658	1202.0158	1203.922	1273.9843	1341.7346	1375.0834	1386.946	1404.3268	1415.3072	1478.106	1480.4525	1484.4955	1493.4095	1515.1819	1711.574	2333.0485	2958.9522	2967.5093	2996.9088	3027.4826	3043.4963	3076.4706	3120.8477	3126.5178	3131.2907
CC1OCC(C)=C1C#N	C[C@H]1OCC(=C1C#N)C	
InChI=1S/C7H9NO/c1-5-4-9-6(2)7(5)3-8/h6H,4H2,1-2H3	InChI=1S/C7H9NO/c1-5-4-9-6(2)7(5)3-8/h6H,4H2,1-2H3/t6-/m1/s1
