17
gdb 13105	4.11071	1.22311	1.03045	0.6727	68.32	-0.255	0.0163	0.2713	1169.9227	0.140944	-400.98742	-400.978623	-400.977679	-401.021969	30.314	
C	-0.4614134732	 0.2024939629	-0.8729851645	-0.362843
C	 0.1545896015	 0.5040426232	 0.4930315069	-0.148595
N	 0.6343943278	-0.7285681978	 1.1157480068	-0.34249
C	 0.3560506093	-0.9722033778	 2.308960197	 0.428857
O	-0.3633388057	-0.2605236156	 3.2536402541	-0.266911
C	-0.3064745235	-1.3842116094	 4.1922646723	-0.092953
C	 0.5947943372	-2.1661282624	 3.2157015032	-0.017119
O	 0.0711277723	-3.3944937638	 2.7807454901	-0.429143
H	-1.3426035998	-0.438257268	-0.7692776526	 0.118085
H	-0.7688385791	 1.1282598975	-1.3693149375	 0.110665
H	 0.258674169	-0.314693904	-1.513592195	 0.123617
H	 1.0193893562	 1.1671317459	 0.3621263214	 0.111457
H	-0.5656015112	 1.0352625006	 1.1289571877	 0.112491
H	 0.1312797713	-1.0781051551	 5.1441707858	 0.122574
H	-1.2917459211	-1.833769644	 4.3317901514	 0.132449
H	 1.6358348449	-2.2591002377	 3.553590449	 0.099591
H	 0.3116355339	-3.4899106345	 1.8518008536	 0.300266
34.5671	87.8807	119.4215	164.41	192.6829	261.2192	293.4248	363.5027	454.2161	545.7442	674.7459	750.8198	806.3966	848.1076	910.646	937.8411	963.6182	1055.1026	1073.3461	1102.5847	1129.9661	1150.2673	1170.3261	1192.0352	1207.8847	1300.4899	1323.8956	1357.0572	1383.5215	1403.984	1408.0068	1488.0241	1492.4229	1505.5891	1508.9866	1845.5491	3012.1046	3014.7008	3039.0484	3047.5958	3073.6641	3110.6625	3117.8902	3140.8305	3802.3703
CCN=C1OCC1O	CCN=C1OC[C@H]1O	
InChI=1S/C5H9NO2/c1-2-6-5-4(7)3-8-5/h4,7H,2-3H2,1H3	InChI=1S/C5H9NO2/c1-2-6-5-4(7)3-8-5/h4,7H,2-3H2,1H3/t4-/m1/s1
