20
gdb 122409	5.28058	0.58888	0.55773	4.2759	77.25	-0.2466	0.0373	0.2838	1944.1246	0.170087	-440.305247	-440.29539	-440.294446	-440.341224	35.096	
O	-0.060511091	 1.4458594244	 0.2365515367	-0.420658
C	 0.0410222186	 0.0526194536	-0.0110529882	-0.073232
C	-1.3586860392	-0.5406368156	 0.0834569818	-0.171105
C	-1.3859599835	-2.0524766341	-0.1595516137	-0.201531
C	-2.7880504454	-2.6447664782	-0.0813534597	 0.062243
C	-2.9088666632	-4.1982095222	-0.0509635568	-0.413469
C	-3.5862042462	-4.011008951	 1.3292306965	 0.430924
O	-4.093718677	-4.7236625541	 2.1519590417	-0.357557
N	-3.4015567274	-2.649906592	 1.2582048503	-0.325098
H	 0.8210206453	 1.8266812117	 0.1873591799	 0.287144
H	 0.4617239881	-0.1467629316	-1.0106405078	 0.085385
H	 0.7019724336	-0.4375279241	 0.7226462137	 0.08759
H	-1.7605595611	-0.3112964992	 1.0780736309	 0.104623
H	-2.0023311816	-0.0278355563	-0.6422379223	 0.106929
H	-0.9746128454	-2.2776465128	-1.1528230237	 0.1021
H	-0.7470775999	-2.5625419756	 0.5731223728	 0.101523
H	-3.4371304833	-2.1805596428	-0.8349112455	 0.084309
H	-3.5578553136	-4.6402366159	-0.8086250451	 0.131446
H	-1.9592034058	-4.7362551781	-0.0192077019	 0.12815
H	-3.756284492	-1.9057137061	 1.8407256704	 0.250284
49.926	71.7926	98.9668	118.1118	156.81	265.7024	277.5377	296.8818	381.6086	441.9585	490.1763	518.571	565.5121	723.6168	768.2216	824.9166	869.4488	935.2021	958.6748	995.6159	1035.475	1047.0064	1077.9903	1086.0933	1097.0085	1163.2472	1186.7459	1198.1655	1217.3946	1231.9341	1271.8725	1301.5431	1315.1757	1322.8932	1371.482	1387.5929	1411.3184	1459.959	1464.0579	1477.8906	1498.9138	1528.7364	1896.3885	2958.0488	2983.5549	3013.6452	3019.745	3029.2707	3051.3382	3077.2037	3084.5925	3143.5981	3609.1281	3831.468
OCCCC1CC(=O)N1	OCCC[C@H]1CC(=O)N1	
InChI=1S/C6H11NO2/c8-3-1-2-5-4-6(9)7-5/h5,8H,1-4H2,(H,7,9)	InChI=1S/C6H11NO2/c8-3-1-2-5-4-6(9)7-5/h5,8H,1-4H2,(H,7,9)/t5-/m0/s1
