15
gdb 39582	3.62028	1.66949	1.19716	0.8552	64.66	-0.2653	-0.0049	0.2604	955.2526	0.116295	-453.948266	-453.941947	-453.941003	-453.978997	24.798	
C	-0.0060301944	 1.567587071	-0.0116232194	-0.215078
N	 1.4185772491	 1.9528386262	 0.029790352	-0.25868
C	 2.3294579339	 1.1398242469	-0.2978327215	 0.124364
O	 2.2232602658	-0.1336227989	-0.8272309528	-0.23071
C	 0.8885148126	-0.3539861569	-1.1939974648	 0.242243
O	 0.5455185082	-1.716947166	-1.425674082	-0.247443
C	-0.7793330217	-1.7325043082	-1.0490485116	 0.099638
N	-1.2525025946	-0.7628901144	-0.3755109911	-0.293899
C	-0.0561784446	 0.0533379492	-0.0834954871	 0.023311
H	-0.4868811571	 1.9625508451	 0.88712829	 0.131524
H	-0.4871467692	 2.0466271773	-0.8724609385	 0.126991
H	 3.3795396423	 1.4020223311	-0.201610314	 0.139066
H	 0.6889093038	 0.1983705548	-2.1266816483	 0.095031
H	-1.3231168972	-2.6112415067	-1.3745562284	 0.150118
H	 0.3587666432	-0.3231222105	 0.8647823374	 0.113524
166.3476	193.8321	328.8233	369.867	451.8837	504.7607	558.2162	590.603	618.1094	814.8257	871.6052	893.0132	912.0013	950.5811	958.868	1027.9881	1046.2249	1068.1259	1110.6467	1119.569	1156.8826	1178.9794	1213.2976	1282.7288	1319.8318	1331.2598	1386.247	1396.9747	1408.3126	1427.9901	1495.6679	1658.9928	1714.5943	2974.5479	2992.2193	3046.0934	3094.6005	3184.0589	3228.3962
C1N=COC2OC=NC12	C1N=CO[C@H]2O[CH][N][C@H]12	
InChI=1S/C5H6N2O2/c1-4-5(8-2-6-1)9-3-7-4/h2-5H,1H2	InChI=1S/C5H6N2O2/c1-4-5(8-2-6-1)9-3-7-4/h2-5H,1H2/t4-,5+/m1/s1
