14
gdb 24756	3.67394	1.29921	0.9598	2.6923	78.54	-0.2284	-0.0656	0.1628	1139.3667	0.101185	-399.567827	-399.560219	-399.559275	-399.600269	28.456	
O	 0.0193404282	-0.0478018989	 0.0029451493	-0.32264
C	-0.0064979546	 1.1617898601	 0.0061149426	 0.320262
C	 1.1997662952	 1.9662939492	-0.0000666669	 0.201184
C	 2.2434215339	 2.5631156956	-0.0055667542	-0.377453
N	-1.2034973762	 1.8831621307	 0.0162741765	-0.087287
C	-1.3619058159	 3.2685028928	 0.0208887006	-0.063452
C	-2.6973528446	 3.5354956853	 0.0309059668	-0.177509
C	-3.3931709604	 2.2780951608	 0.0325318802	-0.18528
C	-2.4594813698	 1.2857314555	 0.0234231999	-0.049039
H	 3.1685776022	 3.0870755812	-0.0097652878	 0.21913
H	-0.4997668354	 3.9126614518	 0.0165268294	 0.144258
H	-3.1432184705	 4.5182730957	 0.0365480742	 0.111119
H	-4.4630294995	 2.1358643141	 0.0396378333	 0.112235
H	-2.5338969325	 0.212353096	 0.0211572161	 0.154472
81.1838	141.5315	151.1111	267.7886	276.7181	469.4042	518.135	608.5161	614.5349	668.6938	678.6364	697.2337	715.1074	761.8684	774.9577	852.3735	874.778	885.6513	934.2523	1027.879	1077.3691	1097.3461	1138.8943	1281.7966	1331.2565	1354.9205	1436.5882	1509.5015	1595.8036	1770.1488	2227.0604	3246.131	3258.9705	3293.9923	3301.4627	3493.3638
O=C(C#C)N1C=CC=C1	O=C(C#C)n1cccc1	
InChI=1S/C7H5NO/c1-2-7(9)8-5-3-4-6-8/h1,3-6H	InChI=1S/C7H5NO/c1-2-7(9)8-5-3-4-6-8/h1,3-6H
