16
gdb 127820	4.30932	1.07614	0.8659	11.0498	79.52	-0.2256	-0.0414	0.1842	1281.0589	0.12539	-430.244715	-430.235725	-430.234781	-430.279119	31.277	
C	-0.0655558827	 1.3808621092	-0.0931451868	-0.352243
N	 0.0387778537	-0.0488345704	 0.0941957561	-0.292036
H	-0.3550872933	-0.7002152428	-0.5768698887	 0.289539
C	 0.6648260793	-0.6666483638	 1.1002801847	 0.339202
N	 1.2582157873	 0.063264576	 2.0629359942	-0.564143
C	 0.6875757845	-2.0778682411	 1.0987747415	 0.315464
C	 1.2137507885	-3.0547468613	 1.959895654	-0.193891
N	 0.9233311917	-4.2430072513	 1.4470499707	-0.20691
N	 0.2292480067	-4.0213296269	 0.2892754075	-0.135288
N	 0.0809803747	-2.7467175506	 0.0673020301	-0.307577
H	 0.9217670979	 1.8540719528	-0.1672391858	 0.145884
H	-0.5991837119	 1.5710435055	-1.0245152245	 0.163855
H	-0.6285848721	 1.8603012992	 0.7184178351	 0.142603
H	 1.1548762548	 1.0608249961	 2.1160708171	 0.276112
H	 1.6747662471	-0.4080483384	 2.8461984363	 0.29077
H	 1.7651789537	-2.956850862	 2.8852403286	 0.08866
75.9694	93.8756	108.4367	155.8986	165.4605	216.0288	293.832	416.0757	478.3954	483.9931	650.467	667.5354	710.7644	733.6139	760.7573	841.2082	945.5354	966.5927	1017.4515	1061.3055	1129.3728	1152.131	1179.5782	1190.7719	1253.6519	1277.6008	1358.5342	1428.9083	1452.1482	1489.4416	1499.6817	1515.4823	1577.408	1656.8121	1676.9605	3009.3005	3059.6196	3147.4096	3219.1654	3537.8329	3632.2237	3752.7391
C[NH+]=C(N)C1=CN=N[N-]1	CNC(=[NH2])c1cnnn1	
InChI=1S/C4H6N5/c1-6-4(5)3-2-7-9-8-3/h2H,1H3,(H2-,5,6,7,8,9)/q-1/p+1	InChI=1S/C4H8N5/c1-6-4(5)3-2-7-9-8-3/h2,6H,5H2,1H3,(H,7,8,9)
