19
gdb 6488	3.77971	1.33453	1.2763	3.3059	72.37	-0.2371	0.0345	0.2716	1075.0748	0.163683	-365.091173	-365.081898	-365.080954	-365.125879	33.414	
C	 1.6621210718	 1.1507778981	-2.1163161189	-0.488907
C	 1.4673306134	-0.3590077854	-2.0686471776	 0.401681
O	 2.3321045066	-1.140044471	-2.4187936865	-0.371299
N	 0.2477068402	-0.7669782195	-1.5947766517	-0.366142
C	-0.0658408598	-2.1523716414	-1.3465188122	 0.374382
C	 0.6342355726	-2.7645167015	-0.1489809621	-0.448837
C	-1.4789933188	-2.5620167784	-1.6819284191	-0.325495
C	-0.3323158181	-3.0044124128	-2.5593922382	-0.261323
H	 0.7214950494	 1.7077312831	-2.1462928486	 0.114356
H	 2.2246177344	 1.46933002	-1.2323128542	 0.147627
H	 2.2595985136	 1.3970373226	-2.9954009867	 0.151785
H	-0.3706057062	-0.071740341	-1.2072516883	 0.239871
H	 0.3776976937	-2.2304645178	 0.7732141308	 0.105485
H	 0.3460389408	-3.8124992372	-0.0235786278	 0.112527
H	 1.7176897007	-2.7198329327	-0.2886510325	 0.149356
H	-1.9560316804	-3.2932326913	-1.038576013	 0.114692
H	-2.1482539509	-1.8031248259	-2.073359599	 0.108677
H	-0.2250436126	-2.5358146351	-3.529443779	 0.124133
H	-0.0198391604	-4.0417320026	-2.5211741955	 0.11743
34.6302	71.0419	102.2565	162.9245	240.7539	301.8579	319.301	404.8357	416.143	446.4007	451.3333	600.5911	637.2421	756.7771	776.6566	874.4103	895.7166	941.6408	958.5117	1008.5145	1034.0761	1049.014	1051.752	1073.051	1081.505	1132.3378	1187.4748	1265.1885	1309.6335	1343.9149	1390.837	1411.3932	1460.6588	1467.6737	1482.8314	1486.6456	1498.7824	1508.7199	1516.9877	1783.5703	3031.1853	3045.3098	3098.2857	3112.3457	3121.5286	3131.6483	3146.6667	3148.0615	3215.312	3238.9486	3621.7086
CC(=O)NC1(C)CC1	CC(=O)NC1(C)CC1	
InChI=1S/C6H11NO/c1-5(8)7-6(2)3-4-6/h3-4H2,1-2H3,(H,7,8)	InChI=1S/C6H11NO/c1-5(8)7-6(2)3-4-6/h3-4H2,1-2H3,(H,7,8)
