21
gdb 63680	3.5957	0.7531	0.72155	2.7645	80.46	-0.2479	-0.0286	0.2193	1651.5177	0.178202	-424.214376	-424.203866	-424.202921	-424.250995	37.305	
C	-0.0994712748	 1.4534669654	 0.3681177425	-0.455699
C	 0.0425140567	-0.036114566	 0.1255729599	 0.309099
C	-1.1956670152	-0.7216324779	-0.4180478434	-0.451428
C	 1.397238542	-0.5418948614	-0.3481884868	-0.361796
C	 0.9405912751	-0.8413891477	 1.0453052478	 0.093814
O	 1.6489290635	-0.2197045411	 2.0767966616	-0.249735
C	 0.9465918242	-0.1814047243	 3.2981093441	-0.151852
C	 1.8485230633	 0.4583437841	 4.3387003255	 0.138361
O	 1.5074660544	 0.6806172365	 5.4696386758	-0.237797
H	 0.7894296563	 1.8616269203	 0.8548865687	 0.125981
H	-0.2463795255	 1.9887247179	-0.5768748396	 0.117019
H	-0.9656149347	 1.6703517059	 1.0046741459	 0.112251
H	-1.4673331976	-0.3202503199	-1.401634595	 0.118723
H	-1.0414080341	-1.7993457354	-0.5342720811	 0.112829
H	-2.0543458616	-0.5763187915	 0.2481072034	 0.115124
H	 1.4395106265	-1.3542923839	-1.0658739297	 0.111397
H	 2.1946539548	 0.1877059269	-0.4417381625	 0.121966
H	 0.6325584608	-1.8615801558	 1.2830309887	 0.081969
H	 0.0128740659	 0.3966029247	 3.2265733979	 0.127939
H	 0.6756662066	-1.1935468965	 3.6431791495	 0.124322
H	 2.8647241333	 0.7022808295	 3.9575771868	 0.097515
45.3246	52.1003	98.1475	117.0196	213.0664	228.1914	233.9903	254.0101	329.6102	356.9882	396.3614	422.0003	545.7438	564.1188	711.8521	739.2631	807.7334	877.0926	917.3326	973.9021	984.3043	1017.4831	1049.292	1054.7789	1100.3629	1107.2371	1114.7006	1144.093	1156.1971	1211.3878	1233.0541	1285.2816	1331.4782	1346.4263	1398.9851	1408.1552	1423.0684	1423.6601	1475.5569	1484.2957	1491.4972	1493.8926	1505.4868	1514.4525	1845.0027	2899.5543	2971.2724	3014.2525	3019.3789	3026.5363	3078.1492	3079.1099	3081.5113	3095.2415	3121.7262	3131.3932	3219.3679
CC1(C)CC1OCC=O	CC1(C)C[C@H]1OCC=O	
InChI=1S/C7H12O2/c1-7(2)5-6(7)9-4-3-8/h3,6H,4-5H2,1-2H3	InChI=1S/C7H12O2/c1-7(2)5-6(7)9-4-3-8/h3,6H,4-5H2,1-2H3/t6-/m1/s1
