15
gdb 13247	7.81218	0.90234	0.8434	4.856	65.78	-0.2423	-0.0181	0.2242	1304.7437	0.117236	-399.797464	-399.78942	-399.788476	-399.831686	27.17	
O	-0.2408944757	 0.0735022655	 0.4801314266	-0.241787
C	 0.2391914001	 0.823518844	-0.3280499425	 0.156176
C	 1.0012050981	 2.089368963	 0.0351335242	-0.251288
N	 1.0686378934	 2.9770325373	-1.112666959	-0.346623
C	 1.0809108734	 4.2134131818	-0.9244163506	 0.477176
C	 1.1162733566	 5.437713782	-1.8131866627	-0.373968
C	 1.0699277993	 6.2013680311	-0.4734836513	-0.07676
O	 1.0562993765	 4.9340840656	 0.2558504236	-0.258137
H	 0.1766330954	 0.6391741816	-1.4236261229	 0.088834
H	 0.556231441	 2.535182263	 0.9332932803	 0.140267
H	 2.0178452522	 1.7680192359	 0.3125458057	 0.141295
H	 2.0314380604	 5.5522533117	-2.3962104256	 0.143581
H	 0.2508732857	 5.5554724775	-2.466997962	 0.143758
H	 1.9546630201	 6.7874546565	-0.2155815312	 0.128394
H	 0.1620074334	 6.7749061335	-0.2741312926	 0.129083
29.5533	70.8844	123.8583	151.7966	222.3461	326.6323	417.4339	554.6055	588.6737	699.7825	789.6765	791.3339	908.1234	963.2668	1001.7625	1046.851	1057.6426	1075.5742	1086.5982	1151.8445	1158.6297	1199.6751	1230.962	1244.956	1325.9089	1352.1969	1403.8238	1444.6386	1467.0076	1520.7368	1837.1436	1849.6768	2893.7075	2989.6875	3053.6699	3069.1289	3090.1691	3123.7961	3146.7385
O=CCN=C1CCO1	O=CCN=C1CCO1	
InChI=1S/C5H7NO2/c7-3-2-6-5-1-4-8-5/h3H,1-2,4H2	InChI=1S/C5H7NO2/c7-3-2-6-5-1-4-8-5/h3H,1-2,4H2
