18
gdb 42318	3.21118	1.19716	0.90009	4.1733	80.62	-0.2391	-0.0217	0.2174	1272.0895	0.148234	-401.955589	-401.946848	-401.945904	-401.989628	31.942	
O	-0.0367922401	-0.0329975106	 0.1497461482	-0.377909
C	-0.0598626458	 1.1871267637	 0.0801057819	 0.282308
C	 1.1643902683	 1.9794428649	 0.1218941061	 0.203758
C	 2.2067318444	 2.5780055746	 0.1658387776	-0.404486
N	-1.2081457625	 1.9024377289	-0.0385326594	-0.093834
C	-1.3305791307	 3.3610297309	-0.1369822814	-0.159447
C	-2.7831931602	 3.555350249	-0.5964748352	-0.218838
C	-3.5167320797	 2.3666478785	 0.047747545	-0.227427
C	-2.5050206593	 1.218105561	-0.0723916097	-0.149345
H	 3.1341851355	 3.095198963	 0.20577717	 0.205305
H	-1.1573635041	 3.8341440002	 0.8390105696	 0.114954
H	-0.5988757827	 3.7700207103	-0.8375986514	 0.127311
H	-3.1851188765	 4.526906266	-0.3007780644	 0.109248
H	-2.8398048674	 3.4864305347	-1.688195755	 0.113851
H	-3.7203781078	 2.5783955501	 1.1030719569	 0.112267
H	-4.4687088449	 2.1343488897	-0.4343067976	 0.110446
H	-2.6167093243	 0.6689459689	-1.01603222	 0.119768
H	-2.5682413622	 0.4847573163	 0.7353652189	 0.132071
54.7609	99.632	132.5062	193.0675	247.4333	258.3965	302.7447	439.7879	517.5431	576.3891	645.0193	654.7266	674.818	756.9866	761.6458	861.8703	878.998	921.1483	927.2724	968.6432	1004.547	1052.1744	1145.9766	1185.4354	1193.3248	1219.0578	1247.8051	1274.4099	1322.8455	1346.6509	1367.8652	1375.0988	1423.3724	1490.2205	1497.591	1517.9813	1529.2831	1727.7521	2222.3535	3011.4489	3026.1719	3048.0298	3053.693	3094.1096	3094.9211	3108.4902	3116.4182	3496.7161
O=C(C#C)N1CCCC1	O=C(C#C)N1CCCC1	
InChI=1S/C7H9NO/c1-2-7(9)8-5-3-4-6-8/h1H,3-6H2	InChI=1S/C7H9NO/c1-2-7(9)8-5-3-4-6-8/h1H,3-6H2
