16
gdb 30894	2.39375	1.33697	0.89117	1.5912	70.05	-0.1743	0.0422	0.2166	1248.9962	0.125191	-471.236631	-471.227562	-471.226618	-471.270846	33.16	
N	 0.07520934	 1.3868887577	-0.0863974901	-0.599182
C	-0.027038263	-0.0065776808	-0.0473122267	 0.192678
C	-1.1356789104	-0.7938253719	 0.1359238574	 0.269592
C	-2.5717718028	-0.5113608081	 0.3345090423	-0.224551
O	-3.3348061666	-1.2372659712	-0.6388003456	-0.424983
N	-0.6242314702	-2.1058095403	 0.1955761185	-0.359047
C	 0.705691284	-2.0057724544	 0.0139676592	 0.442626
O	 1.4702560882	-3.1093542656	-0.0274646896	-0.424872
N	 1.1241803529	-0.7710594657	-0.115627763	-0.415387
H	 0.9521001758	 1.6629784058	-0.5096711433	 0.24763
H	-0.6960962709	 1.831887807	-0.5665298645	 0.241826
H	-2.9013377652	-0.8023138305	 1.3471103774	 0.092592
H	-2.7323079367	 0.5742540344	 0.2493360655	 0.093887
H	-4.263456956	-1.1687465115	-0.3926763982	 0.282113
H	-1.1699395896	-2.9489113909	 0.1424326551	 0.272427
H	 2.3733879205	-2.8038581141	-0.1789104943	 0.312654
43.0499	118.3031	190.814	229.536	260.9292	288.2748	313.3224	338.6917	404.5538	420.1192	476.7057	550.3354	639.7689	647.8592	693.9698	725.0219	778.7521	839.1597	995.802	1017.4064	1053.366	1103.3626	1183.6007	1202.1538	1222.9482	1259.8893	1283.565	1349.4461	1430.0178	1468.1224	1511.4399	1573.4414	1618.6713	1639.9746	1681.6645	2942.0277	2997.524	3538.4062	3633.5044	3675.8024	3803.8778	3807.1577
NC1=C(CO)NC(O)=N1	Nc1c(CO)[nH]c(O)n1	
InChI=1S/C4H7N3O2/c5-3-2(1-8)6-4(9)7-3/h8H,1,5H2,(H2,6,7,9)	InChI=1S/C4H7N3O2/c5-3-2(1-8)6-4(9)7-3/h8H,1,5H2,(H2,6,7,9)
