19
gdb 83446	2.83518	1.15544	1.01924	1.3092	80.55	-0.2337	0.0452	0.2789	1247.6328	0.157272	-385.811608	-385.802533	-385.801589	-385.84574	34.009	
C	 0.0122511571	 1.578723409	 0.106327447	-0.424773
C	 0.0527928734	 0.0682283166	 0.1637226938	-0.069781
C	 1.2633658396	-0.7455516449	-0.1997624408	 0.015027
O	 2.4709168802	-0.0626846304	 0.1497613942	-0.284727
C	 2.1058936255	-0.1126583887	 1.5557302203	-0.134036
C	 0.7594780231	-0.7553775721	 1.2294247648	 0.270472
C	 0.0890156942	-1.8222893094	 2.0614861351	-0.474756
C	-0.5354662283	-1.2846073578	 3.2696147681	 0.31323
C	-1.0317428028	-0.8191739438	 4.2603205653	-0.455796
H	 1.014207153	 1.9999133668	 0.2174579329	 0.136998
H	-0.3790794715	 1.9139781016	-0.8598337101	 0.117923
H	-0.6295558274	 1.9913344127	 0.8913983925	 0.121448
H	-0.8688766641	-0.424145116	-0.1455388099	 0.086666
H	 1.3201645098	-1.5041198763	-0.973382351	 0.101579
H	 2.7803552858	-0.7847882322	 2.099821974	 0.107596
H	 2.1091568419	 0.8752486937	 2.0289980887	 0.110477
H	-0.6689170583	-2.3349702543	 1.4554170749	 0.13256
H	 0.8219959668	-2.5904071417	 2.3444855687	 0.132333
H	-1.4763245879	-0.4161406028	 5.1362435014	 0.197559
49.7967	92.9779	171.061	220.9393	256.9265	271.5181	301.375	346.8933	429.4103	449.9073	594.2852	621.8486	641.5234	706.9051	761.3485	789.8798	893.3465	921.5763	941.9264	953.0919	992.4073	1009.3091	1015.0408	1074.7083	1082.8655	1113.4816	1129.8812	1156.8112	1196.9116	1261.4861	1267.0282	1321.7571	1336.6921	1353.7966	1411.6676	1461.1803	1469.9589	1494.5941	1503.0651	1520.8447	2238.0067	3009.422	3024.0173	3038.7543	3044.5783	3075.0054	3098.0581	3113.4442	3128.8133	3168.8293	3505.6894
CC1C2OCC12CC#C	C[C@H]1[C@H]2OC[C@@]12CC#C	
InChI=1S/C8H10O/c1-3-4-8-5-9-7(8)6(8)2/h1,6-7H,4-5H2,2H3	InChI=1S/C8H10O/c1-3-4-8-5-9-7(8)6(8)2/h1,6-7H,4-5H2,2H3/t6-,7+,8-/m0/s1
