19
gdb 35125	5.20718	0.84227	0.82075	1.4298	81.77	-0.256	0.0514	0.3074	1428.9828	0.158358	-385.820882	-385.812167	-385.811223	-385.8548	32.801	
C	-0.3062695398	-1.1691212174	-0.1242378925	-0.489567
C	-0.0655188335	 0.0092152581	-0.0929103169	 0.340842
C	 0.2343705945	 1.4278978542	-0.0381851917	-0.182198
C	-0.1144005276	 2.1045087786	 1.3310984084	-0.244535
C	 1.3821018178	 1.9835312622	 1.741618857	 0.010296
C	 1.7396162972	 1.7551944138	 0.2492239558	-0.252197
C	 1.9970478301	 3.1477180261	 2.4675969639	 0.064762
C	 3.3345336987	 3.6677735176	 2.1584400193	-0.182316
O	 2.1612600435	 4.3599294072	 1.722661726	-0.234515
H	-0.5248984888	-2.2072989597	-0.1627112199	 0.194966
H	-0.1835514623	 1.9275958749	-0.916512031	 0.103397
H	-0.401864637	 3.1486685903	 1.1840524606	 0.118378
H	-0.8575578105	 1.6031123141	 1.9524370367	 0.110905
H	 1.5439201941	 1.0726516969	 2.3276348645	 0.086733
H	 2.4657503001	 0.9773904136	 0.0097991673	 0.108691
H	 2.0252417348	 2.6948201711	-0.2293101059	 0.122175
H	 1.6195122721	 3.3092857763	 3.4797930304	 0.091669
H	 3.9146614225	 4.1708303127	 2.9306105133	 0.116576
H	 3.9203528043	 3.2037539193	 1.3661859145	 0.115939
59.1667	86.5062	145.8396	182.7233	228.9051	277.4897	419.9283	473.4561	533.3809	570.0826	615.4495	622.5554	656.8786	803.5308	809.5386	820.8652	881.1911	910.8843	932.8686	955.2323	990.039	1029.1	1072.9687	1091.8564	1120.8553	1129.089	1163.5194	1173.1973	1191.7115	1206.4689	1257.4621	1269.6802	1272.77	1295.658	1342.9434	1379.2068	1431.0042	1470.7517	1493.1035	1529.6054	2230.9845	3053.6502	3061.2603	3069.9388	3076.7365	3083.5835	3088.5432	3134.1221	3138.172	3171.5313	3505.3126
C#CC1CC(C1)C1CO1	C#C[C@H]1C[C@@H](C1)[C@H]1CO1	
InChI=1S/C8H10O/c1-2-6-3-7(4-6)8-5-9-8/h1,6-8H,3-5H2	InChI=1S/C8H10O/c1-2-6-3-7(4-6)8-5-9-8/h1,6-8H,3-5H2/t6-,7-,8-/m1/s1
