17
gdb 125920	4.41927	1.16463	0.95868	2.6875	76.52	-0.2109	0.0276	0.2384	1209.5946	0.137496	-418.002289	-417.994477	-417.993533	-418.034692	29.943	
C	-0.447098767	 1.6240334775	-0.2713662959	-0.40471
C	 0.1452073093	 0.2626709779	 0.0340699782	 0.068843
C	 0.7863480886	-0.5880540853	-1.1406818739	-0.390324
C	 2.0433723023	-0.586095172	-0.2866618118	 0.371456
C	 3.2016301263	-1.0993390819	 0.2574272212	-0.47359
C	 3.2274389995	-0.4647274004	 1.5357385685	 0.44134
O	 4.2221690015	-0.6116514507	 2.4348409786	-0.423455
N	 2.1797564122	 0.3252696959	 1.7896184202	-0.407625
N	 1.5108718041	 0.2627887775	 0.6101227114	 0.053201
H	 0.2413853759	 2.2207748033	-0.8768667368	 0.12884
H	-1.388370768	 1.5113854467	-0.8192469083	 0.124161
H	-0.6559622433	 2.1713115907	 0.6528293192	 0.139174
H	-0.5405185014	-0.3444519004	 0.6351433377	 0.105132
H	 0.3235687978	-1.5655043521	-1.2924105818	 0.130389
H	 0.8504279602	-0.0642603547	-2.0979226305	 0.124462
H	 3.9266236908	-1.7861291031	-0.1431005024	 0.109383
H	 3.9853629712	-0.0766156989	 3.2029823466	 0.303325
72.2338	175.351	212.3925	254.693	332.6953	377.3818	409.4414	422.8998	531.9879	604.5482	653.1643	714.2184	729.2776	771.3816	807.3835	882.6865	913.4893	987.4456	1032.5571	1063.3806	1088.7656	1108.3039	1151.0483	1176.5052	1213.2773	1223.5461	1250.732	1302.4594	1368.7097	1409.3999	1446.1789	1464.0902	1485.9542	1494.6051	1496.0115	1534.9685	1600.0957	3038.8706	3051.0096	3067.3165	3112.0762	3118.414	3122.6041	3286.8765	3793.2237
CC1CC2=CC(O)=NN12	C[C@H]1Cc2cc(O)nn12	
InChI=1S/C6H8N2O/c1-4-2-5-3-6(9)7-8(4)5/h3-4H,2H2,1H3,(H,7,9)	InChI=1S/C6H8N2O/c1-4-2-5-3-6(9)7-8(4)5/h3-4H,2H2,1H3,(H,7,9)/t4-/m0/s1
