19
gdb 105640	1.82167	1.5685	1.39271	4.3413	75.9	-0.2418	0.0175	0.2592	1103.4673	0.158753	-419.189031	-419.179556	-419.178612	-419.223449	34.417	
C	 0.0503822228	 1.5309080829	-0.0155494666	-0.344112
N	 0.1035082785	 0.0842788052	 0.1228203125	-0.114142
C	-1.168454247	-0.6444532768	 0.3211965432	-0.158676
C	-0.4703326247	-1.5694722674	 1.3437078413	-0.295057
C	 0.7051434334	-0.5392127817	 1.335375687	 0.142056
C	 2.1178749414	-1.0805447073	 1.0529243522	-0.109826
O	 2.951645213	-0.0821870017	 0.5101055804	-0.410241
C	 0.69617023	 0.3294641912	 2.5221692094	 0.261071
N	 0.6662369584	 1.0248457017	 3.4457181302	-0.3458
H	 1.0630256184	 1.94207083	 0.003520947	 0.136324
H	-0.4054557086	 1.7768825742	-0.9800039307	 0.125636
H	-0.5311076234	 2.0224493368	 0.7814352809	 0.123612
H	-1.9514606847	-0.0252842568	 0.7829539795	 0.107673
H	-1.5710533278	-1.1022235327	-0.5875547958	 0.112247
H	-0.9740974846	-1.7152204295	 2.2974626804	 0.133684
H	-0.1669308154	-2.5355357818	 0.9368182783	 0.120591
H	 2.5896993641	-1.4298600559	 1.9764375211	 0.126941
H	 2.0147063471	-1.9353967243	 0.3693085309	 0.093727
H	 2.579939639	 0.1380834537	-0.3520939912	 0.294293
66.1576	98.7915	140.2999	171.0555	209.1427	230.4474	292.0202	329.5727	394.8718	437.5603	472.3477	524.6061	602.4394	683.2868	712.7178	780.699	876.2662	962.9553	967.4069	985.5202	1032.0913	1072.155	1122.1479	1137.0461	1165.6201	1186.0525	1206.208	1227.2422	1236.9319	1269.0998	1283.4689	1331.2351	1393.3206	1413.5128	1449.5769	1484.758	1491.2268	1493.3096	1506.1664	1525.1747	2342.2854	2976.9977	2997.8869	3001.4074	3071.1821	3072.7025	3090.1491	3091.675	3119.1968	3159.0896	3797.5012
CN1CCC1(CO)C#N	CN1CC[C@]1(CO)C#N	
InChI=1S/C6H10N2O/c1-8-3-2-6(8,4-7)5-9/h9H,2-3,5H2,1H3	InChI=1S/C6H10N2O/c1-8-3-2-6(8,4-7)5-9/h9H,2-3,5H2,1H3/t6-/m1/s1
