16
gdb 56404	4.04573	0.67371	0.61151	3.218	80.96	-0.2508	-0.0037	0.2471	1772.4838	0.124546	-396.86547	-396.856042	-396.855098	-396.90195	32.647	
N	-0.5780097479	 1.0294405902	 0.2079584247	-0.485588
C	 0.2006783934	-0.1582894936	-0.166092358	-0.299074
C	 1.2082892306	 0.108151509	-1.2267119919	 0.27482
N	 1.9549536161	 0.3686555745	-2.0696167749	-0.320482
C	 0.8521723796	-0.7523517506	 1.0018252661	 0.11888
C	 1.3924823884	-1.2315353354	 1.9656285187	 0.109546
C	 2.0370162529	-1.8244143094	 3.1022894852	-0.161594
C	 1.4326341896	-1.6659117504	 4.461061309	-0.225307
N	 1.4066508233	-2.9717932409	 3.8004603564	-0.302282
H	 0.0456139215	 1.7304447257	 0.5981488246	 0.248934
H	-0.9957317664	 1.4344778852	-0.625702352	 0.247359
H	-0.5065010301	-0.8876475775	-0.5849433807	 0.162118
H	 3.1179045592	-1.9088764475	 3.0284073229	 0.127507
H	 2.0918688219	-1.5983043397	 5.3215031863	 0.131778
H	 0.5145022882	-1.0908703929	 4.5341568596	 0.12989
H	 0.4862430797	-3.1369816866	 3.399597314	 0.243495
15.4259	68.6557	101.2122	144.8939	217.2044	228.6182	282.7355	349.103	426.5762	509.4527	537.805	561.3081	607.353	742.8152	813.8027	835.6158	879.2941	944.4777	961.8704	992.1704	1050.3626	1110.302	1124.1062	1160.2687	1193.1044	1220.2951	1256.2848	1297.0558	1316.543	1384.0963	1402.3976	1505.3123	1655.0709	2349.3936	2367.2078	3017.0106	3116.7864	3144.2187	3208.2506	3489.9921	3505.5641	3575.5771
NC(C#N)C#CC1CN1	N[C@@H](C#N)C#C[C@H]1CN1	
InChI=1S/C6H7N3/c7-3-5(8)1-2-6-4-9-6/h5-6,9H,4,8H2	InChI=1S/C6H7N3/c7-3-5(8)1-2-6-4-9-6/h5-6,9H,4,8H2/t5-,6+/m1/s1
