16
gdb 49682	2.60391	1.33564	1.16313	4.3575	70.36	-0.2303	-0.0398	0.1906	1092.4763	0.124383	-437.88824	-437.880357	-437.879413	-437.921242	29.191	
O	-0.0896461552	 0.147376861	-0.7859646283	-0.263669
C	-0.0908076158	 1.2256284719	-0.2453518595	 0.170043
C	 1.1199971803	 2.0811389228	-0.1586808592	-0.131421
C	 1.0914104991	 3.5842450586	-0.2910063682	-0.027618
N	-0.2098547124	 4.23581308	-0.260025269	-0.308238
C	-0.7485033367	 4.1469627714	 1.1039070955	-0.293519
C	 0.2866629031	 3.3856723913	 1.9542473405	 0.396559
O	 0.2145967105	 3.2108440846	 3.1430830087	-0.31227
C	 1.423343742	 2.9995311645	 1.0550054589	-0.205664
H	-1.0155914953	 1.6305112644	 0.214689238	 0.084493
H	 2.0033879316	 1.5932170477	-0.5578214257	 0.123344
H	 1.8340256422	 4.0435684257	-0.9323143889	 0.117327
H	-0.1091691918	 5.199436865	-0.5469187769	 0.238222
H	-0.9114134382	 5.132016354	 1.5547802519	 0.139178
H	-1.7089531548	 3.6174437439	 1.1394603492	 0.1462
H	 2.4103660414	 2.9221624232	 1.4920414731	 0.127033
73.9585	123.7213	142.123	186.8099	304.993	431.024	442.0712	518.2233	575.8957	602.3423	682.447	745.3149	763.4704	802.1567	855.7825	951.2385	965.4172	991.4229	1021.8992	1031.0685	1038.6294	1102.3275	1135.932	1180.8762	1197.8247	1216.2246	1284.8323	1295.8824	1336.7739	1387.1226	1448.3251	1464.413	1480.5489	1814.1798	1840.1873	2920.0743	3028.8898	3070.113	3171.9291	3186.4513	3204.4286	3580.6762
O=CC1C2NCC(=O)C12	O=C[C@H]1[C@H]2NCC(=O)[C@@H]12	
InChI=1S/C6H7NO2/c8-2-3-5-4(9)1-7-6(3)5/h2-3,5-7H,1H2	InChI=1S/C6H7NO2/c8-2-3-5-4(9)1-7-6(3)5/h2-3,5-7H,1H2/t3-,5-,6-/m1/s1
