21
gdb 104691	2.49984	1.41519	1.13018	2.1043	78.14	-0.2483	0.0737	0.322	1176.3428	0.181828	-424.177779	-424.168469	-424.167525	-424.211772	34.949	
C	-1.5288967464	-0.728823446	-0.4350194084	-0.25733
O	-0.2026059177	-0.2925123867	-0.1785877898	-0.299702
C	 0.7562498793	-0.7568312843	-1.1022891336	 0.401829
C	 0.680815251	-0.0200432979	-2.4251392019	-0.115284
O	 0.7914857573	 1.3788327648	-2.2372588222	-0.426866
C	 2.1244935397	-1.0579531104	-0.5906913772	-0.117123
C	 2.0730461233	-1.660770477	 0.8169396101	-0.234486
C	 1.1542970872	-2.80472948	 0.2847128783	-0.237953
C	 1.2021306604	-2.1887709188	-1.1220860472	-0.144312
H	-1.9572911811	-0.2561757827	-1.3292515083	 0.115187
H	-1.5747005807	-1.8179793204	-0.5613701975	 0.118216
H	-2.1289434433	-0.44183407	 0.4318244857	 0.128682
H	 1.5042129261	-0.3330433598	-3.0753014639	 0.105782
H	-0.257057246	-0.2749651647	-2.946061387	 0.083581
H	 0.2914306112	 1.5765589107	-1.4359111976	 0.287271
H	 2.9951226468	-0.6052348898	-1.0513837458	 0.093789
H	 3.0442435125	-2.0316540493	 1.1502941464	 0.102
H	 1.6513768706	-1.0140306914	 1.5894720285	 0.110073
H	 1.6464677148	-3.7786581206	 0.3218903442	 0.104963
H	 0.1656503189	-2.896925464	 0.7427130687	 0.099126
H	 1.2659542759	-2.7518709517	-2.0473191214	 0.082558
83.0407	127.4145	150.4542	156.6007	198.1493	256.6442	297.2114	346.4445	391.825	415.4478	512.9898	595.8363	696.152	772.9841	780.8564	825.8197	874.6315	938.2963	951.7826	983.0546	1012.7991	1020.8736	1050.2122	1067.7428	1078.3784	1106.3476	1117.8788	1179.3608	1180.8027	1204.333	1226.4191	1228.3523	1263.1184	1264.6956	1281.6292	1288.2824	1358.8767	1418.0685	1443.5074	1474.6881	1477.4932	1487.7981	1499.3687	1509.3704	1516.8108	2964.1554	3002.4338	3057.1996	3060.688	3071.0318	3072.4314	3106.0248	3118.0855	3126.4745	3161.0955	3178.4394	3782.4586
COC1(CO)C2CCC12	CO[C@@]1(CO)[C@H]2CC[C@@H]12	
InChI=1S/C7H12O2/c1-9-7(4-8)5-2-3-6(5)7/h5-6,8H,2-4H2,1H3	InChI=1S/C7H12O2/c1-9-7(4-8)5-2-3-6(5)7/h5-6,8H,2-4H2,1H3/t5-,6+,7-
