18
gdb 88038	2.41617	1.3391	1.04783	0.7055	78.5	-0.2405	0.0288	0.2693	1206.9267	0.145543	-401.868534	-401.859534	-401.858589	-401.902285	33.637	
C	-0.0086633526	 1.5673665778	-0.1268915317	-0.418914
C	-0.0032280542	 0.0695641248	 0.0165091159	-0.00982
O	 1.2827812399	-0.591762652	-0.0839590865	-0.289361
C	 0.6107677269	-0.6187609634	 1.1481239346	 0.407377
C	 1.1468783295	-0.1000843463	 2.4817401525	-0.263479
N	 0.3554708114	-1.1635614242	 3.1579004588	-0.314668
C	 0.1692530129	-1.9087501236	 1.8753731359	-0.274977
C	-1.155021214	-2.4515190656	 1.6278819176	 0.358797
C	-2.2452427113	-2.9019697312	 1.3951077004	-0.441338
H	 0.8095733927	 2.0196515414	 0.439404631	 0.127416
H	 0.102754107	 1.8535981515	-1.1776795017	 0.132302
H	-0.9565623539	 1.979279426	 0.2356165441	 0.129639
H	-0.7994329193	-0.4624382774	-0.5051748297	 0.106577
H	 2.23745304	-0.2145039322	 2.5484810445	 0.107484
H	 0.8745255466	 0.9172093943	 2.7808874833	 0.115207
H	 0.861299926	-1.6864400177	 3.8639305706	 0.226179
H	 0.9262620264	-2.6897971665	 1.7074534935	 0.103842
H	-3.2110117342	-3.2989824658	 1.201632127	 0.197738
88.907	102.139	163.2309	184.0459	204.7281	256.1195	342.8541	429.8268	454.2811	508.882	565.7084	572.4516	618.0958	659.2303	694.6862	802.2897	857.0852	890.6855	964.5571	978.1355	999.426	1031.7477	1073.514	1101.2591	1120.8505	1129.9203	1138.4111	1199.5063	1218.5239	1305.2273	1344.769	1365.8021	1378.936	1409.935	1474.5851	1490.516	1510.8349	1536.3065	2234.4209	2986.9071	3010.2058	3038.4297	3069.2757	3103.8277	3106.6986	3127.8681	3502.7647	3537.6546
CC1OC11CNC1C#C	C[C@H]1O[C@]21CN[C@H]2C#C	
InChI=1S/C7H9NO/c1-3-6-7(4-8-6)5(2)9-7/h1,5-6,8H,4H2,2H3	InChI=1S/C7H9NO/c1-3-6-7(4-8-6)5(2)9-7/h1,5-6,8H,4H2,2H3/t5-,6+,7+/m1/s1
