24
gdb 100982	2.071	1.24082	1.11933	1.3114	86.32	-0.2382	0.0751	0.3133	1324.3999	0.214615	-405.520143	-405.508987	-405.508043	-405.55621	40.712	
C	 0.762416309	 1.7087245329	-1.1118929742	-0.231755
O	 0.0528803154	 0.502642692	-1.2637482466	-0.249293
C	 0.8002376413	-0.6764066621	-0.964780119	 0.066706
C	 1.0508371532	-0.8734607214	 0.5309149233	-0.403311
C	 0.0678317294	-1.828018329	-1.6672011618	 0.320877
C	 0.6113817386	-2.1066224538	-3.0563425577	-0.479402
N	-0.339780426	-2.9742798408	-0.8329624399	-0.375829
C	-1.3773067406	-2.1174293456	-1.4368554093	-0.00877
C	-2.3188286715	-1.3616387105	-0.5302588974	-0.397047
H	 1.0061341874	 1.9322394057	-0.0631650836	 0.107086
H	 1.7021264101	 1.7034274221	-1.6876777139	 0.099438
H	 0.1223756024	 2.5085000533	-1.4941269509	 0.123866
H	 1.7879959841	-0.5788829668	-1.4490808417	 0.056536
H	 1.6174288765	-1.7939948647	 0.6902246093	 0.126038
H	 1.6324245625	-0.0394175702	 0.9350184432	 0.104056
H	 0.1220908728	-0.9590602318	 1.0961779904	 0.132203
H	 1.6503725606	-2.4555595693	-3.0105202736	 0.115564
H	 0.0200323398	-2.8691075155	-3.573702533	 0.108014
H	 0.5928834767	-1.1951824069	-3.6636838991	 0.132112
H	-0.2382424508	-3.8428757773	-1.3524463676	 0.2215
H	-1.8801858234	-2.5292767504	-2.3132094822	 0.072593
H	-1.8170023496	-0.9649248479	 0.3514014685	 0.128109
H	-2.7652026399	-0.519873012	-1.0680601039	 0.12227
H	-3.126445078	-2.0220071101	-0.1942561094	 0.108438
56.9725	84.3387	133.4165	162.167	194.837	205.8918	218.2251	251.4289	271.6619	298.423	322.3763	375.6889	450.6132	470.1622	501.0959	573.0725	715.7584	785.3637	849.0472	875.6917	941.1352	977.2395	1019.0291	1040.0908	1052.5139	1066.7185	1108.9264	1115.3588	1140.916	1146.2813	1159.0096	1181.6868	1221.2737	1245.135	1276.8551	1362.4595	1381.9668	1398.3641	1406.3767	1409.5422	1417.8917	1466.1503	1474.8457	1477.8696	1483.8952	1488.1948	1490.0045	1496.242	1502.0424	1507.8727	1512.3539	2935.5932	2971.682	3020.0777	3022.7345	3039.3902	3055.7439	3082.8198	3087.4914	3100.5079	3102.0027	3105.2675	3122.3394	3146.2876	3159.8781	3489.0235
COC(C)C1(C)NC1C	CO[C@@H](C)[C@@]1(C)N[C@H]1C	
InChI=1S/C7H15NO/c1-5-7(3,8-5)6(2)9-4/h5-6,8H,1-4H3	InChI=1S/C7H15NO/c1-5-7(3,8-5)6(2)9-4/h5-6,8H,1-4H3/t5-,6-,7-/m0/s1
