14
gdb 48977	3.54683	1.6095	1.24577	1.3438	68.23	-0.2399	-0.0765	0.1635	939.8618	0.098181	-436.547728	-436.540423	-436.539479	-436.579437	27.485	
O	-0.2923902335	 0.4764251699	-0.7316855831	-0.273574
C	 0.1971947946	 1.0264131996	 0.231597755	 0.05225
C	 1.2352980663	 2.065276228	 0.1421388169	 0.155724
C	 1.6330740598	 3.0321429168	 1.289988971	-0.239217
N	 2.8749379427	 3.6880627746	 0.7480043714	-0.209539
C	 2.7875087575	 3.4131493143	-0.4802662486	 0.261913
O	 3.629055844	 2.4362379675	-1.078213729	-0.250405
C	 2.3757022634	 1.7004866059	-1.1189135585	 0.08235
C	 1.4838505494	 2.8339033887	-1.1156284167	-0.235393
H	-0.0962344353	 0.7419588983	 1.2665965607	 0.082823
H	 0.8131186892	 3.7202693469	 1.5438659181	 0.125187
H	 1.9523570309	 2.5269770723	 2.2063831601	 0.143852
H	 2.3663458753	 0.7237918712	-1.5849432141	 0.167002
H	 0.7980965559	 3.250386976	-1.8424369431	 0.137027
115.3519	175.9103	199.3777	242.7489	349.6348	392.758	432.0643	537.9911	607.5317	684.5853	732.9847	805.5522	819.6457	860.2988	930.6157	952.2661	973.8662	1008.7981	1024.4048	1048.931	1103.3232	1141.8253	1166.6854	1187.3044	1226.6671	1302.1259	1371.6457	1426.1217	1482.7722	1633.9808	1777.654	2884.0979	2994.6013	3084.5922	3193.2979	3224.4211
O=CC12CN=C3OC1C23	O=C[C@@]12C[N][C]3O[C@@H]1[C@@H]23	
InChI=1S/C6H5NO2/c8-2-6-1-7-5-3(6)4(6)9-5/h2-4H,1H2	InChI=1S/C6H5NO2/c8-2-6-1-7-5-3(6)4(6)9-5/h2-4H,1H2/t3-,4-,6-/m1/s1
