18
gdb 86844	3.59618	1.06696	0.85881	3.1953	79.8	-0.2405	0.0282	0.2687	1324.08	0.147495	-401.964967	-401.955978	-401.955034	-401.998824	32.949	
C	-0.0447390596	 1.4220149865	 0.0082774158	-0.344683
N	-0.013870004	-0.0180458783	-0.0950718794	-0.071215
C	-1.2021835286	-0.8340949674	 0.0535472034	-0.175565
C	-0.7159982684	-2.2458855334	-0.3793209551	-0.189867
C	 0.7910058206	-2.2134517472	-0.0366013333	-0.341986
C	 1.1592575686	-0.7309695532	-0.1055088316	 0.398063
O	 2.2751164631	-0.2568427552	-0.1413511844	-0.390655
C	-1.4679078351	-3.3344434829	 0.2229774006	 0.308817
C	-2.0871928811	-4.2292357382	 0.7333536592	-0.441699
H	 0.98046287	 1.7805548992	-0.0984584683	 0.167275
H	-0.6687900717	 1.8594863705	-0.7797360719	 0.124189
H	-0.4394374514	 1.7463662076	 0.9802687526	 0.123583
H	-1.5645342592	-0.8427217586	 1.0918638709	 0.116094
H	-2.0170998178	-0.4708926566	-0.5815961909	 0.119162
H	-0.8139983646	-2.3067483262	-1.4698315483	 0.119127
H	 0.9742200268	-2.5686672679	 0.9830744872	 0.14037
H	 1.4098626678	-2.805208325	-0.7118409163	 0.139251
H	-2.6331078954	-5.0242060036	 1.1779912495	 0.19974
77.8284	130.4124	153.3526	164.2122	193.8539	251.6185	304.5119	429.2769	464.0204	529.1564	546.5025	612.7485	634.8142	642.7897	660.9794	776.9259	865.1974	927.5849	1009.5797	1040.4901	1056.905	1070.977	1139.243	1154.265	1176.1957	1227.1999	1265.4385	1279.7275	1309.9495	1317.5694	1365.7324	1428.5062	1449.8514	1470.6299	1493.2274	1511.4943	1540.8777	1811.8864	2240.5451	2998.7734	3012.4154	3032.2749	3063.0383	3064.3351	3065.6727	3132.5137	3143.909	3503.905
CN1CC(CC1=O)C#C	CN1C[C@@H](CC1=O)C#C	
InChI=1S/C7H9NO/c1-3-6-4-7(9)8(2)5-6/h1,6H,4-5H2,2H3	InChI=1S/C7H9NO/c1-3-6-4-7(9)8(2)5-6/h1,6H,4-5H2,2H3/t6-/m1/s1
