16
gdb 30967	2.5529	1.36076	0.92946	3.6188	70.32	-0.178	0.0498	0.2278	1226.1172	0.124296	-471.207701	-471.198738	-471.197794	-471.241518	32.775	
C	 0.2348473267	 1.2351622854	-0.3245246164	-0.330753
N	-0.3959899546	 0.1311581616	 0.4148504902	-0.397646
C	 0.4599881183	-0.6562586529	 1.1826644351	 0.203448
C	 0.8734266832	-1.923634412	 1.0730063539	 0.268066
O	 0.7117576814	-2.8353607671	 0.0982069471	-0.423317
O	 1.6753323663	-2.2678682233	 2.1614499829	-0.244075
C	 1.7554894714	-1.1593078603	 2.9862614705	 0.465801
N	 2.3251752179	-1.0888231677	 4.1149329936	-0.598364
N	 1.0864656687	-0.1371122565	 2.336797673	-0.373275
H	 0.9796549163	 0.8982163691	-1.0600291297	 0.119991
H	-0.5431783043	 1.8051245205	-0.8383230128	 0.127178
H	 0.7342362041	 1.9041208183	 0.380860474	 0.138421
H	-0.9311412394	-0.4605773777	-0.2085249818	 0.242275
H	 0.3314153174	-3.6417906816	 0.4716253494	 0.308456
H	 2.7425961656	-1.9821015776	 4.3620084191	 0.222996
H	 0.6980571211	 0.6228932217	 2.8709126419	 0.270799
70.3602	126.0205	168.9024	198.8754	247.803	262.42	314.4476	363.0153	415.958	432.1667	560.3068	631.1511	647.8296	671.2259	716.8987	738.6806	753.9131	855.5602	957.2832	1013.0486	1069.8315	1084.3861	1149.5159	1156.2855	1262.2781	1292.4206	1305.0589	1351.5084	1433.7345	1472.6582	1483.0271	1491.968	1518.4584	1778.9927	1838.6391	2999.0002	3090.6984	3127.9464	3540.1261	3565.011	3660.007	3742.0226
CNC1=C(O)OC(=N)N1	CNC1=C(O)O[C@H]([NH])N1	
InChI=1S/C4H7N3O2/c1-6-2-3(8)9-4(5)7-2/h6,8H,1H3,(H2,5,7)	InChI=1S/C4H8N3O2/c1-6-2-3(8)9-4(5)7-2/h4-8H,1H3/t4-/m1/s1
