21
gdb 58615	2.22832	1.38249	1.07185	2.1676	78.81	-0.2422	-0.0115	0.2307	1224.7006	0.179645	-424.236122	-424.225922	-424.224978	-424.27104	38.036	
C	 0.8974478005	 0.1313211544	-1.1289169858	-0.411614
C	-0.0466088937	 0.0351222802	 0.0725490036	 0.025128
O	-1.2681238329	-0.5921393276	-0.3070077015	-0.429896
C	 0.6142084549	-0.6606201575	 1.2709574482	 0.237889
C	-0.2624387891	-1.5136158404	 2.1898698845	-0.291146
C	 0.7215099886	-2.1685664626	 1.2731863689	-0.302756
C	 1.6944351447	 0.0682678482	 2.0306314349	 0.320189
C	 1.6770311567	 1.5889840087	 2.0239467984	-0.496117
O	 2.5151671231	-0.5344136119	 2.6908593722	-0.315466
H	 1.189622792	-0.8715873034	-1.4631967469	 0.117095
H	 0.4037332214	 0.6454753417	-1.958082439	 0.126573
H	 1.8177664655	 0.6702375894	-0.8855639141	 0.124872
H	-0.348610327	 1.043936045	 0.3757660039	 0.089456
H	-1.0536962753	-1.3554763736	-0.8535486555	 0.282965
H	-0.0308485929	-1.4903521848	 3.2483522603	 0.127266
H	-1.3121611487	-1.5568004257	 1.9280123514	 0.134138
H	 0.3317073913	-2.6996843768	 0.4110598532	 0.093356
H	 1.6261061711	-2.5788488976	 1.7044777618	 0.141258
H	 0.7025690632	 1.9612285085	 2.3596393757	 0.144407
H	 2.4587502376	 1.9523441489	 2.6915671553	 0.141387
H	 1.8432086289	 1.9909963769	 1.0195508306	 0.141016
55.7256	103.7575	161.0182	184.5816	214.9152	247.9773	275.4254	279.3147	307.2712	375.8591	399.2931	429.7689	510.5557	591.1692	612.1661	667.6572	798.2672	840.16	874.2517	900.4318	945.4245	952.6253	994.6941	1050.4602	1059.0959	1064.1827	1078.299	1098.2052	1125.0678	1160.3235	1206.416	1270.5692	1306.8935	1326.7546	1361.8916	1383.2783	1405.788	1425.0485	1446.4261	1466.1198	1477.4133	1481.3445	1491.1283	1494.9328	1782.801	3031.1367	3039.8177	3047.3686	3100.6482	3104.6745	3121.8001	3136.0893	3146.2544	3153.8356	3230.6674	3247.1406	3810.9197
CC(O)C1(CC1)C(C)=O	C[C@@H](O)C1(CC1)C(=O)C	
InChI=1S/C7H12O2/c1-5(8)7(3-4-7)6(2)9/h5,8H,3-4H2,1-2H3	InChI=1S/C7H12O2/c1-5(8)7(3-4-7)6(2)9/h5,8H,3-4H2,1-2H3/t5-/m1/s1
