17
gdb 74819	3.80352	1.16288	0.99415	2.152	81.59	-0.2385	-0.0019	0.2367	1212.2968	0.134131	-384.651766	-384.643467	-384.642523	-384.684341	32.118	
C	 0.1041384833	 1.4946003386	 0.0428214115	-0.489346
C	-0.0118970913	 0.0063972016	-0.0281079652	 0.311732
C	-0.0553652706	-0.7566265668	-1.1275779169	-0.192867
C	-0.0690806216	-2.2021571155	-0.772421508	-0.064841
O	 1.0943933436	-2.6299418248	-0.0314487719	-0.294794
C	-0.0855619558	-2.2794082715	 0.7110755337	 0.24491
C	-0.0684196165	-0.8404980483	 1.2334330839	-0.392145
C	-0.7124091791	-3.3219986585	 1.469885211	 0.206586
C	-1.2449522125	-4.1688723218	 2.1367968347	-0.371861
H	 1.0375902295	 1.7934168864	 0.5363714363	 0.134645
H	 0.08771327	 1.9470086315	-0.9520721766	 0.128503
H	-0.7129211444	 1.9283142496	 0.6330821768	 0.128594
H	-0.040159068	-0.3939067428	-2.1482135498	 0.099877
H	-0.5112810309	-2.9634610527	-1.4073835399	 0.107042
H	 0.793321702	-0.6681419549	 1.8888849569	 0.130098
H	-0.9683611809	-0.6277169775	 1.823395897	 0.12251
H	-1.7105831568	-4.9273643125	 2.7161861566	 0.191357
113.5908	139.8267	177.848	213.8342	312.7022	343.5681	415.3745	462.3625	498.0655	525.9158	586.9725	612.8873	669.3495	675.4766	729.1202	819.4523	858.8038	882.4703	921.5719	958.9602	963.2761	1031.7743	1062.6444	1084.6014	1162.912	1185.4206	1201.9855	1266.4061	1294.3157	1342.6	1400.7391	1416.1283	1457.5043	1478.8499	1486.3038	1697.463	2240.5788	3019.4069	3034.8056	3066.3954	3072.1232	3115.2107	3168.919	3205.9906	3502.1473
CC1=CC2OC2(C1)C#C	CC1=C[C@H]2O[C@]2(C1)C#C	
InChI=1S/C8H8O/c1-3-8-5-6(2)4-7(8)9-8/h1,4,7H,5H2,2H3	InChI=1S/C8H8O/c1-3-8-5-6(2)4-7(8)9-8/h1,4,7H,5H2,2H3/t7-,8+/m1/s1
