14
gdb 28857	3.52276	1.29678	0.94786	4.5448	79.45	-0.2342	-0.0828	0.1514	1137.5896	0.102022	-436.716218	-436.708869	-436.707925	-436.748642	27.683	
O	-0.0689477885	 1.3822215455	 0.0103316667	-0.414373
C	 0.0424554377	 0.0295813702	 0.0027066488	 0.350044
C	 1.2756607672	-0.5704553734	-0.0079073987	-0.126075
N	 1.618130946	-1.8821157866	-0.0164399454	-0.22256
C	 0.8571379361	-2.9241222086	-0.0173588103	-0.062767
C	-0.6153647704	-3.0976455697	-0.0105318459	 0.314579
O	-1.0759967953	-4.2334147662	-0.012703884	-0.355086
C	-1.5181566369	-1.9389247725	 0.001853921	-0.163858
C	-1.2377967355	-0.6174598162	 0.0072918782	-0.112491
H	 0.8101943919	 1.780099641	 0.0069936612	 0.309484
H	 2.1368757675	 0.1013010847	-0.0097875954	 0.094956
H	 1.364958857	-3.8908805445	-0.0250769749	 0.128685
H	-2.563776312	-2.2348747365	 0.0069081041	 0.129297
H	-2.0711808448	 0.0799294429	 0.0162998647	 0.130164
45.5896	163.9689	306.9299	349.1817	374.1873	413.0352	414.33	468.9015	527.7667	607.5602	657.8363	707.0181	751.951	837.0917	867.2611	897.5347	926.8738	966.8349	1048.4674	1143.6462	1211.2445	1232.6644	1298.8786	1313.2901	1405.5138	1418.7419	1496.1436	1545.8678	1652.2329	1667.7869	1711.9291	3094.3167	3113.4027	3166.1854	3183.7228	3794.593
OC1=CN=CC(=O)C=C1	Oc1cncc(=O)cc1	
InChI=1S/C6H5NO2/c8-5-1-2-6(9)4-7-3-5/h1-4,8H	InChI=1S/C6H5NO2/c8-5-1-2-6(9)4-7-3-5/h1-4,8H
