17
gdb 34288	3.41294	1.47667	1.32964	4.7688	76.26	-0.256	-0.0049	0.2511	990.3078	0.13947	-380.877007	-380.870108	-380.869163	-380.908083	28.131	
N	 0.0488134561	-1.1257508448	 0.0433622115	-0.34009
C	 0.0387489449	 0.0288167857	 0.0051898774	 0.183139
C	-0.0062966562	 1.482933207	-0.0102211147	 0.155967
C	-0.706405802	 2.133567751	 1.2525170767	-0.247127
C	-0.1438079687	 3.5814825453	 1.1932860646	-0.224166
C	 0.7696001184	 3.5187508905	-0.0850799078	-0.071108
N	 1.3250507817	 2.1424272201	-0.0438055718	-0.310251
C	-0.1740782355	 3.3820521118	-1.2669275526	-0.063431
C	-0.6551842311	 2.141411924	-1.2272068955	-0.078328
H	-1.7943390165	 2.079626261	 1.1866384228	 0.119817
H	-0.3956840133	 1.6096624905	 2.160031243	 0.118039
H	-0.9243779878	 4.3412637626	 1.1140112316	 0.110865
H	 0.457514282	 3.8095427214	 2.0781261937	 0.105941
H	 1.5340280993	 4.2919491184	-0.14941055	 0.082435
H	 1.8022165984	 1.9843758297	 0.8444104419	 0.220194
H	-0.4614941131	 4.1881271267	-1.9277915662	 0.113949
H	-1.4160753764	 1.6718265091	-1.8335460247	 0.124155
149.9504	166.0962	259.4459	374.1203	467.6224	508.4051	534.881	550.9079	578.0484	692.6947	727.8592	789.4535	825.1322	839.7167	875.5821	924.3737	930.6361	941.3892	955.0413	974.9862	1019.1064	1052.9169	1088.7886	1098.6544	1171.697	1176.4707	1232.2265	1240.4716	1283.1371	1302.0726	1313.2774	1330.6072	1409.308	1490.0045	1505.5139	1651.2056	2365.926	3058.0297	3072.9237	3106.5435	3126.6398	3129.2339	3224.1765	3251.366	3453.6027
N#CC12CCC(N1)C=C2	N#C[C@@]12CC[C@@H](N1)C=C2	
InChI=1S/C7H8N2/c8-5-7-3-1-6(9-7)2-4-7/h1,3,6,9H,2,4H2	InChI=1S/C7H8N2/c8-5-7-3-1-6(9-7)2-4-7/h1,3,6,9H,2,4H2/t6-,7+/m0/s1
