17
gdb 110087	2.09637	1.23771	0.95735	2.3688	76.25	-0.2511	-0.0314	0.2197	1262.9306	0.133298	-421.779575	-421.770116	-421.769172	-421.814418	34.114	
O	 0.0647701039	 1.3385170427	 0.4822781614	-0.417139
C	 0.0534824805	 0.0898337642	-0.185820579	-0.092198
C	-1.3200430726	-0.5490679612	-0.1215069584	-0.059901
C	-1.54545974	-2.0529441046	-0.1773197191	-0.151872
C	-0.4288719536	-3.0271411962	-0.2922984303	 0.156954
O	-0.481983305	-4.0042597128	-0.9984187764	-0.2641
C	-1.7715482549	-1.2666277741	 1.1285170342	-0.221176
C	-0.8804187376	-1.3936960634	 2.2473277194	 0.316927
C	-0.1464259646	-1.4523948999	 3.1995371332	-0.456092
H	-0.039473465	 1.1553424905	 1.423044002	 0.290882
H	 0.3137899432	 0.2964119614	-1.2286835443	 0.122506
H	 0.8202646919	-0.5832213883	 0.21727363	 0.103202
H	-2.0914625007	 0.0387815954	-0.6102366598	 0.11764
H	-2.4427503981	-2.3858461414	-0.6879768667	 0.120345
H	 0.4660087039	-2.8146418395	 0.3278156105	 0.091801
H	-2.8166837477	-1.1542946052	 1.4010481776	 0.132539
H	 0.4959942867	-1.5328002676	 4.0417919557	 0.20968
63.6763	76.189	125.256	156.2872	203.3669	269.0697	311.6711	379.9129	390.9199	433.7862	480.8185	596.313	611.5227	624.0464	666.5652	775.5047	823.9438	893.0999	948.0006	970.9001	991.0597	1050.2838	1070.6698	1120.3801	1130.2336	1153.7048	1225.5184	1245.7982	1330.768	1352.0472	1384.8315	1411.1935	1426.7285	1455.7817	1498.9605	1812.9868	2230.0209	2921.2356	3028.7368	3084.0757	3149.7521	3158.3986	3178.4448	3499.7196	3798.888
OCC1C(C=O)C1C#C	OC[C@H]1[C@@H](C=O)[C@H]1C#C	
InChI=1S/C7H8O2/c1-2-5-6(3-8)7(5)4-9/h1,3,5-7,9H,4H2	InChI=1S/C7H8O2/c1-2-5-6(3-8)7(5)4-9/h1,3,5-7,9H,4H2/t5-,6+,7-/m1/s1
