21
gdb 70897	3.20018	1.4589	1.37701	1.3569	80.68	-0.2369	0.08	0.317	1047.9644	0.184313	-387.107058	-387.099353	-387.098409	-387.138371	32.632	
C	 0.003041179	 1.4793213945	 0.0334744974	-0.479148
C	 0.0064731268	-0.0364036979	 0.0199063524	 0.281641
C	 0.7125056855	-0.7248318335	-1.183672441	-0.244446
C	 0.465596491	-2.16701474	-0.7641677154	-0.142128
C	 0.4500691123	-2.1815698364	 0.7651577475	-0.100542
C	 0.6961705602	-0.749150759	 1.2180805431	-0.244566
C	-0.8488272964	-2.1820642425	 0.0001164279	 0.412564
O	-1.6837528894	-3.289344917	 0.065180307	-0.481779
C	-1.3721904436	-0.7501486411	 0.0079018127	-0.317787
H	 1.0250946568	 1.8751005749	 0.0407620702	 0.111834
H	-0.5033119451	 1.8854447446	-0.849362648	 0.111011
H	-0.5102538191	 1.8692331006	 0.9194353285	 0.112638
H	 0.2432942595	-0.4660312423	-2.1401455415	 0.086487
H	 1.7756088739	-0.4636476289	-1.2416372517	 0.09068
H	 0.7960164344	-3.0294584126	-1.3284291237	 0.079721
H	 0.7621644694	-3.0557239695	 1.3207492433	 0.086778
H	 1.7594492433	-0.4949906351	 1.2949011546	 0.090124
H	 0.2142418518	-0.5114677195	 2.1730814787	 0.092481
H	-2.1340443631	-3.3741727716	-0.7824315888	 0.279136
H	-1.972496055	-0.5272225752	 0.8968001153	 0.095276
H	-1.9622862322	-0.5029561124	-0.8835922484	 0.080026
218.0894	239.0861	247.7812	287.8408	328.2671	374.4328	436.564	440.5318	486.6421	544.244	609.3716	649.4042	710.8138	787.4649	860.548	870.1119	890.1449	919.4399	946.7039	951.6757	963.316	995.7302	1005.8124	1038.9648	1049.3985	1119.0523	1134.5903	1145.335	1154.0394	1170.4188	1215.5713	1235.2475	1263.7654	1271.6634	1296.95	1307.9677	1326.456	1354.7599	1414.4623	1448.7362	1486.6758	1488.2662	1495.4545	1496.5939	1518.4509	3022.0284	3023.3172	3027.5879	3036.2233	3068.2653	3074.2978	3077.1818	3088.3123	3090.463	3197.7479	3209.6748	3792.267
CC12CC3C(C1)C3(O)C2	C[C@@]12C[C@H]3[C@@H](C1)[C@@]3(O)C2	
InChI=1S/C8H12O/c1-7-2-5-6(3-7)8(5,9)4-7/h5-6,9H,2-4H2,1H3	InChI=1S/C8H12O/c1-7-2-5-6(3-7)8(5,9)4-7/h5-6,9H,2-4H2,1H3/t5-,6+,7+,8+
