17
gdb 6406	4.80207	1.02313	0.89028	5.3843	61.18	-0.2494	0.0281	0.2775	1241.6908	0.142251	-438.167538	-438.158893	-438.157949	-438.201006	31.234	
N	-0.1544509383	 0.830755893	 0.0402795927	-0.517754
H	-0.2197843139	-0.1789172739	 0.13554095	 0.250092
H	 0.8350478407	 1.0384046212	-0.0858306783	 0.239555
H	-1.1161523564	 1.9557609151	-0.946439411	 0.315977
C	-0.633902363	 1.4616163058	 1.2853193009	-0.016109
C	 0.1430088766	 0.9854548751	 2.519071726	-0.073687
O	 0.1473894349	-0.4315268146	 2.6194377436	-0.417996
C	-0.601383195	 2.9875247377	 1.128571239	-0.338915
C	-1.5084944344	 3.5523749271	 0.0243570625	 0.401111
O	-1.6286391876	 2.7959837248	-1.0737849486	-0.372882
O	-2.0584274396	 4.6166357449	 0.1325534748	-0.332246
H	-1.680207545	 1.144905207	 1.4041291791	 0.097069
H	 1.194524941	 1.2857699556	 2.4298276008	 0.111108
H	-0.2573833038	 1.4570770133	 3.428100062	 0.1034
H	-0.7082315036	-0.7103940291	 2.9610735402	 0.290094
H	-0.8899141154	 3.4831966663	 2.0578469626	 0.136067
H	 0.4276156827	 3.3068927505	 0.9079758635	 0.125116
79.1828	100.5111	161.0554	171.9577	304.3566	307.5093	344.721	353.8467	407.7791	455.9807	533.0751	621.9485	693.6567	864.6688	875.6309	906.3602	935.1744	980.6196	1006.5151	1046.6127	1092.116	1123.2412	1152.1997	1193.4661	1270.8542	1289.031	1315.5033	1361.4269	1401.1444	1407.5875	1416.7294	1462.7843	1492.558	1496.5545	1658.022	1858.6219	3001.0795	3005.5629	3021.913	3061.9183	3114.4548	3245.4015	3471.8085	3557.2058	3818.8231
[NH3+]C(CO)CC([O-])=O	N[C@@H](CO)CC(=O)O	
InChI=1S/C4H9NO3/c5-3(2-6)1-4(7)8/h3,6H,1-2,5H2,(H,7,8)	InChI=1S/C4H9NO3/c5-3(2-6)1-4(7)8/h3,6H,1-2,5H2,(H,7,8)/t3-/m1/s1
