19
gdb 94383	2.92382	1.57407	1.28564	2.2613	74.62	-0.241	0.0648	0.3057	1037.1976	0.159383	-422.970642	-422.962905	-422.96196	-423.002654	31.193	
O	 0.4505484619	 0.7031666137	-0.784934999	-0.43849
C	 0.1869236643	-0.3341179405	 0.1164238332	 0.104085
C	-0.0410376339	-0.0287454751	 1.6292914652	-0.264855
C	-1.2070858637	-1.0596325427	 1.6129877682	-0.298088
C	-1.2408601547	-0.937547796	 0.0791217963	 0.420446
O	-2.2044602452	 0.0681968389	-0.387801308	-0.351835
C	-2.7986021132	-0.9068087168	-1.2585181609	 0.10747
C	-1.8212531309	-1.3875731608	-2.2824741953	-0.31112
C	-1.8050558324	-1.973167039	-0.8797275949	-0.233858
H	-0.3939313864	 1.1620634142	-0.8983766529	 0.286696
H	 0.9521960204	-1.1046539885	-0.0239081981	 0.089898
H	 0.7911336964	-0.2054791961	 2.3131735057	 0.100612
H	-0.4064427233	 0.9923454306	 1.7649258576	 0.112761
H	-0.8884770183	-2.0590039527	 1.924953495	 0.105338
H	-2.1313941612	-0.7973385593	 2.1300588148	 0.114776
H	-3.8775298405	-0.9003671146	-1.3534472533	 0.108179
H	-2.2297407422	-2.0480150607	-3.0413363052	 0.115293
H	-1.0187370085	-0.7353785902	-2.6116818155	 0.132808
H	-1.9414441188	-3.0242420843	-0.6650792029	 0.099884
113.4946	138.2795	210.4625	273.4946	357.6132	416.7249	457.8814	498.7738	514.8176	607.6365	687.7255	756.418	774.9642	805.203	853.3882	885.8473	922.9002	945.8869	955.0644	971.7871	998.7389	1044.307	1051.6169	1084.387	1090.6134	1112.6029	1121.4076	1139.3292	1163.8586	1196.0725	1216.9074	1244.6077	1259.1251	1265.8931	1335.2356	1338.2956	1354.6428	1442.6388	1466.8436	1473.742	1489.229	3057.4272	3063.0031	3069.8583	3120.6895	3125.286	3133.0831	3187.4968	3205.9138	3219.2014	3740.5106
OC1CCC11OC2CC12	O[C@H]1CC[C@]21O[C@H]1C[C@@H]21	
InChI=1S/C7H10O2/c8-6-1-2-7(6)4-3-5(4)9-7/h4-6,8H,1-3H2	InChI=1S/C7H10O2/c8-6-1-2-7(6)4-3-5(4)9-7/h4-6,8H,1-3H2/t4-,5+,6+,7+/m1/s1
