15
gdb 29216	3.21486	1.42569	0.9916	6.8978	73.23	-0.2077	-0.0261	0.1815	1114.0088	0.115869	-450.200591	-450.192741	-450.191797	-450.232735	30.392	
N	 0.0669444972	 1.4689597489	 0.0993985059	-0.614094
C	-0.0110170544	 0.0514743499	 0.0112015537	 0.142365
C	-1.1491383201	-0.6835591904	 0.0564373395	-0.01697
N	-1.0848392531	-2.0417483698	 0.0367899486	-0.355577
C	 0.1249717339	-2.7735628929	-0.0805579071	 0.422387
O	 0.0735232394	-3.9856294424	-0.1328864223	-0.40186
N	 1.2750321351	-2.0215691342	-0.1079900906	-0.411541
C	 1.2170458496	-0.7127108323	-0.0534413213	 0.379444
N	 2.3819344301	-0.0051290396	-0.0916352274	-0.553535
H	 0.333823589	 1.8888869801	-0.7873454783	 0.250761
H	-0.8144388402	 1.8792131597	 0.3855385332	 0.243012
H	-2.1366402676	-0.2387011503	 0.1201098698	 0.123159
H	-1.9207025101	-2.6039312861	 0.0847564662	 0.26234
H	 3.2212926156	-0.5462213166	 0.0492406068	 0.265344
H	 2.3546477857	 0.925903686	 0.2962471833	 0.264764
103.2313	188.2234	212.8083	308.0044	329.0986	381.9851	396.6311	491.671	535.6907	545.9195	578.2448	605.2355	614.6442	748.5135	768.987	791.1321	802.8524	845.4199	902.3336	928.3874	1100.2053	1151.3429	1203.4144	1220.085	1296.1809	1365.7373	1432.8708	1492.2484	1572.2458	1619.9697	1645.0432	1719.8998	1806.2781	3187.0569	3482.9378	3570.666	3584.8391	3632.7175	3698.0304
NC1=CNC(=O)N=C1N	Nc1c[nH]c(=O)nc1N	
InChI=1S/C4H6N4O/c5-2-1-7-4(9)8-3(2)6/h1H,5H2,(H3,6,7,8,9)	InChI=1S/C4H6N4O/c5-2-1-7-4(9)8-3(2)6/h1H,5H2,(H3,6,7,8,9)
