18
gdb 133850	3.68081	1.85833	1.81657	3.0746	80.36	-0.1864	-0.0059	0.1805	850.5781	0.147665	-364.680114	-364.673062	-364.672118	-364.711052	28.864	
C	 0.9165871711	-0.1340977921	-0.4725373632	-0.507234
C	 2.3931680308	-0.325668423	-0.3522803505	 0.325125
C	 3.1203577942	-1.3583261732	 0.6153773716	-0.096632
C	 4.3116187671	-1.8416277543	-0.2341607588	-0.105912
C	 5.3825845024	-0.7754305083	 0.0527017222	-0.225235
C	 4.4313303199	 0.4100978213	-0.1032778407	-0.021143
N	 3.2450000422	 0.0737133466	 0.7829171472	-0.121515
C	 3.5536081504	 0.1509361814	-1.3754517737	-0.222555
C	 3.584297889	-1.261573532	-1.4420420869	-0.03561
H	 0.4091821249	-0.4332550822	 0.4505428645	 0.124733
H	 0.5167177911	-0.7397013419	-1.2915009891	 0.130369
H	 0.6896186772	 0.9143090708	-0.6836460572	 0.145728
H	 2.5750381873	-1.9335941953	 1.3514763515	 0.109985
H	 4.5590890532	-2.8986544281	-0.1944080774	 0.078817
H	 6.1804230254	-0.7673144073	-0.6964739249	 0.112411
H	 5.8167893799	-0.8603402021	 1.0533480649	 0.107575
H	 4.81637611	 1.4111552965	 0.0747758822	 0.078917
H	 2.9143989438	-1.8682640567	-2.0441428215	 0.122176
144.818	152.013	266.4769	323.1853	386.0535	425.4801	557.9404	658.4578	682.7141	701.9059	777.1977	793.013	827.1886	835.4368	894.1095	906.0038	920.7676	935.2991	956.3219	980.8365	983.8966	998.6841	1071.881	1084.6996	1105.7577	1128.3488	1176.9393	1195.7403	1207.7261	1239.3792	1245.0566	1275.1508	1299.7477	1335.6456	1380.1685	1411.8797	1472.1305	1472.7831	1486.4162	3037.3558	3054.865	3108.1683	3110.3975	3119.0773	3143.4679	3158.8841	3177.1919	3210.8317
CC12C3C4CC(N13)C2=C4	C[C@]12[C@H]3[C@@H]4C[C@H](N13)[C]2[CH]4	
InChI=1S/C8H9N/c1-8-5-2-4-3-6(5)9(8)7(4)8/h2,4,6-7H,3H2,1H3	InChI=1S/C8H9N/c1-8-5-2-4-3-6(5)9(8)7(4)8/h2,4,6-7H,3H2,1H3/t4-,6-,7+,8-,9?/m0/s1
