23
gdb 58422	1.93702	1.41413	1.20209	2.2801	81.77	-0.2222	0.064	0.2863	1235.6287	0.203439	-425.408521	-425.397726	-425.396782	-425.444112	40.474	
C	-0.1236661732	 1.5572632902	-0.0496046573	-0.429624
C	 0.002998157	 0.0332787504	-0.0182260515	 0.063225
O	 0.5244246189	-0.4080478079	-1.2919460689	-0.441648
C	 0.7914264365	-0.5108320956	 1.188598692	 0.228066
C	 0.6147277154	 0.288049182	 2.4720733304	-0.464071
C	 0.8993099752	-2.0290276647	 1.3897558742	-0.100062
C	 0.2956818794	-3.0389828427	 0.435251021	-0.430265
C	 2.1274613366	-1.2263296438	 1.0285358293	 0.083754
O	 2.7986360739	-1.3917563641	-0.1824542681	-0.438294
H	 0.8644823094	 2.0342784399	-0.0559525157	 0.121843
H	-0.6598393568	 1.8541202201	-0.9557986719	 0.123949
H	-0.6743474495	 1.9417024648	 0.8112856173	 0.131798
H	-1.0084569982	-0.3924713123	 0.0170669908	 0.095189
H	 1.1452305491	 0.2661919132	-1.5909072367	 0.290107
H	-0.4419327536	 0.3604150465	 2.7605109832	 0.112669
H	 1.1396492213	-0.2009206208	 3.2980074044	 0.115854
H	 1.0120625544	 1.3049181566	 2.3904271383	 0.115928
H	 0.8395894236	-2.3430767858	 2.4303192871	 0.074469
H	 0.3468415518	-2.7219748917	-0.6078213151	 0.135477
H	 0.8159955726	-3.9993462315	 0.518425801	 0.119209
H	-0.7600205781	-3.2153688341	 0.6703587532	 0.112491
H	 2.8558099949	-1.0500197031	 1.8159441881	 0.092158
H	 2.1206658195	-1.4080575855	-0.870871575	 0.287777
37.6875	111.0718	159.984	174.3814	204.2924	245.155	273.4982	278.7841	285.9962	334.6096	367.8854	384.7321	424.7822	515.1617	559.6126	603.295	670.7173	711.5842	779.2128	811.8864	886.695	949.337	984.9548	1019.7993	1029.11	1072.0762	1082.8086	1099.2821	1123.2451	1137.706	1157.8339	1175.5533	1234.5068	1288.1376	1319.1578	1341.999	1369.8483	1399.8651	1403.8069	1419.5488	1421.3966	1424.5583	1477.0525	1491.2133	1493.8002	1501.5801	1506.0041	1511.5832	1514.1076	3014.7547	3018.9879	3030.6166	3033.7839	3081.8457	3085.8999	3100.9804	3102.4243	3110.7702	3131.5476	3133.9911	3140.5988	3743.4079	3798.8139
CC(O)C1(C)C(C)C1O	C[C@@H](O)[C@@]1(C)[C@@H](C)[C@H]1O	
InChI=1S/C7H14O2/c1-4-6(9)7(4,3)5(2)8/h4-6,8-9H,1-3H3	InChI=1S/C7H14O2/c1-4-6(9)7(4,3)5(2)8/h4-6,8-9H,1-3H3/t4-,5+,6+,7+/m0/s1
