19
gdb 114943	3.7845	0.92518	0.81365	4.1861	81.31	-0.2476	-0.0533	0.1943	1434.8347	0.158207	-423.044375	-423.035359	-423.034414	-423.078838	32.549	
C	 0.3250630762	 0.9681728862	-0.3149300744	-0.238652
O	-0.1020973492	-0.3047715759	 0.1097462989	-0.243201
C	-1.5103931733	-0.4485044039	 0.1901593597	 0.117032
C	-2.1443249366	-0.7101712175	-1.2102057349	-0.282333
C	-2.3270036216	-2.20132256	-1.2437935165	-0.144307
C	-2.1415802641	-2.7600852999	-0.0392874085	 0.257454
C	-1.7940134202	-1.730029418	 1.0081048872	-0.334765
C	-2.2847268502	-4.1897765679	 0.2391324203	 0.062843
O	-2.1513267184	-4.6879415193	 1.3356740429	-0.269911
H	 1.4174250495	 0.9662666613	-0.2899427502	 0.131137
H	 0.0018292274	 1.2062305204	-1.3398462391	 0.102877
H	-0.0452877566	 1.7624332796	 0.3524874751	 0.10593
H	-1.9385368762	 0.4461276848	 0.6640470955	 0.065183
H	-3.1110722635	-0.1997758444	-1.3223384326	 0.118647
H	-1.5049049274	-0.3414732537	-2.019754106	 0.121609
H	-2.5962571224	-2.7479801835	-2.142175899	 0.108696
H	-0.9173840694	-2.0036764933	 1.6005471384	 0.13877
H	-2.6244597105	-1.590860239	 1.7098447611	 0.117649
H	-2.5337686637	-4.8120591059	-0.649966318	 0.065341
53.3797	107.2109	117.8335	181.9038	206.9544	281.138	297.2618	372.9559	423.3668	452.3387	506.8642	729.7105	766.2192	781.8333	850.4797	889.5981	891.3441	949.9283	984.6936	1030.9457	1044.8699	1059.4775	1134.7104	1163.6763	1185.1829	1191.416	1196.0141	1244.523	1277.7226	1286.9613	1322.9616	1377.8968	1391.0115	1421.372	1455.6783	1469.9182	1479.8802	1490.2033	1510.2976	1683.3254	1784.1163	2875.0184	2971.6099	2995.616	3016.4026	3019.9188	3047.476	3067.8991	3103.9233	3114.5403	3185.3613
COC1CC=C(C1)C=O	CO[C@H]1CC=C(C1)C=O	
InChI=1S/C7H10O2/c1-9-7-3-2-6(4-7)5-8/h2,5,7H,3-4H2,1H3	InChI=1S/C7H10O2/c1-9-7-3-2-6(4-7)5-8/h2,5,7H,3-4H2,1H3/t7-/m0/s1
