19
gdb 50361	2.79908	1.31833	1.27982	3.5308	74.37	-0.2418	-0.0196	0.2222	1086.0503	0.160444	-423.030122	-423.022237	-423.021293	-423.063276	29.796	
O	-0.5744947569	 0.5563861777	-0.3320401772	-0.260321
C	-0.1516288774	 1.6422737882	-0.0226233147	 0.139433
C	 1.3281412315	 1.9502514104	 0.1406851712	-0.07757
C	 1.9104579187	 2.6919026765	-1.1068283888	-0.255664
C	 1.8069935765	 4.1979318341	-0.8165223423	-0.060691
C	 0.412202217	 4.8341180583	-0.9666384548	-0.087552
O	 0.171497024	 4.7554180253	 0.4563675447	-0.293037
C	 1.5338203482	 4.3215746279	 0.707416556	 0.13555
C	 1.609254567	 2.9241052274	 1.311168885	-0.262539
H	-0.8361482724	 2.4968139486	 0.1652166734	 0.10189
H	 1.8243931919	 0.9852625029	 0.2708767984	 0.094576
H	 2.9629805866	 2.4094331533	-1.2123626422	 0.113128
H	 1.4105213028	 2.4023742289	-2.0365233201	 0.118049
H	 2.6328391905	 4.769932848	-1.2400873796	 0.079886
H	 0.4155540862	 5.8739232746	-1.3165543033	 0.106214
H	-0.3289015481	 4.2667467329	-1.5436776425	 0.104109
H	 2.0879441291	 5.0775053653	 1.2741402596	 0.076136
H	 0.9130025955	 2.8109378713	 2.1483161134	 0.120696
H	 2.6198412391	 2.7517631686	 1.6994190339	 0.107706
44.517	130.6836	150.9885	286.5325	308.2356	354.0698	364.6187	455.7153	609.0017	735.9613	778.7256	825.8735	848.8163	880.1036	896.8403	924.9514	948.0831	961.7034	1000.1851	1021.1138	1042.1287	1083.3156	1099.8626	1133.013	1160.283	1168.0319	1209.2265	1223.4072	1243.5698	1269.1407	1305.09	1323.9388	1334.6469	1348.2945	1360.2851	1370.4672	1429.3576	1467.4689	1488.9013	1525.4782	1823.5932	2917.5139	3011.4101	3037.309	3046.1789	3053.1781	3054.5167	3081.7694	3088.7305	3091.7884	3108.3422
O=CC1CC2COC2C1	O=C[C@H]1C[C@H]2CO[C@H]2C1	
InChI=1S/C7H10O2/c8-3-5-1-6-4-9-7(6)2-5/h3,5-7H,1-2,4H2	InChI=1S/C7H10O2/c8-3-5-1-6-4-9-7(6)2-5/h3,5-7H,1-2,4H2/t5-,6-,7-/m0/s1
