16
gdb 101080	2.34917	1.33203	0.94232	3.5869	65.47	-0.2745	-0.0143	0.2602	1206.7779	0.122715	-474.996048	-474.987073	-474.986129	-475.029981	32.694	
O	 0.1213120231	 1.3962360477	-0.2189315364	-0.417287
C	 0.1094424363	-0.0096798552	-0.147557783	-0.07844
C	-1.3090998873	-0.5120841297	 0.1558144799	-0.002736
O	-2.2147941545	 0.0034245154	-0.8053589883	-0.438057
C	-1.4010438493	-2.0406563988	 0.1823752112	 0.229235
C	-2.6634251859	-2.724260324	-0.1566278018	-0.208493
O	-1.5946258278	-2.6383586825	-1.10824104	-0.266027
C	-0.457690797	-2.7227885235	 1.0488887136	 0.26742
N	 0.2928550451	-3.23260732	 1.7645817075	-0.324367
H	-0.6341860357	 1.6420729642	-0.7676874424	 0.28893
H	 0.4597607838	-0.4748621596	-1.0857984804	 0.094402
H	 0.8007353916	-0.3049512753	 0.6476464891	 0.135466
H	-1.6292978337	-0.1132656834	 1.1244603108	 0.123661
H	-2.0678745622	-0.504223738	-1.6168134495	 0.298064
H	-2.849466672	-3.7200335561	 0.2371688046	 0.148576
H	-3.5304521145	-2.1079704812	-0.3765165351	 0.149652
77.7597	115.3704	134.6022	197.1385	248.4063	282.136	327.4367	387.133	434.159	459.198	519.961	550.0735	572.4941	597.8831	756.6434	870.3756	878.934	935.4316	957.4982	1073.3519	1094.1475	1114.1648	1132.5296	1178.7516	1205.2108	1208.405	1289.0409	1313.4967	1362.5205	1386.4995	1432.1265	1439.6348	1503.2625	1507.2868	2359.7066	2956.3933	3066.8469	3089.583	3112.8978	3216.58	3742.5247	3777.9724
OCC(O)C1(CO1)C#N	OC[C@@H](O)[C@]1(CO1)C#N	
InChI=1S/C5H7NO3/c6-2-5(3-9-5)4(8)1-7/h4,7-8H,1,3H2	InChI=1S/C5H7NO3/c6-2-5(3-9-5)4(8)1-7/h4,7-8H,1,3H2/t4-,5-/m1/s1
