18
gdb 85081	2.70414	1.52148	1.11575	4.198	75.64	-0.2186	0.001	0.2196	1125.5601	0.14764	-439.140283	-439.131389	-439.130445	-439.174644	32.164	
C	 0.7212759163	 1.2975957215	-0.2023746367	-0.385557
C	-0.130243434	 0.0624693565	 0.1022140103	 0.066017
O	-0.1116156914	-0.8261336011	-1.0445297177	-0.26334
C	 0.7814396912	-1.8303919132	-1.1856528884	 0.475948
O	 0.9637265868	-2.3340421715	-2.2660997593	-0.385957
N	 1.4106758825	-2.2582490467	-0.0240897048	-0.168814
C	 2.33155145	-3.3844324492	-0.0975949343	-0.351448
C	 1.0472358266	-1.7477499994	 1.2227260999	 0.029885
C	 0.2913897332	-0.6600811628	 1.3448344491	-0.166792
H	 1.7773920051	 1.0256592054	-0.2891819902	 0.128137
H	 0.3960178047	 1.7615803073	-1.1376039077	 0.133329
H	 0.6219176127	 2.028741837	 0.606277916	 0.119545
H	-1.181026196	 0.3645159801	 0.172613209	 0.106446
H	 2.4311942399	-3.6664477331	-1.1436394178	 0.17811
H	 3.3126455303	-3.1073248514	 0.302161069	 0.130051
H	 1.9470843255	-4.2393747184	 0.4706634294	 0.129865
H	 1.4158868138	-2.3165150621	 2.0687411149	 0.118398
H	-0.0043293372	-0.2810316288	 2.3137750394	 0.106177
52.437	68.0182	122.133	179.9364	246.6101	290.9568	351.5715	397.4548	457.9341	550.8124	568.7524	586.0316	705.2479	725.2366	770.9371	817.6175	906.9702	943.7001	964.1991	1002.0464	1071.0438	1106.1252	1142.3182	1156.967	1160.1213	1195.7538	1265.2781	1349.4682	1364.1584	1400.9352	1410.669	1421.0753	1461.6572	1485.2492	1492.8684	1501.6654	1513.0177	1741.1156	1823.2167	3027.9737	3039.5551	3044.2356	3083.181	3115.5586	3124.7718	3178.7302	3194.8925	3226.4353
CC1OC(=O)N(C)C=C1	C[C@H]1OC(=O)N(C)C=C1	
InChI=1S/C6H9NO2/c1-5-3-4-7(2)6(8)9-5/h3-5H,1-2H3	InChI=1S/C6H9NO2/c1-5-3-4-7(2)6(8)9-5/h3-5H,1-2H3/t5-/m1/s1
