19
gdb 84985	2.31907	1.51637	1.23926	2.8411	70.86	-0.2409	-0.0277	0.2132	1089.2916	0.157486	-460.195538	-460.186335	-460.185391	-460.22951	35.169	
C	 0.4905611872	 1.3636093682	-0.2768601031	-0.436857
C	-0.0519507857	-0.0543525899	-0.0387014766	 0.313099
O	-1.4492376684	-0.0256557904	 0.1990998236	-0.484501
C	 0.2854779041	-1.0358548249	-1.171842701	-0.262813
C	 1.6639180846	-1.6301910232	-0.8193496468	 0.096837
O	 2.653904812	-0.721469876	-1.2954895852	-0.426779
C	 1.6614820695	-1.7278837093	 0.7185911142	-0.359712
C	 0.6560197027	-0.6777083642	 1.183408342	 0.37651
O	 0.3706441103	-0.3982487913	 2.3209173641	-0.339716
H	 1.5547717532	 1.3445295198	-0.5221666232	 0.138458
H	-0.0567545574	 1.8153293846	-1.1094102794	 0.124675
H	 0.337665473	 1.9767786199	 0.6170495571	 0.11786
H	-1.5574323021	 0.2511989444	 1.1195584391	 0.284157
H	-0.4693651385	-1.8279345544	-1.1744239234	 0.115451
H	 0.3047420167	-0.5725434149	-2.1603145578	 0.117919
H	 1.80194438	-2.6131543783	-1.2876679967	 0.075298
H	 3.5187313145	-1.0563873469	-1.0377525382	 0.285284
H	 1.2952349031	-2.7053431845	 1.0568724639	 0.139461
H	 2.6456317511	-1.5814105286	 1.1734083275	 0.125369
36.2526	147.5711	197.8689	261.3344	288.1454	310.8165	317.5366	353.3894	372.9825	402.2299	429.9013	525.9787	578.693	606.3784	681.6399	742.5703	840.7761	851.1505	923.1474	942.321	978.0712	1008.848	1028.9976	1074.8595	1082.192	1145.6423	1183.3861	1212.236	1235.5943	1249.1533	1279.5642	1337.0794	1361.8042	1390.9715	1394.932	1415.7586	1433.0108	1475.4725	1491.0552	1500.8564	1839.2578	3012.9904	3039.0733	3043.7132	3067.3046	3095.8792	3113.0605	3122.6549	3137.6402	3750.3806	3816.416
CC1(O)CC(O)CC1=O	C[C@@]1(O)C[C@@H](O)CC1=O	
InChI=1S/C6H10O3/c1-6(9)3-4(7)2-5(6)8/h4,7,9H,2-3H2,1H3	InChI=1S/C6H10O3/c1-6(9)3-4(7)2-5(6)8/h4,7,9H,2-3H2,1H3/t4-,6+/m0/s1
