16
gdb 86651	3.04929	1.31466	1.03335	6.8223	66.84	-0.2655	-0.023	0.2424	1146.7952	0.124257	-475.095964	-475.087566	-475.086622	-475.129768	29.692	
C	 0.1734222898	 1.4861877885	 0.0321358175	-0.399196
C	-0.0403694593	-0.0186450114	-0.0459889942	 0.105596
C	 0.6819906642	-0.6978649056	-1.2289154545	-0.213756
N	 1.8663028955	-1.2369764566	-0.573307475	-0.180455
C	 2.9685575892	-1.7135109737	-1.2734801828	 0.16008
O	 3.9606362703	-2.1912296322	-0.7980195342	-0.2612
C	 1.7003067584	-1.273551467	 0.8281707115	 0.508177
O	 2.419559495	-1.7552684807	 1.6443820394	-0.342401
O	 0.5244280149	-0.6518282723	 1.1192118249	-0.250257
H	 1.2403579306	 1.7290800625	-0.0015582389	 0.136676
H	-0.3239468987	 1.9832712034	-0.8068639154	 0.12632
H	-0.2407067461	 1.8785047543	 0.9639467983	 0.146031
H	-1.1067731074	-0.2552089883	-0.0463032567	 0.111596
H	 0.0762077677	-1.4959719404	-1.6728035077	 0.132554
H	 0.9457593861	 0.0177420157	-2.0120010139	 0.134437
H	 2.8145969598	-1.5836860364	-2.3640953284	 0.085799
48.2561	110.3857	182.3293	208.9998	214.4715	253.8054	329.7915	418.7531	490.3949	513.8617	707.9871	762.7758	769.3204	792.4327	859.6469	947.6044	978.9778	1030.6398	1072.4575	1119.4655	1134.8789	1156.4649	1221.629	1226.9209	1303.1172	1356.6916	1381.3257	1402.7317	1413.5601	1454.7385	1486.5043	1495.104	1523.5748	1821.229	1924.3709	2925.5092	3034.3272	3041.4433	3083.0544	3094.627	3116.2958	3131.8553
CC1CN(C=O)C(=O)O1	C[C@H]1CN(C=O)C(=O)O1	
InChI=1S/C5H7NO3/c1-4-2-6(3-7)5(8)9-4/h3-4H,2H2,1H3	InChI=1S/C5H7NO3/c1-4-2-6(3-7)5(8)9-4/h3-4H,2H2,1H3/t4-/m0/s1
