18
gdb 122712	10.85533	0.43862	0.4361	3.356	77.17	-0.2577	-0.0268	0.2309	2411.5287	0.144275	-476.220959	-476.210577	-476.209633	-476.258364	34.073	
C	-0.0397329609	 1.0365298884	-0.9772171997	-0.23838
O	-1.1984688119	 0.3094059144	-0.6312352456	-0.227237
C	-1.1617150683	-0.2654445917	 0.6558934584	-0.058481
C	-0.4213513164	-1.614063884	 0.6727010279	-0.177527
N	-0.3742624267	-2.1244642313	 2.0294022524	-0.190776
C	-0.9175242786	-3.2283008775	 2.2585672905	 0.129297
O	-0.9086270763	-3.7335144884	 3.532304294	-0.155032
C	-1.5054692539	-4.9400658134	 3.748026195	 0.185214
O	-1.5399948614	-5.4424698701	 4.825150998	-0.250693
H	-0.2167228343	 1.4699646597	-1.9645032713	 0.131203
H	 0.1546145885	 1.8495824919	-0.2612041331	 0.1108
H	 0.8589824677	 0.4046386721	-1.0319105259	 0.107278
H	-0.7004524593	 0.4125477949	 1.3890709113	 0.106202
H	-2.2026700885	-0.4244708288	 0.9577293678	 0.108458
H	-0.9095026352	-2.3007622532	-0.0374828838	 0.096982
H	 0.6105627259	-1.4647341793	 0.3347166235	 0.119538
H	-1.4192513937	-3.8686300111	 1.5206748714	 0.104703
H	-1.9376711768	-5.3773138128	 2.8299405293	 0.09845
40.7078	42.1882	96.8409	113.3532	119.5941	169.3088	189.7427	256.2356	311.6534	375.3266	419.6551	439.5543	573.8412	724.6095	806.4262	955.4001	974.034	1036.6425	1039.6314	1051.5649	1114.329	1149.6809	1173.424	1179.28	1190.6611	1224.3382	1275.3339	1319.8008	1339.7719	1388.1258	1411.8742	1445.9102	1476.6336	1488.2592	1496.1024	1504.0142	1510.5238	1768.889	1894.9417	2974.9536	2977.1577	2980.2847	3003.2836	3028.2775	3030.1218	3053.1064	3078.674	3115.5348
COCCN=COC=O	COCCN=COC=O	
InChI=1S/C5H9NO3/c1-8-3-2-6-4-9-5-7/h4-5H,2-3H2,1H3	InChI=1S/C5H9NO3/c1-8-3-2-6-4-9-5-7/h4-5H,2-3H2,1H3
