18
gdb 65952	2.19979	1.58197	1.33034	3.5237	76.05	-0.2329	0.0216	0.2545	1059.1992	0.148038	-398.091264	-398.082481	-398.081537	-398.124807	33.235	
N	 0.109155119	 1.4772719177	-0.0996167236	-0.549804
C	 0.0250545052	 0.025191545	-0.0330939956	 0.044963
C	 0.1307071581	-0.5098389953	 1.4310062028	-0.193687
N	-1.3295193046	-0.7814768407	 1.4368877054	-0.369038
C	-1.38620773	-0.6356304019	-0.0204382512	 0.340499
C	-2.5823352953	-0.2470789751	-0.824554169	-0.319796
C	-1.9453008045	-1.6170907373	-1.0012955755	-0.345798
C	 0.9560691943	-0.561927539	-0.9943288453	 0.289055
N	 1.6553831126	-1.0507672114	-1.7741572684	-0.347255
H	-0.1108064	 1.8017638578	-1.0373892308	 0.239993
H	-0.5918386879	 1.8723712501	 0.5215736217	 0.247341
H	 0.7693895836	-1.3948785682	 1.5138448315	 0.122914
H	 0.454283278	 0.2444199426	 2.1539786819	 0.121345
H	-1.5770519508	-1.7054684775	 1.7743632913	 0.226044
H	-3.5334112522	-0.1902307182	-0.3051871675	 0.123649
H	-2.4585229593	 0.4826788312	-1.6192850038	 0.113668
H	-1.3859723649	-1.8175440646	-1.9098438342	 0.13927
H	-2.4792713911	-2.4761288151	-0.6055450297	 0.116638
51.4786	129.7985	180.9865	210.4752	269.0405	281.5754	330.3471	393.1713	463.179	523.9027	549.1361	615.2179	645.77	734.3163	770.3081	859.4254	897.2294	918.0154	929.3215	974.8829	982.4757	1003.2105	1031.1819	1049.4523	1067.591	1074.6904	1153.9608	1183.3485	1221.3649	1231.3806	1318.9208	1324.142	1365.5341	1390.3813	1455.7664	1492.9108	1515.0174	1654.4796	2356.7951	3042.0859	3097.1082	3119.775	3122.3089	3200.8631	3215.3207	3486.7005	3526.6034	3570.2602
NC1(CNC11CC1)C#N	N[C@]1(CNC21CC2)C#N	
InChI=1S/C6H9N3/c7-3-5(8)4-9-6(5)1-2-6/h9H,1-2,4,8H2	InChI=1S/C6H9N3/c7-3-5(8)4-9-6(5)1-2-6/h9H,1-2,4,8H2/t5-/m0/s1
