19
gdb 114859	4.00615	1.13688	1.03939	0.8932	79.44	-0.2386	0.0041	0.2427	1221.9307	0.159348	-422.991737	-422.983536	-422.982591	-423.0249	31.016	
C	-0.26592062	 1.2734525691	 0.1080665459	-0.238789
O	-0.1121566876	-0.1343209676	 0.1434332737	-0.233303
C	 0.795659903	-0.5754806802	 1.1101190654	 0.19226
O	 0.3083501058	-0.3331093164	 2.4429995687	-0.290383
C	 0.2459562523	-1.563606254	 3.1326595371	 0.090552
C	-1.0528447489	-2.4291145044	 3.3698538355	-0.256722
C	-0.2543846891	-3.6698487061	 2.8066251745	-0.30771
C	 0.6275581568	-2.6233413684	 2.1608424016	 0.219545
C	 0.9027437212	-2.0863413016	 0.9790723263	-0.265632
H	 0.6981217334	 1.7774248216	-0.0606219093	 0.104072
H	-0.9357581295	 1.5000994461	-0.7243213915	 0.124528
H	-0.7015241597	 1.6529656005	 1.0397484034	 0.127454
H	 1.7367169429	-0.0079643886	 1.0032420584	 0.067551
H	 0.8335753306	-1.4946881927	 4.0563809747	 0.085985
H	-1.4261722777	-2.4988468709	 4.3940662375	 0.103601
H	-1.8495160815	-2.1296452483	 2.6873736976	 0.127751
H	 0.2321064592	-4.2297814638	 3.6104259925	 0.117528
H	-0.7762012984	-4.3635656941	 2.1464135374	 0.120253
H	 0.9766731272	-2.5571436301	 0.0084364907	 0.111459
64.7671	114.9717	171.1508	194.3182	296.1178	328.6255	379.3835	437.5322	536.9069	674.4115	694.1488	748.2416	791.2641	812.2652	834.8409	910.7793	935.038	949.7303	987.6888	1015.8777	1020.7918	1071.0476	1106.7098	1116.2039	1145.6868	1167.3698	1178.9518	1210.0028	1217.2438	1235.5922	1243.6229	1302.0984	1337.1323	1371.8536	1397.7116	1469.3669	1476.9498	1483.9166	1485.4649	1512.9377	1728.4356	2945.4595	2989.4587	3028.5555	3063.4913	3063.6679	3070.6902	3123.0921	3126.5005	3147.0652	3230.6009
COC1OC2CCC2=C1	CO[C@H]1O[C@H]2CC[C]2[CH]1	
InChI=1S/C7H10O2/c1-8-7-4-5-2-3-6(5)9-7/h4,6-7H,2-3H2,1H3	InChI=1S/C7H10O2/c1-8-7-4-5-2-3-6(5)9-7/h4,6-7H,2-3H2,1H3/t6-,7-/m0/s1
