19
gdb 61932	3.798	0.71327	0.63067	1.5878	78.2	-0.2565	0.0549	0.3114	1736.8587	0.15601	-422.963383	-422.953306	-422.952362	-422.999371	36.058	
O	 0.1158203808	 1.6256616385	-0.0627835569	-0.428434
C	 0.1011591808	 0.2035915965	 0.0312367533	 0.08941
C	 0.6894621249	-0.4685973909	-1.2123916089	-0.204404
C	-0.065807758	-0.0824837898	-2.4992169099	-0.359402
C	 0.530886026	-0.6526638644	-3.6998593131	 0.291985
C	 1.0443860233	-1.1331746321	-4.6747695757	-0.437559
C	 0.8073669572	-0.2535540549	 1.2929086766	 0.063682
C	 0.0863267098	-0.4727087712	 2.5489870717	-0.177927
O	 0.5078401555	-1.5757577879	 1.7388888324	-0.235273
H	 1.029926727	 1.9059448342	-0.1877357269	 0.282132
H	-0.9583594199	-0.0649929675	 0.1203973546	 0.095547
H	 1.7469805683	-0.1877731876	-1.3127916077	 0.098131
H	 0.6659148424	-1.5541702005	-1.0724954406	 0.133417
H	-1.1106332892	-0.4099552783	-2.417281627	 0.131355
H	-0.0971705183	 1.0102174603	-2.5772285886	 0.140033
H	 1.4865274719	-1.5535687549	-5.5435548466	 0.193112
H	 1.8681345883	 0.0086775564	 1.3457502361	 0.085608
H	 0.6068020207	-0.3676202368	 3.4994185375	 0.118603
H	-0.9886410115	-0.3023465089	 2.5840379096	 0.119985
48.0338	82.3915	94.7776	110.7561	197.8522	232.0468	292.5856	308.9188	347.4665	394.2486	452.839	508.1595	569.41	615.509	635.8368	771.2505	846.466	875.4666	915.5185	960.2635	965.531	1029.1102	1063.4404	1079.0395	1116.9257	1129.3248	1156.2404	1163.8927	1176.8204	1259.648	1268.5404	1291.8859	1318.4371	1346.2951	1385.9844	1407.4896	1454.2311	1473.7819	1489.6041	1528.6841	2239.4146	3015.3221	3026.3959	3046.3912	3062.5997	3070.2203	3087.4083	3091.3859	3175.429	3507.9715	3793.1432
OC(CCC#C)C1CO1	O[C@@H](CCC#C)[C@H]1CO1	
InChI=1S/C7H10O2/c1-2-3-4-6(8)7-5-9-7/h1,6-8H,3-5H2	InChI=1S/C7H10O2/c1-2-3-4-6(8)7-5-9-7/h1,6-8H,3-5H2/t6-,7+/m0/s1
