18
gdb 22377	2.76593	1.20239	1.01403	1.392	77.57	-0.2255	0.0171	0.2425	1227.0279	0.145519	-439.01305	-439.003947	-439.003003	-439.046554	34.429	
C	-0.0278588534	 1.5312031536	 0.0659386057	-0.494198
C	-0.0361609523	 0.0314807736	 0.0215392585	 0.294656
C	-1.3214717049	-0.8267649061	-0.0374777545	-0.377143
C	-0.6713436235	-1.7663603023	 0.9657721763	 0.467698
N	-1.0541977927	-2.7451003731	 1.6743278792	-0.277881
O	-2.379741248	-3.1065126765	 1.3490824835	-0.395098
C	 0.6023511677	-1.008274498	 1.0210611133	-0.279051
C	 1.124933909	-0.7990845329	-0.3886573507	 0.066738
O	 0.9902029539	-1.7504764883	-1.4016748558	-0.422112
H	 0.9751305543	 1.9186725928	 0.270779245	 0.121308
H	-0.3561895452	 1.9496665643	-0.8931917131	 0.130144
H	-0.701518507	 1.9109218225	 0.8417907416	 0.124437
H	-2.193186543	-0.3276160837	 0.3955405019	 0.124121
H	-1.583140968	-1.2429741373	-1.011992495	 0.131793
H	-2.5459441544	-3.8285215908	 1.9639421595	 0.30413
H	 1.2289241787	-0.8668284233	 1.89367199	 0.098266
H	 2.0724304006	-0.2562325268	-0.4054201837	 0.090005
H	 1.4474370282	-2.5517569376	-1.1253480617	 0.29219
79.8794	182.7433	196.0311	208.9405	233.0898	274.9244	295.6419	329.448	362.545	474.3827	485.081	521.4212	596.689	626.3579	725.7231	784.4374	876.2536	911.2854	950.7508	958.3059	975.7882	984.4143	1066.3007	1088.0043	1113.7563	1162.3407	1177.7453	1222.3566	1247.1749	1278.1454	1313.2531	1338.3882	1410.6307	1417.7029	1451.5683	1480.024	1488.1249	1500.6738	1786.6459	3023.6195	3066.0305	3082.0483	3084.5239	3101.1738	3122.833	3187.2008	3809.3983	3821.8188	79.8794	182.7434	196.031	208.9405	233.0899	274.9243	295.6421	329.4481	362.547	474.3831	485.081	521.4213	596.689	626.3579	725.7231	784.4375	876.2536	911.2855	950.7508	958.3059	975.7882	984.4145	1066.3008	1088.0042	1113.7561	1162.3406	1177.7453	1222.3565	1247.1749	1278.1454	1313.2533	1338.3883	1410.6304	1417.7029	1451.5679	1480.0239	1488.1248	1500.6737	1786.6457	3023.6195	3066.0305	3082.0484	3084.5239	3101.1738	3122.8331	3187.2008	3809.3981	3821.8195
CC12CC(=NO)C1C2O	C[C@]12CC(=NO)[C@H]1[C@H]2O	
InChI=1S/C6H9NO2/c1-6-2-3(7-9)4(6)5(6)8/h4-5,8-9H,2H2,1H3	InChI=1S/C6H9NO2/c1-6-2-3(7-9)4(6)5(6)8/h4-5,8-9H,2H2,1H3/t4-,5+,6-/m0/s1
