18
gdb 81676	3.57645	1.31004	1.21566	2.7584	72.73	-0.2468	0.022	0.2688	1065.2745	0.1494	-439.082999	-439.075468	-439.074524	-439.11496	30.072	
O	 0.0992971124	 1.2714152714	 0.1589661148	-0.440378
C	 0.0445902206	-0.1267537761	-0.0097789187	 0.116043
C	-1.4328506593	-0.5888214265	-0.1027192914	-0.048161
C	-1.3671514535	-0.2701636323	-1.6266787115	-0.254563
C	 0.1406365845	-0.5824844776	-1.4960311008	 0.071759
O	 0.3817158614	-1.9945647762	-1.5562544142	-0.259571
C	-0.4284789074	-2.8003455625	-0.7978500969	 0.393894
N	-0.3150643392	-4.0592964898	-0.8152295531	-0.5274
C	-1.4685290159	-2.1074095559	 0.0759828721	-0.300216
H	 1.0101066494	 1.5558242023	 0.0287823438	 0.287875
H	 0.6963378941	-0.6575617778	 0.6985285015	 0.073779
H	-2.1593956645	-0.068939409	 0.523547707	 0.08202
H	-1.9462461815	-0.8898879772	-2.3154253529	 0.107161
H	-1.5345584635	 0.7874296641	-1.8292047376	 0.124025
H	 0.8707414861	-0.1192053512	-2.1618216806	 0.08175
H	 0.4317111057	-4.3373705623	-1.4551146511	 0.218648
H	-1.2793460402	-2.391020495	 1.1167575193	 0.13568
H	-2.4518828491	-2.5112550685	-0.1840418196	 0.137656
70.7309	238.8	280.1367	307.648	324.3209	402.3656	424.3296	442.5097	537.3651	543.9308	652.8879	768.659	854.8723	870.621	876.6661	902.1521	915.1513	958.2867	980.6415	996.8034	1069.7408	1078.132	1089.0176	1120.7009	1133.3634	1159.0001	1193.2511	1228.1892	1256.6717	1277.494	1289.7157	1295.6696	1331.6265	1350.2936	1379.837	1423.4158	1467.1179	1480.821	1754.5035	3004.7145	3052.9571	3075.0129	3091.348	3100.6084	3103.2123	3148.5129	3465.3667	3809.8158
OC1C2CC1OC(=N)C2	O[C@H]1[C@H]2C[C@@H]1O[C]([NH])C2	
InChI=1S/C6H9NO2/c7-5-2-3-1-4(9-5)6(3)8/h3-4,6-8H,1-2H2	InChI=1S/C6H9NO2/c7-5-2-3-1-4(9-5)6(3)8/h3-4,6-8H,1-2H2/t3-,4-,6-/m0/s1
