16
gdb 10043	3.23932	1.35789	1.00081	1.2471	73.09	-0.2605	0.0278	0.2883	1144.5468	0.126368	-346.519534	-346.51022	-346.509276	-346.553678	32.938	
C	-0.217845908	 1.4240251407	-0.1159819545	-0.238609
O	 0.1287491917	 0.0658352062	 0.0633351526	-0.2223
C	 0.6853084643	-0.5416092016	-1.0846529216	-0.068277
C	 1.253978481	-1.9075571437	-0.6393253913	-0.366376
C	 2.3746101292	-1.7764897873	 0.2814425511	 0.312003
C	 3.3132297253	-1.6649374733	 1.0229417525	-0.447012
C	-0.3027710188	-0.7135055118	-2.1595706191	 0.34001
C	-1.115707954	-0.864035642	-3.0321191519	-0.461853
H	 0.6586094221	 2.0289493927	-0.3942071912	 0.108008
H	-0.9902138003	 1.5488870669	-0.8869854476	 0.119533
H	-0.6052958691	 1.7794468731	 0.8410826181	 0.131957
H	 1.516772093	 0.0737829923	-1.4664201816	 0.103745
H	 0.4374911112	-2.4712010936	-0.1745996715	 0.150092
H	 1.5602398115	-2.4629788093	-1.5324294262	 0.14158
H	 4.1362601838	-1.5715747917	 1.6870642326	 0.195746
H	-1.8319442028	-0.9913888276	-3.8062575703	 0.201752
71.8064	90.6384	123.8247	165.9297	208.6708	258.0582	272.0216	343.7338	393.7373	487.8055	558.3979	582.1489	615.8537	639.1447	651.0108	678.0316	830.9949	948.0912	981.4108	1029.4536	1059.6731	1146.6727	1184.1573	1199.9954	1257.3874	1293.2899	1359.5926	1368.6173	1457.1249	1479.1226	1485.3464	1509.6384	2230.453	2243.7632	2967.8415	2986.2949	3044.8959	3045.1083	3085.3913	3125.0899	3501.3032	3507.5089
COC(CC#C)C#C	CO[C@@H](CC#C)C#C	
InChI=1S/C7H8O/c1-4-6-7(5-2)8-3/h1-2,7H,6H2,3H3	InChI=1S/C7H8O/c1-4-6-7(5-2)8-3/h1-2,7H,6H2,3H3/t7-/m1/s1
