23
gdb 103700	2.78965	1.12777	0.94026	0.8334	93.47	-0.2348	0.0557	0.2906	1374.2232	0.202345	-351.12295	-351.112064	-351.11112	-351.158227	41.015	
C	 0.2336992185	 1.5022871093	 0.2742020144	-0.380157
C	-0.1687541904	 0.0792730686	-0.1395048482	-0.24583
C	 0.6106408065	-0.4557827569	-1.3364419761	 0.321214
C	 0.3909886681	 0.3313433166	-2.6169957795	-0.466193
C	 1.9796903713	-1.0400084852	-1.1041152561	-0.355188
C	 0.8297895136	-1.9785305302	-1.463773442	 0.076525
C	 0.3154252679	-2.9548499678	-0.4093563485	-0.460679
C	 0.828451517	-2.5537158348	-2.7853250235	 0.293907
C	 0.8075287356	-3.0827691789	-3.8665842793	-0.470367
H	 1.3054750815	 1.5596578019	 0.49274062	 0.117307
H	 0.0132064544	 2.2350741495	-0.5072019867	 0.120394
H	-0.3088447652	 1.8083777751	 1.174031743	 0.111628
H	-0.0343354812	-0.5785290479	 0.7230544986	 0.094986
H	-1.2413348361	 0.0591507806	-0.375085885	 0.097824
H	 0.7551039519	 1.3583193986	-2.5114874072	 0.114669
H	 0.9094799805	-0.1241556428	-3.462274428	 0.130739
H	-0.6751112392	 0.3780723713	-2.8682184388	 0.114456
H	 2.7489686508	-0.8745414213	-1.8504114066	 0.11702
H	 2.3502295269	-1.1022041569	-0.0851020571	 0.108387
H	 0.4445972795	-2.5716735597	 0.6044901135	 0.116955
H	-0.745753134	-3.1770878961	-0.5608940696	 0.125851
H	 0.8664353426	-3.8975857858	-0.4798186807	 0.128414
H	 0.7953752296	-3.5391274472	-4.8249572567	 0.18814
70.0056	108.0867	142.7265	164.2676	182.7552	225.4884	244.4026	255.5954	315.102	369.3964	384.2993	408.6867	431.593	547.4004	577.6835	598.1843	639.1249	674.9268	693.1094	789.9683	847.8352	911.9847	927.53	954.2394	985.1816	1020.3015	1056.3207	1059.991	1074.5511	1106.3227	1124.8531	1186.3314	1228.8963	1283.1954	1321.1233	1358.2584	1387.7034	1408.4356	1415.0885	1420.9073	1476.0118	1482.9131	1489.1782	1494.9775	1497.5044	1503.3596	1505.8342	1512.7014	2225.5292	3020.7141	3032.8306	3037.1995	3041.3783	3083.2419	3092.2208	3102.8703	3104.0621	3114.4266	3122.2015	3129.6277	3132.7264	3211.961	3503.7808
CCC1(C)CC1(C)C#C	CC[C@@]1(C)C[C@]1(C)C#C	
InChI=1S/C9H14/c1-5-8(3)7-9(8,4)6-2/h1H,6-7H2,2-4H3	InChI=1S/C9H14/c1-5-8(3)7-9(8,4)6-2/h1H,6-7H2,2-4H3/t8-,9-/m0/s1
