17
gdb 64876	2.74952	1.15076	0.93274	2.9769	75.17	-0.2476	-0.0212	0.2264	1251.1076	0.132538	-421.783573	-421.774285	-421.773341	-421.817986	34.113	
O	 0.2464712103	 1.4684583282	-0.4266456019	-0.458282
C	-0.04002159	 0.1685900699	 0.0515980549	 0.259772
C	 0.0911442042	-0.0444579489	 1.5998046255	-0.305305
C	-1.3742675625	-0.5869554349	 1.6508530707	-0.079288
C	-1.5725926843	-0.0563341698	 0.194229988	-0.289037
C	-1.4520672453	-2.0869586014	 1.760102733	 0.158464
O	-2.1178627484	-2.6801963863	 2.5701037483	-0.25627
C	 0.6511244569	-0.8502990217	-0.7328543074	 0.292434
C	 1.2577967661	-1.6642060232	-1.3781666467	-0.49677
H	 1.1787648771	 1.5040530452	-0.6674156944	 0.28631
H	 0.8871982289	-0.7078693142	 1.9445149023	 0.116884
H	 0.1762605206	 0.9231990317	 2.0975191231	 0.125238
H	-2.0207965487	-0.149833936	 2.4122163242	 0.097961
H	-2.0828059538	 0.9082615632	 0.1846308165	 0.132719
H	-2.0411180664	-0.7237542452	-0.531168491	 0.122495
H	-0.8293891089	-2.6358605891	 1.0157418604	 0.084297
H	 1.7813031943	-2.3886425877	-1.9526385454	 0.208379
61.7882	77.0947	165.9521	174.8112	250.5722	276.4168	289.231	382.5846	400.9565	420.7536	544.6648	550.3815	629.6406	661.0863	677.1068	789.4975	830.9262	876.5621	902.8203	935.705	983.046	1019.9526	1042.5009	1100.1037	1113.6119	1187.969	1213.7178	1249.4184	1254.6365	1274.9082	1323.5391	1369.5653	1435.6007	1459.254	1479.44	1828.657	2227.4579	2868.0914	3071.2445	3079.4875	3110.2228	3136.77	3142.2946	3497.3837	3810.0253
OC1(CC(C1)C=O)C#C	O[C@]1(C[C@@H](C1)C=O)C#C	
InChI=1S/C7H8O2/c1-2-7(9)3-6(4-7)5-8/h1,5-6,9H,3-4H2	InChI=1S/C7H8O2/c1-2-7(9)3-6(4-7)5-8/h1,5-6,9H,3-4H2/t6-,7-
