19
gdb 39471	2.35567	2.11614	1.56571	2.0037	74.63	-0.244	0.0107	0.2547	925.0494	0.163001	-423.028416	-423.021638	-423.020694	-423.059185	28.316	
C	 0.0089306283	 1.5196566954	-0.0064484333	-0.271349
C	 1.5368478501	 1.7502244801	 0.0533202382	-0.067725
C	 2.0598451931	 1.6709730834	 1.5073237105	-0.091216
O	 1.8433812101	 0.4115594249	 2.1236594012	-0.233411
C	 0.5050128456	 0.0453611768	 2.3332588537	 0.025
O	-0.1155293374	-0.6376088966	 1.2723564306	-0.271637
C	-0.1084669922	-0.0157025189	-0.026351369	 0.088412
C	 1.1452665182	-0.4036560883	-0.7961398101	-0.069519
C	 2.0431917066	 0.5787453868	-0.7641274948	-0.053684
H	-0.5546274769	 1.9946552735	 0.8005258785	 0.100806
H	-0.380907423	 1.9038767531	-0.9532686703	 0.106755
H	 1.8283181272	 2.7259834148	-0.3518876317	 0.070451
H	 3.1435986023	 1.8224683123	 1.5332635073	 0.110065
H	 1.5924151458	 2.4718505061	 2.1024083316	 0.092502
H	 0.5021405006	-0.6723238318	 3.1578984182	 0.114344
H	-0.0769588021	 0.9369517468	 2.6237163093	 0.075342
H	-1.0320043045	-0.3620017618	-0.4988218053	 0.080309
H	 1.2787979363	-1.386234949	-1.2320827256	 0.097944
H	 3.0468894218	 0.5381937223	-1.1726704691	 0.09661
182.9592	232.1089	322.4245	340.7977	401.9886	422.0181	501.9679	542.0836	651.3209	746.3129	774.5252	807.078	828.6164	847.0926	913.5736	931.6377	949.4966	973.1623	993.3036	1010.2542	1032.0174	1067.3559	1096.1738	1108.0331	1131.4448	1177.3507	1211.7624	1249.9479	1265.0471	1304.6996	1317.4096	1327.5488	1343.9161	1360.6956	1378.428	1404.9907	1447.5019	1484.8495	1489.4997	1515.3903	1675.405	2947.3111	2978.2835	3043.6272	3060.8866	3073.9005	3078.8228	3092.8383	3108.2282	3186.7897	3216.3538
C1C2COCOC1C=C2	C1[C@H]2COCO[C@@H]1C=C2	
InChI=1S/C7H10O2/c1-2-7-3-6(1)4-8-5-9-7/h1-2,6-7H,3-5H2	InChI=1S/C7H10O2/c1-2-7-3-6(1)4-8-5-9-7/h1-2,6-7H,3-5H2/t6-,7+/m0/s1
