19
gdb 79366	3.02884	1.41154	1.10108	0.6717	87.8	-0.2497	0.0425	0.2923	1148.6125	0.158523	-348.651936	-348.643928	-348.642984	-348.684101	32.123	
C	-0.1669511117	 1.5858974813	-0.0198502522	-0.424335
C	-0.0300755106	 0.0715647651	-0.001060424	-0.000935
C	 1.1951977955	-0.5912556403	-0.670561362	-0.08749
C	 2.1402201577	-0.2968132252	 0.5474329005	-0.084704
C	 2.5988557869	-1.7618414319	 0.6486439031	-0.318883
C	 1.1026490461	-1.862116054	 0.2667569406	 0.273698
C	 0.3026919975	-3.0295938133	 0.0507724514	 0.097089
C	-0.3605066635	-4.0182008616	-0.1284784475	-0.386949
C	 0.7294330625	-0.6106466129	 1.1593667017	-0.08749
H	 0.7766082335	 2.0842341091	 0.2255704456	 0.113242
H	-0.4828187552	 1.9385048819	-1.0079465926	 0.116515
H	-0.9184834362	 1.9203660013	 0.7038685388	 0.116515
H	-0.9823974259	-0.4123879821	-0.2485797348	 0.075594
H	 1.4856079209	-0.6149645074	-1.7228247525	 0.073731
H	 2.7246866152	 0.607853238	 0.7057801364	 0.07702
H	 3.3133865426	-2.1122156552	-0.1025653289	 0.098412
H	 2.8691233727	-2.1307111294	 1.6428883659	 0.098411
H	-0.9453428198	-4.8900088456	-0.2864743926	 0.176827
H	 0.4816133916	-0.6567623276	 2.2217306031	 0.073731
116.4376	156.7739	214.0108	239.8763	270.9688	404.4546	427.822	523.5931	529.9844	604.9329	610.1043	643.3994	725.1229	738.2718	842.4097	852.208	873.4776	874.8282	930.1768	999.834	1003.4496	1029.1486	1029.8732	1073.6155	1087.1047	1096.8838	1117.7979	1153.6675	1157.4153	1185.4943	1216.0722	1242.1687	1250.5818	1279.0407	1313.0255	1398.2808	1415.2441	1495.3839	1498.9753	1510.6003	2227.119	3028.6367	3037.079	3042.0187	3090.8888	3093.4659	3095.941	3101.2286	3101.7159	3130.6524	3502.4255
CC1C2C3CC2(C#C)C13	C[C@H]1[C@H]2[C@@H]3C[C@@]2(C#C)[C@H]13	
InChI=1S/C9H10/c1-3-9-4-6-7(9)5(2)8(6)9/h1,5-8H,4H2,2H3	InChI=1S/C9H10/c1-3-9-4-6-7(9)5(2)8(6)9/h1,5-8H,4H2,2H3/t5-,6-,7-,8+,9+
