17
gdb 63302	1.87871	1.74752	1.12683	3.0417	69.21	-0.2691	-0.0445	0.2246	1118.458	0.132745	-459.008331	-458.999199	-458.998254	-459.042396	32.932	
C	 0.1393724287	 1.4425299826	-0.075911975	-0.41852
C	-0.0476379308	-0.0531174852	 0.1014817841	 0.400471
C	-1.4974498094	-0.4931692931	 0.0118402998	-0.436723
O	 0.7610396031	-0.7733539247	-0.9321630423	-0.275898
C	 1.5560601544	-1.364015963	-0.0031997295	 0.44356
O	 2.4936107069	-2.0768591392	-0.1670400397	-0.324039
C	 0.796168233	-0.7666838542	 1.1916687257	-0.35238
C	 1.6056249928	-0.0359886084	 2.2351567023	 0.141551
O	 1.3920635566	 1.0847891212	 2.6176300371	-0.240489
H	 1.1958684937	 1.7165712178	-0.0716560719	 0.134471
H	-0.2955658641	 1.7501784555	-1.0315826267	 0.126847
H	-0.3524155179	 1.9872553608	 0.7325009324	 0.144526
H	-1.9368693819	-0.1669293194	-0.9350833498	 0.138675
H	-1.583575559	-1.5815586004	 0.0742030517	 0.128402
H	-2.0752574528	-0.0489839537	 0.8284057455	 0.135838
H	 0.2481738159	-1.5644164612	 1.7095284427	 0.140831
H	 2.4358283405	-0.6469862555	 2.6505794935	 0.11288
66.4224	108.8744	168.9116	205.7902	219.7803	242.7684	287.9331	338.8251	366.4092	432.8007	503.4176	610.2459	662.6098	685.9357	762.0333	831.2869	893.8335	947.7496	989.5488	1004.05	1022.75	1064.1738	1108.1908	1147.149	1226.9177	1239.5812	1283.2341	1334.4865	1409.2386	1418.2808	1425.1008	1468.7641	1481.5582	1491.9383	1504.198	1824.9928	1928.7308	2905.6471	3041.6474	3044.8142	3054.3736	3117.5702	3121.1019	3129.792	3144.9441
CC1(C)OC(=O)C1C=O	CC1(C)OC(=O)[C@H]1C=O	
InChI=1S/C6H8O3/c1-6(2)4(3-7)5(8)9-6/h3-4H,1-2H3	InChI=1S/C6H8O3/c1-6(2)4(3-7)5(8)9-6/h3-4H,1-2H3/t4-/m1/s1
