19
gdb 115522	2.61642	1.09031	1.01667	3.4379	76.06	-0.2517	0.0244	0.2762	1269.0726	0.159601	-419.193302	-419.183923	-419.182979	-419.227711	34.387	
C	-0.0643516465	 1.5939912819	-0.0947061967	-0.452031
C	-0.048693969	 0.0629008128	 0.0112278366	 0.120128
C	 1.1735721155	-0.5888101413	-0.7149055034	-0.197899
N	 1.8659248421	-0.7130965597	 0.5892624813	-0.341481
C	 0.5861711962	-0.5385042725	 1.3223849371	 0.001375
C	 0.7289420478	 0.2973251653	 2.5882167298	-0.081305
O	 1.7017273578	-0.2914775782	 3.434977281	-0.418788
C	-1.3489260329	-0.4915463548	-0.3403043264	 0.237107
N	-2.3811466015	-0.9336140025	-0.6169371391	-0.343879
H	 0.9295210469	 1.994991508	 0.1166348698	 0.140707
H	-0.3481027147	 1.8940910845	-1.1074710036	 0.137588
H	-0.7799835445	 2.0383763242	 0.6022187085	 0.139604
H	 0.9165484149	-1.5433491755	-1.1879714246	 0.119585
H	 1.6842869558	 0.0486983888	-1.4435857355	 0.117002
H	 2.3101146146	-1.6123092084	 0.736600301	 0.23151
H	 0.1041119522	-1.4920084143	 1.5734400502	 0.093333
H	 0.9970083987	 1.3333164588	 2.3415143498	 0.090748
H	-0.2117857976	 0.3129787137	 3.1481379439	 0.118212
H	 2.5359933441	-0.2439850009	 2.9528485602	 0.288483
69.5871	92.2529	155.2367	174.8142	201.4227	270.2808	299.4672	342.2365	401.2233	446.1123	478.9026	542.1888	599.0058	599.5922	761.1427	830.7838	910.997	930.4101	955.8016	980.9737	1029.8518	1040.1666	1063.8412	1114.1412	1141.7179	1157.9793	1195.7399	1214.829	1235.5967	1281.5277	1332.9611	1366.2421	1378.4217	1403.9023	1411.9618	1429.5584	1491.9203	1495.8608	1503.7011	1517.7272	2351.0023	3012.2651	3023.2349	3030.0565	3047.8263	3081.0018	3084.5808	3119.5789	3132.7234	3535.3107	3788.885
CC1(CNC1CO)C#N	C[C@]1(CN[C@H]1CO)C#N	
InChI=1S/C6H10N2O/c1-6(3-7)4-8-5(6)2-9/h5,8-9H,2,4H2,1H3	InChI=1S/C6H10N2O/c1-6(3-7)4-8-5(6)2-9/h5,8-9H,2,4H2,1H3/t5-,6+/m0/s1
