17
gdb 42736	2.68347	1.61787	1.24479	3.1277	78.34	-0.2335	-0.0135	0.22	1030.7278	0.136599	-384.662077	-384.654586	-384.653642	-384.694018	29.691	
O	-0.0269787048	 0.0588542786	 0.0049269244	-0.324864
C	-0.0722401705	 1.25457918	 0.0299098345	 0.435595
C	-1.266280659	 2.1894309421	 0.0347140236	-0.125433
C	-0.7887549783	 3.2562343569	-1.0088565659	-0.248758
C	 0.2834698043	 3.5644075643	 0.0724042857	-0.022831
C	-0.8130714774	 3.2249101501	 1.1206803626	-0.239893
C	 1.1343278709	 2.2663068689	 0.0526631925	-0.296461
C	 2.0263603943	 2.0804074198	 1.18030594	 0.318751
C	 2.7516457518	 1.9319759298	 2.1276804356	-0.442019
H	-2.2499143439	 1.7259492106	 0.0155640875	 0.087739
H	-0.4580977913	 2.9089589085	-1.9920507449	 0.106976
H	-1.5169553048	 4.0621933349	-1.117572521	 0.113073
H	 0.8337845422	 4.5033520631	 0.0942561727	 0.083652
H	-1.5450693033	 4.0266462961	 1.2359933175	 0.111782
H	-0.49681687	 2.8507931785	 2.0968326626	 0.122233
H	 1.6910064174	 2.164751685	-0.8873166301	 0.123024
H	 3.3994934624	 1.7928948028	 2.9573836128	 0.197434
105.5266	131.6538	180.5147	358.0721	383.056	457.2046	491.6637	523.6615	612.8755	616.9972	643.8827	677.0838	796.8088	811.8656	842.3946	869.4515	891.1446	914.6088	993.1701	1004.1414	1020.7848	1054.888	1063.7359	1097.6126	1105.6819	1158.1103	1190.7241	1226.8972	1245.7367	1246.7231	1287.0407	1302.1949	1324.6857	1487.5397	1519.9383	1879.4534	2234.8979	3034.1358	3057.9682	3070.876	3124.2415	3131.431	3133.8714	3150.9192	3504.3118
O=C1C2CC(C2)C1C#C	O=C1[C@@H]2C[C@@H](C2)[C@H]1C#C	
InChI=1S/C8H8O/c1-2-7-5-3-6(4-5)8(7)9/h1,5-7H,3-4H2	InChI=1S/C8H8O/c1-2-7-5-3-6(4-5)8(7)9/h1,5-7H,3-4H2/t5-,6+,7-/m1/s1
