22
gdb 10955	4.83394	1.22343	1.1082	0.2739	82.53	-0.2405	0.0893	0.3298	1187.6332	0.200142	-313.054045	-313.045364	-313.04442	-313.086847	33.376	
C	-0.0031683544	 1.5487369	 0.0646668582	-0.377221
C	-0.1549593779	 0.0288511511	-0.058757104	-0.191176
C	 0.680820057	-0.5627275553	-1.1908670498	 0.05301
C	 2.2470114902	-0.5763128939	-1.0730889788	-0.31137
C	 2.243460992	-2.092351736	-1.3347877275	 0.378152
C	 3.2439370328	-2.8096330567	-2.1946297624	-0.496792
C	 1.4426750376	-2.7683899562	-0.2575286678	-0.325188
C	 0.7107796829	-2.0858386544	-1.3859295145	-0.123323
H	 1.0378427343	 1.82940694	 0.2590846633	 0.11688
H	-0.3131225956	 2.0537007174	-0.8573014534	 0.111037
H	-0.6122113799	 1.9467042974	 0.8823887523	 0.109456
H	 0.1201939821	-0.4444841206	 0.8919545818	 0.092391
H	-1.2105385623	-0.2225409702	-0.2283363859	 0.091991
H	 0.3977739521	-0.0753485984	-2.1309799853	 0.066215
H	 2.7350894029	-0.0001891863	-1.8634631021	 0.096257
H	 2.6671792464	-0.2646502772	-0.109541604	 0.087703
H	 4.2253975051	-2.8609514887	-1.7064981891	 0.116671
H	 2.9259363382	-3.8372934045	-2.4004843906	 0.114534
H	 3.3817068138	-2.3031245172	-3.1573443997	 0.112414
H	 1.4326150397	-3.8536270605	-0.3012033168	 0.103808
H	 1.4158353894	-2.3713924329	 0.7550033568	 0.099911
H	 0.0501573536	-2.643001797	-2.0417940206	 0.07464
97.3649	127.9399	161.344	211.2763	238.4543	303.8237	324.5089	389.2719	421.1949	494.3094	609.1571	697.7275	775.7928	801.6706	832.9604	895.6692	926.2482	950.4873	958.4012	978.8587	990.0829	1027.3325	1042.9965	1068.4466	1079.5024	1108.9308	1119.7546	1150.2311	1191.5118	1237.7575	1250.0814	1275.7668	1291.573	1299.71	1343.7022	1388.0777	1402.0315	1409.5105	1425.813	1481.0178	1484.7155	1486.9218	1499.0023	1499.5227	1506.4604	1512.2874	3015.3026	3016.8417	3027.8656	3030.0736	3032.1795	3053.732	3071.3582	3090.7541	3093.203	3095.8057	3100.3263	3104.0665	3161.7658	3189.5687
CCC1CC2(C)CC12	CC[C@H]1C[C@@]2(C)C[C@@H]12	
InChI=1S/C8H14/c1-3-6-4-8(2)5-7(6)8/h6-7H,3-5H2,1-2H3	InChI=1S/C8H14/c1-3-6-4-8(2)5-7(6)8/h6-7H,3-5H2,1-2H3/t6-,7-,8-/m0/s1
