18
gdb 93397	2.5102	1.4674	1.0627	2.2808	78.76	-0.2467	-0.0362	0.2106	1156.5411	0.148263	-439.110488	-439.101898	-439.100954	-439.143609	32.396	
C	-0.0038336035	 1.5078191735	 0.0806467909	-0.486758
C	-0.0507091724	 0.0119448607	 0.0163293273	 0.248154
C	-0.09534886	-0.6889688102	-1.1244681098	-0.181164
C	-0.0267650864	-2.1528482546	-1.1704312473	 0.358213
N	 0.0658861458	-2.7694336931	-2.2784557988	-0.520587
O	 0.0167139086	-2.8201418281	 0.025807406	-0.26805
C	-0.5385774405	-2.1442003068	 1.1606966637	-0.120415
C	 0.0328706768	-0.742242261	 1.3281636939	 0.032523
O	 1.3684490615	-0.7456501952	 1.8278999586	-0.432865
H	 0.8751239777	 1.8289077251	 0.6516965105	 0.149432
H	 0.0379771148	 1.958735888	-0.9135581965	 0.130093
H	-0.8819009131	 1.905704263	 0.6052637878	 0.132206
H	-0.1242969094	-0.2090375141	-2.0964253671	 0.116661
H	 0.121591779	-3.7762852155	-2.1109099711	 0.220633
H	-1.6312654745	-2.0941773619	 1.0612591032	 0.110737
H	-0.2876438432	-2.762476278	 2.0251109644	 0.125902
H	-0.552991728	-0.2254031314	 2.0974714451	 0.096143
H	 1.9117288066	-1.2081278604	 1.1786869594	 0.289141
89.738	159.7978	176.2037	200.4688	247.1626	296.2401	358.5198	390.4348	441.8251	480.7601	557.2014	605.6086	697.79	717.1882	855.7303	864.548	899.7629	908.8678	931.8945	1007.2729	1027.36	1063.4211	1085.4095	1103.3953	1157.1863	1173.4292	1256.1478	1296.0742	1302.5474	1342.0658	1377.9207	1406.242	1419.0428	1430.1898	1475.502	1486.216	1494.2056	1696.9257	1734.0518	3018.006	3023.2157	3049.6608	3077.001	3114.2862	3123.124	3198.3621	3466.7263	3795.1433
CC1=CC(=N)OCC1O	C[C]1C=C([NH])OC[C@H]1O	
InChI=1S/C6H9NO2/c1-4-2-6(7)9-3-5(4)8/h2,5,7-8H,3H2,1H3	InChI=1S/C6H9NO2/c1-4-2-6(7)9-3-5(4)8/h2,5,7-8H,3H2,1H3/t5-/m1/s1
