20
gdb 115484	2.57326	1.11346	0.81936	3.0616	76.88	-0.2541	0.0192	0.2733	1429.9388	0.170813	-440.307861	-440.298302	-440.297357	-440.343084	34.098	
C	 0.0261789624	 1.542068991	-0.0772803941	-0.381102
C	 0.0974073134	 0.0159882269	 6.6331*^-6	-0.177828
C	 0.7893287246	-0.4928216367	 1.2693290709	 0.021582
C	 0.8444523181	-2.0438368384	 1.374115441	-0.133966
O	 2.2525337337	-2.3467726562	 1.5316984419	-0.253563
C	 2.8885153973	-1.1561428508	 1.4598371006	 0.390207
C	 4.3842254103	-1.1786296265	 1.556101437	-0.127351
O	 4.9221739725	 0.114237132	 1.4732872054	-0.421668
N	 2.2084069308	-0.0930504273	 1.3228983156	-0.344117
H	 1.0280525583	 1.9771774147	-0.0418662059	 0.138476
H	-0.4583758246	 1.8665151563	-1.0029092116	 0.112409
H	-0.5468344439	 1.9532127149	 0.7613553997	 0.113368
H	-0.9142795828	-0.4095863797	-0.0348371412	 0.096166
H	 0.6349669318	-0.3812211789	-0.8705394382	 0.101036
H	 0.2790304263	-0.0625460407	 2.1408246348	 0.088228
H	 0.31083697	-2.4487873205	 2.2371147692	 0.123097
H	 0.4886985724	-2.5435891042	 0.467130619	 0.118254
H	 4.6629912692	-1.6645738241	 2.5042560307	 0.120466
H	 4.7755590457	-1.8206684811	 0.7518308199	 0.120748
H	 4.1647901546	 0.7115802195	 1.3874860123	 0.295558
58.7671	84.49	107.6972	152.7081	198.0609	235.6319	248.8003	311.8417	384.3893	440.4997	461.2025	611.4161	691.1658	720.8855	808.6116	851.8931	953.6405	971.599	990.201	1005.2278	1014.0831	1041.5736	1088.2063	1115.5824	1129.8247	1168.0266	1222.6099	1241.9332	1244.3332	1286.9514	1313.4817	1338.6042	1342.0445	1382.8925	1391.2886	1410.8851	1481.6232	1483.9098	1497.1519	1506.1313	1509.6168	1520.6849	1737.4203	2988.1183	3005.0649	3013.1503	3017.7284	3037.9801	3048.2894	3056.3927	3102.6947	3104.5912	3126.043	3720.4435
CCC1COC(CO)=N1	CC[C@H]1COC(=N1)CO	
InChI=1S/C6H11NO2/c1-2-5-4-9-6(3-8)7-5/h5,8H,2-4H2,1H3	InChI=1S/C6H11NO2/c1-2-5-4-9-6(3-8)7-5/h5,8H,2-4H2,1H3/t5-/m0/s1
