18
gdb 97166	3.45482	1.30942	1.07023	1.7088	74.59	-0.2487	0.0184	0.2671	1151.2396	0.148566	-439.078365	-439.070175	-439.069231	-439.112041	29.596	
C	-0.0635658472	 1.433673309	 0.0540682162	-0.330205
N	 0.0616218682	-0.0142846064	-0.0056660071	-0.332893
C	 0.4904368905	-0.6412976814	 0.997729777	 0.445492
O	 0.8419100111	-0.0687213382	 2.1973079192	-0.252893
C	 1.5436307491	-1.0017142159	 3.0309889482	-0.109015
C	 1.2369594416	-2.3882001363	 2.4776774024	 0.105097
O	-0.0162288949	-2.9242822742	 2.9477698674	-0.291126
C	-0.5818341387	-2.8860098572	 1.6176531415	-0.075533
C	 0.6572703825	-2.1394673235	 1.0709191451	-0.19866
H	 0.5499875681	 1.9008869262	 0.8330136411	 0.121557
H	 0.2089621477	 1.8531753373	-0.9193341815	 0.120858
H	-1.1105275599	 1.7055830365	 0.2380674582	 0.126212
H	 2.6183453166	-0.783482118	 2.9886654302	 0.110247
H	 1.1887446525	-0.8850476539	 4.0580575234	 0.132355
H	 2.0607609505	-3.0976799081	 2.6029578467	 0.086776
H	-0.7146779922	-3.893435029	 1.2055271979	 0.108682
H	-1.532769263	-2.34544756	 1.5800487292	 0.122902
H	 1.1390606075	-2.551661217	 0.1873572448	 0.110146
62.0945	75.1176	154.7399	174.1574	232.9594	324.6416	370.0913	458.383	641.9166	699.9838	729.5467	787.4207	834.4372	875.8201	906.8236	967.6285	1001.0077	1009.1655	1036.2794	1062.6233	1077.9709	1093.1234	1125.9065	1152.5224	1166.0452	1202.0746	1215.7795	1229.1348	1266.4665	1303.8392	1337.4976	1360.3183	1393.5403	1438.4394	1490.7176	1496.9268	1500.4099	1526.1195	1798.5745	3014.8407	3025.333	3026.1884	3064.0576	3072.6958	3084.5381	3093.8082	3106.2755	3145.013
CN=C1OCC2OCC12	CN=C1OC[C@H]2OC[C@@H]12	
InChI=1S/C6H9NO2/c1-7-6-4-2-8-5(4)3-9-6/h4-5H,2-3H2,1H3	InChI=1S/C6H9NO2/c1-7-6-4-2-8-5(4)3-9-6/h4-5H,2-3H2,1H3/t4-,5-/m1/s1
