19
gdb 85437	2.50549	1.43849	1.12059	3.0533	74.73	-0.2416	-0.0203	0.2213	1138.8617	0.158026	-423.043401	-423.034868	-423.033924	-423.076783	32.571	
C	 0.5324357225	 1.54292116	-0.2699638749	-0.39854
C	-0.0244690557	 0.161264492	 0.1008807654	-0.078051
C	 0.2093963491	-0.8769317551	-1.0152923717	-0.335018
C	 1.5800866448	-1.4957859609	-0.713068691	 0.402862
O	 2.2626929676	-2.1162770994	-1.4840388634	-0.308483
C	 1.9385768623	-1.1817591892	 0.7486332066	-0.407543
C	 0.716319829	-0.4627463332	 1.2891371558	 0.429453
C	 0.5573463992	-0.0123274088	 2.6718897389	-0.25808
O	-0.0941499456	-1.2025048795	 2.2149620241	-0.281625
H	 1.5943600955	 1.4938981805	-0.5373766199	 0.121489
H	-0.0022731007	 1.9544808004	-1.1315736889	 0.123904
H	 0.4306414539	 2.2487261026	 0.5599477581	 0.119959
H	-1.083714304	 0.250437875	 0.3565068803	 0.090958
H	-0.5274418113	-1.6880245548	-0.9499929808	 0.141335
H	 0.171467456	-0.4810754395	-2.0328303395	 0.124921
H	 2.1682816663	-2.0933196431	 1.3054394945	 0.146859
H	 2.8355922815	-0.5515343023	 0.759288653	 0.138192
H	 1.3632047141	-0.1654377628	 3.3890482516	 0.114996
H	-0.1038543243	 0.8246371778	 2.8962773418	 0.112411
62.1548	101.0315	209.3948	223.4903	280.8315	320.4079	367.3344	456.179	461.5957	494.4949	526.5348	635.3329	730.8854	764.9467	800.9292	833.8522	888.9143	931.9662	943.7505	975.1047	1021.4933	1051.2289	1100.2648	1127.1826	1134.5356	1159.5966	1182.2385	1203.559	1241.0576	1242.3938	1274.2577	1308.7709	1346.7884	1410.5726	1419.7563	1440.4049	1452.0174	1496.5533	1498.3127	1534.5314	1851.9608	3031.4945	3037.4376	3049.6538	3072.1306	3075.7384	3100.2494	3108.1973	3110.9667	3113.5846	3159.535
CC1CC(=O)CC11CO1	C[C@H]1CC(=O)C[C@]21CO2	
InChI=1S/C7H10O2/c1-5-2-6(8)3-7(5)4-9-7/h5H,2-4H2,1H3	InChI=1S/C7H10O2/c1-5-2-6(8)3-7(5)4-9-7/h5H,2-4H2,1H3/t5-,7+/m0/s1
