22
gdb 86318	1.93992	1.5858	0.99268	3.6661	84.16	-0.2318	0.0291	0.2609	1285.6605	0.192392	-404.38604	-404.375719	-404.374775	-404.421603	37.311	
C	-0.4363098013	 1.2233201136	 1.1923709401	-0.401249
C	 0.0898766052	-0.0530401514	 0.5516632028	 0.061041
C	 0.5471659644	 0.031705566	-0.9338508582	-0.291151
C	 1.933822675	-0.5241274679	-0.4975039035	 0.077107
C	 3.175233538	 0.2871120437	-0.832221803	-0.401646
N	 1.4726230497	-0.4408417403	 0.8992828018	-0.083846
C	 2.01221653	-1.1203469952	 1.9521459562	 0.356474
C	 1.1916790739	-1.1284843771	 3.2324636914	-0.490059
O	 3.1029872847	-1.6611869036	 1.8637400389	-0.370563
H	 0.2677727233	 2.048205477	 1.0461654796	 0.12285
H	-1.3944001137	 1.5007990807	 0.7394700245	 0.121273
H	-0.5993146222	 1.0984041643	 2.26720903	 0.122168
H	-0.6194056034	-0.8744779904	 0.723440811	 0.082179
H	-0.0143727438	-0.5833315811	-1.6375833678	 0.110493
H	 0.5908975186	 1.0570772327	-1.3095792215	 0.107112
H	 2.0882047371	-1.56949193	-0.792557587	 0.089331
H	 3.0478614967	 1.3348275811	-0.540749779	 0.108881
H	 4.0398652832	-0.1195614353	-0.3025789668	 0.150735
H	 3.3737627151	 0.249064577	-1.9089411449	 0.112528
H	 0.1604120404	-1.4506234348	 3.0542889275	 0.128572
H	 1.6672568897	-1.8070192446	 3.9403652984	 0.145665
H	 1.1533567895	-0.1258888742	 3.6702816895	 0.142107
69.569	93.9698	97.9863	121.0607	163.6286	230.6808	236.8589	297.931	322.737	398.0436	417.7953	456.7336	556.535	600.6941	635.2908	718.4713	834.4817	890.1238	907.2387	935.8544	973.8275	992.7679	1046.5786	1052.7056	1096.5291	1124.8788	1141.2779	1172.8743	1178.4076	1217.9138	1261.5308	1284.2249	1316.7553	1366.6701	1373.5464	1390.1075	1402.3569	1410.0515	1422.367	1469.3066	1481.8776	1482.2217	1490.7017	1491.8371	1498.0557	1504.2704	1756.3144	3001.7081	3026.9117	3034.0534	3034.63	3042.9353	3073.9126	3102.5198	3104.4983	3106.4166	3113.2426	3130.7635	3134.6747	3158.2293
CC1CC(C)N1C(C)=O	C[C@H]1C[C@@H](C)N1C(=O)C	
InChI=1S/C7H13NO/c1-5-4-6(2)8(5)7(3)9/h5-6H,4H2,1-3H3	InChI=1S/C7H13NO/c1-5-4-6(2)8(5)7(3)9/h5-6H,4H2,1-3H3/t5-,6+
