16
gdb 72372	2.61061	1.66977	1.41787	2.6725	69.39	-0.2482	0.0018	0.2499	960.6934	0.124758	-437.911297	-437.903408	-437.902464	-437.94375	29.848	
O	 0.0423879265	 1.3919309485	-0.0701760833	-0.479092
C	 0.0344840789	-0.0112184596	-0.0778353162	 0.266305
C	 0.7719692409	-0.6425973224	-1.2794875627	-0.343546
C	-0.1878413622	-1.684609258	-1.8004540304	-0.054312
C	-1.3437895298	-1.7205029211	-1.1352493102	-0.090217
C	-1.3648455942	-0.7245969296	-0.0101573485	-0.051693
N	-0.9466769104	-1.2324390194	 1.3186785214	-0.336474
C	 0.2888215707	-0.6480804894	 1.3162865497	 0.357855
O	 1.1931234792	-0.5963530041	 2.1108973403	-0.375733
H	 0.6687460748	 1.6730152639	 0.6070925867	 0.298492
H	 0.9686652116	 0.1410448145	-2.0214695743	 0.126243
H	 1.7440553066	-1.0662068106	-1.0003978985	 0.127135
H	 0.0625506581	-2.3244239238	-2.6402531134	 0.104794
H	-2.1740594645	-2.3822088251	-1.3544596072	 0.100358
H	-2.2418251463	-0.074682606	 0.0391421236	 0.099373
H	-1.3644067199	-1.9012114977	 1.949801643	 0.250512
79.0878	151.6688	183.7876	252.2053	284.8811	345.0954	429.4948	456.3726	537.2577	644.4622	685.4273	715.4358	758.5357	789.2834	820.0379	904.1251	954.0331	958.9043	976.7416	1008.908	1018.8047	1104.9811	1142.2383	1144.3973	1178.1478	1215.7857	1268.4959	1308.4869	1327.8064	1363.3779	1373.1917	1384.0979	1473.0087	1676.5725	1881.5997	3032.1706	3066.1422	3084.3966	3181.3778	3206.6739	3600.272	3794.6635
OC12CC=CC1NC2=O	O[C@]12CC=C[C@H]1NC2=O	
InChI=1S/C6H7NO2/c8-5-6(9)3-1-2-4(6)7-5/h1-2,4,9H,3H2,(H,7,8)	InChI=1S/C6H7NO2/c8-5-6(9)3-1-2-4(6)7-5/h1-2,4,9H,3H2,(H,7,8)/t4-,6-/m1/s1
