13
gdb 130253	3.23585	1.50459	1.02807	4.7246	65.64	-0.2302	-0.0629	0.1674	1056.4458	0.09035	-486.087227	-486.07949	-486.078546	-486.119272	29.356	
N	 0.063327797	 1.4153940141	 0.0506796367	-0.550768
C	-0.0051628567	 0.0451975643	-0.0452946198	 0.45532
N	-1.197411304	-0.481882491	-0.0914102713	-0.208808
O	-1.2164990659	-1.8903498549	-0.3035976015	-0.240454
C	-0.1072465102	-2.6248004601	-0.3993259707	 0.430157
O	-0.1421105992	-3.821180874	-0.5738469268	-0.361127
C	 1.1744669818	-1.8653056315	-0.2706948258	 0.286474
N	 2.2670899545	-2.6332869996	-0.33738195	-0.538344
N	 1.2195536035	-0.5791396701	-0.1078913715	-0.372595
H	 0.9018013608	 1.759016869	 0.4921205041	 0.263108
H	-0.7924085681	 1.8701689076	 0.3305178658	 0.266825
H	 2.1375582267	-3.6218207709	-0.4827313363	 0.292504
H	 3.1839381098	-2.2246017731	-0.2781283929	 0.277708
102.2142	180.9907	284.3518	310.9857	315.229	354.7627	427.7793	457.3002	502.443	525.3266	557.5623	598.6163	637.239	691.0799	733.4505	815.3055	819.4374	955.6528	997.5415	1151.7113	1169.1607	1244.0389	1409.6893	1468.6144	1571.2405	1605.4626	1641.1908	1697.9943	1807.1152	3585.2788	3598.0178	3703.3951	3739.0106
NC1=NOC(=O)C(N)=N1	Nc1noc(=O)c(N)n1	
InChI=1S/C3H4N4O2/c4-1-2(8)9-7-3(5)6-1/h(H4,4,5,6,7)	InChI=1S/C3H4N4O2/c4-1-2(8)9-7-3(5)6-1/h(H4,4,5,6,7)
