23
gdb 58299	3.38426	0.7688	0.74546	2.8305	82.44	-0.2598	0.0632	0.323	1670.653	0.203342	-425.407839	-425.397173	-425.396229	-425.443954	39.018	
C	-0.190621425	 1.5782792823	 0.1048197572	-0.408983
C	 0.0238680959	 0.0613921999	-0.0141183995	 0.02602
C	-1.3130722425	-0.686532352	 0.0721773077	-0.393472
C	 0.78092483	-0.341484391	-1.2998273387	 0.141906
O	 0.059813624	 0.006137359	-2.4830646137	-0.44243
C	 2.2231006683	 0.1874243877	-1.3656469427	-0.264787
C	 2.9929213373	-0.4238724997	-2.5110410419	 0.104887
C	 4.4377829701	-0.6675585826	-2.4428181056	-0.184013
O	 3.5088678386	-1.7420693898	-2.2887452728	-0.239488
H	 0.7506979967	 2.1363878837	 0.0996329716	 0.114644
H	-0.8179317263	 1.9579117814	-0.7110329523	 0.108697
H	-0.7087017017	 1.8185326852	 1.038113648	 0.119702
H	 0.6532481101	-0.2578737564	 0.8282531781	 0.073785
H	-1.9410358242	-0.4474109522	-0.7912723985	 0.126615
H	-1.1599438172	-1.7707078625	 0.0812451044	 0.112654
H	-1.8595344902	-0.4158391464	 0.981275576	 0.105084
H	 0.8292141754	-1.4366651511	-1.3277767419	 0.102351
H	 0.0147682312	 0.9674143433	-2.5285582147	 0.278252
H	 2.2132975462	 1.2804598347	-1.4809773119	 0.091804
H	 2.7441306576	-0.0346293793	-0.427193515	 0.103198
H	 2.5387890212	-0.2915427916	-3.4927539032	 0.102174
H	 5.0312990556	-0.6874499603	-3.3560570559	 0.112961
H	 4.9862657487	-0.3916825524	-1.5423233146	 0.108437
58.7938	76.1109	94.0481	139.1858	215.6896	234.0431	244.35	285.181	319.5936	328.8765	360.6802	402.6227	464.5499	533.8461	610.646	786.302	811.9214	851.3285	892.238	923.3421	948.6384	964.6307	967.6952	1013.5883	1040.9912	1090.0818	1108.3483	1113.8722	1156.6939	1163.8231	1171.1282	1202.035	1218.7391	1282.3771	1297.7956	1306.6715	1346.3707	1367.6091	1387.2124	1399.0183	1417.861	1427.2724	1447.215	1464.9695	1487.7357	1495.1535	1509.0956	1513.7205	1531.8936	3008.6733	3013.5454	3027.6282	3035.3063	3045.4562	3071.7812	3078.3509	3091.2003	3100.8746	3106.7677	3114.4956	3120.8908	3163.4979	3802.5558
CC(C)C(O)CC1CO1	CC(C)[C@@H](O)C[C@H]1CO1	
InChI=1S/C7H14O2/c1-5(2)7(8)3-6-4-9-6/h5-8H,3-4H2,1-2H3	InChI=1S/C7H14O2/c1-5(2)7(8)3-6-4-9-6/h5-8H,3-4H2,1-2H3/t6-,7-/m0/s1
