18
gdb 54945	2.95276	1.06907	0.96463	2.546	78.78	-0.2634	-0.0398	0.2236	1286.2017	0.145444	-401.98176	-401.972162	-401.971218	-402.016376	34.588	
C	-0.2423168145	 1.4550137723	-0.0778781437	-0.485662
C	 0.1035938339	-0.0134025914	 0.0522407524	 0.387614
O	 0.3738445682	-0.5230803357	 1.1194016068	-0.316377
C	 0.0948000098	-0.8012171992	-1.2243946992	-0.156051
C	 0.8327344758	-2.1130730065	-1.2898614549	-0.309906
C	-0.6737953467	-2.1494166103	-1.2878201284	 0.152127
C	-1.4356793077	-2.6979425966	-0.0917265798	-0.474139
C	-1.3122155245	-2.3900063295	-2.5610274272	 0.249927
N	-1.8349164305	-2.5841609924	-3.5748179369	-0.341434
H	 0.4800391323	 1.9554533198	-0.733374609	 0.147448
H	-1.2268018435	 1.5732412812	-0.5449882227	 0.148984
H	-0.236087044	 1.9279191957	 0.9043306863	 0.147521
H	 0.0409351446	-0.2148402157	-2.1345657076	 0.115251
H	 1.3592169689	-2.3556357398	-2.2046440283	 0.141792
H	 1.3091055362	-2.4233180463	-0.3662587405	 0.151805
H	-0.917437883	-2.4466834404	 0.8333859254	 0.166839
H	-2.4489578185	-2.2880107198	-0.0522256695	 0.135365
H	-1.5136540067	-3.7860283954	-0.1719528032	 0.138896
67.1162	105.421	138.2779	158.2073	201.5175	232.8121	269.0564	330.7404	348.9168	392.1892	543.7573	578.8872	599.9877	604.6797	678.4827	771.4117	829.2861	924.566	950.0074	970.7443	994.5628	1044.3532	1072.7817	1089.0817	1113.9326	1132.9931	1191.3883	1276.6363	1295.098	1380.2305	1411.1346	1417.4019	1462.2564	1468.1783	1473.6719	1499.272	1501.817	1791.7054	2349.1095	3034.6851	3051.2695	3094.2114	3114.7438	3144.9583	3157.0269	3160.4679	3179.4788	3243.8237
CC(=O)C1CC1(C)C#N	CC(=O)[C@H]1C[C@]1(C)C#N	
InChI=1S/C7H9NO/c1-5(9)6-3-7(6,2)4-8/h6H,3H2,1-2H3	InChI=1S/C7H9NO/c1-5(9)6-3-7(6,2)4-8/h6H,3H2,1-2H3/t6-,7-/m1/s1
