21
gdb 89414	2.76596	1.42283	1.09393	2.6102	77.58	-0.2491	0.0717	0.3209	1181.5135	0.182115	-424.230397	-424.221437	-424.220493	-424.263714	34.94	
C	 0.0522661812	 1.6255253706	 0.0012391947	-0.395293
C	 0.0279136958	 0.1008078667	 0.0392007875	 0.003432
C	 0.6023875763	-0.5995691054	-1.2218187856	-0.305734
C	 1.1265236886	-1.9446491645	-0.7228983241	 0.420549
C	 0.9731554244	-3.1943342616	-1.5446365677	-0.489235
O	 2.3937643605	-1.8006196192	-0.0383111378	-0.303496
C	 1.1934669659	-1.9088518444	 0.7491373947	-0.072962
C	 0.7742106725	-0.5261295588	 1.2579919957	 0.099268
O	 1.89960721	 0.2131109572	 1.6940024789	-0.432812
H	 1.0796252895	 1.9967111413	-0.0419584469	 0.123593
H	-0.4898214042	 2.0042433072	-0.8716312887	 0.106086
H	-0.4116205209	 2.0512000455	 0.8968679704	 0.115703
H	-1.0145798243	-0.2337650584	 0.132355705	 0.071374
H	-0.1605231534	-0.7248779223	-1.9963506859	 0.10053
H	 1.4257843575	-0.0297364923	-1.6676538345	 0.110423
H	 1.4838090657	-3.0889994466	-2.5080959794	 0.130758
H	 1.400924719	-4.0546055942	-1.0238189208	 0.130956
H	-0.0842526958	-3.3946055948	-1.7471782086	 0.124282
H	 1.1325866752	-2.7935945424	 1.3785411993	 0.09407
H	 0.1048408399	-0.5985509404	 2.1210069245	 0.079048
H	 2.6190233865	-0.0393629033	 1.0985734391	 0.289461
69.3697	172.4595	201.6418	213.8381	244.8007	271.112	338.3137	385.9044	421.0733	486.011	505.0383	558.3582	585.2737	711.3937	745.9871	804.2545	836.393	885.5633	915.2411	925.6287	972.5128	1003.3845	1023.8587	1054.4362	1086.0537	1103.3378	1145.6436	1172.9352	1192.4533	1245.877	1264.4286	1286.1139	1306.0982	1316.996	1355.0185	1367.6821	1408.9395	1412.4803	1445.1043	1449.0188	1485.4182	1486.4497	1492.4786	1496.0869	1497.2024	3003.9739	3035.1339	3036.6481	3041.9585	3062.3653	3085.5109	3098.642	3100.4176	3118.9923	3123.64	3141.6917	3742.7986
CC1CC2(C)OC2C1O	C[C@H]1C[C@@]2(C)O[C@H]2[C@H]1O	
InChI=1S/C7H12O2/c1-4-3-7(2)6(9-7)5(4)8/h4-6,8H,3H2,1-2H3	InChI=1S/C7H12O2/c1-4-3-7(2)6(9-7)5(4)8/h4-6,8H,3H2,1-2H3/t4-,5-,6-,7+/m0/s1
