17
gdb 74484	3.3071	1.31734	1.02497	4.5244	78.86	-0.2492	-0.0353	0.214	1171.9632	0.135428	-421.873747	-421.865613	-421.864668	-421.906501	30.746	
C	 0.0274943295	 1.5206340745	-0.0100181364	-0.488202
C	-0.0556171498	 0.032080842	 0.0113888398	 0.166223
C	-1.1019156453	-0.7984077263	-0.0796987714	-0.301321
C	-0.6266865336	-2.1878783405	-0.0028499195	 0.428385
C	-1.3441573981	-3.3117168316	 0.7039965092	-0.319978
C	-1.1896145429	-3.3418270834	-0.7959037309	-0.319977
O	 0.7755878672	-2.1272812297	 0.1404202861	-0.262819
C	 1.16396048	-0.8052061832	 0.1538634158	 0.358658
O	 2.3107201699	-0.4704508367	 0.2653137996	-0.348489
H	 0.6666720645	 1.8590434263	-0.8326051524	 0.14845
H	-0.9585625324	 1.9775905306	-0.1210047776	 0.123859
H	 0.4866553315	 1.8941340264	 0.9116010369	 0.148446
H	-2.1467003156	-0.5378524105	-0.192537636	 0.126291
H	-0.7186905794	-3.9764291531	 1.2881242852	 0.143617
H	-2.3195091104	-3.1030356708	 1.1291590876	 0.126619
H	-2.0569700431	-3.1541902658	-1.4188874129	 0.12662
H	-0.4609398118	-4.0266455981	-1.2134124532	 0.143618
107.7957	121.7646	156.9558	228.7613	280.466	321.4451	372.7886	490.3977	546.198	547.5458	622.5302	766.9749	771.5615	792.3361	856.0886	879.0098	914.6887	938.2996	944.6559	1000.2671	1013.3123	1061.1425	1066.6646	1075.4104	1092.643	1176.0302	1194.0054	1290.1868	1321.3415	1393.3418	1416.2332	1452.7193	1473.0653	1484.3938	1490.8431	1701.8649	1860.7811	3038.4396	3092.6148	3125.6945	3139.9424	3141.7189	3214.7563	3227.1726	3241.169
CC1=CC2(CC2)OC1=O	CC1=CC2(CC2)OC1=O	
InChI=1S/C7H8O2/c1-5-4-7(2-3-7)9-6(5)8/h4H,2-3H2,1H3	InChI=1S/C7H8O2/c1-5-4-7(2-3-7)9-6(5)8/h4H,2-3H2,1H3
