19
gdb 27882	1.78937	1.75755	0.89651	1.2579	87.79	-0.2124	0.0058	0.2182	1305.072	0.158984	-385.975493	-385.966248	-385.965304	-386.010992	34.018	
C	 0.018345676	 1.5096545336	-0.0177374737	-0.491075
C	 0.0334676735	-9.6154*^-6	-0.0041375892	 0.352183
C	 0.0927876656	-0.7109979222	-1.2074142373	-0.371041
C	 0.1061029842	-2.102591002	-1.2006227394	 0.415243
O	 0.159593767	-2.8409826263	-2.3471722206	-0.442145
C	 0.0611227877	-2.8014104323	 0.0078493678	-0.306452
C	 0.0041456334	-2.1095921744	 1.2131999507	 0.346227
C	-0.021232867	-2.8541459866	 2.5264011739	-0.49014
C	-0.0115695539	-0.7089290403	 1.1938437758	-0.313677
H	 0.9304126513	 1.9135529397	-0.472159638	 0.129027
H	-0.8265785547	 1.8957703224	-0.5991421205	 0.128186
H	-0.0581797129	 1.9152191179	 0.9942441651	 0.122577
H	 0.1249135478	-0.1749898169	-2.1539167592	 0.072265
H	 0.1842583628	-2.2432953194	-3.1015297214	 0.294615
H	 0.0703433741	-3.8857103263	-0.0172704799	 0.094652
H	 0.9545734103	-2.8099965791	 3.0252228175	 0.1323
H	-0.7531415178	-2.4211307731	 3.2158217685	 0.126324
H	-0.2707641359	-3.9088786862	 2.3840135427	 0.123012
H	-0.0610810417	-0.1643168631	 2.1324692472	 0.077919
21.9191	43.802	184.746	223.5115	238.5075	270.9082	303.4678	377.0938	494.8418	512.9959	524.2518	535.3941	585.1706	596.8975	709.6709	831.8333	853.4846	878.988	962.0275	967.2657	1008.1409	1034.8995	1052.0266	1059.0676	1059.9731	1178.544	1187.8951	1208.4017	1318.0266	1346.4776	1362.246	1410.8473	1414.3212	1458.5914	1485.041	1486.1643	1489.5622	1511.7721	1532.2106	1639.7577	1654.8349	3028.9878	3029.4189	3081.1452	3084.9018	3115.5278	3115.8042	3140.6574	3163.7167	3188.2273	3821.8453
CC1=CC(O)=CC(C)=C1	Cc1cc(O)cc(C)c1	
InChI=1S/C8H10O/c1-6-3-7(2)5-8(9)4-6/h3-5,9H,1-2H3	InChI=1S/C8H10O/c1-6-3-7(2)5-8(9)4-6/h3-5,9H,1-2H3
