19
gdb 61715	5.25744	0.72466	0.67339	1.8948	87.74	-0.2298	-0.0123	0.2175	1671.1289	0.158221	-419.228541	-419.218942	-419.217997	-419.264091	34.283	
C	-0.6862941519	 0.7514888498	 0.2725175451	-0.467845
C	-0.1877536763	-0.5033653474	-0.3931546209	 0.367399
N	 0.1479619848	-1.5810558219	 0.4563534279	-0.322658
C	 0.100749496	-1.6929217685	 1.8207993397	 0.158105
O	-0.2562382749	-0.8486075943	 2.6113280722	-0.313104
N	-0.0171046878	-0.7523678197	-1.6299561451	-0.287136
C	-0.2874530384	 0.1773840973	-2.6612361746	 0.060735
C	 0.614288976	 0.1161596823	-3.8774705587	-0.267484
C	-0.7950823544	-0.3953063309	-3.9690935607	-0.267491
H	 0.0588245116	 1.1338815111	 0.9738230652	 0.159902
H	-0.9171078794	 1.5195540193	-0.4642270505	 0.128111
H	-1.5777362226	 0.5400862211	 0.8674273627	 0.159853
H	 0.473582898	-2.3863767717	-0.0615426877	 0.253439
H	 0.4450371128	-2.698325627	 2.134397698	 0.085971
H	-0.6627082326	 1.1644782097	-2.3988000984	 0.083789
H	 0.8652694857	 1.0508797452	-4.3661744749	 0.113594
H	 1.4135628357	-0.6143710859	-3.8447460327	 0.120612
H	-0.9399945055	-1.468511864	-3.9976977432	 0.120611
H	-1.527320097	 0.1825543357	-4.5217457331	 0.113595
44.3894	66.4114	114.6376	149.166	153.1477	252.4413	274.0396	334.3852	434.0324	465.2818	499.4744	561.7963	703.1023	757.0466	794.2709	817.8505	847.3375	869.685	923.9751	965.4852	1027.6646	1055.8574	1056.9031	1061.2644	1071.0636	1111.0824	1142.7214	1198.6037	1198.8282	1228.6257	1312.3796	1388.2698	1420.7185	1448.4059	1455.7102	1464.9389	1470.4618	1490.4191	1512.4167	1739.4892	1809.8128	2938.1322	3069.4533	3112.431	3129.9845	3139.5099	3143.8566	3164.1478	3225.6917	3239.8232	3594.3642
CC(NC=O)=NC1CC1	CC(=NC1CC1)NC=O	
InChI=1S/C6H10N2O/c1-5(7-4-9)8-6-2-3-6/h4,6H,2-3H2,1H3,(H,7,8,9)	InChI=1S/C6H10N2O/c1-5(7-4-9)8-6-2-3-6/h4,6H,2-3H2,1H3,(H,7,8,9)
