16
gdb 45067	2.49226	1.67509	1.14493	5.7227	72.23	-0.2661	-0.0427	0.2233	1048.0308	0.125123	-400.77958	-400.771975	-400.771031	-400.81214	28.812	
O	 0.0379590995	 0.0070854626	-0.268814192	-0.278129
C	-0.0202269257	 1.1713678492	-0.0008068564	 0.380214
C	-1.279103777	 1.9771995205	 0.3320231652	-0.332396
C	-0.7892496485	 3.2504640496	 0.9899068779	-0.049312
C	 0.1166709188	 3.0974949714	 2.1850077241	-0.289523
C	 0.7194686925	 3.352587417	 0.8284224475	-0.040366
C	 1.21073916	 2.1402843254	 0.0508937923	-0.287059
C	 2.4057388318	 1.4985148645	 0.5857448738	 0.304727
N	 3.3531727957	 1.0057486873	 1.0266721841	-0.322236
H	-1.8034729482	 2.186610639	-0.6096213416	 0.140259
H	-1.9508299503	 1.3682681714	 0.9440666556	 0.145348
H	-1.40014823	 4.1415810121	 0.9128290912	 0.102153
H	 0.1504364023	 3.9108866576	 2.9002144198	 0.129389
H	 0.2351618735	 2.1136217572	 2.6310720817	 0.134518
H	 1.1991879482	 4.3038038888	 0.6358905726	 0.109872
H	 1.4133755374	 2.4223402566	-0.9921657159	 0.152542
62.6323	137.3905	154.202	312.8655	367.6026	409.6915	462.8433	512.8504	581.4928	603.4463	657.5627	750.1555	808.8421	827.7655	894.6482	923.9429	943.5075	996.2302	1030.1081	1064.6959	1082.643	1099.2059	1108.5681	1127.5782	1184.7583	1206.0391	1228.2969	1289.748	1308.7318	1352.0774	1390.8526	1452.6589	1491.4007	1866.915	2362.7764	3018.9926	3035.0955	3092.7669	3127.1115	3182.3271	3192.1063	3219.4589
O=C1CC2CC2C1C#N	O=C1C[C@H]2C[C@H]2[C@H]1C#N	
InChI=1S/C7H7NO/c8-3-6-5-1-4(5)2-7(6)9/h4-6H,1-2H2	InChI=1S/C7H7NO/c8-3-6-5-1-4(5)2-7(6)9/h4-6H,1-2H2/t4-,5-,6-/m1/s1
