17
gdb 63291	1.97372	1.68858	1.12955	4.6663	74.47	-0.2822	0.0011	0.2833	1123.4325	0.134456	-418.032172	-418.023198	-418.022254	-418.065803	33.096	
C	 0.2185440369	 1.4008015708	-0.256172728	-0.43544
C	-0.0547540406	-0.0646523543	 0.0192365256	 0.396471
C	-1.524396094	-0.4350746071	-0.0367436276	-0.436908
O	 0.7221048283	-0.91207422	-0.9175811063	-0.280815
C	 1.4829380097	-1.4474907688	 0.0868772527	 0.442988
N	 2.4331043082	-2.2594791274	 0.078193561	-0.531923
C	 0.74425479	-0.7157427285	 1.2050226325	-0.357403
C	 1.5190513004	 0.1447380305	 2.0783593477	 0.307153
N	 2.1168950118	 0.8519359929	 2.769507747	-0.328648
H	 1.2885004062	 1.6185076583	-0.2247395843	 0.148808
H	-0.1625763686	 1.6662314499	-1.2464115952	 0.135039
H	-0.2805862817	 2.0292145721	 0.4873817736	 0.140071
H	-1.941001641	-0.1766724606	-1.0145623638	 0.140528
H	-1.6663084028	-1.507192537	 0.1246274426	 0.133114
H	-2.0830090882	 0.1117431854	 0.7293055009	 0.136671
H	 2.6680799806	-2.5584513482	-0.8694811472	 0.238057
H	 0.1328276248	-1.3952630979	 1.8048127189	 0.152236
74.0088	130.4301	159.4922	204.3622	239.7997	297.7376	331.0796	346.3049	418.8879	442.781	476.6553	570.1116	613.2276	657.4323	811.5569	842.5176	868.5135	907.9589	947.5016	985.4497	1011.1839	1021.9381	1083.3271	1134.8921	1150.1917	1252.0563	1259.3614	1294.9003	1342.4044	1411.3443	1424.7382	1472.9477	1481.0962	1494.1935	1503.768	1830.7756	2364.1009	3042.4811	3049.8228	3085.4988	3116.8688	3122.619	3124.2519	3133.5341	3485.3662
CC1(C)OC(=N)C1C#N	CC1(C)O[C]([NH])[C@H]1C#N	
InChI=1S/C6H8N2O/c1-6(2)4(3-7)5(8)9-6/h4,8H,1-2H3	InChI=1S/C6H8N2O/c1-6(2)4(3-7)5(8)9-6/h4,8H,1-2H3/t4-/m1/s1
