20
gdb 15708	3.19948	1.60911	1.23838	2.6164	70.3	-0.2494	0.0744	0.3238	1037.0171	0.177733	-386.145923	-386.137286	-386.136342	-386.179715	31.52	
C	 0.1650492218	 1.6093820276	-0.231202633	-0.399091
C	-0.033705504	 0.1073120063	 0.0075019591	-0.00822
C	 0.6748022462	-0.7555039597	-1.0639643762	-0.251426
C	 2.0752504203	-1.0235510092	-0.4594642785	-0.065514
O	 2.0258724187	-0.5871088557	 0.8987117048	-0.285939
C	 0.6564933027	-0.4242251842	 1.2774721619	 0.115676
C	 0.6470885551	 0.4276825655	 2.5374103103	-0.077881
O	 1.3427622175	-0.2173027099	 3.5887971265	-0.426643
H	 1.2264295298	 1.8770313451	-0.2162936606	 0.128044
H	-0.2392705045	 1.8953319674	-1.207474848	 0.111907
H	-0.3441912532	 2.2131311221	 0.526022061	 0.119643
H	-1.1050530676	-0.1158030885	 0.0360006702	 0.074534
H	 0.1375694254	-1.6966103425	-1.2120832836	 0.105837
H	 0.7295720963	-0.2530792958	-2.0331916626	 0.103958
H	 2.3354384683	-2.0897523656	-0.5057167369	 0.096963
H	 2.8699098586	-0.461947606	-0.9621448013	 0.106168
H	 0.2282163209	-1.4084609379	 1.5357884654	 0.066507
H	 1.0812069627	 1.4144735766	 2.3206630327	 0.090404
H	-0.3824685468	 0.5765844208	 2.8808298114	 0.103682
H	 2.1986634319	-0.4680710664	 3.2220066575	 0.29139
41.9692	113.1575	121.7227	181.9129	247.9218	296.7178	338.9867	424.2921	444.5012	501.6733	696.442	714.4453	794.8257	817.7154	873.073	914.5705	968.6114	1002.5307	1019.6492	1032.4425	1064.5091	1089.7108	1125.5982	1135.6624	1168.948	1221.6324	1229.9712	1241.1386	1278.7123	1313.9522	1330.6842	1355.0149	1377.6254	1389.3047	1407.7201	1413.0729	1443.9677	1490.3357	1497.5062	1501.2703	1505.3874	1532.0341	2949.7112	2999.5068	3007.7514	3035.7528	3050.2391	3059.0985	3064.0221	3073.6303	3101.4701	3105.1226	3110.217	3798.2643
CC1CCOC1CO	C[C@H]1CCO[C@H]1CO	
InChI=1S/C6H12O2/c1-5-2-3-8-6(5)4-7/h5-7H,2-4H2,1H3	InChI=1S/C6H12O2/c1-5-2-3-8-6(5)4-7/h5-7H,2-4H2,1H3/t5-,6-/m0/s1
