13
gdb 47324	3.46131	1.41656	1.11034	2.028	55.05	-0.2925	-0.028	0.2645	1011.4997	0.089222	-530.885212	-530.877676	-530.876731	-530.918427	26.283	
O	 0.0461598985	 0.3127163757	 1.0971341694	-0.28791
C	 0.0176378057	 1.1000398489	 0.1971924605	 0.408294
C	-1.2673292408	 1.8349765506	-0.1812481802	-0.210066
O	-1.466454589	 2.0026141234	-1.5901803902	-0.225599
C	-0.6580472139	 2.8367964108	-2.2593764078	 0.489253
O	-0.8005348753	 3.1083283211	-3.4062967921	-0.329037
O	 0.324236932	 3.3785859145	-1.4529160247	-0.24476
C	 1.4290534509	 2.5467661716	-1.2053347724	 0.000781
O	 1.1237410992	 1.3120938319	-0.5632967015	-0.227954
H	-2.0952284716	 1.2143893403	 0.157881628	 0.169344
H	-1.3067507971	 2.8005534328	 0.3318734005	 0.158931
H	 1.9321050105	 2.2744234154	-2.1382782232	 0.149967
H	 2.091493611	 3.1258438431	-0.5578800363	 0.148756
53.9472	83.93	135.6209	262.5344	323.3666	393.5862	456.3509	573.8415	581.9686	691.554	719.6001	779.9094	828.0126	848.9988	1002.4376	1045.592	1053.6377	1110.0413	1152.9027	1177.3256	1246.5939	1293.1325	1318.8495	1385.3727	1460.8748	1477.0616	1525.9319	1858.2375	1913.03	3057.266	3069.7267	3121.5164	3161.3294
O=C1COC(=O)OCO1	O=C1COC(=O)OCO1	
InChI=1S/C4H4O5/c5-3-1-7-4(6)9-2-8-3/h1-2H2	InChI=1S/C4H4O5/c5-3-1-7-4(6)9-2-8-3/h1-2H2
