19
gdb 50148	3.96646	1.00746	0.92651	3.0461	83.68	-0.2281	-0.0261	0.2019	1302.7022	0.159082	-385.89838	-385.890008	-385.889064	-385.932479	31.602	
O	-0.6758061469	 0.4874440675	 0.1186745987	-0.251132
C	-0.1402270658	 1.5476154175	-0.0715825786	 0.159531
C	 1.3532924014	 1.8098142183	 0.0506854655	-0.11724
C	 1.8951772241	 2.654033802	-1.1435865357	-0.345993
C	 2.1448183393	 4.0642279567	-0.5809536682	 0.357027
C	 3.1418562071	 5.0113543405	-1.2082965543	-0.314479
C	 1.6706978335	 5.3174916278	-1.2925031066	-0.310897
C	 2.0089264692	 3.9254169307	 0.8898351054	-0.124979
C	 1.6072891047	 2.7061472249	 1.2502092142	-0.117145
H	-0.7296694291	 2.4553102069	-0.3444266116	 0.073896
H	 1.8432484524	 0.8355098825	 0.1418990945	 0.094605
H	 2.8282486269	 2.2104857892	-1.5031962112	 0.117101
H	 1.1988499237	 2.6633698998	-1.9887605475	 0.106983
H	 3.7585806762	 5.616661755	-0.5518753726	 0.114909
H	 3.6466453337	 4.6771635701	-2.1093507828	 0.115255
H	 1.1744009135	 5.1909065119	-2.2493775669	 0.116369
H	 1.2774771695	 6.1301855547	-0.6906694978	 0.115408
H	 2.223592055	 4.7423717426	 1.5708708246	 0.101603
H	 1.4273940615	 2.3696248714	 2.264147931	 0.109177
31.6226	68.9209	177.279	268.0612	302.5816	325.6018	358.5032	410.6238	543.6154	558.0005	766.3452	774.0994	780.5628	799.6917	841.8621	903.035	924.2294	935.0448	944.9961	973.4445	983.0046	1000.2972	1058.0299	1070.5034	1074.5248	1097.3845	1125.9258	1191.4111	1215.6589	1244.1583	1284.1323	1289.8684	1299.1996	1321.9927	1403.9829	1420.7037	1465.8053	1487.5938	1498.521	1670.3127	1831.153	2850.3776	3044.2066	3062.1859	3086.444	3122.157	3126.3337	3182.9176	3201.5271	3213.2037	3217.431
O=CC1CC2(CC2)C=C1	O=C[C@H]1CC2(CC2)C=C1	
InChI=1S/C8H10O/c9-6-7-1-2-8(5-7)3-4-8/h1-2,6-7H,3-5H2	InChI=1S/C8H10O/c9-6-7-1-2-8(5-7)3-4-8/h1-2,6-7H,3-5H2/t7-/m1/s1
