21
gdb 103907	3.31785	0.82082	0.74923	3.8956	81.09	-0.2398	-0.0145	0.2253	1584.8203	0.178823	-424.214498	-424.20406	-424.203115	-424.25066	37.149	
C	 0.3547654342	 1.1427980141	 0.3479078802	-0.247811
O	-0.1699956103	-0.0509459977	-0.2013963343	-0.278029
C	 0.5237602941	-0.5447340089	-1.3145770175	 0.424028
C	 0.3322178003	 0.2488387665	-2.5887635204	-0.455257
C	 1.833033996	-1.24822832	-1.0410180339	-0.353373
C	 0.5834915784	-2.0487994736	-1.3820757783	-0.085524
C	-0.0947354364	-2.9092243653	-0.3331831946	-0.298756
C	 0.6644694742	-4.1916815187	-0.0740774187	 0.167338
O	 0.1812385089	-5.2948483722	-0.0796014688	-0.24393
H	 1.4176775707	 1.0372869909	 0.6068249352	 0.108689
H	 0.2457558121	 1.9971733907	-0.3338504993	 0.112797
H	-0.215583505	 1.3482328356	 1.2567490944	 0.129426
H	 0.7590986549	 1.2541339423	-2.5076495423	 0.12054
H	 0.8217069532	-0.2486015137	-3.4305149217	 0.120376
H	-0.7337090026	 0.3474404219	-2.8183732168	 0.128875
H	 2.6326355268	-1.1870766714	-1.7713572261	 0.114738
H	 2.1672322539	-1.2717340357	-0.0086882096	 0.11681
H	 0.5526061173	-2.4625626315	-2.3867402214	 0.095639
H	-0.1418641654	-2.3436158313	 0.6060409967	 0.132358
H	-1.1197492341	-3.1636545131	-0.6189023675	 0.120798
H	 1.7509032989	-4.0441290486	 0.1299515947	 0.070268
53.6609	68.9685	111.1337	140.8489	180.9222	195.0662	223.99	274.1924	304.8619	369.1711	406.5146	462.07	514.2741	599.1809	690.8097	779.6141	833.2776	877.8332	922.8589	937.9957	962.1192	1039.3392	1050.8213	1090.8987	1109.4158	1112.8855	1126.08	1162.0572	1181.7829	1220.0265	1223.4994	1271.6684	1291.3851	1309.3482	1406.7437	1420.8019	1427.5504	1459.8578	1474.4297	1479.6727	1484.0707	1495.1125	1506.9277	1511.7662	1833.0701	2859.2255	2996.0782	3035.4859	3038.197	3049.7654	3096.4865	3099.9528	3115.59	3118.7182	3129.325	3140.4632	3216.1577
COC1(C)CC1CC=O	CO[C@@]1(C)C[C@H]1CC=O	
InChI=1S/C7H12O2/c1-7(9-2)5-6(7)3-4-8/h4,6H,3,5H2,1-2H3	InChI=1S/C7H12O2/c1-7(9-2)5-6(7)3-4-8/h4,6H,3,5H2,1-2H3/t6-,7+/m1/s1
