23
gdb 83985	2.20971	1.56756	1.27689	0.347	91.51	-0.2247	0.0252	0.25	1152.486	0.208597	-351.156418	-351.147863	-351.146919	-351.189281	34.128	
C	-0.5510894935	 1.0874068764	-0.2476306973	-0.409768
C	-0.0570591036	-0.312424888	 0.0501751481	-0.01727
C	 0.6818394443	-1.1965043335	-0.9297971081	-0.037372
C	 0.9415928784	-0.9107748029	-2.4021387016	-0.215642
C	 1.6249961447	 0.3962826921	-2.8185520741	-0.205442
C	 3.0464621911	 0.5793584875	-2.2639356229	-0.239038
C	 3.1449429353	 0.9387436248	-0.8014103823	-0.072965
C	 2.4685141532	 0.4231769836	 0.2280538675	-0.044702
C	 1.4299352418	-0.6326754964	 0.2598553259	-0.09542
H	 0.2402460015	 1.7331616942	-0.6336041454	 0.128305
H	-1.3703823231	 1.078671222	-0.9757612065	 0.111907
H	-0.9326402136	 1.5549266016	 0.6668491503	 0.11169
H	-0.7243288175	-0.8580030209	 0.7136791045	 0.07942
H	 0.433214763	-2.2483371916	-0.7976447148	 0.079733
H	 1.5590241828	-1.7363203106	-2.7844856224	 0.095238
H	-0.015614155	-0.9904156369	-2.9357815403	 0.094491
H	 1.682566541	 0.3952891902	-3.9144947587	 0.090162
H	 1.013805898	 1.2631574182	-2.5502026159	 0.103427
H	 3.6236405724	-0.3376422264	-2.4601689422	 0.105739
H	 3.5466942071	 1.3649387242	-2.8416907023	 0.09525
H	 3.8807002638	 1.7055515304	-0.5654897513	 0.079596
H	 2.7097458572	 0.8152828446	 1.2164784579	 0.079298
H	 1.6093214207	-1.3454963927	 1.0632574118	 0.083364
84.6771	153.1294	171.8942	229.6396	293.9052	345.0309	361.0622	376.0239	471.5197	517.5784	620.9785	702.347	720.83	756.373	774.4098	818.6766	843.557	890.766	922.6272	937.0862	989.5086	1006.0682	1010.0758	1049.7896	1088.6787	1103.5473	1105.6031	1127.5401	1155.4092	1163.9963	1200.0362	1247.8283	1277.0752	1282.7259	1308.3941	1372.1087	1377.5028	1383.2583	1393.8052	1404.2592	1420.8452	1439.9069	1455.959	1478.7609	1484.6681	1490.8087	1503.4809	1510.4553	1729.2162	2989.5616	2997.3581	3023.4532	3029.9826	3031.7043	3052.4065	3081.9074	3085.6834	3099.5044	3106.1685	3112.9921	3121.1464	3134.1663	3144.1802
CC1C2CCCC=CC12	C[C@H]1[C@H]2CCCC=C[C@@H]12	
InChI=1S/C9H14/c1-7-8-5-3-2-4-6-9(7)8/h3,5,7-9H,2,4,6H2,1H3	InChI=1S/C9H14/c1-7-8-5-3-2-4-6-9(7)8/h3,5,7-9H,2,4,6H2,1H3/t7-,8+,9-/m1/s1
