18
gdb 19404	3.12389	2.13042	1.61009	2.0919	71.4	-0.2299	0.0719	0.3018	861.7236	0.154619	-343.907065	-343.899771	-343.898826	-343.938202	28.628	
C	-0.2050081886	 1.573617973	-0.0364402224	-0.407648
C	 0.0649972209	 0.0805280714	 0.0208392294	-0.025708
N	 0.9916950066	-0.5015019244	-1.0298293523	-0.144537
C	 2.3570236877	-0.0190708352	-0.739466384	-0.245731
C	 1.8212247199	-1.1154039571	 0.0898881188	-0.100421
C	 0.906877012	-0.5464282401	 1.1467133489	 0.350184
C	 1.1860746848	-0.0799995248	 2.5228079403	-0.312225
N	 0.4050046758	-1.3127060932	 2.2755290629	-0.375357
H	 0.7051315047	 2.1682358525	 0.0798473081	 0.120158
H	-0.6666572828	 1.8375570078	-0.9934707172	 0.131543
H	-0.8970700063	 1.8669022631	 0.7607429087	 0.116567
H	-0.8808396217	-0.4652835158	-0.0767068294	 0.0904
H	 3.0586711072	-0.2716920986	-1.5285195005	 0.12277
H	 2.5099333389	 0.9626934449	-0.2986522736	 0.111883
H	 2.1747252345	-2.1400348517	 0.0515902609	 0.10629
H	 2.1627686601	-0.2409030573	 2.9716050644	 0.120356
H	 0.664968237	 0.8067796882	 2.8762970582	 0.111535
H	-0.5881550708	-1.1358719926	 2.4122133987	 0.229943
143.0725	198.4757	200.7257	268.5427	307.5819	373.7662	491.5048	547.85	571.155	726.6872	769.6609	777.4575	863.0693	882.9347	901.3091	941.7325	971.6043	1007.7036	1036.1704	1049.3709	1093.7748	1101.3176	1109.2647	1115.1283	1125.7569	1169.035	1212.9243	1258.8198	1275.564	1287.8749	1326.2083	1369.395	1407.7191	1436.9518	1487.2219	1493.6726	1504.7667	1517.0689	3033.2926	3037.3216	3099.7272	3101.8406	3111.0005	3118.2426	3174.6095	3186.6731	3200.261	3484.296
CC1N2CC2C11CN1	C[C@H]1N2C[C@H]2[C@]21CN2	
InChI=1S/C6H10N2/c1-4-6(3-7-6)5-2-8(4)5/h4-5,7H,2-3H2,1H3	InChI=1S/C6H10N2/c1-4-6(3-7-6)5-2-8(4)5/h4-5,7H,2-3H2,1H3/t4-,5+,6-,8?/m1/s1
