18
gdb 18022	4.29203	1.43688	1.29658	1.8312	67.1	-0.2395	0.0725	0.312	982.5719	0.154231	-384.89204	-384.884379	-384.883435	-384.924639	28.409	
O	-0.0431150893	 1.39707095	-0.2549280045	-0.422457
C	 0.0407451474	-0.0152171557	-0.1190945673	-0.100427
C	-1.3747403443	-0.5364092459	 0.0323811591	 0.037312
C	-2.3064492318	-0.5170050865	-1.2231720365	-0.249305
C	-2.560827837	-2.0301402377	-1.0424379531	 0.125095
O	-1.6562020019	-2.8475965839	-1.8164351116	-0.291691
C	-0.7634855468	-3.0060949473	-0.6901955408	-0.082149
C	-1.6103065762	-2.0688542547	 0.1899066973	-0.12096
H	 0.8346224008	 1.7331304755	-0.4579198145	 0.286974
H	 0.5210466051	-0.4648721937	-1.0017196593	 0.090368
H	 0.6400038426	-0.298591973	 0.7630186827	 0.082552
H	-1.8368405211	 0.0015028576	 0.8654066143	 0.085573
H	-3.1905560237	 0.1153204629	-1.1129707541	 0.102121
H	-1.8153713386	-0.2785404075	-2.1696071145	 0.110792
H	-3.5869565271	-2.4065049537	-1.0681642762	 0.073495
H	-0.7490485737	-4.0464810339	-0.3393882216	 0.099125
H	 0.2643003179	-2.7035206154	-0.9241315829	 0.098959
H	-1.8866255021	-2.433236017	 1.1787453038	 0.074623
53.0462	101.6818	192.2746	256.231	298.0856	367.6447	415.8836	479.2719	662.7749	762.2414	782.029	859.038	875.7423	924.2844	945.0321	981.9392	1005.514	1016.1561	1056.0422	1080.3757	1093.4874	1111.7983	1150.5776	1172.3849	1187.6168	1207.5677	1240.2299	1264.8042	1269.2185	1285.039	1304.5926	1328.8894	1356.8809	1370.3102	1459.9358	1465.0139	1519.7674	1525.7273	2954.6422	2992.5901	3007.9218	3050.7201	3060.6913	3064.4902	3073.075	3113.455	3122.92	3830.0896
OCC1CC2OCC12	OC[C@H]1C[C@H]2OC[C@@H]12	
InChI=1S/C6H10O2/c7-2-4-1-6-5(4)3-8-6/h4-7H,1-3H2	InChI=1S/C6H10O2/c7-2-4-1-6-5(4)3-8-6/h4-7H,1-3H2/t4-,5+,6-/m1/s1
