17
gdb 45278	2.83863	1.69455	1.25237	2.4377	72.71	-0.2438	-0.0293	0.2146	998.3655	0.136309	-421.788296	-421.78108	-421.780136	-421.820123	28.145	
O	-0.053668485	-0.0165346341	-0.0492771055	-0.30159
C	-0.0303597319	 1.1803734017	-0.0055438456	 0.315733
C	-1.1257166824	 2.2742516529	 0.0761980731	-0.362425
C	-0.0429538766	 3.3551166679	-0.23443903	-0.086768
C	 0.5367762999	 4.1164549077	 0.9862156283	-0.254613
C	 1.5696916414	 2.9836269877	 1.171706955	 0.088483
O	 2.8290980603	 3.2142350369	 0.5110349546	-0.289346
C	 2.4862692186	 2.3316714408	-0.5902479707	-0.189823
C	 1.0512031322	 2.2242116143	-0.1053459025	 0.180055
H	-1.8925078601	 2.1585625066	-0.6950465075	 0.138302
H	-1.6223953589	 2.3545625467	 1.0476352042	 0.129531
H	-0.1927726987	 3.8962275912	-1.1686802614	 0.082285
H	 1.0202336214	 5.0664962989	 0.7483128199	 0.121395
H	-0.1594141	 4.2685265646	 1.816372435	 0.104673
H	 1.6950087559	 2.5148195085	 2.1522807939	 0.089818
H	 2.6483891786	 2.8017646028	-1.5665678245	 0.112481
H	 3.0471372055	 1.3896439249	-0.5388085864	 0.121809
94.0188	135.3378	251.9899	277.2574	406.496	413.5758	492.003	561.2435	630.2899	701.0355	778.9315	786.2383	845.2743	874.2915	905.2896	971.544	982.3024	997.2591	1023.8801	1037.5571	1068.6098	1094.7633	1115.0623	1138.5779	1174.4425	1189.9713	1216.0553	1221.4023	1268.6855	1289.0392	1297.6835	1331.7657	1363.2854	1433.9609	1465.6414	1514.2361	1876.8521	3016.5377	3054.2354	3058.8902	3066.893	3068.7617	3104.8291	3114.6268	3122.2732
O=C1CC2CC3OCC123	O=C1C[C@H]2C[C@@H]3OC[C@]123	
InChI=1S/C7H8O2/c8-5-1-4-2-6-7(4,5)3-9-6/h4,6H,1-3H2	InChI=1S/C7H8O2/c8-5-1-4-2-6-7(4,5)3-9-6/h4,6H,1-3H2/t4-,6-,7+/m0/s1
