13
gdb 5210	9.0929	1.04194	0.94032	1.5331	75.02	-0.2273	-0.0281	0.1992	1190.0765	0.095766	-361.472352	-361.464961	-361.464017	-361.505971	25.207	
C	-0.0899401882	 1.433110018	 0.0108277002	-0.512807
C	-0.0144759958	-0.0174837877	 0.00265461	 0.289873
C	 0.0538687345	-1.2210309725	-0.0041366728	-0.082919
C	 0.1350471108	-2.627048778	-0.0120929918	 0.192367
N	 1.1967963654	-3.3836994018	-0.0224740528	-0.311102
C	 0.7044251709	-4.6754215394	-0.0264039582	-0.121734
C	-0.6506793225	-4.6369784269	-0.018074217	-0.039744
O	-1.0365361067	-3.3329556098	-0.0088452527	-0.165126
H	 0.9120172634	 1.8748206558	 0.0035949375	 0.162148
H	-0.6284812193	 1.8055767888	-0.8675038716	 0.158803
H	-0.6116899104	 1.7965023052	 0.902990962	 0.158801
H	 1.3583938701	-5.5327320856	-0.0348832324	 0.124896
H	-1.4356324722	-5.3734554062	-0.0172878403	 0.146543
16.4439	97.2707	109.0697	285.7676	324.8867	467.7608	488.1159	540.8568	627.4152	749.8726	772.4326	868.1448	923.0474	939.6686	1020.5348	1049.241	1051.5297	1119.0113	1142.7397	1164.8179	1268.3697	1384.9891	1410.9915	1471.3415	1473.1652	1532.6171	1586.7591	2366.4571	3030.0718	3091.4604	3098.5213	3263.8243	3299.3815
CC#CC1=NC=CO1	CC#Cc1ncco1	
InChI=1S/C6H5NO/c1-2-3-6-7-4-5-8-6/h4-5H,1H3	InChI=1S/C6H5NO/c1-2-3-6-7-4-5-8-6/h4-5H,1H3
