14
gdb 17715	6.86307	1.49858	1.4415	3.8752	62.15	-0.2431	0.0086	0.2517	844.3197	0.107319	-382.476628	-382.470325	-382.469381	-382.506956	24.437	
O	 0.0050532914	 1.47184297	-0.0461220707	-0.435837
C	 0.0559457818	 0.0700290253	-0.0028689162	 0.101886
C	 0.0079786027	-0.6325714052	 1.3718963838	-0.079114
C	-1.5221835967	-0.277656541	 1.5600951423	-0.194537
C	-1.3178781829	-0.60397353	 0.0263421688	-0.048246
C	-0.7313703422	-1.880317366	 0.747169687	-0.210767
C	-1.8107778174	-1.7524848426	 1.8198228143	 0.449482
O	-2.5022364431	-2.4452736606	 2.5011885567	-0.330322
H	 0.9038216128	 1.8147079883	-0.0275850521	 0.288224
H	 0.7802833843	-0.3341866162	-0.7239811115	 0.07362
H	 0.7467247383	-0.6776725406	 2.1722490563	 0.091007
H	-1.9298536783	 0.6369296821	 1.9799844453	 0.104524
H	-2.1045432567	-0.6095893037	-0.7271419585	 0.095502
H	-0.2668256242	-2.7401211398	 0.2693065247	 0.094579
146.8297	184.4448	263.762	365.869	442.3408	552.6459	681.2393	700.6011	794.22	800.6262	814.2157	828.9716	908.1302	927.2716	963.1646	1002.3751	1016.1953	1086.7037	1109.2226	1116.1505	1131.3494	1135.9778	1163.861	1183.5281	1207.2568	1235.9019	1280.2724	1311.1637	1443.2106	1915.8702	3005.8094	3115.1753	3125.5812	3149.1534	3173.7247	3824.9682
OC1C2C3C1C2C3=O	O[C@H]1[C@H]2[C@H]3[C@@H]1[C@@H]2C3=O	
InChI=1S/C6H6O2/c7-5-1-2-4(5)3(1)6(2)8/h1-5,7H	InChI=1S/C6H6O2/c7-5-1-2-4(5)3(1)6(2)8/h1-5,7H/t1-,2-,3+,4+,5-
