15
gdb 50879	5.68142	0.61461	0.56423	3.2225	68.98	-0.3048	-0.0437	0.2611	1805.5818	0.110683	-453.985887	-453.976575	-453.975631	-454.021612	31.279	
N	-0.0632717047	 1.539864072	-0.1296925501	-0.485664
C	-0.0106530931	 0.2806062018	-0.1450836841	 0.408625
C	-1.2097185236	-0.5992813446	 0.0699206122	-0.277334
C	-2.5093375363	 0.2057916518	 0.2235311796	-0.335697
C	-3.6632154668	-0.6650065999	 0.4332747576	 0.25637
N	-4.5669724062	-1.365088799	 0.5999885433	-0.297647
O	 1.1121023989	-0.4987967758	-0.3961580018	-0.201568
C	 2.322179873	-0.1208499812	 0.1215584006	 0.158585
O	 3.3327700738	-0.6632682588	-0.1884812196	-0.237751
H	 0.8242442597	 1.9918498625	-0.3446536462	 0.240994
H	-1.2792678535	-1.2955032018	-0.7731516602	 0.162624
H	-1.032487372	-1.2238037222	 0.9531121031	 0.154852
H	-2.4238628271	 0.9019959777	 1.0628671478	 0.172441
H	-2.6771503914	 0.8212768489	-0.6653239775	 0.17147
H	 2.2296349593	 0.6961310787	 0.8565805853	 0.109699
53.1556	66.0497	85.7517	134.2793	153.9141	232.0581	283.1927	355.6235	393.84	506.5869	543.1371	577.2356	702.163	782.1877	895.1154	926.1473	965.4793	1037.8682	1040.2974	1050.1433	1063.0257	1118.8203	1193.553	1228.8742	1304.5678	1314.4663	1401.9832	1417.6629	1457.4981	1468.8023	1754.747	1882.5112	2366.5888	3004.7095	3051.4748	3071.6318	3082.9512	3111.9527	3504.1888
N=C(CCC#N)OC=O	[NH][C](CCC#N)OC=O	
InChI=1S/C5H6N2O2/c6-3-1-2-5(7)9-4-8/h4,7H,1-2H2	InChI=1S/C5H6N2O2/c6-3-1-2-5(7)9-4-8/h4,7H,1-2H2
