15
gdb 126857	2.94092	1.58449	1.1173	2.1959	70.22	-0.2619	-0.1007	0.1612	1054.2685	0.113423	-450.129164	-450.121389	-450.120444	-450.162058	28.059	
C	 0.0621411803	 1.5306866316	 0.0827859194	-0.390144
C	-0.0588071407	 0.0152560635	-0.0726992988	-0.132799
N	 0.6782095493	-0.4822821434	-1.2438171925	-0.04937
N	-0.0504568432	-0.7471226827	-2.3171504208	-0.039546
N	 0.5267796745	-1.1754484944	-3.380798681	-0.205461
C	 1.8924540462	-1.3409841236	-3.3237664919	 0.120682
N	 2.6802427537	-1.1121181874	-2.3219760837	-0.293436
C	 2.0966829879	-0.6290595599	-1.1641843124	 0.483353
O	 2.6773125108	-0.3422245496	-0.1462456171	-0.36611
H	 1.1054018295	 1.8209202465	 0.2216783752	 0.159427
H	-0.342647927	 2.0453619894	-0.7932434461	 0.134512
H	-0.5048291347	 1.8504347852	 0.961534949	 0.133347
H	 0.3565056837	-0.495192779	 0.798371601	 0.152212
H	-1.0950314529	-0.2924155421	-0.2205630667	 0.14024
H	 2.3279627227	-1.7142071541	-4.2482440835	 0.153093
76.4622	90.6817	170.8758	226.6451	324.5557	345.7526	441.0062	528.2314	567.9687	590.4619	639.7516	734.7379	794.9076	822.171	930.4809	969.7827	992.905	1016.396	1095.2226	1117.9156	1153.7727	1223.5349	1277.9792	1355.9513	1388.4847	1407.6302	1420.708	1454.3925	1473.6152	1491.2412	1507.6624	1615.073	1821.9574	3051.6651	3085.5711	3122.8516	3135.9304	3153.9752	3167.8664
CCN1N=NC=NC1=O	CCn1nncnc1=O	
InChI=1S/C4H6N4O/c1-2-8-4(9)5-3-6-7-8/h3H,2H2,1H3	InChI=1S/C4H6N4O/c1-2-8-4(9)5-3-6-7-8/h3H,2H2,1H3
