20
gdb 6469	3.68301	1.28872	1.17456	1.6259	70.83	-0.2539	0.0703	0.3242	1099.5284	0.175377	-386.125256	-386.11614	-386.115195	-386.158486	34.305	
C	-0.5793552829	 1.7203843079	 0.0351975628	-0.45487
C	-0.0539101318	 0.2883099276	 0.0388856146	 0.339929
C	-1.1853239654	-0.7057611437	-0.2154650148	-0.118095
O	-1.7166170518	-0.4588005617	-1.5099728886	-0.424379
C	 1.1846726376	-0.0072333554	-0.8661094958	-0.297965
C	 1.8069894916	-0.8200192606	 0.2994942325	 0.176297
O	 3.1869651357	-0.7354029388	 0.5553250609	-0.43634
C	 0.8013252897	-0.1446619725	 1.2711647925	-0.323437
H	 0.2328080828	 2.4375225696	 0.192832559	 0.099815
H	-1.0652034724	 1.9521434948	-0.9165553601	 0.135203
H	-1.3163091351	 1.8699702156	 0.8339176161	 0.106862
H	-0.8075444035	-1.7375269139	-0.1379298721	 0.084731
H	-1.9572135461	-0.5805956855	 0.5623540948	 0.083264
H	-2.434272102	-1.078892888	-1.66680212	 0.288217
H	 1.0033279533	-0.5128929986	-1.8165852177	 0.110172
H	 1.7625806494	 0.904062029	-1.0578934904	 0.083864
H	 1.6034866955	-1.8893201795	 0.1956852374	 0.090003
H	 3.4176880374	 0.1968130149	 0.628103554	 0.273905
H	 1.2542688611	 0.7246448595	 1.7609196104	 0.088234
H	 0.3281395668	-0.7658440407	 2.0380136744	 0.094589
89.3472	125.8958	206.2378	211.4265	242.9141	292.8563	301.3182	329.4013	354.5279	408.2541	458.3376	490.1323	605.774	739.6438	826.0049	876.4239	894.5499	944.3373	966.03	990.2226	1007.2225	1061.507	1080.7057	1091.517	1117.0424	1155.1885	1203.7937	1216.5127	1243.3503	1257.1529	1282.7346	1304.3872	1327.3228	1339.3515	1401.8479	1439.4414	1456.1908	1468.9807	1486.1882	1493.5568	1502.3991	1518.7487	2958.3347	2990.7639	3023.4117	3035.7335	3043.7934	3070.1225	3085.978	3093.9422	3115.2298	3117.3514	3804.487	3833.6885
CC1(CO)CC(O)C1	C[C@@]1(CO)C[C@@H](O)C1	
InChI=1S/C6H12O2/c1-6(4-7)2-5(8)3-6/h5,7-8H,2-4H2,1H3	InChI=1S/C6H12O2/c1-6(4-7)2-5(8)3-6/h5,7-8H,2-4H2,1H3/t5-,6-
