17
gdb 15685	3.26736	1.75936	1.26421	1.785	65.33	-0.2684	0.0199	0.2883	978.6307	0.142697	-401.018197	-401.010274	-401.00933	-401.050958	28.399	
C	 0.1355715354	 1.5202536412	 0.0687201411	-0.389262
C	 0.1308706302	-0.0076500294	-0.0036825634	-0.18533
C	 0.548986008	-0.52945045	-1.3826624167	 0.023355
O	 1.888732809	-0.1688323408	-1.7369305195	-0.255357
C	 2.6977888749	-1.279062669	-1.4649584588	 0.015942
O	 1.8715844834	-2.4382831548	-1.571298375	-0.234776
C	 0.5699932171	-2.0445724435	-1.4559739839	 0.388129
N	-0.437673993	-2.7990134547	-1.4109422101	-0.538536
H	 1.1268194556	 1.9166288646	-0.1684531282	 0.131366
H	-0.5766983146	 1.9505464889	-0.6438945379	 0.11877
H	-0.1413798704	 1.8660558887	 1.0686876387	 0.116594
H	 0.8014700184	-0.4264676261	 0.7573541394	 0.098839
H	-0.8665978672	-0.4095444868	 0.2048699945	 0.129484
H	-0.1129212665	-0.1207032258	-2.1524358503	 0.117205
H	 3.4970849247	-1.3391046128	-2.2091824921	 0.129869
H	 3.123961202	-1.2454964147	-0.4497647312	 0.105795
H	-0.1651581371	-3.7817895249	-1.4557687367	 0.227911
77.3513	113.4541	167.5538	178.5875	228.2304	309.4951	400.7121	500.1297	638.019	673.3483	752.5412	773.9632	873.7458	887.5192	924.7468	963.8772	998.1437	1035.249	1075.9742	1096.5758	1134.9365	1146.1604	1179.9775	1219.4874	1276.1835	1286.9703	1311.4092	1353.9884	1389.2949	1408.2787	1445.9493	1479.2665	1496.3269	1508.	1548.2219	1794.126	2978.2078	3030.068	3038.0703	3065.4412	3080.9783	3087.4542	3106.6536	3120.6156	3481.4432
CCC1OCOC1=N	CC[C@H]1OCO[C]1[NH]	
InChI=1S/C5H9NO2/c1-2-4-5(6)8-3-7-4/h4,6H,2-3H2,1H3	InChI=1S/C5H9NO2/c1-2-4-5(6)8-3-7-4/h4,6H,2-3H2,1H3/t4-/m1/s1
