21
gdb 72539	2.55896	1.68694	1.67214	1.9962	76.92	-0.2443	0.0742	0.3185	983.5333	0.184725	-424.252894	-424.244953	-424.244009	-424.285461	31.646	
C	-0.0485612103	 1.5114575058	 0.0721133093	-0.438579
C	 0.0169760309	-0.0000751751	-0.025322224	 0.44942
C	 0.7314135493	-0.5161482907	-1.288014042	-0.234755
C	 0.7271670155	-2.0688629958	-1.2530343972	-0.222741
C	 0.0019965347	-2.4973006849	 0.0327478942	-0.069266
C	 0.7354135585	-1.8870221332	 1.2299093222	-0.059998
O	 0.7099349006	-0.458961164	 1.1295560128	-0.297323
C	-1.4084662102	-1.9024940351	 0.0156597135	-0.06023
O	-1.3246962896	-0.4734480634	-0.0152014614	-0.297216
H	 0.9600971103	 1.9301176671	 0.0943600129	 0.12115
H	-0.5900907775	 1.9198478265	-0.7841274619	 0.121025
H	-0.5702038704	 1.7923213927	 0.9892982254	 0.130673
H	 0.2106583463	-0.1329030261	-2.1699379811	 0.104405
H	 1.7495774583	-0.1176264117	-1.3059175632	 0.104418
H	 0.2164895856	-2.4825195924	-2.1282581668	 0.098978
H	 1.7466165987	-2.467131244	-1.2598509614	 0.099025
H	-0.0448847211	-3.5861328488	 0.1295035787	 0.069854
H	 0.2545198615	-2.1774885205	 2.1741903241	 0.097605
H	 1.780980535	-2.2239207626	 1.2663721352	 0.092963
H	-1.9719693685	-2.2471631405	-0.8629149041	 0.092772
H	-1.9696685675	-2.1973324032	 0.9130094149	 0.097816
43.4859	191.5586	258.4161	269.654	328.1421	335.5412	408.9572	458.937	533.4885	574.0835	593.5752	737.8391	807.768	826.0875	858.9876	883.6391	923.5366	946.8158	952.9842	954.7154	1015.177	1018.6984	1073.3174	1087.5593	1138.8015	1152.4981	1195.3118	1212.2949	1218.4977	1225.3323	1238.358	1274.5856	1312.2271	1350.5157	1356.744	1373.2716	1394.5585	1408.0554	1418.8907	1474.8649	1483.2269	1488.4911	1501.1915	1520.302	1533.8241	2991.6604	2995.3887	3023.8449	3028.9322	3041.1945	3055.2924	3060.6007	3069.5004	3077.6187	3105.1133	3139.0691	3142.0017
CC12CCC(CO1)CO2	C[C@@]12CC[C@@H](CO1)CO2	
InChI=1S/C7H12O2/c1-7-3-2-6(4-8-7)5-9-7/h6H,2-5H2,1H3	InChI=1S/C7H12O2/c1-7-3-2-6(4-8-7)5-9-7/h6H,2-5H2,1H3/t6-,7+
