17
gdb 72682	2.32912	1.50331	1.46313	3.5644	73.48	-0.2403	0.0059	0.2462	1014.9569	0.1364	-417.981064	-417.972857	-417.971913	-418.013836	31.355	
O	 0.1689259343	 1.3988332995	-0.2341891973	-0.453313
C	 0.0609413269	 0.0365873918	-0.038066343	 0.35043
C	 0.6515624144	-0.9424979562	-1.0902246236	-0.29827
C	-0.706717477	-1.7026983296	-1.191492779	-0.249324
C	-1.2895757488	-0.8309060394	-0.0487862692	 0.137892
N	-0.9039826629	-1.3610398072	 1.2891995802	-0.36281
C	 0.2050907836	-0.3757851984	 1.4341480961	-0.201985
C	-2.6069665395	-0.2623589602	-0.1774297592	 0.192408
N	-3.656187286	 0.2159589313	-0.2820535626	-0.343304
H	 0.0899512551	 1.5957206416	-1.1740861469	 0.290247
H	 0.9417400943	-0.4385597486	-2.0169946805	 0.104589
H	 1.5050639747	-1.527117568	-0.73943143	 0.120066
H	-1.2112385402	-1.5450696668	-2.1471790532	 0.118948
H	-0.6898707341	-2.7664780868	-0.9545994053	 0.124115
H	-1.6336744949	-1.2673392266	 1.9859349305	 0.238414
H	 1.1585616106	-0.8196139722	 1.7385676536	 0.110096
H	-0.0269709704	 0.473757296	 2.0860129194	 0.121802
79.8106	117.53	182.1166	268.4029	328.565	351.3249	384.785	397.6295	527.0734	551.2758	603.243	637.5	696.9058	720.1912	752.455	894.1935	939.195	946.1928	956.389	1014.6152	1046.4017	1066.0956	1098.392	1114.2211	1182.9451	1196.1541	1222.8981	1249.4586	1262.0296	1302.7294	1328.5111	1377.1834	1413.5988	1464.226	1482.8097	1511.4137	2336.15	3033.3852	3056.3986	3078.2682	3085.3587	3110.9685	3146.8486	3550.3292	3806.4678
OC12CCC1(NC2)C#N	O[C@]12CC[C@]1(NC2)C#N	
InChI=1S/C6H8N2O/c7-3-5-1-2-6(5,9)4-8-5/h8-9H,1-2,4H2	InChI=1S/C6H8N2O/c7-3-5-1-2-6(5,9)4-8-5/h8-9H,1-2,4H2/t5-,6-/m0/s1
