19
gdb 54550	2.98708	1.55707	1.21001	2.5942	80.39	-0.2353	-0.0177	0.2176	1071.0501	0.158582	-385.835819	-385.827743	-385.826799	-385.869165	30.881	
C	 0.1957120765	 1.1555693635	-0.7668746201	-0.487606
C	-0.1702421848	 0.1993446737	 0.3527560642	 0.243659
O	 0.5353310547	 0.0445130729	 1.3273586439	-0.304157
C	-1.4467735022	-0.568522804	 0.1859258052	 0.280136
C	-2.7120205806	-0.261686553	-0.6458851138	-0.331087
C	-2.9992333616	-1.6314639043	-0.004574048	-0.051802
C	-1.520525955	-2.1164030688	-0.1740354507	-0.068084
C	-1.4026038303	-2.5411468699	 1.3010535528	-0.262946
C	-2.2647228043	-1.2634065509	 1.3332878251	-0.067986
H	 1.1719247325	 1.6008017383	-0.5713703827	 0.140084
H	 0.2079695974	 0.6324408122	-1.7298338252	 0.137114
H	-0.5609343711	 1.9445983642	-0.8481847245	 0.142506
H	-3.3255187404	 0.5812826281	-0.3106794956	 0.096116
H	-2.5985918085	-0.2446219154	-1.7349358131	 0.093612
H	-3.887577527	-2.2584825433	-0.0915225564	 0.075054
H	-1.0890579616	-2.5668137374	-1.0701243851	 0.075369
H	-1.9054556299	-3.4748702662	 1.5729582304	 0.089678
H	-0.4147783711	-2.47309996	 1.7592707709	 0.122967
H	-2.6999765326	-0.7432031497	 2.1875686925	 0.077372
33.9911	138.9677	162.5179	185.1918	317.4075	399.923	422.3489	478.1545	578.2919	616.5025	712.8341	766.7036	857.2748	865.6542	875.613	903.2247	924.5636	931.9081	998.8285	1009.3102	1025.5037	1029.7789	1035.1918	1097.4304	1115.1548	1127.6758	1133.543	1157.6796	1165.2401	1187.9208	1233.6373	1241.0998	1256.2623	1295.1072	1331.6162	1380.4666	1460.3411	1471.9881	1503.9387	1509.4978	1787.6923	3032.6534	3034.1611	3048.512	3089.9487	3092.1291	3093.4259	3101.109	3111.4832	3128.8223	3151.1265
CC(=O)C12CC3C1CC23	CC(=O)[C@@]12C[C@H]3[C@@H]1C[C@@H]23	
InChI=1S/C8H10O/c1-4(9)8-3-5-6(8)2-7(5)8/h5-7H,2-3H2,1H3	InChI=1S/C8H10O/c1-4(9)8-3-5-6(8)2-7(5)8/h5-7H,2-3H2,1H3/t5-,6-,7+,8-
