18
gdb 28775	3.12376	1.6864	1.11021	1.4753	87.04	-0.1904	0.0006	0.191	1081.4864	0.149759	-364.865436	-364.857891	-364.856946	-364.897252	29.696	
C	-0.0200386587	 1.5032338279	 0.08742664	-0.500457
C	-0.0096101144	 0.0152406881	-0.0230833867	 0.263501
C	-0.0276685871	-0.8168289149	-1.1251753965	-0.222734
C	-0.0045963292	-2.1781914012	-0.6823544902	-0.325852
C	 0.0262316321	-2.1445882115	 0.6881693135	 0.344636
C	 0.062467801	-2.9883285515	 1.9334536037	-0.415668
C	 0.0778224348	-1.9281486171	 3.0251867773	-0.138295
C	 0.054053353	-0.7086012698	 2.4734604404	-0.020445
N	 0.022915145	-0.814459561	 1.075148788	-0.049778
H	 0.8736392281	 1.8915666513	 0.5927635055	 0.124836
H	-0.0502519939	 1.9449699812	-0.9112992247	 0.135061
H	-0.8928418766	 1.8755646418	 0.6391109067	 0.124764
H	-0.0545437695	-0.4801153453	-2.1512868281	 0.088462
H	-0.0108026896	-3.0574067581	-1.307972423	 0.092547
H	-0.8079268191	-3.6516237229	 2.0258142134	 0.131439
H	 0.9481146313	-3.6356207924	 1.9855164273	 0.131445
H	 0.1040475266	-2.1417715568	 4.0830670902	 0.107023
H	 0.056024116	 0.2635827323	 2.9440490233	 0.129515
130.385	169.7091	176.3744	243.0309	297.8217	440.5541	499.6875	608.816	616.9465	658.4905	675.1936	713.7337	763.5462	767.7221	798.5099	884.1271	906.7308	939.5939	950.13	986.2248	1023.2164	1046.5729	1062.0762	1141.8118	1143.4531	1192.1901	1225.2654	1269.7322	1307.8871	1335.1581	1405.7298	1416.9926	1455.4529	1460.2181	1479.9743	1503.7108	1543.2025	1607.9169	1659.8445	3012.1447	3016.8312	3037.0055	3054.0715	3120.6977	3234.7733	3238.7549	3253.0038	3261.5959
CC1=CC=C2CC=CN12	Cc1ccc2CC=Cn12	
InChI=1S/C8H9N/c1-7-4-5-8-3-2-6-9(7)8/h2,4-6H,3H2,1H3	InChI=1S/C8H9N/c1-7-4-5-8-3-2-6-9(7)8/h2,4-6H,3H2,1H3
