15
gdb 123368	3.8507	0.99086	0.94974	3.6844	74.02	-0.2149	0.0084	0.2233	1258.702	0.11253	-416.756486	-416.748276	-416.747332	-416.790662	29.895	
C	 0.1762471627	-0.2596344389	-1.1317072718	-0.453461
C	 0.0941097383	 0.4952314793	-0.2005047738	 0.312751
C	 0.0395406727	 1.4046286655	 0.9457521993	-0.326953
N	 1.2868823393	 2.136094086	 1.1907869718	-0.384598
C	 1.6021073664	 3.2320624116	 0.4263104375	 0.535742
C	 2.7918358018	 3.8474082401	 0.1361790093	-0.379865
C	 2.3846252656	 4.9739542249	-0.6177727181	 0.054745
N	 1.088133668	 5.049506261	-0.7857323541	-0.161803
O	 0.5813970598	 3.9156329509	-0.1048614808	-0.218425
H	 0.2353833229	-0.9177425617	-1.9633351199	 0.207198
H	-0.7560261643	 2.1408929755	 0.8084519635	 0.177936
H	-0.2004159829	 0.843086521	 1.854830153	 0.144763
H	 2.0816185914	 1.5382284163	 1.3663565713	 0.255437
H	 3.7855934734	 3.5431041779	 0.4156632143	 0.108148
H	 3.005389205	 5.7442190806	-1.0553468513	 0.128384
34.7176	53.5138	192.996	212.0849	300.18	326.3426	421.7672	566.5749	589.7079	627.892	629.2909	671.8092	707.0627	718.7515	745.7664	890.0921	920.2893	932.1492	934.7995	978.9922	1025.2693	1060.7165	1095.4831	1221.8253	1253.3172	1335.8017	1373.527	1380.8771	1467.9226	1488.3665	1554.3665	1651.7442	2237.2832	3054.4361	3109.7648	3236.257	3283.1656	3504.0986	3605.9282
C#CCNC1=CC=NO1	C#CCNc1ccno1	
InChI=1S/C6H6N2O/c1-2-4-7-6-3-5-8-9-6/h1,3,5,7H,4H2	InChI=1S/C6H6N2O/c1-2-4-7-6-3-5-8-9-6/h1,3,5,7H,4H2
