20
gdb 67042	2.11918	2.07024	1.57941	0.9187	77.69	-0.2263	0.0834	0.3097	980.9717	0.171149	-403.116863	-403.108731	-403.107787	-403.148859	32.301	
C	-0.1723492338	 1.4997571835	-0.1010922798	-0.525033
C	 0.0569207393	 0.0269778951	 0.0155975057	 0.307268
C	 0.8456844089	-0.8621895295	-0.8518492448	-0.104871
C	 1.7069447649	-1.7704726643	 0.0099267606	-0.11305
O	 1.2876847457	-1.5233793436	 1.3544610186	-0.299588
C	 0.0066457297	-0.8982272746	 1.2725989415	 0.337803
C	-0.3928405134	-0.3837364945	 2.630880404	-0.482624
C	-0.9627236444	-1.7800994453	 0.4416492406	-0.206228
N	-0.6439184085	-1.023367945	-0.8170615261	-0.196739
H	 0.641144891	 2.0629996294	 0.3699073491	 0.126572
H	-0.225613127	 1.7933923967	-1.1536632722	 0.133423
H	-1.1108678682	 1.8001429482	 0.3777426151	 0.123555
H	 1.211970697	-0.5321397412	-1.8177814578	 0.099723
H	 1.585040504	-2.8324644346	-0.2461195602	 0.10305
H	 2.7699747571	-1.5200343883	-0.084506165	 0.109683
H	 0.3560692536	 0.3182247027	 3.0100521228	 0.127908
H	-1.3594304193	 0.1256609143	 2.5839150291	 0.120279
H	-0.4731879651	-1.2111352858	 3.3424535255	 0.131108
H	-0.7560829456	-2.855462645	 0.4182494168	 0.101219
H	-2.016490226	-1.6185306182	 0.6831786863	 0.106539
170.9401	191.6128	201.2096	212.6731	254.625	331.0602	345.5289	452.8249	472.3926	575.0145	635.924	670.1325	710.8695	767.189	827.0305	863.8685	907.4919	921.088	940.6807	979.8284	993.4326	1063.7284	1090.7828	1098.3465	1108.495	1145.9926	1156.258	1200.2129	1221.2899	1232.8185	1259.572	1283.2117	1343.6415	1368.531	1406.654	1416.4042	1450.4496	1479.3073	1484.9989	1491.6924	1495.1863	1497.0955	1525.8578	3002.2888	3028.6389	3040.4932	3044.5692	3053.5492	3089.6696	3102.268	3108.7723	3112.7947	3119.4057	3177.3037
CC12C3COC1(C)CN23	C[C@@]12[C@H]3CO[C@]1(C)CN23	
InChI=1S/C7H11NO/c1-6-4-8-5(3-9-6)7(6,8)2/h5H,3-4H2,1-2H3	InChI=1S/C7H11NO/c1-6-4-8-5(3-9-6)7(6,8)2/h5H,3-4H2,1-2H3/t5-,6-,7-,8?/m1/s1
