13
gdb 132384	1.89779	1.80133	0.92461	5.3169	64.34	-0.242	-0.0065	0.2356	1119.4802	0.089538	-502.070813	-502.063674	-502.06273	-502.102357	27.772	
N	-0.0160971398	 1.3924453418	 0.1504375551	-0.589752
C	 0.0019978218	 0.0221161341	 0.053576992	 0.419368
C	-1.1914399886	-0.7177570765	 0.0336196875	-0.376273
C	-1.0822870842	-2.0953158904	-0.0143187169	 0.362306
F	-2.2009415449	-2.8124421249	-0.034958176	-0.070836
N	 0.0396505068	-2.7884745463	-0.0453980871	-0.39175
C	 1.1426121719	-2.0650851394	-0.0263711775	 0.362306
F	 2.2800482059	-2.7515565228	-0.0592376855	-0.070836
C	 1.2148105388	-0.6850623119	 0.0205879898	-0.376273
H	 0.8214628108	 1.8867547013	-0.1112018641	 0.261082
H	-0.8695569411	 1.8637798497	-0.1020575658	 0.261082
H	-2.1643509114	-0.243930785	 0.0586738407	 0.104788
H	 2.1747031439	-0.1849741797	 0.0351765677	 0.104788
205.9869	217.1492	253.0332	320.6915	352.2045	394.0947	441.7942	519.4985	520.2858	611.1661	613.0363	663.8715	681.6388	744.7826	828.578	832.5476	1001.3657	1025.2462	1053.2757	1106.7979	1208.2549	1230.1037	1359.0247	1449.6716	1489.1797	1510.4475	1622.7976	1654.0882	1670.2936	3210.3965	3210.9768	3596.066	3704.4588
NC1=CC(F)=NC(F)=C1	Nc1cc(F)nc(F)c1	
InChI=1S/C5H4F2N2/c6-4-1-3(8)2-5(7)9-4/h1-2H,(H2,8,9)	InChI=1S/C5H4F2N2/c6-4-1-3(8)2-5(7)9-4/h1-2H,(H2,8,9)
