16
gdb 128196	3.87704	1.12546	0.87765	5.4642	78.32	-0.215	-0.0426	0.1724	1267.1065	0.126299	-434.105401	-434.097115	-434.096171	-434.138716	30.356	
C	 0.0149720778	 1.4883743305	-0.0186650811	-0.328467
N	-0.0336944734	 0.0451431378	 0.0959257608	-0.375845
C	-1.1731468359	-0.7077068263	 0.0563066581	 0.394495
C	-1.1480592176	-2.0825506989	 0.008556397	-0.362632
C	-2.3595319227	-2.8538541721	-0.007019486	 0.436659
O	-2.4795527704	-4.0682522186	-0.0467459519	-0.411792
N	-3.5165171005	-2.0426948216	 0.0274161225	-0.26507
N	-3.586752947	-0.7169316838	 0.0671478194	-0.183666
C	-2.4633848864	-0.0612960627	 0.0813143273	-0.059929
H	 1.0593477671	 1.8026954015	 0.0221782441	 0.137374
H	-0.4139911416	 1.8555137692	-0.9609801384	 0.13428
H	-0.5088646789	 1.9761768138	 0.8112701208	 0.142108
H	 0.831793411	-0.4522714843	-0.0282916817	 0.252055
H	-0.2162605346	-2.6363386866	-0.0162692766	 0.101675
H	-4.4032396566	-2.5286902317	 0.0160151389	 0.270465
H	-2.5548757002	 1.0167194237	 0.113474357	 0.118292
56.6247	144.7783	177.1352	215.7479	218.4189	351.8976	400.9417	444.0512	476.0208	560.7914	588.8504	664.526	732.393	739.8526	743.7398	860.7163	868.5849	934.6305	1015.0921	1071.6089	1154.733	1169.1907	1192.6447	1243.8455	1300.8247	1363.7777	1420.9733	1457.0947	1478.7855	1487.8047	1499.3599	1524.4959	1583.9002	1658.3825	1781.9507	3006.7708	3063.1602	3130.0773	3193.6095	3212.4833	3598.6439	3649.7376
CNC1=CC(=O)NN=C1	CNc1cc(=O)[nH]nc1	
InChI=1S/C5H7N3O/c1-6-4-2-5(9)8-7-3-4/h2-3H,1H3,(H2,6,8,9)	InChI=1S/C5H7N3O/c1-6-4-2-5(9)8-7-3-4/h2-3H,1H3,(H2,6,8,9)
