25
gdb 82300	2.15119	1.61552	1.27796	0.2079	90.97	-0.2602	0.0776	0.3377	1174.7371	0.229625	-352.36597	-352.35663	-352.355686	-352.398985	38.03	
C	 0.3228831504	 1.3988612675	-0.4721862245	-0.403965
C	 0.2844476133	-0.0972705768	-0.1438222364	 0.001469
C	 0.9934116188	-0.9813214314	-1.1638416677	-0.034523
C	 2.5010373705	-1.071762642	-1.1530688414	-0.298789
C	 1.6758555855	-2.1140975447	-0.4379852277	-0.035441
C	 1.4173171385	-1.9497898683	 1.0517957846	-0.254335
C	 0.8346764583	-0.5147531625	 1.2736242363	 0.284336
C	 1.9119309874	 0.4365305723	 1.8326165514	-0.431744
C	-0.3180900458	-0.5522485992	 2.292157119	-0.427908
H	 1.3476861686	 1.7769447994	-0.5350972746	 0.115301
H	-0.1555867651	 1.5870992762	-1.4392261572	 0.108014
H	-0.2114680531	 1.9930288254	 0.27722586	 0.109168
H	-0.7713616078	-0.4018792444	-0.1656695588	 0.064767
H	 0.4896812197	-1.1449765148	-2.1115519348	 0.074278
H	 2.9735410838	-1.3782866525	-2.0807148599	 0.105
H	 3.0896267367	-0.361041682	-0.5855727553	 0.108781
H	 1.6737288978	-3.120694015	-0.8428151434	 0.075675
H	 0.6814431256	-2.7012337416	 1.3629772065	 0.090076
H	 2.3115531069	-2.118094313	 1.6637518248	 0.090821
H	 2.7863006683	 0.5295819615	 1.1847597484	 0.115313
H	 1.5129389412	 1.4427082463	 1.9946801019	 0.11111
H	 2.2646908364	 0.0652382939	 2.8012147975	 0.108474
H	 0.0349477118	-0.8800070498	 3.2765418419	 0.107465
H	-0.7693081373	 0.4389467336	 2.4185220817	 0.108469
H	-1.1071967005	-1.2412689581	 1.9730163179	 0.108188
107.5455	188.7072	228.944	237.3124	257.3279	287.6267	297.1813	354.601	359.423	398.1084	419.8725	513.4903	598.0955	618.5399	717.145	766.8157	826.8503	863.4961	874.0192	898.4249	940.5918	949.0414	970.979	989.3975	1017.3564	1033.7467	1056.6219	1073.7611	1082.4238	1104.894	1116.6054	1134.0387	1181.0241	1199.7898	1211.2732	1225.3185	1278.7936	1328.2748	1342.8117	1344.401	1365.502	1395.5587	1401.8675	1407.8089	1432.6235	1478.8587	1484.4965	1492.1653	1495.6621	1498.0239	1502.6464	1513.1992	1513.9247	2994.6848	3018.7456	3023.9912	3029.8035	3037.7904	3056.8321	3084.572	3090.0797	3093.3189	3097.161	3106.3468	3118.225	3136.5058	3148.8781	3161.9828	3217.6738
CC1C2CC2CC1(C)C	C[C@H]1[C@H]2C[C@H]2CC1(C)C	
InChI=1S/C9H16/c1-6-8-4-7(8)5-9(6,2)3/h6-8H,4-5H2,1-3H3	InChI=1S/C9H16/c1-6-8-4-7(8)5-9(6,2)3/h6-8H,4-5H2,1-3H3/t6-,7-,8+/m0/s1
