12
gdb 131225	3.31326	1.27551	0.92096	4.981	71.77	-0.1897	-0.0624	0.1273	1131.119	0.077315	-468.823892	-468.816078	-468.815134	-468.856296	28.561	
O	 0.0847114737	 1.3072631983	 0.0648822975	-0.419211
C	 0.0691351466	-0.0378907399	 0.0189537676	 0.460947
C	 0.0811836883	-0.9191567471	-1.008693682	-0.461125
C	 0.0508402603	-2.2315380142	-0.3757988444	 0.251717
C	 0.0193248203	-2.0758338298	 1.097293041	 0.373532
N	 0.0336955752	-0.6841773937	 1.2444730657	-0.393748
O	-0.0113789213	-2.8980337734	 1.9863337358	-0.385918
N	 0.047569792	-4.4408198752	-1.397616013	-0.232282
N	 0.0499458918	-3.4017456449	-0.9363961508	 0.09867
H	 0.1089880625	 1.6519440009	-0.8343618371	 0.314832
H	 0.1080937768	-0.7085575288	-2.0639830062	 0.116496
H	 0.0172019038	-0.2220192724	 2.138022166	 0.276089
123.4256	142.3141	163.3149	318.5894	333.1897	336.6072	400.2513	455.601	492.9488	520.3516	614.9271	632.6721	669.3984	674.1759	739.2636	799.7427	1015.3157	1123.4112	1179.4247	1196.6368	1242.1653	1320.8662	1451.3802	1511.5551	1679.9839	1815.2972	2204.7066	3274.6684	3677.108	3828.2694
OC1=CC2=C(N1)ON=N2	O[C]1C=C(C(=O)N1)[N][N]	
InChI=1S/C4H3N3O2/c8-3-1-2-4(5-3)9-7-6-2/h1,5,8H	InChI=1S/C4H3N3O2/c5-7-2-1-3(8)6-4(2)9/h1H,(H2,6,7,8,9)
