23
gdb 113860	3.55296	0.81932	0.72774	1.3252	87.1	-0.256	0.078	0.334	1629.7089	0.206007	-388.258649	-388.249026	-388.248082	-388.293865	35.952	
O	-0.1552966725	 1.4391676702	-0.7356102015	-0.420833
C	 0.0134961652	 0.2077553848	-0.0415178648	-0.101607
C	-1.3369560558	-0.4491249199	 0.0651351185	 0.010581
C	-1.8820028386	-1.2820981768	-1.0675138565	-0.300462
C	-1.5136560476	-1.9443571788	 0.2398856321	-0.031892
C	-0.3689707436	-2.9170876296	 0.338287312	 0.051851
C	 0.2566280685	-3.2208444153	 1.7329647919	-0.229758
C	 0.3780022125	-4.710075187	 1.3137171218	-0.209871
C	-0.6725802519	-4.4399860318	 0.2035561013	-0.232943
H	 0.6901987242	 1.8977944074	-0.7352814135	 0.28296
H	 0.7195307952	-0.4477973393	-0.5736923821	 0.081282
H	 0.425911587	 0.3802618756	 0.9660729871	 0.085141
H	-2.0595007489	 0.1706308897	 0.5894315934	 0.08722
H	-2.9283531525	-1.1829034015	-1.3340191891	 0.108715
H	-1.2236588043	-1.4540143831	-1.9139916103	 0.10928
H	-2.3542296104	-2.2192231403	 0.8749903422	 0.074581
H	 0.4241471167	-2.6475281868	-0.3671201555	 0.063287
H	 1.1679337072	-2.6856637728	 2.012742757	 0.091068
H	-0.4818049372	-3.0866081138	 2.5305491562	 0.096827
H	 1.3629669764	-4.9335466293	 0.8930447839	 0.099332
H	 0.1430029529	-5.4702052464	 2.0623500604	 0.094516
H	-1.6874012313	-4.6682678116	 0.5462396511	 0.096753
H	-0.5250368412	-4.9060065135	-0.7738713656	 0.093973
57.3995	83.3237	106.5007	142.6173	187.3613	258.2734	295.293	323.3983	361.8982	452.3295	558.7446	630.8144	750.0963	786.2457	805.918	857.9236	892.5017	910.5896	924.0763	933.0789	951.8225	980.9422	1006.3531	1049.0459	1057.1775	1064.0605	1071.8817	1103.3822	1140.7379	1174.8479	1200.0938	1201.9219	1230.7555	1251.1785	1254.2626	1259.1627	1261.3855	1275.9975	1283.0285	1289.8978	1327.1714	1388.1527	1436.5046	1472.8486	1479.0205	1486.8414	1496.1391	1511.3514	1519.9459	2963.9463	2995.4799	3044.015	3044.5435	3050.0516	3056.0222	3093.5546	3098.853	3112.2249	3117.4402	3126.9871	3143.9102	3211.5081	3823.7014
OCC1CC1C1CCC1	OC[C@H]1C[C@H]1C1CCC1	
InChI=1S/C8H14O/c9-5-7-4-8(7)6-2-1-3-6/h6-9H,1-5H2	InChI=1S/C8H14O/c9-5-7-4-8(7)6-2-1-3-6/h6-9H,1-5H2/t7-,8+/m1/s1
