17
gdb 45734	2.86827	1.62743	1.23983	2.8248	74.3	-0.2283	-0.0357	0.1926	1028.1647	0.136146	-421.833228	-421.825458	-421.824514	-421.866248	29.116	
O	-0.1192877039	 0.0534843406	 0.1293689827	-0.308205
C	-0.1050516398	 1.253278321	 0.0585589087	 0.355363
C	-1.3211404733	 2.183060533	-0.0281627691	-0.384526
C	-0.6887735081	 3.5498695354	-0.0361019298	-0.086404
C	 0.6458428991	 3.5119429753	 0.0072178644	-0.135703
C	 1.1812683143	 2.1186908342	 0.0547533995	 0.32917
C	 2.2644164921	 1.6883979738	 1.0788204349	-0.344755
C	 3.0501596858	 1.2141855322	-0.1556980461	-0.067192
O	 2.0554091016	 1.7636094461	-1.0506970379	-0.319947
H	-1.9117197556	 1.9691970401	-0.9281165021	 0.144425
H	-1.9887073136	 2.0082334621	 0.8247871113	 0.13939
H	-1.2788282742	 4.4589314822	-0.0744440297	 0.109927
H	 1.2999984589	 4.3760518837	-0.0026406085	 0.10725
H	 2.7138285309	 2.5215834313	 1.6215846547	 0.113176
H	 1.9521444066	 0.9120507221	 1.7778293887	 0.126796
H	 4.033449095	 1.6695670056	-0.3176554498	 0.103733
H	 3.1304129242	 0.1269715112	-0.2607855619	 0.117502
50.2029	87.7009	214.494	223.0144	283.2366	431.1237	466.248	542.8638	609.5842	654.3471	728.65	760.8927	781.1079	853.6782	905.1748	930.377	966.8011	982.2794	991.9169	1017.6545	1030.564	1050.576	1132.0501	1155.0901	1160.6523	1201.0119	1210.0136	1255.4228	1261.811	1289.8291	1347.3492	1391.2229	1444.7686	1476.3654	1525.1064	1669.7104	1855.6189	3030.8799	3031.6976	3060.6162	3075.6962	3083.4416	3144.3803	3186.3112	3209.7204
O=C1CC=CC11CCO1	O=C1CC=C[C@]21CCO2	
InChI=1S/C7H8O2/c8-6-2-1-3-7(6)4-5-9-7/h1,3H,2,4-5H2	InChI=1S/C7H8O2/c8-6-2-1-3-7(6)4-5-9-7/h1,3H,2,4-5H2/t7-/m1/s1
