20
gdb 119535	3.00877	1.06079	0.87696	3.4045	80.04	-0.2414	0.0111	0.2525	1388.6167	0.170698	-403.151867	-403.142794	-403.14185	-403.186285	33.732	
C	-0.0052159847	 1.5979337806	-0.0760228395	-0.385255
C	-0.0368898828	 0.0686378461	-0.1104173029	-0.161206
C	-1.4470922455	-0.5027803983	 0.1125271962	-0.313672
C	-1.4573420211	-2.0047734569	 0.1277586748	 0.201003
C	-1.5848147456	-2.8917474705	-1.120440907	-0.324459
C	-2.5654020837	-3.038216814	 0.0014967116	-0.072251
N	-1.9902098629	-3.7951477287	 1.1189834274	-0.345744
C	-0.8987655604	-2.9079910332	 1.224696895	 0.376743
O	 0.0698516754	-2.9121214774	 1.9316581408	-0.346024
H	 1.0081740306	 1.9774698335	-0.2382261699	 0.114523
H	-0.6499135243	 2.0276824417	-0.8513859143	 0.110124
H	-0.3521195143	 1.9798888429	 0.8905600823	 0.116797
H	 0.3458995955	-0.2902785253	-1.0741079269	 0.095943
H	 0.6310428436	-0.339888458	 0.6562274062	 0.129484
H	-1.8431009618	-0.1277976353	 1.0654204962	 0.109143
H	-2.1255240488	-0.1373071971	-0.6695994787	 0.095668
H	-1.9299572578	-2.3622826131	-2.0052603449	 0.121844
H	-0.8669238204	-3.6828688661	-1.3186619231	 0.120891
H	-3.6331308856	-2.8765117454	-0.0659116921	 0.116193
H	-1.8756148853	-4.8031928255	 1.1113789389	 0.240255
62.0998	84.7223	112.142	202.3633	239.1498	264.9937	319.0746	337.3173	453.5545	500.5218	607.0196	703.9825	732.6198	746.2529	792.0352	841.49	869.5402	895.0274	914.816	930.5314	977.2151	1004.2766	1045.5099	1055.5969	1089.8556	1114.2064	1125.3125	1147.0508	1228.9612	1270.4349	1289.691	1315.1902	1323.3154	1336.3488	1380.5596	1405.5291	1411.8475	1479.8686	1488.8982	1493.8449	1499.5937	1510.503	1888.1841	3011.7551	3027.4316	3030.7266	3045.5675	3071.5416	3097.5097	3103.9344	3109.3453	3195.3888	3206.7176	3536.8267
CCCC12CC1NC2=O	CCC[C@]12C[C@H]1NC2=O	
InChI=1S/C7H11NO/c1-2-3-7-4-5(7)8-6(7)9/h5H,2-4H2,1H3,(H,8,9)	InChI=1S/C7H11NO/c1-2-3-7-4-5(7)8-6(7)9/h5H,2-4H2,1H3,(H,8,9)/t5-,7+/m1/s1
