20
gdb 71943	2.74036	1.91975	1.44471	1.2864	77.19	-0.2139	0.0713	0.2852	969.5323	0.17294	-403.108798	-403.101432	-403.100488	-403.140292	29.887	
C	 0.0049011277	 1.5644191712	-0.0367118693	-0.495183
C	 0.0259597885	 0.0471256726	 0.0460735942	 0.308983
C	 0.3217379577	-0.7176361942	-1.2827996293	-0.224327
N	-0.9983537519	-1.4374182058	-1.2496749765	-0.14225
C	-0.9056284028	-2.7329982883	-0.4978909331	-0.192264
C	-0.9879245145	-2.0087810946	 0.8688595902	 0.095343
O	 0.2838928825	-1.831414466	 1.4854684038	-0.27859
C	 0.7634313904	-0.5059925247	 1.2668758074	-0.125639
C	-1.3119847312	-0.7316319526	 0.0605572718	-0.069413
H	 1.0183299925	 1.9654399564	-0.1561614818	 0.120586
H	-0.5869155596	 1.9050876502	-0.8918268724	 0.126138
H	-0.4232047815	 2.0077516168	 0.8691697314	 0.118755
H	 0.3877667168	-0.0640734382	-2.1583172572	 0.103567
H	 1.1959843575	-1.3779796419	-1.2713918788	 0.102776
H	-1.7852832799	-3.3478102286	-0.7132950612	 0.10532
H	 0.0017469072	-3.3184001101	-0.6734140958	 0.107582
H	-1.7057916539	-2.3857344854	 1.6035810083	 0.076856
H	 1.8490365228	-0.5559226	 1.1228110818	 0.105653
H	 0.5655156025	 0.1221060064	 2.1503932963	 0.088417
H	-2.269813481	-0.2208881632	 0.17381858	 0.067689
111.9631	214.6933	242.9679	270.446	361.456	367.0316	441.2339	554.274	617.4134	652.6381	794.5631	804.8343	837.6948	860.2583	911.2603	919.1418	929.3048	954.44	965.6825	986.9431	1014.3505	1027.1443	1054.8552	1104.5439	1171.272	1188.5941	1192.8668	1203.3655	1216.5891	1233.5925	1250.0111	1263.6698	1281.8917	1301.4709	1312.8008	1342.3989	1400.6828	1414.8683	1477.3493	1492.2869	1496.643	1500.3903	1519.0908	2973.0664	3024.9424	3030.7718	3041.4885	3054.6801	3058.2917	3081.2674	3088.3728	3095.1391	3101.7723	3102.9488
CC12CN3CC(OC1)C23	C[C@@]12CN3C[C@@H](OC1)[C@@H]23	
InChI=1S/C7H11NO/c1-7-3-8-2-5(6(7)8)9-4-7/h5-6H,2-4H2,1H3	InChI=1S/C7H11NO/c1-7-3-8-2-5(6(7)8)9-4-7/h5-6H,2-4H2,1H3/t5-,6+,7-/m1/s1
