16
gdb 133493	3.5219	0.74214	0.69587	2.5246	58.43	-0.258	-0.0215	0.2365	1571.8329	0.117834	-569.428343	-569.418623	-569.417679	-569.46556	33.063	
C	-0.0411172075	 1.5255875493	 0.0106934616	-0.474606
C	 0.0876108931	 0.014450699	 0.0014440306	 0.375372
O	 1.1611940806	-0.5421954879	-0.0118591409	-0.286128
C	-1.2197661853	-0.7694714363	 0.0095267846	-0.314438
C	-1.0013910613	-2.2805447797	-0.0007666833	-0.326672
C	-2.3046353309	-3.0469179493	 0.0076185652	 0.281521
F	-3.0624498481	-2.7543892627	-1.0652687974	-0.088597
F	-2.0931772109	-4.3707467617	-0.0016151793	-0.076534
F	-3.0416142847	-2.7661516295	 1.0980184892	-0.088593
H	 0.9490713314	 1.9820194654	 0.0037422511	 0.147526
H	-0.6105352893	 1.8654850618	-0.8616956127	 0.142286
H	-0.5938852742	 1.8561344614	 0.8972671621	 0.142277
H	-1.8023909252	-0.4681375886	 0.8892149588	 0.138558
H	-1.8188855204	-0.4586294976	-0.8556558449	 0.138563
H	-0.4371852422	-2.5845675632	-0.8856772682	 0.144729
H	-0.4202895451	-2.5940721904	 0.8697764634	 0.144735
18.5904	55.2178	91.7968	117.8602	124.4661	221.6042	308.0987	354.7291	439.5986	479.2591	536.2184	550.3764	585.86	655.3897	747.7154	822.1429	862.4954	913.6015	952.9074	1034.6284	1080.0042	1145.9365	1167.0316	1194.1853	1242.5123	1271.3974	1327.7228	1333.1918	1386.0523	1410.1891	1453.5325	1465.892	1472.8473	1477.6601	1813.2781	3032.9262	3040.6877	3066.7886	3084.1887	3098.3099	3131.0252	3155.1648
CC(=O)CCC(F)(F)F	CC(=O)CCC(F)(F)F	
InChI=1S/C5H7F3O/c1-4(9)2-3-5(6,7)8/h2-3H2,1H3	InChI=1S/C5H7F3O/c1-4(9)2-3-5(6,7)8/h2-3H2,1H3
