20
gdb 23166	1.93825	1.34954	0.85824	1.5577	79.68	-0.2416	0.0057	0.2473	1366.3099	0.168557	-440.232533	-440.222516	-440.221572	-440.267784	36.661	
C	-0.0175291266	 1.6065144965	-0.0889826843	-0.390746
C	 0.1153481054	 0.0849841193	 0.0106184494	-0.169491
C	 0.7529952725	-0.5248405142	-1.246568889	-0.1099
C	 0.8240489071	-2.0895328794	-1.2797537512	 0.10375
O	 0.5985752321	-2.6847544835	-0.0255126353	-0.425602
C	-0.3362944204	-2.1245291426	-2.3276896474	-0.362416
C	-0.1668257834	-0.624961333	-2.4502157607	 0.422682
N	-0.5393511532	 0.26755873	-3.2682587853	-0.2428
O	-1.3727123382	-0.2795522445	-4.2651392761	-0.393292
H	 0.964702154	 2.0835498678	-0.1814197626	 0.110285
H	-0.6071282379	 1.8925542706	-0.9653565444	 0.136438
H	-0.5053336178	 2.0161668597	 0.8010079082	 0.108519
H	 0.7285744645	-0.1921142127	 0.8748079103	 0.109063
H	-0.8674423331	-0.3684373901	 0.1795971052	 0.101204
H	 1.7092561569	-0.0295217986	-1.4455158393	 0.085162
H	 1.76899918	-2.4341176766	-1.7205171667	 0.075346
H	 0.6149455769	-3.6404732539	-0.1360352684	 0.28753
H	-0.194971092	-2.7082965523	-3.2406143916	 0.121406
H	-1.2908924243	-2.4049411272	-1.8690496795	 0.127811
H	-1.5550466926	 0.4875646447	-4.8182676614	 0.305051
52.0754	98.396	134.2318	174.0397	196.8616	249.4262	253.4255	301.9873	349.2741	407.8854	413.5355	449.1103	526.2348	599.048	678.8314	781.7558	802.2496	829.9397	917.9544	963.1541	978.8613	983.0546	1040.0068	1062.2018	1099.5729	1124.5562	1170.5002	1183.837	1203.406	1223.1332	1250.9602	1285.1644	1314.0876	1334.8822	1368.4069	1401.4333	1414.4073	1421.4242	1452.1714	1485.8547	1498.9389	1509.606	1778.8868	3006.9492	3032.4686	3042.2571	3049.5019	3052.1062	3077.2728	3100.6394	3108.773	3113.295	3818.3359	3821.5765
CCC1C(O)CC1=NO	CC[C@H]1[C@@H](O)CC1=NO	
InChI=1S/C6H11NO2/c1-2-4-5(7-9)3-6(4)8/h4,6,8-9H,2-3H2,1H3	InChI=1S/C6H11NO2/c1-2-4-5(7-9)3-6(4)8/h4,6,8-9H,2-3H2,1H3/t4-,6+/m1/s1
