24
gdb 63650	3.88388	0.80053	0.76833	1.0068	90.98	-0.2289	0.0856	0.3145	1636.349	0.216064	-368.37327	-368.363151	-368.362207	-368.408514	38.202	
C	-0.0548332718	 1.5048114716	-0.1484888566	-0.452625
C	 0.0422558648	-0.0015360138	 0.0182660026	 0.334758
C	-1.0786480432	-0.7579574017	-0.6718975585	-0.446405
C	 1.4118687195	-0.6432657926	 0.0326953505	-0.327056
C	 0.583457514	-0.6017102969	 1.2995488257	-0.01691
C	 1.0036624414	 0.2177512241	 2.5000947783	-0.181182
N	 1.7705412566	-0.6030301971	 3.4359590628	-0.057761
C	 3.215255912	-0.6352966921	 3.2432080321	-0.212999
C	 2.6158296105	 0.1123496169	 4.3835535431	-0.221801
H	 0.785841586	 2.0319922092	 0.309300443	 0.112367
H	-0.0681154777	 1.7705097301	-1.2122653604	 0.112434
H	-0.9775147139	 1.8958324732	 0.2973404323	 0.112911
H	-1.0878513384	-0.5509609762	-1.7489957375	 0.111027
H	-0.9718461313	-1.8392296879	-0.5412230783	 0.112214
H	-2.0579890095	-0.4685669502	-0.2717411586	 0.112105
H	 1.5492735088	-1.5956855019	-0.4691557972	 0.104756
H	 2.2746166505	 0.0140353767	-0.0251676273	 0.100251
H	 0.1291091362	-1.5451418868	 1.5917637539	 0.087528
H	 1.5719329737	 1.1102665737	 2.1837016351	 0.074059
H	 0.117679683	 0.5782074506	 3.0391075056	 0.102034
H	 3.6954436135	-1.5968856315	 3.4007610667	 0.114328
H	 3.636832518	-0.0448354385	 2.4312293126	 0.106725
H	 2.6388741225	 1.2002343258	 4.3295082437	 0.104971
H	 2.6469325447	-0.2923664346	 5.3913464664	 0.114271
55.4911	81.877	123.0459	194.5605	204.737	236.7627	261.1106	314.1524	363.5543	384.513	402.4188	462.7039	493.6496	692.0712	767.0583	828.1401	848.9984	880.362	907.2436	908.9683	925.7067	970.2874	1000.6026	1012.8757	1031.595	1051.9629	1058.5074	1094.9233	1112.412	1116.2613	1133.3508	1152.9993	1164.9895	1172.5706	1200.7079	1268.1283	1296.8117	1321.9388	1330.8265	1370.1377	1412.1082	1424.0671	1434.4028	1480.6091	1485.9222	1490.121	1493.053	1496.6979	1501.6589	1515.1238	1523.9112	2942.6226	3016.9957	3023.5069	3032.0892	3074.0957	3077.4235	3090.1472	3097.2417	3098.1851	3111.3525	3119.346	3138.1993	3173.1521	3188.0012	3202.0104
CC1(C)CC1CN1CC1	CC1(C)C[C@H]1CN1CC1	
InChI=1S/C8H15N/c1-8(2)5-7(8)6-9-3-4-9/h7H,3-6H2,1-2H3	InChI=1S/C8H15N/c1-8(2)5-7(8)6-9-3-4-9/h7H,3-6H2,1-2H3/t7-/m0/s1
