15
gdb 91229	2.15155	1.66041	1.54396	2.8365	60.78	-0.2729	-0.0167	0.2563	954.6149	0.111298	-494.897128	-494.888969	-494.888025	-494.929991	30.193	
O	 0.419242406	 1.233309126	-0.4874967335	-0.417631
C	 0.1373568851	-0.0317610195	 0.0290397645	 0.091559
C	 0.1237799203	-0.2917712683	 1.574978293	-0.288501
C	-1.2728785415	-0.9120137651	 1.4475158044	 0.026019
O	-2.296614123	 0.1273903141	 1.6188222344	-0.252211
C	-2.4114365742	 0.3440644367	 0.2679194625	 0.354715
O	-3.1832989436	 1.0516066826	-0.2974004269	-0.32735
C	-1.2972818164	-0.6362707886	-0.1074329808	 0.197751
O	-1.4605755002	-1.4956144334	-1.1721013921	-0.459843
H	-0.1873427214	 1.8777538952	-0.1061152287	 0.295194
H	 0.8188898109	-0.7240520002	-0.4729500041	 0.122621
H	 0.9050500237	-0.9791730503	 1.904055307	 0.122975
H	 0.1429558351	 0.6016058209	 2.2026354189	 0.123731
H	-1.5556333981	-1.8394969157	 1.9394018	 0.10918
H	-2.4000796928	-1.6133297546	-1.3529537386	 0.301791
90.7043	101.3737	197.2265	246.0763	297.5951	312.7739	365.4516	436.6814	447.5205	544.1262	609.112	724.0393	740.9805	795.0136	849.5422	893.1283	949.3257	975.1672	1012.2789	1041.7837	1099.3713	1109.576	1159.3113	1176.2868	1198.4339	1257.7682	1303.9117	1314.4755	1357.0098	1365.9387	1436.9124	1466.1558	1921.8961	3077.8298	3084.1089	3135.9179	3154.2782	3801.814	3803.1802
OC1CC2OC(=O)C12O	O[C@H]1C[C@H]2OC(=O)[C@@]12O	
InChI=1S/C5H6O4/c6-2-1-3-5(2,8)4(7)9-3/h2-3,6,8H,1H2	InChI=1S/C5H6O4/c6-2-1-3-5(2,8)4(7)9-3/h2-3,6,8H,1H2/t2-,3+,5+/m0/s1
