20
gdb 75250	3.98324	1.13488	1.04011	1.5239	79.99	-0.2366	0.0332	0.2697	1238.884	0.171571	-403.172786	-403.164325	-403.163381	-403.206385	32.005	
C	-0.2236944918	 1.4627370927	 0.1073037943	-0.476618
C	-0.0234472579	-0.0043770237	-0.0611283586	 0.386925
N	-0.2260020885	-0.6797378539	-1.1180535458	-0.304924
C	 0.1104178917	-2.0684664813	-0.7885334556	-0.253522
C	 0.5542748894	-2.0467235848	 0.6993909925	 0.41016
C	-0.1324136777	-3.0398670186	 1.6678032286	-0.282368
C	 1.1460211691	-3.921206912	 1.6021733377	-0.21471
C	 1.9175485989	-2.6896970559	 1.0511824365	-0.282368
O	 0.4225748536	-0.6554293457	 1.0516132367	-0.285613
H	 0.7147835813	 1.9419802217	 0.4034946356	 0.143015
H	-0.5768024825	 1.8947418588	-0.8283846936	 0.150936
H	-0.9521105843	 1.6573210317	 0.9008658288	 0.14305
H	-0.761651139	-2.7131255937	-0.9509841454	 0.111973
H	 0.9055250629	-2.4282516052	-1.4524914476	 0.111973
H	-0.2626931598	-2.5831840211	 2.6523818534	 0.113906
H	-1.0823320742	-3.4755999751	 1.3470040116	 0.100115
H	 1.5015713825	-4.3537863119	 2.5385488814	 0.105562
H	 1.059310713	-4.7194904981	 0.8605684184	 0.108486
H	 2.6250211291	-2.8423174362	 0.2318478108	 0.100116
H	 2.4096509637	-2.1266995177	 1.8485508602	 0.113907
50.4157	102.8543	144.0773	211.994	287.6514	305.793	399.5864	431.2265	460.0645	610.6318	675.1701	692.3799	792.0616	813.3247	860.8547	919.3922	921.7233	935.208	958.964	965.3321	985.2862	1038.847	1065.7823	1079.1654	1123.5279	1139.8592	1191.3466	1191.7693	1233.9301	1248.5938	1249.9785	1274.513	1290.5091	1297.3495	1348.6262	1415.5065	1471.0752	1475.9758	1476.6667	1482.8665	1498.2828	1507.3204	1744.3945	3024.7147	3049.8522	3054.5105	3056.1175	3060.2662	3070.0284	3106.6754	3108.1644	3114.7192	3130.4023	3165.4496
CC1=NCC2(CCC2)O1	CC1=NCC2(CCC2)O1	
InChI=1S/C7H11NO/c1-6-8-5-7(9-6)3-2-4-7/h2-5H2,1H3	InChI=1S/C7H11NO/c1-6-8-5-7(9-6)3-2-4-7/h2-5H2,1H3
