23
gdb 70864	2.64766	1.54285	1.16655	0.2685	90.66	-0.2318	0.0946	0.3264	1181.5265	0.204508	-351.127694	-351.118436	-351.117492	-351.160652	36.76	
C	-0.0840550855	 1.4804193157	 0.0349265064	-0.506645
C	 0.0303701736	-0.0151533856	-0.0145450073	 0.307189
C	 0.0298756867	-0.870920351	-1.2822383365	-0.320624
C	-0.240942059	-2.0887054261	-0.3552239618	 0.331898
C	-0.9579863786	-3.3135740865	-0.857786997	-0.504595
C	 1.0807268232	-2.1990503704	 0.4551556932	-0.320622
C	 0.7004798444	-0.8620827622	 1.0933656108	 0.307177
C	 1.307414746	-0.2782302995	 2.3355516663	-0.506645
C	-0.761163869	-1.0630897866	 0.7434480857	-0.231215
H	 0.8209051374	 1.9640017631	-0.3532777556	 0.116393
H	-0.9285747298	 1.8270490736	-0.572001264	 0.11552
H	-0.2421847202	 1.8476068985	 1.0536215292	 0.116927
H	-0.8392232532	-0.6380582363	-1.9078699731	 0.085989
H	 0.9317126307	-0.9023843807	-1.9079725302	 0.077421
H	-0.3577963737	-3.8315822561	-1.6160680709	 0.115712
H	-1.152998822	-4.0244123739	-0.0470082741	 0.113363
H	-1.9193996547	-3.0552713811	-1.315658018	 0.113357
H	 1.0361871973	-3.0083104555	 1.1927784461	 0.08599
H	 2.0174225141	-2.2745891285	-0.1129446224	 0.077421
H	 2.3427966256	 0.0407873821	 2.1631585066	 0.116392
H	 0.7505130924	 0.592232836	 2.6957298018	 0.11693
H	 1.3209877097	-1.0157296514	 3.1464995262	 0.11552
H	-1.6626618854	-0.9983972778	 1.3381753386	 0.077148
165.9771	179.343	195.3266	204.6048	207.168	260.452	263.1881	340.9725	396.4979	440.6867	450.6611	570.3693	589.3307	639.2681	746.3162	755.5136	827.0677	875.9868	889.9594	926.973	942.8044	963.9443	978.6787	1022.1444	1040.2315	1041.3957	1080.8975	1133.9644	1153.919	1170.5222	1176.5701	1189.4916	1197.2755	1239.8508	1255.7832	1347.98	1357.1749	1406.8809	1414.279	1414.6449	1428.9173	1480.5683	1487.2726	1490.7962	1491.8197	1492.2691	1493.9343	1504.6085	1514.0834	3005.373	3011.7771	3018.2695	3019.0435	3023.1169	3065.9069	3068.8996	3074.1375	3075.4922	3081.3593	3089.2451	3093.3856	3102.5136	3201.7728
CC12CC3(C)CC1(C)C23	C[C@@]12C[C@@]3(C)C[C@]1(C)[C@@H]23	
InChI=1S/C9H14/c1-7-4-8(2)6(7)9(8,3)5-7/h6H,4-5H2,1-3H3	InChI=1S/C9H14/c1-7-4-8(2)6(7)9(8,3)5-7/h6H,4-5H2,1-3H3/t6-,7+,8+,9-
