17
gdb 99395	6.76169	0.52563	0.50446	4.1523	67.54	-0.2617	-0.0273	0.2344	2055.2702	0.131841	-496.122798	-496.11236	-496.111416	-496.161085	34.061	
O	 0.0952632427	 1.2752798362	-0.2604559012	-0.39241
C	-0.059588576	-0.103030956	-0.0647476405	-0.166932
C	-1.5418405366	-0.4443963077	 0.0392206692	 0.372142
O	-2.4044941559	 0.3984002125	 0.0548119745	-0.277988
C	-1.8625281252	-1.9319375141	 0.1227713073	-0.318444
C	-3.3253695513	-2.1757951033	 0.4734241434	-0.08406
O	-3.5657429012	-3.5850952444	 0.5581804703	-0.17902
C	-4.4543427091	-4.133091077	-0.2924752151	 0.168016
O	-4.7059950735	-5.2996461735	-0.3005417936	-0.27222
H	 1.0362948655	 1.4696940258	-0.2965620468	 0.296627
H	 0.3698003526	-0.7063941772	-0.8839666224	 0.110113
H	 0.4192598317	-0.4612500178	 0.8643294772	 0.114316
H	-1.6258285209	-2.3954714272	-0.8444110316	 0.138837
H	-1.2081330438	-2.4202845826	 0.8546708754	 0.137652
H	-3.5695693781	-1.7402523308	 1.4455752663	 0.139302
H	-3.9821746356	-1.7137627483	-0.2708599427	 0.133535
H	-4.9153829352	-3.3860838347	-0.9686895097	 0.080534
27.9243	38.8787	58.3582	84.9853	125.7522	180.1332	228.0389	269.8437	304.3735	356.6589	448.2978	471.5169	631.9764	704.8631	749.4782	863.7446	921.2386	1003.3136	1044.6511	1047.6378	1090.9427	1107.1968	1152.8436	1157.7527	1236.5617	1243.8992	1273.5929	1319.6381	1333.3676	1403.7197	1435.3758	1445.0554	1460.0234	1494.1399	1502.8078	1824.0976	1868.2494	2943.0364	2946.8613	2968.1768	3030.4558	3055.1106	3068.9989	3110.6788	3837.2186
OCC(=O)CCOC=O	OCC(=O)CCOC=O	
InChI=1S/C5H8O4/c6-3-5(8)1-2-9-4-7/h4,6H,1-3H2	InChI=1S/C5H8O4/c6-3-5(8)1-2-9-4-7/h4,6H,1-3H2
