21
gdb 36964	6.63797	0.52713	0.51948	2.3009	80.22	-0.263	0.0935	0.3565	2119.3681	0.181138	-424.180993	-424.171376	-424.170432	-424.217245	34.101	
C	 0.1127802841	 1.4347162344	 0.009295853	-0.168214
C	 0.091363972	-0.0845481738	-0.2015403023	-0.226116
C	-1.3102861808	-0.6208077897	-0.3583586306	 0.099199
C	-1.723690321	-1.9244327553	 0.173745075	-0.181337
O	-2.09351403	-0.7141409409	 0.836950543	-0.237026
C	 1.5273316592	 1.9971940192	 0.1983087614	-0.226102
C	 1.5282662996	 3.4954741498	 0.3770481327	 0.099207
C	 2.5855313937	 4.3570432624	-0.1645794393	-0.181347
O	 1.3096248218	 4.2773909063	-0.802659223	-0.237027
H	-0.3531011121	 1.9347433027	-0.8488866413	 0.114076
H	-0.502719282	 1.6773423097	 0.8844168823	 0.114086
H	 0.6738026771	-0.3455512861	-1.09578995	 0.100179
H	 0.5682690598	-0.5871460116	 0.6489396982	 0.100194
H	-1.8664662573	-0.2274122416	-1.2123238325	 0.091113
H	-2.5408881527	-2.4710284901	-0.2953143728	 0.113309
H	-0.9968320327	-2.5421421216	 0.7004870785	 0.110504
H	 1.998897182	 1.534326662	 1.0760452542	 0.100178
H	 2.149345606	 1.7450830286	-0.6693891294	 0.100201
H	 0.979383248	 3.8607999702	 1.2480353322	 0.09111
H	 2.8122697778	 5.30903876	 0.3138438191	 0.113309
H	 3.4117539873	 3.9081793356	-0.7152344084	 0.110502
46.9405	50.0109	94.405	117.8795	135.2218	221.9878	283.2108	385.846	404.0072	464.8491	512.5624	738.9688	789.5768	792.2464	853.7556	862.6753	891.7044	941.3083	956.6797	1008.8527	1032.4807	1054.0576	1077.6311	1089.634	1120.0481	1155.3947	1158.6951	1159.5357	1170.9624	1183.2166	1219.343	1257.7073	1294.3357	1295.7937	1305.8312	1333.4961	1340.5352	1393.286	1446.5281	1451.7425	1471.2554	1472.271	1502.7346	1530.9306	1531.0754	3013.7266	3015.1137	3030.2833	3048.1805	3056.5722	3076.1009	3079.2365	3079.6175	3088.9405	3091.5806	3164.8335	3164.8748
C(CC1CO1)CC1CO1	C(C[C@H]1CO1)C[C@H]1CO1	
InChI=1S/C7H12O2/c1(2-6-4-8-6)3-7-5-9-7/h6-7H,1-5H2	InChI=1S/C7H12O2/c1(2-6-4-8-6)3-7-5-9-7/h6-7H,1-5H2/t6-,7-/m0/s1
