16
gdb 52869	2.74244	1.0678	0.8434	1.8026	75.1	-0.2437	0.0064	0.2501	1381.4324	0.12177	-437.870938	-437.86121	-437.860266	-437.90688	34.014	
C	 0.0948368301	 1.5649780733	 0.3689702173	-0.506766
C	 0.0778253052	 0.1234314017	 0.1801438206	 0.218059
C	 0.0724507223	-1.0694339055	 0.0221814923	-0.043755
C	 0.0679373867	-2.4909093683	-0.183860612	 0.095804
C	-0.6779136951	-3.3815077901	 0.7402141798	-0.191815
O	-1.1943991339	-3.0963784767	-0.5543571399	-0.278834
C	 1.2957340514	-3.0751243534	-0.8840589308	 0.318117
N	 1.0114020323	-4.1717721104	-1.636914847	-0.531691
O	 2.4021712182	-2.6065413495	-0.727131115	-0.346645
H	 1.1140212815	 1.9560015713	 0.2805489711	 0.160718
H	-0.5224470738	 2.0689001469	-0.3827230937	 0.154358
H	-0.2868759406	 1.84322537	 1.357205196	 0.151512
H	-0.3224343597	-4.3989231756	 0.8932178795	 0.128439
H	-1.2181028897	-2.929441457	 1.5690198326	 0.132971
H	 0.0513472033	-4.3794219399	-1.8584131073	 0.274823
H	 1.7533880519	-4.5706593768	-2.1877386336	 0.264706
32.6591	66.3426	81.4029	137.7004	242.216	280.9579	306.2144	330.1092	379.6997	421.0928	448.6468	517.2488	573.0271	609.5061	645.5052	763.8779	846.7756	848.8314	935.2619	1035.7027	1050.8341	1053.9571	1096.2519	1136.8297	1164.8251	1229.6071	1352.0437	1376.2677	1413.2849	1474.9694	1476.0638	1510.5527	1594.0182	1814.552	2377.864	3030.5747	3092.4092	3092.8295	3096.1509	3191.4679	3592.3416	3730.287
CC#CC1(CO1)C(N)=O	CC#C[C@]1(CO1)C(=O)N	
InChI=1S/C6H7NO2/c1-2-3-6(4-9-6)5(7)8/h4H2,1H3,(H2,7,8)	InChI=1S/C6H7NO2/c1-2-3-6(4-9-6)5(7)8/h4H2,1H3,(H2,7,8)/t6-/m0/s1
