21
gdb 73862	3.15742	0.98109	0.78169	3.1963	87.71	-0.2292	-0.0159	0.2133	1484.229	0.18085	-387.131818	-387.122023	-387.121078	-387.16699	35.524	
C	-0.1301613545	 1.499918867	 0.1306071447	-0.498036
C	 0.0327060146	 0.0174997818	 0.0023205026	 0.229516
C	 0.0205009925	-0.7339403108	-1.1056753906	 0.229513
C	-0.1594510966	-0.3030115804	-2.5278099676	-0.498036
C	 0.1674828886	-2.2070298448	-0.7819903989	-0.328443
C	 0.5921891013	-2.231592209	 0.712609172	-0.055297
C	 0.1898509271	-0.829685778	 1.2488952343	-0.328439
C	-0.0675058192	-3.3506324786	 1.4788255728	 0.155252
O	 0.5028064322	-4.2307446958	 2.06960296	-0.253527
H	 0.7380078577	 1.9494466287	 0.6296454606	 0.126516
H	-0.2544509764	 1.9943838735	-0.8355527497	 0.124393
H	-1.0033647136	 1.7471577434	 0.7486620718	 0.126051
H	-0.2741289445	 0.7787544757	-2.6280114565	 0.124394
H	 0.696408032	-0.6092508159	-3.1430773188	 0.126515
H	-1.0444084687	-0.7767151807	-2.9728471391	 0.126052
H	-0.7876749076	-2.7318942704	-0.9435829735	 0.104281
H	 0.9009667189	-2.7161257403	-1.417942202	 0.112134
H	 1.6734785438	-2.3659090159	 0.7918010359	 0.095104
H	 0.938019379	-0.4347428641	 1.9459440996	 0.112137
H	-0.7573367907	-0.8639698692	 1.8106599222	 0.104283
H	-1.1846587961	-3.3036033363	 1.4590890901	 0.065637
58.2393	70.0857	149.2362	168.1282	176.7262	277.0791	283.3213	284.8417	349.3679	403.4267	407.217	508.5023	591.5004	649.9259	739.6298	871.4064	906.6516	915.7557	959.3511	971.3375	989.9915	1039.5936	1057.9967	1079.1198	1119.9837	1134.3805	1175.6345	1192.0148	1213.9975	1238.2625	1284.7559	1322.9505	1339.6887	1342.2451	1410.0837	1421.3259	1428.0734	1477.5679	1481.4007	1481.8524	1489.0494	1491.3909	1493.4074	1748.8722	1834.0336	2826.6789	2980.1125	2983.5457	3014.3629	3016.5474	3047.8597	3049.1645	3057.4561	3057.6799	3087.8501	3113.5667	3119.7569
CC1=C(C)CC(C1)C=O	CC1=C(C)C[C@@H](C1)C=O	
InChI=1S/C8H12O/c1-6-3-8(5-9)4-7(6)2/h5,8H,3-4H2,1-2H3	InChI=1S/C8H12O/c1-6-3-8(5-9)4-7(6)2/h5,8H,3-4H2,1-2H3
