20
gdb 105797	2.62892	1.50258	1.17642	2.4272	78.26	-0.2198	0.0587	0.2786	1121.489	0.171019	-403.048187	-403.039726	-403.038781	-403.080934	33.301	
C	-0.0323930148	 1.6842455093	 0.0184653921	-0.445044
C	-0.0184768218	 0.177076818	 0.2405742125	-0.006035
N	 0.9865042599	-0.828996361	-0.2378981839	-0.231838
C	 2.4210254284	-0.4793098682	 0.0945460561	 0.005274
C	 2.7320830424	 0.8083191954	 0.8008540172	-0.308569
C	 2.1462956537	-0.341777676	 1.5751900447	-0.139577
C	 0.6750864766	-0.6653392896	 1.2394661797	 0.238939
C	-0.0085688609	-1.8328115221	 1.9221693498	-0.139497
O	-0.9083436176	-2.4797244811	 1.0484543552	-0.413655
H	 0.6150556528	 1.9779846723	-0.8118834051	 0.140626
H	-1.0488918479	 1.9929960032	-0.2406722676	 0.122066
H	 0.2620133227	 2.2499518342	 0.9056315153	 0.135352
H	-0.9849877275	-0.2673005456	 0.0116041488	 0.114245
H	 3.175028765	-1.0520209147	-0.4300149027	 0.10499
H	 3.7989103419	 0.9233908362	 0.9773899454	 0.117925
H	 2.2268293973	 1.7443536256	 0.6270092177	 0.118168
H	 2.6529184717	-0.8014868558	 2.4133461022	 0.095321
H	 0.7657293131	-2.5283602823	 2.2889698112	 0.086623
H	-0.5843456022	-1.4963273585	 2.792870873	 0.110727
H	-0.4291829127	-2.5639118492	 0.2105129183	 0.293957
106.2808	133.8401	204.7111	221.9036	258.5447	296.2235	384.1052	409.2243	529.3854	544.1386	629.366	647.0597	683.8758	725.8595	744.1673	842.1695	867.3941	927.3577	951.0586	970.0052	1017.7244	1033.3753	1058.8837	1068.1677	1073.8316	1085.5447	1106.8192	1127.4738	1148.6417	1184.135	1210.8031	1227.2396	1291.8377	1338.4566	1358.2919	1386.4466	1412.7974	1442.4103	1467.2759	1487.4086	1505.3486	1507.8332	1519.6411	2956.1634	3047.1568	3050.5504	3106.3368	3121.8707	3134.7075	3138.4547	3188.662	3201.1122	3265.5215	3721.1228
CC1N2C3CC3C12CO	C[C@H]1N2[C@H]3C[C@H]3[C@@]12CO	
InChI=1S/C7H11NO/c1-4-7(3-9)5-2-6(5)8(4)7/h4-6,9H,2-3H2,1H3	InChI=1S/C7H11NO/c1-4-7(3-9)5-2-6(5)8(4)7/h4-6,9H,2-3H2,1H3/t4-,5-,6+,7-,8?/m1/s1
