16
gdb 133885	3.64015	2.21764	1.93793	0.8626	69.48	-0.2316	0.0742	0.3058	756.3557	0.127862	-400.633052	-400.627892	-400.626948	-400.662186	23.434	
C	-1.4098766039	 1.3373373609	 0.4099526107	-0.252528
N	-1.5645935686	 0.0991248506	-0.5169414085	-0.185807
C	-0.8328987002	-0.7075502499	 0.6042954267	-0.030061
C	 0.2710295071	-1.6186138429	 0.1448045117	-0.142815
C	 1.5284535968	-0.7551229418	 0.3395081289	 0.042767
O	 1.2502128073	 0.4586399968	 1.0471189507	-0.317095
C	-0.0573999238	 0.6112101834	 0.5411015062	 0.358968
C	-0.0959285633	 0.3804239493	-0.9720975179	-0.030059
C	 0.8166944813	-0.8130667666	-1.0223596478	-0.142816
H	-2.0904360778	 1.3270660878	 1.2636607576	 0.115239
H	-1.4400420103	 2.2872179783	-0.1275429128	 0.11524
H	-1.4540044954	-0.9673087774	 1.4592464484	 0.078144
H	 0.2777789004	-2.6978723974	 0.1957699995	 0.099332
H	 2.5158540612	-1.1517837735	 0.5273692559	 0.114018
H	 0.0136988019	 1.1994305695	-1.6801923032	 0.078144
H	 1.2607453273	-1.246753647	-1.9067671561	 0.099331
408.8864	439.1146	500.3693	558.0486	652.8901	723.1621	739.2965	757.4736	778.1276	797.353	824.645	825.2626	872.1001	910.6316	934.1006	956.0049	965.0061	1005.1019	1024.2109	1024.805	1047.2603	1065.1043	1091.2577	1092.3114	1106.3375	1135.3894	1170.3053	1218.3545	1257.5381	1258.7883	1297.035	1310.0921	1317.2746	1371.6167	1524.7273	3069.913	3137.7169	3141.2027	3142.4297	3216.7502	3222.0716	3235.023
C1N2C3C4C5OC13C2C45	C1N2[C@H]3[C@@H]4[C@@H]5O[C@]13[C@H]2[C@H]45	
InChI=1S/C7H7NO/c1-7-5-2-3(4(2)9-7)6(7)8(1)5/h2-6H,1H2	InChI=1S/C7H7NO/c1-7-5-2-3(4(2)9-7)6(7)8(1)5/h2-6H,1H2/t2-,3+,4-,5-,6+,7+
