18
gdb 32877	6.26471	0.80288	0.7205	2.4743	76.82	-0.1779	0.0425	0.2204	1558.2259	0.148509	-435.291893	-435.282556	-435.281612	-435.326997	33.292	
C	-0.0021637107	 1.3238928558	-0.0874780461	-0.225586
O	-0.0274080487	-0.0823930901	-0.1685962862	-0.249019
C	-1.3105779271	-0.6253228822	 0.0710702914	-0.170328
C	-1.1967885928	-2.1156791196	 0.0435249295	 0.337612
N	-2.1988288718	-2.9704390614	-0.0300363394	-0.367656
C	-1.6200544499	-4.2157676701	 0.0129535694	 0.280441
N	-2.4251606485	-5.3600204103	 0.0187511327	-0.599431
C	-0.2516099558	-4.1116648025	 0.1077431225	-0.194041
N	-0.0051331444	-2.7460030751	 0.1304795976	-0.257582
H	 1.0241919607	 1.6437315103	-0.2815020006	 0.129513
H	-0.6663603127	 1.7847937675	-0.8343862555	 0.112136
H	-0.3056294046	 1.6794695034	 0.9093723371	 0.110558
H	-1.6929535487	-0.2851203251	 1.0493959043	 0.111064
H	-2.0366583669	-0.2938566604	-0.6875706979	 0.118032
H	-3.3416608615	-5.1464236698	-0.3537140422	 0.245668
H	-2.0194814856	-6.1388479206	-0.4827554602	 0.238323
H	 0.5386857257	-4.8401197442	 0.1591805647	 0.11162
H	 0.8838502033	-2.2763443656	 0.153095029	 0.268677
33.1679	73.7369	130.6634	202.226	218.3886	224.5395	316.4679	338.9906	354.1297	477.4911	548.4653	630.8219	665.6192	678.266	710.8549	771.2262	790.9305	984.6436	1011.4548	1030.6863	1045.7092	1098.3338	1110.8491	1159.9645	1184.1904	1225.6987	1233.6343	1274.0261	1314.7477	1387.22	1422.3902	1478.7018	1484.7962	1499.8247	1507.717	1522.9555	1570.2568	1621.3784	1647.0619	2950.2502	2978.0385	2996.1737	3025.0938	3118.5402	3282.4693	3540.6409	3635.9981	3678.6546
COCC1=NC(N)=CN1	COCc1nc(N)c[nH]1	
InChI=1S/C5H9N3O/c1-9-3-5-7-2-4(6)8-5/h2H,3,6H2,1H3,(H,7,8)	InChI=1S/C5H9N3O/c1-9-3-5-7-2-4(6)8-5/h2H,3,6H2,1H3,(H,7,8)
