18
gdb 63362	2.89615	1.13465	1.03864	5.4121	77.86	-0.2606	-0.0435	0.2172	1233.4022	0.145528	-401.979659	-401.970218	-401.969274	-402.01428	34.148	
C	-0.8108498651	 1.5170164921	 0.1949086765	-0.444574
C	-0.1563854615	 0.1499172983	 0.0030290229	 0.185518
C	-1.1727577935	-0.9922806199	 0.150777229	-0.438236
C	 0.7805931086	-0.0139480378	-1.2435815524	-0.290564
C	 1.9411745449	-0.5480460191	-0.337763248	-0.276063
C	 3.2665586729	 0.0129873409	-0.4900745492	 0.282267
N	 4.3125713132	 0.4913908094	-0.6094314301	-0.31894
C	 1.0813695096	-0.0883371318	 0.8889569243	 0.385419
O	 1.3302227806	 0.0827976556	 2.0404515927	-0.278703
H	-0.0843444196	 2.3284324805	 0.0908437727	 0.129167
H	-1.6014217769	 1.6697392968	-0.5474286108	 0.12465
H	-1.2575349044	 1.5911996413	 1.1907993483	 0.139768
H	-1.9579787315	-0.8935038217	-0.6059945914	 0.129416
H	-0.707709558	-1.9757040967	 0.025189823	 0.121664
H	-1.6416882727	-0.9649042528	 1.1387056429	 0.140242
H	 0.4414506892	-0.7097654311	-2.0115342634	 0.121909
H	 1.0350076055	 0.9403230424	-1.7069499391	 0.134433
H	 1.9990558087	-1.6418302264	-0.348925528	 0.152625
38.3891	128.0358	159.5931	195.7036	203.3637	235.3869	277.2524	333.7383	346.8447	421.8116	494.621	538.0944	585.709	694.0398	767.388	782.2398	897.8333	928.0756	934.1634	965.2992	998.4698	1019.1855	1074.7487	1086.6715	1164.5091	1201.8204	1218.3548	1247.0459	1294.1027	1314.1392	1397.8757	1418.5244	1480.6059	1482.4536	1489.0507	1501.5188	1505.1	1903.45	2354.2859	3031.4445	3035.9399	3062.3642	3087.5068	3100.1634	3106.2808	3112.6814	3116.509	3147.1109
CC1(C)CC(C#N)C1=O	CC1(C)C[C@@H](C#N)C1=O	
InChI=1S/C7H9NO/c1-7(2)3-5(4-8)6(7)9/h5H,3H2,1-2H3	InChI=1S/C7H9NO/c1-7(2)3-5(4-8)6(7)9/h5H,3H2,1-2H3/t5-/m0/s1
