20
gdb 109803	2.80926	1.15067	1.13752	2.1239	74.84	-0.2271	0.0532	0.2803	1202.5947	0.172047	-440.224737	-440.215827	-440.214883	-440.258408	33.978	
O	-0.0044162006	 0.8627382698	-1.0200467563	-0.427168
C	-0.0094468542	-0.0153029872	 0.1230854942	-0.138089
C	-1.4089197559	-0.5659002794	 0.2647144514	-0.088471
C	-1.982576877	-1.30035694	-0.9245537353	 0.082825
O	-1.1892088205	-1.4379542608	-2.0724969004	-0.425513
C	-1.6577961287	-2.0721695752	 0.3309427006	-0.083255
C	-0.5549229203	-3.0805463553	 0.4716331144	-0.019313
C	-0.5842879839	-4.3555494718	-0.2921055755	-0.239491
N	 0.4446925175	-3.3449266956	-0.5788698577	-0.330366
H	 0.896169519	 1.1764070548	-1.1525177585	 0.293659
H	 0.7184173291	-0.8219489477	-0.0159919605	 0.133383
H	 0.2729829269	 0.5409451216	 1.0269816174	 0.102994
H	-2.0943987079	 0.0704979034	 0.8155242214	 0.092441
H	-3.0378076077	-1.149242573	-1.1469184705	 0.094346
H	-0.7488114448	-0.5813905664	-2.1914777371	 0.29775
H	-2.5353578988	-2.3407480731	 0.9161565322	 0.093985
H	-0.1318561032	-3.1178492111	 1.4757507374	 0.086347
H	-0.2238372164	-5.2730295594	 0.1656943101	 0.110328
H	-1.3860976167	-4.4890364339	-1.0139864594	 0.114741
H	 0.165098514	-2.8340991097	-1.4135990079	 0.248868
81.551	103.0921	156.3716	209.7206	248.6278	302.4375	327.7264	356.0037	392.2083	543.1216	587.5213	627.9548	697.4875	730.6232	790.3259	829.0137	853.2657	898.0971	975.0481	976.0464	1008.2226	1015.2222	1048.0467	1065.7007	1105.1364	1128.0333	1139.7784	1159.1751	1167.2025	1211.4491	1238.8795	1262.1119	1284.0333	1298.1638	1342.	1369.5347	1374.3305	1403.6063	1423.8801	1447.4216	1460.8474	1508.9176	1525.8795	3011.4309	3066.5346	3094.3677	3103.8152	3106.591	3122.4405	3155.8659	3189.2801	3496.3149	3681.3527	3817.876
OCC1C(O)C1C1CN1	OC[C@H]1[C@@H](O)[C@H]1[C@H]1CN1	
InChI=1S/C6H11NO2/c8-2-3-5(6(3)9)4-1-7-4/h3-9H,1-2H2	InChI=1S/C6H11NO2/c8-2-3-5(6(3)9)4-1-7-4/h3-9H,1-2H2/t3-,4-,5-,6-/m1/s1
