21
gdb 100056	2.97753	1.14358	1.04181	2.4507	73.53	-0.2523	0.0589	0.3112	1240.0496	0.181462	-461.333534	-461.323976	-461.323031	-461.367652	36.246	
C	 0.2145921853	 1.5203823739	 0.1582018479	-0.41244
C	-0.0793392801	 0.0325786797	-0.0588046906	 0.325842
O	 0.4672128733	-0.6760991121	 1.0713221843	-0.497205
C	-1.6036355313	-0.2151209941	-0.0258787566	-0.071835
O	-2.1263358579	 0.0348282651	 1.2602304193	-0.425452
C	 0.5293306259	-0.4706114819	-1.3751350942	-0.07429
C	 2.0673645773	-0.62341152	-1.3330956752	-0.108771
O	 1.934482058	-2.0453217713	-1.0730111918	-0.284682
C	 0.5593352177	-2.0092464652	-1.5311611754	-0.120825
H	 1.289391566	 1.6993973274	 0.2452372073	 0.113301
H	-0.1764044261	 2.1216190194	-0.6690839436	 0.108221
H	-0.2681964973	 1.8512504578	 1.0802170495	 0.138995
H	 1.0182742657	-1.4060305423	 0.7591344777	 0.299896
H	-2.1150433938	 0.4591756203	-0.7218244165	 0.100639
H	-1.8166547949	-1.248364585	-0.3446910739	 0.076325
H	-1.5260744	-0.4223549205	 1.8646241202	 0.289815
H	 0.1172862612	 0.0925610463	-2.2154113376	 0.084511
H	 2.5638370247	-0.4383182664	-2.2940174121	 0.107282
H	 2.6102999537	-0.1128650037	-0.5331573227	 0.123144
H	-0.0977283318	-2.6117202758	-0.8968911909	 0.1182
H	 0.4737789344	-2.3521078718	-2.5703364951	 0.109329
80.7364	113.4289	156.3837	194.6467	228.5392	272.5175	320.0575	333.543	360.0595	397.2455	435.2157	506.067	535.2415	595.9827	748.9203	843.5056	864.8417	876.1814	922.7005	943.0858	963.216	1006.9582	1017.5673	1046.8076	1075.4536	1096.2271	1146.1529	1158.8764	1178.112	1189.6495	1220.0945	1243.9214	1261.2328	1305.5444	1326.2843	1365.4446	1371.3792	1398.5048	1430.5563	1441.249	1482.8447	1497.4626	1504.2213	1509.7037	1534.2501	2971.914	3017.0575	3025.0829	3043.8801	3065.638	3084.6718	3090.2244	3095.1331	3116.0518	3135.1618	3745.4312	3761.9305
CC(O)(CO)C1COC1	C[C@@](O)(CO)C1COC1	
InChI=1S/C6H12O3/c1-6(8,4-7)5-2-9-3-5/h5,7-8H,2-4H2,1H3	InChI=1S/C6H12O3/c1-6(8,4-7)5-2-9-3-5/h5,7-8H,2-4H2,1H3/t6-/m1/s1
