16
gdb 30977	2.42649	1.46077	0.95142	3.7155	70.61	-0.1771	0.0528	0.2299	1201.4714	0.124361	-471.205694	-471.196708	-471.195764	-471.23952	32.654	
C	-0.2745854423	 1.2598722704	 0.1059754826	-0.254591
O	 0.5961375278	 0.1449005407	-0.1413268546	-0.273468
C	 0.8890037653	-0.5889916899	 0.9367162733	 0.328805
C	 0.6941899418	-1.882667817	 1.2145723278	 0.167261
N	-0.0115325444	-2.9007754307	 0.5666200647	-0.611531
N	 1.372840672	-2.1411419134	 2.4193639733	-0.373143
C	 1.8580715468	-0.9468317035	 2.9288376176	 0.46565
N	 2.4161057861	-0.7860914431	 4.0543249582	-0.598955
O	 1.6114687776	 0.0178209946	 1.9737152154	-0.254767
H	 0.1933925203	 1.9709207133	 0.793262427	 0.14406
H	-0.4424229477	 1.7371315746	-0.8604267393	 0.137181
H	-1.2278076291	 0.9183245906	 0.526413637	 0.121997
H	-0.4950921682	-2.5322020146	-0.2439272758	 0.25591
H	 0.6025284224	-3.6503493663	 0.2573003692	 0.251684
H	 1.1048442688	-2.8803085219	 3.0484320399	 0.2712
H	 2.6792802429	 0.1868606062	 4.1866623037	 0.222707
79.185	128.9616	147.0854	191.4984	231.4432	276.1599	290.5353	359.7424	414.9812	444.071	575.4812	628.0126	654.3111	657.923	717.1309	753.4901	820.596	851.9333	957.0292	1020.9378	1052.7184	1080.6132	1164.9913	1174.1901	1213.7844	1291.4637	1318.4245	1359.9409	1451.2332	1482.9721	1487.2325	1504.3741	1642.8253	1777.6068	1836.6517	3024.888	3102.0276	3146.5394	3481.0837	3539.4993	3595.928	3658.6444
COC1=C(N)NC(=N)O1	COC1=C(N)N[C@H]([NH])O1	
InChI=1S/C4H7N3O2/c1-8-3-2(5)7-4(6)9-3/h5H2,1H3,(H2,6,7)	InChI=1S/C4H8N3O2/c1-8-3-2(5)7-4(6)9-3/h4,6-7H,5H2,1H3/t4-/m0/s1
