20
gdb 37897	3.00583	2.0725	1.6658	1.9228	81.33	-0.2167	0.0855	0.3022	890.7113	0.175685	-365.945256	-365.939119	-365.938175	-365.975295	27.162	
C	-0.0393843264	 1.5179318393	 0.0212967871	-0.266838
N	 1.4875327916	 1.2818495127	 0.0359461755	-0.18397
C	 1.1867539241	 0.0582788122	 0.9240727691	 0.008327
C	 2.2091074293	-1.0234572217	 0.5992391746	-0.243009
C	 1.8764132317	-1.1415942785	-0.9052647997	-0.068355
C	 0.638079637	-2.0869858925	-1.098185198	-0.210316
C	-0.6131383764	-1.3428655811	-0.4701411851	-0.360977
C	 0.0428018673	-0.0151772171	-0.1312199284	 0.298875
C	 1.2157309764	 0.2317833955	-1.0821690227	 0.025358
H	-0.4163458824	 1.9351064277	 0.9597462688	 0.097887
H	-0.3824098804	 2.1044443869	-0.8360866168	 0.099083
H	 0.9663892342	 0.2979396506	 1.9666193677	 0.064153
H	 3.2311811107	-0.6780801871	 0.7848851165	 0.108499
H	 2.0475381092	-1.9511723151	 1.1568185394	 0.093787
H	 2.7148869777	-1.403333852	-1.5520510818	 0.06224
H	 0.4667650013	-2.2575547704	-2.1659674771	 0.101462
H	 0.8123972346	-3.0657568654	-0.6415420287	 0.100788
H	-1.4219988191	-1.2481392971	-1.2005317652	 0.10433
H	-1.0140940587	-1.8664375183	 0.4026318332	 0.101467
H	 1.0590066584	 0.6438215916	-2.0804350584	 0.067208
192.5324	341.2865	372.9692	430.6876	458.2691	562.403	682.7779	696.3027	770.8933	786.3262	792.123	831.2164	846.4878	891.4668	902.6175	914.1461	948.2228	960.8694	983.0479	1002.2332	1018.9051	1032.4221	1074.1306	1082.6549	1113.1234	1122.6929	1164.9304	1185.9937	1201.3919	1223.7209	1228.5121	1241.5311	1264.3575	1279.9939	1288.069	1309.616	1322.0934	1340.614	1374.994	1480.3185	1487.6626	1504.436	1528.8906	3044.0495	3045.1125	3046.6137	3055.2418	3082.6148	3090.8488	3094.4218	3098.3233	3102.6817	3108.1696	3110.7227
C1N2C3CC4CCC13C24	C1N2[C@@H]3C[C@H]4CC[C@@]13[C@@H]24	
InChI=1S/C8H11N/c1-2-8-4-9-6(8)3-5(1)7(8)9/h5-7H,1-4H2	InChI=1S/C8H11N/c1-2-8-4-9-6(8)3-5(1)7(8)9/h5-7H,1-4H2/t5-,6-,7+,8-/m1/s1
