15
gdb 125412	3.04501	1.27917	0.90586	6.4499	70.56	-0.2507	-0.0193	0.2314	1213.0937	0.112356	-453.962177	-453.953811	-453.952867	-453.996166	29.491	
C	-0.0200464957	 1.5036541654	 0.0965364153	-0.530453
C	-0.0091085187	 0.0136447195	-0.0230721384	 0.056832
C	-0.0245552362	-0.7724997166	-1.127859796	 0.018619
O	-0.0062999797	-2.0703330143	-0.8009411276	-0.169282
N	 0.0231142346	-2.1961335933	 0.5897484368	-0.201509
C	 0.0210318552	-0.9583912146	 1.0322792715	 0.429839
N	 0.0454765872	-0.6219555437	 2.3817734245	-0.403897
C	 0.0733464704	-1.4684175572	 3.473216754	 0.150091
O	 0.0818825285	-2.669510207	 3.4402917485	-0.258966
H	 0.872121716	 1.8781856848	 0.6132835008	 0.136284
H	-0.0448338015	 1.9731627076	-0.8897479561	 0.143263
H	-0.8965271483	 1.8621880778	 0.6501503322	 0.136294
H	-0.0480540415	-0.5495452102	-2.1837987225	 0.153093
H	 0.041942738	 0.3657618438	 2.5847135399	 0.257882
H	 0.0877770817	-0.8771000221	 4.4110337871	 0.081912
38.7646	127.5956	149.6873	194.0582	221.7777	262.6092	386.5794	422.4117	536.4893	598.1917	598.6639	688.2495	729.2314	840.6458	856.8514	921.1289	967.5651	1014.1047	1018.5583	1068.211	1123.3935	1161.1544	1223.9509	1302.4656	1386.0745	1421.3096	1438.5489	1484.5382	1499.87	1530.4805	1562.3798	1675.5352	1840.1493	2930.9485	3020.9704	3068.3739	3118.6441	3260.2663	3628.2794
CC1=CON=C1NC=O	Cc1conc1NC=O	
InChI=1S/C5H6N2O2/c1-4-2-9-7-5(4)6-3-8/h2-3H,1H3,(H,6,7,8)	InChI=1S/C5H6N2O2/c1-4-2-9-7-5(4)6-3-8/h2-3H,1H3,(H,6,7,8)
