16
gdb 26547	2.33152	1.86121	1.04157	4.1289	76.67	-0.2079	-0.0175	0.1904	1089.6838	0.124868	-437.923157	-437.914921	-437.913977	-437.955862	30.96	
C	-0.0180227213	 1.5295677068	 0.040714216	-0.48016
C	 0.0024868042	 0.0287740108	 0.0081899047	 0.062559
C	-0.015075421	-0.6627175715	-1.1483988251	 0.388536
O	-0.0519336561	-0.0973575787	-2.3680526512	-0.408964
O	 0.0018056729	-2.0210544068	-1.247029769	-0.24568
C	 0.0393825283	-2.7389886628	-0.0885917128	 0.044281
C	 0.0599046902	-2.1668648374	 1.1173827768	-0.221381
C	 0.0430382043	-0.709612652	 1.2708419523	 0.233976
N	 0.0608373498	-0.068129273	 2.3896156029	-0.537619
H	 0.8672575575	 1.9080590634	 0.5619449343	 0.140107
H	-0.0535393253	 1.9550295999	-0.9630019053	 0.125112
H	-0.8816604334	 1.8824396176	 0.6135189009	 0.140389
H	-0.0580850624	-0.8031229983	-3.0257481675	 0.308171
H	 0.0495936846	-3.8015404673	-0.291077118	 0.140678
H	 0.0897300691	-2.7974605918	 1.9989186643	 0.109543
H	 0.0886936686	-0.7243435889	 3.1722825867	 0.200453
107.0045	125.8346	185.7066	255.4651	290.194	307.3058	358.1549	454.499	496.9084	531.3052	537.1052	645.047	679.7625	733.1359	803.8959	845.13	879.2937	931.1586	938.9728	1029.8402	1064.7058	1075.8196	1142.0889	1223.93	1267.0138	1294.3332	1321.7362	1406.8545	1418.0603	1456.5569	1476.1058	1487.1484	1629.8075	1688.7849	1751.7654	3044.5134	3094.5427	3144.7623	3194.7095	3233.2402	3446.2124	3812.3463
CC1=C(O)OC=CC1=N	CC1=C(C=CO[C@H]1O)[NH]	
InChI=1S/C6H7NO2/c1-4-5(7)2-3-9-6(4)8/h2-3,7-8H,1H3	InChI=1S/C6H8NO2/c1-4-5(7)2-3-9-6(4)8/h2-3,6-8H,1H3/t6-/m1/s1
