21
gdb 101305	2.34253	1.04036	0.88208	2.7046	80.62	-0.2435	-0.0203	0.2233	1430.4259	0.180129	-424.225374	-424.215144	-424.2142	-424.261257	36.969	
C	 0.5047531305	 1.3865608713	 0.2959562835	-0.384144
C	 0.6905132988	-0.0849489969	-0.0849081533	-0.206681
C	-0.01642892	-0.4728951285	-1.3887449286	 0.111803
O	 0.4509961367	 0.2880195082	-2.4992206905	-0.434956
C	 0.0293801088	-1.975495071	-1.6403548252	-0.013434
C	-0.0504716192	-2.5692421961	-3.0010139315	-0.322083
C	 1.2369435633	-2.7428841377	-2.2009962504	-0.103244
C	 2.4754845983	-2.0840267115	-2.6731555864	 0.135059
O	 3.5894859578	-2.461731786	-2.3954031674	-0.273804
H	 0.8613346566	 2.0518754202	-0.4957256846	 0.121797
H	-0.5525649197	 1.6174228313	 0.4650033516	 0.120039
H	 1.05164052	 1.6272038411	 1.2120180466	 0.117769
H	 1.7595842386	-0.323549528	-0.1831209633	 0.107197
H	 0.3146784918	-0.7289066424	 0.7192225626	 0.104013
H	-1.0804619584	-0.2089891065	-1.2981316711	 0.091481
H	 1.3842816321	 0.482118268	-2.3624317863	 0.286002
H	-0.4740357205	-2.5302501401	-0.8515270613	 0.099478
H	-0.6592788373	-3.4495972437	-3.1713735616	 0.123034
H	 0.0030745535	-1.8744793042	-3.8327378823	 0.140572
H	 1.4271993155	-3.7069996086	-1.740698387	 0.106281
H	 2.3194040829	-1.2106968589	-3.3432857035	 0.073825
48.4038	67.4901	110.764	163.6181	206.2494	216.0718	259.6288	299.6219	322.4187	345.9628	407.0931	467.9274	513.5048	665.837	736.6462	784.4466	848.5154	856.0037	893.2817	956.522	988.29	1011.7839	1053.7488	1057.1754	1083.978	1085.8282	1100.9686	1141.5897	1165.0355	1194.3132	1225.1149	1257.2886	1314.1423	1342.4404	1344.0826	1388.4172	1393.1111	1411.9778	1422.0055	1439.9206	1483.1131	1483.5863	1496.4224	1506.2634	1805.7096	2891.5157	2997.506	3013.9697	3039.2434	3057.4926	3106.0563	3116.1915	3133.4262	3138.0056	3169.7638	3228.7685	3809.365
CCC(O)C1CC1C=O	CC[C@@H](O)[C@H]1C[C@H]1C=O	
InChI=1S/C7H12O2/c1-2-7(9)6-3-5(6)4-8/h4-7,9H,2-3H2,1H3	InChI=1S/C7H12O2/c1-2-7(9)6-3-5(6)4-8/h4-7,9H,2-3H2,1H3/t5-,6-,7+/m0/s1
