20
gdb 93007	2.85849	1.51583	1.15986	2.0971	80.06	-0.2295	0.0225	0.252	1124.9405	0.171271	-403.161534	-403.15304	-403.152096	-403.194256	33.082	
C	 0.1328185273	 1.5463258158	-0.0796148589	-0.392115
C	-0.0032596563	 0.0381936156	 0.0719781186	 0.10895
O	 0.4010727792	-0.5401251756	-1.1911546647	-0.246463
C	 0.8422411647	-1.8211896354	-1.19638068	 0.104596
N	 1.2770872169	-2.5198507373	-0.2359603232	-0.30534
C	 1.3614051597	-1.9151535902	 1.0670157198	 0.334661
C	 1.3118659075	-2.9233324476	 2.1907353174	-0.45101
C	 2.2669266616	-0.7008398669	 1.1865434796	-0.327972
C	 0.7676407666	-0.5382206634	 1.2400611761	-0.085661
H	 1.182757418	 1.8248376612	-0.2062324853	 0.127828
H	-0.4299608413	 1.8966887419	-0.9490756872	 0.126404
H	-0.2538167218	 2.0489157289	 0.8122808381	 0.118073
H	-1.0634274089	-0.2213595176	 0.2061429873	 0.088947
H	 0.8103154452	-2.2235505437	-2.2071888738	 0.121408
H	 2.1123524598	-3.6605419627	 2.0738353867	 0.127797
H	 1.4265490016	-2.4355976692	 3.1636097424	 0.105666
H	 0.3585790651	-3.4623359879	 2.1875440245	 0.119353
H	 2.8272137571	-0.5680800587	 2.1062015078	 0.112581
H	 2.7901312136	-0.386868599	 0.2892978756	 0.124264
H	 0.3282849042	-0.2982601081	 2.204943789	 0.088034
94.3574	158.7034	217.1784	227.9983	250.8791	328.3234	357.3926	364.6471	438.3366	506.699	589.2228	632.6354	698.9762	751.3518	842.4337	869.1982	880.3648	927.7231	943.4556	959.804	997.2287	1019.7783	1044.2578	1063.0968	1115.5839	1125.3035	1136.1684	1152.3577	1180.0965	1276.6565	1292.459	1369.2147	1372.296	1405.8108	1408.1226	1415.2281	1425.7275	1480.1224	1483.0326	1489.5296	1495.3193	1501.6784	1717.3217	2996.9061	3033.1935	3043.8484	3100.6681	3110.0866	3118.6131	3125.1949	3128.4349	3141.5924	3157.8034	3216.9703
CC1OC=NC2(C)CC12	C[C@H]1OC=N[C@@]2(C)C[C@@H]12	
InChI=1S/C7H11NO/c1-5-6-3-7(6,2)8-4-9-5/h4-6H,3H2,1-2H3	InChI=1S/C7H11NO/c1-5-6-3-7(6,2)8-4-9-5/h4-6H,3H2,1-2H3/t5-,6+,7+/m1/s1
