19
gdb 122740	11.11044	0.37371	0.3648	4.4375	85.17	-0.2631	-0.0577	0.2053	2796.765	0.155995	-423.002267	-422.991214	-422.99027	-423.04124	36.249	
O	-0.089965381	 1.4859327387	 0.0109121758	-0.42017
C	 0.0339743429	 0.072303496	 0.002063485	-0.081179
C	-1.3707550171	-0.5167695282	 0.012325606	-0.163016
C	-1.3741102927	-2.0464534386	 0.0041492873	-0.182636
C	-2.8044961525	-2.6223850609	 0.0147731722	-0.367971
C	-2.8495595374	-4.0762466724	 0.0071443509	 0.064896
C	-2.8793715829	-5.2843899428	 0.0010035554	 0.069727
C	-2.8801524657	-6.7231384529	-0.0067656989	 0.016337
O	-3.8750998582	-7.4122164193	-0.0004171733	-0.230317
H	 0.7929780084	 1.8667706404	 0.0043315518	 0.287654
H	 0.5774803782	-0.2754775464	-0.8919359354	 0.087098
H	 0.5944759488	-0.2850821707	 0.8816685296	 0.087097
H	-1.896996257	-0.1410786029	 0.8986167833	 0.109764
H	-1.9137930851	-0.131643621	-0.8596671425	 0.109762
H	-0.8478957244	-2.4226620577	-0.8811060674	 0.112906
H	-0.8312142505	-2.4320679909	 0.8751616746	 0.11291
H	-3.3465703881	-2.2566409035	 0.8973021916	 0.145875
H	-3.3633709843	-2.2473233742	-0.8532117833	 0.145871
H	-1.8671974714	-7.1755854528	-0.0192632326	 0.095392
22.111	47.5383	53.1086	90.6075	129.0056	144.8922	193.1643	196.0341	261.8476	334.6373	410.5042	414.6235	528.0627	606.2746	736.6116	791.6848	831.4009	919.7033	992.6676	1022.1724	1038.5166	1056.8563	1088.0606	1121.6836	1159.6197	1204.1636	1223.9801	1276.0133	1286.4687	1316.8339	1322.4283	1346.0281	1392.3341	1423.3202	1457.7287	1463.464	1488.5127	1502.6169	1528.7206	1766.2765	2329.1933	2913.01	2958.1802	2983.2262	3015.3923	3026.142	3037.5456	3042.5114	3061.4131	3085.9403	3831.1617
OCCCCC#CC=O	OCCCCC#CC=O	
InChI=1S/C7H10O2/c8-6-4-2-1-3-5-7-9/h7-8H,1-2,4,6H2	InChI=1S/C7H10O2/c8-6-4-2-1-3-5-7-9/h7-8H,1-2,4,6H2
