16
gdb 53822	2.7217	1.41984	1.08631	7.6989	65.64	-0.2478	-0.0661	0.1818	1098.544	0.124855	-475.033938	-475.025939	-475.024995	-475.067913	29.078	
O	-0.2204296392	 0.1467466479	-0.5824402529	-0.290042
C	-0.7415458157	 1.225243001	-0.6322074213	 0.303203
O	-0.986631131	 1.8519816269	-1.7808705562	-0.392079
C	-1.1510850952	 1.9248389204	 0.7227717461	 0.259384
O	-0.9150442361	 1.3308964936	 1.741697451	-0.257368
C	-1.8200234989	 3.2957676749	 0.7826594606	-0.11896
C	-1.1489508486	 4.4249217165	-0.0559901535	-0.197361
N	-2.1414439429	 4.1606339822	-1.1294132218	-0.332382
H	-2.4992212523	 4.9527795346	-1.6515898195	 0.242657
H	-1.4265016948	 2.747391522	-1.6841267385	 0.341075
C	-3.048315802	 3.5025050931	-0.1539309614	-0.197362
H	-1.9800364245	 3.513263172	 1.8369572201	 0.116211
H	-1.266121936	 5.4007010186	 0.4284478063	 0.124722
H	-0.1075903577	 4.2944352837	-0.3634385681	 0.136792
H	-3.5607194894	 2.6175018447	-0.5414777101	 0.136791
H	-3.7818099359	 4.1789755578	 0.2987702692	 0.124719
22.6358	100.3432	210.237	246.886	270.9893	333.008	404.9681	496.3117	520.8506	559.5422	714.6043	761.7044	804.7417	856.0049	939.1077	965.0033	972.1765	993.7371	1009.1829	1038.7293	1079.8059	1129.8589	1182.423	1212.4875	1212.6583	1271.651	1279.4455	1329.6663	1348.9697	1366.007	1488.1586	1508.364	1533.0767	1814.1997	1852.1447	3015.6192	3036.7551	3055.9862	3096.6904	3097.5903	3136.0676	3536.6344
[O-]C(=O)C(=O)C1C[NH2+]C1	O=C(O)C(=O)C1CNC1	
InChI=1S/C5H7NO3/c7-4(5(8)9)3-1-6-2-3/h3,6H,1-2H2,(H,8,9)	InChI=1S/C5H7NO3/c7-4(5(8)9)3-1-6-2-3/h3,6H,1-2H2,(H,8,9)
