17
gdb 106023	2.62873	1.64658	1.24917	3.2924	72.77	-0.2105	0.01	0.2205	1036.7765	0.136521	-417.933413	-417.925464	-417.924519	-417.966119	30.118	
C	 0.1287766764	 1.3450342807	 0.3921904384	-0.333447
N	-0.1067252397	 0.0284697363	-0.2092554845	-0.404439
C	-1.4289880137	-0.435614453	-0.1467789038	 0.230893
C	-2.0655868456	-0.9181809788	 1.1493464364	-0.057351
N	-3.5330592657	-0.7474826026	 0.9937819299	-0.327419
C	-3.3391827923	-1.4137616302	-0.3486437865	-0.200926
C	-1.920929407	-1.9405516362	 0.0758161522	-0.145849
C	-2.5618997628	-0.3230864568	-1.1221307907	 0.42923
O	-2.660769377	 0.1650841317	-2.2147162642	-0.357454
H	 1.1875986	 1.5968612808	 0.288482605	 0.123399
H	-0.4695456027	 2.1517877111	-0.0555864544	 0.124575
H	-0.1031430408	 1.3038383755	 1.4604456769	 0.128338
H	 0.2148604857	 0.0186881432	-1.171461468	 0.236933
H	-1.5419983366	-0.8052868396	 2.090639043	 0.111838
H	-3.9705507666	-1.437746454	 1.6050842811	 0.221087
H	-4.1605774631	-1.9677562186	-0.7918525324	 0.097797
H	-1.3318925184	-2.8288183396	-0.1011232684	 0.122796
75.2725	151.4704	174.7488	180.7716	258.74	371.9767	466.4778	501.0574	617.2632	666.1871	677.3492	746.5495	778.95	801.3185	830.316	863.9162	918.222	945.6281	966.9071	994.3406	1033.7963	1054.0847	1068.3962	1134.0855	1154.5673	1155.9564	1169.1361	1185.846	1247.5201	1323.4287	1360.6475	1430.7809	1472.9789	1487.6705	1494.0351	1523.8187	1867.664	2998.3239	3081.0266	3117.8668	3179.3369	3196.6557	3226.8575	3447.0323	3526.7047
CNC12C3NC(C13)C2=O	CN[C@]12[C@H]3N[C@H]([C@@H]13)C2=O	
InChI=1S/C6H8N2O/c1-7-6-2-3(5(6)9)8-4(2)6/h2-4,7-8H,1H3	InChI=1S/C6H8N2O/c1-7-6-2-3(5(6)9)8-4(2)6/h2-4,7-8H,1H3/t2-,3-,4+,6+/m1/s1
