15
gdb 123641	4.07154	1.55523	1.22368	4.3757	70.31	-0.2387	-0.0087	0.23	964.4517	0.116193	-416.771078	-416.76496	-416.764016	-416.801533	24.766	
C	-0.0536888067	 1.5123490979	 0.0049303604	-0.363678
C	 1.4384669996	 1.9027270991	-0.0316040644	-0.024087
N	 2.2085010884	 1.4837006408	 1.1543302116	-0.324044
C	 2.2981221281	 0.6721319144	-0.0901071047	-0.242674
C	 1.3398905891	-0.4605988183	-0.0759941669	 0.236707
C	 0.0716719149	 0.0187636613	 0.0012533943	 0.38572
O	-0.823332767	-0.9581573727	 0.0984668298	-0.226178
N	-0.1191364242	-2.1827417848	 0.0665823047	-0.14375
C	 1.155027248	-1.8627337845	-0.0269042972	-0.135377
H	-0.5513264942	 1.8942154913	 0.9019174859	 0.144694
H	-0.5950869747	 1.8920282624	-0.8691779843	 0.128444
H	 1.7226796367	 2.8163922766	-0.5418525637	 0.09832
H	 3.0352753774	 2.0739537438	 1.2301149969	 0.233091
H	 3.2309645558	 0.6442157057	-0.641058759	 0.099827
H	 1.8784222688	-2.6653327929	-0.0617656335	 0.132985
159.4482	226.3776	357.7293	420.519	466.5946	595.4794	635.3452	694.1269	720.5069	785.3144	815.8674	843.0841	858.778	887.0946	910.0928	933.9165	973.6103	993.9228	1060.979	1116.7595	1139.6469	1179.0921	1179.7958	1198.6561	1218.7177	1285.9669	1318.8308	1364.7056	1390.7351	1447.3769	1466.8436	1512.7067	1633.4314	3044.1461	3088.7576	3170.7532	3183.1179	3241.5481	3482.4442
C1C2NC2C2=C1ON=C2	C1[C@H]2N[C@H]2c2c1onc2	
InChI=1S/C6H6N2O/c1-4-6(8-4)3-2-7-9-5(1)3/h2,4,6,8H,1H2	InChI=1S/C6H6N2O/c1-4-6(8-4)3-2-7-9-5(1)3/h2,4,6,8H,1H2/t4-,6+/m1/s1
