17
gdb 121788	2.31524	0.97921	0.7923	2.0208	77.07	-0.2642	0.0008	0.265	1470.5577	0.131637	-421.726071	-421.715911	-421.714966	-421.762188	36.096	
O	 0.0355721751	 1.3786251242	-0.3221769459	-0.419632
C	-0.0544606944	 0.0276088085	 0.0792899034	-0.059471
C	-1.4985255836	-0.4449528889	 0.1305160992	-0.076334
O	-2.0014586007	-0.3206104436	-1.196994545	-0.259066
C	-3.38640754	-0.615759825	-1.3291728325	-0.21905
C	-4.2410915252	 0.3775545471	-0.6563805879	 0.341443
C	-4.926202265	 1.183258508	-0.0874321565	-0.461135
C	-3.7007019626	-0.7046536174	-2.7569563733	 0.307986
C	-3.9742062502	-0.7980465093	-3.9213982812	-0.400663
H	-0.4908869596	 1.4524448822	-1.1268896486	 0.292235
H	 0.5154298513	-0.6343935585	-0.5920503255	 0.095798
H	 0.3880753553	-0.0447180656	 1.0783087655	 0.110174
H	-1.5604936959	-1.4916678263	 0.4690111293	 0.090665
H	-2.0786657365	 0.1850344294	 0.8178190743	 0.11567
H	-3.5867556688	-1.6002267044	-0.8704462181	 0.127418
H	-5.5359314244	 1.8994473482	 0.4066175089	 0.20875
H	-4.2134791747	-0.8736156088	-4.9535938365	 0.205211
38.6318	68.4668	116.7473	129.4915	174.1761	231.5052	272.7171	333.0973	335.989	425.0097	492.0811	502.619	558.6895	630.5905	639.4417	647.1465	679.2504	684.8555	868.052	891.8841	921.4676	1032.4921	1042.2415	1086.9811	1116.5165	1137.4036	1236.6938	1262.4759	1326.3463	1328.23	1387.7382	1414.0667	1440.1705	1498.5533	1506.2227	2237.2236	2252.0593	2946.3699	2977.6251	2984.6791	3046.0824	3079.1928	3500.7149	3502.8129	3797.0453
OCCOC(C#C)C#C	OCCOC(C#C)C#C	
InChI=1S/C7H8O2/c1-3-7(4-2)9-6-5-8/h1-2,7-8H,5-6H2	InChI=1S/C7H8O2/c1-3-7(4-2)9-6-5-8/h1-2,7-8H,5-6H2
