14
gdb 132780	2.35932	1.8284	1.03106	2.7644	68.57	-0.2128	-0.0051	0.2077	1047.7733	0.102016	-478.024902	-478.017372	-478.016428	-478.056559	29.31	
N	 0.0000739027	 1.4241113401	-0.1472004952	-0.596864
C	 0.0207404692	 0.0369949304	-0.056642906	 0.198149
C	-1.1792702525	-0.685294352	-0.0849300599	 0.233261
O	-2.3598522884	-0.0137406672	-0.1334291196	-0.449922
C	-1.1065669237	-2.0703755941	-0.0531570342	 0.126587
F	-2.2732423284	-2.7464600624	-0.0765631584	-0.09727
C	 0.1122083501	-2.7234866281	 0.0077040068	-0.114743
N	 1.2591165703	-2.0425559541	 0.0418838893	-0.276193
C	 1.2032007211	-0.7115007718	 0.010967729	-0.062516
H	 0.8027531295	 1.8876192501	 0.2521506976	 0.253356
H	-0.8711833428	 1.8458762836	 0.1404792759	 0.26266
H	-3.0738485083	-0.6631797995	-0.1298230867	 0.308847
H	 0.1509266194	-3.8081812738	 0.0309924238	 0.117585
H	 2.1557197918	-0.1850845613	 0.0393129476	 0.09706
157.3321	251.8558	284.3112	288.8584	300.4576	330.139	431.6033	487.3897	508.7591	561.6102	594.129	599.0635	626.083	699.1605	758.6376	847.8148	880.791	925.9409	1018.0304	1111.4988	1193.9273	1251.7781	1299.6203	1316.945	1356.8857	1386.7881	1475.7717	1553.582	1624.3828	1642.06	1666.3386	3138.6236	3176.7552	3566.3996	3669.5672	3796.9794
NC1=C(O)C(F)=CN=C1	Nc1c(O)c(F)cnc1	
InChI=1S/C5H5FN2O/c6-3-1-8-2-4(7)5(3)9/h1-2H,7H2,(H,8,9)	InChI=1S/C5H5FN2O/c6-3-1-8-2-4(7)5(3)9/h1-2H,7H2,(H,8,9)
