17
gdb 93314	2.11784	1.68491	1.11407	5.6536	72.66	-0.2613	0.0004	0.2617	1107.5285	0.137404	-418.071987	-418.063468	-418.062524	-418.105367	31.254	
C	-0.1393582934	 1.5644489174	-0.0757444217	-0.42094
C	 0.0687966561	 0.0559382861	-0.0074609467	 0.009273
C	 0.9055541407	-0.5276985163	-1.1686627169	-0.177143
N	 1.4016748726	-1.7724770584	-0.6091378481	-0.302923
C	 1.4081959836	-1.8420999092	 0.7522410373	 0.412924
O	 1.803164397	-2.7493634353	 1.4406859181	-0.360192
C	 0.7970240744	-0.4945745328	 1.2511225477	-0.286886
C	 1.8709841654	 0.3756414642	 1.7239461269	 0.289398
N	 2.7188048964	 1.0806760165	 2.0715412541	-0.329149
H	 0.8118141669	 2.10130997	-0.0184506574	 0.150176
H	-0.6319602407	 1.8388378618	-1.0141886725	 0.122311
H	-0.7715135719	 1.9126228159	 0.7464107321	 0.130719
H	-0.9052518573	-0.4455607719	-0.0269860428	 0.103722
H	 0.2941570536	-0.7054657143	-2.0583279833	 0.12313
H	 1.7246406631	 0.1501802516	-1.4477112118	 0.125257
H	 1.8534468591	-2.4915998107	-1.1518445128	 0.262579
H	 0.1178070744	-0.6955891347	 2.0827976376	 0.147743
69.1495	138.5463	168.185	186.5326	230.487	283.9125	407.8004	433.2948	459.0282	495.1604	555.5268	634.7047	694.1441	717.1451	830.6194	890.1367	923.3543	965.0202	980.0379	1064.1383	1082.5026	1141.5454	1160.4445	1196.834	1230.2235	1264.4547	1299.1087	1337.6646	1359.5034	1372.4372	1419.7574	1450.2264	1497.2169	1499.1779	1530.4431	1852.2011	2352.6381	3006.9117	3041.1928	3044.5062	3079.6444	3094.5963	3108.7465	3121.5806	3642.9219
CC1CNC(=O)C1C#N	C[C@H]1CNC(=O)[C@H]1C#N	
InChI=1S/C6H8N2O/c1-4-3-8-6(9)5(4)2-7/h4-5H,3H2,1H3,(H,8,9)	InChI=1S/C6H8N2O/c1-4-3-8-6(9)5(4)2-7/h4-5H,3H2,1H3,(H,8,9)/t4-,5-/m0/s1
