21
gdb 63703	2.49642	1.56161	1.19599	2.0921	78.07	-0.2381	0.0672	0.3053	1117.7725	0.181006	-424.203613	-424.194625	-424.19368	-424.236558	36.116	
C	-0.0289130595	 1.5692125501	-0.0462876141	-0.466308
C	 0.0553760475	 0.0541523054	-0.0056582699	 0.403848
O	-1.2442708936	-0.53594769	-0.1397825878	-0.485072
C	 1.054185627	-0.6895541784	-0.9477168435	-0.356953
C	 1.3735143138	-1.69004693	 0.2147852956	 0.449826
O	 1.0034347432	-3.0206893777	 0.0361792014	-0.487938
C	 2.7268027397	-1.4584234822	 0.8949688439	-0.266736
C	 2.1022789804	-0.2468417505	 1.6553816533	-0.258279
C	 0.6739108807	-0.6775418765	 1.2028197685	-0.100398
H	 0.948665766	 2.0330229237	 0.1132162768	 0.118579
H	-0.3971691716	 1.9116652318	-1.0218726971	 0.105386
H	-0.7174029354	 1.9326473254	 0.7229410487	 0.12539
H	-1.6011390978	-0.261708712	-0.9925671775	 0.273401
H	 0.5901984124	-1.14190471	-1.8285889981	 0.08987
H	 1.9158782852	-0.0956352649	-1.2673012419	 0.095536
H	 0.0709221676	-3.0240171426	-0.2106823959	 0.27911
H	 2.9566444949	-2.2848333839	 1.5724522275	 0.110422
H	 3.5914114283	-1.2744471413	 0.2508373089	 0.092644
H	 2.2533439837	-0.2560085256	 2.735864286	 0.10779
H	 2.4203305331	 0.7297458754	 1.2811507038	 0.098827
H	-0.0204210955	-0.9771337864	 1.9884551712	 0.071055
80.1352	210.7776	219.9428	225.9875	310.46	328.9909	343.4523	364.4614	407.8002	417.291	445.0898	490.2097	594.3868	634.6201	736.9178	750.7572	840.1099	874.9727	888.8492	922.6858	931.5233	943.5771	992.0236	1002.7578	1047.3115	1074.0066	1105.8076	1117.5567	1142.0178	1184.0258	1198.5932	1232.1931	1235.6497	1259.2115	1265.8429	1294.3562	1323.3809	1371.532	1400.4689	1407.2576	1463.5602	1476.7718	1488.2547	1490.3219	1500.2247	3022.5123	3047.27	3053.9544	3067.1266	3088.3017	3102.6348	3105.2426	3109.7411	3114.7421	3126.0777	3787.1894	3791.6222
CC1(O)CC2(O)CCC12	C[C@@]1(O)C[C@@]2(O)CC[C@@H]12	
InChI=1S/C7H12O2/c1-6(8)4-7(9)3-2-5(6)7/h5,8-9H,2-4H2,1H3	InChI=1S/C7H12O2/c1-6(8)4-7(9)3-2-5(6)7/h5,8-9H,2-4H2,1H3/t5-,6+,7-/m0/s1
