17
gdb 35541	4.13668	1.10797	1.02432	4.8057	80.07	-0.2339	-0.0091	0.2248	1184.387	0.137943	-380.84998	-380.84245	-380.841506	-380.882239	29.157	
N	-0.0321690625	-1.1756423418	 0.0052715322	-0.324663
C	-0.0270001508	-0.0201757236	 0.0019799088	 0.288451
C	-0.0193179441	 1.4549213303	-0.0340044277	-0.15123
N	-0.6986843407	 2.0239105363	 1.156685204	-0.320543
C	 0.0452393181	 3.2111031062	 1.5521106259	-0.009172
C	 0.8548453014	 3.345813402	 2.9014865319	-0.235693
C	 2.1323968905	 3.6941185558	 2.0452192208	-0.315563
C	 1.3818386722	 3.0432544582	 0.905977707	 0.269931
C	 1.4062386549	 2.0138383124	 0.07025489	-0.225756
H	-0.5053416919	 1.7437869334	-0.9825401339	 0.117765
H	-1.6838379034	 2.1836621618	 0.9925134098	 0.227707
H	-0.4721033642	 4.1539907884	 1.3239656983	 0.078846
H	 0.5176258305	 4.1013569526	 3.6144396701	 0.104076
H	 0.9510963107	 2.3747047082	 3.389208058	 0.127627
H	 2.2541830882	 4.775234565	 1.9292698646	 0.119556
H	 3.0882233544	 3.2542459292	 2.3332171246	 0.123637
H	 2.2512026367	 1.5132502955	-0.3821744443	 0.125024
70.7281	150.7197	214.2342	284.4305	337.2219	387.6105	489.8486	551.7374	577.8702	665.1167	695.5072	771.6206	806.3353	831.9344	843.5879	904.9024	917.9286	941.5862	991.4945	1026.296	1034.5159	1078.2845	1116.6671	1133.1538	1172.2369	1203.7292	1227.5773	1246.4826	1251.4725	1291.2121	1338.5435	1376.7319	1435.2117	1470.7004	1483.6574	1733.4451	2357.3718	2938.4832	2993.9304	3061.2405	3072.0668	3124.0402	3146.8143	3230.5909	3571.2558
N#CC1NC2CCC2=C1	N#C[C@H]1N[C@H]2CC[C]2[CH]1	
InChI=1S/C7H8N2/c8-4-6-3-5-1-2-7(5)9-6/h3,6-7,9H,1-2H2	InChI=1S/C7H8N2/c8-4-6-3-5-1-2-7(5)9-6/h3,6-7,9H,1-2H2/t6-,7-/m0/s1
