15
gdb 10571	2.62188	1.92323	1.30462	1.4307	75.12	-0.2409	0.0125	0.2534	961.5393	0.115668	-325.429947	-325.421416	-325.420471	-325.46247	31.733	
C	-0.0822003799	 1.5220323619	-0.0651617522	-0.403461
C	-0.0094887228	 0.0212780952	 0.0420539217	-0.023092
N	 1.2899181191	-0.6041559888	-0.176062022	-0.35405
C	 0.6911395954	-0.6729183534	 1.1944288416	-0.037914
C	 1.3634619946	 0.0944136829	 2.215047648	 0.315797
C	 1.8983810797	 0.7329346409	 3.0807892039	-0.45415
C	 0.1477029132	-1.9376820382	 1.6260787932	 0.268367
C	-0.2965836293	-3.0020765262	 1.9658011336	-0.451552
H	 0.8074261416	 1.9843842717	 0.3661674193	 0.143937
H	-0.1513003457	 1.8188749764	-1.1169581777	 0.125255
H	-0.9654696411	 1.9036829909	 0.45662886	 0.125377
H	-0.8857004375	-0.5159105289	-0.3169313801	 0.101182
H	 1.1848282234	-1.5168251951	-0.6138122074	 0.24441
H	 2.3818894271	 1.2920059093	 3.843276821	 0.198756
H	-0.6893036677	-3.9382853385	 2.2773268269	 0.201136
129.4173	138.0178	155.0438	177.3876	222.6694	321.4331	384.4013	474.2557	516.3133	568.9339	590.4417	604.4748	617.6497	623.2526	655.9339	666.0679	770.8377	877.5579	960.8855	1025.3791	1045.861	1084.5561	1125.753	1236.6519	1250.2963	1326.626	1403.6874	1440.7419	1486.0921	1492.13	2236.5624	2243.94	3041.7834	3105.4667	3122.1925	3144.3581	3500.428	3501.9624	3503.0103
CC1NC1(C#C)C#C	C[C@H]1NC1(C#C)C#C	
InChI=1S/C7H7N/c1-4-7(5-2)6(3)8-7/h1-2,6,8H,3H3	InChI=1S/C7H7N/c1-4-7(5-2)6(3)8-7/h1-2,6,8H,3H3/t6-/m1/s1
