16
gdb 9172	8.70534	0.79496	0.73509	2.3786	69.42	-0.2582	-0.0243	0.2339	1494.1911	0.129139	-417.090028	-417.081048	-417.080104	-417.124202	30.832	
C	 0.1752724119	 1.7427953437	-0.6509972851	-0.313406
N	-0.0585474734	 0.3708161295	-1.0540481013	-0.231566
C	 0.1192340509	-0.5316141482	-0.1882336618	 0.115252
N	-0.0898144089	-1.8688450089	-0.5155746474	-0.343027
C	 0.0799134506	-2.9108170733	 0.3567465442	 0.398467
O	 0.432125009	-2.7716197872	 1.5144661324	-0.369198
C	-0.201583597	-4.3046272284	-0.2035343227	-0.148226
O	 0.008286326	-5.2687426687	 0.7816595109	-0.416257
H	 0.4919609086	 1.8512221105	 0.3977137966	 0.106987
H	 0.9437477253	 2.185873803	-1.2944771689	 0.132924
H	-0.7392422435	 2.3277155874	-0.8009095454	 0.132926
H	 0.4353287988	-0.3891141371	 0.8488124934	 0.135653
H	-0.3832056554	-2.0493053522	-1.4659448977	 0.266547
H	-1.239042295	-4.331746023	-0.5755973997	 0.1177
H	 0.4531821883	-4.4732920078	-1.0743161964	 0.117666
H	 0.2813058039	-4.7671473593	 1.5677105989	 0.297558
62.0048	97.9304	119.8754	135.9327	214.4928	280.9663	323.1373	366.6264	380.944	420.3582	568.0475	569.3633	654.4012	731.5701	937.7252	1004.3671	1033.2641	1062.0275	1119.804	1142.6922	1150.413	1193.837	1247.824	1253.645	1314.7264	1362.6276	1446.2593	1456.7783	1479.2442	1497.4008	1505.1517	1535.1121	1760.1779	1787.9117	2971.1397	2983.739	2989.5593	3066.1587	3081.1949	3100.8668	3603.8509	3672.4706
CN=CNC(=O)CO	CN=CNC(=O)CO	
InChI=1S/C4H8N2O2/c1-5-3-6-4(8)2-7/h3,7H,2H2,1H3,(H,5,6,8)	InChI=1S/C4H8N2O2/c1-5-3-6-4(8)2-7/h3,7H,2H2,1H3,(H,5,6,8)
