19
gdb 65537	2.86294	1.59767	1.3355	1.6484	80.71	-0.2433	0.0395	0.2828	1028.3485	0.158795	-385.835161	-385.827149	-385.826205	-385.867123	32.514	
C	-0.0609726413	 1.5277219795	-0.034830456	-0.446367
C	 0.0382303252	 0.0020939379	 0.0541948328	 0.192093
O	 0.9078705627	-0.505590596	-1.0046213858	-0.315474
C	 1.901234946	-1.2368877191	-0.261496011	 0.114851
C	 1.0768602248	-2.0166446322	 0.7905047697	-0.246043
C	 0.8067369818	-0.5594730794	 1.2841526083	-0.081689
C	 2.2858393831	-0.2636051699	 0.8767003496	-0.251448
C	-1.3036082885	-0.5776994594	-0.0757041028	 0.326713
C	-2.4186216467	-1.0172526544	-0.1691796496	-0.450189
H	 0.9153590017	 1.9966310561	 0.099211564	 0.119467
H	-0.4483242127	 1.811211607	-1.016607634	 0.138006
H	-0.7472494072	 1.9076385403	 0.7276186169	 0.123985
H	 2.6089244121	-1.6897015344	-0.9537916838	 0.081442
H	 0.2310211346	-2.6062435305	 0.4351866662	 0.11727
H	 1.6938008798	-2.5865742228	 1.4868092064	 0.100307
H	 0.3941935045	-0.327475346	 2.2646646446	 0.080484
H	 2.9959645855	-0.6894317158	 1.5874731369	 0.102444
H	 2.578901575	 0.750169568	 0.601006976	 0.101393
H	-3.3988171605	-1.4159709888	-0.2600948384	 0.192753
147.56	150.4608	191.0367	260.8414	284.7995	436.5193	469.8515	491.3253	532.9504	557.709	613.5971	628.8796	654.1958	724.5214	831.7759	841.651	846.0626	874.2978	905.0674	939.9076	962.4381	988.2708	1036.3178	1044.487	1056.4602	1098.2405	1120.0128	1155.4246	1174.5948	1209.0802	1214.6097	1250.2841	1255.41	1290.2701	1321.351	1403.6502	1473.7126	1482.7594	1491.0192	1515.1951	2231.1748	3051.7038	3078.4077	3084.6464	3124.6315	3133.604	3137.0386	3140.0761	3144.7638	3149.7898	3500.3679
CC1(OC2CC1C2)C#C	C[C@]1(O[C@@H]2C[C@H]1C2)C#C	
InChI=1S/C8H10O/c1-3-8(2)6-4-7(5-6)9-8/h1,6-7H,4-5H2,2H3	InChI=1S/C8H10O/c1-3-8(2)6-4-7(5-6)9-8/h1,6-7H,4-5H2,2H3/t6-,7+,8-/m0/s1
