21
gdb 40004	3.31412	1.44221	1.33032	1.6694	81.23	-0.2549	0.0877	0.3426	1055.5889	0.185407	-387.073531	-387.066308	-387.065364	-387.104891	30.336	
C	 0.9046964181	 1.1743740314	-0.000387314	-0.248101
O	 1.2144708705	-0.2197425011	-0.0110008766	-0.273948
C	-0.1741511598	 0.1809862637	 0.0047548615	 0.420263
C	-0.904396579	-0.1676480731	 1.3006755848	-0.275299
C	-1.841287827	-1.3672379109	 1.0774885522	-0.015218
C	-2.9199556589	-0.9915379196	 0.0252192467	-0.212552
C	-1.862106018	-1.3556520471	-1.0519624123	-0.015218
C	-1.2443962174	-2.3253571288	 0.0015814403	-0.235714
C	-0.9296295774	-0.1536052226	-1.2803581855	-0.275299
H	 1.1573555056	 1.7038535425	 0.9185966604	 0.106369
H	 1.1393975092	 1.7138479022	-0.9183197989	 0.106369
H	-0.1460239626	-0.38780436	 2.0587134656	 0.109194
H	-1.4875710014	 0.6912091923	 1.6582147715	 0.097663
H	-2.1770795725	-1.7934547227	 2.0256202686	 0.059789
H	-3.7549248874	-1.6974462047	 0.0295413963	 0.093657
H	-3.3132591891	 0.0311983887	 0.0346288252	 0.081927
H	-2.2164149966	-1.7715632684	-1.9979294488	 0.059789
H	-0.1634480004	-2.4829541003	-0.0098437189	 0.116948
H	-1.755145889	-3.2916204446	 0.0013175424	 0.092523
H	-1.5195911167	 0.7090292321	-1.61706231	 0.097664
H	-0.1862451701	-0.3654204092	-2.0554279731	 0.109194
99.2749	254.8163	299.6902	329.1298	398.7231	425.2166	440.7205	501.7929	533.3632	715.7682	789.8444	824.8777	828.3419	853.2136	869.7695	904.9344	907.1553	927.1303	943.7807	976.2733	992.2379	1067.2442	1081.7249	1088.5638	1099.15	1102.8689	1127.5797	1136.2626	1163.7807	1223.0408	1225.728	1254.9996	1266.6359	1280.0594	1291.2856	1315.976	1328.1557	1359.1394	1361.8558	1426.2292	1473.097	1475.398	1485.7399	1514.1397	1530.2538	3018.9044	3021.4511	3035.7839	3060.825	3069.3104	3073.2366	3076.1233	3081.1843	3083.0098	3097.6429	3120.3915	3151.4152
C1OC11CC2CC(C2)C1	C1O[C@]21C[C@H]1C[C@H](C1)C2	
InChI=1S/C8H12O/c1-6-2-7(1)4-8(3-6)5-9-8/h6-7H,1-5H2	InChI=1S/C8H12O/c1-6-2-7(1)4-8(3-6)5-9-8/h6-7H,1-5H2/t6-,7+,8-
