20
gdb 9906	4.10977	1.0985	1.03827	2.2461	71.89	-0.2553	0.0822	0.3374	1226.8586	0.175242	-386.116345	-386.107165	-386.106221	-386.150672	33.736	
C	-0.1374817849	 1.5861373879	 0.2711769315	-0.45474
C	-0.0859920797	 0.0922297735	 0.0364820857	 0.455211
C	 1.1975311361	-0.567692342	-0.4064135447	-0.318331
C	 0.6558239659	-0.7902572188	 0.9934433016	-0.310001
O	-1.2803287035	-0.4793175428	-0.4355846402	-0.30679
C	-1.622022457	-0.1772244236	-1.7825817836	-0.088035
C	-2.933371531	-0.8974166786	-2.055685508	-0.056605
O	-3.951087938	-0.4661935327	-1.1741869211	-0.422552
H	 0.7937572865	 1.933751114	 0.7269167453	 0.119025
H	-0.2758735336	 2.1430839532	-0.6612951753	 0.121442
H	-0.9637296703	 1.8378677592	 0.9443266504	 0.124755
H	 1.117856831	-1.3955699372	-1.1018689577	 0.117419
H	 2.0823623588	 0.046857661	-0.5329835764	 0.112817
H	 1.1668402051	-0.32796266	 1.830887388	 0.111767
H	 0.2129790607	-1.7567169308	 1.203631155	 0.122188
H	-1.7608310107	 0.9044833689	-1.9182361251	 0.099233
H	-0.8343052909	-0.5166660487	-2.4718870937	 0.088269
H	-3.270645366	-0.6789194655	-3.0743513881	 0.105949
H	-2.7677062275	-1.9841643873	-1.9791466061	 0.089818
H	-3.5629559411	-0.5083257499	-0.2921064675	 0.28916
41.9431	82.8958	145.983	203.1468	220.5623	280.2513	326.393	364.3542	405.078	444.8929	500.3264	522.6285	719.0712	778.2453	849.0495	863.9258	902.4887	930.1982	956.2161	992.9702	1035.0317	1058.161	1078.2684	1080.2726	1108.9168	1130.9544	1138.8245	1189.3626	1238.7254	1261.5001	1286.4934	1339.0239	1385.6372	1404.674	1418.9829	1440.6883	1455.1153	1485.5335	1492.1015	1499.9591	1504.428	1512.5884	2977.5948	2989.2956	3031.7645	3038.4511	3077.6793	3099.5168	3114.6684	3133.9183	3139.375	3217.8884	3233.0754	3793.3161
CC1(CC1)OCCO	CC1(CC1)OCCO	
InChI=1S/C6H12O2/c1-6(2-3-6)8-5-4-7/h7H,2-5H2,1H3	InChI=1S/C6H12O2/c1-6(2-3-6)8-5-4-7/h7H,2-5H2,1H3
