19
gdb 89204	2.43743	1.61684	1.28224	3.7453	77.71	-0.2308	0.0249	0.2557	1078.3211	0.158563	-419.187547	-419.178794	-419.177849	-419.220546	33.485	
C	-0.6211971077	 1.269782227	-0.0581072584	-0.416929
C	 0.0858586518	-0.0639682802	 0.0505903112	 0.142088
O	 1.303912259	-0.1319202288	-0.7363002402	-0.341855
C	 2.0857254971	-0.6074428968	 0.3919933734	 0.375743
C	 2.905071013	-1.8289252021	 0.0994638353	-0.486929
C	 0.8524301772	-0.444071455	 1.3401601614	-0.119258
N	 1.5879848808	 0.6256891988	 2.0140902407	-0.337289
C	 2.6871014518	 0.588785368	 1.1447495557	 0.349885
N	 3.754356538	 1.2427775467	 0.9816974053	-0.5565
H	 0.0182375841	 2.0855732228	 0.2904355741	 0.11883
H	-0.8815252597	 1.4694662251	-1.1018010737	 0.137258
H	-1.5464893683	 1.2652443396	 0.528658955	 0.116383
H	-0.5876303725	-0.8798864348	-0.2492249233	 0.078755
H	 3.6849978726	-1.5744673189	-0.6251180498	 0.152307
H	 3.3938351664	-2.1934985419	 1.0077092618	 0.129372
H	 2.2848419236	-2.6252178919	-0.3211251587	 0.12263
H	 0.4377168681	-1.2114642981	 1.9939639086	 0.090039
H	 1.1941668863	 1.4480044935	 2.4517219287	 0.236878
H	 3.8197029285	 2.0387903072	 1.6193105429	 0.208593
93.8662	182.064	187.1188	214.8165	237.9627	265.2824	270.0377	402.5193	441.0315	470.0581	574.7867	643.4719	686.9729	715.3669	789.4464	834.7588	848.566	880.9725	896.9345	952.2922	981.9099	1034.6408	1072.8197	1106.1667	1126.5516	1140.2456	1152.2539	1178.3284	1258.872	1299.0934	1318.9213	1351.3726	1368.2592	1382.1842	1408.9493	1411.6805	1477.7029	1483.0799	1484.7227	1496.6581	1796.2517	2996.8164	3037.5357	3042.4577	3108.3762	3109.1039	3116.4785	3119.6988	3121.8669	3451.8207	3577.8567
CC1OC2(C)C1NC2=N	C[C@H]1O[C@]2(C)[C@H]1N[C]2[NH]	
InChI=1S/C6H10N2O/c1-3-4-6(2,9-3)5(7)8-4/h3-4H,1-2H3,(H2,7,8)	InChI=1S/C6H10N2O/c1-3-4-6(2,9-3)5(7)8-4/h3-4H,1-2H3,(H2,7,8)/t3-,4+,6-/m1/s1
