18
gdb 32218	2.67638	1.47488	1.02905	1.1295	82.07	-0.2267	-0.0169	0.2097	1172.9437	0.14909	-402.018097	-402.009834	-402.00889	-402.051041	31.515	
C	-0.1292477257	 1.5717307051	 0.0458607297	-0.380281
C	 0.0434750323	 0.0416582943	 0.0122844274	-0.308303
C	 0.7363668126	-0.5015259972	 1.2419021199	 0.214798
N	 2.045276321	-0.7521850604	 1.1406568293	-0.308347
C	 2.7031621069	-1.2086774728	 2.2077512739	-0.025273
C	 2.0891988892	-1.4433490058	 3.4340498355	-0.115852
C	 0.7298148414	-1.1890825771	 3.5551274181	-0.152278
C	 0.040403056	-0.7072534792	 2.4468989715	 0.303581
O	-1.291948668	-0.4549675871	 2.5907500005	-0.438126
H	 0.8466206056	 2.0599775453	 0.1179063161	 0.138529
H	-0.626346319	 1.9298123529	-0.8607698499	 0.118435
H	-0.7238476942	 1.8947033568	 0.9074200947	 0.116341
H	-0.934990683	-0.4422118987	-0.1280628996	 0.091928
H	 0.6505252913	-0.2411622413	-0.8510496948	 0.129869
H	 3.7650394528	-1.3968982234	 2.0734253047	 0.102742
H	 2.66157296	-1.8183530283	 4.2752850219	 0.100245
H	 0.1919115733	-1.3527811263	 4.4822958386	 0.11129
H	-1.6552121523	-0.1671560466	 1.7475013724	 0.300702
72.5658	121.4422	212.9594	229.3623	323.395	341.6461	352.6943	445.4981	492.7405	544.7096	581.3921	600.2137	734.2953	781.6448	797.96	834.6248	867.8512	944.9389	976.9362	981.0594	1037.2564	1077.3711	1084.8952	1135.8217	1172.8789	1237.786	1270.6431	1281.6082	1326.3944	1349.41	1353.02	1410.6887	1478.8502	1485.3602	1495.3983	1503.5863	1512.0365	1613.9907	1644.2522	2993.3763	3035.9537	3091.5612	3109.3859	3119.5254	3159.4341	3188.3971	3203.824	3832.3218
CCC1=NC=CC=C1O	CCc1ncccc1O	
InChI=1S/C7H9NO/c1-2-6-7(9)4-3-5-8-6/h3-5,9H,2H2,1H3	InChI=1S/C7H9NO/c1-2-6-7(9)4-3-5-8-6/h3-5,9H,2H2,1H3
