19
gdb 50159	5.55265	0.79271	0.78657	1.2191	76.81	-0.2515	-0.0288	0.2226	1461.4227	0.15825	-422.998305	-422.989665	-422.98872	-423.032948	31.267	
O	 1.3644746929	-0.3564859125	-0.2380886525	-0.249121
C	 0.6862686148	 0.6233041588	-0.0678684112	 0.160426
C	 1.1992258211	 2.0271378083	 0.0783658649	-0.059044
C	 0.5407290218	 3.1131363772	-0.8306733443	-0.322027
C	 0.4698661255	 4.0627721959	 0.3871539587	 0.310722
C	 1.4297344613	 5.269213274	 0.478693204	-0.122966
O	 0.3342926373	 6.1854405105	 0.6677406876	-0.271789
C	-0.6298511966	 5.1161553015	 0.5943087079	-0.143141
C	 0.6811313628	 2.8390469782	 1.307880752	-0.322043
H	-0.4276578424	 0.5472545421	-0.0043567669	 0.063907
H	 2.2884366116	 2.0232101351	 0.0063207843	 0.095987
H	 1.111656432	 3.4423721512	-1.7021389191	 0.117708
H	-0.4582653401	 2.806363884	-1.1615167578	 0.108675
H	 2.1157949824	 5.2650149321	 1.3364923522	 0.10188
H	 1.9998696398	 5.4915957793	-0.4334483646	 0.101889
H	-1.3250284571	 5.2434560182	-0.246735176	 0.101286
H	-1.2085945067	 5.0169564392	 1.5227777366	 0.101278
H	-0.271965016	 2.4426044545	 1.6766782451	 0.108673
H	 1.3646862756	 2.9482237522	 2.1532450492	 0.117701
51.9458	57.4088	78.9297	252.0166	274.9299	278.9313	365.4721	396.0456	400.2272	566.582	730.7809	812.9244	855.3406	883.073	896.3675	897.9652	920.6939	960.1058	990.1152	1041.2878	1046.7134	1066.4801	1089.2849	1149.7786	1159.458	1180.3473	1195.3269	1224.3204	1243.6401	1255.4538	1265.0311	1304.2298	1312.4932	1323.5944	1388.5185	1431.0158	1467.5047	1486.9531	1505.0036	1530.7075	1831.8086	2827.7342	2991.5794	3003.9661	3036.0517	3039.9707	3041.203	3042.8141	3093.7527	3105.4418	3112.4452
O=CC1CC2(COC2)C1	O=CC1CC2(COC2)C1	
InChI=1S/C7H10O2/c8-3-6-1-7(2-6)4-9-5-7/h3,6H,1-2,4-5H2	InChI=1S/C7H10O2/c8-3-6-1-7(2-6)4-9-5-7/h3,6H,1-2,4-5H2
