16
gdb 98500	2.41193	1.44417	0.97727	2.5928	71.24	-0.2903	-0.0097	0.2807	1191.9018	0.123112	-437.921122	-437.912017	-437.911073	-437.95566	31.859	
C	 0.210820234	 1.3474893649	 0.1338315193	-0.246786
O	 0.3494214181	-0.0811576255	 0.0772911418	-0.233893
C	 0.483983646	-0.5991971758	-1.1468923211	 0.449781
O	 0.4952161398	 0.0414989355	-2.1695055722	-0.381289
C	 0.622385317	-2.094059331	-1.1112311849	 0.012679
C	 0.0302701245	-2.8343254458	-2.3196794185	-0.274595
C	 1.5031303293	-2.6954906175	-2.2164571696	-0.274594
C	 0.5956217573	-2.7580754933	 0.163801398	 0.237355
N	 0.5786519755	-3.3265467066	 1.1705778378	-0.344391
H	 1.0905524132	 1.832743157	-0.2950265718	 0.147269
H	-0.6762683379	 1.6662037665	-0.418273416	 0.147261
H	 0.1142344432	 1.5894159682	 1.1913817514	 0.146762
H	-0.4229089755	-3.7957818025	-2.1126114378	 0.15041
H	-0.491460559	-2.1985004178	-3.0242187176	 0.15681
H	 1.9898351739	-1.964611502	-2.8503230218	 0.156809
H	 2.0941369005	-3.5585178344	-1.9362036472	 0.150411
53.6074	108.0183	131.0187	145.0972	222.6477	227.2267	297.0828	317.4703	400.8257	506.608	567.808	570.865	758.6492	782.9341	797.5435	867.1923	903.7249	970.2917	990.0691	1040.062	1078.7654	1110.2294	1179.0451	1195.382	1208.694	1232.1563	1305.2692	1336.4425	1450.6728	1474.2433	1479.8852	1482.4356	1494.9998	1809.7704	2358.4109	3057.8827	3135.4966	3155.1006	3156.0707	3171.1452	3247.9869	3261.2398
COC(=O)C1(CC1)C#N	COC(=O)C1(CC1)C#N	
InChI=1S/C6H7NO2/c1-9-5(8)6(4-7)2-3-6/h2-3H2,1H3	InChI=1S/C6H7NO2/c1-9-5(8)6(4-7)2-3-6/h2-3H2,1H3
