19
gdb 22442	2.57914	1.11793	0.79299	3.2076	77.72	-0.2454	-0.036	0.2094	1452.0702	0.156863	-456.339621	-456.328934	-456.32799	-456.377337	37.056	
C	 0.4151480958	 1.7699030928	 0.0346548412	-0.386549
C	 0.5670696542	 0.2597177271	 0.2011775669	-0.217228
C	 0.6096863378	-0.5359720475	-1.0838830234	 0.242107
N	 0.5192258308	 0.1383523299	-2.1681840624	-0.190876
O	 0.5737540989	-0.610362937	-3.3541294662	-0.402146
C	 0.7699555513	-2.037390849	-0.8653421296	 0.381651
O	 0.9631155511	-2.441850558	 0.2723588223	-0.3819
N	 0.6676561641	-2.8520867856	-1.9444169756	-0.328932
C	 0.7913560503	-4.291939989	-1.8315929311	-0.339732
H	 1.2433859733	 2.1939571792	-0.5392997174	 0.123207
H	-0.5090009239	 2.0241781452	-0.4914371474	 0.121975
H	 0.3952361654	 2.2508204896	 1.0169324985	 0.107889
H	 1.4748753021	 0.0154511536	 0.7644820306	 0.135545
H	-0.245862496	-0.1488263438	 0.8137349606	 0.128793
H	 0.4738224225	 0.068770383	-4.0287678886	 0.31452
H	 0.5360003184	-2.4248916793	-2.8469333614	 0.267274
H	 1.6834921616	-4.6574348165	-2.3535952645	 0.127848
H	 0.8737212239	-4.5403724794	-0.773581996	 0.17009
H	-0.0868342918	-4.7923251953	-2.2537779263	 0.126463
17.0684	43.9759	75.608	142.0057	182.9881	227.5652	251.9186	299.0648	325.7833	362.7603	369.8815	402.8054	463.2297	585.963	596.6339	639.5623	747.7594	820.4476	835.4188	958.7986	974.75	1046.6282	1095.6505	1100.0198	1150.4574	1167.7229	1185.6455	1273.1458	1293.2406	1365.3479	1390.3958	1416.0984	1436.2037	1457.685	1494.3168	1495.3698	1501.859	1502.1571	1584.0362	1704.7094	1751.2594	3027.125	3043.5617	3046.9766	3067.7842	3078.4983	3116.7945	3121.4763	3159.4775	3628.8021	3828.5987
CCC(=NO)C(=O)NC	CCC(=NO)C(=O)NC	
InChI=1S/C5H10N2O2/c1-3-4(7-9)5(8)6-2/h9H,3H2,1-2H3,(H,6,8)	InChI=1S/C5H10N2O2/c1-3-4(7-9)5(8)6-2/h9H,3H2,1-2H3,(H,6,8)
