15
gdb 16327	3.17855	2.06452	1.43191	2.1262	62.09	-0.2545	-0.0314	0.2231	859.521	0.118564	-399.761562	-399.754196	-399.753252	-399.793564	27.095	
O	 0.1298536384	 1.4300735382	 0.131473832	-0.412141
C	 0.0735293799	 0.0291324672	-0.0713176209	-0.184875
C	-1.3539804831	-0.4386754839	 0.0573455099	 0.20106
C	-1.9772701733	-1.1425927201	 1.214828724	-0.274591
N	-1.8978459293	-1.8765835244	-0.0445017323	-0.159245
C	-3.0697783632	-1.3752200649	-0.85586814	-0.285522
C	-2.4289226898	 0.024777289	-0.86906499	 0.365257
O	-2.5319511301	 1.0049230686	-1.5575368807	-0.325613
H	-0.4455403333	 1.833284102	-0.531300968	 0.300762
H	 0.4641720382	-0.2562390073	-1.0600645547	 0.106434
H	 0.7133108216	-0.434723431	 0.6850685749	 0.120705
H	-1.28490198	-1.4963505421	 1.9737448431	 0.140058
H	-2.9502178961	-0.8346647352	 1.5929888815	 0.12531
H	-3.084134592	-1.8212217351	-1.8535296905	 0.14852
H	-4.0416028879	-1.5124221312	-0.3736435785	 0.133881
65.3339	128.3442	201.1352	250.7556	383.587	460.3494	462.7908	485.6974	546.541	669.3423	736.5826	791.2897	854.9417	888.5095	957.7349	993.6875	1039.5872	1054.3556	1071.9209	1094.0946	1132.1613	1181.3245	1198.5532	1243.6774	1314.2311	1356.4963	1376.669	1436.1482	1459.8586	1501.9117	1510.7174	1864.3515	2989.3972	3062.2287	3085.2687	3100.3452	3124.9545	3194.1931	3774.5348
OCC12CN1CC2=O	OC[C@]12CN1CC2=O	
InChI=1S/C5H7NO2/c7-3-5-2-6(5)1-4(5)8/h7H,1-3H2	InChI=1S/C5H7NO2/c7-3-5-2-6(5)1-4(5)8/h7H,1-3H2/t5-,6?/m0/s1
