17
gdb 124691	3.78466	0.97408	0.82965	2.6364	69.91	-0.2644	-0.04	0.2244	1347.0433	0.134974	-455.119613	-455.110834	-455.10989	-455.153862	31.635	
C	 0.0319276397	 1.613163252	 0.1481927323	-0.404832
C	-0.0336828773	 0.0836265891	 0.0885096624	-0.113907
C	 0.7712487846	-0.5570491519	 1.2435483763	-0.07099
O	 2.1387287768	-0.1897224639	 1.220489235	-0.41399
C	-1.4385361132	-0.4326301795	 0.095390556	 0.252581
C	-2.6363124129	 0.1619475734	 0.3418609756	-0.052987
O	-3.6091448487	-0.7420018552	 0.2390700413	-0.16445
N	-2.9704864014	-1.9752824047	-0.0918786199	-0.004301
N	-1.7354110095	-1.7596079386	-0.1643616824	-0.180253
H	 1.0750701866	 1.9323496282	 0.1875825861	 0.13956
H	-0.4448549706	 2.0714442165	-0.7232207824	 0.118594
H	-0.4637112243	 1.9916256751	 1.0497719637	 0.116645
H	 0.4318710211	-0.2546843044	-0.8484258745	 0.092981
H	 0.3770634111	-0.1983868452	 2.2013065441	 0.114183
H	 0.6419796612	-1.6474370921	 1.2192622444	 0.115039
H	 2.5585694459	-0.6512372977	 0.4874613629	 0.286843
H	-2.9288612893	 1.1700930487	 0.582642289	 0.169285
46.2001	110.4567	126.2122	218.6934	247.7581	283.1347	312.1349	374.0731	413.1083	476.0231	636.5608	642.322	701.7379	754.2547	851.4559	882.4558	912.9628	978.9603	1020.8358	1061.0602	1070.3624	1110.9488	1118.7481	1154.0364	1212.0546	1243.2601	1310.7659	1329.3012	1361.3945	1393.7838	1404.7626	1418.3806	1467.6379	1494.096	1506.6735	1507.5828	1615.7652	3003.4944	3014.9796	3036.638	3074.4374	3102.4641	3136.8267	3291.1815	3816.716
CC(CO)C1=CON=N1	C[C@@H](CO)c1conn1	
InChI=1S/C5H8N2O2/c1-4(2-8)5-3-9-7-6-5/h3-4,8H,2H2,1H3	InChI=1S/C5H8N2O2/c1-4(2-8)5-3-9-7-6-5/h3-4,8H,2H2,1H3/t4-/m0/s1
