15
gdb 124194	4.65861	0.78478	0.70504	4.0767	74.42	-0.2639	-0.0438	0.2201	1558.3276	0.111415	-416.746047	-416.73729	-416.736346	-416.782422	29.539	
C	 0.1101598104	 1.402467974	-0.550851426	-0.496903
C	 0.0156171661	 0.0153231821	-0.1191969702	 0.071003
C	-0.0582909139	-1.1278002387	 0.2493969973	 0.055154
C	-0.157180574	-2.5196109573	 0.6806657831	-0.459974
C	-1.433335694	-3.1805758223	 0.2356826948	 0.344757
N	-2.1104080398	-3.983475623	 1.0113635175	-0.147142
O	-3.1793259509	-4.4087307284	 0.2721456892	-0.148367
N	-3.1690878039	-3.8582052074	-0.9782172846	-0.061223
C	-2.1079393105	-3.1034198617	-1.0169359063	-0.092419
H	 0.7937341595	 1.510696514	-1.3998272588	 0.151397
H	-0.8675776972	 1.7884737804	-0.8586930729	 0.153834
H	 0.4794381764	 2.0426879524	 0.2575133271	 0.154808
H	 0.6938453645	-3.0908623094	 0.2844866712	 0.155778
H	-0.0941317706	-2.5982871089	 1.771296413	 0.164
H	-1.854639452	-2.5328514957	-1.8962765643	 0.155299
19.8144	31.2572	69.2945	197.0284	225.2364	292.824	338.6369	377.1256	453.5243	647.6352	665.1314	739.3176	783.069	893.3374	895.4867	934.0522	943.392	1024.9165	1052.1975	1053.9225	1059.1497	1165.4061	1194.1813	1222.3236	1335.6951	1414.6314	1421.8511	1462.771	1466.8445	1477.2723	1478.0247	1613.0998	2379.1532	3015.0112	3030.1834	3071.0558	3092.2852	3093.1175	3276.3828
CC#CCC1=NON=C1	CC#CCc1nonc1	
InChI=1S/C6H6N2O/c1-2-3-4-6-5-7-9-8-6/h5H,4H2,1H3	InChI=1S/C6H6N2O/c1-2-3-4-6-5-7-9-8-6/h5H,4H2,1H3
