18
gdb 18938	3.12309	3.10129	2.42736	1.4645	69.05	-0.2405	0.0972	0.3377	684.1743	0.159322	-347.79971	-347.79462	-347.793676	-347.828508	23.043	
C	-0.035142924	 1.5867636584	 0.0067663318	-0.203196
C	 1.5066784251	 1.7284337867	 0.0427981523	-0.066364
C	 1.7379736658	 1.0863620742	 1.4310816834	-0.194258
C	 1.2757880681	-0.2900847441	 0.9197189822	 0.074624
O	 2.352147311	-0.5227983491	-0.0056221948	-0.264836
C	 1.9833831578	 0.5214894604	-0.9234641125	 0.074623
C	 0.6713013963	-0.1039393136	-1.4304168742	-0.194258
C	 0.0137535916	 0.0394294099	-0.0375219742	-0.066364
H	-0.5073292195	 2.0143274283	 0.894244339	 0.090987
H	-0.5227187027	 2.0073025874	-0.8757329008	 0.090987
H	 1.943528835	 2.706248575	-0.1534255508	 0.063875
H	 2.7756838617	 1.0294822523	 1.7623374464	 0.101898
H	 1.1262869453	 1.5510587937	 2.2077445682	 0.089161
H	 1.1788673893	-1.1231089513	 1.6138279823	 0.074094
H	 2.7940928137	 0.7237630269	-1.6212787889	 0.074094
H	 0.1303571927	 0.4498946987	-2.20110172	 0.089161
H	 0.8534998688	-1.1250425925	-1.7679976168	 0.101898
H	-0.9017265661	-0.5154345112	 0.1611880571	 0.063875
342.9878	495.212	547.9419	581.8708	610.7169	655.6513	745.0036	811.7493	820.1829	868.7125	891.6784	910.5259	920.7292	925.4644	942.4944	953.2372	953.6929	968.8427	1019.4714	1020.6067	1072.0132	1096.9028	1103.5658	1162.6617	1172.2682	1195.4451	1208.1501	1253.2116	1262.3081	1264.9668	1268.2869	1291.3071	1307.1247	1322.0411	1337.4957	1484.3217	1497.1344	1533.1168	3062.4585	3071.1051	3075.377	3108.7842	3126.5231	3127.3962	3131.4771	3131.7705	3137.2104	3143.1431
C1C2CC3OC2CC13	C1[C@H]2C[C@@H]3O[C@H]2C[C@H]13	
InChI=1S/C7H10O/c1-4-2-6-5(1)3-7(4)8-6/h4-7H,1-3H2	InChI=1S/C7H10O/c1-4-2-6-5(1)3-7(4)8-6/h4-7H,1-3H2/t4-,5-,6-,7-/m0/s1
