19
gdb 103911	3.07995	0.85492	0.75891	1.8622	73.34	-0.241	-0.0255	0.2154	1503.9919	0.156267	-460.146007	-460.13608	-460.135135	-460.181956	35.745	
O	 0.2667983484	 0.8879954476	 0.6636426036	-0.424197
C	-0.1377686606	 0.2588559618	-0.5531402069	-0.147229
C	-1.4762306731	-0.416130246	-0.3705368923	 0.384213
O	-2.4419816312	 0.4692809849	 0.1217086187	-0.46717
C	-1.9825394376	-1.4374373945	-1.3361147698	-0.342099
C	-1.6045179049	-1.8672275581	 0.0730671112	-0.082316
C	-0.4329873949	-2.805340533	 0.3144451696	-0.328219
C	-0.8378461971	-4.245516696	 0.0620115177	 0.176821
O	-0.2916713939	-4.9859561947	-0.7132231713	-0.235922
H	 0.5016784628	 0.1932784281	 1.2883426833	 0.288904
H	-0.2397600363	 1.0707385179	-1.2800939122	 0.127106
H	 0.6247290006	-0.4361280924	-0.92619787	 0.099552
H	-1.989658898	 0.9915567978	 0.7981469891	 0.285813
H	-3.0350087919	-1.3902106192	-1.5909804676	 0.131259
H	-1.3300070516	-1.7413812364	-2.1491771331	 0.123057
H	-2.4510059135	-2.0225068935	 0.736651685	 0.101569
H	 0.4207418959	-2.5833804655	-0.3314503907	 0.121541
H	-0.1013672599	-2.732515094	 1.3614499568	 0.11242
H	-1.7200283032	-4.5829040747	 0.6549127689	 0.074896
45.0495	59.2084	86.8659	172.4309	185.3329	263.74	295.526	330.8113	377.9624	413.3191	465.3138	510.0095	526.0854	553.5219	767.5537	769.1587	849.5397	897.2512	917.2968	927.2214	1001.4394	1033.3973	1043.8009	1058.5327	1082.7231	1099.7466	1158.5048	1189.3402	1224.0328	1255.3242	1277.9618	1307.7264	1361.7345	1379.5647	1410.0563	1427.3856	1438.8519	1463.7562	1492.7413	1503.0736	1835.9291	2860.5076	2998.2602	3026.9377	3087.4581	3098.3367	3129.7729	3147.4679	3222.2504	3755.494	3807.9027
OCC1(O)CC1CC=O	OC[C@@]1(O)C[C@H]1CC=O	
InChI=1S/C6H10O3/c7-2-1-5-3-6(5,9)4-8/h2,5,8-9H,1,3-4H2	InChI=1S/C6H10O3/c7-2-1-5-3-6(5,9)4-8/h2,5,8-9H,1,3-4H2/t5-,6+/m1/s1
