21
gdb 53117	2.31939	1.11719	0.86911	1.7752	87.75	-0.243	0.0481	0.2911	1441.7101	0.179649	-387.063679	-387.05299	-387.052046	-387.102552	37.233	
C	 0.1270949892	 1.5865901436	-0.1643989373	-0.498039
C	 0.0959121571	 0.1315289557	-0.113305461	 0.027821
C	 0.0749530373	-1.0731615382	-0.0774555449	 0.136788
C	 0.0525743384	-2.5211660226	-0.0376241661	-0.303834
C	 0.2315459811	-3.2142885987	 1.3550987308	 0.163365
C	 0.5605765662	-2.3839436994	 2.5751213695	-0.401526
O	-1.1379125475	-3.6707003405	 1.3432822812	-0.307494
C	-1.3448126891	-3.2276136953	-0.0149340313	 0.163406
C	-2.6067536299	-2.4107710704	-0.1776019151	-0.401523
H	 1.1550919266	 1.9639878749	-0.1274745711	 0.148569
H	-0.3289782333	 1.9615036105	-1.0874512584	 0.148793
H	-0.4180895791	 2.0284368492	 0.6769222766	 0.148542
H	 0.7212195074	-2.9246516502	-0.8030267796	 0.09791
H	 0.919532432	-4.069355452	 1.2820657365	 0.071086
H	-0.0806772939	-1.5012216767	 2.6317850072	 0.128103
H	 0.4146016101	-2.984184464	 3.4787953699	 0.123102
H	 1.60458439	-2.0550005208	 2.5447099199	 0.116373
H	-1.3600700248	-4.0886286744	-0.6991956916	 0.071086
H	-2.581538159	-1.5217412179	 0.456891473	 0.128095
H	-2.7259213935	-2.0927536791	-1.2186446346	 0.116262
H	-3.4752982752	-3.0168257835	 0.0990745764	 0.123114
5.1754	43.0566	81.9513	108.7019	198.5865	206.3425	246.8401	252.8626	342.1195	360.0734	410.3769	425.6491	469.9053	587.5892	688.1578	801.3053	803.0154	875.393	912.6484	933.1805	1007.7742	1051.9666	1053.3261	1066.6586	1081.6775	1123.081	1132.9882	1161.002	1207.8476	1209.6061	1279.4257	1316.4069	1358.7967	1363.8724	1395.2309	1402.4767	1414.7922	1423.4201	1477.808	1478.1287	1478.9616	1483.3738	1485.376	1489.5406	2362.9185	2986.3985	2991.4957	3026.3367	3039.5247	3040.0261	3064.3729	3086.5478	3087.3159	3108.8127	3109.0736	3128.0991	3129.5542
CC#CC1C(C)OC1C	CC#C[C@H]1[C@@H](C)O[C@H]1C	
InChI=1S/C8H12O/c1-4-5-8-6(2)9-7(8)3/h6-8H,1-3H3	InChI=1S/C8H12O/c1-4-5-8-6(2)9-7(8)3/h6-8H,1-3H3/t6-,7+,8+
