18
gdb 91635	3.06671	1.74147	1.54555	2.7995	69.46	-0.2393	0.075	0.3143	925.128	0.150265	-439.053772	-439.047001	-439.046057	-439.084636	28.024	
C	-0.211770535	 1.5477740518	-0.0613586134	-0.413944
C	 0.0394407414	 0.051336326	 0.0229598688	 0.146797
O	 0.8686081935	-0.3979947036	-1.0796759702	-0.300494
C	 1.8864545022	-1.1913107981	-0.4595863363	 0.193759
O	 1.2655176877	-1.7472716507	 0.6765058904	-0.231484
C	 0.8390210281	-0.4982819909	 1.2396921362	-0.001265
C	 2.1509988792	 0.2900185855	 1.3256501932	-0.05158
N	 3.3411794027	-0.5725615112	 1.4890056669	-0.333968
C	 2.8901251763	-0.1930039164	 0.1349905151	-0.088364
H	 0.7217464948	 2.1150527105	-0.0470220261	 0.120453
H	-0.7345543969	 1.7853664135	-0.9918658247	 0.132539
H	-0.8410815868	 1.8787922219	 0.7721360847	 0.115828
H	-0.9155803394	-0.4873730492	-0.0305591938	 0.086636
H	 2.2356607136	-1.9651724883	-1.1413700492	 0.096118
H	 0.2721491145	-0.6677510324	 2.1537250624	 0.092583
H	 2.1679621536	 1.3205356667	 1.6562293083	 0.101511
H	 4.1249029422	 0.0281935067	 1.7378981162	 0.233146
H	 3.4787169284	 0.4484485882	-0.5089229984	 0.10173
157.8093	221.0854	270.052	364.0128	384.7317	474.3392	533.7275	600.5002	664.6417	774.1541	812.9112	827.853	859.5533	874.4161	881.0895	897.4023	932.5225	950.0837	963.3955	1013.9612	1061.7351	1072.0532	1094.0149	1099.9228	1130.5455	1144.8482	1151.3577	1231.9211	1256.7686	1265.4993	1292.0458	1334.8784	1349.8242	1359.489	1385.7089	1409.5035	1409.7847	1485.708	1502.4878	3017.618	3041.8219	3110.2713	3128.0339	3137.087	3141.6622	3191.7232	3201.8505	3492.0877
CC1OC2OC1C1NC21	C[C@H]1O[C@@H]2O[C@H]1[C@H]1N[C@@H]21	
InChI=1S/C6H9NO2/c1-2-5-3-4(7-3)6(8-2)9-5/h2-7H,1H3	InChI=1S/C6H9NO2/c1-2-5-3-4(7-3)6(8-2)9-5/h2-7H,1H3/t2-,3+,4-,5-,6-/m1/s1
