21
gdb 92860	2.81149	1.51566	1.14591	1.5967	83.99	-0.2327	0.0177	0.2504	1130.0936	0.185301	-387.115499	-387.107634	-387.10669	-387.147702	31.843	
O	 0.1611850759	 1.4301771046	 0.0490308022	-0.428525
C	 0.0667704861	 0.0139675599	 0.0084708712	 0.090421
C	 0.5761868802	-0.6211903152	 1.3360647702	-0.273784
C	-0.6857502909	-0.6826564427	 2.1815727836	-0.26888
C	-1.7672920957	-0.6236423681	 1.4041369681	 0.380871
C	-3.2557864371	-0.4818232054	 1.5896271512	-0.341596
C	-3.7730841397	-0.1320076628	 0.1598886844	-0.203696
C	-2.536553971	 0.3672556252	-0.6300708665	-0.235211
C	-1.397048048	-0.4900865661	-0.0605333913	-0.063843
H	-0.2747935801	 1.7188751843	 0.859677571	 0.277829
H	 0.6622056723	-0.2858369359	-0.857772342	 0.078408
H	 0.9953152069	-1.6224484218	 1.1596076496	 0.104087
H	 1.3771924978	-0.0140225815	 1.7720021592	 0.10408
H	-0.6720911314	-0.7566310845	 3.2635647145	 0.086953
H	-3.7273758214	-1.3908329931	 1.9789355084	 0.112268
H	-3.4848260858	 0.31444511	 2.3073176952	 0.112901
H	-4.167535416	-1.0369420112	-0.3157680561	 0.101415
H	-4.5872850613	 0.5976212474	 0.1757013795	 0.097344
H	-2.6659910317	 0.2726851284	-1.7116742154	 0.094624
H	-2.337796613	 1.4229326078	-0.4167237762	 0.10049
H	-1.406684146	-1.4804501392	-0.542761921	 0.073843
97.2203	146.4132	225.8943	264.594	343.4576	389.5995	414.2885	475.7168	563.1358	599.7689	671.4556	740.2501	805.2741	819.2627	843.0532	860.3738	889.8567	904.4514	938.2	952.9245	984.9514	996.8721	1014.7767	1070.1903	1097.8374	1154.8191	1166.119	1170.3557	1183.9685	1220.807	1240.6593	1258.9507	1268.5409	1298.8844	1309.5652	1311.7481	1337.0171	1349.321	1362.1263	1433.4232	1475.1525	1477.7169	1493.9715	1506.7849	1719.7697	2976.6201	3003.9049	3034.0197	3041.4451	3052.2809	3064.4013	3065.8633	3082.9038	3090.84	3102.4566	3187.7498	3785.7741
OC1CC=C2CCCC12	O[C@H]1CC=C2CCC[C@@H]12	
InChI=1S/C8H12O/c9-8-5-4-6-2-1-3-7(6)8/h4,7-9H,1-3,5H2	InChI=1S/C8H12O/c9-8-5-4-6-2-1-3-7(6)8/h4,7-9H,1-3,5H2/t7-,8+/m1/s1
