16
gdb 31078	2.32097	1.49017	0.91796	1.2412	69.28	-0.192	0.0319	0.2239	1228.8301	0.123294	-475.056949	-475.047916	-475.046972	-475.09152	31.683	
C	 0.0483005539	 1.4646002603	-0.0062928943	-0.236158
O	 0.0322099111	 0.0412493287	 0.0105326377	-0.274068
C	 0.6024810633	-0.5765704902	-1.0392364884	 0.289752
C	 0.6946023117	-1.9177242514	-1.2199804079	 0.19354
C	 0.2767503756	-3.1188924366	-0.4652131219	-0.501243
O	 1.3622301841	-2.0874152216	-2.4438951005	-0.200815
C	 1.5983661554	-0.8495958964	-2.8651605364	 0.476046
O	 2.2354979123	-0.7537949296	-4.0308229804	-0.399672
N	 1.1851254933	 0.1109247522	-2.099920716	-0.472329
H	 1.0723614114	 1.8515972358	-0.0232090715	 0.130769
H	-0.4888434089	 1.8591658649	-0.8749514525	 0.13074
H	-0.4512672751	 1.7767557565	 0.9121350788	 0.128621
H	-0.4248807628	-3.7433626507	-1.0318221325	 0.133163
H	 1.1281605523	-3.7507141778	-0.1837918919	 0.133166
H	-0.2224126805	-2.7959627516	 0.4517280268	 0.147501
H	 2.3398459729	 0.1883760176	-4.2138106591	 0.320988
37.2777	138.5292	154.095	187.8429	188.3075	254.329	256.7728	371.5479	410.8014	424.7784	582.1603	618.7529	648.066	687.7361	749.1319	834.4989	967.9708	1051.3207	1066.2227	1069.0862	1173.3467	1179.5632	1195.2349	1217.8472	1236.3804	1379.8881	1423.5356	1471.2155	1479.8514	1482.2309	1496.3052	1504.7097	1513.7182	1652.2172	1727.4792	3017.8904	3031.4538	3062.589	3097.5034	3124.7552	3140.7966	3812.2224
COC1=C(C)OC(O)=N1	COc1c(C)oc(O)n1	
InChI=1S/C5H7NO3/c1-3-4(8-2)6-5(7)9-3/h1-2H3,(H,6,7)	InChI=1S/C5H7NO3/c1-3-4(8-2)6-5(7)9-3/h1-2H3,(H,6,7)
