14
gdb 43040	3.04128	1.65016	1.23115	4.053	73.7	-0.2465	-0.0095	0.237	977.4248	0.100243	-399.460337	-399.453182	-399.452238	-399.491917	27.745	
O	-0.1433507622	 0.0679784197	 0.0724509151	-0.295643
C	-0.0626283807	 1.2510566428	 0.0642610168	 0.363419
N	-1.1255968109	 2.2851866215	-0.0912922009	-0.223954
C	-0.9886648716	 2.996296067	 1.2522695338	-0.201754
C	 0.3718075766	 3.5025894724	 0.7844243652	-0.119857
C	-0.0166385529	 3.2078762008	-0.6091623417	-0.067182
C	 1.0300098176	 2.2835235322	 0.0406343965	 0.098529
C	 2.4255685988	 2.1701094302	-0.1773905188	 0.099978
C	 3.6082295158	 2.0526972719	-0.3626844493	-0.367088
H	-1.7318572687	 3.7934727838	 1.3254806666	 0.131353
H	-1.0533278014	 2.3331329046	 2.1204258678	 0.130187
H	 1.0118887195	 4.2883837557	 1.1668294269	 0.121142
H	 0.0098469336	 3.6979136017	-1.5700489157	 0.138001
H	 4.6509888364	 1.9413345357	-0.5302848223	 0.192871
128.6586	145.2423	169.8643	369.6488	399.2793	486.0458	512.5459	593.7172	616.3861	648.3235	666.829	734.54	794.5071	818.4339	877.3567	888.7247	911.0608	949.557	955.5681	977.6924	1015.7928	1088.859	1132.4428	1168.9851	1206.436	1263.1585	1300.5476	1383.6285	1508.1455	1930.0634	2239.1486	3055.2698	3119.0099	3195.7275	3249.7236	3500.7049
O=C1N2CC3C2C13C#C	O=C1N2C[C@@H]3[C@H]2[C@]13C#C	
InChI=1S/C7H5NO/c1-2-7-4-3-8(5(4)7)6(7)9/h1,4-5H,3H2	InChI=1S/C7H5NO/c1-2-7-4-3-8(5(4)7)6(7)9/h1,4-5H,3H2/t4-,5+,7-/m1/s1
