16
gdb 60765	4.42727	0.90848	0.75746	4.4831	72.59	-0.2592	-0.0323	0.2269	1419.8703	0.123808	-471.258764	-471.249355	-471.24841	-471.294155	32.298	
C	-0.0767225467	 1.4636734228	-0.0375793841	-0.375563
N	-0.0083767709	 0.007113191	 0.0335168465	-0.168488
C	-0.0130826923	-0.6066499505	 1.2874928081	 0.111107
N	-0.075170835	 0.0737004466	 2.3585124232	-0.483027
C	 0.0628832447	-0.8319426331	-1.0879572714	 0.560558
O	 0.1190870928	-2.0339463464	-1.0127854005	-0.353445
N	 0.0619520599	-0.1297083977	-2.3023821762	-0.418507
C	 0.1243179053	-0.6808435045	-3.5818265996	 0.169121
O	 0.1889794958	-1.8417095057	-3.8683949665	-0.245539
H	 0.8138540142	 1.8831545543	-0.5186014755	 0.137324
H	-0.9763485715	 1.796819708	-0.566871051	 0.137334
H	-0.1219244963	 1.8282158191	 0.9881924324	 0.193481
H	 0.041656526	-1.6906022773	 1.1978971129	 0.154475
H	-0.0674390393	-0.5443568469	 3.1666273795	 0.236034
H	 0.0125162868	 0.8759508461	-2.2738786402	 0.258156
H	 0.1052874566	 0.1344199341	-4.3340604476	 0.086978
36.1546	63.5764	161.8635	165.3925	204.7564	230.6147	279.5786	289.7528	348.1006	411.5575	538.3182	569.6377	607.7766	766.2888	786.1243	827.7107	937.3833	982.4629	1027.5474	1082.8783	1102.138	1153.0024	1167.5082	1181.3196	1315.9348	1360.5205	1402.9446	1451.2562	1452.6704	1506.0234	1513.7506	1522.283	1717.0932	1802.6984	1877.325	2922.1524	3024.2847	3084.9876	3152.9823	3156.0338	3518.7852	3642.4743
CN(C=N)C(=O)NC=O	CN(C=N)C(=O)NC=O	
InChI=1S/C4H7N3O2/c1-7(2-5)4(9)6-3-8/h2-3,5H,1H3,(H,6,8,9)	InChI=1S/C4H7N3O2/c1-7(2-5)4(9)6-3-8/h2-3,5H,1H3,(H,6,8,9)
