20
gdb 62017	3.61742	0.78021	0.73049	4.1028	77.15	-0.2445	-0.0249	0.2196	1608.2244	0.167596	-440.335761	-440.324763	-440.323819	-440.374015	37.287	
C	-0.7736517319	 1.478986088	-0.4152139601	-0.395865
C	-0.0875141871	 0.1652248831	-0.0035589014	-0.082171
C	-1.0693700125	-0.9801899636	 0.2916233512	-0.167176
N	-1.8787083352	-0.7605545824	 1.4789323304	-0.316503
C	-3.174611424	-0.328060131	 1.4195032236	 0.409169
C	-3.9017000555	-0.2821393905	 2.7552670769	-0.484166
O	-3.7162322443	-0.0172962094	 0.3735135371	-0.37696
C	 0.9292356118	-0.2423689055	-1.0530163915	 0.159255
O	 1.0205384644	-1.3391950267	-1.5431972198	-0.246052
H	-0.0340320078	 2.2580718697	-0.6281353508	 0.112848
H	-1.3925068837	 1.3342887576	-1.3052763245	 0.144002
H	-1.4256573317	 1.837569808	 0.3833931383	 0.138778
H	 0.5066851548	 0.3701947009	 0.9033723909	 0.09185
H	-1.7573018507	-1.1000070566	-0.5485019341	 0.151372
H	-0.5133232362	-1.915124452	 0.4004755095	 0.120954
H	-1.500227471	-1.0290978646	 2.3717627956	 0.242998
H	-3.2330946352	-0.3216017059	 3.6196156574	 0.111497
H	-4.496881908	 0.6317971033	 2.799207621	 0.152845
H	-4.5932602105	-1.1286796034	 2.8115932855	 0.153411
H	 1.6232770542	 0.5771935913	-1.3542195352	 0.079913
31.677	44.5019	65.7193	85.2365	100.187	195.1486	210.4436	262.0922	294.2472	381.2265	396.2919	429.9462	474.5031	603.3422	634.2715	688.7342	798.7974	844.1731	916.6898	932.8818	957.3564	994.6091	1049.9366	1091.3998	1110.8081	1150.5901	1173.0375	1260.7635	1287.6347	1305.3552	1336.8837	1393.3724	1401.9185	1409.3175	1429.9728	1467.6296	1469.2687	1487.4485	1493.2595	1497.2468	1538.8132	1778.2325	1825.9375	2857.4537	2970.173	3042.3734	3047.0947	3069.2959	3112.0587	3116.426	3124.228	3135.5116	3141.4867	3649.0862
CC(CNC(C)=O)C=O	C[C@@H](CNC(=O)C)C=O	
InChI=1S/C6H11NO2/c1-5(4-8)3-7-6(2)9/h4-5H,3H2,1-2H3,(H,7,9)	InChI=1S/C6H11NO2/c1-5(4-8)3-7-6(2)9/h4-5H,3H2,1-2H3,(H,7,9)/t5-/m0/s1
