17
gdb 64821	3.08625	1.18128	1.04075	2.3147	68.39	-0.2474	-0.0271	0.2203	1169.6061	0.13283	-458.937722	-458.929038	-458.928093	-458.971466	32.404	
O	-0.1519872392	 1.5781476742	 0.2414600686	-0.480456
C	-0.0124666303	 0.1860328252	 0.0336846303	 0.343174
C	 0.9470121019	-0.2086186667	-1.1369909186	-0.398709
C	 1.9924566294	-0.5927218199	-0.0793336399	 0.382992
O	 3.1710115899	-0.7918774432	-0.1089115303	-0.286266
C	 0.9508567517	-0.520340141	 1.0498080759	-0.40056
C	-1.418822615	-0.3601752031	-0.0129943198	 0.059184
C	-2.1490348348	-0.5567777052	-1.2671145751	-0.179116
O	-1.5711684877	-1.6656705719	-0.564479719	-0.238341
H	 0.7170468447	 1.9604110249	 0.4041778041	 0.286965
H	 0.5976703005	-1.0984559357	-1.6716357603	 0.152281
H	 1.2101701173	 0.5754733969	-1.8509692373	 0.127958
H	 1.2179914543	 0.0377579892	 1.9514691535	 0.128306
H	 0.6072016446	-1.5200757169	 1.3365672953	 0.150152
H	-1.9927706311	-0.1770408716	 0.8961241823	 0.105418
H	-3.2366163589	-0.5244082074	-1.2676336197	 0.125419
H	-1.6718740772	-0.3060015077	-2.2125259401	 0.121598
60.9708	84.5243	189.4785	221.3545	246.0456	329.9017	369.0566	415.4579	421.5522	512.6393	527.0811	605.4052	663.4473	724.2367	867.1494	880.3915	905.415	929.2505	939.9707	1005.0018	1017.2546	1087.774	1101.7945	1121.115	1150.3648	1163.7494	1172.8059	1189.3212	1213.355	1246.6399	1294.6044	1377.5608	1411.9621	1432.9972	1456.5204	1529.1725	1898.1458	3052.0931	3057.7069	3094.6225	3109.1283	3114.0117	3123.1128	3184.3668	3807.3186
OC1(CC(=O)C1)C1CO1	OC1(CC(=O)C1)[C@H]1CO1	
InChI=1S/C6H8O3/c7-4-1-6(8,2-4)5-3-9-5/h5,8H,1-3H2	InChI=1S/C6H8O3/c7-4-1-6(8,2-4)5-3-9-5/h5,8H,1-3H2/t5-/m1/s1
