22
gdb 32834	5.04714	0.73148	0.67876	1.701	91.74	-0.1894	0.0518	0.2412	1767.1843	0.194362	-367.26763	-367.257596	-367.256652	-367.303431	36.622	
C	-0.0319084691	 1.6159027014	 0.1977496297	-0.379652
C	-0.0044905193	 0.0858664325	 0.1942456644	-0.150986
C	-1.3688150993	-0.5373633975	-0.1643939547	-0.307072
C	-1.3726921159	-2.0330221301	-0.1835727099	 0.330298
C	-1.4179337613	-2.927309006	-1.2305880919	-0.332969
C	-1.3656830872	-4.2525211332	-0.6995177971	 0.296082
C	-1.3935349096	-5.5365389538	-1.4729104625	-0.499457
C	-1.2896597042	-4.1203070624	 0.6675744468	-0.186469
N	-1.2929490284	-2.7782611172	 0.9702653363	-0.301539
H	 0.9463505369	 2.0320899624	 0.4575200176	 0.112485
H	-0.310068191	 2.0087586778	-0.7866180109	 0.115802
H	-0.760007869	 1.9990767533	 0.9218830442	 0.11169
H	 0.745472653	-0.2766719824	-0.5184674526	 0.105715
H	 0.3145324811	-0.279435754	 1.1790199312	 0.087416
H	-2.1263979242	-0.1621460969	 0.5395907398	 0.094873
H	-1.6762301147	-0.1827127159	-1.1544771945	 0.110449
H	-1.4844631881	-2.6590127992	-2.275410063	 0.079804
H	-0.5512011689	-5.610534369	-2.1712629253	 0.120151
H	-1.34289596	-6.401625172	-0.8047419482	 0.11414
H	-2.3092125873	-5.6339826041	-2.0684931021	 0.120401
H	-1.2381898953	-4.8675929589	 1.4440014991	 0.106502
H	-1.2549861285	-2.3961333447	 1.8988493633	 0.252338
41.4296	80.3157	97.0063	110.5123	230.7072	243.535	258.905	307.9943	349.9641	392.9637	461.8417	614.3989	639.3222	682.627	710.9575	740.2282	758.1444	805.1379	867.662	893.8144	986.0421	994.0979	1006.1905	1042.3937	1063.8957	1080.8041	1109.5567	1136.0889	1172.8983	1242.5158	1280.9014	1301.9384	1316.9807	1329.9058	1380.618	1411.815	1417.4601	1421.2375	1457.8072	1480.0123	1483.3465	1491.4564	1499.256	1503.6167	1509.5373	1547.8908	1636.8532	2996.5642	3020.3791	3022.7214	3028.3135	3053.9487	3066.6601	3071.7972	3095.8358	3099.3962	3102.3972	3230.6639	3253.5506	3680.256
CCCC1=CC(C)=CN1	CCCc1cc(C)c[nH]1	
InChI=1S/C8H13N/c1-3-4-8-5-7(2)6-9-8/h5-6,9H,3-4H2,1-2H3	InChI=1S/C8H13N/c1-3-4-8-5-7(2)6-9-8/h5-6,9H,3-4H2,1-2H3
