17
gdb 17770	6.38403	1.1964	1.16086	3.2693	71.81	-0.257	0.0238	0.2807	1065.2615	0.143255	-363.805745	-363.798627	-363.797683	-363.838101	26.538	
N	-0.0689602232	 1.2918711153	 0.1044892148	-0.44354
C	-0.04855429	 0.0300404764	 0.1271292834	 0.118056
O	-1.1440989414	-0.6700832215	-0.2228446582	-0.20559
C	-1.0789315259	-2.0775265025	-0.0766157245	 0.191744
C	-1.7267030661	-2.7331378237	 1.1776337028	-0.089381
C	-3.109368959	-2.3120416142	 0.5902447951	-0.221794
C	-2.2930264147	-2.8568772619	-0.6241148798	-0.085631
C	-1.8325093962	-4.0175753903	 0.3066770025	-0.224366
H	 0.841993891	 1.6563976126	 0.3755158241	 0.228173
H	 0.8063355754	-0.6035021929	 0.4030249174	 0.083054
H	-0.0868787932	-2.4442652022	-0.3653948547	 0.07786
H	-1.3882860031	-2.6590550094	 2.2116158036	 0.076936
H	-3.9644088627	-2.9164978173	 0.9022981019	 0.09272
H	-3.3403460459	-1.2476878379	 0.5875472679	 0.124742
H	-2.6076795352	-2.9243826264	-1.6654005019	 0.081269
H	-0.8998235693	-4.5274635839	 0.0473275492	 0.092503
H	-2.6087794404	-4.7266510803	 0.5990442366	 0.103246
42.1876	99.7625	167.6738	333.7384	400.4233	443.1342	561.1948	700.0063	770.05	802.0989	823.0593	885.7448	901.5315	910.2483	932.3082	1002.0895	1018.9823	1025.7878	1044.9274	1072.0469	1091.6301	1107.1095	1118.9933	1148.7715	1167.328	1197.4366	1215.5069	1244.4475	1256.7362	1275.0365	1300.9857	1399.7548	1431.4413	1498.6093	1535.1501	1746.5318	3014.4525	3038.5965	3055.1299	3071.6223	3110.0166	3119.1736	3128.2353	3155.42	3516.6968
N=COC1C2CC1C2	[NH][CH]O[C@H]1[C@H]2C[C@@H]1C2	
InChI=1S/C6H9NO/c7-3-8-6-4-1-5(6)2-4/h3-7H,1-2H2	InChI=1S/C6H9NO/c7-3-8-6-4-1-5(6)2-4/h3-7H,1-2H2/t4-,5+,6-
