20
gdb 91923	2.43336	1.47915	1.02919	2.897	74.61	-0.2225	0.0617	0.2842	1173.5218	0.171845	-440.252127	-440.243518	-440.242574	-440.285092	33.555	
O	-0.0946891559	 1.4512298714	 0.018845985	-0.432179
C	 0.0339614223	 0.0365732126	 0.0090349938	 0.111402
C	 0.7499249163	-0.506175769	 1.2473258992	-0.275647
C	 0.9123920773	-2.0259505142	 1.1325107212	 0.09317
O	 1.3484027069	-2.6276352046	 2.3474803686	-0.434166
C	-0.3787884956	-2.7144759721	 0.7319031098	 0.005899
C	-1.6341982555	-2.4769920435	 1.4870816634	-0.234829
N	-1.4968379385	-1.9751841595	 0.1218315344	-0.113663
C	-1.3908690507	-0.5184220055	-0.06245455	-0.148216
H	 0.7878493848	 1.8332805694	-0.0183730409	 0.28114
H	 0.5868664436	-0.2888652998	-0.8887650651	 0.068671
H	 1.7398396917	-0.0405129629	 1.3498265786	 0.076014
H	 0.1807527846	-0.250625598	 2.1477259318	 0.114555
H	 1.648403255	-2.2275213808	 0.3360644476	 0.067561
H	 2.232466892	-2.2977601693	 2.5406203371	 0.279457
H	-0.2267842553	-3.7001916191	 0.2970063151	 0.092576
H	-2.3488814578	-3.2846575118	 1.6238363749	 0.112277
H	-1.6054667714	-1.7602360664	 2.3055884725	 0.113119
H	-1.9866656776	 0.0049981395	 0.6951815264	 0.11143
H	-1.8218615063	-0.2668514364	-1.0368892734	 0.111428
90.6253	159.168	217.7898	249.6897	263.1609	301.362	370.5883	406.9125	425.3281	434.8332	476.8043	588.7976	614.5366	755.6855	834.7592	898.2102	906.2961	916.7491	990.2028	1010.5325	1056.3962	1065.4238	1086.9102	1104.0916	1116.8568	1120.4982	1152.9383	1167.4324	1189.5544	1234.6296	1251.3752	1278.9532	1291.2457	1328.6202	1349.6185	1385.7881	1398.826	1421.808	1434.0462	1442.8232	1493.9323	1503.3402	1524.9767	2948.5893	2957.6143	3013.6247	3030.8339	3071.7437	3078.1345	3096.7316	3122.6273	3177.6207	3805.0622	3816.5139
OC1CC(O)C2CN2C1	O[C@H]1C[C@@H](O)[C@H]2CN2C1	
InChI=1S/C6H11NO2/c8-4-1-6(9)5-3-7(5)2-4/h4-6,8-9H,1-3H2	InChI=1S/C6H11NO2/c8-4-1-6(9)5-3-7(5)2-4/h4-6,8-9H,1-3H2/t4-,5+,6+,7?/m0/s1
