20
gdb 40084	3.80613	1.25064	1.05475	1.4271	87.49	-0.2214	0.0068	0.2282	1187.3721	0.173006	-365.967045	-365.959409	-365.958464	-365.999072	30.737	
C	-0.0981716208	 1.4835514092	-0.127487591	-0.308637
N	 1.2139465461	 0.8251336959	 0.0376306205	-0.362251
C	-0.0137641252	 0.014946989	 0.0034091988	 0.242222
C	-0.3832026318	-0.9591243524	 1.1544568546	-0.323606
C	-0.3003448806	-2.1350263897	 0.1095300836	-0.034215
C	-1.4272241418	-3.09894369	-0.3068185554	-0.242946
C	-1.5307726064	-2.8715959289	-1.8529409763	-0.235101
C	-1.073355428	-1.4225198139	-2.0235375885	-0.253402
C	-0.3511940277	-1.0747454002	-0.9623052598	 0.2648
H	-0.4140425349	 2.0827966903	 0.722774437	 0.119889
H	-0.3630266809	 1.8975922724	-1.097382337	 0.112386
H	 1.6844161607	 0.7671448277	-0.8629192051	 0.233199
H	 0.318059457	-0.9854903713	 1.9911607378	 0.111414
H	-1.4002571146	-0.7956002999	 1.5221377551	 0.104619
H	 0.671597485	-2.6375684802	 0.1830901599	 0.078802
H	-1.2438662594	-4.1443279989	-0.0422246868	 0.093601
H	-2.3717709746	-2.7981013526	 0.1613789549	 0.100639
H	-0.8890012847	-3.574166421	-2.4042055227	 0.105385
H	-2.5482073724	-3.0261399623	-2.2282205428	 0.102232
H	-1.3884418348	-0.7938838332	-2.8483901669	 0.090971
99.786	147.7066	227.4919	272.0979	342.0785	363.6057	469.4166	507.9717	602.0991	682.6615	768.4898	801.2651	810.7706	830.3543	867.9127	897.6314	900.9535	935.5281	938.8313	968.1968	975.3613	1031.6041	1049.0815	1058.9662	1097.4673	1117.4136	1130.9809	1169.0406	1196.2106	1220.5505	1229.8765	1253.433	1269.882	1276.8096	1305.0342	1326.3187	1335.3208	1401.3462	1468.4608	1480.5858	1493.8608	1507.317	1727.9034	3002.3554	3028.2066	3036.8373	3058.8311	3064.7065	3093.1647	3101.649	3123.9722	3185.994	3195.7007	3491.9727
C1NC11CC2CCC=C12	C1N[C@]21C[C@H]1CC[CH][C]21	
InChI=1S/C8H11N/c1-2-6-4-8(5-9-8)7(6)3-1/h3,6,9H,1-2,4-5H2	InChI=1S/C8H11N/c1-2-6-4-8(5-9-8)7(6)3-1/h3,6,9H,1-2,4-5H2/t6-,8+/m1/s1
