18
gdb 58797	3.619	1.10354	0.97586	4.4205	72.71	-0.2455	0.0083	0.2538	1231.2432	0.146688	-439.077932	-439.069184	-439.06824	-439.111364	33.212	
C	 0.0265807401	 1.5057045854	 0.0343506997	-0.421318
C	-0.0001323284	-0.0215728093	-0.03526712	 0.027182
O	 0.762915617	-0.6151861857	 1.0080039751	-0.421592
C	-1.4100328954	-0.5663669629	-0.0337303636	 0.386426
C	-2.1884103173	-1.0226850312	 1.1607374395	-0.334452
C	-1.8781568106	-2.0096586916	 0.025375614	-0.287615
C	-2.796283722	-1.6610124853	-1.1324279863	 0.433421
O	-3.6336520985	-2.2161362593	-1.7827238969	-0.340746
N	-2.2952207103	-0.3369997526	-1.1882276948	-0.410668
H	 1.0592713375	 1.8645370987	 0.0220521623	 0.131075
H	-0.502207663	 1.9463325506	-0.8162390175	 0.13034
H	-0.4566884755	 1.8616876122	 0.9529820023	 0.111204
H	 0.4780664246	-0.3435616158	-0.9680545157	 0.104728
H	 0.5783856066	-0.1315431821	 1.8203815028	 0.284049
H	-1.6206031373	-1.2156547436	 2.0659352182	 0.121961
H	-3.2068549333	-0.6808868344	 1.3213619511	 0.120351
H	-1.3091956915	-2.9137112297	 0.1861148396	 0.127625
H	-2.910630023	 0.4664260166	-1.26588747	 0.238029
68.3846	122.9685	169.3771	251.8471	280.0508	296.8399	325.9345	381.879	458.8587	480.9039	502.527	595.4178	688.4101	710.8636	767.4771	865.1703	882.6746	914.5657	944.0288	971.0755	991.4253	1039.999	1059.7088	1071.3138	1097.843	1113.2043	1134.2054	1206.2719	1245.2928	1304.8188	1316.6098	1357.3929	1396.9494	1400.4385	1410.8769	1483.2316	1493.7299	1497.0184	1901.8724	3025.3813	3043.8894	3099.8906	3117.3224	3121.9847	3208.2371	3232.7149	3530.9183	3806.6806
CC(O)C12CC1C(=O)N2	C[C@@H](O)[C@]12C[C@H]1C(=O)N2	
InChI=1S/C6H9NO2/c1-3(8)6-2-4(6)5(9)7-6/h3-4,8H,2H2,1H3,(H,7,9)	InChI=1S/C6H9NO2/c1-3(8)6-2-4(6)5(9)7-6/h3-4,8H,2H2,1H3,(H,7,9)/t3-,4+,6-/m1/s1
