19
gdb 92778	2.96158	1.21693	0.95429	4.2047	79.84	-0.2488	-0.056	0.1928	1239.4104	0.158417	-423.053427	-423.044349	-423.043405	-423.087236	33.701	
C	 0.6547804885	 1.6819415156	-0.028965985	-0.394055
C	 0.1347877056	 0.2360302653	 0.0390035748	-0.119907
C	 0.6263296051	-0.669149561	-1.1263080526	 0.113963
O	 0.8407646922	 0.0925030486	-2.2974774875	-0.427662
C	 1.8886886084	-1.3889718873	-0.5749162261	-0.303204
C	 1.6420273134	-1.3782226318	 0.9073712005	-0.150217
C	 0.6782929899	-0.5063089765	 1.2440619807	 0.24471
C	 0.2336113757	-0.2732744132	 2.6197477626	 0.070516
O	-0.6165192377	 0.5294177736	 2.9394535536	-0.274479
H	 1.7488650712	 1.7149187237	-0.0369129192	 0.110093
H	 0.2977520602	 2.1728820992	-0.9366927359	 0.130854
H	 0.2997679762	 2.2398431295	 0.8409453688	 0.133593
H	-0.9588387865	 0.2710268722	 0.0648012834	 0.092752
H	-0.1448838041	-1.4339949632	-1.3050015257	 0.075105
H	 1.0295001264	-0.5117000067	-3.021630205	 0.286361
H	 2.0270069576	-2.3961408978	-0.9846292499	 0.106562
H	 2.7919051362	-0.8155735037	-0.8276074966	 0.128044
H	 2.1935164768	-1.9905521565	 1.6145345279	 0.109582
H	 0.7401198348	-0.90789779	 3.3821564013	 0.067389
70.4102	129.6056	164.6589	234.092	242.2546	266.8627	270.9146	300.337	391.2574	459.2637	531.5505	573.0951	645.6897	724.9402	781.0433	832.25	842.401	942.0732	985.6196	997.9143	1035.7013	1064.1731	1082.3691	1104.0584	1123.2602	1176.1323	1201.752	1250.0163	1272.0181	1297.8128	1338.1901	1359.0784	1376.325	1397.5439	1419.5142	1431.9126	1475.9326	1495.4305	1501.3826	1675.4975	1781.6741	2871.3704	2976.9725	3014.409	3046.1987	3057.775	3061.1751	3118.0759	3136.2403	3181.095	3827.4918
CC1C(O)CC=C1C=O	C[C@H]1[C@@H](O)CC=C1C=O	
InChI=1S/C7H10O2/c1-5-6(4-8)2-3-7(5)9/h2,4-5,7,9H,3H2,1H3	InChI=1S/C7H10O2/c1-5-6(4-8)2-3-7(5)9/h2,4-5,7,9H,3H2,1H3/t5-,7+/m1/s1
