16
gdb 51305	3.04982	1.24529	0.89393	1.4748	75.55	-0.24	-0.0513	0.1887	1236.0756	0.125329	-437.960354	-437.952317	-437.951373	-437.993557	29.278	
O	-0.3686310071	 0.1261086879	-0.0426333859	-0.305536
C	-0.0921256306	 1.3048918671	-0.0207182761	 0.148791
N	 1.1760617755	 1.809949969	 0.053769681	-0.396647
C	 2.3500336097	 1.0770545727	 0.1166728841	 0.302849
C	 2.5946880029	-0.2451941832	 0.124132963	-0.168779
C	 4.0720171964	-0.5416869686	 0.2063564315	-0.260923
C	 4.7541754109	 0.8428596338	 0.251832664	-0.33302
C	 3.6103523122	 1.849309017	 0.1916499188	 0.333302
O	 3.6732962345	 3.0604224886	 0.201273383	-0.35494
H	-0.8498317033	 2.1098247557	-0.0602729322	 0.090623
H	 1.3174421366	 2.8133865851	 0.0665230896	 0.265489
H	 1.8353794301	-1.0121603673	 0.0774353032	 0.148209
H	 4.302098715	-1.1450518187	 1.0930294101	 0.12455
H	 4.401091174	-1.136423892	-0.6545602367	 0.124553
H	 5.3348803039	 1.0057590354	 1.1646242456	 0.140749
H	 5.4345603092	 1.0142540176	-0.5875911231	 0.140728
78.9505	109.9798	162.1244	197.5318	261.6521	301.2595	424.2334	499.0948	590.9762	640.784	678.2176	678.5812	771.0904	808.8906	890.3589	903.0132	944.0145	1019.6842	1020.6417	1025.356	1046.7735	1151.5825	1173.351	1227.7498	1229.8014	1280.8404	1320.9647	1334.8122	1431.3369	1450.2172	1488.2446	1543.6189	1698.329	1794.1436	1806.9075	2960.4753	3029.4355	3052.3033	3066.108	3105.2284	3251.8685	3562.6702
O=CNC1=CCCC1=O	O=CNC1=CCCC1=O	
InChI=1S/C6H7NO2/c8-4-7-5-2-1-3-6(5)9/h2,4H,1,3H2,(H,7,8)	InChI=1S/C6H7NO2/c8-4-7-5-2-1-3-6(5)9/h2,4H,1,3H2,(H,7,8)
