19
gdb 108916	3.4557	1.12245	0.98121	2.3101	77.19	-0.2158	0.0205	0.2363	1243.721	0.15879	-422.984107	-422.97558	-422.974636	-423.017188	33.1	
O	-0.0206217955	 1.3962083599	 0.0317092359	-0.412436
C	-0.0367682268	-0.0197913136	 0.0272947229	-0.217376
C	-1.4438045404	-0.4971688189	 0.0079080735	 0.372709
C	-2.6030081481	 0.1640202276	 0.013557951	-0.298439
C	-3.6497538434	-0.9702239803	-0.0126728068	 0.386271
O	-5.0054704701	-0.6669912989	 0.0533073066	-0.48357
C	-3.0432922489	-1.9450063282	 1.0389236202	-0.23838
C	-1.8842456239	-1.9717673251	-0.0192004728	-0.143527
C	-3.0155696741	-1.9143522664	-1.1019673653	-0.27072
H	 0.8958226383	 1.6842709936	 0.0673873087	 0.289754
H	 0.5005545057	-0.4266889637	-0.8490697137	 0.09548
H	 0.4775396193	-0.4320766418	 0.9146493864	 0.096787
H	-2.7996440535	 1.2256127664	 0.0446643713	 0.109842
H	-5.1996365247	 0.0012130196	-0.6124775007	 0.279358
H	-2.8189296725	-1.5398658543	 2.0278956581	 0.094723
H	-3.5871731631	-2.8919822474	 1.1094519074	 0.096669
H	-1.12219085	-2.7496891187	-0.0212246542	 0.061694
H	-3.5576598184	-2.8582101345	-1.2158149101	 0.094616
H	-2.76336366	-1.4781627751	-2.0717442884	 0.086548
79.6846	156.0419	163.8769	237.303	247.8453	338.8069	351.1987	402.3103	518.6025	552.3074	562.7403	596.6829	684.0118	776.2529	807.8376	831.9596	874.5562	913.9196	946.2854	997.001	1008.074	1038.2605	1055.3893	1059.032	1095.1085	1124.3816	1130.1008	1157.2985	1187.5095	1214.8337	1221.9517	1241.9509	1247.7635	1285.1783	1324.4694	1367.9603	1465.0118	1477.7164	1505.3367	1520.324	1703.1632	2931.4256	2940.5951	3045.0943	3056.6981	3116.9348	3125.7227	3127.071	3241.6393	3808.6189	3836.9565
OCC1=CC2(O)CC1C2	OCC1=C[C@]2(O)C[C@H]1C2	
InChI=1S/C7H10O2/c8-4-6-3-7(9)1-5(6)2-7/h3,5,8-9H,1-2,4H2	InChI=1S/C7H10O2/c8-4-6-3-7(9)1-5(6)2-7/h3,5,8-9H,1-2,4H2/t5-,7-
