14
gdb 12434	3.73977	2.0738	1.43999	4.6572	66.85	-0.2507	-0.0689	0.1818	828.2158	0.109013	-382.576487	-382.570051	-382.569106	-382.607137	24.47	
O	 0.0331688112	-0.0270243564	-0.0965035269	-0.333556
C	-0.0280052348	 1.1610888043	 0.0971895004	 0.4046
O	-1.2436080043	 1.7626024974	 0.1383351569	-0.21904
C	-1.3560087288	 3.07857735	 0.7035153486	-0.147914
C	-0.8759883536	 4.1528213359	-0.2262403176	-0.076243
C	 0.4070701734	 4.2037414188	-0.6092926058	-0.06637
C	 1.4093166776	 3.2499069479	-0.1642209363	-0.06632
C	 1.2075510863	 1.9781175785	 0.2332765284	-0.216934
H	-2.4162820747	 3.1890851134	 0.9345858558	 0.130434
H	-0.7895892139	 3.111454657	 1.6451076407	 0.126655
H	-1.5858746077	 4.8980420984	-0.5699603619	 0.11353
H	 0.7499992148	 5.0123533063	-1.2488145818	 0.108631
H	 2.4380900926	 3.6044219249	-0.17671877	 0.115121
H	 2.0615341219	 1.3699870034	 0.5118315295	 0.127406
100.8271	242.3643	290.3685	350.1582	407.0181	492.9983	512.8907	659.9133	716.5507	741.7825	800.7453	851.6835	882.1119	946.2115	969.545	1002.5219	1025.1751	1055.9746	1093.907	1193.4279	1228.8793	1266.5696	1300.2278	1400.5344	1409.9531	1447.0936	1485.9382	1642.6283	1694.1195	1805.5658	3009.2976	3121.8035	3146.8815	3167.3819	3192.021	3196.0422
O=C1OCC=CC=C1	O=C1OCC=CC=C1	
InChI=1S/C6H6O2/c7-6-4-2-1-3-5-8-6/h1-4H,5H2	InChI=1S/C6H6O2/c7-6-4-2-1-3-5-8-6/h1-4H,5H2
