19
gdb 90132	2.85003	1.65838	1.42693	2.0373	79.07	-0.2278	0.0019	0.2297	1003.2468	0.159728	-385.850745	-385.843227	-385.842283	-385.882288	30.594	
C	-0.2970505421	 1.5122225429	-0.1810949075	-0.406294
C	-0.0723261112	 0.0166042544	-0.0061494598	-0.043496
C	 1.024761701	-0.604114275	-0.9586158711	-0.316732
C	 1.8446579296	-0.974724041	 0.2920346029	 0.30584
C	 3.2277447894	-0.655050896	 0.8276798136	-0.364037
C	 2.8881543496	 0.1112204085	 2.1079995327	-0.058453
C	 1.5703933091	 0.2978553413	 2.2827884844	-0.179308
C	 0.834896905	-0.380734925	 1.1839569579	 0.275633
O	 1.0347911528	-1.8080522813	 1.1196151756	-0.304322
H	 0.6482572087	 2.0646589518	-0.1383012405	 0.117315
H	-0.7670756022	 1.7243346917	-1.1470104924	 0.1194
H	-0.9493774411	 1.9089869405	 0.6043004952	 0.118322
H	-1.0252748432	-0.5199289368	-0.0091693301	 0.0809
H	 0.7266711562	-1.4415393284	-1.5941319934	 0.106764
H	 1.5072719368	 0.1633534924	-1.5704788038	 0.104143
H	 3.8305318424	-1.5472011884	 1.0334005054	 0.126063
H	 3.8018111778	-0.0373655581	 0.1258465605	 0.115717
H	 3.6540414925	 0.4062205938	 2.8185778145	 0.100335
H	 1.1142263088	 0.8130696128	 3.1191750256	 0.102211
123.188	188.1313	244.2778	300.3692	334.4647	407.4855	464.7223	497.7879	552.1542	651.3176	666.3541	738.3391	762.1355	823.4541	862.9823	872.2191	898.4951	914.9029	921.187	948.5126	976.2752	1027.1736	1078.1437	1087.4132	1127.0751	1167.8039	1186.2884	1198.5531	1235.8139	1244.5454	1269.4411	1320.4253	1343.0887	1365.8591	1392.7862	1413.7711	1460.0679	1472.848	1494.7129	1500.9841	1626.5534	3028.1833	3031.8488	3056.2903	3062.9945	3067.2836	3096.3345	3100.4364	3115.4271	3179.4693	3212.1036
CC1CC23CC=CC12O3	C[C@H]1C[C@@]23CC=C[C@@]12O3	
InChI=1S/C8H10O/c1-6-5-7-3-2-4-8(6,7)9-7/h2,4,6H,3,5H2,1H3	InChI=1S/C8H10O/c1-6-5-7-3-2-4-8(6,7)9-7/h2,4,6H,3,5H2,1H3/t6-,7-,8+/m0/s1
