23
gdb 114549	2.5727	1.37849	1.09201	1.2859	84.94	-0.2532	0.0762	0.3295	1229.2671	0.207073	-388.290925	-388.282188	-388.281244	-388.323888	35.213	
C	 0.0079995328	 1.5376523639	 0.0445282355	-0.386215
C	 0.0058916068	 0.0059564383	 0.0762934934	-0.204059
C	-1.3985534044	-0.5922705329	-0.0279079249	 0.037762
C	-2.109404924	-0.4509128874	-1.4166071274	-0.230801
C	-2.4281229126	-1.9359063987	-1.6921761308	-0.019468
C	-1.0826329265	-2.6265631363	-1.3336143699	-0.291921
C	-1.4659889061	-2.1303543559	 0.0971088792	 0.399394
O	-0.8768264224	-2.6012124818	 1.2679931146	-0.493679
C	-2.9449684536	-2.4199603667	-0.3080250826	-0.289134
H	 1.0244960939	 1.9349048105	 0.127597223	 0.109397
H	-0.4226766326	 1.9218471453	-0.8867814016	 0.113608
H	-0.5789956154	 1.9501534311	 0.872952229	 0.112615
H	 0.6364728991	-0.3752924075	-0.7370096677	 0.088724
H	 0.4628682889	-0.3448872037	 1.0085378933	 0.111297
H	-2.0136315584	-0.1533595135	 0.7676214725	 0.066338
H	-3.0092162743	 0.1693856514	-1.3744945923	 0.093913
H	-1.4455503868	-0.0270947103	-2.1775177403	 0.094139
H	-2.9600017441	-2.1771388138	-2.6113769512	 0.061583
H	-1.1365656919	-3.7160219748	-1.419173941	 0.083892
H	-0.1634691548	-2.2581191372	-1.796190043	 0.09265
H	-0.9425423466	-3.5611702326	 1.2787623902	 0.277981
H	-3.7371286996	-1.8480455164	 0.1847080112	 0.088729
H	-3.1815290875	-3.4880718109	-0.2969790188	 0.083256
95.8082	150.5258	175.4159	249.3685	291.2869	296.711	378.9006	400.4008	427.2855	481.5251	548.9979	588.3311	680.0842	772.5472	817.7303	831.2786	855.6449	899.3682	908.9469	946.7919	972.3617	980.1513	997.9627	1010.578	1025.5862	1074.0538	1097.9089	1110.6886	1124.8114	1145.0616	1163.1958	1193.8777	1207.6789	1249.7958	1258.4954	1281.267	1292.0021	1310.4326	1326.2908	1350.9101	1382.5509	1406.0973	1411.7087	1483.1454	1487.9517	1495.6412	1500.4837	1507.7642	1526.3027	3017.6547	3027.1467	3030.1529	3042.5354	3044.4533	3053.7933	3064.7353	3089.2904	3096.0665	3100.2848	3103.7548	3110.3107	3123.0766	3819.7596
CCC1CC2CC1(O)C2	CC[C@H]1C[C@H]2C[C@]1(O)C2	
InChI=1S/C8H14O/c1-2-7-3-6-4-8(7,9)5-6/h6-7,9H,2-5H2,1H3	InChI=1S/C8H14O/c1-2-7-3-6-4-8(7,9)5-6/h6-7,9H,2-5H2,1H3/t6-,7-,8-/m0/s1
