17
gdb 85354	2.77038	1.40975	1.08812	0.2224	76.2	-0.2551	-0.095	0.1601	1112.767	0.136075	-421.883939	-421.875708	-421.874764	-421.917046	30.689	
C	-0.2158545446	 1.5248846932	 0.0936028154	-0.400285
C	 0.0189536515	 0.0026981146	-0.0024012823	-0.111986
C	 0.7953016967	-0.382806009	-1.2755490995	-0.345012
C	 2.2799610746	-0.060718851	-1.2091169809	 0.37856
O	 2.9242510642	 0.2874191377	-2.1759065593	-0.31687
C	 2.9289697056	-0.2552554809	 0.1141215757	-0.141375
C	 2.2229275804	-0.4633614448	 1.2355275356	-0.141532
C	 0.7361229854	-0.4644599473	 1.2618110308	 0.376561
O	 0.1348100486	-0.7704215852	 2.2705636999	-0.326702
H	 0.7288065191	 2.0782851575	 0.1130285055	 0.129733
H	-0.7909594417	 1.8717910161	-0.7699986056	 0.128507
H	-0.7739730583	 1.7691221893	 1.0011643929	 0.140735
H	-0.9568587435	-0.49185647	-0.0021022936	 0.107272
H	 0.7247058684	-1.4684635657	-1.4307665145	 0.135569
H	 0.3760016212	 0.0946299267	-2.1650594445	 0.129406
H	 4.0144939863	-0.2136105403	 0.1143200514	 0.128805
H	 2.7026917862	-0.631625571	 2.1956330029	 0.128612
69.7634	100.9701	211.8306	233.4564	276.6215	327.2395	415.1302	433.8158	464.9996	537.844	585.6982	704.1688	713.6694	740.0961	835.793	884.0509	904.5564	956.2112	1025.5029	1043.5551	1058.9452	1086.1841	1122.1152	1205.6489	1224.5298	1279.5957	1294.4107	1331.9683	1365.1245	1383.9177	1406.666	1461.37	1494.23	1501.8069	1662.1086	1778.2893	1784.672	3021.9696	3038.8503	3067.105	3100.0248	3110.0141	3123.7544	3171.1886	3190.7009
CC1CC(=O)C=CC1=O	C[C@H]1CC(=O)C=CC1=O	
InChI=1S/C7H8O2/c1-5-4-6(8)2-3-7(5)9/h2-3,5H,4H2,1H3	InChI=1S/C7H8O2/c1-5-4-6(8)2-3-7(5)9/h2-3,5H,4H2,1H3/t5-/m0/s1
