16
gdb 53871	4.40349	0.75113	0.64683	2.0091	68.38	-0.2603	-0.0652	0.1951	1641.9076	0.119785	-475.040641	-475.030609	-475.029665	-475.077673	33.252	
C	 0.4757265265	 1.3289592762	 0.1273716944	-0.470253
C	 0.2889320798	-0.1654843664	 0.0318703201	 0.337752
O	 0.2543597021	-0.902223626	 0.9857592823	-0.277635
C	 0.1389112143	-0.7326799205	-1.3807282409	 0.31876
N	 0.1757158628	 0.0459705687	-2.3813343133	-0.512369
O	-0.0213864848	-2.0728287295	-1.3416083549	-0.22039
C	-0.1749675457	-2.7653213256	-2.5671539651	-0.186118
C	-0.3332426179	-4.2440754937	-2.2406683032	 0.136776
O	-0.4809663559	-5.0808807065	-3.0883343317	-0.227997
H	 1.3629054078	 1.6371096472	-0.4333144566	 0.15618
H	-0.3706314157	 1.8472228224	-0.3325491214	 0.156175
H	 0.5705902421	 1.6089520473	 1.1767414343	 0.139435
H	 0.0664598415	-0.4287003738	-3.2770457005	 0.232638
H	-1.0625033088	-2.4209784849	-3.1163622494	 0.148637
H	 0.7003925745	-2.6319766203	-3.2181633229	 0.148625
H	-0.2996783123	-4.4743942445	-1.1552480212	 0.119785
37.7005	57.2053	76.6418	107.8731	128.1956	136.8943	263.7799	312.2068	377.8112	413.4607	505.6218	554.483	619.9987	693.5094	742.1525	805.2476	886.1132	957.4897	1023.001	1048.5607	1063.5256	1112.32	1146.4303	1184.8425	1239.9929	1327.7587	1369.4842	1391.3725	1407.4876	1454.4325	1462.5868	1476.0381	1712.4331	1819.8418	1848.4118	2927.5012	3004.7644	3048.8551	3055.5738	3120.119	3162.4113	3495.1909
CC(=O)C(=N)OCC=O	CC(=O)[C]([NH])OCC=O	
InChI=1S/C5H7NO3/c1-4(8)5(6)9-3-2-7/h2,6H,3H2,1H3	InChI=1S/C5H7NO3/c1-4(8)5(6)9-3-2-7/h2,6H,3H2,1H3
