17
gdb 82276	3.15001	1.45717	1.08462	3.0121	77.56	-0.2157	-0.0643	0.1515	1098.1463	0.136218	-418.007742	-417.999508	-417.998564	-418.04121	30.114	
C	 0.1612790778	 1.2681775273	 0.4215968816	-0.359708
N	 0.1149004748	-0.152285977	 0.1476886761	-0.091861
C	-1.1112914276	-0.8947068677	 0.1086263244	-0.033575
C	-1.4268996461	-1.5700287564	-1.1954920282	-0.310127
C	-0.6180068445	-2.3343105056	-0.1618118877	-0.007279
N	 0.8074987558	-2.2754499902	-0.2466349259	-0.295498
C	 1.1393450817	-1.0254180061	-0.1103766755	 0.257946
C	 2.576454833	-0.6712247044	-0.2106882576	 0.114563
O	 3.0470668415	 0.4394966605	-0.1292258214	-0.277435
H	 1.1993547659	 1.5868978849	 0.4857522836	 0.181908
H	-0.3370781712	 1.8408606485	-0.3711962437	 0.127698
H	-0.3468216077	 1.4880348644	 1.3693575143	 0.12463
H	-1.8833745355	-0.59532052	 0.8101929189	 0.103018
H	-2.4469342022	-1.911374752	-1.3292158037	 0.122638
H	-0.9271517566	-1.2283005226	-2.0958565074	 0.122349
H	-1.0471077737	-3.2270221726	 0.2775418149	 0.103972
H	 3.1977111647	-1.5727943808	-0.3721866928	 0.116763
48.581	102.9568	159.5307	233.3824	239.1301	332.77	403.333	441.3709	496.1968	631.6559	658.3284	698.5809	754.5161	794.3593	849.0243	929.6949	957.1227	1024.3193	1031.3335	1038.2128	1080.3264	1096.4736	1138.9292	1161.11	1183.1682	1232.785	1270.7228	1326.6841	1370.4563	1393.7537	1446.4228	1459.6184	1478.2747	1498.9856	1532.0574	1599.8135	1798.5649	2963.3332	3009.5607	3053.6142	3131.4037	3156.9468	3178.9198	3179.2183	3227.389
CN1C2CC2N=C1C=O	CN1[C@H]2C[C@H]2N=C1C=O	
InChI=1S/C6H8N2O/c1-8-5-2-4(5)7-6(8)3-9/h3-5H,2H2,1H3	InChI=1S/C6H8N2O/c1-8-5-2-4(5)7-6(8)3-9/h3-5H,2H2,1H3/t4-,5+/m1/s1
