15
gdb 53996	1.89249	1.52356	1.43413	1.0902	65.	-0.2638	-0.0686	0.1952	1033.5785	0.106817	-494.931024	-494.921358	-494.920413	-494.966088	33.431	
C	-0.7920702749	 0.3324236135	 0.7636775978	-0.489648
C	 0.3297655162	 0.1717756161	-0.2131420956	 0.346101
O	 1.3949556488	 0.7439388682	-0.1452284724	-0.313343
C	 0.1535162158	-0.7955642865	-1.4232488485	 0.086671
O	 1.3097537132	-0.792018118	-2.2007981159	-0.460679
C	-0.1072102772	-2.2343834395	-0.9217175769	 0.104767
O	-1.0299820473	-2.5776120314	-0.2390999837	-0.220171
C	-1.0385290938	-0.3441437663	-2.2976540619	 0.104715
O	-2.1754625968	-0.2523953893	-1.9312488039	-0.220328
H	-0.4987927871	 1.0351682942	 1.5435350097	 0.145786
H	-1.6904216609	 0.6768066969	 0.2432002829	 0.181503
H	-1.0560491982	-0.6398579351	 1.1895261236	 0.181827
H	 1.9138167722	-0.1706176324	-1.7541716994	 0.303471
H	 0.6814280122	-2.9227880908	-1.2898515632	 0.124705
H	-0.6998652824	-0.1198853996	-3.3303265925	 0.124622
49.4675	101.7518	113.7134	138.5928	204.8089	222.5121	259.6845	350.1021	381.7311	395.4942	448.8361	527.8741	575.7342	620.5988	660.0485	706.5015	910.532	930.6857	981.1633	1019.8916	1084.8235	1101.47	1169.3696	1212.7195	1353.5034	1382.5079	1389.6616	1401.4101	1454.0158	1456.1235	1791.5017	1803.9458	1860.4973	2926.8543	2932.8683	3058.8489	3122.6688	3166.8369	3617.8034
CC(=O)C(O)(C=O)C=O	CC(=O)C(O)(C=O)C=O	
InChI=1S/C5H6O4/c1-4(8)5(9,2-6)3-7/h2-3,9H,1H3	InChI=1S/C5H6O4/c1-4(8)5(9,2-6)3-7/h2-3,9H,1H3
