12
gdb 5463	3.55584	2.0127	1.2867	5.3778	65.72	-0.2205	-0.029	0.1915	859.4229	0.085727	-377.561077	-377.554342	-377.553398	-377.591965	25.041	
N	 0.0441154326	 1.4141307618	 0.1705992497	-0.613361
C	 0.0304623705	 0.0418838129	 0.050319468	 0.161543
C	-1.0729294806	-0.7868187261	 0.0142215338	 0.213379
O	-0.6703777422	-2.105882836	-0.0309621259	-0.177632
C	 0.6733017605	-2.0937830663	-0.0315823238	-0.002943
C	 1.1679186048	-0.827223241	 0.0168003068	-0.227224
C	-2.4399735534	-0.4790642737	 0.0114906241	 0.203921
N	-3.5564013918	-0.158377426	 0.0049983461	-0.358773
H	 0.8430369617	 1.877819266	-0.2343369141	 0.25989
H	-0.8251972656	 1.8771204128	-0.0537368945	 0.268747
H	 1.1496250206	-3.0604156338	-0.0677477582	 0.150688
H	 2.2069426429	-0.5381496407	 0.0360644281	 0.121765
137.2536	153.7462	293.1431	324.3894	367.7134	512.376	537.0977	578.5759	610.892	615.2462	711.1982	726.2668	779.8488	835.7388	902.6714	1039.0264	1088.4224	1161.2496	1229.4145	1275.7012	1336.1132	1478.5828	1532.7022	1634.589	1672.0702	2317.1024	3256.3469	3281.4459	3569.2524	3671.4793
NC1=C(OC=C1)C#N	Nc1c(occ1)C#N	
InChI=1S/C5H4N2O/c6-3-5-4(7)1-2-8-5/h1-2H,7H2	InChI=1S/C5H4N2O/c6-3-5-4(7)1-2-8-5/h1-2H,7H2
