18
gdb 50365	3.24528	1.27633	1.17171	4.8415	72.76	-0.2442	0.0257	0.27	1101.4682	0.14982	-439.099407	-439.091786	-439.090842	-439.132297	28.483	
O	 0.0176831496	 0.1601940014	 0.6322170814	-0.336368
C	 0.0865705615	 1.3342357438	 0.3348991485	 0.14471
N	 1.2086066039	 1.9654132687	-0.0991089574	-0.043217
C	 1.313809445	 3.3842162753	-0.4191633728	-0.19907
C	 2.6986532693	 3.7812817522	 0.1092311629	-0.087106
C	 2.8381921351	 3.8947667028	 1.6411005749	-0.076783
O	 3.5061719653	 2.6200655727	 1.7275602679	-0.284713
C	 3.4714906547	 2.4426193972	 0.2972712034	 0.12373
C	 2.5206854313	 1.3276423134	-0.1375816456	-0.194191
H	-0.7789703734	 2.0252393645	 0.3891406868	 0.068222
H	 1.2623601827	 3.5487928261	-1.505217177	 0.111809
H	 0.4951262581	 3.9439968227	 0.0430332248	 0.12328
H	 3.1694755427	 4.5714435524	-0.4742045237	 0.089108
H	 3.478003676	 4.7146000031	 1.9894361774	 0.106184
H	 1.8989525973	 3.9070951003	 2.208494455	 0.106321
H	 4.4758264057	 2.3447695237	-0.1260318176	 0.083212
H	 2.5330278236	 0.4677588241	 0.533805463	 0.157127
H	 2.7661501016	 0.9863878256	-1.1535396819	 0.107744
48.4102	117.827	223.7808	251.3392	316.7366	361.8784	372.4118	529.2742	634.3369	745.5238	808.8686	851.1684	862.2876	883.7746	899.3849	942.3774	1011.6678	1023.8622	1031.9843	1058.9032	1078.5428	1113.4289	1164.5333	1173.2646	1180.0346	1232.2199	1249.2117	1266.155	1321.0031	1332.7235	1343.7871	1366.0841	1385.6381	1421.3459	1450.0925	1488.4783	1506.3778	1523.0261	1794.9596	2925.7587	2996.0657	3005.7741	3013.3514	3056.6957	3063.8793	3082.0171	3122.1276	3130.8787
O=CN1CC2COC2C1	O=CN1C[C@H]2CO[C@H]2C1	
InChI=1S/C6H9NO2/c8-4-7-1-5-3-9-6(5)2-7/h4-6H,1-3H2	InChI=1S/C6H9NO2/c8-4-7-1-5-3-9-6(5)2-7/h4-6H,1-3H2/t5-,6-/m0/s1
