17
gdb 77224	3.28678	1.1268	0.97534	3.8055	74.52	-0.2341	-0.0482	0.1859	1213.6702	0.134522	-417.997762	-417.988663	-417.987719	-418.032194	31.907	
C	 0.0302878279	 1.8094170516	-0.1580202874	-0.347652
N	 0.0031418374	 0.3719968102	 0.0420426022	-0.055279
C	-0.9968866394	-0.3253567353	 0.8572857113	-0.080388
C	 0.0996282914	-1.390808986	 1.2004413021	-0.266855
C	 1.1172559754	-0.3277907218	 0.6932349299	-0.110091
C	 2.1869936796	-0.7750814613	-0.2020382272	 0.292281
N	 3.0333314057	-1.1335233018	-0.9025581283	-0.320367
C	-1.4877032644	 0.3482079999	 2.1254983483	 0.145768
O	-0.932504775	 1.2662286416	 2.675771719	-0.24702
H	 0.8346570138	 2.047054422	-0.8617075303	 0.136905
H	-0.9128518766	 2.120996503	-0.6182348478	 0.127166
H	 0.1750914138	 2.3832941827	 0.766123288	 0.136308
H	-1.8637061438	-0.6945021633	 0.2936823262	 0.097674
H	 0.199013113	-1.6902920265	 2.2430599455	 0.134378
H	 0.0449579091	-2.2668802683	 0.5562591074	 0.144661
H	 1.5684873132	 0.2303484194	 1.5272120121	 0.126213
H	-2.416741581	-0.1016927461	 2.5488166589	 0.086294
57.3698	102.3137	133.6396	177.0764	210.9054	218.4334	275.4904	336.2029	346.2871	531.0649	541.114	637.5578	752.553	794.0449	794.96	893.1573	951.5882	977.9921	1036.0594	1064.8211	1077.8682	1134.9766	1155.2609	1201.6576	1233.4519	1250.7861	1272.7382	1300.5612	1346.7667	1372.4852	1413.6491	1450.5919	1481.0022	1484.9562	1511.363	1819.7307	2357.3829	2855.6953	2994.238	3015.1682	3023.2532	3084.0523	3103.5853	3105.1341	3169.2321
CN1C(CC1C#N)C=O	CN1[C@@H](C[C@H]1C#N)C=O	
InChI=1S/C6H8N2O/c1-8-5(3-7)2-6(8)4-9/h4-6H,2H2,1H3	InChI=1S/C6H8N2O/c1-8-5(3-7)2-6(8)4-9/h4-6H,2H2,1H3/t5-,6-/m0/s1
