18
gdb 127343	5.53122	0.77528	0.71659	3.4653	75.22	-0.2514	0.0123	0.2636	1577.4627	0.148553	-435.291112	-435.281831	-435.280886	-435.326544	32.	
C	-0.2381158447	 1.383992673	-0.052912985	-0.320073
N	-0.0680866683	-0.05190614	-0.0529272233	 0.060592
C	 0.1689293249	-0.8904334064	-1.080387281	-3.*^-6
N	 0.2518086975	-2.1355277506	-0.6538505389	-0.315593
C	 0.0508168169	-2.0093025639	 0.6929815612	 0.331441
C	 0.0591127793	-3.1723768132	 1.6296196755	-0.280988
C	 1.4104784272	-3.8876936075	 1.6515230653	-0.069911
O	 1.2890521744	-4.9948514847	 2.5313838101	-0.42078
N	-0.1448925812	-0.7610932948	 1.1003793769	-0.308528
H	-0.1338529587	 1.7503041483	-1.0758701313	 0.142735
H	-1.2285242458	 1.6474463759	 0.3268507408	 0.155767
H	 0.5198158521	 1.853802244	 0.578992751	 0.155097
H	 0.2692695672	-0.5512891042	-2.1011272784	 0.138365
H	-0.190218102	-2.8265192476	 2.6357611814	 0.125124
H	-0.703378254	-3.8983327341	 1.3260028163	 0.124938
H	 1.667857534	-4.2047955204	 0.630872924	 0.108237
H	 2.1915984373	-3.1885761381	 1.9903518932	 0.088088
H	 2.1217866839	-5.4751977857	 2.5237845321	 0.285492
38.8327	91.858	94.6203	111.6816	202.1121	246.4566	277.2165	351.1305	364.3048	435.2658	650.7423	677.0674	745.1873	796.2449	820.9129	854.2082	1004.8403	1023.4786	1044.7413	1065.0639	1079.8024	1090.6693	1153.7619	1215.0442	1230.2267	1241.2096	1304.64	1315.0538	1330.2989	1358.2454	1449.7496	1454.4308	1455.849	1473.0943	1477.9861	1499.4806	1526.7339	1529.411	1563.195	2974.3857	3019.4299	3051.4358	3052.8214	3113.6633	3122.7026	3145.278	3249.7039	3832.9418
CN1C=NC(CCO)=N1	Cn1cnc(CCO)n1	
InChI=1S/C5H9N3O/c1-8-4-6-5(7-8)2-3-9/h4,9H,2-3H2,1H3	InChI=1S/C5H9N3O/c1-8-4-6-5(7-8)2-3-9/h4,9H,2-3H2,1H3
