17
gdb 110962	2.84628	1.29024	1.13698	1.2235	68.76	-0.2457	-0.0013	0.2444	1111.9396	0.135066	-458.91569	-458.907134	-458.90619	-458.948995	32.06	
O	 0.2716662607	 0.444479527	 1.0320542767	-0.421631
C	-0.1558810813	 0.3697628452	-0.3195759015	-0.122204
C	-1.4955601019	-0.3513056531	-0.3992941681	-0.042075
C	-2.0215809635	-1.0537101529	-1.7022250181	-0.217121
C	-0.9491300528	-2.1765470582	-1.476209588	-0.287846
C	-1.5061903901	-1.9002622935	-0.0436043482	 0.250398
O	-1.0500897471	-2.4906547411	 1.1142628786	-0.473372
C	-2.8810220454	-1.8849414265	-0.7274251542	 0.390535
O	-3.9944280042	-2.277030398	-0.5627579828	-0.329261
H	 0.2930983885	-0.4571437335	 1.3744874261	 0.29307
H	-0.2718266331	 1.4040408589	-0.6599788126	 0.114932
H	 0.6109345448	-0.0906172452	-0.9568872347	 0.095376
H	-2.2469257445	 0.2352611388	 0.138145247	 0.094324
H	-2.3088647062	-0.5888756478	-2.6388471992	 0.107397
H	-1.1587200535	-3.1579618617	-1.9043372078	 0.120631
H	 0.0843020088	-1.8829754398	-1.6469387089	 0.121359
H	-1.7878553994	-2.5740492387	 1.7302280558	 0.305487
85.2684	121.1568	158.5317	177.8087	258.2381	358.877	364.5478	420.881	440.7254	504.9135	565.3724	653.6684	742.8785	760.7333	791.1592	818.0552	877.8558	934.6396	983.0143	1009.243	1055.0396	1079.7752	1087.9609	1096.3687	1115.481	1162.8095	1187.0653	1211.5571	1228.6145	1305.6109	1343.8035	1386.2506	1422.5884	1441.5771	1501.3154	1536.3151	1916.0605	3009.9054	3060.4801	3076.4404	3092.6559	3167.5037	3189.6659	3788.9311	3795.6118
OCC1C2CC1(O)C2=O	OC[C@H]1[C@H]2C[C@]1(O)C2=O	
InChI=1S/C6H8O3/c7-2-4-3-1-6(4,9)5(3)8/h3-4,7,9H,1-2H2	InChI=1S/C6H8O3/c7-2-4-3-1-6(4,9)5(3)8/h3-4,7,9H,1-2H2/t3-,4+,6-/m1/s1
