15
gdb 21234	3.38933	2.00083	1.28722	4.7645	63.31	-0.224	0.0132	0.2372	911.31	0.119214	-395.969419	-395.961511	-395.960566	-396.002342	27.577	
C	 0.1517356688	 0.6935421241	 0.6501348169	-0.253136
O	 0.0856697836	 0.7644140484	-0.7715855707	-0.259692
C	 0.5393132994	-0.3008658635	-1.4547235542	 0.349792
C	 0.7614371571	-1.6448924792	-1.2114614451	 0.182083
C	 0.5703599844	-2.5036518108	-0.000460039	-0.514813
N	 1.2145476173	-2.189874277	-2.3839942316	-0.234806
N	 1.2785463442	-1.2888366762	-3.3166099323	-0.130466
N	 0.871879387	-0.1281505689	-2.7554071642	-0.243504
H	-0.5069843988	-0.0871435738	 1.0433336133	 0.139349
H	 1.1783748222	 0.5095204069	 0.9853391591	 0.136127
H	-0.1830308177	 1.6655814327	 1.0141458628	 0.144519
H	 0.9285347954	-3.5074647641	-0.2397503969	 0.152365
H	 1.1295761133	-2.1458437456	 0.8696729765	 0.122881
H	-0.4824654091	-2.5869950441	 0.2914126728	 0.12913
H	 0.839655173	 0.7237986309	-3.2922748275	 0.280169
44.7048	123.2519	175.4379	214.5924	256.4475	305.507	360.9749	474.4838	545.3025	669.5361	707.0852	711.3536	729.1766	978.2942	1024.3773	1059.837	1068.4459	1070.4467	1177.6683	1196.2816	1256.1533	1269.9161	1305.0304	1388.5902	1416.0051	1472.4009	1485.2441	1488.1904	1499.564	1506.1839	1522.6218	1640.767	3027.7232	3035.947	3086.5267	3102.1815	3128.926	3146.5733	3657.2715
COC1=C(C)N=NN1	COc1c(C)nn[nH]1	
InChI=1S/C4H7N3O/c1-3-4(8-2)6-7-5-3/h1-2H3,(H,5,6,7)	InChI=1S/C4H7N3O/c1-3-4(8-2)6-7-5-3/h1-2H3,(H,5,6,7)
