23
gdb 96332	1.94819	1.61339	0.96608	0.5582	82.68	-0.2375	0.0865	0.324	1303.2766	0.205711	-425.432615	-425.423101	-425.422157	-425.466598	36.322	
C	 0.011954789	 1.5444672585	 0.1059746188	-0.396988
C	-0.0057336785	 0.0224592676	 0.0036571177	 0.144321
C	 0.6634803628	-0.472823179	-1.2904368152	-0.228266
C	 0.2863903174	-1.910631432	-1.6988383491	-0.085548
O	-0.0849433546	-2.7640383097	-0.6307990692	-0.247854
C	 0.8137634081	-2.8221526121	 0.4610849311	-0.089417
C	 0.4573096753	-1.795745248	 1.544416663	 0.129582
C	 1.2602253246	-2.0206533096	 2.8210050627	-0.402362
O	 0.7025528427	-0.4566825151	 1.1465758645	-0.276002
H	 1.0393839763	 1.9189825489	 0.0518540953	 0.120966
H	-0.5645359995	 1.9959513849	-0.7069176859	 0.11006
H	-0.4164054026	 1.8638672679	 1.0594667836	 0.119576
H	-1.0464724123	-0.3350116848	 0.0447459672	 0.074954
H	 0.4088733979	 0.1933153231	-2.1233315497	 0.096627
H	 1.7443777857	-0.3806062722	-1.1368615394	 0.107976
H	-0.5932840669	-1.8966341405	-2.3505189981	 0.10818
H	 1.1120243284	-2.3576242829	-2.2759765176	 0.088951
H	 0.7230948613	-3.8290764195	 0.8861197419	 0.101735
H	 1.8569742933	-2.6858295671	 0.1377753887	 0.092071
H	-0.618985868	-1.9213191098	 1.7531355677	 0.070429
H	 2.33369659	-1.9431498581	 2.6201257383	 0.120973
H	 1.0003649393	-1.2630426919	 3.5641092519	 0.126192
H	 1.0548268301	-3.0089744385	 3.2425770019	 0.113845
91.4445	125.0931	175.2765	206.5625	219.8733	258.8279	272.9842	349.298	369.0912	380.8437	472.0611	475.9412	539.1313	610.75	809.6156	827.8365	843.9829	880.2961	933.8004	950.6133	968.8344	1016.71	1032.9744	1089.1983	1114.9492	1143.9004	1146.3019	1163.3742	1179.6036	1190.2879	1262.2636	1275.8018	1306.3413	1325.7686	1339.1906	1357.9642	1391.385	1399.8275	1403.0812	1407.1557	1422.3097	1422.8636	1473.195	1482.0058	1485.1112	1488.754	1499.6519	1502.2197	1507.718	2958.2074	2972.4968	2985.1369	2992.9361	3033.9756	3041.3964	3042.7841	3057.8998	3060.8623	3083.9409	3112.3609	3113.3647	3122.327	3126.7556
CC1CCOCC(C)O1	C[C@H]1CCOC[C@@H](C)O1	
InChI=1S/C7H14O2/c1-6-3-4-8-5-7(2)9-6/h6-7H,3-5H2,1-2H3	InChI=1S/C7H14O2/c1-6-3-4-8-5-7(2)9-6/h6-7H,3-5H2,1-2H3/t6-,7+/m0/s1
