23
gdb 100883	2.27638	1.02049	0.74377	1.6813	88.5	-0.2551	0.0522	0.3073	1603.5552	0.20187	-388.263722	-388.252118	-388.251174	-388.30113	41.758	
C	 0.0868935084	 1.6231041686	 0.0998715555	-0.384823
C	 0.0276730632	 0.0942598323	 0.038821186	-0.192407
C	 0.6552037311	-0.471145977	-1.2438656703	 0.137056
O	 1.9946596435	-0.0174368754	-1.3900651824	-0.422911
C	 0.5804376315	-2.0241136449	-1.3283867218	-0.215381
C	-0.8710498001	-2.5614483699	-1.3960841623	-0.181255
C	-0.9589926457	-4.089505903	-1.3962144398	-0.388683
C	 1.3618243249	-2.5090279257	-2.4663734356	 0.353945
C	 1.9704343239	-2.9216877025	-3.4175796203	-0.465955
H	 1.1164489247	 1.9746722983	 0.0007231016	 0.130198
H	-0.4956588452	 2.0701672182	-0.7132703166	 0.115286
H	-0.3196559811	 1.9948785122	 1.045138043	 0.108336
H	 0.5555805388	-0.3362052771	 0.903099401	 0.08418
H	-1.013660149	-0.2344047824	 0.1211747834	 0.102427
H	 0.1319116557	-0.0587529622	-2.1158581973	 0.094205
H	 2.525293079	-0.4279691269	-0.6977859397	 0.276746
H	 1.03940043	-2.4180583408	-0.4063412706	 0.088489
H	-1.4315191263	-2.1703252893	-0.541735389	 0.101558
H	-1.3469493832	-2.1606952446	-2.2991516044	 0.107601
H	-0.5216463516	-4.5100623325	-0.4835985159	 0.111914
H	-2.0016885253	-4.4172960012	-1.4469404911	 0.111986
H	-0.424518902	-4.5144462132	-2.2497847616	 0.135684
H	 2.5250956746	-3.2731339908	-4.2519279617	 0.191806
30.7777	80.5661	94.8348	134.2644	173.5312	194.5102	226.6358	248.3301	257.2443	269.7692	325.9883	385.9127	430.4133	457.7446	543.1773	590.3535	627.8728	629.4412	768.0207	782.6736	878.4337	886.233	958.3519	987.4238	1010.1056	1042.276	1073.1187	1104.9506	1110.7672	1134.8864	1140.0668	1230.3348	1267.0088	1280.0521	1328.8339	1340.506	1358.5653	1369.1911	1385.4142	1406.2167	1411.617	1421.8456	1478.7566	1486.9695	1495.2333	1497.6488	1508.2792	1510.0331	2232.3521	2967.1778	2999.9056	3034.4705	3036.2407	3038.7004	3040.0281	3067.2543	3084.6081	3101.7222	3102.2053	3123.4878	3128.4933	3504.8603	3794.069
CCC(O)C(CC)C#C	CC[C@@H](O)[C@@H](CC)C#C	
InChI=1S/C8H14O/c1-4-7(5-2)8(9)6-3/h1,7-9H,5-6H2,2-3H3	InChI=1S/C8H14O/c1-4-7(5-2)8(9)6-3/h1,7-9H,5-6H2,2-3H3/t7-,8-/m1/s1
