19
gdb 65119	3.39381	1.24481	1.02462	1.7771	77.03	-0.2112	0.0253	0.2364	1207.7564	0.159852	-419.204632	-419.195956	-419.195011	-419.238235	32.321	
C	-0.3648848103	 1.2722659918	-1.0212758311	-0.466798
C	-0.1312072185	 0.1483921743	-0.0429985728	 0.333235
C	 1.1143864936	-0.6426988376	-0.0809223533	-0.210968
O	 0.9089890049	 0.3434088854	 0.9314394566	-0.2815
C	-1.355160727	-0.5141257466	 0.5040349105	 0.319957
N	-2.4000154454	-0.7639085183	-0.1939223173	-0.33452
C	-3.3499046693	-1.4184715757	 0.7268221688	-0.160415
C	-2.5340866708	-1.7668068734	 2.0062895348	-0.183605
N	-1.3903718934	-0.8708459228	 1.8358653891	-0.335949
H	 0.5836898708	 1.6383646966	-1.4212975463	 0.118917
H	-0.999061225	 0.9193211507	-1.8377195974	 0.154634
H	-0.8818552351	 2.1019523101	-0.5298110464	 0.133711
H	 1.1137370073	-1.6760144589	 0.2629806845	 0.11348
H	 1.8698978428	-0.4004993773	-0.8268025004	 0.122082
H	-4.1670667334	-0.721543293	 0.9562080838	 0.109149
H	-3.7984788257	-2.3002147236	 0.2609180298	 0.108248
H	-3.0762537219	-1.5594399504	 2.9328742553	 0.110982
H	-2.2250501928	-2.8224637695	 2.0180848213	 0.099078
H	-0.528857071	-0.9777146218	 2.3468456403	 0.250282
56.3416	138.5193	176.6032	189.1662	201.941	313.1859	339.3133	382.8176	458.2727	519.7364	553.3047	707.628	733.3483	802.7212	858.2333	873.8391	911.9011	931.2057	987.1673	999.3729	1021.0789	1051.1456	1102.5321	1110.987	1136.359	1160.1446	1172.7835	1200.7368	1238.622	1298.2467	1309.4592	1354.643	1381.0399	1411.4106	1475.6716	1479.7119	1495.4021	1501.0512	1525.1161	1531.9221	1697.3761	2988.9068	3016.2528	3049.8146	3075.8049	3083.7687	3085.4082	3120.3513	3140.5674	3172.8157	3643.1537
CC1(CO1)C1=NCCN1	C[C@]1(CO1)[C]1[N]CCN1	
InChI=1S/C6H10N2O/c1-6(4-9-6)5-7-2-3-8-5/h2-4H2,1H3,(H,7,8)	InChI=1S/C6H10N2O/c1-6(4-9-6)5-7-2-3-8-5/h2-4H2,1H3,(H,7,8)/t6-/m0/s1
