22
gdb 77010	2.74317	1.03298	0.94972	1.5913	89.2	-0.2188	0.0504	0.2692	1391.7147	0.190099	-367.153536	-367.14267	-367.141726	-367.189226	40.075	
C	 1.5244942463	 1.2185076715	-0.7337578002	-0.426631
C	 0.930574458	-0.1141665334	-0.3291387648	-0.026059
N	 1.7375997194	-1.3088525851	-0.0406972121	-0.133142
C	 3.1974451391	-1.2340261579	-0.0845483523	-0.313548
C	 3.6897080526	-1.4340560335	-1.4464897245	 0.324072
C	 4.1006329209	-1.5831425263	-2.5656449489	-0.442451
C	 0.9815606868	-0.6830573034	 1.0593566715	 0.302465
C	 1.6798419019	 0.0544296407	 2.1886171644	-0.456568
C	-0.1843733224	-1.5303929987	 1.5373160846	-0.434909
H	 2.3441595764	 1.5491888956	-0.0934071989	 0.116638
H	 1.903214724	 1.1694126187	-1.759955193	 0.137612
H	 0.7502141623	 1.9922672394	-0.7004344479	 0.121161
H	 0.0438425861	-0.3616273169	-0.9144005648	 0.082258
H	 3.6236885323	-0.2962660712	 0.3031661801	 0.111527
H	 3.5852598328	-2.0335774788	 0.5596688697	 0.13356
H	 4.4634417744	-1.7231877671	-3.5535623901	 0.195074
H	 2.4951159067	 0.700467359	 1.8607175029	 0.118111
H	 0.9589766261	 0.6832946453	 2.7223302129	 0.121473
H	 2.0881826674	-0.6580016593	 2.91509916	 0.12079
H	 0.1458561724	-2.2645442774	 2.2815757814	 0.112632
H	-0.9566522514	-0.9067288654	 2.0024620002	 0.109714
H	-0.6301160522	-2.075390876	 0.70217378	 0.126221
48.0646	105.2032	139.7334	160.2901	197.4733	220.5555	230.9355	272.0417	291.7884	335.7876	359.528	425.3645	467.9448	500.0774	568.3554	607.5233	651.8379	685.9642	778.2901	802.1878	948.777	958.1697	965.2806	993.6865	1013.8914	1029.6626	1048.1869	1131.1786	1137.599	1168.7648	1189.2272	1259.0204	1275.6173	1359.0694	1366.979	1404.1589	1410.6839	1422.5481	1440.6698	1476.3751	1481.1672	1484.3592	1495.488	1497.6327	1507.1645	1516.6914	2241.2038	2981.3249	3025.1184	3033.3575	3035.1502	3042.4379	3083.964	3085.4588	3089.0679	3099.8173	3123.4881	3127.0307	3138.409	3506.8385
CC1N(CC#C)C1(C)C	C[C@H]1N(CC#C)C1(C)C	
InChI=1S/C8H13N/c1-5-6-9-7(2)8(9,3)4/h1,7H,6H2,2-4H3	InChI=1S/C8H13N/c1-5-6-9-7(2)8(9,3)4/h1,7H,6H2,2-4H3/t7-,9?/m1/s1
