19
gdb 106049	2.65569	1.57128	1.26844	2.097	73.79	-0.2336	0.0746	0.3082	1063.6132	0.159137	-422.963784	-422.955715	-422.95477	-422.996358	31.631	
C	 0.0878049303	 1.4938391137	-0.1702385426	-0.377768
C	-0.0693670839	-0.0151977081	 0.0713678604	-0.319494
C	 0.656764203	-0.4764822742	 1.3021561095	 0.262174
C	 2.143278766	-0.8504353343	 1.3414692898	 0.038761
O	 2.6329078603	-0.6441416971	 2.6764884135	-0.311249
C	 1.3773929843	-1.2472573508	 3.124019426	 0.003874
C	 1.1298446157	-1.8787205154	 1.7146392209	-0.218228
C	 0.3492787823	-0.1413837502	 2.7715938829	 0.120517
O	 0.5885757515	 1.1444232408	 3.2659257189	-0.444599
H	 1.1352114743	 1.7531526291	-0.3565270334	 0.114444
H	-0.4989751101	 1.816033922	-1.0356511695	 0.109438
H	-0.2417596559	 2.0623447664	 0.703672673	 0.140971
H	-1.1345687279	-0.264553456	 0.1655221534	 0.102941
H	 0.294932828	-0.5731316341	-0.8014076743	 0.097108
H	 2.8314202019	-0.7655505785	 0.5106920189	 0.11194
H	 1.4489012727	-1.7273072763	 4.0972617153	 0.088486
H	 0.8953709559	-2.8709045151	 1.3573024873	 0.104264
H	-0.6713704571	-0.4296976368	 3.0376411659	 0.090771
H	 1.5466156085	 1.2644168849	 3.2013534243	 0.285647
85.8866	137.0902	203.1699	225.1712	281.164	358.6076	376.9429	521.2566	546.2587	617.8809	689.7185	761.0674	784.8645	793.2282	823.5202	835.3662	895.5944	924.3157	948.6527	958.9588	983.1734	988.6825	1031.1989	1080.8166	1102.3145	1120.9115	1146.8395	1162.9338	1198.6578	1226.1548	1265.2525	1283.1146	1300.6511	1329.3819	1356.9244	1411.7953	1424.3712	1440.3659	1485.3013	1498.1597	1510.3823	3012.4936	3038.6135	3042.7884	3086.9799	3106.204	3122.0186	3151.0252	3205.5263	3223.5184	3747.8373
CCC12C3OC(C13)C2O	CC[C@]12[C@H]3O[C@H]([C@@H]13)[C@H]2O	
InChI=1S/C7H10O2/c1-2-7-3-4(5(7)8)9-6(3)7/h3-6,8H,2H2,1H3	InChI=1S/C7H10O2/c1-2-7-3-4(5(7)8)9-6(3)7/h3-6,8H,2H2,1H3/t3-,4-,5-,6+,7+/m1/s1
