20
gdb 6294	3.53233	1.02297	0.96251	3.3542	72.08	-0.2455	-0.0173	0.2283	1307.3047	0.173509	-386.156534	-386.146449	-386.145504	-386.192257	35.434	
C	-0.1251925207	 1.7064883336	-0.0545828455	-0.404066
C	-0.0041327868	 0.1836998417	-0.0038146383	 0.125497
O	 0.5080555039	-0.2536814136	 1.2540904336	-0.423539
C	-1.336674895	-0.5084938707	-0.3340824771	-0.2132
C	-1.2902228501	-2.0561463954	-0.2967454177	-0.069772
C	-2.6720219582	-2.6851916376	-0.1120648427	-0.401861
C	-0.5948664303	-2.596945551	-1.5303846223	 0.155756
O	-1.0402439278	-3.4513932127	-2.254854847	-0.247896
H	 0.827652607	 2.1714504313	 0.2115001293	 0.127898
H	-0.4138236839	 2.0491652606	-1.0532838826	 0.120847
H	-0.8886776103	 2.0584977737	 0.6508849088	 0.108279
H	 0.7615415014	-0.1294253243	-0.7234993804	 0.095544
H	-0.0776466111	 0.0830372252	 1.9420238869	 0.277972
H	-2.084455209	-0.173803107	 0.3985489055	 0.092611
H	-1.6971253185	-0.1619849759	-1.3114692796	 0.105235
H	-0.6413588029	-2.3187679455	 0.5524197079	 0.114701
H	-2.6094808045	-3.7756644076	-0.1206767498	 0.131621
H	-3.1162790077	-2.3673540074	 0.835946589	 0.105577
H	-3.3476028531	-2.3926942724	-0.9220871364	 0.124138
H	 0.3991947575	-2.1420161451	-1.7458781717	 0.074659
37.3389	62.5138	114.446	160.8521	198.6021	240.3426	266.2583	303.0752	318.3663	337.1904	404.4049	468.4097	483.6921	658.2317	807.4742	823.681	878.9991	915.0537	946.3011	968.3346	1025.9178	1066.1039	1103.5956	1125.2167	1138.3909	1178.6688	1202.5179	1277.6529	1313.5298	1344.883	1362.0142	1390.1545	1404.9919	1410.6333	1419.4842	1436.2133	1476.7843	1489.4147	1492.9541	1495.0663	1498.3296	1824.3914	2865.9038	3006.2599	3008.2217	3024.8158	3040.3396	3043.5077	3055.6045	3096.6766	3109.6112	3121.5136	3127.3807	3791.2654
CC(O)CC(C)C=O	C[C@@H](O)C[C@@H](C)C=O	
InChI=1S/C6H12O2/c1-5(4-7)3-6(2)8/h4-6,8H,3H2,1-2H3	InChI=1S/C6H12O2/c1-5(4-7)3-6(2)8/h4-6,8H,3H2,1-2H3/t5-,6-/m1/s1
