20
gdb 33200	5.19974	0.75752	0.68404	2.0226	84.01	-0.1962	0.0439	0.2401	1679.0309	0.171528	-403.18036	-403.171105	-403.170161	-403.215584	33.507	
C	 0.7477730053	 0.9495014724	 0.7466805869	-0.386102
C	-0.0649039548	-0.0129678547	-0.1023209885	-0.021312
O	 0.7675852341	-0.5278846175	-1.1231268483	-0.256874
C	 0.1096602101	-1.4612897607	-1.9650601432	-0.187372
C	 1.0995833758	-2.0076938506	-2.9364001669	 0.306077
C	 0.9823394948	-2.3995662122	-4.2515524017	-0.242627
C	 2.2459793626	-2.9127978551	-4.6597958867	-0.140136
C	 3.0967105155	-2.810777589	-3.5836697427	-0.094902
N	 2.3857289143	-2.2755890861	-2.5403282824	-0.269584
H	 1.5987349297	 0.435803553	 1.203594402	 0.121914
H	 1.1315334239	 1.770660758	 0.1348452797	 0.130174
H	 0.1286131958	 1.3700776257	 1.5445754597	 0.117077
H	-0.4626714698	-0.8364621112	 0.5151435257	 0.086289
H	-0.9329290987	 0.5017481519	-0.5471226675	 0.089389
H	-0.3292098759	-2.2617835565	-1.3410763554	 0.095082
H	-0.7236885973	-0.9899186579	-2.5093840663	 0.10316
H	 0.0863521633	-2.331746203	-4.8502000706	 0.086002
H	 2.5000700624	-3.3054002558	-5.6323346731	 0.089965
H	 4.1402834835	-3.0593805226	-3.4762431833	 0.111506
H	 2.7532416355	-1.989080578	-1.6493871974	 0.262276
43.2732	79.5696	97.3551	119.6158	239.494	252.0993	297.2577	352.5462	481.2695	533.6633	632.5471	655.2618	715.3751	740.6545	791.6769	821.6101	846.4532	897.6105	908.3763	978.476	1027.5737	1032.3477	1053.9932	1111.6857	1133.5094	1142.9745	1158.3292	1187.9947	1242.7687	1266.4637	1291.6215	1297.1707	1375.133	1403.8516	1432.4506	1447.9651	1467.9199	1484.027	1499.4014	1503.9841	1510.3332	1534.6211	1618.2903	2925.3837	2956.7025	2981.4893	2991.951	3044.7467	3118.1791	3122.0554	3238.8406	3251.6331	3270.6805	3681.6236
CCOCC1=CC=CN1	CCOCc1ccc[nH]1	
InChI=1S/C7H11NO/c1-2-9-6-7-4-3-5-8-7/h3-5,8H,2,6H2,1H3	InChI=1S/C7H11NO/c1-2-9-6-7-4-3-5-8-7/h3-5,8H,2,6H2,1H3
