17
gdb 56964	2.21201	1.42165	1.0973	4.3478	74.58	-0.2569	-0.0544	0.2026	1157.1073	0.134039	-417.995234	-417.986021	-417.985077	-418.029674	32.659	
C	-0.4945274868	 1.2937965656	 0.1833382363	-0.391899
C	 0.0068018085	-0.1185911531	-0.1490331753	-0.115112
C	 0.7851050193	-0.122437182	-1.397007926	 0.29373
N	 1.384814018	-0.1331055915	-2.3842111768	-0.323103
N	 0.8816478373	-0.5799761203	 0.9412676986	-0.082099
C	 0.2682745398	-1.2346479291	 2.0700421023	-0.236894
C	 1.133763414	-2.0252408306	 1.1251601224	-0.092966
C	 0.4714002742	-3.0627963469	 0.2801901945	 0.147811
O	-0.6750568929	-3.0126050207	-0.1027769014	-0.264225
H	 0.3474218215	 1.9711343459	 0.3410827607	 0.147624
H	-1.1149744219	 1.6767258689	-0.6301565272	 0.141547
H	-1.0973204483	 1.2612103435	 1.094791516	 0.129067
H	-0.8481924913	-0.789559701	-0.3045358443	 0.15358
H	 0.6606994772	-0.9699551197	 3.0477003393	 0.135282
H	-0.7964857835	-1.4578028563	 2.0257125957	 0.142631
H	 2.1604339312	-2.2495319847	 1.4008914594	 0.114648
H	 1.1240575735	-3.921089828	 0.016340416	 0.100381
51.6147	114.1397	148.107	183.3688	217.4545	226.8547	271.9881	290.9482	393.1511	435.855	535.6225	576.7623	734.7903	750.7077	811.1066	850.0054	922.5509	965.5367	1003.0549	1035.8454	1055.2412	1106.9938	1121.5929	1128.437	1140.8061	1165.4238	1314.6714	1334.1466	1370.8069	1383.45	1407.4999	1425.9941	1486.5982	1491.7617	1495.8586	1798.5617	2363.3272	2916.731	3031.1575	3054.2236	3099.3131	3131.4524	3143.5349	3153.2526	3195.8667
CC(C#N)N1CC1C=O	C[C@@H](C#N)N1C[C@H]1C=O	
InChI=1S/C6H8N2O/c1-5(2-7)8-3-6(8)4-9/h4-6H,3H2,1H3	InChI=1S/C6H8N2O/c1-5(2-7)8-3-6(8)4-9/h4-6H,3H2,1H3/t5-,6-,8?/m0/s1
