22
gdb 60648	3.24737	1.01319	0.88947	3.4527	84.45	-0.2296	0.0339	0.2635	1415.4434	0.193722	-404.369985	-404.360044	-404.3591	-404.405365	36.197	
C	-0.0823638972	 1.5265144704	-0.3670652383	-0.344906
N	-0.1358218584	 0.0933915572	-0.130721193	-0.098968
C	-0.0726815495	-0.389879719	 1.2374415302	 0.070844
C	 1.0007815314	 0.1510852387	 2.2228439277	-0.247576
C	-0.0539370153	 0.0002344329	 3.3540557029	-0.2062
C	-1.1675332237	-0.0030738444	 2.2700756489	-0.247611
C	-0.1130644924	-0.8284392856	-1.1562584211	 0.396176
C	-0.1027452994	-0.2794482712	-2.5765197129	-0.503888
O	-0.1077032187	-2.0315534239	-0.9529000536	-0.37194
H	-0.5031561361	 2.052575798	 0.4924486541	 0.133154
H	 0.9417867694	 1.8953799721	-0.5166653467	 0.12534
H	-0.6770315664	 1.8062694055	-1.2379509191	 0.134254
H	-0.0025970253	-1.4740385542	 1.1613908752	 0.129977
H	 1.9380012954	-0.4046709998	 2.3027411019	 0.103259
H	 1.233019976	 1.2049171696	 2.040700876	 0.097069
H	 0.0259397748	-0.9670610103	 3.8567943557	 0.110048
H	-0.0928900203	 0.7845598244	 4.1121928862	 0.098765
H	-1.5606326423	 1.0049356764	 2.1039069206	 0.097828
H	-2.0094953916	-0.6891962352	 2.3859777623	 0.105211
H	 0.7179065378	 0.4250277632	-2.7427556944	 0.132845
H	 0.0051652667	-1.1272826125	-3.2518457686	 0.147047
H	-1.037361505	 0.2412021377	-2.811086744	 0.139271
61.1862	89.9757	102.5954	126.6574	174.2808	206.2866	258.1669	333.924	379.8778	394.1792	512.6994	586.3522	600.0894	623.7034	740.9189	789.3344	831.208	904.734	924.5629	954.4777	960.6915	1011.7892	1036.1942	1048.2578	1066.0962	1112.7108	1143.2068	1174.9879	1196.6836	1237.4645	1250.5786	1262.3376	1263.5762	1300.0877	1309.4454	1352.5273	1394.1303	1433.4132	1462.4283	1476.1364	1478.486	1488.1056	1491.2135	1500.2274	1511.2097	1521.5391	1758.4391	3007.2821	3043.2496	3052.4567	3056.6271	3067.9255	3096.7283	3101.5363	3105.3197	3108.6211	3122.3108	3134.0881	3138.5875	3162.1303
CN(C1CCC1)C(C)=O	CN(C1CCC1)C(=O)C	
InChI=1S/C7H13NO/c1-6(9)8(2)7-4-3-5-7/h7H,3-5H2,1-2H3	InChI=1S/C7H13NO/c1-6(9)8(2)7-4-3-5-7/h7H,3-5H2,1-2H3
