20
gdb 12363	2.83346	2.00647	1.37933	1.4297	76.18	-0.239	0.0297	0.2686	960.8758	0.178284	-349.024405	-349.016305	-349.015361	-349.056356	31.537	
C	-0.1337832632	 1.5769875509	-0.0106087012	-0.385833
C	 0.0220349134	 0.0440133469	 0.0246773959	-0.025825
C	 0.6917798148	-0.4660639639	-1.2291763329	-0.063304
C	 1.9275887261	-0.9627421545	-1.2751744884	-0.050591
C	 2.8230858041	-1.0873107399	-0.0700227221	-0.259229
C	 2.2877547157	-0.2814745915	 1.1236310419	-0.232806
C	 0.773911497	-0.4681648121	 1.2665700787	 0.129852
O	 0.248415292	 0.2039901159	 2.4046020959	-0.446166
H	 0.8387880615	 2.0769437032	-0.0487798828	 0.113079
H	-0.6922365304	 1.878331326	-0.9028821275	 0.104771
H	-0.6687294944	 1.9303699973	 0.8726979064	 0.132777
H	-0.9921170017	-0.3766635292	 0.0665298934	 0.079878
H	 0.1080144073	-0.3955966495	-2.1447639726	 0.082482
H	 2.3317771474	-1.3107426562	-2.2231683114	 0.082246
H	 2.9202445967	-2.1487962754	 0.2033951717	 0.107236
H	 3.8395535933	-0.7604808884	-0.3224174513	 0.103952
H	 2.7887622791	-0.5945545502	 2.0487513278	 0.078156
H	 2.5067445627	 0.7839080044	 0.9906444667	 0.109333
H	 0.573062119	-1.5503144088	 1.3472007041	 0.062091
H	 0.7284901094	-0.1066028248	 3.178590518	 0.277899
108.9481	189.8957	214.4509	265.9223	277.7959	282.1324	364.0504	438.1951	485.8931	494.2179	597.3604	711.8898	746.6765	790.4849	872.8906	884.165	934.4441	999.6239	1007.4463	1019.0643	1043.0596	1069.6765	1104.6607	1110.779	1136.2459	1168.5823	1217.1365	1256.1443	1263.3731	1327.672	1331.0244	1355.0602	1367.1942	1396.6257	1404.9397	1410.1351	1439.3838	1477.186	1488.5108	1498.712	1503.037	1722.3836	2946.3251	2996.1697	3007.5945	3021.6031	3039.9589	3041.3211	3072.0217	3103.9204	3135.8538	3136.5087	3160.7867	3818.3831
CC1C=CCCC1O	C[C@H]1C=CCC[C@H]1O	
InChI=1S/C7H12O/c1-6-4-2-3-5-7(6)8/h2,4,6-8H,3,5H2,1H3	InChI=1S/C7H12O/c1-6-4-2-3-5-7(6)8/h2,4,6-8H,3,5H2,1H3/t6-,7+/m0/s1
