21
gdb 120989	3.77547	0.91144	0.85692	1.7107	79.	-0.2402	0.0772	0.3174	1441.0585	0.18237	-424.173203	-424.164229	-424.163285	-424.208096	32.718	
C	-0.1899622814	 1.3586394057	-0.1326853981	-0.226041
O	-0.0448412864	-0.0393410036	-0.0735275722	-0.233301
C	 0.6727068192	-0.5668571348	-1.1695900254	-0.077641
C	 0.6973974902	-2.0758828234	-1.0265648547	 0.004035
C	-0.6291903494	-2.8587916853	-1.2970830528	-0.248832
C	 0.0988787174	-3.6966052771	-2.3698029678	 0.124786
O	-0.0154382781	-3.1303331447	-3.6942082172	-0.292478
C	 1.2690386429	-2.4770409564	-3.5759320015	-0.081978
C	 1.4265335222	-2.9253062504	-2.1129119613	-0.119004
H	 0.7847263446	 1.8728206742	-0.1269109774	 0.101819
H	-0.7370903455	 1.6762964567	-1.0347236235	 0.104045
H	-0.7558092879	 1.6675011712	 0.7497456809	 0.126717
H	 0.188079027	-0.2699535124	-2.1149333918	 0.090105
H	 1.7010584354	-0.1624259536	-1.189991959	 0.081148
H	 1.0937775817	-2.3087292363	-0.03431498	 0.085355
H	-0.9885540329	-3.430349979	-0.4378995075	 0.101801
H	-1.4544955272	-2.2670937659	-1.7001664316	 0.111327
H	-0.0169180571	-4.7838518866	-2.3710798125	 0.073529
H	 2.0064776026	-2.9267964616	-4.2541673189	 0.098561
H	 1.2142767331	-1.4020079607	-3.7849040934	 0.101043
H	 2.3720518096	-3.3873382962	-1.8314219044	 0.075004
41.336	83.5523	104.7045	146.4905	235.1179	280.5694	340.6157	362.2294	437.9607	493.2532	668.1824	769.162	787.6851	867.9034	877.6129	926.0234	946.2759	964.8462	1002.9352	1014.0798	1017.7451	1078.4659	1097.7965	1115.2699	1151.0002	1159.171	1177.9119	1186.8393	1202.7782	1208.7462	1230.1156	1259.0526	1271.6978	1275.9197	1302.6393	1327.2788	1351.8372	1367.8334	1426.5736	1466.041	1481.5547	1485.9408	1502.9152	1524.1509	1530.4454	2938.7053	2967.5842	2976.8496	3006.2798	3010.1826	3051.5069	3060.317	3067.1435	3072.3386	3112.5136	3114.9471	3122.408
COCC1CC2OCC12	COC[C@H]1C[C@H]2OC[C@@H]12	
InChI=1S/C7H12O2/c1-8-3-5-2-7-6(5)4-9-7/h5-7H,2-4H2,1H3	InChI=1S/C7H12O2/c1-8-3-5-2-7-6(5)4-9-7/h5-7H,2-4H2,1H3/t5-,6+,7-/m1/s1
