17
gdb 112244	1.9807	1.50613	0.93959	2.7333	69.66	-0.2705	-0.046	0.2245	1240.9323	0.133824	-459.001246	-458.992195	-458.991251	-459.03587	31.715	
C	-0.0907166924	 1.4598957167	 0.0957979209	-0.392992
C	 0.0068563286	-0.0657615158	-0.005242494	-0.183726
C	 0.917918673	-0.6427157211	 1.0588128174	 0.12831
O	 0.3610347834	-0.4343841387	 2.4195125404	-0.249222
C	 0.3243808546	-1.7691846561	 2.6847953466	 0.446032
O	-0.0758028312	-2.3260124967	 3.6546335143	-0.317121
C	 0.9549974387	-2.1623969507	 1.3357474456	-0.326664
C	 0.2108609616	-3.1783702359	 0.501696073	 0.142761
O	-0.142911327	-3.016788371	-0.6366007463	-0.234172
H	 0.889003434	 1.9312770239	-0.0397590923	 0.116793
H	-0.7606674752	 1.8556437519	-0.6722113821	 0.122838
H	-0.4769239076	 1.7622796939	 1.0732886168	 0.13991
H	-0.9856677319	-0.5180511984	 0.0845457787	 0.116346
H	 0.3940712569	-0.3696583265	-0.983065995	 0.126714
H	 1.910801216	-0.1850043357	 1.0222321451	 0.103699
H	 1.9640372176	-2.5578616808	 1.506007324	 0.146653
H	 0.0221087408	-4.1305422591	 1.0428687469	 0.113841
68.6555	95.578	120.175	149.3431	185.8378	225.0797	270.6563	378.7403	420.5427	489.8956	639.8444	682.9716	741.7159	774.1618	846.624	866.9808	894.6139	979.9258	1009.4025	1056.4689	1081.2937	1094.7838	1137.0128	1167.6246	1181.997	1278.2759	1294.719	1324.8639	1348.2992	1409.1817	1412.8115	1425.1726	1467.1388	1499.089	1508.2256	1826.7781	1933.8162	2906.5328	3038.5509	3050.3962	3057.2504	3071.6399	3093.1822	3112.3871	3123.5899
CCC1OC(=O)C1C=O	CC[C@H]1OC(=O)[C@H]1C=O	
InChI=1S/C6H8O3/c1-2-5-4(3-7)6(8)9-5/h3-5H,2H2,1H3	InChI=1S/C6H8O3/c1-2-5-4(3-7)6(8)9-5/h3-5H,2H2,1H3/t4-,5+/m0/s1
