19
gdb 65282	2.59928	1.38242	1.12252	2.2332	83.05	-0.2223	0.053	0.2753	1166.947	0.156736	-385.82318	-385.813971	-385.813027	-385.857018	34.719	
C	-0.111726401	 1.515337315	 0.0753281943	-0.459075
C	 0.0105421503	-0.0003032824	 0.0189607031	 0.031964
C	 1.383527243	-0.6011596793	-0.3384846443	-0.396573
C	 0.8787215527	-0.6963152072	 1.0562616945	 0.43825
C	 1.424710031	-0.1430733629	 2.3690627807	-0.360234
C	 0.9601243291	-1.500675049	 2.9391266305	-0.074467
O	 0.5122773718	-1.9412268991	 1.6347566039	-0.295262
C	-1.1570637214	-0.6965228041	-0.444595458	 0.3009
C	-2.1543257272	-1.249114423	-0.8283497174	-0.454983
H	 0.7996669137	 1.9662987884	 0.4796943685	 0.113917
H	-0.2761145051	 1.9260801789	-0.9257591184	 0.130926
H	-0.9528741696	 1.8178334854	 0.7068014632	 0.128423
H	 1.3804449867	-1.5150994904	-0.9216680316	 0.135693
H	 2.1875027081	 0.0931019148	-0.5641109759	 0.11485
H	 2.5034074551	 0.0245622377	 2.3879753468	 0.116936
H	 0.9133886586	 0.7370083221	 2.7629936669	 0.118854
H	 1.7487194587	-2.1496620467	 3.3341892025	 0.109877
H	 0.1328101217	-1.455380457	 3.6559538661	 0.111056
H	-3.0278730863	-1.7508149013	-1.1628858452	 0.188948
76.7405	116.592	136.3552	198.0137	217.1444	236.0752	353.347	375.1935	421.3596	517.662	541.6074	576.0954	624.9764	643.7168	681.1005	790.2283	841.8944	878.5977	889.4427	927.5721	956.3242	986.7285	1020.3584	1048.8164	1097.1409	1102.6655	1159.5231	1171.3592	1184.4326	1212.6589	1249.9829	1275.5638	1355.3952	1392.2882	1412.7159	1471.2554	1486.8494	1489.9916	1502.3574	1531.4737	2233.5887	3031.808	3034.6702	3073.7537	3076.8742	3105.299	3108.3064	3125.8515	3127.9476	3224.3383	3505.2937
CC1(CC11CCO1)C#C	C[C@]1(C[C@]21CCO2)C#C	
InChI=1S/C8H10O/c1-3-7(2)6-8(7)4-5-9-8/h1H,4-6H2,2H3	InChI=1S/C8H10O/c1-3-7(2)6-8(7)4-5-9-8/h1H,4-6H2,2H3/t7-,8+/m1/s1
