16
gdb 78655	2.50521	1.76719	1.4472	1.783	68.85	-0.2145	0.0022	0.2167	951.7368	0.123062	-437.821445	-437.813685	-437.812741	-437.853353	30.107	
C	 0.0837495124	 1.5091695312	-0.0955973606	-0.338036
N	 0.0532611796	 0.0568082851	 0.0363637163	-0.080014
C	-0.9181227006	-0.5409069203	 0.9609706376	-0.077951
C	 0.0470952005	-1.585773786	 1.4051454777	-0.179812
C	 1.1126419896	-0.5821880358	 0.8683339018	-0.156707
C	 1.0016852256	 0.0448747573	 2.2936533163	 0.336247
O	 1.7912472506	 0.4030961028	 3.1293729961	-0.363697
C	-0.4113318223	-0.4058623618	 2.3909040563	 0.283152
O	-1.2275134212	-0.4286237273	 3.4764974671	-0.451568
H	 0.9475912937	 1.7926848651	-0.7044796447	 0.129834
H	-0.8203483116	 1.8385986154	-0.6165919022	 0.127249
H	 0.147418344	 2.0464121322	 0.8652917366	 0.11495
H	-1.9802610341	-0.618121905	 0.7557830912	 0.11806
H	 0.0164546104	-2.651748835	 1.5580292246	 0.132569
H	 2.0781887567	-0.8016191214	 0.4195030554	 0.099099
H	-0.6680103033	-0.5096214965	 4.2610446406	 0.306625
136.4511	178.5601	202.9122	222.9694	326.7468	367.7039	397.9483	445.1482	567.3959	645.1355	654.24	665.5507	749.061	797.4881	817.4472	856.7169	911.6165	938.3865	951.3745	967.2465	1063.2962	1097.8102	1142.0069	1158.5101	1164.387	1193.0364	1219.526	1242.5263	1304.0597	1370.4913	1446.6884	1469.1255	1488.022	1498.5299	1849.1803	2969.8672	3073.0169	3112.1445	3154.8484	3180.1584	3266.15	3754.2847
CN1C2C3C1C(=O)C23O	CN1[C@H]2[C@H]3[C@@H]1C(=O)[C@@]23O	
InChI=1S/C6H7NO2/c1-7-3-2-4(7)6(2,9)5(3)8/h2-4,9H,1H3	InChI=1S/C6H7NO2/c1-7-3-2-4(7)6(2,9)5(3)8/h2-4,9H,1H3/t2-,3-,4+,6+/m1/s1
