17
gdb 43140	2.52983	1.95076	1.60892	2.7841	71.97	-0.2301	-0.0226	0.2076	902.6187	0.137231	-421.766911	-421.760051	-421.759106	-421.797935	27.735	
O	 0.1395336656	 0.0222371281	 0.0972061068	-0.32264
C	 0.0130502131	 1.2070572342	 0.0962242764	 0.424731
C	-1.0779876461	 2.2648476331	-0.0238593172	-0.054583
O	-0.8354271433	 3.0108605733	 1.2074524297	-0.295369
C	 0.6340561114	 3.1167400407	 1.3197940435	-0.177477
C	 0.9875060185	 2.4443527297	 0.0100145317	 0.162126
C	 2.0267947648	 2.3365606023	-1.111094007	-0.328314
C	 0.8109239932	 2.3797299765	-2.1133672231	-0.274115
C	-0.0876093312	 2.9879475871	-0.9786145286	-0.034085
H	-2.1492002023	 2.1157800559	-0.1418310547	 0.095911
H	 0.9112882015	 4.1741316386	 1.3777430798	 0.112793
H	 0.962574256	 2.5995771684	 2.227959383	 0.116726
H	 2.6608389976	 3.2230663093	-1.1982493417	 0.114267
H	 2.6539138124	 1.4423128609	-1.11519731	 0.121097
H	 0.9274604496	 3.0201052605	-2.9882189177	 0.110521
H	 0.5050391011	 1.3856852223	-2.446098934	 0.132384
H	-0.2373090318	 4.0672772491	-1.0325610671	 0.096027
138.3012	215.8372	259.7829	303.819	396.4717	458.5654	549.0998	639.8721	645.0804	746.5766	768.4921	794.2595	833.1686	847.6711	868.225	904.8988	918.321	992.6076	1015.2419	1029.2382	1079.148	1094.2515	1109.1305	1154.3112	1190.1128	1215.1894	1224.0837	1228.0739	1247.1055	1255.2435	1278.5643	1307.563	1354.5242	1475.7885	1489.2562	1527.6929	1912.8255	3032.3344	3062.5778	3079.3245	3080.8293	3106.4007	3116.2611	3140.2568	3151.1568
O=C1C2OCC11CCC21	O=C1[C@H]2OC[C@]31CC[C@@H]23	
InChI=1S/C7H8O2/c8-6-5-4-1-2-7(4,6)3-9-5/h4-5H,1-3H2	InChI=1S/C7H8O2/c8-6-5-4-1-2-7(4,6)3-9-5/h4-5H,1-3H2/t4-,5-,7+/m0/s1
