20
gdb 68028	2.58814	1.75629	1.32344	1.6346	78.05	-0.226	0.0783	0.3043	1027.9464	0.171822	-403.099088	-403.091309	-403.090365	-403.130536	32.664	
C	-0.0494944397	 1.5179375105	 0.0441690051	-0.501903
C	 0.0340009805	 0.0090354355	 0.0473155299	 0.329634
C	 0.9282939592	-0.7948471092	-0.9666630226	-0.318719
C	 0.7353147912	-1.9226484112	 0.1163751929	 0.41269
O	 1.4998204112	-3.0839155832	 0.1831411454	-0.492956
C	 0.7855882866	-0.7792505509	 1.1652139759	-0.335071
C	-0.7719499705	-2.1846760688	-0.0473396598	-0.071942
N	-1.6222698	-1.6706002725	 1.0544129837	-0.345996
C	-1.2798978451	-0.8009519591	-0.0990738305	-0.077267
H	 0.9444630314	 1.9733375163	 0.1033948132	 0.112439
H	-0.5303212785	 1.8870471103	-0.869564166	 0.112186
H	-0.6351493409	 1.8797181656	 0.8965604429	 0.123441
H	 0.5318147298	-0.975050658	-1.9707777198	 0.086183
H	 1.9555894536	-0.4198879781	-1.02032424	 0.082526
H	 2.4225050741	-2.8331134813	 0.2928602253	 0.278383
H	 1.8031176172	-0.3971880332	 1.2891008715	 0.075996
H	 0.2947719408	-0.9274974986	 2.1246127111	 0.12597
H	-1.112745982	-2.9957350324	-0.679986282	 0.092244
H	-2.566971375	-2.0254483744	 0.9150880257	 0.227741
H	-2.0570968839	-0.4656072171	-0.7776539118	 0.084421
214.4527	233.0866	245.5929	261.4561	303.7688	371.9828	413.5475	472.7237	533.4415	574.0855	596.0245	604.5317	681.3801	797.4353	817.1388	854.276	874.85	905.6781	917.1341	942.2939	973.4932	1002.3876	1025.1864	1032.8258	1084.9679	1107.8024	1112.7191	1131.4005	1157.1243	1171.165	1197.9877	1231.4064	1264.6571	1275.7884	1286.0315	1334.9014	1391.9704	1408.4754	1418.2168	1470.4049	1492.5572	1495.166	1515.6865	3023.5487	3039.285	3064.4231	3085.9063	3096.0117	3102.3722	3159.8547	3164.921	3186.6414	3483.5473	3817.6293
CC12CC(O)(C1)C1NC21	C[C@@]12C[C@@](O)(C1)[C@H]1N[C@@H]21	
InChI=1S/C7H11NO/c1-6-2-7(9,3-6)5-4(6)8-5/h4-5,8-9H,2-3H2,1H3	InChI=1S/C7H11NO/c1-6-2-7(9,3-6)5-4(6)8-5/h4-5,8-9H,2-3H2,1H3/t4-,5+,6-,7-/m1/s1
