17
gdb 127018	4.87209	0.89267	0.76223	2.1455	71.57	-0.2004	0.0471	0.2475	1472.3987	0.13739	-451.357211	-451.348225	-451.347281	-451.391513	32.356	
C	-0.1295076672	 1.5080241511	 0.017723603	-0.392934
C	 0.0051319508	-0.0013242173	-0.0052941128	-0.044705
O	-1.3266376878	-0.5542838767	 0.025525847	-0.280779
C	-1.396595125	-1.8814313373	-0.0022044914	 0.505127
N	-0.4058622879	-2.7496348749	-0.0407800464	-0.424543
C	-1.0778573437	-3.9461785345	-0.0534929472	 0.397268
N	-0.3963783557	-5.1439508836	-0.1577698045	-0.579437
N	-2.3962731137	-3.870521522	-0.0176155248	-0.305407
N	-2.5867712214	-2.502011629	 0.0090382171	-0.300862
H	 0.8632462268	 1.9667973091	-0.0043953794	 0.125807
H	-0.6932751029	 1.8626729164	-0.8495982965	 0.131694
H	-0.6435488212	 1.840426347	 0.9239201363	 0.131009
H	 0.5133408129	-0.3558981564	-0.9077592481	 0.128298
H	 0.5632991682	-0.3776209501	 0.8581553303	 0.125218
H	 0.5240961535	-5.1092109562	 0.2553124889	 0.254731
H	-0.9358647888	-5.9371902517	 0.1579733046	 0.255091
H	-3.5100533269	-2.1074319738	 0.032458324	 0.274424
51.4756	90.8183	138.2366	224.176	250.0526	289.7134	315.0109	334.7949	399.474	442.985	514.2036	634.5813	693.2324	725.4463	781.9975	810.015	813.0826	922.4203	1015.8793	1053.5268	1079.2276	1114.2508	1140.3496	1173.7108	1183.5883	1293.1792	1312.0575	1393.6371	1419.7764	1434.0569	1483.5007	1496.9518	1504.9589	1522.1072	1601.6066	1620.6153	1659.1679	3047.3256	3048.8469	3088.1433	3122.9333	3127.1446	3569.2371	3674.5901	3694.9403
CCOC1=NC(N)=NN1	CCOc1nc(N)n[nH]1	
InChI=1S/C4H8N4O/c1-2-9-4-6-3(5)7-8-4/h2H2,1H3,(H3,5,6,7,8)	InChI=1S/C4H8N4O/c1-2-9-4-6-3(5)7-8-4/h2H2,1H3,(H3,5,6,7,8)
