19
gdb 89041	3.26746	0.99549	0.87189	2.2744	72.95	-0.2254	0.0564	0.2818	1368.7385	0.158346	-456.351969	-456.342192	-456.341247	-456.388215	35.002	
C	 0.0389233922	 1.7068481099	 0.5418215624	-0.31632
N	 0.0059127084	 0.2586401437	 0.3808365502	-0.073332
C	 1.1861108194	-0.3831872697	-0.1761316486	-0.256308
C	 0.7999704519	-0.6121156409	 1.2473631085	 0.003642
C	 1.707168301	-0.1325412827	 2.3530363507	-0.110305
O	 0.9943968334	-0.0924230432	 3.6043269799	-0.264913
C	 0.7423237158	 1.1348254503	 4.1273231594	 0.503522
N	-0.0067656397	 1.0019822264	 5.2598074945	-0.556363
O	 1.1047284277	 2.1879350582	 3.6544269672	-0.403373
H	 1.031007813	 2.1244689107	 0.7656562316	 0.114781
H	-0.3176979199	 2.1582584768	-0.389594419	 0.117638
H	-0.635612945	 2.0018806724	 1.3495505812	 0.134538
H	 1.019476462	-1.1511520772	-0.927321481	 0.114873
H	 2.0647291328	 0.2390548134	-0.3523602927	 0.104932
H	 0.2877166989	-1.5405272172	 1.496875918	 0.094873
H	 2.517123614	-0.854934363	 2.4980457146	 0.114325
H	 2.1360695434	 0.8502594828	 2.1567625409	 0.142329
H	-0.0966111553	 0.094687235	 5.6835509792	 0.265712
H	-0.086542714	 1.8154363942	 5.8443861731	 0.269748
18.1202	73.1955	90.6217	165.3582	220.6941	276.4211	303.9967	338.1177	352.9375	396.2031	488.7466	517.4862	555.6587	665.4512	747.7409	780.1529	792.0894	879.7787	917.024	1013.7529	1037.8662	1074.4934	1087.7121	1113.4254	1119.9394	1128.9077	1164.5917	1197.9794	1204.3571	1289.642	1333.7122	1339.2956	1391.0139	1434.5988	1454.7655	1480.479	1484.0107	1505.4076	1516.8184	1610.1191	1827.6081	2998.118	3056.0022	3074.7777	3078.3063	3111.467	3117.2543	3142.1786	3167.7201	3618.8859	3750.7446
CN1CC1COC(N)=O	CN1C[C@H]1COC(=O)N	
InChI=1S/C5H10N2O2/c1-7-2-4(7)3-9-5(6)8/h4H,2-3H2,1H3,(H2,6,8)	InChI=1S/C5H10N2O2/c1-7-2-4(7)3-9-5(6)8/h4H,2-3H2,1H3,(H2,6,8)/t4-,7?/m0/s1
