16
gdb 124213	4.96361	1.01327	0.84593	3.7542	73.4	-0.2208	0.0014	0.2223	1311.8485	0.126921	-430.2868	-430.278536	-430.277592	-430.320395	29.96	
C	 0.0877966672	 1.356795447	-0.090217563	-0.465799
C	-0.024054644	-0.1397673105	 0.0747705793	 0.368215
N	-0.1151372128	-0.6613002258	 1.2306870876	-0.506934
N	-0.0121170204	-0.8132521868	-1.1526365537	-0.43266
C	-0.09452469	-2.1662020229	-1.3791018932	 0.485366
N	-0.2035117436	-3.0911547379	-0.4331711389	-0.314105
N	-0.2466146615	-4.2347322594	-1.1779681521	-0.175828
C	-0.1647810223	-3.9449312697	-2.4852199925	 0.029037
N	-0.0661244783	-2.6417772213	-2.6614630302	-0.341658
H	 1.0192106559	 1.6292385769	-0.6000602056	 0.129648
H	-0.7432295769	 1.7514538058	-0.6862727666	 0.12959
H	 0.0718235078	 1.8198350742	 0.8950571938	 0.154519
H	-0.1828353936	-1.6777478822	 1.1794192859	 0.239788
H	 0.0670111461	-0.269124509	-1.9968656444	 0.260041
H	-0.3327777841	-5.1248657923	-0.7172852032	 0.286513
H	-0.1792396794	-4.6942693063	-3.2621173732	 0.154269
60.2674	83.5266	153.8567	171.3246	338.6514	350.756	385.6766	476.8458	481.609	565.2709	576.6211	661.4051	771.4434	812.3647	859.8817	923.4192	932.2743	990.9891	994.8144	1046.8801	1074.6622	1099.8259	1158.1745	1185.3133	1271.9618	1314.2061	1368.049	1410.4055	1463.2156	1480.1656	1485.6269	1486.2929	1578.6062	1601.3838	1738.9154	3033.2258	3087.3544	3168.0429	3262.3115	3487.364	3641.6279	3677.1015
CC(=N)NC1=NNC=N1	CC(=N)Nc1n[nH]cn1	
InChI=1S/C4H7N5/c1-3(5)8-4-6-2-7-9-4/h2H,1H3,(H3,5,6,7,8,9)	InChI=1S/C4H7N5/c1-3(5)8-4-6-2-7-9-4/h2H,1H3,(H3,5,6,7,8,9)
