23
gdb 112040	2.22911	1.35646	1.05497	1.2311	86.68	-0.2352	0.0248	0.26	1283.732	0.204759	-388.309443	-388.299673	-388.298729	-388.343486	37.992	
C	-0.1465481691	 1.6235341254	-0.0526147567	-0.392553
C	-0.0620738816	 0.0946533789	 0.0118248955	-0.199791
C	 0.7546821966	-0.5128668452	-1.1371631491	-0.011252
C	 2.2460232728	-0.2593800812	-1.108316773	-0.072737
C	 2.9382967791	-1.2978178391	-1.5748511292	-0.076718
C	 2.0275927838	-2.4269070409	-1.9874716386	-0.312479
C	 0.6754647409	-2.0635947175	-1.2998849765	 0.353891
C	 0.5546085225	-2.8087604151	 0.0342878932	-0.433529
O	-0.4621283856	-2.3383088151	-2.1150366337	-0.481149
H	 0.8418688704	 2.0895406913	 0.0202413021	 0.11495
H	-0.5982749043	 1.9534194409	-0.9947276171	 0.117182
H	-0.7563720538	 2.018903654	 0.765788396	 0.110335
H	 0.3628070319	-0.206217893	 0.9770467188	 0.092897
H	-1.0765902275	-0.3198203586	-0.0297886016	 0.106315
H	 0.3456566691	-0.1004680596	-2.073237977	 0.089577
H	 2.6747609572	 0.6814517172	-0.7812160892	 0.089747
H	 4.0162636927	-1.3364914502	-1.6878869109	 0.088966
H	 1.8854596253	-2.4463631456	-3.0766815098	 0.109358
H	 2.3963515822	-3.4173804566	-1.6935655857	 0.088984
H	 1.4003928016	-2.5837445821	 0.6909963528	 0.124331
H	-0.3714549466	-2.5508946574	 0.5532265291	 0.12202
H	 0.5550815957	-3.8915026687	-0.1432748553	 0.099084
H	-0.6029730636	-3.2908897319	-2.1196369739	 0.272574
85.6943	109.9648	183.5176	209.6093	267.6234	283.6028	288.3188	317.9259	322.6111	360.0912	438.3385	495.3007	521.6167	588.4184	705.0383	740.3945	778.0694	809.5192	891.8631	922.4257	955.8532	967.1469	971.7817	983.6963	993.9481	1056.8264	1079.9681	1103.5911	1128.6286	1137.0839	1155.325	1192.0972	1216.6781	1272.3422	1291.6263	1310.9662	1334.6853	1366.7295	1382.1065	1395.3167	1404.2977	1414.6015	1480.2535	1486.7513	1494.1165	1500.8511	1502.2974	1507.005	1682.1392	2977.1806	3011.152	3023.9412	3026.4487	3031.4583	3047.8693	3061.628	3093.0107	3099.8149	3100.995	3126.8812	3178.558	3203.9721	3807.206
CCC1C=CCC1(C)O	CC[C@H]1C=CC[C@]1(C)O	
InChI=1S/C8H14O/c1-3-7-5-4-6-8(7,2)9/h4-5,7,9H,3,6H2,1-2H3	InChI=1S/C8H14O/c1-3-7-5-4-6-8(7,2)9/h4-5,7,9H,3,6H2,1-2H3/t7-,8-/m0/s1
