16
gdb 29003	3.01596	1.51378	1.01408	3.4688	81.13	-0.2505	-0.0694	0.1812	1115.8404	0.125512	-400.827487	-400.81976	-400.818816	-400.859788	28.818	
C	-0.3636329379	 1.4249088344	 0.232309465	-0.479983
C	-0.1326425561	-0.0580442685	 0.1200290356	 0.216285
C	-0.160235971	-0.6880881698	-1.1261978973	-0.132848
C	 0.053209097	-2.056172924	-1.2264908621	-0.11572
C	 0.2941011097	-2.7801410712	-0.0599762024	-0.014782
N	 0.3272934313	-2.2133818919	 1.1408550747	-0.307183
C	 0.1199733138	-0.8895168274	 1.2305022699	 0.156574
C	 0.185506229	-0.3912719753	 2.6326377821	 0.105499
O	 0.0347652332	 0.7558050349	 2.9854313227	-0.278121
H	 0.4899572211	 1.928143243	 0.694243451	 0.152552
H	-0.5382939742	 1.8573617644	-0.7567196567	 0.110675
H	-1.2202579092	 1.648163925	 0.8738601771	 0.152557
H	-0.3504763816	-0.0969114325	-2.0170519871	 0.109705
H	 0.0341040692	-2.5560975252	-2.1887452599	 0.111444
H	 0.4658718742	-3.8529796848	-0.0967578102	 0.115565
H	 0.3949980315	-1.210281121	 3.3514199875	 0.09778
102.7468	155.1626	196.8909	237.7077	270.7735	368.198	441.202	452.7588	528.8085	575.6599	674.9311	748.8669	774.4808	820.0405	882.2808	965.0129	1000.1931	1015.2175	1043.0305	1072.2946	1083.6469	1147.6402	1202.9949	1239.8282	1289.6996	1326.7571	1399.3132	1416.6508	1449.7	1474.0254	1477.7035	1493.4777	1598.2853	1626.736	1799.0222	2929.3128	3046.3226	3113.423	3122.1776	3159.1527	3172.8842	3198.3104
CC1=CC=CN=C1C=O	Cc1cccnc1C=O	
InChI=1S/C7H7NO/c1-6-3-2-4-8-7(6)5-9/h2-5H,1H3	InChI=1S/C7H7NO/c1-6-3-2-4-8-7(6)5-9/h2-5H,1H3
