16
gdb 19961	4.06433	1.48403	1.15598	4.0391	64.7	-0.2652	0.01	0.2752	1012.5895	0.131075	-383.750419	-383.743106	-383.742161	-383.782767	26.622	
O	 0.3501733019	 0.1163862424	 0.2101132801	-0.320532
C	 0.1334762277	 1.2583237116	-0.0338373085	 0.44711
O	-1.0316952125	 1.8093022195	-0.5106112761	-0.240411
C	-0.4740576905	 3.1620033358	-0.4709101184	-0.098166
C	 0.8759326628	 2.6055171374	 0.0312803708	-0.201911
C	 1.3947952833	 3.0384954742	 1.3752007346	 0.019574
C	 2.8093573973	 2.7077707724	 1.7781795356	-0.25953
C	 2.4305789658	 4.134378341	 1.4755755486	-0.278914
H	-0.4839572441	 3.6145102005	-1.464309384	 0.12475
H	-1.0214584151	 3.7840353374	 0.2409444261	 0.125528
H	 1.6679906448	 2.654302064	-0.7224651976	 0.109139
H	 0.6532246327	 3.0066379393	 2.1693149416	 0.094027
H	 2.9910747101	 2.4270126927	 2.8089628807	 0.122938
H	 3.428545512	 2.1805701242	 1.0606766639	 0.122983
H	 2.7962773644	 4.5736437413	 0.5532146605	 0.114045
H	 2.3524546993	 4.8349805764	 2.2991457122	 0.11937
63.5827	120.8338	142.7941	267.1136	306.2678	391.8457	531.5094	664.3209	745.2125	776.5603	822.638	834.4631	904.8487	926.2211	952.5929	966.5988	1014.2012	1061.9698	1078.0964	1082.9495	1113.8108	1135.5468	1157.2927	1190.2049	1198.9095	1224.7635	1235.1212	1286.8596	1346.6409	1428.6913	1471.5706	1506.6264	1516.4187	1938.338	3067.5157	3071.1446	3131.1566	3133.5979	3140.04	3142.9688	3213.7398	3229.69
O=C1OCC1C1CC1	O=C1OC[C@H]1C1CC1	
InChI=1S/C6H8O2/c7-6-5(3-8-6)4-1-2-4/h4-5H,1-3H2	InChI=1S/C6H8O2/c7-6-5(3-8-6)4-1-2-4/h4-5H,1-3H2/t5-/m0/s1
