16
gdb 56430	2.98204	1.08573	0.92874	5.9707	71.88	-0.2675	-0.0755	0.192	1270.0277	0.123059	-434.107077	-434.097381	-434.096437	-434.142222	34.257	
C	-0.077954833	 1.5356349608	-0.0304078402	-0.401359
C	-0.0471455697	-0.0140385045	 0.0371155028	-0.252312
C	 0.6773677255	-0.4780242315	 1.2190495582	 0.294012
N	 1.2798685207	-0.8294155434	 2.1396182073	-0.32112
C	-1.4820575259	-0.5487457113	 0.0327480676	 0.386999
O	-2.0972168036	-0.8122149328	 1.0376748101	-0.308263
C	-2.1378727558	-0.7105546032	-1.333625253	 0.280915
N	-3.4516130365	-1.0460087594	-1.2330096008	-0.536104
N	-1.4150303259	-0.505308574	-2.3717059597	-0.513302
H	 0.9422115479	 1.9248925522	-0.0263453321	 0.147642
H	-0.5707211302	 1.8456585788	-0.9534970085	 0.150631
H	-0.6131188774	 1.9483549959	 0.8281406764	 0.147483
H	 0.4499932484	-0.3829062129	-0.8637867431	 0.169621
H	-3.7892675491	-1.2972085543	-0.316343349	 0.278943
H	-3.9624845877	-1.3613887191	-2.0392364166	 0.260786
H	-1.9368456178	-0.6440873714	-3.2391582695	 0.21543
44.4092	73.8724	141.5028	189.1709	214.0097	228.2396	292.2738	297.1787	378.8814	433.8162	455.9231	518.0986	547.0496	567.3246	629.2973	786.5451	808.4361	864.15	880.4121	1028.0013	1039.5567	1069.703	1094.6346	1128.3901	1145.815	1294.0954	1337.9345	1398.8415	1433.321	1495.459	1498.5598	1602.6504	1716.9574	1807.6338	2367.2221	3058.1903	3092.6355	3139.8423	3150.2898	3455.7369	3588.1954	3722.5804
CC(C#N)C(=O)C(N)=N	C[C@@H](C#N)C(=O)C(=N)N	
InChI=1S/C5H7N3O/c1-3(2-6)4(9)5(7)8/h3H,1H3,(H3,7,8)	InChI=1S/C5H7N3O/c1-3(2-6)4(9)5(7)8/h3H,1H3,(H3,7,8)/t3-/m0/s1
