19
gdb 96989	2.8224	1.34014	1.11857	2.5921	79.26	-0.2259	0.025	0.2509	1170.8817	0.158788	-419.180813	-419.171753	-419.170809	-419.2146	33.64	
C	 0.0970364115	 1.3674754132	 0.2549872775	-0.339228
N	 0.0790473869	-0.0874286966	 0.2686660955	-0.330537
C	-1.0110238496	-0.6653131195	 0.0005999818	 0.311369
N	-2.3280531145	-0.2609368222	-0.2595049674	-0.349296
C	-2.8559465176	-1.6284883911	-0.3737011507	-0.059321
C	-2.7349154368	-2.2606097241	-1.7832730406	-0.230378
C	-1.3095878156	-2.7862730923	-1.4349751551	-0.276858
C	-1.3810294882	-2.1380143833	-0.0272368454	 0.336391
O	-0.9728968175	-2.9423242032	 1.0215675897	-0.470512
H	 0.8599812225	 1.7281107874	 0.9512007098	 0.124678
H	 0.3670528643	 1.7452557087	-0.7407053804	 0.119196
H	-0.8670853513	 1.8183043125	 0.5368397802	 0.104619
H	-2.5909149588	 0.5083955805	-0.8608537728	 0.2396
H	-3.7427633617	-1.8273054045	 0.22897573	 0.08585
H	-3.45807964	-3.0578219851	-1.9695467872	 0.109626
H	-2.7942515113	-1.5418510921	-2.6044653004	 0.096771
H	-1.2829017841	-3.8734389269	-1.3326688276	 0.121359
H	-0.476392222	-2.4712979677	-2.0665989471	 0.111706
H	-0.5637529863	-2.3740839838	 1.6845629901	 0.294966
89.4041	112.5545	138.0372	170.0098	235.0717	243.4882	306.9705	369.5373	417.6708	485.7696	537.5722	637.3689	703.6541	743.9597	749.9159	825.0196	883.2928	893.7692	949.9875	1012.1002	1025.0682	1055.1884	1084.1256	1113.5985	1119.3153	1135.3458	1168.2764	1205.3324	1216.7491	1235.7027	1267.5121	1322.0941	1339.0532	1360.8206	1383.4907	1437.5844	1470.1312	1489.1347	1491.091	1504.7524	1805.0039	2979.8487	3039.1808	3062.9372	3072.2649	3088.8354	3103.7741	3112.8978	3131.6416	3578.2719	3795.8682
CN=C1NC2CCC12O	CN=C1N[C@H]2CC[C@@]12O	
InChI=1S/C6H10N2O/c1-7-5-6(9)3-2-4(6)8-5/h4,9H,2-3H2,1H3,(H,7,8)	InChI=1S/C6H10N2O/c1-7-5-6(9)3-2-4(6)8-5/h4,9H,2-3H2,1H3,(H,7,8)/t4-,6-/m0/s1
