17
gdb 30441	3.51892	1.21371	0.91272	1.3997	85.03	-0.2173	-0.0662	0.1511	1272.2895	0.135243	-418.028251	-418.019442	-418.018498	-418.062466	31.389	
C	 0.1016338344	 1.3857291273	 0.3597160778	-0.325136
N	 0.0332675507	-0.0369789793	 0.0736324292	-0.277149
C	-1.0831591231	-0.5595478219	-0.2092344934	 0.345039
O	-1.0545115755	-1.9266395311	-0.4687374022	-0.246306
C	-2.1871084944	-2.5942290969	-0.7821891162	 0.3789
C	-1.9483052806	-4.0457049694	-1.0237339637	-0.472758
C	-3.3737454762	-1.953823015	-0.8517405945	-0.153001
N	-3.4896044118	-0.5973951157	-0.6086097325	-0.221252
C	-2.413377095	 0.0459042477	-0.3090126584	-0.081719
H	-0.2213562932	 2.004501747	-0.4895724049	 0.119732
H	-0.5048477142	 1.6725290944	 1.230591479	 0.119672
H	 1.1386770523	 1.6489734979	 0.5813958194	 0.12927
H	-1.5139343502	-4.5151592767	-0.1345285468	 0.152246
H	-2.8817945285	-4.5524405123	-1.2736753784	 0.140319
H	-1.2355648586	-4.1849277145	-1.843715824	 0.152246
H	-4.2804663682	-2.4883021652	-1.1026868265	 0.115004
H	-2.4900203578	 1.1121104938	-0.1156175139	 0.124894
49.7668	89.1329	151.8103	186.9135	207.6469	252.6858	313.9271	416.1569	490.4874	547.7994	558.6791	583.3125	707.8197	741.2178	843.7421	885.1014	927.7542	970.6842	1026.4742	1062.5202	1096.7825	1108.7038	1126.3283	1169.5202	1217.807	1259.3709	1375.8608	1403.4349	1415.4452	1443.1713	1467.1544	1481.3126	1491.2219	1510.4913	1584.1345	1671.4891	1737.8598	2987.2988	3038.3616	3039.6416	3095.7119	3101.3117	3143.2412	3170.204	3215.2755	49.7529	89.133	151.8124	186.9143	207.6468	252.6855	313.9273	416.157	490.4873	547.7993	558.679	583.3129	707.8197	741.2178	843.7428	885.102	927.7553	970.6846	1026.4733	1062.5193	1096.7831	1108.7046	1126.3282	1169.521	1217.8092	1259.3711	1375.8617	1403.4359	1415.4444	1443.1726	1467.1529	1481.3111	1491.2235	1510.493	1584.134	1671.4889	1737.8594	2987.2989	3038.3617	3039.6417	3095.712	3101.3116	3143.2413	3170.2042	3215.2756
CN=C1OC(C)=CN=C1	C[N]C1=C[N]C=C(O1)C	
InChI=1S/C6H8N2O/c1-5-3-8-4-6(7-2)9-5/h3-4H,1-2H3	InChI=1S/C6H8N2O/c1-5-3-8-4-6(7-2)9-5/h3-4H,1-2H3
