22
gdb 87715	2.92338	1.0854	0.99662	2.1052	82.31	-0.2371	0.0627	0.2998	1323.5982	0.193007	-404.315961	-404.306164	-404.305219	-404.350364	37.201	
C	 0.1727372873	 1.4450870452	-0.5079552938	-0.392321
C	 0.2803439864	-0.0320347006	-0.2167423565	-0.075654
N	 1.6204048021	-0.5405500108	 0.1550102941	-0.386319
C	 0.5344322455	-0.5633750793	 1.1402533523	 0.352232
C	 0.6657485007	 0.1534050451	 2.4903530668	-0.340568
C	 0.4802757008	-1.23047982	 3.1754382232	 0.151523
O	-0.3226495377	-1.3397700282	 4.3228679785	-0.431339
C	-0.0241518179	-1.8303108008	 1.8141354358	-0.128683
C	-1.5384146897	-2.0033192386	 1.7199324985	-0.408609
H	 0.7953077843	 2.019320677	 0.1830470489	 0.127284
H	 0.5072050799	 1.6683199334	-1.5267857546	 0.120049
H	-0.8631345184	 1.7889172966	-0.4100322418	 0.111669
H	-0.3152291627	-0.6696173229	-0.8707136453	 0.077225
H	 1.7597276688	-1.4721678936	-0.2311509053	 0.223948
H	 1.5988445489	 0.6877393589	 2.6779614109	 0.11384
H	-0.1764982121	 0.825462845	 2.6945869377	 0.091595
H	 1.4444623883	-1.6639049455	 3.4523625434	 0.097364
H	-1.1585781049	-0.8942678595	 4.1509046292	 0.279339
H	 0.4732123901	-2.7627914587	 1.5233677925	 0.067176
H	-2.0704804816	-1.0702324226	 1.9409135885	 0.105071
H	-1.8374008595	-2.3098998869	 0.7127394265	 0.118254
H	-1.8873736186	-2.7653843832	 2.4239950105	 0.126925
62.5444	133.0574	174.0667	176.7195	221.2062	243.0116	261.4683	314.9839	366.6578	396.9423	451.5724	480.3066	526.6124	596.2844	724.2238	780.7508	806.1065	866.3526	911.4648	930.3283	973.7129	1005.0645	1028.4268	1036.899	1063.1413	1081.0729	1112.9489	1118.0691	1140.1769	1153.2891	1207.3959	1235.6146	1244.1993	1268.3166	1290.6484	1307.7047	1343.5752	1358.6531	1406.416	1409.647	1435.8625	1465.3526	1479.2962	1490.5732	1497.2193	1500.5597	1506.5964	3026.0117	3031.9504	3033.2882	3037.9014	3082.2537	3090.6826	3093.359	3096.6117	3106.0604	3116.5535	3123.5524	3481.0321	3815.7705
CC1NC11CC(O)C1C	C[C@H]1N[C@]21C[C@@H](O)[C@H]2C	
InChI=1S/C7H13NO/c1-4-6(9)3-7(4)5(2)8-7/h4-6,8-9H,3H2,1-2H3	InChI=1S/C7H13NO/c1-4-6(9)3-7(4)5(2)8-7/h4-6,8-9H,3H2,1-2H3/t4-,5-,6-,7-/m1/s1
