18
gdb 98215	2.33148	1.1645	0.91482	5.1772	68.88	-0.2631	-0.03	0.2331	1310.2161	0.144551	-476.271062	-476.260461	-476.259516	-476.309363	36.549	
C	-0.3113811491	 1.8107031086	 1.03570951	-0.388205
C	-0.1647797888	 0.4988911888	 0.2529397547	-0.205751
C	 0.6303506338	-0.5198967008	 1.080440965	 0.408694
N	 1.8431671851	-0.8790536381	 0.5721215867	-0.525204
O	 0.1939407606	-0.9685290544	 2.1225669811	-0.365199
C	-1.5314475057	-0.073972857	-0.1411910682	 0.378372
O	-2.5381739058	 0.5983485244	-0.1194588695	-0.321686
C	-1.6130598731	-1.5163339869	-0.622005413	-0.141274
O	-2.8817090291	-1.8144174832	-1.1246651767	-0.425118
H	 0.6642705628	 2.2811673027	 1.1856949273	 0.114271
H	-0.962938611	 2.5001065269	 0.4969735359	 0.140179
H	-0.7539180819	 1.6071388562	 2.0131025285	 0.154011
H	 0.352381159	 0.6896806828	-0.6987746527	 0.096707
H	 2.2420345169	-0.4366106262	-0.2367787632	 0.263712
H	 2.4267304877	-1.4856785463	 1.1263354811	 0.267743
H	-0.8397871463	-1.6805082143	-1.3896344752	 0.109035
H	-1.3492209132	-2.1612483538	 0.2316095522	 0.145547
H	-3.4257961919	-1.0389582394	-0.9152187241	 0.294165
12.1945	22.5736	102.1541	142.3789	204.2611	228.6701	235.5849	255.9225	323.9566	384.0812	404.0517	411.2215	481.6203	592.7199	612.3085	693.2546	777.1209	788.3309	858.3803	952.2735	996.2017	1045.7132	1102.4384	1118.0312	1127.7965	1163.1951	1242.0045	1260.188	1302.5916	1325.4456	1378.6619	1407.723	1447.7205	1486.3384	1492.638	1500.0685	1618.9797	1791.6507	1800.1398	2982.2588	3002.2402	3008.4603	3056.6928	3132.0254	3150.5269	3597.843	3693.8836	3735.8558
CC(C(N)=O)C(=O)CO	C[C@@H](C(=O)N)C(=O)CO	
InChI=1S/C5H9NO3/c1-3(5(6)9)4(8)2-7/h3,7H,2H2,1H3,(H2,6,9)	InChI=1S/C5H9NO3/c1-3(5(6)9)4(8)2-7/h3,7H,2H2,1H3,(H2,6,9)/t3-/m1/s1
