19
gdb 26340	3.92404	1.0822	0.86938	0.8186	80.55	-0.1862	0.0188	0.205	1357.1782	0.158583	-419.24022	-419.230703	-419.229759	-419.274867	33.916	
C	 0.0215233592	 1.3836882139	 0.0155497013	-0.332293
N	-0.221834147	-0.0431317405	 0.0274086765	-0.156826
C	 0.245133141	-0.753130645	 1.2088274661	-0.338597
C	-0.0888721185	-0.6805220788	-1.1922820565	 0.335307
C	 0.0906894528	-0.1588408265	-2.4395384705	-0.170093
O	 0.0761503184	-1.2143766344	-3.332329379	-0.180279
C	-0.0870756884	-2.3110869528	-2.5677468556	 0.397111
C	-0.1281093652	-3.6332825274	-3.2457750253	-0.488784
N	-0.1904162053	-2.0638879116	-1.2978615665	-0.376022
H	 1.0745428556	 1.6416906485	-0.1942050482	 0.105849
H	-0.6045136887	 1.8603387026	-0.7459614986	 0.128845
H	-0.2474496127	 1.8046001804	 0.9878918059	 0.123483
H	-0.2189804074	-0.3142089722	 2.0973843005	 0.115839
H	-0.0458322585	-1.8005270457	 1.1354717887	 0.159967
H	 1.3404535255	-0.7033466773	 1.3309228936	 0.102693
H	 0.2211077625	 0.8219266835	-2.856267128	 0.13113
H	 0.805383131	-3.8296206799	-3.7836353457	 0.144201
H	-0.2788532239	-4.4123461051	-2.4983794979	 0.153454
H	-0.9428552004	-3.6749456316	-3.9759258006	 0.145015
73.3543	79.6685	135.2557	179.8024	192.8784	227.7251	252.3357	334.5177	367.7421	383.3751	522.301	591.7849	618.4028	662.6663	722.8299	739.8006	936.3369	953.706	1025.7692	1049.7737	1064.5321	1083.161	1123.8714	1130.0034	1177.371	1207.6188	1235.8003	1291.4151	1369.4496	1388.9049	1412.5073	1441.4723	1465.9866	1475.6126	1481.5344	1484.0619	1494.0327	1504.9598	1516.1809	1622.9283	1655.3689	2951.7448	2963.3649	3043.7372	3062.5962	3074.3049	3097.5794	3112.3277	3156.1463	3157.542	3313.7
CN(C)C1=COC(C)=N1	CN(C)c1coc(C)n1	
InChI=1S/C6H10N2O/c1-5-7-6(4-9-5)8(2)3/h4H,1-3H3	InChI=1S/C6H10N2O/c1-5-7-6(4-9-5)8(2)3/h4H,1-3H3
