21
gdb 92337	2.29107	1.81601	1.35436	2.2996	77.36	-0.2446	0.0649	0.3095	1045.9446	0.184351	-424.224123	-424.216073	-424.215129	-424.256344	32.458	
C	-0.0507702315	 1.5747818894	-0.2269361603	-0.42899
C	 0.2057307731	 0.0790803648	-0.139027041	 0.124366
O	 1.1972966142	-0.3233822578	-1.1042413387	-0.278833
C	 1.4656961443	-1.699408265	-0.8149477915	-0.103489
C	 1.4492024321	-1.8344569021	 0.7212871895	-0.041462
C	 2.7459805506	-1.3961788315	 1.4468438988	-0.258297
C	 2.1555737521	 0.0279596392	 1.6582784865	 0.129224
O	 2.762904376	 1.0484938111	 0.8993963411	-0.433111
C	 0.7543287475	-0.5014979634	 1.1645565315	-0.077525
H	-0.338899352	 1.8458387109	-1.246776896	 0.12295
H	-0.8773696847	 1.8409351012	 0.4395543626	 0.115572
H	 0.8270905109	 2.150339002	 0.0665731167	 0.147866
H	-0.7330234652	-0.4538396989	-0.3743271181	 0.069259
H	 0.6817707008	-2.3285830045	-1.263282863	 0.095284
H	 2.4238019594	-1.9575458218	-1.2746556922	 0.109091
H	 1.0100317839	-2.7804964634	 1.0418470786	 0.070304
H	 2.9175306938	-1.9360480753	 2.3819189736	 0.100016
H	 3.6684214082	-1.4183097937	 0.8578630655	 0.09819
H	 2.1626766576	 0.3810042963	 2.6922361936	 0.085763
H	 2.6654900647	 0.7995260564	-0.0311780747	 0.286279
H	 0.0044386541	-0.578292024	 1.9539796476	 0.067543
98.2107	202.4512	219.94	236.8895	285.2454	356.0636	402.3456	430.5205	537.7716	592.4277	605.0458	708.9649	758.1301	776.958	837.5209	854.7414	898.8673	909.1041	955.1013	963.4559	1008.4659	1028.9026	1040.8291	1073.7012	1113.4701	1123.6433	1144.7971	1164.2821	1182.3505	1229.8516	1240.4641	1259.1758	1270.2168	1287.112	1328.1307	1339.6752	1349.9609	1385.1129	1393.6925	1414.0459	1454.3563	1470.8178	1489.2977	1508.9398	1513.1414	2937.8654	2988.3717	3047.2542	3049.1585	3076.2628	3087.8072	3090.9572	3098.5404	3108.3574	3111.8509	3157.3836	3722.9521
CC1OCC2CC(O)C12	C[C@H]1OC[C@H]2C[C@@H](O)[C@@H]12	
InChI=1S/C7H12O2/c1-4-7-5(3-9-4)2-6(7)8/h4-8H,2-3H2,1H3	InChI=1S/C7H12O2/c1-4-7-5(3-9-4)2-6(7)8/h4-8H,2-3H2,1H3/t4-,5-,6-,7+/m1/s1
