20
gdb 36776	5.99894	0.55265	0.52785	3.13	79.89	-0.2527	0.0317	0.2844	2014.2085	0.170857	-403.14458	-403.134982	-403.134037	-403.18102	33.216	
N	-0.0811635325	-1.1626351467	-0.1881015678	-0.302367
C	-0.0689611245	-0.0112729684	-0.0905536344	 0.256684
C	-0.0274472377	 1.4442249321	 0.0319882146	-0.341392
C	 1.4096112303	 2.0018434545	 0.0051866615	-0.182235
C	 1.4373681934	 3.5276892857	 0.142798251	-0.215395
C	 2.8485130982	 4.1015149259	 0.0994992418	-0.030314
C	 3.5600601182	 4.1518578056	-1.2745621991	-0.075095
O	 3.6706483096	 5.5873797973	-1.2189048268	-0.268587
C	 2.9826571804	 5.6406652829	 0.0462023093	-0.090234
H	-0.6180910793	 1.8784874636	-0.7832675201	 0.153654
H	-0.5271002352	 1.7284122808	 0.965697355	 0.152737
H	 1.9870187529	 1.5419024977	 0.8151383134	 0.123075
H	 1.8910563273	 1.6980386024	-0.9312539036	 0.125958
H	 0.8387041585	 3.9818313552	-0.6590792685	 0.105208
H	 0.9573747807	 3.8182938169	 1.0874964982	 0.103409
H	 3.4635414028	 3.6462969374	 0.8812387625	 0.083012
H	 4.541327776	 3.6660026329	-1.333870595	 0.105557
H	 2.9499220666	 3.8201803455	-2.1267178229	 0.095834
H	 2.0316953085	 6.1867203667	-0.0250393045	 0.097215
H	 3.5967613559	 6.1010963121	 0.8295912555	 0.103275
43.4372	51.9114	88.3586	101.9217	139.0576	207.2763	283.548	379.115	399.8677	421.4439	559.327	738.5219	764.0385	839.6874	874.5288	893.9876	944.3109	975.9055	977.8074	1011.4655	1039.5583	1049.1627	1092.3253	1117.0566	1144.587	1160.1177	1165.9915	1221.0289	1249.8338	1278.2393	1302.4772	1313.7981	1330.1231	1340.4063	1372.4174	1395.1701	1406.6187	1468.6199	1483.4275	1502.8395	1513.7606	1538.7395	2363.038	2995.3534	3002.9056	3009.9941	3034.9989	3037.022	3044.6308	3045.5629	3048.4998	3067.4475	3073.7449	3092.5537
N#CCCCC1COC1	N#CCCCC1COC1	
InChI=1S/C7H11NO/c8-4-2-1-3-7-5-9-6-7/h7H,1-3,5-6H2	InChI=1S/C7H11NO/c8-4-2-1-3-7-5-9-6-7/h7H,1-3,5-6H2
