23
gdb 107789	2.43812	1.55314	1.24082	0.2975	88.5	-0.241	0.0798	0.3208	1152.8173	0.205902	-351.116113	-351.107268	-351.106324	-351.149272	35.08	
C	-0.1435196452	 1.5274040644	 0.0668741059	-0.384179
C	-0.010479325	-0.0010116826	 0.0291265557	-0.306057
C	 0.694455111	-0.5284404367	-1.1988009893	 0.330087
C	 0.0821107811	-0.3492861024	-2.6225003078	-0.279054
C	 0.8211653858	-1.6310577809	-2.9922312911	-0.067831
C	 2.1618895939	-1.6364655265	-2.2362540041	-0.073624
C	 0.8932096999	-2.0665129235	-1.5493362012	-0.149496
C	 2.2433445434	-0.3511525539	-1.4159087013	-0.003314
C	 2.8487011632	 0.9113300665	-2.0212150657	-0.428057
H	 0.8352185956	 2.0157608309	 0.0986005062	 0.121856
H	-0.672280798	 1.901213097	-0.8162786048	 0.119779
H	-0.7029816391	 1.849103433	 0.9507461216	 0.11098
H	 0.5205724005	-0.3460244545	 0.9264581807	 0.093156
H	-1.0116050437	-0.4504119923	 0.0787923678	 0.094149
H	-0.999990248	-0.514895306	-2.5994908693	 0.092058
H	 0.2923633349	 0.5756949545	-3.1708919886	 0.085045
H	 0.6766488704	-2.258811143	-3.8625465909	 0.079641
H	 2.9777629445	-2.2678828917	-2.5672432407	 0.075958
H	 0.6132034871	-2.9816069069	-1.0475433449	 0.083148
H	 2.7376204202	-0.5749174553	-0.461756864	 0.063483
H	 2.3967183785	 1.1658521178	-2.9838776661	 0.117611
H	 2.7383398397	 1.7746586673	-1.3563585425	 0.1134
H	 3.9217026992	 0.7681856847	-2.1945194954	 0.111261
80.4884	144.7622	183.6221	211.0968	233.3597	279.9974	330.0281	354.8569	476.1909	553.8936	623.7566	680.9244	743.8577	774.5033	794.4739	797.4822	844.4602	901.6994	919.9917	925.408	974.9724	989.2246	996.2638	1016.9715	1030.9135	1033.4915	1073.6814	1103.0305	1110.3324	1125.401	1142.8082	1169.5319	1193.6478	1217.4968	1243.6472	1283.4245	1307.2995	1328.8348	1364.1619	1377.9428	1392.207	1404.7907	1412.6056	1483.6792	1486.4239	1492.534	1500.1157	1507.6273	1510.4477	3008.9326	3020.5695	3028.6545	3033.0954	3037.0329	3039.676	3080.7279	3088.3317	3102.8817	3108.0329	3112.2708	3181.358	3191.6899	3218.8379
CCC12CC3C(C13)C2C	CC[C@]12C[C@H]3[C@H]([C@@H]13)[C@H]2C	
InChI=1S/C9H14/c1-3-9-4-6-7(5(9)2)8(6)9/h5-8H,3-4H2,1-2H3	InChI=1S/C9H14/c1-3-9-4-6-7(5(9)2)8(6)9/h5-8H,3-4H2,1-2H3/t5-,6+,7-,8+,9-/m1/s1
