20
gdb 8881	3.62888	1.08255	0.97654	3.0215	71.93	-0.2611	-0.023	0.2381	1284.5736	0.174404	-386.165699	-386.155785	-386.15484	-386.201274	34.907	
C	-0.0425526946	 1.4334681637	 0.2138512973	-0.396547
C	-0.1913343312	-0.0863791949	 0.1061164308	-0.163286
C	-1.6269536824	-0.5582305608	-0.2391992017	-0.07265
C	-2.0747881151	-0.1369466021	-1.6465506494	-0.394099
C	-1.6623742816	-2.0720879948	-0.1085117506	 0.36345
O	-1.1742693788	-2.8150141682	-0.936111586	-0.343462
C	-2.3172874386	-2.6748956507	 1.124926749	-0.139098
O	-2.1970664763	-4.0636953318	 1.1443875579	-0.420087
H	 0.9777810359	 1.6984860358	 0.507203354	 0.120799
H	-0.2509137284	 1.9343370838	-0.7359317477	 0.124946
H	-0.7228624013	 1.8466597129	 0.9668129319	 0.116867
H	 0.4913804069	-0.4838844619	-0.6536500623	 0.120138
H	 0.1121531342	-0.5406774023	 1.0579840369	 0.101626
H	-2.3130888206	-0.135533068	 0.5073649726	 0.078366
H	-1.4232198368	-0.5883630887	-2.3993380464	 0.141264
H	-3.0986139178	-0.4662818163	-1.8490896381	 0.119666
H	-2.0465008285	 0.9492355921	-1.7611597788	 0.119424
H	-1.8631147724	-2.2178215816	 2.020328995	 0.114737
H	-3.3750399488	-2.3557615402	 1.1267598517	 0.114426
H	-1.748943784	-4.2831079057	 0.3107319039	 0.293518
28.3757	82.7768	111.8029	189.5912	208.0209	212.314	263.5396	285.1575	333.7238	357.0111	444.712	467.499	561.3774	697.0835	775.0467	828.8281	850.3347	960.5324	981.5555	1004.5386	1036.9215	1065.5108	1107.0328	1131.8723	1150.4322	1196.1911	1240.9921	1289.4733	1305.0041	1335.095	1362.3659	1386.8264	1406.4775	1414.456	1451.8378	1484.287	1487.5883	1493.0277	1498.7019	1506.5416	1510.7084	1790.7873	2955.8212	2978.8553	3015.0901	3024.4765	3036.1187	3047.3812	3067.9745	3103.6475	3110.3349	3115.8147	3132.0068	3671.0617
CCC(C)C(=O)CO	CC[C@@H](C)C(=O)CO	
InChI=1S/C6H12O2/c1-3-5(2)6(8)4-7/h5,7H,3-4H2,1-2H3	InChI=1S/C6H12O2/c1-3-5(2)6(8)4-7/h5,7H,3-4H2,1-2H3/t5-/m1/s1
