18
gdb 46710	3.18274	1.70379	1.28592	3.3935	78.03	-0.2503	0.0265	0.2768	991.2865	0.151241	-401.921351	-401.914674	-401.91373	-401.952511	27.107	
N	-0.0533971061	 1.2880591414	-0.3044679818	-0.527242
C	-0.0029434336	 0.0691977601	 0.0415153407	 0.373379
O	 1.1615373885	-0.5177782802	 0.4334394852	-0.259999
C	 1.148202653	-1.9010204914	 0.8115621431	-0.116047
C	-0.2150049043	-2.5478033423	 0.7207422841	-0.014735
C	-1.0910030735	-2.2411287413	-0.5312129804	-0.066222
C	-2.3313767612	-2.6164173048	 0.3219268168	-0.238756
C	-1.4431478896	-1.7495031367	 1.2529110127	-0.066219
C	-1.2242622697	-0.7882873539	 0.0366960855	-0.056129
H	 0.8762350945	 1.7090717297	-0.2369173014	 0.214389
H	 1.8630842483	-2.4211425258	 0.1612615315	 0.115589
H	 1.5324053829	-1.9595473633	 1.8379249457	 0.115598
H	-0.16133244	-3.5993485867	 1.0210860876	 0.074044
H	-0.8817283356	-2.5142432558	-1.5662831731	 0.082146
H	-3.2840952565	-2.1789445762	 0.0133347663	 0.100595
H	-2.4386097736	-3.6708755486	 0.59132199	 0.094075
H	-1.6416396164	-1.4533438175	 2.2837589618	 0.082148
H	-2.0857115072	-0.2082900464	-0.2931731244	 0.093386
103.2761	170.376	311.7772	363.0233	467.6763	484.2988	567.4133	661.1615	726.7745	789.1976	809.2843	846.787	885.7535	901.5309	910.2634	912.2453	969.3846	1003.1324	1019.0837	1028.3517	1068.3834	1081.8099	1095.0081	1121.5603	1137.5754	1173.5811	1181.5135	1209.0746	1231.115	1243.6629	1255.5001	1285.1173	1326.0751	1332.7988	1394.9588	1444.4427	1514.2238	1517.6138	1747.2772	3016.8717	3050.749	3051.6334	3061.7451	3104.6969	3107.4527	3118.7647	3127.0574	3455.9309
N=C1OCC2C3CC2C13	[NH][C]1OC[C@@H]2[C@H]3C[C@@H]2[C@@H]13	
InChI=1S/C7H9NO/c8-7-6-3-1-4(6)5(3)2-9-7/h3-6,8H,1-2H2	InChI=1S/C7H9NO/c8-7-6-3-1-4(6)5(3)2-9-7/h3-6,8H,1-2H2/t3-,4+,5-,6+
