18
gdb 17659	3.3044	1.7446	1.46968	2.9867	66.87	-0.2449	0.0715	0.3164	921.8037	0.153007	-384.892893	-384.884939	-384.883995	-384.925409	29.208	
C	 0.0145683548	 1.6598853802	 0.2337474549	-0.460019
C	-0.0335042383	 0.1505773025	 0.0011670634	 0.25731
C	 0.9199897365	-0.354113478	-1.1114375362	-0.12234
O	 1.8359324898	-0.8990808178	-0.1412379659	-0.273244
C	 0.909316534	-0.6588976776	 0.9340100365	-0.109858
C	-1.4624482827	-0.3333148584	-0.0463746491	 0.021244
C	-2.2120009337	-0.5097784669	-1.2961301856	-0.187695
O	-1.7054934331	-1.6368935382	-0.5754217061	-0.235715
H	 1.0502274173	 2.004886089	 0.3074259204	 0.130878
H	-0.4676567251	 2.2021219932	-0.5869948356	 0.119466
H	-0.4973884773	 1.9339181831	 1.1634382054	 0.11842
H	 0.4950032651	-1.1391214534	-1.7477958593	 0.112044
H	 1.3880926628	 0.4181279851	-1.7335388298	 0.095753
H	 1.3684017568	-0.1044578683	 1.7616663566	 0.097251
H	 0.4751042524	-1.592315139	 1.3150081509	 0.108079
H	-2.0399892803	-0.1123736363	 0.8548273212	 0.092534
H	-3.2957185683	-0.4056366787	-1.2996656693	 0.120274
H	-1.7248295107	-0.3106572407	-2.2499740926	 0.115618
87.7547	93.8485	202.2101	232.8818	250.7943	310.7894	351.9458	464.4715	512.9834	626.4767	835.6015	855.415	881.0075	917.5345	937.7346	944.4866	966.3264	1012.9187	1040.6216	1047.6158	1096.961	1156.8692	1163.717	1171.806	1176.9402	1183.338	1239.3694	1278.1614	1308.5198	1318.0367	1384.2294	1412.3841	1435.9332	1492.7743	1495.8507	1504.5445	1524.2168	1534.3405	3006.416	3019.8387	3027.3957	3056.5056	3067.9906	3076.9168	3085.4972	3092.4208	3107.269	3170.7939
CC1(COC1)C1CO1	CC1(COC1)[C@H]1CO1	
InChI=1S/C6H10O2/c1-6(3-7-4-6)5-2-8-5/h5H,2-4H2,1H3	InChI=1S/C6H10O2/c1-6(3-7-4-6)5-2-8-5/h5H,2-4H2,1H3/t5-/m1/s1
