20
gdb 16067	3.05956	1.66243	1.37591	1.8099	74.7	-0.228	0.0738	0.3018	1014.0643	0.176291	-348.967883	-348.959392	-348.958448	-349.000784	31.716	
C	-0.208908763	 1.5441954624	 0.0399370345	-0.371683
C	 0.095495819	 0.042559367	-0.0651282603	-0.297633
C	 0.7824169668	-0.5052331866	 1.1547453921	 0.274446
C	 2.268900621	-0.3363217319	 1.4772953335	-0.137302
O	 2.3494701613	-1.6746383046	 2.0348164115	-0.286083
C	 0.9857028384	-1.9159944966	 1.6715549511	 0.017578
C	 0.0568623719	-0.9912489529	 2.4055892056	-0.075282
C	 0.3082557043	-0.5097743872	 3.8169720179	-0.423171
H	 0.7089736997	 2.1265019918	 0.1754293901	 0.117212
H	-0.7043456111	 1.9112116659	-0.8641988085	 0.112397
H	-0.8624885778	 1.7530700284	 0.8930608191	 0.120068
H	-0.8386880738	-0.508656916	-0.2299489361	 0.098789
H	 0.7191645785	-0.1431704914	-0.9501802492	 0.09793
H	 2.8928153256	-0.2603191094	 0.5779912203	 0.10366
H	 2.5661497736	 0.436103975	 2.1964112032	 0.101893
H	 0.7379236648	-2.8943601377	 1.2733038036	 0.097826
H	-0.9868156414	-1.2041898688	 2.1755318473	 0.083131
H	 1.3768840568	-0.5139423322	 4.0441347768	 0.136666
H	-0.0771388417	 0.5034411095	 3.9739096072	 0.112701
H	-0.1824602631	-1.1692668347	 4.5408124304	 0.116859
72.9406	135.009	164.441	215.5428	255.4089	270.7142	329.0877	353.4793	454.598	582.2529	655.986	755.3566	782.1272	787.4695	895.6342	933.2068	969.9378	981.7174	999.3722	1011.4736	1025.0336	1065.32	1087.8464	1111.548	1118.9615	1156.6184	1168.1016	1232.2319	1271.3811	1278.1261	1333.9764	1352.7165	1363.1537	1409.0869	1410.9631	1468.011	1481.0266	1493.2003	1499.1017	1504.8992	1506.6924	1521.3238	3011.5348	3016.5478	3032.9509	3035.0461	3048.7167	3063.4381	3090.8664	3101.1476	3107.0344	3113.1107	3130.0896	3167.2284
CCC12COC1C2C	CC[C@]12CO[C@H]1[C@H]2C	
InChI=1S/C7H12O/c1-3-7-4-8-6(7)5(7)2/h5-6H,3-4H2,1-2H3	InChI=1S/C7H12O/c1-3-7-4-8-6(7)5(7)2/h5-6H,3-4H2,1-2H3/t5-,6+,7-/m1/s1
