23
gdb 108314	2.76405	1.29974	1.07216	1.456	85.42	-0.2336	0.0777	0.3113	1265.2303	0.20508	-388.276084	-388.266682	-388.265738	-388.310238	36.032	
C	 0.0433822139	 1.5440304163	 0.005989508	-0.381264
C	-0.1575504384	 0.0265191496	-0.0892359173	-0.27153
C	 0.6700451776	-0.5899450052	-1.192306685	 0.489275
C	 0.308607663	-0.339420637	-2.6819820855	-0.272249
C	 0.4799402933	-1.8650259771	-2.9656985162	-0.232836
C	 0.8487463177	-2.1130107781	-1.4791960199	-0.177057
C	 2.3192393165	-1.8706466403	-1.075272935	 0.156576
C	 3.4686875548	-2.2246679205	-1.9964150054	-0.411157
O	 2.0981612838	-0.4378188815	-0.970879097	-0.355677
H	 1.0993834784	 1.7761544964	 0.168958186	 0.137563
H	-0.2737431589	 2.046455212	-0.9142227096	 0.115631
H	-0.5338796716	 1.9667785447	 0.8334594517	 0.10915
H	 0.1177675312	-0.4443492368	 0.8626268274	 0.097338
H	-1.2150527328	-0.2077352037	-0.2663155456	 0.091693
H	-0.709095596	 0.0279407373	-2.8434812375	 0.095554
H	 1.0109767409	 0.325649125	-3.1883432962	 0.106576
H	-0.455710291	-2.3534653227	-3.2473312015	 0.102058
H	 1.2351371359	-2.1404972936	-3.705308811	 0.100744
H	 0.3160255425	-2.9038075228	-0.9504002697	 0.066961
H	 2.5184010007	-2.2837729371	-0.0747858244	 0.070452
H	 3.3171026138	-1.8279938356	-3.003767143	 0.12151
H	 4.4004975436	-1.8026744772	-1.6064277139	 0.126382
H	 3.5887635309	-3.3118081623	-2.0606707296	 0.114307
64.9232	99.3607	152.326	204.1345	220.6502	264.173	302.2532	331.9457	385.5539	426.2181	521.5935	631.1952	652.3639	732.1773	781.8763	789.7886	860.0352	897.4109	929.1061	942.7417	950.3777	979.3478	993.5266	1014.6022	1047.3103	1083.4118	1112.6404	1122.452	1157.8754	1164.4315	1192.68	1216.87	1235.7723	1264.899	1289.424	1313.0169	1321.1144	1332.6436	1373.9062	1391.2056	1406.8263	1408.5397	1462.7243	1477.1052	1479.7112	1484.659	1499.0321	1505.1718	1510.3759	2978.1327	3021.3956	3036.0216	3038.8285	3054.6677	3058.172	3067.919	3100.5766	3104.1831	3104.5622	3108.4696	3118.3423	3121.3097	3125.4819
CCC12CCC1C(C)O2	CC[C@]12CC[C@H]1[C@@H](C)O2	
InChI=1S/C8H14O/c1-3-8-5-4-7(8)6(2)9-8/h6-7H,3-5H2,1-2H3	InChI=1S/C8H14O/c1-3-8-5-4-7(8)6(2)9-8/h6-7H,3-5H2,1-2H3/t6-,7+,8+/m1/s1
