16
gdb 28257	4.63107	1.24229	0.99923	0.8917	71.	-0.2068	0.0304	0.2372	1140.1114	0.127339	-437.929191	-437.922035	-437.92109	-437.960962	27.426	
O	-0.1228857314	 1.2462742818	 0.0490884618	-0.397769
C	 0.0612183756	-0.0712299658	 0.0043003295	 0.431533
N	 1.180366195	-0.7267978649	-0.0217390093	-0.467161
C	 0.7356005199	-2.0495895283	-0.0832695439	 0.244784
C	-0.6030713807	-2.0889128056	-0.0887650693	 0.292293
C	-1.2325860882	-3.4314738089	-0.070776219	-0.350429
C	 0.0562813379	-4.3099385219	-0.3044480893	-0.197548
C	 1.3345677826	-3.4187907099	-0.07582266	-0.345199
O	-1.081193321	-0.794724434	-0.0257375146	-0.217345
H	 0.756737316	 1.6450805521	 0.0595888501	 0.322179
H	-1.71785565	-3.6595462493	 0.8873895509	 0.11556
H	-1.9807450381	-3.5964422849	-0.8536937064	 0.115961
H	 0.0574473597	-5.1896083261	 0.3426582993	 0.107889
H	 0.0524696218	-4.6708815913	-1.3358968913	 0.116723
H	 2.0827710555	-3.5814148963	-0.8584819625	 0.11451
H	 1.8239371155	-3.6447666267	 0.879866144	 0.114019
98.2558	152.0546	244.4956	309.7063	326.0006	435.4347	522.6888	539.6559	657.5619	700.7675	722.2304	743.3646	787.673	847.9529	890.3839	920.7149	985.0542	991.2419	1063.1781	1101.4734	1156.5352	1184.2732	1204.6643	1229.6674	1262.1928	1279.0256	1305.3994	1359.5891	1393.0253	1478.5744	1485.0916	1502.5235	1516.1616	1637.6362	1707.5678	3015.3601	3026.3091	3053.1871	3062.7335	3073.6128	3115.7687	3806.702
OC1=NC2=C(CCC2)O1	Oc1nc2c(CCC2)o1	
InChI=1S/C6H7NO2/c8-6-7-4-2-1-3-5(4)9-6/h1-3H2,(H,7,8)	InChI=1S/C6H7NO2/c8-6-7-4-2-1-3-5(4)9-6/h1-3H2,(H,7,8)
