15
gdb 20202	3.9169	2.71225	2.06205	3.3097	64.05	-0.2478	-0.026	0.2217	680.8877	0.121588	-362.599208	-362.593747	-362.592803	-362.628439	22.634	
C	 0.0653891015	 1.5880331241	 0.0611625267	-0.090984
O	 1.4882506764	 1.9700482474	 0.0569006075	-0.257285
C	 1.9256238688	 0.8411208626	 0.7113655332	 0.262613
N	 1.9869412999	 0.7718061326	 1.9777601252	-0.210486
C	 1.4055613382	-0.5446933334	 2.3300643301	-0.183377
C	 0.6776859833	-0.9874257762	 1.0507805617	-0.064845
C	 0.0301320546	 0.0253331824	 0.0266761616	-0.097629
C	 1.4576256323	-0.3889231112	-0.0628742322	-0.141744
H	-0.3989772914	 2.0256064966	 0.9497395955	 0.127294
H	-0.3839807548	 1.9978532685	-0.8470161432	 0.123406
H	 2.1504289003	-1.2950347966	 2.6292201079	 0.113899
H	 0.7472327645	-0.375647448	 3.1890924178	 0.122027
H	 0.2804917734	-1.9958572123	 0.9861340428	 0.091882
H	-0.729993576	-0.4206473566	-0.6065188322	 0.101818
H	 1.9919525088	-0.84416403	-0.8862071124	 0.103411
229.4314	304.0605	413.3023	517.2433	612.543	652.9201	694.6873	763.6307	788.6184	832.3877	850.6915	898.2283	925.0251	952.1934	985.3294	1003.2133	1009.907	1046.7301	1065.2075	1103.11	1126.0856	1149.9331	1205.1289	1215.4303	1270.4197	1305.1925	1316.7751	1334.5038	1385.0861	1483.5105	1492.3799	1662.3789	3015.0027	3052.2614	3067.7217	3114.7664	3159.6732	3168.2552	3198.0457
C1OC2=NCC3C1C23	C1O[C]2[N]C[C@H]3[C@@H]1[C@@H]23	
InChI=1S/C6H7NO/c1-3-4-2-8-6(7-1)5(3)4/h3-5H,1-2H2	InChI=1S/C6H7NO/c1-3-4-2-8-6(7-1)5(3)4/h3-5H,1-2H2/t3-,4+,5-/m0/s1
