18
gdb 99330	4.77308	0.69054	0.62835	4.0126	74.15	-0.2479	-0.0009	0.247	1784.913	0.144365	-476.240625	-476.23019	-476.229246	-476.277665	34.69	
C	 0.4496626217	 1.3366042248	 0.6151029447	-0.241938
O	 0.2231376303	-0.035821224	 0.2567551053	-0.228897
C	 0.5103499376	-0.9362731866	 1.2110413462	 0.435408
O	 0.9166574973	-0.6706236578	 2.3105512219	-0.340074
C	 0.2785166897	-2.346749841	 0.6754540246	-0.224728
O	 0.2017367415	-3.3071587992	 1.6994554866	-0.186434
C	 1.3675985529	-3.6344367047	 2.3124394102	 0.155113
N	 1.369977549	-4.4553267651	 3.2605466801	-0.208587
C	 2.6475741556	-4.7821045689	 3.8573224482	-0.313935
H	 1.500047593	 1.4978903509	 0.8694308006	 0.144739
H	 0.1733631542	 1.920717054	-0.2621508584	 0.139648
H	-0.168285776	 1.6140870936	 1.4721704075	 0.149193
H	-0.6690539897	-2.380056219	 0.1344527714	 0.15438
H	 1.0771563888	-2.5738870848	-0.0461101457	 0.135968
H	 2.2564552362	-3.1405806891	 1.8939200756	 0.077397
H	 2.8189483429	-5.8625351023	 3.789996868	 0.126182
H	 3.5051498179	-4.2658802552	 3.3953323799	 0.095879
H	 2.6291290273	-4.5284029657	 4.9231777133	 0.130686
38.5942	57.8019	95.877	111.1717	157.2792	199.0638	219.733	226.2181	294.3547	338.647	369.8004	459.2565	575.0936	605.8584	722.0815	901.1559	966.6791	999.2816	1023.2645	1060.0984	1090.8021	1141.6078	1163.9254	1178.5296	1198.3439	1214.3551	1253.5379	1307.322	1393.6652	1413.0326	1450.6434	1470.5594	1475.6551	1480.5059	1482.2397	1496.7949	1505.3555	1787.1923	1840.419	2968.0132	3004.7489	3016.0672	3055.9352	3059.3003	3079.4333	3120.7306	3132.8544	3165.8106
COC(=O)COC=NC	COC(=O)COC=NC	
InChI=1S/C5H9NO3/c1-6-4-9-3-5(7)8-2/h4H,3H2,1-2H3	InChI=1S/C5H9NO3/c1-6-4-9-3-5(7)8-2/h4H,3H2,1-2H3
