16
gdb 27581	3.3803	1.20477	0.88892	2.0613	91.67	-0.2057	-0.022	0.1837	1250.6023	0.125737	-363.652226	-363.644316	-363.643372	-363.684277	31.419	
N	-0.0165807747	 1.4119708303	 0.1455117165	-0.596448
C	 0.0092983833	 0.0208072383	 0.0476142623	 0.345246
C	-1.1803560522	-0.7147029399	 0.0402958491	-0.29345
C	-1.1615562179	-2.11450565	 0.0039743198	 0.188194
C	 0.0664738582	-2.7939275588	-0.026832535	-0.237392
C	 1.2472230276	-2.0613263203	-0.020999607	-0.076881
C	 1.2285857073	-0.67218679	 0.0151234287	-0.188623
C	-2.3882063593	-2.8416970766	-0.0037788539	 0.219454
C	-3.4234912109	-3.4572912412	-0.0114135275	-0.417219
H	 0.8017002094	 1.8784912471	-0.2176855532	 0.246944
H	-0.8661833249	 1.8457952963	-0.1850002747	 0.247928
H	-2.1348709817	-0.1992135618	 0.0664040008	 0.090925
H	 0.0795974116	-3.8762211616	-0.0566224096	 0.099996
H	 2.2007005755	-2.5788553131	-0.0472579741	 0.096552
H	 2.1602964962	-0.1141468571	 0.0224605838	 0.085038
H	-4.3344292476	-4.0020405319	-0.0169869861	 0.189735
138.8474	143.3814	223.5694	309.3919	369.1888	374.516	468.4511	470.5673	537.7902	551.9933	573.6655	593.6665	637.1721	652.9255	708.2951	733.5008	800.8537	877.2493	886.9539	950.8261	956.7296	1006.4209	1089.8095	1135.5908	1182.3363	1194.8989	1313.4778	1337.2637	1350.5781	1478.6473	1522.3462	1617.4571	1641.5124	1660.8303	2225.6746	3164.5109	3179.9602	3184.3612	3211.4957	3505.8186	3565.3639	3664.0609
NC1=CC(=CC=C1)C#C	Nc1cc(ccc1)C#C	
InChI=1S/C8H7N/c1-2-7-4-3-5-8(9)6-7/h1,3-6H,9H2	InChI=1S/C8H7N/c1-2-7-4-3-5-8(9)6-7/h1,3-6H,9H2
