23
gdb 94999	2.78855	1.62823	1.31725	0.2093	88.69	-0.2777	0.0839	0.3615	1086.1129	0.209511	-351.129199	-351.121696	-351.120752	-351.160681	31.643	
C	-0.2308050737	 1.5641272308	 0.0287963578	-0.389546
C	 0.0053767562	 0.0479829289	-0.045459546	-0.016996
C	 0.7669617877	-0.3787956543	-1.3155564	-0.210178
C	 2.2860847588	-0.2614393383	-1.1211255117	-0.250769
C	 2.6866401187	-0.7360223059	 0.2742121942	 0.041259
C	 1.7176171392	-1.6846708964	 1.0647672535	-0.086781
C	 2.4056892718	-1.1872768687	 2.3624172989	-0.236341
C	 2.1828193573	 0.0836623222	 1.5019623582	-0.051607
C	 0.7485392865	-0.4589375793	 1.1945898385	 0.039066
H	 0.71209284	 2.120130273	-0.0133281083	 0.115345
H	-0.8557829372	 1.9053508308	-0.8032515247	 0.107649
H	-0.7339130162	 1.8422274766	 0.9615040138	 0.109175
H	-0.9799218416	-0.4367714427	-0.0637672116	 0.064073
H	 0.5293476802	-1.428910775	-1.5233072766	 0.09487
H	 0.4314165064	 0.1940658436	-2.1871801664	 0.084487
H	 2.804463017	-0.8513564722	-1.8857150496	 0.091894
H	 2.6234424893	 0.7747375944	-1.2580569538	 0.095463
H	 3.7434775533	-1.0190037875	 0.3292242115	 0.054412
H	 1.4501906889	-2.7145636783	 0.8176242221	 0.061902
H	 1.8228472885	-1.2633051103	 3.2849776805	 0.084126
H	 3.4435013277	-1.4972844875	 2.5161069284	 0.08402
H	 2.4590526257	 1.1089638321	 1.7586196746	 0.060525
H	 0.0908951853	-0.4900842262	 2.0711590967	 0.053952
140.2712	189.8492	240.2949	304.4711	340.3751	426.6762	439.8561	496.4973	580.0569	687.7815	763.6519	784.4914	806.7521	828.442	871.2272	891.0277	905.3316	937.5865	969.7452	994.4435	1008.5008	1024.6056	1037.8611	1061.9544	1067.815	1076.9833	1100.7118	1123.4618	1147.1789	1171.1572	1180.2589	1210.6064	1215.0632	1227.2283	1246.2692	1264.9785	1271.7915	1329.9911	1353.9139	1363.4066	1369.1744	1388.1555	1411.3314	1422.8845	1485.6384	1497.5237	1501.8735	1504.2141	1518.0208	3002.261	3015.6597	3026.1975	3028.3233	3036.0889	3040.971	3043.6557	3056.4024	3069.0892	3079.7346	3087.3937	3093.5026	3097.3426	3106.8051
CC1CCC2C3CC2C13	C[C@H]1CC[C@@H]2[C@H]3C[C@@H]2[C@@H]13	
InChI=1S/C9H14/c1-5-2-3-6-7-4-8(6)9(5)7/h5-9H,2-4H2,1H3	InChI=1S/C9H14/c1-5-2-3-6-7-4-8(6)9(5)7/h5-9H,2-4H2,1H3/t5-,6-,7-,8+,9+/m0/s1
