19
gdb 85610	2.23337	1.63933	0.99592	3.3462	78.24	-0.2324	0.0106	0.243	1192.3891	0.161967	-419.251691	-419.243208	-419.242264	-419.285134	32.197	
C	-0.951710392	 1.1605983646	 0.1310861019	-0.413213
C	 0.1924626592	 0.148355186	-0.0138410814	-0.004223
N	 0.8963196375	 0.4452839535	-1.2697153279	-0.332841
C	 1.8082384708	-0.4119733035	-1.8659668492	 0.378308
O	 1.8348066808	-0.5975911396	-3.0703198083	-0.39535
N	 2.6871564066	-1.0449885817	-1.0015844325	-0.325976
C	 3.3121466495	-0.3772239765	 0.138987365	-0.222141
C	 2.3896799047	-0.0108483213	 1.2668935379	-0.062257
C	 1.0789805489	 0.1935108826	 1.206654631	-0.013473
H	-0.5575004827	 2.1794565215	 0.1953005221	 0.133804
H	-1.6340544803	 1.1037944205	-0.7233963327	 0.119568
H	-1.530950817	 0.9544197405	 1.0349828042	 0.125167
H	-0.2590366782	-0.8572936531	-0.068413491	 0.099388
H	 0.28069642	 0.8031169165	-1.9878594917	 0.241415
H	 3.334268793	-1.5988494673	-1.5453731058	 0.246278
H	 4.0608162542	-1.0750532917	 0.5297570388	 0.118656
H	 3.8727276329	 0.5199564308	-0.1759509151	 0.122911
H	 2.8860063392	 0.0967318646	 2.228630703	 0.094403
H	 0.5511538327	 0.4150884536	 2.1314746415	 0.089577
52.296	129.3881	179.1177	239.9668	286.2606	316.5257	362.4818	381.4275	494.4673	547.8657	600.2882	664.9953	681.1356	762.6382	810.9854	832.5438	842.1459	894.6523	930.5388	997.131	1007.7312	1031.3933	1058.424	1107.8488	1155.3023	1193.9827	1257.3226	1282.7725	1309.6076	1333.5433	1383.7384	1403.5125	1410.9943	1442.0691	1465.1588	1473.9941	1497.7454	1500.7297	1503.3948	1752.2091	1798.3016	2946.0285	2954.0595	3037.6763	3057.0766	3108.5609	3121.9828	3141.2795	3164.2388	3588.1297	3599.7166
CC1NC(=O)NCC=C1	C[C@H]1NC(=O)NCC=C1	
InChI=1S/C6H10N2O/c1-5-3-2-4-7-6(9)8-5/h2-3,5H,4H2,1H3,(H2,7,8,9)	InChI=1S/C6H10N2O/c1-5-3-2-4-7-6(9)8-5/h2-3,5H,4H2,1H3,(H2,7,8,9)/t5-/m1/s1
