15
gdb 49192	3.61625	1.37848	1.26	4.1703	68.09	-0.2577	-0.073	0.1846	999.6323	0.113722	-457.759089	-457.752279	-457.751335	-457.790617	26.069	
O	-0.0217638838	-0.0261936694	 0.1184748349	-0.268261
C	 0.0044332229	 1.1815506684	 0.0350602749	 0.059737
C	 1.2336767081	 1.9649347778	-0.0489944977	 0.286437
C	 1.3936141496	 3.2980565932	-0.0151711684	-0.192514
C	 2.8981842098	 3.5060363542	-0.0034724435	-0.024909
C	 3.3738418891	 3.0132492569	 1.404534234	-0.079688
O	 3.1551028434	 1.6039060854	 1.3075503892	-0.265435
C	 2.6634870825	 1.4191992144	-0.0376532346	 0.050706
O	 3.3608506311	 2.3909808105	-0.7861312502	-0.231419
H	-0.9316498378	 1.7815102441	 0.006876067	 0.077021
H	 0.6420776054	 4.0662081887	 0.1122237326	 0.131222
H	 3.3054583612	 4.4491782863	-0.3590918246	 0.105921
H	 4.4407308385	 3.2153987661	 1.5426937652	 0.121814
H	 2.8007534942	 3.4403052438	 2.2335467598	 0.111436
H	 2.8512601559	 0.4025084095	-0.3689743285	 0.117931
100.0219	165.0365	217.9601	302.1391	440.4571	488.8424	558.7172	628.287	710.112	774.4144	828.3741	830.1784	862.4115	880.0881	912.793	919.966	981.6001	998.0238	1036.0624	1046.1993	1100.5731	1188.5543	1209.1436	1231.7454	1241.2037	1282.7554	1325.2503	1338.6818	1353.3419	1417.33	1511.6052	1655.0397	1783.0568	2889.4925	3042.0437	3092.8711	3160.6601	3187.2899	3225.7476
O=CC1=CC2COC1O2	O=CC1=C[C@H]2CO[C@@H]1O2	
InChI=1S/C6H6O3/c7-2-4-1-5-3-8-6(4)9-5/h1-2,5-6H,3H2	InChI=1S/C6H6O3/c7-2-4-1-5-3-8-6(4)9-5/h1-2,5-6H,3H2/t5-,6+/m0/s1
