23
gdb 59765	2.49655	1.25134	0.94278	2.2806	81.2	-0.238	0.0654	0.3034	1327.0572	0.205212	-425.437822	-425.427845	-425.426901	-425.47279	37.452	
C	-0.0567282217	 1.6838297231	 0.0336884825	-0.408979
C	-0.0180163264	 0.1579789811	-0.0631043525	 0.11628
O	 0.7343223502	-0.2587588761	-1.2045980073	-0.433457
C	 0.5099929806	-0.5067707556	 1.2118273832	-0.022667
C	-0.3105972163	-0.2628596625	 2.4894263914	-0.254662
C	 0.210523289	-1.3764615216	 3.3991374573	-0.069035
O	 0.5053388015	-2.4776583989	 2.549666844	-0.277601
C	 0.6003229656	-2.0574718641	 1.1783885069	 0.141337
C	-0.4766452423	-2.7728482727	 0.3659537194	-0.402301
H	 0.9382600623	 2.0859718496	 0.2637962935	 0.105389
H	-0.384510062	 2.1083883521	-0.9189599509	 0.125229
H	-0.7417609959	 2.0206215255	 0.8174819485	 0.121187
H	-1.0318424929	-0.2071189714	-0.2627921138	 0.093021
H	 1.6365554977	 0.0616052212	-1.0935195976	 0.275987
H	 1.5259401703	-0.1202738557	 1.3871361799	 0.062495
H	-0.1670684588	 0.7320482187	 2.9173559061	 0.102208
H	-1.3805047048	-0.3946142946	 2.2886910266	 0.106031
H	 1.1197707343	-1.0487557213	 3.9286017567	 0.086552
H	-0.5158738996	-1.6998801242	 4.1527667599	 0.101619
H	 1.5831054841	-2.3676070318	 0.8024746471	 0.073047
H	-1.4823225104	-2.4632284995	 0.6696936743	 0.106527
H	-0.3492307099	-2.5747228187	-0.7011703772	 0.133839
H	-0.3965486044	-3.8498410028	 0.537245142	 0.117955
51.601	92.9173	157.1287	169.0806	242.8318	265.1281	282.0344	293.2288	322.6777	378.8969	415.2711	469.7897	512.6107	610.1298	703.6972	785.7322	861.3017	875.5375	895.7365	952.5544	975.6849	989.6357	1031.5458	1046.9	1061.2724	1096.4013	1107.9985	1139.4835	1164.9709	1177.7685	1197.8991	1230.9051	1259.0239	1308.3286	1316.0371	1328.5479	1348.5625	1385.2518	1389.4347	1401.0318	1402.675	1408.4977	1419.159	1489.1566	1491.5784	1495.8533	1497.7892	1501.7739	1530.0374	2969.9194	2979.8817	3022.583	3025.1217	3037.4719	3039.7255	3050.5317	3060.6318	3098.2312	3104.6148	3109.9379	3121.3898	3130.4126	3796.3295
CC(O)C1CCOC1C	C[C@@H](O)[C@H]1CCO[C@H]1C	
InChI=1S/C7H14O2/c1-5(8)7-3-4-9-6(7)2/h5-8H,3-4H2,1-2H3	InChI=1S/C7H14O2/c1-5(8)7-3-4-9-6(7)2/h5-8H,3-4H2,1-2H3/t5-,6+,7-/m1/s1
