22
gdb 89083	5.47304	0.57209	0.54216	1.6948	90.08	-0.2247	0.059	0.2837	2057.2418	0.191707	-367.151242	-367.140732	-367.139788	-367.187763	38.013	
C	 0.1620682713	 1.5005984252	-0.4896210498	-0.411866
C	 0.0679829042	 0.043670766	-0.0897298301	 0.030913
C	 1.2876530426	-0.7965865319	 0.0844531062	-0.255174
N	 0.4505708349	-0.4576177014	 1.2321884099	-0.08351
C	 0.99872038	 0.449409701	 2.2320928201	-0.142785
C	 1.6639868074	-0.3506998509	 3.353413718	-0.169445
C	 2.2200807477	 0.56085815	 4.4649589197	-0.35567
C	 2.8686310232	-0.1810819362	 5.5391595086	 0.292703
C	 3.3991610971	-0.8144797526	 6.4122209918	-0.436245
H	 1.1064651793	 1.9593749179	-0.1876766421	 0.120428
H	 0.0850401718	 1.5905227072	-1.5783460084	 0.123042
H	-0.6556286209	 2.085043886	-0.0529542845	 0.12264
H	-0.825961172	-0.4506365586	-0.4693941768	 0.089321
H	 1.3018375065	-1.8426740943	-0.2108894516	 0.112841
H	 2.2478895773	-0.2878467964	-0.0093272924	 0.10205
H	 1.7289050521	 1.1664945524	 1.8180386479	 0.079234
H	 0.1700253621	 1.040894298	 2.6429994435	 0.100492
H	 0.9377021933	-1.0511940637	 3.7764179006	 0.121159
H	 2.4791066702	-0.9548431546	 2.9396335823	 0.111617
H	 2.9355494129	 1.2738422086	 4.0333711683	 0.127145
H	 1.4054868469	 1.1677125779	 4.8826791465	 0.128883
H	 3.8688782922	-1.3649193496	 7.1889349123	 0.192226
41.4045	81.4433	85.687	113.4517	153.6999	196.6372	271.4131	315.0903	347.1907	355.8204	438.5178	480.6974	562.8513	614.4184	632.3067	748.1838	754.8155	811.5475	860.6713	905.1824	943.5922	966.4902	1031.5093	1035.3977	1056.0483	1071.3281	1111.6241	1117.0545	1148.6606	1159.212	1189.6111	1224.0793	1268.0387	1303.0878	1320.0984	1339.3726	1363.0262	1397.9144	1409.9441	1423.2562	1473.4318	1485.126	1492.8865	1500.2053	1504.7023	1516.534	2239.312	2945.8302	3011.3264	3032.1728	3035.3087	3038.8571	3051.0252	3079.9737	3092.6773	3098.6155	3099.4017	3124.9676	3168.5291	3508.4947
CC1CN1CCCC#C	C[C@H]1CN1CCCC#C	
InChI=1S/C8H13N/c1-3-4-5-6-9-7-8(9)2/h1,8H,4-7H2,2H3	InChI=1S/C8H13N/c1-3-4-5-6-9-7-8(9)2/h1,8H,4-7H2,2H3/t8-,9?/m0/s1
