18
gdb 72671	2.33082	1.5055	1.4575	3.6488	76.59	-0.2395	0.0031	0.2426	1033.1502	0.148478	-398.094374	-398.085927	-398.084983	-398.127309	32.026	
C	-0.1962191185	 1.5438042546	 0.0154955941	-0.458448
C	 0.0106177028	 0.0502538657	 0.0229153824	 0.268224
C	-1.2256059978	-0.8729989783	 0.1695561843	-0.209662
N	-0.4855200377	-1.7534924446	 1.1164335805	-0.363799
C	 0.6562945699	-0.7995628828	 1.1900168331	 0.172684
C	 1.7681461754	-1.1987330913	 0.1923415437	-0.195093
N	 1.0821648822	-0.4341784666	-0.8865047141	-0.359353
C	 0.9902291209	-0.2796119708	 2.4945020474	 0.187553
N	 1.2399528931	 0.139381782	 3.5440008599	-0.343214
H	 0.7612096066	 2.0655734465	 0.0894167479	 0.136648
H	-0.6719192323	 1.8489233389	-0.9243225604	 0.125813
H	-0.8388964191	 1.8627852726	 0.8418871958	 0.125014
H	-2.0838903942	-0.35474455	 0.6147783202	 0.108667
H	-1.5598151798	-1.3861721855	-0.739650891	 0.104745
H	-0.9529575912	-1.8911388871	 2.0047508757	 0.237515
H	 2.7577827283	-0.78704461	 0.4158856421	 0.120654
H	 1.8372365225	-2.2807411271	 0.0529722329	 0.11873
H	 0.7452364988	-1.0070273263	-1.6528985946	 0.223322
92.8723	118.0582	181.3243	201.5614	259.4618	349.0069	369.7719	388.6196	530.3015	547.7108	567.403	627.1674	686.755	704.3076	774.5053	889.4416	926.7954	946.8342	969.1309	998.401	1019.3833	1037.2804	1110.6316	1113.4543	1169.219	1184.5547	1210.4385	1222.0937	1261.6541	1321.4706	1334.8566	1374.0636	1393.2577	1415.4668	1480.9449	1487.213	1498.9498	1509.2909	2341.8254	3016.1344	3032.5264	3039.9767	3062.6379	3099.0809	3101.3799	3124.9025	3530.1592	3551.9435
CC12CNC1(CN2)C#N	C[C@]12CN[C@]1(CN2)C#N	
InChI=1S/C6H9N3/c1-5-3-9-6(5,2-7)4-8-5/h8-9H,3-4H2,1H3	InChI=1S/C6H9N3/c1-5-3-9-6(5,2-7)4-8-5/h8-9H,3-4H2,1H3/t5-,6-/m0/s1
