17
gdb 7987	3.51952	1.68349	1.23808	3.9335	64.97	-0.2492	0.0259	0.275	979.1746	0.143141	-401.051579	-401.04375	-401.042806	-401.083671	29.532	
C	-0.0341170351	 1.5495116689	-0.0095565019	-0.401005
C	 0.0636516317	 0.0274132538	-0.0173483741	 0.047825
C	 0.8212371458	-0.5581425965	-1.2349257766	-0.243617
C	 1.4506211676	-1.8433742035	-0.6903241238	 0.047262
O	 2.6436002833	-2.2208628439	-1.3245369298	-0.44224
C	 1.696022976	-1.501829057	 0.7847472238	 0.38555
O	 2.5210036091	-2.0504257485	 1.4888670344	-0.401105
N	 0.8530954684	-0.4869557971	 1.1039322263	-0.320197
H	 0.9621522357	 2.0017163004	-0.0360554208	 0.129348
H	-0.5950108284	 1.8948892375	-0.8834666123	 0.128865
H	-0.5549568881	 1.911782211	 0.8833048816	 0.118378
H	-0.9532084697	-0.3914983647	 0.0207939967	 0.086943
H	 0.1670400475	-0.7115291118	-2.0951566756	 0.111207
H	 1.6305507637	 0.1188532814	-1.5289764373	 0.120121
H	 0.7134437401	-2.6659829141	-0.7163734464	 0.087522
H	 3.2054152488	-2.5731474579	-0.6176221283	 0.29268
H	 0.7864444537	-0.126822688	 2.0433442442	 0.252465
99.0677	118.5697	239.4192	262.6006	297.4876	392.4129	423.6191	453.0061	499.7753	525.0108	583.5726	642.6685	724.9594	821.9071	870.05	952.5839	964.3069	1010.7684	1071.0251	1112.5527	1152.1092	1171.6712	1194.3779	1268.1175	1271.0855	1294.5149	1337.9105	1377.6374	1400.6027	1413.1708	1430.0708	1435.2077	1492.8189	1494.0038	1499.9799	1825.1761	2941.615	2983.4989	3034.568	3057.4759	3103.8073	3115.4876	3121.1017	3632.3724	3717.9648
CC1CC(O)C(=O)N1	C[C@H]1C[C@@H](O)C(=O)N1	
InChI=1S/C5H9NO2/c1-3-2-4(7)5(8)6-3/h3-4,7H,2H2,1H3,(H,6,8)	InChI=1S/C5H9NO2/c1-3-2-4(7)5(8)6-3/h3-4,7H,2H2,1H3,(H,6,8)/t3-,4+/m0/s1
