17
gdb 127114	3.71081	1.32324	0.98752	2.4797	82.25	-0.2192	-0.0556	0.1636	1174.8089	0.136711	-414.20086	-414.192108	-414.191164	-414.235858	30.331	
C	-0.0079419113	 1.4210377452	 0.0192239304	-0.342154
N	 0.038191361	-0.0299580039	-0.0342743802	-0.127093
C	 0.1203915061	-0.7073360894	 1.2462242568	-0.341178
C	 0.0063243136	-0.711023894	-1.2107361554	 0.525054
N	 0.0536663747	-2.0620297448	-1.1666324363	-0.324453
C	 0.0192153309	-2.6626268202	-2.3411821153	 0.002148
C	-0.0602831361	-1.938844179	-3.5294823117	-0.025437
N	-0.1039083225	-0.6068345333	-3.5069923636	-0.156634
N	-0.0713351566	 0.0227040614	-2.3518142849	-0.290047
H	 0.8910981986	 1.8104153258	 0.5142664955	 0.122295
H	-0.0681415508	 1.822569504	-0.9889182631	 0.17916
H	-0.8813702355	 1.7510455313	 0.5964382213	 0.122296
H	-0.7482155741	-0.4532920846	 1.8677507993	 0.123247
H	 0.1493891986	-1.7829550669	 1.0917299503	 0.169227
H	 1.0237812282	-0.3936962846	 1.7855053475	 0.123247
H	 0.0556628708	-3.7507378707	-2.34193708	 0.121429
H	-0.0897286355	-2.4111517964	-4.5041162006	 0.118894
25.7966	75.1206	120.139	128.9002	230.531	262.7733	382.3135	405.2278	516.1784	553.065	553.6342	654.5374	793.3422	829.1539	861.9418	993.8376	995.5221	1021.3931	1081.1371	1091.2913	1134.9401	1155.7031	1167.3896	1182.8581	1240.0645	1266.0871	1374.5256	1436.9408	1441.5005	1447.9545	1492.4955	1492.5496	1498.1519	1505.6909	1548.546	1587.8879	1614.8243	3006.8138	3014.1505	3051.3621	3055.6126	3142.783	3183.1156	3186.3358	3205.1037
CN(C)C1=NC=CN=N1	CN(C)c1nccnn1	
InChI=1S/C5H8N4/c1-9(2)5-6-3-4-7-8-5/h3-4H,1-2H3	InChI=1S/C5H8N4/c1-9(2)5-6-3-4-7-8-5/h3-4H,1-2H3
