16
gdb 72840	2.71194	1.58139	1.31447	5.2729	64.11	-0.2429	0.0018	0.2447	989.9851	0.125307	-475.027351	-475.019677	-475.018733	-475.059588	29.079	
O	 0.0212302009	 1.4243111339	-0.0329161414	-0.473864
C	 0.0320695254	 0.0262242735	 0.0013135296	 0.349328
C	 0.2995724334	-0.7643276646	-1.3074476577	-0.23816
N	-0.8156117311	-1.6648861559	-0.9226671431	-0.31989
C	-1.3480699159	-0.6454375291	 0.0250324209	-0.180438
C	-1.5468747225	-1.186859102	 1.4327370541	 0.47359
O	-2.5365702528	-1.6240629308	 1.9402912258	-0.342749
O	-0.3578423446	-1.1022808293	 2.0964287249	-0.225326
C	 0.6897056786	-0.5758156832	 1.2699253031	-0.123438
H	 0.9288578031	 1.7460840769	 0.0016105202	 0.285594
H	 0.0944061293	-0.128007283	-2.177538313	 0.107544
H	 1.2666411105	-1.2634909191	-1.4338518092	 0.104581
H	-1.450580713	-1.9301107526	-1.6654965972	 0.236816
H	-2.1916477657	-0.0438701313	-0.3212397712	 0.107433
H	 1.3841393699	-1.3876346103	 1.032996188	 0.124353
H	 1.2116568443	 0.194351287	 1.8454771261	 0.114628
101.0822	144.9242	225.2867	228.2026	323.5483	350.0161	388.0292	497.2118	598.5929	626.8205	677.2174	691.6976	790.3695	878.6346	894.8576	945.3208	964.758	1003.6117	1021.6561	1038.9403	1076.7044	1116.9555	1155.686	1190.0188	1195.2544	1238.6614	1260.3908	1301.6502	1329.9714	1367.7616	1374.0266	1420.3654	1498.7283	1516.735	1888.8313	3016.9068	3047.1354	3070.4237	3090.7813	3099.5605	3555.9191	3800.3183
OC12CNC1C(=O)OC2	O[C@]12CN[C@H]1C(=O)OC2	
InChI=1S/C5H7NO3/c7-4-3-5(8,1-6-3)2-9-4/h3,6,8H,1-2H2	InChI=1S/C5H7NO3/c7-4-3-5(8,1-6-3)2-9-4/h3,6,8H,1-2H2/t3-,5-/m0/s1
