15
gdb 15131	6.52373	0.74022	0.70515	1.3399	72.98	-0.2405	-0.0333	0.2072	1541.3085	0.117262	-362.610872	-362.602311	-362.601367	-362.646533	28.665	
O	-0.1184638747	 1.2714092575	 1.3229560471	-0.228363
C	 0.0311141424	 1.5344729778	 0.1615219952	 0.171601
C	 1.3927603638	 1.5429523492	-0.5390140842	-0.414423
C	 1.5229416315	 2.6455939911	-1.4793234194	 0.026138
C	 1.5740685229	 3.5786881359	-2.2416506839	 0.11065
C	 1.6819053154	 4.6781315609	-3.158083774	-0.158228
C	 0.9321975709	 5.944377927	-2.8926773475	-0.225882
N	 2.389515942	 5.9186456239	-2.7524947263	-0.303965
H	-0.8237900159	 1.7846149617	-0.5035694075	 0.094267
H	 2.1732773522	 1.5520099159	 0.2289895598	 0.15589
H	 1.480588529	 0.583723851	-1.0723391503	 0.158127
H	 1.8663279335	 4.4047022636	-4.1938341055	 0.119167
H	 0.5612202561	 6.5217650592	-3.7346206507	 0.128192
H	 0.31516233	 5.9799557252	-1.9998570839	 0.125089
H	 2.6381475908	 5.8462266201	-1.7686077988	 0.241739
18.9393	46.1667	97.3131	131.211	206.3969	305.2835	409.8334	442.5816	533.3076	549.5896	697.0581	766.8661	814.3163	885.1276	960.1344	993.3095	1032.8011	1041.6665	1086.8136	1119.5793	1155.8566	1210.1508	1217.1122	1256.6926	1289.901	1300.8311	1396.967	1415.5395	1438.8773	1504.7587	1841.6527	2358.2346	2901.1243	3002.6167	3078.3132	3115.2823	3139.3812	3206.2436	3504.3115
O=CCC#CC1CN1	O=CCC#C[C@H]1CN1	
InChI=1S/C6H7NO/c8-4-2-1-3-6-5-7-6/h4,6-7H,2,5H2	InChI=1S/C6H7NO/c8-4-2-1-3-6-5-7-6/h4,6-7H,2,5H2/t6-/m0/s1
