15
gdb 130165	5.38644	0.87854	0.76524	1.9295	72.13	-0.2087	-0.0009	0.2077	1408.0813	0.114032	-450.13415	-450.125763	-450.124819	-450.167704	30.478	
N	 0.2431651044	 1.1704181767	 0.602982521	-0.588351
C	 0.0648437082	-0.1280539081	 0.1311457818	 0.394491
N	-1.0935284858	-0.5051901813	-0.3979248019	-0.304035
N	-0.9249908626	-1.835598196	-0.6535890792	-0.277832
C	 0.3080839862	-2.2636415582	-0.323241026	 0.484636
O	 0.6342862355	-3.5574020298	-0.5692367361	-0.214364
C	 1.4589995948	-4.1833628586	 0.3224486958	 0.109485
N	 1.9320157024	-5.308077124	 0.0223551008	-0.422247
C	 1.0033984037	-1.1939403365	 0.1996807357	-0.426207
H	 1.1589867993	 1.5493637432	 0.4033209641	 0.246521
H	-0.4804713064	 1.7897143279	 0.2600156767	 0.251838
H	-1.6634557482	-2.3710469161	-1.075169107	 0.280195
H	 1.6017533248	-3.6066323903	 1.2419984296	 0.11788
H	 2.4990719779	-5.6648170032	 0.7887974781	 0.24088
H	 2.0205124958	-1.1735845556	 0.5522943767	 0.107109
62.9507	101.8092	142.2006	240.5771	277.9113	325.7758	364.7088	433.3378	460.0825	509.6631	663.8194	684.5422	698.728	735.0305	784.8044	818.7685	837.8501	991.7146	1022.8911	1051.9118	1069.2185	1095.2705	1189.2748	1209.3174	1259.3821	1328.391	1402.0287	1449.086	1524.7366	1557.2494	1614.6896	1649.9633	1751.739	3076.0355	3273.2968	3523.4887	3542.5902	3638.7186	3690.6061
NC1=NNC(OC=N)=C1	Nc1n[nH]c(O[CH][NH])c1	
InChI=1S/C4H6N4O/c5-2-9-4-1-3(6)7-8-4/h1-2,5H,(H3,6,7,8)	InChI=1S/C4H6N4O/c5-2-9-4-1-3(6)7-8-4/h1-2,5H,(H3,6,7,8)
