15
gdb 127875	2.64595	1.57825	0.99527	3.3758	76.84	-0.2301	-0.0699	0.1602	1124.9744	0.111872	-450.059521	-450.051096	-450.050152	-450.093028	30.708	
C	-0.1281489768	 1.3803323474	 0.0862153033	-0.336801
N	-0.0841058803	-0.0689924616	-0.022249079	-0.323857
C	 0.5592579391	-0.6047518768	-0.9944954876	 0.216243
C	 1.292601585	 0.0255628887	-2.0703431385	-0.025687
N	 1.9400683379	-0.6155000002	-2.987128549	-0.052423
O	 1.9499378141	-1.9661353164	-2.9564087747	-0.214189
N	 1.2735941931	-2.7203850896	-1.9882922252	-0.209048
C	 0.6043319397	-2.0712923512	-1.081386094	 0.418465
N	-0.1114958404	-2.7556262541	-0.1589600873	-0.546927
H	 0.8739510589	 1.8295750081	 0.1296208674	 0.127718
H	-0.6615176736	 1.837520532	-0.7589485235	 0.131203
H	-0.6585856033	 1.6531375321	 1.0009961808	 0.131947
H	 1.3366991226	 1.1043752157	-2.1668661906	 0.137498
H	 0.0424229681	-3.7443387737	-0.057328483	 0.268644
H	-0.437432384	-2.2102377405	 0.6242171609	 0.277214
50.9246	107.5339	212.3566	213.8173	270.8324	315.3555	346.5475	462.898	501.664	517.2299	542.2057	594.7585	609.8566	745.3735	783.0017	874.2271	912.8902	916.5843	954.691	1055.7385	1094.5369	1154.293	1166.2497	1269.4544	1344.208	1431.5595	1475.959	1488.3877	1505.4278	1589.9449	1602.0048	1638.1936	1694.4789	2993.7182	3046.9234	3112.0768	3199.8898	3585.4284	3724.8722
CN=C1C=NON=C1N	CN=c1cnonc1N	
InChI=1S/C4H6N4O/c1-6-3-2-7-9-8-4(3)5/h2H,1H3,(H2,5,8)	InChI=1S/C4H6N4O/c1-6-3-2-7-9-8-4(3)5/h2H,1H3,(H2,5,8)
