22
gdb 13384	5.53708	0.9879	0.88317	0.1523	83.34	-0.2333	0.0315	0.2648	1374.3732	0.201066	-313.092791	-313.084102	-313.083158	-313.126483	32.447	
C	 0.010870444	 1.5821839407	-0.0274384502	-0.380145
C	-0.0039669422	 0.0528074618	 0.0456368708	-0.165851
C	-1.4186203982	-0.537277685	 0.0023691311	-0.183532
C	-1.4627433027	-2.0666211738	 0.0536461888	 0.043091
C	-0.9178226357	-2.7003402243	 1.3661220195	-0.256356
C	-1.7896439903	-3.9186480158	 1.5565586547	-0.064452
C	-2.8547906478	-3.9003972777	 0.7574504918	-0.061076
C	-2.8879937484	-2.6657127457	-0.1103795841	-0.276255
H	 1.0320140802	 1.9753351818	 0.002073517	 0.109596
H	-0.4569174291	 1.939107178	-0.9519272793	 0.112436
H	-0.5397396525	 2.0236458171	 0.8108873807	 0.112739
H	 0.5835897703	-0.3600402864	-0.7855148389	 0.092454
H	 0.5013921968	-0.2725432094	 0.963814376	 0.098458
H	-2.0080104912	-0.1330284161	 0.8383541079	 0.08867
H	-1.9201908188	-0.1939121721	-0.9133086103	 0.088469
H	-0.8509794308	-2.4550196603	-0.7712824147	 0.071338
H	 0.1492438165	-2.9422378704	 1.3037465986	 0.099801
H	-1.0244131458	-2.0121013412	 2.2191004525	 0.098995
H	-1.5715079913	-4.6846365858	 2.2930737125	 0.086828
H	-3.6395300634	-4.6491596549	 0.741705813	 0.087248
H	-3.6601864453	-1.9654000074	 0.243859786	 0.099206
H	-3.1298882343	-2.8787547831	-1.1583186337	 0.098338
63.9922	98.0945	108.6017	166.9748	247.5048	311.1512	364.9332	395.4045	440.435	621.2374	716.4845	746.0845	778.1908	826.7367	869.6333	898.399	920.4853	951.3283	975.4066	978.6813	1002.0898	1039.4081	1047.4533	1086.7096	1118.7807	1134.6108	1143.3175	1156.7072	1221.7675	1270.9301	1286.0534	1293.514	1321.6442	1327.0747	1336.7973	1368.9225	1379.6897	1398.2452	1410.383	1480.3653	1484.6225	1490.4632	1495.7147	1499.18	1510.5538	1689.0334	2986.1618	2989.4869	2997.3119	3009.4753	3015.9152	3027.6965	3028.2319	3047.1012	3053.4365	3056.1197	3094.3144	3099.7058	3176.5969	3202.5523
CCCC1CC=CC1	CCC[C@H]1CC=CC1	
InChI=1S/C8H14/c1-2-5-8-6-3-4-7-8/h3-4,8H,2,5-7H2,1H3	InChI=1S/C8H14/c1-2-5-8-6-3-4-7-8/h3-4,8H,2,5-7H2,1H3
