23
gdb 91758	2.33299	1.68314	1.48443	1.3959	83.1	-0.2369	0.0748	0.3117	1060.291	0.209909	-388.323468	-388.315695	-388.314751	-388.355141	32.447	
C	-0.4790042929	 1.4966747812	-0.0261730395	-0.422319
C	-0.0314331916	 0.0352163311	-0.0361574234	 0.051372
C	 0.7723070784	-0.4215603436	-1.2881582015	-0.264637
C	 1.921802936	-1.2714162088	-0.6855047014	 0.105294
C	 3.2277935526	-0.4827042494	-0.5140382854	-0.200127
C	 2.9749064522	 0.7974446393	 0.3056971899	-0.210093
C	 2.036622501	 0.5290124527	 1.4999558881	-0.205751
C	 0.8872335637	-0.4223706102	 1.1255593413	 0.070241
O	 1.4483081638	-1.6366838896	 0.6182729092	-0.265486
H	 0.3616403346	 2.1878605794	-0.1420682155	 0.119466
H	-1.1799164174	 1.6934442238	-0.8440302663	 0.115709
H	-0.9899671642	 1.7473361771	 0.9101362778	 0.114127
H	-0.9276358708	-0.5912192119	 0.0305507138	 0.079401
H	 0.1515998486	-1.0179781591	-1.96102711	 0.099728
H	 1.1535186566	 0.4265975931	-1.8652299482	 0.096612
H	 2.0965106899	-2.2002643877	-1.2349305647	 0.07008
H	 3.940959681	-1.1316538117	 0.0067845079	 0.100872
H	 3.6630459698	-0.236828615	-1.490046487	 0.088324
H	 3.9225766098	 1.2186583669	 0.6577311957	 0.094489
H	 2.532216332	 1.560098047	-0.3450539356	 0.100308
H	 2.5973009235	 0.0434336438	 2.30713977	 0.10153
H	 1.6477890455	 1.4699740682	 1.9056010212	 0.091845
H	 0.3104853378	-0.6807657566	 2.0190451336	 0.069014
140.3796	224.4483	234.1623	274.7876	344.2976	351.9064	430.4791	457.4744	478.769	580.8298	686.4063	738.7267	785.6161	811.315	844.5031	869.3357	890.6896	925.4488	928.9125	956.3509	981.0554	1030.146	1037.548	1057.8203	1090.4759	1093.8282	1114.6528	1163.6742	1187.125	1206.3279	1218.6665	1265.6027	1281.6142	1300.4977	1321.6797	1340.7275	1349.9231	1356.1714	1370.9052	1385.4875	1390.1083	1394.9663	1417.7475	1471.122	1478.7881	1492.8662	1499.2902	1503.6261	1511.5348	3028.1491	3030.1371	3032.4508	3034.2087	3036.0909	3054.69	3061.8336	3064.347	3071.3767	3073.5365	3081.9869	3093.5874	3100.2481	3107.7339
CC1CC2CCCC1O2	C[C@H]1C[C@H]2CCC[C@@H]1O2	
InChI=1S/C8H14O/c1-6-5-7-3-2-4-8(6)9-7/h6-8H,2-5H2,1H3	InChI=1S/C8H14O/c1-6-5-7-3-2-4-8(6)9-7/h6-8H,2-5H2,1H3/t6-,7+,8-/m0/s1
