18
gdb 55358	3.14066	1.26986	1.2016	3.5278	71.82	-0.225	-0.0093	0.2157	1105.2554	0.147297	-439.080553	-439.072178	-439.071234	-439.113938	31.204	
C	 0.8801887344	 0.0851768491	 0.8146372051	-0.470071
C	-0.1077383879	 0.0127559573	-0.325478719	 0.375358
O	-0.1073158663	 0.7816172338	-1.2595356426	-0.309953
C	-1.1951838148	-1.0731636511	-0.2406559548	-0.099626
N	-0.7609856041	-2.2919050265	 0.4499092554	-0.322553
C	-1.8921116516	-2.8910881171	 1.1745644779	-0.191957
C	-2.7977037268	-1.7130534082	 1.456252892	 0.046725
O	-2.1222300754	-0.5748903247	 2.0056001392	-0.242766
C	-2.3809113405	-0.6030753647	 0.5963191278	 0.033631
H	 1.484557115	 0.9882470574	 0.7207918168	 0.128585
H	 0.3435615071	 0.0601449677	 1.7679768052	 0.162425
H	 1.522856706	-0.8007499397	 0.8063379492	 0.140741
H	-1.5642565839	-1.224851062	-1.2674930729	 0.083401
H	-0.3072785269	-2.9472073374	-0.1720411518	 0.230055
H	-2.4652783854	-3.6274244622	 0.586541	 0.09531
H	-1.5434693805	-3.3886068837	 2.0873277395	 0.118446
H	-3.8199505951	-1.8656416762	 1.789715452	 0.105554
H	-3.0417307133	 0.1673853583	 0.212188591	 0.116696
62.3046	121.0836	155.3312	170.6023	265.4737	330.5533	393.4134	437.4292	517.2977	572.1569	618.7317	681.9329	804.6691	832.0136	850.2193	878.3031	928.6684	952.7938	985.9957	1005.2507	1034.6626	1042.2761	1087.5955	1118.7983	1125.1745	1215.899	1236.5243	1254.986	1266.2542	1304.7516	1313.0988	1360.9381	1384.6106	1434.8431	1445.2722	1456.0751	1464.7354	1508.4994	1809.364	2965.7514	2979.9583	3048.5703	3048.8732	3113.6276	3157.0366	3160.5171	3176.6083	3576.2677
CC(=O)C1NCC2OC12	CC(=O)[C@H]1NC[C@H]2O[C@@H]12	
InChI=1S/C6H9NO2/c1-3(8)5-6-4(9-6)2-7-5/h4-7H,2H2,1H3	InChI=1S/C6H9NO2/c1-3(8)5-6-4(9-6)2-7-5/h4-7H,2H2,1H3/t4-,5-,6-/m1/s1
