17
gdb 69752	3.03378	1.55364	1.31074	4.8712	72.22	-0.2258	0.0289	0.2547	1006.6544	0.136782	-417.971808	-417.964304	-417.96336	-418.003502	29.709	
C	-0.0366503385	 1.5479675594	 0.0598669765	-0.512888
C	 0.117405029	 0.0608289972	 0.0051576769	 0.360322
N	-0.8204504677	-0.8622011301	 0.682420339	-0.368086
C	 0.6268970978	-0.9356379382	 0.9906762894	-0.138571
C	 1.2912064562	-1.7704586586	-0.145994055	 0.018332
N	 0.5042776017	-2.799909682	-0.8231901101	-0.318043
C	-0.1128052604	-1.9217430857	-1.7114076108	 0.433461
O	-0.9589654949	-2.0804024492	-2.5443682147	-0.356053
C	 0.7445304257	-0.741659003	-1.1766289139	-0.268703
H	 0.8857298097	 2.0515815355	-0.24787111	 0.128897
H	-0.8399927399	 1.8839222919	-0.605691326	 0.141954
H	-0.2788348466	 1.8790882176	 1.0758022274	 0.119483
H	-1.2639699937	-0.3427870728	 1.4394502831	 0.230262
H	 0.9915618505	-0.8041121333	 2.0025867017	 0.094581
H	 2.3542868931	-1.9795163075	-0.0296163673	 0.090173
H	 0.0975617187	-3.6415858487	-0.437897919	 0.247156
H	 1.3904085794	-0.1936352325	-1.8591444571	 0.097722
146.4412	154.2491	215.324	266.3515	339.4006	411.4435	473.0835	493.4402	556.6605	633.1544	697.2711	738.409	782.7852	824.257	872.6432	890.7832	919.063	944.7852	959.8609	1008.8542	1023.9276	1059.3727	1095.4215	1112.5039	1135.8228	1159.4908	1188.1177	1209.2132	1277.6962	1311.4515	1334.5372	1347.3912	1409.4055	1443.8129	1481.1579	1497.9734	1897.9434	3025.8469	3091.5836	3097.9477	3115.7538	3147.6772	3182.7696	3474.8624	3590.379
CC12NC1C1NC(=O)C21	C[C@]12N[C@H]1[C@H]1NC(=O)[C@@H]21	
InChI=1S/C6H8N2O/c1-6-2-3(4(6)8-6)7-5(2)9/h2-4,8H,1H3,(H,7,9)	InChI=1S/C6H8N2O/c1-6-2-3(4(6)8-6)7-5(2)9/h2-4,8H,1H3,(H,7,9)/t2-,3-,4-,6+/m0/s1
