15
gdb 123784	4.62162	1.14079	0.98673	1.119	69.09	-0.2335	-0.0165	0.2171	1164.4635	0.112782	-453.900446	-453.892989	-453.892045	-453.933092	27.555	
C	 0.808892437	 0.8030752465	 0.6189566757	-0.274599
C	 0.7246680827	 0.2358300203	-0.7754367478	-0.2746
C	-0.5310645631	 0.3707596423	 0.0606419201	 0.049306
N	-1.2843962528	-0.733719665	 0.5554644782	-0.367758
C	-0.8172537218	-1.8084974562	 0.9644428095	 0.544451
O	-1.6192251087	-2.8426737389	 1.4336045245	-0.190695
C	-0.7622047772	-3.8178162309	 1.7784840026	 0.109687
N	 0.477797293	-3.5701636396	 1.6028221047	-0.114144
O	 0.4821564456	-2.2513446312	 1.0660634964	-0.262831
H	 1.261924714	 0.1794188917	 1.3797484634	 0.131497
H	 0.9748169785	 1.8669184184	 0.74704849	 0.115499
H	 0.8315955442	 0.9023949571	-1.623940591	 0.115499
H	 1.1224836337	-0.7597479443	-0.9289157395	 0.131498
H	-1.1929039333	 1.1796492498	-0.2284429722	 0.100782
H	-1.1603574518	-4.7380581199	 2.1768965352	 0.186409
67.0294	130.6736	140.7833	224.1046	329.875	448.9352	543.6555	593.438	676.1509	699.7336	771.6799	826.7588	836.4477	880.3301	890.7013	902.2077	926.7676	944.682	1011.5718	1054.3915	1077.4238	1101.8727	1143.7413	1195.0741	1201.1146	1211.384	1267.8281	1294.9421	1408.1154	1465.6943	1496.823	1672.2503	1860.2638	3143.3214	3146.3824	3164.3237	3229.2952	3242.4854	3283.1267
C1CC1N=C1OC=NO1	C1CC1N=c1ocno1	
InChI=1S/C5H6N2O2/c1-2-4(1)7-5-8-3-6-9-5/h3-4H,1-2H2	InChI=1S/C5H6N2O2/c1-2-4(1)7-5-8-3-6-9-5/h3-4H,1-2H2
