17
gdb 67075	2.66784	1.59852	1.34256	2.0962	79.19	-0.2331	0.0163	0.2494	1020.0689	0.134229	-384.591892	-384.583903	-384.582958	-384.624095	31.315	
C	-0.040048854	 1.5791263047	-0.1135632889	-0.5258
C	 0.0087468225	 0.0913894178	-0.0284385449	 0.224031
C	 0.567518999	-1.019066671	-0.9169226913	-0.187544
C	 1.3733737153	-1.6220841188	 0.228045942	-0.273072
C	 0.3301706871	-0.9336757108	 1.1593170248	 0.296256
O	-0.9040004285	-1.6666272325	 0.8708089597	-0.337187
C	-0.8885358237	-1.0327532626	-0.4064911413	 0.04855
C	 0.5717423621	-0.6414579881	 2.5385316558	 0.079333
C	 0.8011293484	-0.3659440953	 3.6862909221	-0.324837
H	 0.9446236041	 2.0256154863	 0.0643721001	 0.127978
H	-0.3707880623	 1.8931269238	-1.1095359873	 0.127389
H	-0.7378139098	 1.9967356422	 0.6201663924	 0.135398
H	 0.8189165785	-0.9666627946	-1.9685632853	 0.093269
H	 1.4428255634	-2.7094139914	 0.3258622607	 0.10665
H	 2.3575342248	-1.1580622112	 0.3220700136	 0.11287
H	-1.7707735568	-1.0882169827	-1.0302554354	 0.109175
H	 0.9968145998	-0.1319798558	 4.7036262932	 0.187541
114.0496	150.2658	191.6955	220.0053	271.8152	420.8781	488.754	504.8036	545.1453	560.741	626.1172	654.0216	680.2595	747.7292	762.94	854.234	880.6573	896.6447	961.9094	971.2611	978.5271	1023.6307	1033.6287	1054.9999	1114.1931	1136.9681	1165.6927	1215.7473	1243.3934	1270.1201	1303.9214	1408.7186	1457.9026	1480.9724	1487.1551	1496.702	2239.4998	3026.0244	3056.2068	3089.4856	3096.8376	3123.1547	3198.4167	3212.5653	3501.3059
CC12C3CC1(OC23)C#C	C[C@@]12[C@H]3C[C@@]1(O[C@@H]23)C#C	
InChI=1S/C8H8O/c1-3-8-4-5-6(9-8)7(5,8)2/h1,5-6H,4H2,2H3	InChI=1S/C8H8O/c1-3-8-4-5-6(9-8)7(5,8)2/h1,5-6H,4H2,2H3/t5-,6+,7-,8-/m0/s1
