17
gdb 102457	1.89054	1.35121	0.92117	1.7249	66.56	-0.2513	-0.1067	0.1446	1283.6314	0.131906	-496.091501	-496.081312	-496.080368	-496.127558	34.517	
C	-0.1784589156	 1.3318402512	 0.073751871	-0.248555
O	-0.1566507229	-0.0827280751	 0.164611012	-0.244164
C	 0.7191631875	-0.6052061011	 1.1321540276	-0.012271
C	 0.29652693	-2.0773322196	 1.3270685486	-0.080221
O	-1.0595820168	-2.149870338	 1.690436913	-0.413614
C	 2.1801676085	-0.4982694237	 0.7110797118	 0.26635
O	 2.5493375181	-0.1658414083	-0.3902316537	-0.27399
C	 3.2510112751	-0.8252107541	 1.7627088481	 0.086599
O	 3.0032403512	-1.1413663256	 2.8968192128	-0.214987
H	 0.7765320504	 1.7280565253	-0.2891759608	 0.132641
H	-0.9631305818	 1.5892738318	-0.6406252178	 0.136381
H	-0.4159008472	 1.7885392856	 1.0458103215	 0.112726
H	 0.5989467738	-0.0901467449	 2.0994153712	 0.104311
H	 0.5004656842	-2.6234066509	 0.3923931806	 0.103005
H	 0.8812447078	-2.5244029671	 2.1335812227	 0.136352
H	-1.5338917993	-1.6173841635	 1.0398419969	 0.292172
H	 4.2823133769	-0.728233252	 1.3623834345	 0.117265
49.171	107.9016	112.3636	122.2983	160.8417	174.4402	202.4506	256.4424	324.5101	373.4108	454.3049	477.336	534.1052	582.0794	651.0696	826.0945	892.7921	983.1013	1043.6177	1076.2236	1096.0778	1149.5995	1174.9487	1188.2976	1202.8857	1258.1135	1270.68	1362.2368	1376.1769	1384.7293	1431.6752	1480.8383	1488.9984	1503.3773	1510.4545	1803.3909	1819.1467	2925.1716	2975.9864	2990.1491	2997.5521	3072.7207	3118.7874	3128.4665	3785.2338
COC(CO)C(=O)C=O	CO[C@@H](CO)C(=O)C=O	
InChI=1S/C5H8O4/c1-9-5(3-7)4(8)2-6/h2,5,7H,3H2,1H3	InChI=1S/C5H8O4/c1-9-5(3-7)4(8)2-6/h2,5,7H,3H2,1H3/t5-/m0/s1
