15
gdb 56474	2.84643	1.1123	0.82579	1.561	68.12	-0.2717	-0.0442	0.2275	1304.5448	0.112943	-450.156041	-450.146793	-450.145849	-450.190909	32.053	
N	-0.4963105592	 1.6746513566	-0.2561304437	-0.492912
C	 0.0170140912	 0.3212607365	-0.1238687138	-0.185054
C	-1.0530065042	-0.6070522812	 0.2703918412	 0.281208
N	-1.8535964376	-1.3912304804	 0.5527520345	-0.318615
C	 0.782131847	-0.206751309	-1.3671633477	 0.37616
N	 1.2114759244	 0.6405532866	-2.2007783527	-0.503968
N	 0.9758346919	-1.5966418241	-1.3837584013	-0.353594
C	 1.7076182841	-2.2993494869	-2.3163737443	 0.168463
O	 2.3198977494	-1.8116345322	-3.237391757	-0.290008
H	 0.2481066874	 2.2244236435	-0.6816930938	 0.260769
H	-1.2453389111	 1.6755826279	-0.9445021922	 0.246633
H	 0.7462348714	 0.3150596253	 0.7008925375	 0.162018
H	 1.7493000884	 0.1908787877	-2.9424448874	 0.263882
H	 0.4731968724	-2.1443412039	-0.6980286849	 0.274907
H	 1.6739600146	-3.3868666461	-2.1211464844	 0.110112
53.0466	79.9742	130.5477	182.4916	213.6251	244.7783	276.0838	322.0076	366.7296	487.7694	512.2969	591.368	611.7058	645.2131	816.9409	893.9106	939.1393	968.3275	971.0783	1027.2755	1035.9463	1152.8198	1190.3687	1220.0317	1287.9246	1321.9936	1407.171	1437.4636	1521.1605	1675.0654	1735.7671	1817.0397	2357.9381	2971.2225	3001.4338	3481.8763	3488.211	3551.4768	3586.8225
NC(C#N)C(=N)NC=O	N[C@@H](C#N)C(=N)NC=O	
InChI=1S/C4H6N4O/c5-1-3(6)4(7)8-2-9/h2-3H,6H2,(H2,7,8,9)	InChI=1S/C4H6N4O/c5-1-3(6)4(7)8-2-9/h2-3H,6H2,(H2,7,8,9)/t3-/m0/s1
