14
gdb 52215	3.72842	0.82553	0.787	3.7008	64.1	-0.29	-0.0253	0.2648	1409.4946	0.098856	-473.819555	-473.810824	-473.80988	-473.854831	29.332	
O	 0.3412636779	 0.3362058311	-0.9037367256	-0.259778
C	 0.3704301919	 1.4937621772	-0.6253701214	 0.179062
O	 0.7932459212	 1.9331039835	 0.5866015099	-0.181843
C	 0.8574070885	 3.3452264299	 0.7862375404	-0.139265
C	 2.2490229963	 3.8396969794	 0.482751793	 0.062788
O	 2.5600492166	 4.0471582555	-0.8941314167	-0.221944
C	 2.5068426034	 5.1957817496	-0.0476739544	-0.097774
C	 1.4256176591	 6.1300191652	-0.2840689512	 0.301155
N	 0.5712798022	 6.8884776875	-0.4582163742	-0.315299
H	 0.055486726	 2.3162365035	-1.2940490806	 0.096959
H	 0.1235212643	 3.8663686954	 0.161850755	 0.143759
H	 0.610594129	 3.5211738925	 1.8367708008	 0.144607
H	 3.0476283167	 3.372044387	 1.0580334875	 0.133824
H	 3.4662864868	 5.6653169229	 0.1596207077	 0.15375
40.7803	54.7682	109.808	143.0263	211.6334	270.0486	355.3537	370.1623	461.3327	577.207	593.0151	684.498	813.4267	829.2911	943.5397	1002.7994	1031.4596	1039.9073	1063.4076	1113.43	1138.4038	1182.7819	1279.2831	1305.6951	1360.4829	1397.3437	1425.7533	1464.1314	1485.9385	1876.6375	2362.7527	2971.9469	3052.0249	3108.467	3129.3706	3143.0743
O=COCC1OC1C#N	O=COC[C@H]1O[C@H]1C#N	
InChI=1S/C5H5NO3/c6-1-4-5(9-4)2-8-3-7/h3-5H,2H2	InChI=1S/C5H5NO3/c6-1-4-5(9-4)2-8-3-7/h3-5H,2H2/t4-,5+/m0/s1
