15
gdb 50614	2.2652	1.60368	1.07355	3.8185	70.46	-0.2421	-0.0795	0.1626	1092.2384	0.110763	-457.777476	-457.769202	-457.768258	-457.811265	28.787	
O	 0.3021459954	-0.1366318291	-0.2223413542	-0.234831
C	 0.0848110984	 1.0302625267	-0.0413246425	 0.134567
C	 1.1917900076	 2.0854369173	 0.0952595399	-0.069746
O	 2.4654111193	 1.4983690094	 0.2842757168	-0.252211
C	 3.2470363913	 1.6263136656	-0.8985585559	-0.112839
C	 2.4973884931	 2.600546257	-1.7556341341	-0.19164
C	 1.3201355961	 2.8866637206	-1.1896165644	 0.214411
C	 0.2853528833	 3.7829972221	-1.7031187276	 0.069611
O	-0.7911391788	 3.9375008418	-1.1677907296	-0.265533
H	-0.9415094733	 1.4497900863	 0.0212827468	 0.106256
H	 0.9436230596	 2.7251057989	 0.95517561	 0.11971
H	 4.2521647385	 1.9824556018	-0.6326405593	 0.126639
H	 3.3643758418	 0.6536357991	-1.4020694875	 0.135193
H	 2.869045215	 2.9912279546	-2.6953383212	 0.133312
H	 0.5544309329	 4.3272315778	-2.6331095772	 0.0871
71.5268	84.4857	131.4279	173.7911	259.0918	280.7225	294.662	468.1964	507.8882	671.8767	755.7565	786.3632	794.748	827.7522	925.3884	949.5563	1014.9122	1024.5524	1033.5172	1053.3624	1136.8695	1196.8465	1212.237	1252.6618	1307.1537	1349.7041	1376.3838	1405.0077	1414.8877	1500.1889	1685.114	1777.3643	1841.8798	2909.3979	2916.8229	2984.267	3005.2144	3021.9078	3215.7979
O=CC1OCC=C1C=O	O=C[C@H]1OCC=C1C=O	
InChI=1S/C6H6O3/c7-3-5-1-2-9-6(5)4-8/h1,3-4,6H,2H2	InChI=1S/C6H6O3/c7-3-5-1-2-9-6(5)4-8/h1,3-4,6H,2H2/t6-/m1/s1
