16
gdb 17262	3.27362	2.10228	1.78309	0.4642	65.19	-0.2451	0.0814	0.3265	807.7238	0.12893	-383.646691	-383.63959	-383.638646	-383.677653	27.453	
C	 0.0351182477	 1.4884076106	 0.0640129333	-0.519536
C	-0.0315277093	 0.0004746078	-0.0497091352	 0.300628
C	 0.576655244	-0.9608635873	-1.1142472106	-0.266079
C	 0.0520114283	-1.823746347	 0.057686724	-0.051916
O	 0.6196927302	-0.8352269766	 1.0030055434	-0.343057
C	-1.2246827082	-0.9730021587	 0.061906936	 0.488228
C	-2.5113833788	-0.9911627831	 0.7255385909	-0.302302
O	-2.3781525999	-1.0664360545	-0.7239571536	-0.286647
H	 1.0710607309	 1.8355579224	 0.0111927778	 0.137191
H	-0.5285071773	 1.9500020254	-0.7526886205	 0.137682
H	-0.3947492725	 1.8198683636	 1.0141053748	 0.135499
H	 0.0712605671	-1.0410267494	-2.0798329492	 0.114032
H	 1.6641551019	-0.9169739975	-1.1918124254	 0.105482
H	 0.2060451224	-2.8794727364	 0.2740605105	 0.101011
H	-2.8704014249	-1.9024254106	 1.199818541	 0.126108
H	-2.9517454117	-0.0673305489	 1.0959990028	 0.123675
163.8038	186.9021	208.8075	243.5205	343.6197	415.8251	478.5221	590.5903	647.2323	676.695	726.0591	803.3438	849.9062	895.5039	910.2257	957.0554	992.7041	1018.7761	1061.0897	1089.482	1102.6493	1122.5432	1154.6476	1160.1626	1208.9771	1219.6444	1227.7975	1338.9165	1412.471	1459.148	1477.3606	1485.9244	1491.0449	1569.4411	3041.1852	3065.7557	3093.3137	3115.6605	3117.8646	3139.9388	3148.5699	3180.8947
CC12CC(O1)C21CO1	C[C@@]12C[C@@H](O1)[C@]12CO1	
InChI=1S/C6H8O2/c1-5-2-4(8-5)6(5)3-7-6/h4H,2-3H2,1H3	InChI=1S/C6H8O2/c1-5-2-4(8-5)6(5)3-7-6/h4H,2-3H2,1H3/t4-,5+,6+/m1/s1
