25
gdb 112897	1.93447	1.28339	0.86486	1.2232	88.66	-0.2611	0.0777	0.3388	1457.8504	0.229292	-389.509941	-389.499693	-389.498749	-389.545297	38.97	
C	-0.05599385	 1.5193396003	 0.1847614865	-0.408233
C	 0.0933776263	 0.0114493761	-0.0097592395	 0.047079
C	 1.1568693946	-0.4122123744	-1.0338313326	-0.207318
C	 1.3517087829	-1.9108357564	-0.7507254024	 0.020375
C	 2.550966658	-2.5463890053	-1.4573434063	-0.419711
C	 1.312716915	-2.0072216642	 0.8084171272	 0.014336
C	 2.6901161963	-2.0567603888	 1.4660596108	-0.091557
O	 2.4899590521	-2.1129259131	 2.8733395849	-0.422059
C	 0.5113838493	-0.7523940179	 1.2693476625	-0.21657
H	 0.8894870118	 1.9660585215	 0.5149819066	 0.108587
H	-0.3540557535	 2.0172127815	-0.7444816925	 0.10718
H	-0.8128250734	 1.7500223641	 0.9424134472	 0.110901
H	-0.8712076421	-0.3881538362	-0.3538094796	 0.065123
H	 0.864772652	-0.209990913	-2.070010582	 0.085993
H	 2.0936194358	 0.1341137078	-0.8494925742	 0.085176
H	 0.4502573046	-2.4212179031	-1.1167116491	 0.071081
H	 3.4935610993	-2.0599609792	-1.1840555697	 0.113214
H	 2.6430565314	-3.6121920496	-1.2217989751	 0.112358
H	 2.4435684735	-2.4588126706	-2.5438245984	 0.10927
H	 0.7964174145	-2.9249078684	 1.1103903759	 0.071441
H	 3.2493364424	-2.9379963257	 1.1184334921	 0.084381
H	 3.2752082045	-1.163728689	 1.1884353075	 0.079389
H	 3.3521429263	-2.109941782	 3.298712002	 0.283818
H	 1.1519687187	-0.1175476788	 1.8920180631	 0.099874
H	-0.3490107102	-1.0139560358	 1.891063015	 0.095871
36.5084	129.6603	136.38	194.769	234.9137	253.8031	268.4995	279.3022	313.1567	360.5946	418.2881	448.061	495.1137	514.7159	608.1876	798.8071	845.1083	865.7933	880.48	925.2709	950.9525	969.4876	983.7582	1026.4589	1040.3534	1067.7928	1079.369	1097.7834	1138.9089	1167.4056	1181.3965	1191.1715	1239.7287	1251.4027	1274.356	1280.2764	1298.8421	1313.9718	1345.4394	1356.544	1370.9883	1381.9682	1384.155	1410.2588	1412.2957	1456.3005	1487.5159	1494.8749	1496.7976	1499.5994	1501.5555	1505.3683	1524.8141	2957.5427	2994.1606	2996.1594	3001.1277	3010.88	3022.0375	3028.0136	3043.5754	3045.1061	3068.8877	3086.2084	3091.9376	3092.4307	3092.8446	3096.1945	3831.0094
CC1CC(C)C(CO)C1	C[C@H]1C[C@@H](C)[C@@H](CO)C1	
InChI=1S/C8H16O/c1-6-3-7(2)8(4-6)5-9/h6-9H,3-5H2,1-2H3	InChI=1S/C8H16O/c1-6-3-7(2)8(4-6)5-9/h6-9H,3-5H2,1-2H3/t6-,7+,8+/m0/s1
