17
gdb 44642	2.9721	1.72946	1.52351	3.66	71.13	-0.2199	0.0127	0.2327	917.1048	0.138377	-417.967487	-417.960626	-417.959682	-417.99879	27.403	
O	-0.0247841755	 0.0135915431	-0.018400962	-0.356046
C	-0.0007702701	 1.2139990718	-0.0550932369	 0.403463
N	-1.0035206154	 2.1688629224	-0.071669424	-0.314443
C	-0.1159073413	 3.3249623216	 0.0019606272	-0.016378
C	 0.3926225469	 3.7496982052	 1.4134265823	 0.02518
C	-0.1471012837	 3.0490730868	 2.6806102451	-0.260554
C	 1.0263552212	 2.0387136034	 2.5187044183	-0.177092
N	 1.5489434168	 2.7870614304	 1.3211623658	-0.140995
C	 1.0832576168	 2.3261953354	-0.0345025594	-0.149422
H	-1.9912367978	 2.0743812618	 0.1234507363	 0.250059
H	-0.3002588289	 4.1019724497	-0.7401130277	 0.091856
H	 0.6518311769	 4.8098560595	 1.4909776732	 0.079447
H	-0.104144812	 3.6632382613	 3.5818116368	 0.112164
H	-1.1492711154	 2.6237040074	 2.5925582303	 0.101567
H	 1.7555369898	 2.0479138103	 3.3334069675	 0.108689
H	 0.7421343334	 1.0029299917	 2.3181702078	 0.13803
H	 1.8606164182	 2.2959539782	-0.7976967604	 0.104472
97.7646	170.1573	255.7121	358.0734	431.838	499.2015	522.1425	649.1849	691.3674	740.3214	771.5673	793.1844	828.0821	863.7251	901.8461	931.2857	942.1674	990.102	1005.3364	1037.0619	1078.1791	1101.7891	1137.4773	1165.871	1175.2956	1210.9251	1219.4688	1227.6025	1253.3116	1260.3181	1304.507	1315.1854	1350.6814	1366.1986	1474.9955	1512.4661	1880.1482	3054.6439	3057.755	3072.014	3104.7761	3107.5505	3118.4857	3128.3107	3582.4893
O=C1NC2C3CCN3C12	O=C1N[C@H]2[C@H]3CCN3[C@@H]12	
InChI=1S/C6H8N2O/c9-6-5-4(7-6)3-1-2-8(3)5/h3-5H,1-2H2,(H,7,9)	InChI=1S/C6H8N2O/c9-6-5-4(7-6)3-1-2-8(3)5/h3-5H,1-2H2,(H,7,9)/t3-,4+,5-/m1/s1
