16
gdb 9166	7.49482	0.77481	0.71706	3.558	70.62	-0.2387	-0.0109	0.2278	1545.9544	0.126187	-383.720409	-383.710395	-383.709451	-383.75768	32.643	
C	 0.1085368899	 1.489758888	-0.0774010769	-0.498173
C	 0.0467516005	 0.0365244484	-0.0314642106	 0.118436
C	-0.011544572	-1.1640658864	 0.0093147157	 0.058391
C	-0.0947040534	-2.6131194396	 0.056414906	-0.490299
C	-1.5206295311	-3.1649857253	 0.2481507575	 0.385194
O	-2.4383603277	-2.5071380635	 0.6536885201	-0.257799
C	-1.6551796729	-4.6419033008	-0.1162378075	-0.172634
O	-2.9106034692	-5.1168413521	 0.286565525	-0.393825
H	 0.822837843	 1.8821677329	 0.6548044914	 0.146778
H	 0.417817586	 1.8456462675	-1.0663651433	 0.145862
H	-0.8693326042	 1.9312557245	 0.1435702793	 0.154956
H	 0.3425116739	-3.0655479674	-0.8445842956	 0.137167
H	 0.5024077856	-3.0081282043	 0.8927321796	 0.154018
H	-1.5007773713	-4.7159736672	-1.2079867583	 0.113027
H	-0.8177944513	-5.1892648622	 0.351747532	 0.105058
H	-2.987267876	-6.0338657524	 0.0076546758	 0.293843
21.4628	31.2816	71.2475	99.5422	199.7463	222.8905	232.77	280.7961	355.786	372.6915	421.2516	457.6458	674.2906	774.9452	796.6781	871.7115	1014.3622	1042.5353	1052.147	1057.5869	1147.9644	1177.6489	1206.9449	1235.7086	1268.5681	1339.8088	1414.6004	1439.9291	1444.895	1478.0058	1478.5056	1493.8842	1850.524	2383.7504	2943.7078	2965.3232	2998.6277	3027.2828	3029.5877	3087.1496	3090.1867	3835.7483
CC#CCC(=O)CO	CC#CCC(=O)CO	
InChI=1S/C6H8O2/c1-2-3-4-6(8)5-7/h7H,4-5H2,1H3	InChI=1S/C6H8O2/c1-2-3-4-6(8)5-7/h7H,4-5H2,1H3
