17
gdb 67985	3.19941	1.63664	1.25292	2.553	72.25	-0.2353	-0.0143	0.221	984.8778	0.136942	-421.806289	-421.799283	-421.798339	-421.837407	28.706	
O	-0.0661434653	 1.3761947544	 0.057066624	-0.485631
C	 0.013788629	-0.0136435012	 0.0392053975	 0.445551
C	 0.9327412138	-0.7075235151	 1.0439103623	-0.442495
C	 0.5910854356	-2.1637912495	 0.685336607	 0.414318
O	 1.0286034439	-3.1754923089	 1.1670365876	-0.325463
C	-0.4245242301	-2.0023711219	-0.4177847681	-0.134062
C	-1.3401190992	-0.7781241914	-0.045579634	-0.09108
C	-1.4376658882	-0.4211565933	-1.5508606033	-0.25227
C	 0.0445780992	-0.8069853703	-1.3232117571	-0.127063
H	 0.825040636	 1.7351039818	-0.0077644961	 0.285212
H	 1.9978606239	-0.4998586127	 0.8885781554	 0.117482
H	 0.6883712129	-0.4789621833	 2.0862032393	 0.132278
H	-0.8617468219	-2.8897205387	-0.8705667656	 0.088736
H	-2.1307145547	-0.7805978126	 0.7066044981	 0.084073
H	-2.0252248326	-1.1000598231	-2.1731034166	 0.096688
H	-1.6395931112	 0.6232389877	-1.7902224028	 0.115864
H	 0.858598499	-0.844223632	-2.0500575376	 0.077862
129.649	262.9449	286.0058	338.7945	355.9338	402.8121	521.0718	582.2964	602.4258	635.8814	702.2394	731.9654	842.3741	845.2315	874.2956	911.7206	919.8326	988.4315	1017.9923	1039.9439	1051.961	1080.5534	1105.6779	1114.7802	1158.047	1182.363	1187.7128	1202.2034	1222.6039	1236.0953	1258.1947	1285.1478	1301.8522	1385.8403	1462.322	1513.5275	1861.0313	3043.548	3070.4573	3092.6245	3093.3392	3103.7056	3141.8772	3150.8178	3812.4265
OC12CC(=O)C3C1CC23	O[C@@]12CC(=O)[C@H]3[C@@H]1C[C@@H]23	
InChI=1S/C7H8O2/c8-5-2-7(9)3-1-4(7)6(3)5/h3-4,6,9H,1-2H2	InChI=1S/C7H8O2/c8-5-2-7(9)3-1-4(7)6(3)5/h3-4,6,9H,1-2H2/t3-,4+,6-,7-
