16
gdb 121687	2.06251	1.17056	0.78185	2.874	66.17	-0.2812	-0.0153	0.2659	1399.7785	0.122284	-475.060667	-475.050929	-475.049985	-475.097757	32.727	
O	-0.008984125	 0.2113645358	-1.5299844849	-0.415698
C	-0.3169979514	-0.617498625	-0.4311584052	-0.070754
C	-1.6450944264	-0.2537917205	 0.2097344028	-0.081259
O	-2.6505856302	-0.4693895674	-0.8093959496	-0.238309
C	-3.9064434113	-0.1374930087	-0.5010719461	 0.469664
O	-4.2793904554	 0.2786714833	 0.5616016615	-0.34532
C	-4.8585588607	-0.3876999296	-1.6761533875	-0.469365
C	-4.2165802647	-0.4511146115	-2.9839514916	 0.286205
N	-3.7091736643	-0.4926190995	-4.0204949032	-0.307424
H	-0.6907906989	 0.0718240726	-2.197024589	 0.300609
H	-0.3276105949	-1.682493429	-0.7100343194	 0.103916
H	 0.4776169492	-0.4758228529	 0.3087806748	 0.121806
H	-1.870858	-0.8788232358	 1.079297183	 0.126358
H	-1.6714765841	 0.7971010557	 0.5094930214	 0.139405
H	-5.382625088	-1.330685275	-1.480110063	 0.189504
H	-5.6159743539	 0.4003164974	-1.6598517439	 0.19066
29.627	36.4827	63.7029	129.1374	175.6932	228.8652	299.593	362.9193	375.9834	413.238	488.2217	518.148	593.0559	685.5417	838.7705	898.0602	949.8387	955.3528	986.636	1035.6936	1093.0766	1125.9402	1217.4424	1234.7642	1265.3917	1275.2165	1311.7771	1391.5892	1401.1482	1428.9546	1440.1262	1492.3928	1495.9016	1838.5108	2371.385	2992.6465	3057.3667	3058.8482	3083.7651	3111.6228	3118.8082	3805.123
OCCOC(=O)CC#N	OCCOC(=O)CC#N	
InChI=1S/C5H7NO3/c6-2-1-5(8)9-4-3-7/h7H,1,3-4H2	InChI=1S/C5H7NO3/c6-2-1-5(8)9-4-3-7/h7H,1,3-4H2
