21
gdb 96002	2.2556	1.62426	1.21237	1.3202	77.66	-0.2432	0.082	0.3253	1125.5192	0.183297	-424.211822	-424.203099	-424.202155	-424.245602	32.819	
C	-0.5493956164	 1.4417708241	-0.0805531086	-0.426903
C	 0.0773687843	 0.0486108714	-0.0588322821	 0.008222
C	 1.4298176389	-0.0711596191	-0.7815990057	-0.235533
C	 1.9817444269	-1.3754362801	-0.2068810879	-0.070897
O	 1.4540375807	-1.4869363196	 1.1199242101	-0.275014
C	 0.4288395288	-0.5229912797	 1.3389655592	 0.073799
C	 0.8822487167	 0.5228007602	 2.3433876835	 0.075826
C	 2.0610807765	 0.3277154572	 3.1923132369	-0.177503
O	 2.1049187416	 1.2089830281	 2.0622553901	-0.244354
H	 0.1304651762	 2.1915576956	 0.334771961	 0.140079
H	-0.7859213441	 1.7375069057	-1.1075321806	 0.11533
H	-1.4834055471	 1.4733713183	 0.4914903735	 0.112395
H	-0.6226171585	-0.6581242699	-0.5234645991	 0.077497
H	 1.3304099967	-0.0989069864	-1.8699629478	 0.09545
H	 2.0736716182	 0.7689366877	-0.5077793405	 0.128862
H	 1.6543580516	-2.2436212622	-0.797453241	 0.091373
H	 3.0747892299	-1.3956976358	-0.1494622926	 0.105796
H	-0.4386820209	-1.0362976162	 1.7788525224	 0.075849
H	 0.0839559931	 1.1673285043	 2.7162668107	 0.089401
H	 2.1118554946	 0.8179115056	 4.1633505115	 0.108817
H	 2.6341192324	-0.5881727492	 3.0810232871	 0.131507
54.4208	106.8479	171.0711	198.8566	244.004	264.1136	305.1248	382.27	510.929	527.1769	628.9395	721.1871	769.5241	830.5474	891.2878	894.6198	921.3069	927.8452	976.4631	979.2172	1004.0461	1035.6453	1094.6675	1099.0753	1122.3611	1146.724	1167.9786	1173.164	1183.6794	1200.0962	1239.5671	1290.2921	1302.8114	1315.5251	1337.8264	1374.5638	1384.2186	1401.1497	1417.9452	1430.5774	1486.3074	1502.982	1506.9301	1517.2015	1528.832	2993.0768	2996.6767	3018.84	3033.3361	3061.0389	3070.4603	3090.2492	3095.7793	3099.697	3112.1183	3117.5367	3199.3083
CC1CCOC1C1CO1	C[C@H]1CCO[C@H]1[C@H]1CO1	
InChI=1S/C7H12O2/c1-5-2-3-8-7(5)6-4-9-6/h5-7H,2-4H2,1H3	InChI=1S/C7H12O2/c1-5-2-3-8-7(5)6-4-9-6/h5-7H,2-4H2,1H3/t5-,6+,7+/m0/s1
