17
gdb 31104	3.5305	1.11723	0.87502	1.8796	72.33	-0.1711	0.0579	0.229	1283.2738	0.13712	-455.16823	-455.159192	-455.158248	-455.202241	33.567	
N	 0.3797065052	 1.4696897175	 0.2290859414	-0.609955
C	 0.016243084	 0.1031617119	 0.1899629509	 0.256222
C	-1.1275245847	-0.5964674418	 0.4848965171	-0.333194
C	-0.8892519169	-1.9821650673	 0.198385839	 0.10661
C	-1.7718206083	-3.1764636046	 0.369877553	-0.201352
O	-1.4995595808	-4.1795267775	-0.6334392731	-0.421854
C	 0.4078041904	-2.0617168765	-0.2638400971	 0.327894
O	 1.1339406936	-3.1232389535	-0.6826517725	-0.443995
N	 0.9522694009	-0.8141585068	-0.273775403	-0.32107
H	-0.3721561041	 2.0581534018	-0.1103233188	 0.242295
H	 0.6047187228	 1.7811758063	 1.1696707497	 0.24069
H	-2.0387685946	-0.1725325752	 0.8814945643	 0.081222
H	-1.597007726	-3.7010360044	 1.3175248552	 0.120096
H	-2.8331013517	-2.8915501811	 0.3536876729	 0.104415
H	-1.7085442959	-3.7777953324	-1.4851298384	 0.286627
H	 0.4989081396	-3.8586361657	-0.7300878874	 0.302239
H	 1.8567906466	-0.5689980707	-0.6390405133	 0.263111
61.0064	89.3388	177.7112	206.1209	242.681	310.5513	320.5337	376.067	443.7029	484.3777	506.0882	622.4937	633.8419	674.6164	679.5613	723.8973	779.1385	799.7185	817.7134	970.9791	1003.7319	1021.2885	1154.4799	1169.5372	1195.2557	1208.4837	1227.2014	1283.1369	1352.2886	1388.628	1414.3641	1426.5396	1508.7235	1564.9611	1580.2519	1645.6837	1661.0416	3003.7628	3040.8569	3233.9854	3488.0259	3573.5026	3653.8754	3678.029	3790.7364
NC1=CC(CO)=C(O)N1	Nc1cc(CO)c(O)[nH]1	
InChI=1S/C5H8N2O2/c6-4-1-3(2-8)5(9)7-4/h1,7-9H,2,6H2	InChI=1S/C5H8N2O2/c6-4-1-3(2-8)5(9)7-4/h1,7-9H,2,6H2
