13
gdb 44269	3.36246	1.49957	1.20683	4.4483	57.63	-0.2866	-0.0318	0.2548	965.7657	0.090592	-493.755226	-493.748467	-493.747523	-493.787021	24.672	
O	-0.0507147487	 0.0480516753	-0.4195835815	-0.301836
C	-0.0029972586	 1.1830861987	-0.084593513	 0.460243
O	-1.0389511083	 1.9886466989	 0.3345448518	-0.243754
C	-0.1311938346	 3.1282596511	 0.5291344879	-0.025325
C	 1.0592702416	 2.2812289372	 0.0756725894	-0.261899
C	 1.9481939544	 2.1536131666	 1.3239614903	-0.102099
O	 1.1877392809	 2.6769172925	 2.4252193866	-0.218512
C	 0.0869172058	 3.3704781538	 2.0233950865	 0.443351
O	-0.5802788359	 4.0246811621	 2.7645564541	-0.314757
H	-0.4667481868	 4.0046702991	-0.0204902171	 0.13572
H	 1.5970394275	 2.5424916329	-0.8336464655	 0.13592
H	 2.2167440527	 1.1198358611	 1.5520467236	 0.155382
H	 2.86297623	 2.7456544906	 1.2262216469	 0.137565
90.4433	131.6857	220.6114	262.1916	446.6426	475.1293	608.4147	664.8908	722.8136	756.1919	798.1961	843.7546	896.7718	920.0436	948.7926	1012.3892	1056.7549	1073.3182	1107.2736	1178.9439	1197.3056	1248.7937	1271.1893	1278.0047	1309.3033	1401.3174	1519.807	1895.0104	1954.3652	3060.1285	3116.1196	3142.9876	3155.8674
O=C1OC2C1COC2=O	O=C1O[C@@H]2[C@H]1COC2=O	
InChI=1S/C5H4O4/c6-4-2-1-8-5(7)3(2)9-4/h2-3H,1H2	InChI=1S/C5H4O4/c6-4-2-1-8-5(7)3(2)9-4/h2-3H,1H2/t2-,3-/m1/s1
