21
gdb 91747	2.32348	1.83112	1.56512	1.4319	81.12	-0.2358	0.0207	0.2565	998.1672	0.185884	-387.112547	-387.105055	-387.104111	-387.144197	30.944	
C	-0.2542673096	 1.556925668	-0.0764473578	-0.417259
C	 0.0105545538	 0.0512316118	-0.020872016	 0.040645
C	 0.8491730069	-0.5047507783	-1.2147845694	-0.243123
C	 2.0262635109	-1.199213271	-0.491691219	 0.041377
O	 1.4398120306	-1.651355993	 0.7318825362	-0.261477
C	 0.7839150423	-0.4811028689	 1.226970334	 0.059166
C	 1.8490120808	 0.4626894021	 1.8164062405	-0.265242
C	 3.0391684474	 0.5623059648	 0.8939081756	-0.058297
C	 3.1306586899	-0.2072594981	-0.1889252297	-0.061309
H	 0.6758150371	 2.1285282045	-0.1532811635	 0.123833
H	-0.8652261087	 1.8057250644	-0.9502980541	 0.114419
H	-0.7962418043	 1.9049145992	 0.8099600385	 0.112151
H	-0.9572176293	-0.4605585661	-0.0212231151	 0.080231
H	 0.2730989575	-1.2264319378	-1.8004749084	 0.098587
H	 1.186637154	 0.2868580893	-1.8893301373	 0.098269
H	 2.4073396828	-2.0787517388	-1.0164044292	 0.076599
H	 0.0951409941	-0.8040327087	 2.0125814779	 0.072585
H	 1.4236275706	 1.4553230813	 2.0069163724	 0.105098
H	 2.1681939114	 0.0815995009	 2.7963511531	 0.110023
H	 3.8239957596	 1.2695070648	 1.1497367986	 0.087491
H	 3.9659418422	-0.1338182604	-0.8794075773	 0.086234
85.8953	246.0757	256.6004	298.1658	351.9232	436.2374	453.8058	470.2589	540.1178	640.9673	692.3145	760.2211	779.8328	827.4371	860.2526	891.7443	908.186	950.0694	981.8299	989.3965	990.7569	1017.6666	1039.4205	1049.5409	1074.3076	1117.9641	1158.2346	1184.7956	1192.3795	1220.4754	1252.6276	1286.6113	1308.8293	1326.882	1351.819	1353.5888	1374.4628	1389.6652	1408.0152	1413.2382	1471.8774	1493.6545	1500.0107	1506.7056	1713.7033	3013.6448	3029.8826	3038.7447	3052.9362	3055.2922	3071.2692	3082.3556	3092.8578	3102.0811	3107.5901	3151.3792	3177.2586
CC1CC2OC1CC=C2	C[C@H]1C[C@@H]2O[C@H]1CC=C2	
InChI=1S/C8H12O/c1-6-5-7-3-2-4-8(6)9-7/h2-3,6-8H,4-5H2,1H3	InChI=1S/C8H12O/c1-6-5-7-3-2-4-8(6)9-7/h2-3,6-8H,4-5H2,1H3/t6-,7+,8-/m0/s1
