18
gdb 84238	2.50655	2.00228	1.39915	1.6967	79.22	-0.2106	-0.0363	0.1743	960.2375	0.146739	-401.821202	-401.813291	-401.812346	-401.853106	31.352	
C	-0.0376320946	 1.389658877	 0.2920348362	-0.479461
C	-0.0731879845	-0.0509627775	-0.1448291546	 0.335013
C	 0.6730882299	-0.6110045031	-1.2846116567	-0.136691
N	 1.3198812248	-0.7292864377	 0.0485058233	-0.18421
C	 1.3889054301	-2.2593353672	-0.1167202503	-0.16901
C	 0.2563794744	-2.0736793555	-1.1205231793	 0.011884
C	-0.9894293686	-2.1761619008	-0.6142405053	-0.163061
C	-1.4257432061	-0.7944264564	-0.1118312298	 0.039236
O	-1.9241211619	-0.8873454416	 1.2101858245	-0.429175
H	 0.9474091996	 1.8301348582	 0.1299202987	 0.132762
H	-0.7798666866	 1.9707983453	-0.2674850625	 0.11452
H	-0.2840140896	 1.4667808358	 1.3549720085	 0.14079
H	 1.1334469753	-0.1055379935	-2.127099947	 0.093235
H	 2.3929670526	-2.4661571433	-0.5000650564	 0.116143
H	 1.180482214	-2.8575201103	 0.7740359734	 0.11752
H	-1.2946406018	-3.0311678777	-0.0158806852	 0.095575
H	-2.1263304582	-0.2231329219	-0.7440733185	 0.074363
H	-2.8553201088	-1.1262240201	 1.1682690208	 0.290567
121.5987	172.3096	228.0038	267.8725	284.113	356.7841	389.1301	476.1552	538.9692	560.5922	608.3154	681.8053	738.421	766.9158	835.9632	863.8444	892.9945	933.2034	998.0941	1020.4335	1022.4167	1055.8505	1058.743	1069.8703	1098.9246	1115.9787	1190.4446	1210.5158	1226.0587	1264.344	1282.759	1294.8849	1367.1169	1410.224	1415.904	1483.3092	1493.9948	1505.9824	1585.5753	2946.5467	3037.8	3044.3671	3102.7149	3112.2361	3138.2089	3154.3518	3163.1453	3823.4015
CC12C3N1CC3=CC2O	C[C@@]12[C@H]3N1C[C]3[CH][C@H]2O	
InChI=1S/C7H9NO/c1-7-5(9)2-4-3-8(7)6(4)7/h2,5-6,9H,3H2,1H3	InChI=1S/C7H9NO/c1-7-5(9)2-4-3-8(7)6(4)7/h2,5-6,9H,3H2,1H3/t5-,6+,7-,8?/m1/s1
