21
gdb 89000	4.66901	0.76754	0.72015	2.5023	79.91	-0.244	0.0798	0.3238	1638.2875	0.181324	-424.190352	-424.180843	-424.179899	-424.2262	33.969	
C	 0.1479927649	 1.4586656086	-0.3646191434	-0.418999
C	-0.1074955207	 0.0641444562	 0.1480897374	 0.077479
O	 1.0122744263	-0.8240909468	 0.2420212885	-0.269688
C	 0.333539179	-0.4554951542	 1.4531601877	 0.066687
C	 1.1300965918	 0.322035589	 2.4744562894	-0.255989
C	 2.057287401	-0.5931926002	 3.2619356773	 0.172342
C	 2.7437741699	-0.0261650685	 4.5242576882	-0.302727
C	 2.0113476919	-1.1660668956	 5.2596241241	-0.057208
O	 1.3240811001	-1.5627031941	 4.0550307492	-0.296783
H	 1.0311955049	 1.9091026795	 0.0923171588	 0.125598
H	 0.3042000137	 1.4369951707	-1.4483042463	 0.129918
H	-0.7161987143	 2.1018534089	-0.1651488702	 0.121197
H	-0.9950191602	-0.4080196381	-0.2802663578	 0.085528
H	-0.2515377065	-1.2673216382	 1.8881533777	 0.106262
H	 1.7304645042	 1.0970050899	 1.9868400646	 0.102567
H	 0.4422695122	 0.8150964115	 3.1736991729	 0.099331
H	 2.7430432512	-1.1025706662	 2.5716196832	 0.090265
H	 3.8337930881	-0.0623540801	 4.5380294722	 0.111445
H	 2.4135304291	 0.9787575263	 4.7973626416	 0.107594
H	 2.6605547266	-1.9651694517	 5.6398061692	 0.102011
H	 1.3141596666	-0.871783837	 6.0529061158	 0.103174
41.1217	69.8771	82.4315	122.113	166.9362	205.7127	313.8359	370.7757	436.5363	481.4285	524.4481	740.9706	761.3675	803.8078	831.5347	873.6941	886.3227	939.3875	966.3657	994.0961	999.8678	1029.4948	1072.9323	1102.2973	1108.5486	1139.4471	1167.0774	1177.6542	1182.6242	1212.8663	1238.5481	1257.581	1287.8752	1304.6982	1314.2475	1366.204	1393.4044	1404.7647	1418.0741	1453.3556	1469.7119	1489.272	1491.0674	1511.6545	1532.7792	3010.591	3017.0762	3028.091	3038.8322	3054.3616	3074.3641	3074.5568	3084.0006	3098.6078	3106.8974	3131.6955	3134.3638
CC1OC1CC1CCO1	C[C@H]1O[C@H]1C[C@H]1CCO1	
InChI=1S/C7H12O2/c1-5-7(9-5)4-6-2-3-8-6/h5-7H,2-4H2,1H3	InChI=1S/C7H12O2/c1-5-7(9-5)4-6-2-3-8-6/h5-7H,2-4H2,1H3/t5-,6-,7+/m1/s1
