21
gdb 109169	2.70913	1.33909	1.00985	1.6621	80.82	-0.1978	0.0685	0.2662	1260.1007	0.182558	-420.425808	-420.4159	-420.414956	-420.460788	35.36	
C	 0.0009598602	 1.3105802362	-0.1265121014	-0.231681
O	-0.05230642	-0.112890282	-0.0065986671	-0.269145
C	-1.2842164051	-0.6299456379	 0.0524214216	 0.501869
N	-2.3783476336	 0.0302319047	-0.0228357489	-0.393919
C	-3.4393565523	-0.9742846693	 0.137564748	-0.175565
C	-2.7549094996	-2.3703223544	-0.002884282	 0.010628
C	-2.9861611767	-3.0093099188	-1.3772627319	-0.397519
N	-1.3549212109	-1.9949546175	 0.2381593891	-0.126707
C	-0.246155753	-2.8994907878	 0.0372105826	-0.343007
H	 1.0610162958	 1.5662900062	-0.1503696246	 0.125202
H	-0.4950681976	 1.6378263966	-1.0440533568	 0.139866
H	-0.4922667752	 1.7870933904	 0.7246501646	 0.140279
H	-3.9109733042	-0.8627088381	 1.1230508498	 0.099507
H	-4.2249062524	-0.8370421837	-0.6135008969	 0.09964
H	-3.0885833811	-3.0650802499	 0.7770944413	 0.076123
H	-2.6815415721	-2.3268544307	-2.1780543272	 0.126639
H	-2.4344562686	-3.9473944403	-1.4939177645	 0.114481
H	-4.0502474745	-3.2320941655	-1.5064900747	 0.119055
H	-0.1022148802	-3.1933702205	-1.0132293085	 0.114474
H	 0.6700687446	-2.41913937	 0.3833477391	 0.148034
H	-0.4020237334	-3.8093530176	 0.6267862186	 0.121745
66.7175	102.9562	134.6025	152.1297	180.7863	220.8979	244.8389	271.8388	306.2359	362.1899	421.3497	538.407	616.1181	725.2566	733.9119	777.8327	861.5057	925.3924	937.9673	1040.6153	1066.0419	1072.6421	1105.2811	1125.7244	1151.9868	1183.9573	1205.8185	1224.239	1242.5517	1280.0649	1304.2749	1338.4935	1375.1587	1400.7829	1425.8155	1456.5386	1475.6195	1486.9496	1489.657	1492.6805	1501.288	1505.7133	1509.0053	1534.7654	1703.4929	2989.965	3006.1472	3028.7152	3032.2323	3048.3267	3057.4065	3065.4499	3104.6126	3107.4098	3123.0685	3139.1513	3151.0348
COC1=NCC(C)N1C	CO[C]1[N]C[C@@H](C)N1C	
InChI=1S/C6H12N2O/c1-5-4-7-6(9-3)8(5)2/h5H,4H2,1-3H3	InChI=1S/C6H12N2O/c1-5-4-7-6(9-3)8(5)2/h5H,4H2,1-3H3/t5-/m1/s1
