17
gdb 48492	2.10676	1.62626	1.18954	2.9138	69.36	-0.2452	-0.0545	0.1907	1085.1546	0.134157	-458.980842	-458.972121	-458.971177	-459.015174	30.881	
O	 0.2421168674	-0.2395072091	-0.2200854285	-0.238872
C	 0.1663244725	 0.9519386631	-0.3283026704	 0.113084
C	 1.3499422947	 1.9053299643	-0.0843942513	 0.221538
C	 1.1182692551	 2.6205046051	 1.2918652204	-0.298858
C	 2.4489328769	 2.3682664108	 2.0233199745	-0.21557
C	 2.9440745775	 1.0772545613	 1.3649076639	-0.085803
O	 2.5742269979	 1.2100568652	-0.0063261256	-0.281598
C	 1.4279838637	 2.8860098851	-1.2464062745	 0.096082
O	 0.5721477527	 3.6990867133	-1.4830497524	-0.256343
H	-0.7783191498	 1.4785785608	-0.5854650702	 0.107534
H	 0.8759084557	 3.674745257	 1.1514379414	 0.139425
H	 0.2837620082	 2.1587987034	 1.8288350421	 0.123561
H	 3.153916128	 3.1818437653	 1.8275384052	 0.118081
H	 2.3237320737	 2.2750877829	 3.1043087033	 0.114952
H	 4.0276135627	 0.9433899882	 1.4049517484	 0.117146
H	 2.4620099547	 0.1931944111	 1.8042311359	 0.115332
H	 2.3421323684	 2.7664592123	-1.8649343922	 0.11031
50.315	91.7899	104.3024	196.8696	217.2971	299.2588	314.8698	344.9331	449.0639	591.4642	663.8085	687.1082	787.5102	844.551	891.1785	899.1561	927.1138	974.7911	1013.5848	1018.6135	1057.4882	1124.1175	1159.6263	1169.0351	1216.8979	1234.8015	1259.7621	1316.2303	1334.5736	1375.118	1384.3868	1402.0102	1488.3996	1504.8491	1524.8209	1811.2594	1848.6083	2902.7437	2921.6254	3016.3897	3057.4066	3061.1379	3103.9735	3116.5392	3128.7335
O=CC1(CCCO1)C=O	O=CC1(CCCO1)C=O	
InChI=1S/C6H8O3/c7-4-6(5-8)2-1-3-9-6/h4-5H,1-3H2	InChI=1S/C6H8O3/c7-4-6(5-8)2-1-3-9-6/h4-5H,1-3H2
