18
gdb 11554	4.28539	1.11749	0.93063	3.283	68.45	-0.2604	-0.0251	0.2353	1231.9547	0.152347	-384.940479	-384.931813	-384.930869	-384.975039	31.034	
O	-0.1930119221	 1.0742151977	-0.8026299953	-0.42211
C	-0.8416189582	-0.1613757722	-0.7624977751	-0.126652
C	-1.4968172577	-0.3958629403	 0.5939491617	 0.353871
O	-1.4226121915	 0.4776847678	 1.433341936	-0.320835
C	-2.197888497	-1.7173637797	 0.8622632308	-0.312207
C	-3.1582265356	-2.1576522685	-0.2274541497	 0.015438
C	-2.6972708789	-3.0201142224	-1.3784508834	-0.254986
C	-3.5891880612	-3.5997033099	-0.309610266	-0.27637
H	-0.3572611876	 1.4681451215	 0.0699645874	 0.291963
H	-1.6183800105	-0.2342491063	-1.5402432173	 0.12078
H	-0.1403591211	-0.9902648716	-0.956532358	 0.110294
H	-1.4180457583	-2.4824593852	 0.9860796563	 0.121731
H	-2.7064395815	-1.618695932	 1.8264622621	 0.129416
H	-3.9264893559	-1.425546973	-0.462756479	 0.096963
H	-3.1185490139	-2.8374082889	-2.3605961949	 0.120551
H	-1.6595311509	-3.3370794897	-1.3956226133	 0.115977
H	-3.1491784238	-4.3000474009	 0.3927165542	 0.116705
H	-4.6225776642	-3.8120981865	-0.5586807265	 0.119471
27.6219	83.2054	109.9759	165.6248	270.5654	319.7061	352.5029	415.9064	457.4496	523.8398	647.252	773.0755	786.2412	834.3835	842.3138	857.1844	936.2046	978.2669	1015.5599	1061.1149	1083.49	1114.7692	1137.2319	1147.3691	1190.4108	1198.6636	1228.8634	1245.2663	1270.1832	1310.0872	1320.1338	1408.0971	1453.2502	1459.38	1471.9992	1488.2742	1506.4887	1791.7204	2975.1716	2996.0037	3016.3092	3084.3487	3131.6162	3136.3945	3140.8762	3210.5712	3225.6462	3672.1306
OCC(=O)CC1CC1	OCC(=O)CC1CC1	
InChI=1S/C6H10O2/c7-4-6(8)3-5-1-2-5/h5,7H,1-4H2	InChI=1S/C6H10O2/c7-4-6(8)3-5-1-2-5/h5,7H,1-4H2
