21
gdb 91194	2.97542	1.42427	1.1187	1.8577	83.46	-0.2378	0.015	0.2528	1158.2584	0.1845	-387.093769	-387.085678	-387.084734	-387.126431	31.921	
C	 0.0017892597	 1.5758317907	-0.1924865008	-0.40925
C	 0.0642423911	 0.0781319408	 0.0224409247	 0.149833
O	 0.9879011035	-0.5826122124	-0.878217702	-0.322176
C	 1.4279288402	-1.4636930327	 0.1923636157	 0.120968
C	 2.9023386034	-1.6709368163	 0.293525987	-0.086651
C	 3.5790749523	-1.3250484017	 1.3890444737	-0.048535
C	 2.9391320768	-0.5861060198	 2.5397644367	-0.261542
C	 1.7700387813	 0.2807596813	 2.0395231351	-0.21675
C	 0.7612151239	-0.5624108104	 1.2561678483	-0.091454
H	 0.9854915523	 2.0425423759	-0.1034964455	 0.12494
H	-0.3802968691	 1.7869372006	-1.1963972054	 0.126782
H	-0.6763170827	 2.0392061201	 0.5325198913	 0.114121
H	-0.9452042123	-0.3455389204	-0.1040448998	 0.064964
H	 0.9231007484	-2.4382213522	 0.0924544231	 0.071976
H	 3.3938700401	-2.1663865374	-0.5398958742	 0.092649
H	 4.6392040498	-1.5542949433	 1.4661131313	 0.089932
H	 2.5926269311	-1.2941871869	 3.3069358931	 0.109221
H	 3.6860714574	 0.0443275214	 3.0352276756	 0.102513
H	 1.2790312717	 0.7908151638	 2.8750324598	 0.092633
H	 2.1923763418	 1.0562345215	 1.393258638	 0.10961
H	 0.0881320793	-1.0860115226	 1.9404338044	 0.066216
67.4125	172.7727	188.5637	243.5079	286.9613	360.6587	432.1815	467.6922	491.6101	529.5401	710.3518	732.3439	760.6432	806.028	829.9396	892.1797	895.396	968.1859	988.0789	995.7924	1006.921	1013.9692	1061.3845	1063.9058	1108.2715	1132.0235	1156.7927	1170.2254	1212.8599	1241.1115	1270.1539	1276.627	1326.2956	1337.0541	1352.1704	1366.4963	1390.8362	1402.8203	1412.2231	1428.1754	1478.5347	1481.6093	1491.9519	1499.3631	1711.4732	2961.2806	2966.9357	3001.9458	3037.597	3043.0761	3057.4955	3064.5061	3091.7771	3105.0412	3125.9296	3146.9939	3170.6111
CC1OC2C=CCCC12	C[C@H]1O[C@H]2C=CCC[C@@H]12	
InChI=1S/C8H12O/c1-6-7-4-2-3-5-8(7)9-6/h3,5-8H,2,4H2,1H3	InChI=1S/C8H12O/c1-6-7-4-2-3-5-8(7)9-6/h3,5-8H,2,4H2,1H3/t6-,7+,8+/m1/s1
