23
gdb 57545	3.5737	0.71014	0.6987	1.1657	82.61	-0.2619	0.0639	0.3258	1745.1697	0.202564	-425.412253	-425.40155	-425.400606	-425.448405	39.562	
C	-0.1848675055	 1.5448618073	 0.1455477493	-0.391326
C	 0.022647981	 0.0333776831	 0.0159130851	 0.339128
C	 0.8801461074	-0.4876965963	 1.1775364488	-0.41997
O	-1.2947099295	-0.5309741239	 0.099686115	-0.457111
C	 0.6763414543	-0.353703793	-1.3293311838	-0.195702
C	-0.1241675412	 0.0474462964	-2.5753557909	-0.225538
C	 0.4682499783	-0.5276722335	-3.8373915157	 0.09473
C	 0.4693367942	 0.1959377115	-5.1138451108	-0.181566
O	 1.6599912989	 0.0974238551	-4.3301917679	-0.239365
H	 0.7634053216	 2.0789722696	 0.0348974563	 0.113086
H	-0.8816164579	 1.9093504356	-0.6128371532	 0.124083
H	-0.6055811461	 1.7815014413	 1.1267663761	 0.118267
H	 0.3963193598	-0.2670790183	 2.133378377	 0.120296
H	 1.0168817794	-1.5737119014	 1.1053094195	 0.100933
H	 1.8744197192	-0.0297068712	 1.1769620652	 0.117175
H	-1.200573887	-1.4892985821	 0.1318690982	 0.273397
H	 1.6821305149	 0.0788947184	-1.3862569474	 0.110983
H	 0.8152861869	-1.4452208898	-1.3321823566	 0.07755
H	-1.1577361418	-0.3013787935	-2.465181359	 0.111363
H	-0.1580603051	 1.1375055705	-2.6734774014	 0.102439
H	 0.5034048087	-1.6190710551	-3.8812451263	 0.084918
H	 0.4794596076	-0.3547784035	-6.0537704739	 0.111306
H	 0.0248766919	 1.189378923	-5.1655798036	 0.110923
53.6552	64.5876	114.0257	149.9248	213.7931	235.4396	254.2241	301.5587	314.7324	343.0857	391.4218	422.2075	450.1231	488.7158	535.6144	758.3295	772.1959	807.6486	870.6841	906.6683	933.6993	944.0788	956.5239	993.5507	1017.4251	1057.5968	1081.8488	1098.2272	1146.0792	1158.6934	1166.4785	1194.0671	1229.5103	1245.4733	1286.1774	1299.6813	1316.268	1373.6709	1386.0273	1405.8226	1421.8829	1447.6405	1469.1127	1480.5268	1488.0466	1492.5709	1499.6661	1510.0843	1530.9122	2996.8423	3025.079	3040.1717	3047.4886	3058.6387	3074.1977	3080.1786	3091.0896	3094.7605	3113.1773	3120.6583	3127.5793	3164.3393	3801.3114
CC(C)(O)CCC1CO1	CC(C)(O)CC[C@H]1CO1	
InChI=1S/C7H14O2/c1-7(2,8)4-3-6-5-9-6/h6,8H,3-5H2,1-2H3	InChI=1S/C7H14O2/c1-7(2,8)4-3-6-5-9-6/h6,8H,3-5H2,1-2H3/t6-/m0/s1
