19
gdb 56506	2.56556	1.23603	1.04464	4.645	81.61	-0.2578	0.0237	0.2814	1219.174	0.15666	-382.049811	-382.039364	-382.038419	-382.084552	38.657	
C	 0.0486059039	 1.5815735176	 0.0695646346	-0.421752
C	-0.0111439435	 0.04327157	 0.0245595639	-0.118827
C	 0.768168479	-0.5217113889	 1.1314359149	 0.286859
N	 1.4143790666	-0.9561665164	 1.9853522565	-0.338553
C	-1.4749128361	-0.5259583306	 0.0243867281	 0.024117
C	-1.4480123296	-2.0652473697	 0.0515724349	-0.423862
N	-2.1591972125	-0.0565728566	 1.2395676474	-0.510473
C	-2.1407984805	-0.0745624625	-1.2117762179	 0.328075
C	-2.7082853469	 0.3001448948	-2.2042296538	-0.466886
H	 1.0819526612	 1.9240536389	-0.020497412	 0.139379
H	-0.5316223164	 1.9985227976	-0.7569375052	 0.138081
H	-0.3470193472	 1.9578957363	 1.0159980412	 0.143174
H	 0.4576445233	-0.2967644005	-0.9064410937	 0.131461
H	-1.0020285977	-2.4106294512	 0.9867914719	 0.158058
H	-2.4658288598	-2.458160696	-0.0250477983	 0.12422
H	-0.8720897201	-2.4590368449	-0.7894403467	 0.130997
H	-2.4235791092	 0.9186036916	 1.1379616801	 0.23747
H	-3.0264398789	-0.5724789537	 1.355657404	 0.237159
H	-3.2147665256	 0.6257909444	-3.0794565799	 0.201301
67.926	129.4015	169.9343	184.2427	219.8157	229.8417	251.4023	271.5116	294.4492	358.7289	388.5339	411.1199	491.4241	553.7141	578.2266	602.2398	638.7651	652.196	739.7017	829.5338	880.3361	919.2301	972.5404	1021.4487	1045.5074	1083.5584	1110.677	1167.4562	1221.7605	1305.9445	1333.2461	1336.2263	1403.525	1409.5312	1487.3388	1494.3867	1496.934	1506.9098	1665.3526	2221.3384	2357.9824	3046.0418	3050.1286	3055.6807	3122.9925	3132.6621	3138.3902	3141.8841	3498.3477	3499.7224	3575.8009
CC(C#N)C(C)(N)C#C	C[C@@H](C#N)[C@@](C)(N)C#C	
InChI=1S/C7H10N2/c1-4-7(3,9)6(2)5-8/h1,6H,9H2,2-3H3	InChI=1S/C7H10N2/c1-4-7(3,9)6(2)5-8/h1,6H,9H2,2-3H3/t6-,7-/m0/s1
