16
gdb 95575	2.55475	1.60943	1.05079	1.0219	66.12	-0.2525	-0.0387	0.2138	1081.3488	0.124549	-475.035243	-475.027159	-475.026215	-475.068945	29.589	
O	 0.0790233184	 1.2362526549	 0.3362090732	-0.434757
C	-0.0773273071	-0.0998039145	-0.040721869	 0.029667
C	-1.5528842141	-0.3746567783	-0.3848666404	-0.119528
O	-1.9341237343	-1.734069833	-0.2023574624	-0.213485
C	-1.2469706185	-2.7413360275	-0.7944845133	 0.136152
N	-0.1887203949	-2.8079063235	-1.4739511498	-0.267517
C	 0.7193976712	-1.7775829424	-1.9098643712	-0.251294
C	 0.7869556201	-0.4036603821	-1.2553901213	 0.327524
O	 1.5008248036	 0.4665101393	-1.7065176702	-0.330096
H	 0.7517215633	 1.5936066	-0.2686291359	 0.298428
H	 0.2036579423	-0.7827029826	 0.7788908833	 0.109754
H	-2.1696468713	 0.1974933873	 0.3091623727	 0.147287
H	-1.7886850837	-0.0482889842	-1.406244691	 0.120404
H	-1.7831438587	-3.6660473635	-0.5798804265	 0.130236
H	 1.7384995485	-2.1838593508	-1.8428479406	 0.157519
H	 0.5728730251	-1.602255149	-2.9841414776	 0.159707
32.6169	90.0842	205.1604	262.5188	325.6669	351.264	405.254	470.9468	481.8497	509.5253	594.7058	640.7906	761.8737	807.5225	900.795	956.0311	980.6492	1005.0276	1044.1417	1071.4425	1127.9197	1165.7756	1196.3072	1245.2479	1273.8832	1302.6864	1331.1304	1348.3244	1401.7369	1429.1465	1445.5488	1447.0584	1505.3435	1780.9645	1790.3137	2971.1231	3017.9055	3026.6704	3042.5193	3130.1257	3139.6372	3653.5438
OC1COC=NCC1=O	O[C@H]1COC=NCC1=O	
InChI=1S/C5H7NO3/c7-4-1-6-3-9-2-5(4)8/h3,5,8H,1-2H2	InChI=1S/C5H7NO3/c7-4-1-6-3-9-2-5(4)8/h3,5,8H,1-2H2/t5-/m0/s1
