14
gdb 131414	5.87059	1.00386	0.91319	2.3017	65.28	-0.2558	-0.0302	0.2256	1216.4463	0.102579	-469.979514	-469.972199	-469.971255	-470.011915	26.892	
O	 0.3168376752	 1.2599764872	-0.1299816543	-0.397941
C	 0.0850943585	-0.0487583928	-0.070356368	 0.435911
N	-0.3469120316	-0.7164411668	-1.1100833258	-0.198572
O	-0.4452653174	-2.0279515931	-0.5880721793	-0.22426
C	-0.0617892166	-1.9711265801	 0.6921004802	 0.462461
N	 0.2851803831	-0.7767543553	 1.0767589047	-0.407804
C	-0.0648132936	-3.2058413299	 1.4829933499	-0.116999
C	-1.1725138487	-4.1939994147	 1.2919298165	-0.22825
N	 0.1743826819	-4.502903815	 0.8217009804	-0.308726
H	 0.6282657853	 1.5337681864	 0.741560947	 0.321644
H	 0.3923185426	-3.089663576	 2.4590739788	 0.12826
H	-1.5067387882	-4.7672485472	 2.1514822093	 0.137276
H	-1.9413452852	-3.9470737847	 0.5659609634	 0.141386
H	 0.2322028546	-4.3624750678	-0.1848829329	 0.255613
60.225	156.4321	172.0138	312.7536	348.213	401.4246	429.7857	516.5944	652.6981	725.0558	763.0216	792.0862	821.9361	887.3344	930.4635	970.382	998.5484	1032.363	1060.8365	1110.1481	1134.2527	1173.745	1220.7401	1267.4501	1301.6937	1343.2681	1371.7323	1448.8559	1504.2828	1613.9167	1673.6503	3119.4081	3183.6368	3212.8007	3503.1869	3811.9358
OC1=NOC(=N1)C1CN1	Oc1noc(n1)[C@H]1CN1	
InChI=1S/C4H5N3O2/c8-4-6-3(9-7-4)2-1-5-2/h2,5H,1H2,(H,7,8)	InChI=1S/C4H5N3O2/c8-4-6-3(9-7-4)2-1-5-2/h2,5H,1H2,(H,7,8)/t2-/m1/s1
