17
gdb 65311	3.08961	1.17241	1.02789	1.1436	69.84	-0.2627	-0.0465	0.2162	1188.3834	0.132642	-458.92878	-458.919825	-458.918881	-458.962871	31.879	
C	-0.0253682274	 1.5825276028	 0.0108170915	-0.474907
C	-0.0556394732	 0.0782662647	 0.0623563723	 0.173592
O	 1.192042246	-0.6283318492	-0.1756911557	-0.295942
C	 0.6506064849	-0.684333903	 1.1137044926	 0.308237
C	 1.3414139669	-0.2041289729	 2.3877360199	-0.152749
O	 0.9333417884	-1.411217389	 3.0677070874	-0.270332
C	 0.3232896065	-1.9645950512	 1.8819528181	-0.160682
C	-1.2206006861	-0.6057619179	-0.5883501914	 0.128154
O	-2.2305662445	-0.0418949027	-0.9224118934	-0.247733
H	 0.8406024747	 1.9753995128	 0.5473546691	 0.130096
H	 0.0199656114	 1.9265795429	-1.0263358473	 0.145332
H	-0.9392219065	 1.9872834731	 0.4537680279	 0.148569
H	 2.4314373842	-0.1157218535	 2.3005566198	 0.122653
H	 0.9340950219	 0.6969503427	 2.8610839096	 0.117328
H	-0.7355898327	-2.2027442397	 2.0350345913	 0.119479
H	 0.8512663501	-2.852037806	 1.5107844732	 0.12205
H	-1.0656161147	-1.6959668241	-0.7444499749	 0.086855
77.3783	105.6806	143.8184	157.7406	195.1488	252.47	277.7631	416.4926	442.4761	457.6019	500.6433	598.6111	753.1003	823.5615	890.7329	921.2985	940.9754	997.5734	1002.39	1028.7422	1082.5612	1122.9713	1124.5828	1142.0334	1148.5539	1173.2155	1275.5038	1302.1445	1348.3519	1398.4555	1413.57	1470.2522	1482.3741	1498.9989	1511.0402	1525.4117	1825.9668	2897.9411	3014.8707	3025.6733	3053.8437	3068.7029	3069.2314	3123.5637	3139.2845
CC1(OC11COC1)C=O	C[C@]1(OC21COC2)C=O	
InChI=1S/C6H8O3/c1-5(2-7)6(9-5)3-8-4-6/h2H,3-4H2,1H3	InChI=1S/C6H8O3/c1-5(2-7)6(9-5)3-8-4-6/h2H,3-4H2,1H3/t5-/m0/s1
