14
gdb 132058	2.38439	1.89226	1.05575	3.784	71.92	-0.1944	-0.023	0.1714	1035.503	0.102913	-474.190211	-474.182681	-474.181737	-474.222002	29.184	
N	 0.0238057835	 1.3665537296	 0.1645639139	-0.56815
C	-0.0018699489	-0.0029115951	 0.0670646594	 0.258811
C	-1.1687928083	-0.7119496809	 0.041891132	 0.157211
F	-2.3353105562	-0.0508590962	 0.0527033237	-0.078394
C	-1.2114997434	-2.14787606	-0.0001832499	 0.282716
N	-2.2903376156	-2.8383020522	-0.0241355035	-0.562715
N	 0.1064246907	-2.6754528148	-0.014029201	-0.364417
C	 1.2262145898	-1.9098549737	-0.0034638827	 0.09864
N	 1.2353587898	-0.6208844016	 0.0355921677	-0.337939
H	 0.8814974144	 1.7936865699	-0.1485661262	 0.261079
H	-0.8238324967	 1.8481517728	-0.0903939764	 0.264367
H	-2.0990617657	-3.839569117	-0.0562900427	 0.195972
H	 0.1981100277	-3.6805015722	-0.0442727038	 0.258097
H	 2.1674611489	-2.4529284788	-0.0310156805	 0.134724
127.1071	184.6403	284.1239	288.055	322.6849	420.4342	491.2064	514.144	521.8005	537.9855	552.8149	599.126	678.7473	702.7455	754.1165	759.5467	891.8454	943.0858	998.6906	1048.8728	1185.9636	1205.7712	1265.8811	1338.335	1403.9052	1453.049	1466.9388	1616.2885	1639.7128	1690.2143	1735.8104	3168.1911	3475.4675	3587.5692	3611.9442	3706.812
NC1=C(F)C(=N)NC=N1	N[C@@H]1C(=C([NH])NC=N1)F	
InChI=1S/C4H5FN4/c5-2-3(6)8-1-9-4(2)7/h1H,(H4,6,7,8,9)	InChI=1S/C4H6FN4/c5-2-3(6)8-1-9-4(2)7/h1,3,7H,6H2,(H,8,9)/t3-/m0/s1
