18
gdb 29393	4.88886	0.87409	0.79161	1.1565	82.97	-0.2028	-0.0271	0.1757	1452.1944	0.147158	-402.003189	-401.993993	-401.993049	-402.038779	32.615	
C	-0.1797405957	 1.5417449644	-0.3175776841	-0.499397
C	-0.034512112	 0.074678364	-0.0451929854	 0.292006
C	 0.2335844717	-0.9091779002	-0.9713764493	-0.175051
N	 0.2745596864	-2.1170166761	-0.3210367997	-0.290632
C	 0.0356722917	-1.9308009119	 1.0204709899	 0.311617
C	 0.0391594572	-3.0915082733	 1.9702728942	-0.378447
C	 1.4169008105	-3.7326075955	 1.9286245336	 0.151756
O	 1.6840550141	-4.7028790327	 1.2643722338	-0.251542
C	-0.1524490694	-0.5803514081	 1.2173621903	-0.338385
H	 0.5442497224	 2.134778335	 0.2534680556	 0.123808
H	-0.0236297964	 1.7631257532	-1.3774723918	 0.1185
H	-1.1767525716	 1.9095457312	-0.0476643469	 0.124217
H	 0.3946663013	-0.8435812332	-2.0360054456	 0.115791
H	 0.4896455427	-3.0057453405	-0.7410311871	 0.269097
H	-0.1759978061	-2.7260408333	 2.9785964419	 0.125268
H	-0.7036431555	-3.8496760416	 1.696971582	 0.125433
H	 2.1987737133	-3.1961144474	 2.5103397882	 0.086965
H	-0.3675228645	-0.111164394	 2.1665708804	 0.088997
27.4061	54.9703	100.3191	145.3427	234.484	243.9947	340.8193	382.471	493.5008	505.2269	590.3801	639.6706	675.0273	719.1563	735.9449	807.9121	875.5647	984.0359	990.4948	1000.1707	1005.0465	1055.8667	1064.2656	1137.5702	1164.9558	1188.4849	1278.1167	1285.6143	1322.5126	1413.4974	1418.8027	1420.3715	1456.2444	1470.9847	1483.2056	1503.0942	1538.4779	1631.6901	1817.6237	2890.5598	3023.7707	3037.2811	3071.4345	3103.7053	3103.851	3235.2058	3257.0524	3668.612
CC1=CNC(CC=O)=C1	Cc1c[nH]c(CC=O)c1	
InChI=1S/C7H9NO/c1-6-4-7(2-3-9)8-5-6/h3-5,8H,2H2,1H3	InChI=1S/C7H9NO/c1-6-4-7(2-3-9)8-5-6/h3-5,8H,2H2,1H3
