18
gdb 92436	2.5832	1.63669	1.48605	2.8042	71.71	-0.2156	-0.0225	0.1931	982.9301	0.148822	-439.075356	-439.067683	-439.066738	-439.107452	29.542	
C	-0.2783235682	 1.4300968283	 0.0051850114	-0.330659
N	 0.1064559383	 0.0348075661	 0.0081375414	-0.072454
C	 0.7328687817	-0.4655185068	-1.2452399678	-0.181321
C	 1.8021484395	-1.4252363031	-0.7057417414	-0.020221
O	 2.8901063308	-0.6409281269	-0.1903088574	-0.288717
C	 2.3995094759	 0.0616762405	 0.9867228294	-0.095223
C	 0.9500232825	-0.4344565846	 1.1180908206	-0.144289
C	 1.1487862462	-1.8760216971	 0.6084858067	 0.455613
O	 0.9079289458	-2.9456279891	 1.0814793935	-0.319908
H	 0.5645107624	 2.130116409	-0.1416100315	 0.101297
H	-0.9964146836	 1.6038800955	-0.8028314649	 0.129175
H	-0.7713957237	 1.6819458639	 0.9494552778	 0.124613
H	-0.0073706772	-0.9595632898	-1.8869402715	 0.113124
H	 1.2205860145	 0.3340665492	-1.8222454111	 0.103213
H	 2.1884861563	-2.1844539931	-1.3810846785	 0.103036
H	 3.0156428605	-0.2085830605	 1.8531309875	 0.116351
H	 2.4776911708	 1.1419594197	 0.8220930199	 0.110025
H	 0.4778745974	-0.3173444913	 2.0916339958	 0.096343
104.8609	156.6805	207.2571	241.0235	307.4959	367.0218	423.3566	497.5149	521.1887	645.6391	702.3736	776.945	802.2947	856.2622	894.0262	905.4061	952.4331	1000.1897	1028.7643	1069.2935	1075.8959	1118.7586	1147.5579	1154.6369	1170.8147	1206.811	1224.1678	1235.9769	1264.7247	1296.2682	1322.9265	1366.3183	1368.4198	1457.3604	1484.5849	1501.5668	1510.9094	1523.9083	1910.0872	2937.4315	2989.6476	3023.6382	3039.9979	3059.8091	3065.7313	3103.1473	3142.9893	3161.1043
CN1CC2OCC1C2=O	CN1C[C@H]2OC[C@@H]1C2=O	
InChI=1S/C6H9NO2/c1-7-2-5-6(8)4(7)3-9-5/h4-5H,2-3H2,1H3	InChI=1S/C6H9NO2/c1-7-2-5-6(8)4(7)3-9-5/h4-5H,2-3H2,1H3/t4-,5-/m1/s1
