18
gdb 25907	4.06836	1.07374	0.85859	2.4767	82.77	-0.218	-0.027	0.191	1342.8669	0.147353	-402.024702	-402.015837	-402.014892	-402.058474	32.577	
C	-0.0071594038	 1.5172392988	-0.0020710686	-0.504301
C	 0.0613249492	 0.0043326555	 0.0225923316	 0.424382
O	 1.1014869623	-0.6103165236	 0.0508949889	-0.324254
N	-1.1696797809	-0.6716778021	 0.0110205587	-0.078674
C	-2.4509861085	-0.1287532563	-0.0199341839	-0.067451
C	-3.3454590647	-1.1561397934	-0.0200298503	-0.259212
C	-2.6064591348	-2.3929136945	 0.0119560427	 0.246533
C	-3.1854728467	-3.7740991891	 0.023069217	-0.495989
C	-1.2830159392	-2.0592562767	 0.0304063435	-0.158614
H	 1.0128891907	 1.8989761591	 0.0082597475	 0.153513
H	-0.5205750667	 1.8743229667	-0.8998766213	 0.150863
H	-0.5483842554	 1.901409776	 0.8678347048	 0.150945
H	-2.6040958137	 0.9363622441	-0.0388978925	 0.129115
H	-4.4207787075	-1.0552801984	-0.0406715855	 0.102823
H	-3.8030662483	-3.9584032886	-0.8636998051	 0.128058
H	-2.3980809427	-4.5323152999	 0.0442227099	 0.126561
H	-3.8270068469	-3.9342875015	 0.8974786003	 0.12813
H	-0.3895291025	-2.659110636	 0.0553948225	 0.147573
82.8142	116.0881	141.9518	161.3774	187.9842	280.8159	327.2142	395.7778	531.9386	566.1131	607.6997	632.792	639.693	686.471	704.2212	812.5088	839.505	940.9388	967.7482	1001.9409	1017.3774	1053.8131	1064.4176	1093.0267	1108.3585	1239.5644	1265.1236	1345.0321	1353.6429	1390.7176	1417.7278	1430.2171	1473.7649	1481.5565	1483.0108	1498.0834	1529.0131	1636.9376	1805.9711	3026.721	3050.9519	3075.4244	3112.2422	3116.1054	3167.2257	3239.4176	3288.1855	3291.476
CC(=O)N1C=CC(C)=C1	CC(=O)n1ccc(C)c1	
InChI=1S/C7H9NO/c1-6-3-4-8(5-6)7(2)9/h3-5H,1-2H3	InChI=1S/C7H9NO/c1-6-3-4-8(5-6)7(2)9/h3-5H,1-2H3
