23
gdb 121791	3.16478	0.70462	0.66623	1.1305	88.46	-0.2582	0.0611	0.3193	1788.5835	0.202105	-388.258692	-388.247202	-388.246258	-388.295466	41.861	
C	 0.0946169278	 1.579627861	-0.0012640626	-0.403866
C	 0.0438325631	 0.0344415257	 0.0390463877	 0.050285
C	 0.8641015124	-0.481298454	 1.2444389009	-0.403868
C	-1.4255391777	-0.481073822	 0.0938403799	-0.192892
C	-2.2486931674	-0.0520477997	 1.3131085051	-0.192948
C	-3.6665366022	-0.6096532703	 1.2646643764	-0.075895
O	-4.3497390988	-0.1633325513	 2.4264821635	-0.422294
C	 0.6449580173	-0.4871224326	-1.1952465169	 0.344785
C	 1.1306912118	-0.9176511023	-2.2076936209	-0.493755
H	 1.124612325	 1.9241504764	-0.1275965629	 0.12231
H	-0.4968609802	 1.9690855857	-0.8349581972	 0.119895
H	-0.2937829974	 2.0048928511	 0.9284401158	 0.117879
H	 0.479851789	-0.0670439775	 2.18081487	 0.117887
H	 0.8254863954	-1.5727657023	 1.3059336482	 0.11989
H	 1.9121345318	-0.1851146131	 1.1472498389	 0.122306
H	-1.9308845951	-0.147509713	-0.8209960361	 0.102408
H	-1.397328361	-1.5765583398	 0.0421400117	 0.102418
H	-1.783446772	-0.3953251502	 2.2433874211	 0.110094
H	-2.3179941756	 1.039154722	 1.3778308723	 0.110091
H	-4.1714587108	-0.2640732345	 0.3474592978	 0.084769
H	-3.6323211804	-1.7107794997	 1.220231458	 0.08477
H	-5.2450724121	-0.513004824	 2.4017538568	 0.285182
H	 1.5630091572	-1.2959441957	-3.1006544773	 0.190547
57.0059	80.0811	101.7473	142.8245	178.542	186.1039	256.6406	262.8099	264.258	288.6268	351.5696	363.3654	382.3389	476.3777	553.0273	574.218	625.3744	627.5904	726.7487	759.1865	863.512	888.3419	943.7049	971.052	1015.7882	1031.3713	1050.2643	1068.021	1082.9837	1192.9622	1204.672	1220.9871	1242.5835	1257.7748	1316.7068	1317.4001	1333.4374	1389.8295	1397.2618	1419.6531	1464.3362	1481.7958	1482.7086	1492.2256	1501.0926	1504.7494	1511.1603	1529.8325	2229.4485	2958.4592	2984.1617	3022.5634	3039.6846	3043.0275	3048.884	3056.335	3093.5797	3115.7694	3116.3141	3117.8953	3120.4077	3502.6672	3830.0792
CC(C)(CCCO)C#C	CC(C)(CCCO)C#C	
InChI=1S/C8H14O/c1-4-8(2,3)6-5-7-9/h1,9H,5-7H2,2-3H3	InChI=1S/C8H14O/c1-4-8(2,3)6-5-7-9/h1,9H,5-7H2,2-3H3
