18
gdb 123401	4.78529	0.94775	0.85062	3.004	78.39	-0.2506	-0.0068	0.2438	1364.5962	0.148735	-401.934411	-401.926431	-401.925487	-401.968409	29.582	
C	-0.0350304725	 1.4833738477	-0.3127310234	-0.347272
C	-0.1501036725	-0.0301411704	-0.204802402	 0.03449
C	-0.1689442297	-0.6940184741	 1.1464180303	-0.245438
C	-1.4235729746	-0.6525759262	 0.3084108409	-0.279106
C	 1.3722443854	 1.9745569087	-0.2137705158	 0.442722
C	 2.2610835717	 2.4693857436	-1.1196126301	-0.339495
C	 3.4256193969	 2.7150406049	-0.3459199073	 0.035586
N	 3.260237171	 2.4004592501	 0.9146359893	-0.141832
O	 1.9516894118	 1.9277020469	 1.0010228925	-0.205768
H	-0.4519491798	 1.8272331947	-1.2654126576	 0.119123
H	-0.6299275255	 1.9484701364	 0.4827453825	 0.123486
H	 0.3652398926	-0.5671383561	-0.9962808837	 0.090192
H	 0.3456459409	-1.641307249	 1.2604824101	 0.116113
H	-0.1176635591	-0.0554449266	 2.0214307459	 0.124422
H	-2.2217187868	 0.0126944644	 0.6218402269	 0.112065
H	-1.7691620579	-1.570630068	-0.1533964536	 0.114429
H	 2.1075273524	 2.6353123327	-2.1727211314	 0.116279
H	 4.3788449058	 3.1137166804	-0.6640450234	 0.130005
35.7379	70.6226	111.8634	282.3467	298.2748	338.7083	408.6755	648.3782	657.6695	748.7289	772.0127	802.7517	810.9722	842.668	892.0258	917.0938	921.49	944.3734	957.9422	992.7073	1020.0796	1054.9259	1059.196	1079.6722	1121.5873	1139.327	1196.1614	1212.489	1223.2767	1238.4083	1282.7255	1322.8343	1387.5018	1407.3691	1466.8699	1474.9098	1507.5269	1512.9131	1632.8361	3033.8626	3079.1898	3131.1951	3140.025	3146.7575	3211.0209	3227.5156	3242.196	3279.8756
C(C1CC1)C1=CC=NO1	C(C1CC1)c1ccno1	
InChI=1S/C7H9NO/c1-2-6(1)5-7-3-4-8-9-7/h3-4,6H,1-2,5H2	InChI=1S/C7H9NO/c1-2-6(1)5-7-3-4-8-9-7/h3-4,6H,1-2,5H2
