19
gdb 40224	2.18041	2.01233	1.27318	1.3223	74.84	-0.2348	0.0745	0.3093	1032.7288	0.159389	-422.99237	-422.984531	-422.983587	-423.025156	30.949	
C	 0.0425481798	 1.6151475246	-0.032197853	-0.3471
C	 1.18858435	 0.6338398355	 0.1352132793	-0.318899
C	-0.2260319887	 0.1477942438	-0.0422686463	 0.388933
O	-0.9094936305	-0.3767864588	 1.0727484819	-0.295695
C	-1.1184120447	-1.7634332024	 0.8118231939	-0.106527
C	-1.4765446116	-1.8204020192	-0.6789318081	-0.308908
C	-0.6281244622	-0.6854507364	-1.2484177915	 0.341625
C	-0.7329672626	-0.2055981927	-2.627671191	-0.251579
O	 0.3812632948	-1.0060850885	-2.2099910382	-0.27004
H	-0.2881094586	 2.1551854554	 0.848157899	 0.126249
H	-0.0396161945	 2.1700784288	-0.9605431851	 0.113912
H	 1.87188033	 0.4902551359	-0.6936813734	 0.129789
H	 1.6171729223	 0.532285852	 1.1256405953	 0.119948
H	-0.2035906086	-2.3395840835	 1.0185518563	 0.100874
H	-1.9112712022	-2.111295606	 1.4771782821	 0.111047
H	-1.240347442	-2.7713419879	-1.1605979372	 0.120728
H	-2.5406011796	-1.6061393559	-0.8197427521	 0.116175
H	-1.4260376501	-0.6901750192	-3.3155818237	 0.113487
H	-0.4994868111	 0.8303912444	-2.8688339982	 0.115982
35.9582	194.332	242.6503	258.4934	312.9152	396.3814	410.376	488.0483	557.3237	575.1544	643.4213	770.5485	796.1424	844.6223	874.8323	901.3216	917.5688	951.1658	964.0286	982.118	992.5581	1044.8811	1068.7823	1076.6285	1105.628	1127.8196	1147.6813	1169.8178	1194.2427	1208.5388	1246.3161	1255.0882	1309.0393	1357.8414	1387.976	1430.7463	1450.2408	1474.2766	1494.5054	1517.5491	1537.8417	2990.184	3057.2602	3077.4287	3107.2642	3122.7913	3133.3018	3140.9078	3161.8297	3218.3514	3238.913
C1CC11OCCC11CO1	C1CC21OCC[C@]12CO1	
InChI=1S/C7H10O2/c1-2-6(1)7(5-9-7)3-4-8-6/h1-5H2	InChI=1S/C7H10O2/c1-2-6(1)7(5-9-7)3-4-8-6/h1-5H2/t7-/m1/s1
