20
gdb 70852	3.5864	1.57524	1.31877	1.7761	81.29	-0.2165	0.0746	0.2911	1035.4913	0.171614	-365.969326	-365.961651	-365.960706	-366.000772	31.469	
C	-0.0081629764	 1.4623058514	 0.0986127832	-0.496657
C	-0.0458756905	-0.0398494971	 0.0000635335	 0.32015
C	-1.2395542752	-0.7913098869	-0.5563121983	-0.34479
C	-0.7136638023	-2.2084849455	-0.453912075	 0.328967
C	-1.4766474453	-3.3844369126	-0.9981037036	-0.488519
C	 0.2021743029	-2.3252594437	 0.7139955279	-0.097996
C	 0.654973337	-0.899295819	 1.052187501	-0.154839
C	 1.1960377245	-0.8219150716	-0.3518544925	-0.062069
N	 0.7741999468	-2.2369654997	-0.6738287125	-0.202102
H	 0.9508386257	 1.8084608583	 0.4978847145	 0.119767
H	-0.1450736778	 1.9276630795	-0.8841300444	 0.120716
H	-0.7963190456	 1.8398426082	 0.7598106938	 0.119956
H	-2.1487054844	-0.6507617174	 0.0403053203	 0.100392
H	-1.4596252273	-0.5081467329	-1.592683525	 0.100924
H	-1.6626916097	-3.2666916167	-2.070994979	 0.122592
H	-0.9116572971	-4.3094343953	-0.8563147359	 0.130223
H	-2.4438419217	-3.4901668263	-0.4946583689	 0.115938
H	 0.3305021169	-3.2120530936	 1.3252476362	 0.087773
H	 1.0488413075	-0.5277856922	 1.9880302996	 0.08789
H	 2.111481802	-0.4174880168	-0.764563315	 0.091686
193.7484	205.936	213.8413	239.3684	301.1902	339.6495	421.0504	540.7139	549.5567	605.4373	709.513	751.9972	776.3423	796.2659	840.4885	884.3468	901.7275	927.675	931.3552	968.3131	987.8717	1008.2637	1032.9223	1043.7194	1068.4621	1085.6525	1124.7539	1158.9551	1195.4911	1203.4464	1217.5651	1245.7662	1315.441	1326.7008	1378.6248	1411.0623	1419.21	1422.8795	1486.8344	1490.3721	1491.3972	1495.2066	1502.6173	3024.2177	3029.8191	3034.5039	3071.7454	3084.5115	3095.2475	3096.0577	3117.2368	3165.4249	3189.2352	3210.0625
CC12CC3(C)C4C1C2N34	C[C@]12C[C@]3(C)[C@@H]4[C@H]1[C@H]2N34	
InChI=1S/C8H11N/c1-7-3-8(2)6-4(7)5(7)9(6)8/h4-6H,3H2,1-2H3	InChI=1S/C8H11N/c1-7-3-8(2)6-4(7)5(7)9(6)8/h4-6H,3H2,1-2H3/t4-,5-,6+,7+,8-,9?/m1/s1
