13
gdb 42877	3.22945	1.46955	1.46651	4.7276	58.52	-0.2678	-0.0669	0.2009	913.1353	0.089523	-493.722578	-493.715918	-493.714974	-493.75391	25.221	
O	-0.0011757494	 0.0648145034	-0.1362628156	-0.279725
C	-0.0164592336	 1.2537773464	-0.0896969593	 0.4161
C	-1.0909420162	 2.357088619	 0.0977282064	-0.001486
C	-0.0266023819	 3.0676777638	 0.9725302866	-0.2873
C	 1.0327381247	 2.3854922733	 0.0695035073	-0.001486
O	 1.1017373725	 3.0977364641	-1.1838374944	-0.268638
C	-0.0684074385	 3.4561965344	-1.7821580898	 0.488185
O	-0.0901463995	 4.0716339006	-2.7985762917	-0.343749
O	-1.2122367417	 3.0667855628	-1.1530866002	-0.268638
H	-2.098565089	 2.14512232	 0.4475571882	 0.127265
H	-0.0412608481	 4.1586635825	 0.9674759599	 0.147779
H	-0.0078356207	 2.678371792	 1.9928339428	 0.144428
H	 2.0546069214	 2.2006671279	 0.3923629098	 0.127264
100.6733	178.6954	242.0826	415.1084	430.7062	442.2882	536.507	545.4837	683.3828	767.514	799.8468	830.2751	843.7423	897.4718	969.7166	971.5805	1016.9067	1093.4737	1094.469	1133.7645	1134.4315	1148.7236	1238.9091	1247.3306	1342.3073	1351.7257	1464.446	1907.0847	1922.1322	3081.0145	3150.0877	3156.307	3157.9287
O=C1C2CC1OC(=O)O2	O=C1[C@H]2C[C@@H]1OC(=O)O2	
InChI=1S/C5H4O4/c6-4-2-1-3(4)9-5(7)8-2/h2-3H,1H2	InChI=1S/C5H4O4/c6-4-2-1-3(4)9-5(7)8-2/h2-3H,1H2/t2-,3+
