18
gdb 23343	3.90861	0.97365	0.90014	1.4146	77.52	-0.2369	0.0281	0.265	1332.2784	0.146505	-438.967285	-438.958647	-438.957703	-439.00083	32.203	
C	-0.2255305603	 1.27789735	 0.1419667493	-0.246902
O	 0.386833681	 0.0299478738	-0.1153889497	-0.253804
C	 0.8828833148	-0.585601368	 1.0325799725	 0.180371
C	-0.1107702501	-1.4035587265	 1.960730458	-0.202252
C	-0.2059952055	-2.4260133724	 0.7692054336	-0.230804
C	 1.3247337237	-2.0689594651	 0.8484515807	-0.187451
C	 1.1370750602	-2.1724843641	 2.3459600784	 0.50207
N	 1.7604726794	-2.6870660441	 3.3117936419	-0.322299
O	 1.0665523798	-2.4755031989	 4.532037179	-0.405292
H	 0.4700181691	 1.9737439462	 0.6346885705	 0.112038
H	-0.5215279941	 1.6960321218	-0.8224818388	 0.132301
H	-1.117931225	 1.1727516789	 0.7754204369	 0.113115
H	 1.5858067661	 0.0707977896	 1.562581172	 0.081977
H	-0.9045224251	-1.0367534161	 2.6056360367	 0.095458
H	-0.4806549988	-3.4491764537	 1.0270313197	 0.110945
H	-0.7190583247	-2.0596327139	-0.1181320258	 0.122404
H	 2.1409864821	-2.4465484153	 0.2374122173	 0.094463
H	 1.6441883575	-2.9177225122	 5.1629341779	 0.303663
89.1289	100.7972	152.5153	195.7868	251.9767	306.255	356.2016	382.2918	426.5468	511.5016	597.6056	710.1167	721.7766	780.4098	813.4908	882.0168	924.7361	942.1948	1009.1507	1030.1106	1046.3161	1066.8156	1093.1528	1123.6463	1142.5895	1154.9165	1182.7888	1196.0447	1208.1637	1224.6719	1246.088	1254.7772	1400.2411	1408.1505	1481.3259	1488.2747	1501.9135	1510.6657	1830.5499	2984.8759	3020.1709	3036.8998	3090.2179	3122.9936	3154.293	3161.3405	3170.6003	3820.9906
COC1C2CC1C2=NO	CO[C@H]1[C@H]2C[C@@H]1C2=NO	
InChI=1S/C6H9NO2/c1-9-6-3-2-4(6)5(3)7-8/h3-4,6,8H,2H2,1H3	InChI=1S/C6H9NO2/c1-9-6-3-2-4(6)5(3)7-8/h3-4,6,8H,2H2,1H3/t3-,4+,6-
