21
gdb 94441	2.43575	1.27332	1.26231	0.3486	77.83	-0.2485	0.0658	0.3143	1173.5169	0.181246	-424.193451	-424.18424	-424.183296	-424.227831	34.143	
C	-0.3340418807	 1.4255117739	-0.0684260152	-0.408531
C	 0.208242533	 0.0115281544	-0.1378104456	 0.100365
O	 1.5082014642	-0.0446161802	-0.7766013928	-0.297023
C	 2.0901833552	-0.712409906	 0.3579817879	-0.137063
C	 0.774284638	-0.6486114728	 1.1451580234	 0.187684
C	 0.6720705683	-0.0168734266	 2.5428536208	-0.135784
O	 0.0236236977	-1.1846004411	 3.0802866672	-0.295613
C	 0.1460178912	-1.8907604685	 1.8215137508	 0.097923
C	-1.1858561469	-2.420799658	 1.3297401602	-0.407165
H	 0.348911398	 2.0865066012	 0.4737800025	 0.121065
H	-0.4582241614	 1.8221780458	-1.0807565172	 0.130573
H	-1.3107042577	 1.445778654	 0.4275150745	 0.120265
H	-0.503518836	-0.6362288073	-0.6687413509	 0.07519
H	 2.4330604576	-1.7272740178	 0.1120458964	 0.099145
H	 2.9314676537	-0.1491523626	 0.7833855763	 0.101475
H	 1.6390086745	 0.1802721982	 3.0263221014	 0.098422
H	 0.0447859663	 0.8784351457	 2.631306152	 0.105146
H	 0.8669641384	-2.7175301043	 1.9158005773	 0.072256
H	-1.910745315	-1.6114825323	 1.1997589043	 0.120503
H	-1.0702002264	-2.9468203174	 0.3759476141	 0.120525
H	-1.5924506319	-3.1271876683	 2.0600788328	 0.130643
57.4542	71.949	162.6626	218.0793	238.7612	248.7644	271.3845	370.2888	383.359	479.675	499.3857	505.6237	766.5686	782.9627	875.4193	883.8005	889.2102	915.2776	993.6317	1022.5106	1031.8144	1037.1878	1084.4661	1093.3826	1114.8243	1122.5332	1156.1792	1159.4859	1198.0738	1202.2974	1251.1067	1290.2813	1292.7944	1361.4883	1375.7876	1380.6832	1384.2025	1405.0224	1406.4595	1480.3274	1483.6209	1492.9786	1494.8446	1518.3831	1525.4848	2978.9898	2993.2877	3001.6832	3004.0722	3033.9691	3035.5483	3037.2637	3050.1698	3106.4004	3107.9653	3113.7174	3114.4022
CC1OCC11COC1C	C[C@H]1OC[C@]21CO[C@H]2C	
InChI=1S/C7H12O2/c1-5-7(3-8-5)4-9-6(7)2/h5-6H,3-4H2,1-2H3	InChI=1S/C7H12O2/c1-5-7(3-8-5)4-9-6(7)2/h5-6H,3-4H2,1-2H3/t5-,6+,7-/m1/s1
