16
gdb 80103	2.70316	1.53212	1.26026	2.9098	74.83	-0.2438	-0.0078	0.236	1026.6697	0.125422	-396.939539	-396.931464	-396.93052	-396.972112	30.11	
C	-0.1108466228	 1.5310587476	 0.0133514154	-0.414968
C	 0.0736464795	 0.032832185	 0.0112814535	-0.076154
C	 1.3922408546	-0.6595569891	-0.2481835843	-0.065508
N	 2.6181275124	 0.0528564031	-0.0757872099	-0.226829
C	 2.6945868628	 0.4097461277	 1.1550971669	 0.035774
N	 1.6346588801	 0.0635200134	 1.9700684133	-0.348282
C	 0.7119515252	-0.7092001642	 1.1738972954	 0.193335
C	 0.1012876299	-1.8506654006	 1.7781166758	 0.20633
N	-0.3975779978	-2.7731445986	 2.2689794182	-0.343553
H	 0.7822958931	 2.0550252275	 0.3569968415	 0.139018
H	-0.3312429931	 1.878456821	-1.0006460393	 0.131943
H	-0.9456074431	 1.8176234978	 0.6605682646	 0.128139
H	-0.7612036634	-0.523804014	-0.4061121881	 0.114439
H	 1.4131171887	-1.5096881928	-0.9208245992	 0.119916
H	 3.5156532388	 0.9864179731	 1.5673874287	 0.140666
H	 1.756837985	-0.1408305066	 2.9497274875	 0.265733
112.0763	131.8116	163.9767	223.7928	237.0236	357.0076	443.1345	469.1674	493.8435	566.0315	583.8936	671.3705	698.9288	775.2011	878.8185	923.247	928.7635	963.4017	1029.5649	1039.9393	1100.1448	1110.6025	1139.4038	1153.1174	1234.6223	1247.836	1330.5937	1352.6261	1391.5011	1420.7654	1452.5786	1488.6968	1497.5791	1641.7652	2342.3993	3047.2044	3108.032	3136.0574	3153.284	3177.393	3205.0417	3631.5941
CC1C2N=CNC12C#N	C[C@H]1[C@H]2N=CN[C@@]12C#N	
InChI=1S/C6H7N3/c1-4-5-6(4,2-7)9-3-8-5/h3-5H,1H3,(H,8,9)	InChI=1S/C6H7N3/c1-4-5-6(4,2-7)9-3-8-5/h3-5H,1H3,(H,8,9)/t4-,5+,6-/m0/s1
