15
gdb 16928	3.78553	2.21959	2.02119	3.4535	61.59	-0.2544	0.0182	0.2726	724.8931	0.122002	-399.809689	-399.803892	-399.802948	-399.839453	23.358	
N	-0.0649696393	 1.2852122634	-0.0866834996	-0.563416
C	-0.0342304554	 0.0291255535	-0.020781093	 0.455951
O	 1.0986162919	-0.7600825338	 0.0427208964	-0.265325
C	 0.6252548872	-2.1317071814	 0.1101391578	 0.060449
C	-0.0302767588	-2.2915808099	 1.4851715201	-0.07845
O	-1.2225110873	-1.4927443004	 1.3621934189	-0.278351
C	-1.1972020109	-0.9461304874	 0.0274691984	 0.011719
C	-0.6120770464	-2.0970293595	-0.8037557411	-0.252222
H	 0.8811665688	 1.6728676289	-0.0795822849	 0.224496
H	 1.4492672447	-2.8009180552	-0.1271918668	 0.099952
H	-0.2960493983	-3.3319573957	 1.7087671786	 0.108808
H	 0.6076289192	-1.8982504573	 2.2833003342	 0.12042
H	-2.1702901536	-0.5289435207	-0.213032688	 0.110531
H	-0.3675259157	-1.8283897087	-1.8327973535	 0.125938
H	-1.2203347163	-3.0022041358	-0.7681702576	 0.1195
158.9441	278.3267	412.9779	422.0468	476.2625	590.6406	701.7533	738.8472	825.954	868.0311	873.5544	887.9349	920.4269	946.3073	953.136	971.5149	977.5374	1046.7464	1062.9185	1093.0795	1131.276	1192.1646	1221.0177	1252.5891	1280.8037	1295.1562	1304.8951	1363.6337	1371.6785	1479.9929	1514.2055	1801.0176	3028.0147	3080.8592	3084.7923	3148.3657	3153.0176	3181.7714	3460.7119
N=C1OC2COC1C2	[NH][C]1O[C@H]2CO[C@@H]1C2	
InChI=1S/C5H7NO2/c6-5-4-1-3(8-5)2-7-4/h3-4,6H,1-2H2	InChI=1S/C5H7NO2/c6-5-4-1-3(8-5)2-7-4/h3-4,6H,1-2H2/t3-,4-/m1/s1
