16
gdb 50177	3.06412	1.43405	1.31065	4.9868	69.88	-0.2519	-0.0456	0.2063	1012.1915	0.124739	-437.861608	-437.85418	-437.853236	-437.894008	27.699	
O	-0.2984994566	 0.1426303861	-0.1906315924	-0.2273
C	 0.0533670752	 1.1694964116	 0.322544408	 0.162559
C	 1.3286439086	 1.9086660415	-0.0014706745	-0.036203
O	 2.2894309455	 1.1142256531	-0.7790283391	-0.256933
C	 1.965796787	 1.8598681647	-1.8820799327	 0.456873
N	 1.8703627674	 1.6586079884	-3.1197548539	-0.301204
C	 0.9359913847	 2.7479904392	-3.5477062357	-0.156114
C	 0.1207711008	 3.1595211293	-2.2590152637	-0.271431
C	 1.2073206304	 2.942432251	-1.1940009686	-0.169364
H	-0.5743889906	 1.7046940513	 1.0721064961	 0.086462
H	 1.7925583779	 2.3121285272	 0.902710034	 0.115797
H	 1.4914401722	 3.5986164097	-3.9633859526	 0.112219
H	 0.2846646745	 2.3623455704	-4.3351715291	 0.125373
H	-0.2768744137	 4.1758177133	-2.2995620197	 0.109904
H	-0.7119181502	 2.4614061955	-2.1297866074	 0.132382
H	 1.7835867469	 3.8436313777	-0.9735155188	 0.116981
71.0306	121.5902	205.4249	239.3933	312.0961	406.9558	477.8266	610.1252	658.5997	708.3355	759.0173	785.9609	846.1728	873.3346	894.8735	932.0254	978.3908	988.5893	1033.2749	1062.0177	1097.2328	1140.8557	1162.2585	1188.6657	1225.3603	1284.9628	1300.8196	1306.5155	1336.4743	1361.7156	1418.0902	1482.0763	1500.9605	1782.9228	1842.5443	2868.4848	3027.842	3062.378	3079.6748	3091.7235	3104.218	3123.2007
O=CC1OC2=NCCC12	O=C[C@H]1O[C]2[N]CC[C@@H]12	
InChI=1S/C6H7NO2/c8-3-5-4-1-2-7-6(4)9-5/h3-5H,1-2H2	InChI=1S/C6H7NO2/c8-3-5-4-1-2-7-6(4)9-5/h3-5H,1-2H2/t4-,5+/m0/s1
