19
gdb 103585	3.38691	1.04938	1.01527	2.4567	78.3	-0.241	-0.0542	0.1867	1265.0034	0.158029	-423.064919	-423.055846	-423.054902	-423.099069	34.231	
C	-0.159913989	 1.5784117986	 0.0052819527	-0.395929
C	 0.0094454963	 0.0568041211	 0.0137097004	-0.199512
C	 0.7656945907	-0.5003699455	 1.2319769621	 0.352504
O	 0.0121252829	-0.0852972834	 2.3757201019	-0.467375
C	 0.9524855954	-2.0374491841	 1.1534498564	-0.404718
C	 2.4675793491	-2.2837723756	 1.1510713085	 0.376293
O	 3.0185115739	-3.3538528302	 1.0473217645	-0.32341
C	 3.1167214816	-0.9562947661	 1.2977628369	-0.194234
C	 2.194625758	 0.0108155691	 1.3365169669	-0.109101
H	 0.8004926163	 2.0965189864	-0.0852616739	 0.111599
H	-0.7776063313	 1.8884537974	-0.8426629026	 0.114826
H	-0.6439945338	 1.9166937086	 0.9241518747	 0.139287
H	-0.9776090014	-0.4207163476	 0.0089500283	 0.112199
H	 0.5277776152	-0.275859836	-0.8928665299	 0.102108
H	 0.497398181	-0.3482919919	 3.1653016913	 0.279015
H	 0.4964024859	-2.5260142043	 2.0196288222	 0.131651
H	 0.5027746443	-2.4851120321	 0.262703526	 0.131044
H	 4.1918552657	-0.8415832345	 1.3608121586	 0.120764
H	 2.3918840392	 1.0705598303	 1.4561190648	 0.122988
39.8675	107.004	176.0048	229.5996	246.9571	325.8557	349.6362	364.3701	378.4665	429.5268	519.6295	596.3295	620.8372	684.9531	782.7623	802.2785	831.2351	842.3845	893.4663	971.3902	999.7638	1010.4625	1039.2958	1063.0233	1099.4149	1131.9036	1158.1421	1199.9236	1218.9122	1252.5406	1313.3937	1337.9273	1372.1756	1390.7173	1408.491	1449.7222	1474.5769	1498.5355	1509.3114	1648.5199	1819.3081	3033.0983	3042.8733	3064.3811	3072.8454	3104.7996	3107.054	3132.3314	3192.8649	3222.5628	3805.4558
CCC1(O)CC(=O)C=C1	CC[C@@]1(O)CC(=O)C=C1	
InChI=1S/C7H10O2/c1-2-7(9)4-3-6(8)5-7/h3-4,9H,2,5H2,1H3	InChI=1S/C7H10O2/c1-2-7(9)4-3-6(8)5-7/h3-4,9H,2,5H2,1H3/t7-/m0/s1
