22
gdb 7201	5.35362	0.74642	0.68463	0.4062	76.07	-0.2515	0.0797	0.3312	1673.383	0.197843	-387.327874	-387.31726	-387.316315	-387.363972	36.709	
C	-0.0616912297	 1.3920041834	-0.0054783542	-0.227235
O	-0.0046387907	-0.0125931533	 0.0004271999	-0.234455
C	-1.2807332215	-0.6166209009	 0.0182144097	-0.0523
C	-1.1190710088	-2.1370210374	 0.0648362502	 0.0003
C	-0.3664614375	-2.563944778	 1.3333800163	-0.391531
C	-2.4969020431	-2.8034014434	-0.075706462	-0.170197
C	-2.4514226373	-4.3191925731	-0.2260930774	-0.085233
O	-3.7801294955	-4.7644359053	-0.4624209051	-0.421529
H	 0.9661592072	 1.7631660268	-0.0222488706	 0.12495
H	-0.5922849175	 1.7770303683	-0.8913193866	 0.102152
H	-0.5671509636	 1.7859330394	 0.8910320644	 0.102393
H	-1.8560584014	-0.2684904255	 0.8954764346	 0.080434
H	-1.8518300321	-0.3223176861	-0.8791762398	 0.081907
H	-0.5091228387	-2.4118972468	-0.8073531832	 0.08047
H	-0.1099725613	-3.6270375464	 1.3170409746	 0.109631
H	 0.5588926467	-1.9923337592	 1.432002076	 0.132483
H	-0.9758530628	-2.3806974411	 2.2271664698	 0.107481
H	-3.1242456052	-2.5581770677	 0.7912429683	 0.101218
H	-3.0140376915	-2.4031926795	-0.9566663072	 0.102824
H	-1.786532384	-4.587833564	-1.0641896272	 0.083324
H	-2.0373619592	-4.784779585	 0.6808517482	 0.088397
H	-3.7684269127	-5.7239937451	-0.5221884086	 0.284515
69.4358	81.6547	93.5972	121.3594	134.7478	228.7613	246.7606	252.559	264.5	319.5522	332.0686	390.5156	470.0611	560.07	796.1825	861.6016	929.2989	947.3938	984.4874	996.9473	1036.0282	1067.448	1125.5279	1161.832	1170.2238	1178.3518	1194.3946	1219.311	1241.1999	1251.4083	1278.1168	1307.4586	1321.2886	1369.5204	1380.2452	1403.7949	1425.0298	1464.4504	1480.3606	1485.4674	1490.3285	1496.1021	1503.8831	1509.8504	1527.5614	1530.1968	2937.3125	2960.5003	2966.2263	2970.0243	2999.1772	3008.0303	3010.6868	3023.1692	3031.6294	3066.3091	3099.2698	3110.5572	3129.006	3830.1697
COCC(C)CCO	COC[C@@H](C)CCO	
InChI=1S/C6H14O2/c1-6(3-4-7)5-8-2/h6-7H,3-5H2,1-2H3	InChI=1S/C6H14O2/c1-6(3-4-7)5-8-2/h6-7H,3-5H2,1-2H3/t6-/m0/s1
