20
gdb 31954	2.92436	1.09036	0.85209	1.2458	85.53	-0.1723	0.0409	0.2132	1421.7392	0.17099	-403.180686	-403.171128	-403.170184	-403.215831	34.649	
C	-0.2510346171	 1.5583536266	-0.2299865171	-0.368307
C	 0.0650891088	 0.0611062949	-0.0642429911	-0.293692
C	 0.8750414399	-0.5075974956	-1.1749372289	 0.355128
C	 2.1075393035	-1.0655010487	-1.2670086959	-0.260123
C	 2.3073580709	-1.4444154011	-2.6395357938	-0.291427
C	 1.1705324997	-1.0677244669	-3.2923482104	 0.403225
N	 0.7931676434	-1.0749145599	-4.624684086	-0.387042
C	-0.5983929897	-1.3785287421	-4.9510874684	-0.329635
O	 0.2901517422	-0.5010681509	-2.4290979847	-0.216576
H	 0.669507264	 2.1488761418	-0.2650401917	 0.119535
H	-0.7989368106	 1.7369344053	-1.1594297991	 0.12754
H	-0.8623648125	 1.922238147	 0.6018361508	 0.107591
H	 0.6183702727	-0.1043590826	 0.8661750012	 0.110235
H	-0.8779140014	-0.4948738193	 0.032612041	 0.107898
H	 2.7979737652	-1.2070875346	-0.4493724172	 0.099311
H	 3.1675386737	-1.9299145183	-3.0719608332	 0.090273
H	 1.4520177605	-1.5996772686	-5.1822134334	 0.240616
H	-0.9155223364	-2.3850013178	-4.6374256602	 0.112239
H	-1.249643038	-0.6498371746	-4.4652494661	 0.150169
H	-0.7317157789	-1.2879270347	-6.0316648458	 0.12304
51.6969	76.903	127.2627	150.442	174.3281	222.5205	307.4849	323.1246	404.2259	467.7326	587.2244	621.4095	670.6148	696.6288	735.9946	746.4636	787.3678	814.4257	945.5492	973.8636	992.4165	1028.0201	1057.2044	1082.2913	1094.8944	1148.6826	1154.0962	1225.7803	1232.74	1292.4778	1310.9914	1358.9492	1395.6735	1406.3047	1450.493	1471.9459	1485.4796	1490.4455	1495.7589	1506.7635	1516.1664	1635.3683	1664.9429	2985.5679	3008.9437	3038.7213	3073.6379	3094.7626	3109.3219	3119.7456	3138.8863	3245.1766	3261.0572	3597.0952
CCC1=CC=C(NC)O1	CCc1ccc(NC)o1	
InChI=1S/C7H11NO/c1-3-6-4-5-7(8-2)9-6/h4-5,8H,3H2,1-2H3	InChI=1S/C7H11NO/c1-3-6-4-5-7(8-2)9-6/h4-5,8H,3H2,1-2H3
