22
gdb 100306	1.97383	1.51074	1.08152	1.65	77.47	-0.236	0.0726	0.3085	1217.6092	0.192063	-441.436778	-441.426226	-441.425282	-441.472708	38.963	
C	-0.1335634476	 1.6453500746	 0.0590103745	-0.436619
C	 0.0061740599	 0.115028277	 0.0721544719	 0.213399
C	 0.670900665	-0.3549974594	 1.3822981635	-0.073907
O	 1.9515958789	 0.2102768366	 1.6119947067	-0.426875
C	-1.390040999	-0.5401472167	 0.0030104702	-0.071191
O	-2.0880492934	-0.2509800226	-1.1963435084	-0.427536
N	 0.7870002639	-0.4807104213	-1.0363381755	-0.112824
C	 0.8134962948	 0.1258808213	-2.3649349761	-0.24484
C	 2.0282318221	 0.1291199526	-1.5076989333	-0.251541
H	 0.836604861	 2.1461292963	 0.0694700353	 0.125719
H	-0.7147944243	 1.9807053087	-0.8024184425	 0.130069
H	-0.6684871664	 1.9688839452	 0.9575423807	 0.117129
H	 0.0489953464	-0.0447795592	 2.2292287411	 0.105174
H	 0.7193986924	-1.4529651155	 1.3817245415	 0.093911
H	 2.5688163719	-0.2251523506	 1.0171424788	 0.291957
H	-1.2826283374	-1.6254139041	 0.1427117755	 0.090872
H	-2.0130828369	-0.1531535827	 0.8165330661	 0.104448
H	-1.6385022711	-0.7236459453	-1.9036020565	 0.292627
H	 0.7311134036	-0.5687793984	-3.1977757833	 0.113139
H	 0.3219005566	 1.0815318668	-2.5218612896	 0.125913
H	 2.3364093966	 1.0880277873	-1.1002491922	 0.126921
H	 2.842993203	-0.5641434408	-1.7043731884	 0.114054
27.6123	104.1262	112.619	192.2598	195.9593	234.9244	281.941	296.2491	329.6089	359.3509	389.0928	406.1749	414.2454	466.7609	642.8022	652.5438	820.1269	842.6198	886.7871	897.1738	950.6353	972.2429	980.8898	1038.766	1050.3455	1085.25	1107.2914	1122.5249	1136.389	1168.45	1170.1916	1194.4473	1215.1585	1232.1891	1279.5901	1325.9344	1386.7912	1391.1926	1411.4304	1418.3043	1429.9841	1482.5337	1483.7502	1487.402	1499.4858	1512.9879	1523.8513	2995.0447	3006.9032	3050.5139	3067.2824	3077.3616	3099.6979	3104.63	3112.8321	3139.2869	3180.4291	3195.112	3828.6729	3836.9486
CC(CO)(CO)N1CC1	CC(CO)(CO)N1CC1	
InChI=1S/C6H13NO2/c1-6(4-8,5-9)7-2-3-7/h8-9H,2-5H2,1H3	InChI=1S/C6H13NO2/c1-6(4-8,5-9)7-2-3-7/h8-9H,2-5H2,1H3
