17
gdb 36675	3.25154	0.83018	0.69903	3.1472	79.89	-0.2625	0.0074	0.2699	1558.9475	0.134298	-380.815335	-380.806069	-380.805125	-380.850305	33.173	
C	-0.2249024177	-1.2072906004	 0.0320701113	-0.432282
C	-0.1253140439	-0.0140260875	 0.1318937368	 0.291539
C	 0.0283186789	 1.430531026	 0.2381755421	-0.354039
C	 1.3940981007	 1.9078879547	-0.284823116	-0.146623
N	 1.4630633148	 3.3649569942	-0.1795367266	-0.072087
C	 2.0154523196	 3.923523768	 1.0401192432	-0.241784
C	 2.7795285922	 4.009014158	-0.2491199492	-0.151849
C	 3.9847269704	 3.2284534692	-0.3994807629	 0.285393
N	 4.9515964366	 2.6115146317	-0.5502162303	-0.331658
H	-0.3240243711	-2.2611488029	-0.0519977366	 0.199498
H	-0.7625723093	 1.9413806306	-0.3231598416	 0.145453
H	-0.0865202767	 1.740438678	 1.2848572051	 0.133397
H	 2.2012218806	 1.4015794358	 0.2653140213	 0.123436
H	 1.4988814629	 1.6387058512	-1.3398748925	 0.13376
H	 1.5336645816	 4.8168927929	 1.4260865882	 0.137086
H	 2.4064012394	 3.2393332367	 1.7914122488	 0.137615
H	 2.7951765608	 4.9455747137	-0.799391611	 0.143145
66.779	79.7813	85.7703	158.9096	209.1865	266.5516	339.7408	360.9317	405.3557	498.5386	556.7285	625.6152	636.4189	650.9478	760.9916	788.6161	836.7106	908.6277	975.5293	1021.4103	1029.1184	1055.3396	1079.3539	1120.3111	1129.3494	1148.3312	1241.8345	1301.9981	1315.1666	1321.0769	1368.6618	1397.4915	1474.4797	1492.6771	1510.6479	2243.033	2351.244	2997.8232	3027.1852	3063.8431	3093.5033	3100.582	3150.9767	3196.2414	3506.6444
C#CCCN1CC1C#N	C#CCCN1C[C@H]1C#N	
InChI=1S/C7H8N2/c1-2-3-4-9-6-7(9)5-8/h1,7H,3-4,6H2	InChI=1S/C7H8N2/c1-2-3-4-9-6-7(9)5-8/h1,7H,3-4,6H2/t7-,9?/m1/s1
