18
gdb 9953	3.21	1.41979	1.33065	1.9116	63.56	-0.2361	0.0512	0.2873	1008.284	0.151446	-422.044159	-422.034815	-422.03387	-422.077751	34.077	
C	-0.0187518235	 1.5746733637	 0.1685457137	-0.483233
C	-0.0447440253	 0.0633108314	 0.0819190366	 0.225385
C	-1.31161836	-0.5389629969	-0.4916720067	-0.137022
O	-1.5168740154	-0.2238690333	-1.8644443729	-0.420329
C	 1.2387309747	-0.6899872341	-0.2356505442	-0.006489
O	 2.4605472997	-0.0033066099	-0.3013207309	-0.432416
C	 0.6717969976	-0.7463179812	 1.1578975398	 0.061883
O	 1.3790321525	-0.0961512722	 2.1649629677	-0.4351
H	 0.8290321117	 1.9252614269	 0.7584937516	 0.131906
H	 0.038340101	 2.0392284021	-0.8239900915	 0.103208
H	-0.9282740688	 1.9432518778	 0.6569364031	 0.121279
H	-1.263054836	-1.6325559156	-0.4488694408	 0.105165
H	-2.1756616053	-0.2304055113	 0.1185540837	 0.091825
H	-1.7241726749	 0.713600269	-1.9228189097	 0.284834
H	 1.1774871106	-1.5620904896	-0.8843660985	 0.09658
H	 2.4279912548	 0.6222720837	-1.0321073216	 0.298996
H	 0.2064113669	-1.6664717087	 1.5026671191	 0.095653
H	 2.2251408397	 0.1622799783	 1.7735526314	 0.297876
84.3678	129.1958	151.4281	207.2015	234.2569	272.4067	278.94	309.7714	351.1313	373.4939	443.0918	502.1727	604.9085	649.8687	723.4045	854.3168	870.8984	961.6811	979.1936	1008.3489	1058.3001	1085.0296	1109.9407	1142.2941	1168.5327	1207.9987	1248.1107	1288.2853	1338.0812	1350.7058	1379.481	1399.1776	1414.9867	1427.4944	1454.7282	1491.6695	1502.1435	1506.4533	2977.484	3020.2887	3065.1631	3074.8086	3114.7203	3135.8365	3138.8192	3742.9507	3816.5484	3827.1463
CC1(CO)C(O)C1O	C[C@@]1(CO)[C@@H](O)[C@H]1O	
InChI=1S/C5H10O3/c1-5(2-6)3(7)4(5)8/h3-4,6-8H,2H2,1H3	InChI=1S/C5H10O3/c1-5(2-6)3(7)4(5)8/h3-4,6-8H,2H2,1H3/t3-,4+,5+
