21
gdb 96242	2.28865	1.48942	1.04511	2.8737	79.9	-0.2505	0.0011	0.2516	1200.8625	0.184216	-424.232868	-424.224048	-424.223104	-424.266288	34.525	
O	-0.1196955333	 1.4479187562	-0.0074309226	-0.442824
C	-0.0669373297	 0.0293520033	 0.0303238948	 0.116414
C	-1.4750081246	-0.5644937863	-0.0924243111	-0.218857
C	-1.5773719075	-2.0308897688	 0.3364103754	-0.20016
C	-1.0599179686	-3.0521134489	-0.6816675431	-0.25067
C	 0.3764917138	-2.9475262829	-1.1293627536	-0.043446
C	 1.1914523929	-1.8952840483	-1.2500349367	-0.109098
C	 0.9472798033	-0.424512174	-1.034264456	 0.064287
O	 0.6188774197	 0.208428821	-2.2924282701	-0.448925
H	-0.1185106392	 1.6748874027	-0.9477402911	 0.282877
H	 0.3361869469	-0.2370939398	 1.0162351213	 0.08055
H	-2.1205673694	 0.0499786541	 0.5430503454	 0.109617
H	-1.8482698502	-0.4351185464	-1.1187583679	 0.074922
H	-1.0412870792	-2.1651820392	 1.2852819421	 0.100916
H	-2.6265746634	-2.2711906128	 0.5430633387	 0.096848
H	-1.2102676999	-4.0588155197	-0.2730742789	 0.10679
H	-1.697911813	-3.0181596315	-1.5796837848	 0.110739
H	 0.7977356889	-3.9024436718	-1.4428996304	 0.093887
H	 2.1826942094	-2.098597518	-1.6508302287	 0.095379
H	 1.8970337221	 0.0442669525	-0.7538105247	 0.096977
H	 0.000026911	-0.3703134615	-2.750603728	 0.283777
62.4469	117.1624	233.1852	275.1936	291.9219	315.2901	329.9637	353.945	411.1839	480.1654	517.4736	573.2309	628.3108	693.3725	754.1519	805.2853	842.0003	879.9418	912.0623	946.0835	991.6447	1019.0601	1048.5896	1076.5752	1085.1978	1094.4733	1150.0033	1170.0802	1215.9863	1256.4447	1273.4811	1275.2422	1301.2229	1347.7703	1370.9624	1384.4781	1395.0443	1408.708	1417.5665	1437.2981	1446.1318	1472.4097	1488.7505	1493.6854	1724.6207	2981.6747	3006.026	3018.2888	3026.5093	3045.0456	3049.7285	3062.1536	3077.1513	3120.0119	3148.5333	3746.8945	3811.8609
OC1CCCC=CC1O	O[C@H]1CCCC=C[C@H]1O	
InChI=1S/C7H12O2/c8-6-4-2-1-3-5-7(6)9/h2,4,6-9H,1,3,5H2	InChI=1S/C7H12O2/c8-6-4-2-1-3-5-7(6)9/h2,4,6-9H,1,3,5H2/t6-,7+/m1/s1
