21
gdb 60279	3.88425	0.80302	0.7885	2.5984	74.9	-0.2506	0.0685	0.3191	1550.4789	0.181779	-461.361323	-461.351606	-461.350661	-461.397422	34.927	
C	-0.0173354501	 1.5242858502	-0.1106551892	-0.407962
C	 0.011909979	 0.0022581531	 0.0157809581	 0.138195
O	 0.71140157	-0.4064407694	 1.191066097	-0.430417
C	-1.3927260149	-0.6163383231	-0.0324213403	-0.220096
C	-1.3682001121	-2.1411109145	-0.0479772211	 0.117451
C	-2.7612477762	-2.8041420611	-0.0059353966	-0.134631
O	-2.6428381163	-3.9015448186	-0.8972554139	-0.232756
C	-1.780596052	-3.4374564502	-1.9029927493	 0.026114
O	-0.806095674	-2.6308955236	-1.2767197234	-0.272697
H	 0.9962075514	 1.9290019984	-0.0452720384	 0.12594
H	-0.4558435559	 1.8362800901	-1.0639718638	 0.118188
H	-0.6174114101	 1.971385772	 0.6928532124	 0.10332
H	 0.5963247908	-0.4199046512	-0.8089339687	 0.110719
H	 0.2912641979	 0.0236412774	 1.9446416579	 0.274147
H	-1.9637571285	-0.2743178406	 0.8444944261	 0.082779
H	-1.9275543571	-0.2578932763	-0.9208016004	 0.097972
H	-0.7336737112	-2.4981020245	 0.7706233464	 0.098535
H	-3.0353106499	-3.1862474103	 0.9794800895	 0.119028
H	-3.5405168356	-2.1033213495	-0.3476626558	 0.090173
H	-1.298615886	-4.2950804382	-2.3825595779	 0.117949
H	-2.3391273794	-2.8490286502	-2.6554038586	 0.078048
27.1336	63.4337	95.7888	143.4004	246.6773	258.6038	290.6082	311.7745	341.966	435.4647	478.9197	492.6341	680.1818	741.12	830.0792	842.8214	901.9051	945.1696	973.6892	983.865	1033.6772	1052.9612	1075.8116	1101.1343	1113.6815	1136.4209	1159.8782	1178.3864	1209.8919	1220.691	1266.5726	1286.2342	1327.4133	1341.3277	1371.6056	1379.1078	1402.0699	1410.0123	1425.5505	1436.1985	1461.0673	1492.577	1497.2566	1511.3607	1545.2043	2921.0007	2972.1316	2996.6036	3020.4006	3044.4371	3059.1597	3065.7205	3077.5313	3094.1161	3109.0018	3119.3702	3790.7639
CC(O)CC1COCO1	C[C@@H](O)C[C@H]1COCO1	
InChI=1S/C6H12O3/c1-5(7)2-6-3-8-4-9-6/h5-7H,2-4H2,1H3	InChI=1S/C6H12O3/c1-5(7)2-6-3-8-4-9-6/h5-7H,2-4H2,1H3/t5-,6+/m1/s1
