18
gdb 13125	4.05429	1.16645	0.95815	1.9338	68.72	-0.2397	-0.0201	0.2197	1205.7537	0.152477	-384.944613	-384.935908	-384.934964	-384.978578	30.918	
O	 0.2238362015	 1.3556088498	 0.2784906482	-0.422578
C	 0.1274298348	-0.031175189	-0.0123917209	-0.078964
C	-1.3329691994	-0.4364107416	 0.1616588892	-0.198772
C	-1.5646701235	-1.9242144325	-0.0830398775	-0.092053
C	-3.0177540587	-2.5020526671	-0.0683118718	-0.258354
C	-2.7411275932	-3.2750234789	-1.3932948143	-0.332353
C	-1.4484377133	-2.4541842752	-1.5258014011	 0.39295
O	-0.7013233582	-2.2172822897	-2.4323212734	-0.298061
H	 1.1147439056	 1.6448913515	 0.0621093483	 0.286363
H	 0.4496385388	-0.2564968874	-1.0381641167	 0.118069
H	 0.7587485616	-0.6253358813	 0.6703605113	 0.078908
H	-1.6550823843	-0.1724858206	 1.1762421572	 0.109785
H	-1.945439804	 0.1563586882	-0.5283048539	 0.107494
H	-0.9088474983	-2.5225276758	 0.5647331928	 0.099748
H	-3.2844291769	-3.1078907908	 0.7982606684	 0.109337
H	-3.7680400838	-1.7179361096	-0.1958681045	 0.115868
H	-2.5284168417	-4.338573609	-1.242596992	 0.132328
H	-3.4580794169	-3.178745801	-2.2121592592	 0.130286
67.7585	93.1478	102.5183	164.0787	225.7374	251.7525	348.9856	379.8704	465.3631	543.9555	686.815	739.7898	762.836	809.908	917.0859	932.6557	963.0894	998.4023	1043.3655	1055.104	1092.3174	1102.8592	1153.8859	1196.2548	1208.2246	1227.7838	1244.1807	1257.8291	1270.0294	1312.2718	1326.9217	1357.8969	1440.8681	1462.7697	1492.3827	1495.5738	1533.0815	1879.6713	2955.9454	3016.7037	3026.2949	3033.2614	3057.8847	3074.6645	3075.6168	3113.368	3134.9078	3833.9836
OCCC1CCC1=O	OCC[C@H]1CCC1=O	
InChI=1S/C6H10O2/c7-4-3-5-1-2-6(5)8/h5,7H,1-4H2	InChI=1S/C6H10O2/c7-4-3-5-1-2-6(5)8/h5,7H,1-4H2/t5-/m1/s1
