18
gdb 126858	3.19516	1.30709	1.00976	1.4138	76.37	-0.209	-0.0092	0.1998	1208.2941	0.147774	-431.427246	-431.417954	-431.417009	-431.462099	32.62	
C	-0.0713008278	 1.5431703627	-0.0479091329	-0.385651
C	-0.0766471194	 0.0205215153	 0.095347022	-0.13632
N	-1.4109253114	-0.5444349403	 0.0248436994	-0.046437
N	-2.1199368417	-0.8787210308	 1.1340306862	-0.110908
N	-3.2524914528	-1.3218144156	 0.7763233261	-0.120901
N	-3.3131657959	-1.2799563016	-0.5904672976	-0.070861
C	-4.4809886219	-1.7192933754	-1.3093634488	-0.343514
C	-2.1399233927	-0.7754165436	-1.1283535955	 0.480005
N	-1.7353876455	-0.5469009838	-2.3212271406	-0.620168
H	 0.9557257026	 1.9174968325	-0.0015944147	 0.121416
H	-0.5015124278	 1.832815277	-1.0096838804	 0.152501
H	-0.6465976189	 2.0124507998	 0.7553375446	 0.129312
H	 0.5033435249	-0.4395066137	-0.7100966644	 0.144315
H	 0.3436486792	-0.2935130389	 1.0535418587	 0.133559
H	-5.2195185562	-2.0425066652	-0.5758058042	 0.168034
H	-4.8989231575	-0.9026930674	-1.9081543153	 0.146638
H	-4.2391042321	-2.557299046	-1.9722226639	 0.146773
H	-2.433464865	-0.8097277446	-3.011243349	 0.212207
55.368	79.9944	98.9323	167.1045	210.7202	228.7343	274.9836	298.6581	400.0375	524.8747	600.2894	660.549	681.8418	720.3139	776.6428	778.1208	818.9725	962.7266	993.6654	1030.9472	1078.5917	1108.0101	1155.9821	1197.7632	1238.8547	1286.4309	1369.0518	1375.9775	1396.7059	1412.1283	1437.036	1458.2787	1473.2869	1478.564	1484.3901	1491.9827	1507.0448	1515.3875	1737.7864	3031.4872	3046.4018	3066.3684	3088.1003	3113.9131	3121.3159	3139.6911	3159.8329	3531.2553
CCN1N=NN(C)C1=N	CCN1N=NN(C)[C@@H]1[NH]	
InChI=1S/C4H9N5/c1-3-9-4(5)8(2)6-7-9/h5H,3H2,1-2H3	InChI=1S/C4H10N5/c1-3-9-4(5)8(2)6-7-9/h4-5H,3H2,1-2H3/t4-/m0/s1
