17
gdb 102338	1.78975	1.38274	1.31141	3.1909	73.4	-0.3133	-0.0277	0.2856	1158.1019	0.133161	-418.014993	-418.004857	-418.003913	-418.050004	35.17	
C	 0.0195435618	 1.560503765	-0.0800239288	-0.412022
C	-0.0215876904	 0.0347762231	 0.0063049718	-0.203941
C	-1.4635833381	-0.5340628978	 0.0332702654	 0.074814
O	-2.0929551448	-0.1343781154	-1.1560231678	-0.247795
C	-3.4433063802	-0.5626764174	-1.3307548427	-0.27278
C	-1.3977326417	-2.0175016591	 0.1305112242	 0.290246
N	-1.3278785682	-3.1696962179	 0.1641741195	-0.326103
C	-2.193373024	-0.0230092699	 1.2264893621	 0.292071
N	-2.760595269	 0.4093066062	 2.1348399352	-0.331587
H	 1.0589759006	 1.8968354198	-0.1167380765	 0.129274
H	-0.4895202756	 1.9148481546	-0.9784386604	 0.145427
H	-0.4537027784	 2.0221690148	 0.7914369365	 0.145689
H	 0.465011661	-0.4195870328	-0.8617628156	 0.138454
H	 0.4962221531	-0.3242894545	 0.9006982752	 0.137221
H	-3.5135021807	-1.656857138	-1.3472393349	 0.145825
H	-4.091656594	-0.165771929	-0.5405348907	 0.145609
H	-3.7579163215	-0.1630835619	-2.2952550024	 0.149596
102.702	111.6163	128.9185	147.0007	162.5126	189.9884	209.4379	264.2923	299.1394	342.9463	434.7732	496.3307	532.9481	579.333	624.4538	677.9806	783.1492	944.1962	965.0476	1014.3885	1067.4944	1125.5363	1154.204	1170.98	1185.1947	1227.9234	1314.6643	1365.3723	1413.8472	1472.5445	1479.8224	1490.4664	1495.8277	1506.1238	1508.146	2356.3859	2360.704	3019.9895	3053.7985	3061.3734	3088.1495	3105.4056	3124.2431	3142.2718	3149.4873
CCC(OC)(C#N)C#N	CCC(OC)(C#N)C#N	
InChI=1S/C6H8N2O/c1-3-6(4-7,5-8)9-2/h3H2,1-2H3	InChI=1S/C6H8N2O/c1-3-6(4-7,5-8)9-2/h3H2,1-2H3
