16
gdb 38657	3.28106	1.96984	1.6823	1.1605	66.12	-0.2471	0.01	0.2571	824.3876	0.128561	-437.871555	-437.865785	-437.86484	-437.901465	24.342	
C	 0.026820623	 1.5947096118	 0.0381973277	-0.232793
C	 1.5517396495	 1.7970703976	 0.0121999569	 0.034428
O	 1.9920148709	 0.8554175736	 1.0400916451	-0.292494
C	 1.5667911584	-0.1654692509	 0.1005248194	 0.02176
C	 2.0566484254	 0.758040007	-1.0265984422	 0.111161
O	 1.4635060363	 0.64140843	-2.3120973106	-0.242065
C	 0.314409332	-0.0939690639	-2.3474515724	 0.118098
N	-0.4072350191	-0.4483623525	-1.3721143027	-0.261815
C	 0.0340447407	 0.0321136482	-0.0593513354	-0.007174
H	-0.3901918287	 1.962319875	 0.9779240172	 0.116335
H	-0.5023426381	 2.0578030576	-0.7970701435	 0.118194
H	 1.9684900678	 2.7980588191	 0.1167153576	 0.088069
H	 1.9548934541	-1.1632397662	 0.293140304	 0.095737
H	 3.1378444549	 0.7734248246	-1.1509369332	 0.112364
H	 0.0644822149	-0.3557105671	-3.3724434514	 0.132095
H	-0.5543840921	-0.4520914539	 0.7189967234	 0.0881
211.075	320.7591	386.8017	486.4776	509.729	562.7393	610.2688	744.33	791.5551	830.7045	851.8138	872.3817	911.9385	935.3759	960.6248	964.3742	987.4252	1013.2897	1023.6366	1042.298	1077.6208	1143.4539	1162.346	1179.0646	1201.5691	1219.6009	1260.871	1292.9775	1309.1136	1330.4992	1339.0615	1370.7646	1396.4504	1485.3451	1713.5614	3077.3222	3114.061	3131.8991	3133.0086	3142.6081	3154.0132	3178.9406
C1C2OC3C2OC=NC13	C1[C@H]2O[C@@H]3[C@H]2OC=N[C@H]13	
InChI=1S/C6H7NO2/c1-3-5-6(4(1)9-5)8-2-7-3/h2-6H,1H2	InChI=1S/C6H7NO2/c1-3-5-6(4(1)9-5)8-2-7-3/h2-6H,1H2/t3-,4-,5+,6+/m1/s1
