23
gdb 109587	1.97713	1.42561	1.03724	1.0428	80.51	-0.2534	0.0426	0.296	1284.2278	0.204356	-425.41504	-425.404576	-425.403632	-425.449945	39.314	
C	 0.3238527657	 1.1631554769	-0.4831741067	-0.39053
C	 0.0030116112	-0.3217898588	-0.2739449706	-0.213435
C	-1.4683632956	-0.568908259	 0.0686546438	-0.06709
C	-2.4810763331	-0.5792237018	-1.1272194323	 0.122242
O	-2.1266645206	 0.0144151986	-2.3566635995	-0.422924
C	-2.591044492	-2.1371330544	-1.0374921795	-0.069312
C	-1.8549780619	-2.918083816	-2.1239932006	-0.436011
C	-1.8677517596	-2.0570342092	 0.3461939442	 0.113956
O	-0.8669034481	-2.9972466678	 0.6617893058	-0.426571
H	 1.3808828097	 1.3110679687	-0.7263115165	 0.10823
H	-0.2795785628	 1.57993674	-1.2938585758	 0.135782
H	 0.1067502905	 1.736653763	 0.4244863514	 0.116973
H	 0.3012616976	-0.8817050202	-1.1725910288	 0.072571
H	 0.617355919	-0.7249674207	 0.5402802011	 0.112034
H	-1.7478927156	 0.1170762085	 0.8754997675	 0.066442
H	-3.4224372625	-0.0994463583	-0.8485204137	 0.088973
H	-1.3268065149	-0.4092912519	-2.6828886336	 0.282916
H	-3.6190785468	-2.5077994845	-0.9820620862	 0.071799
H	-0.8071787745	-2.6143446998	-2.2438075421	 0.098365
H	-1.8525838459	-3.9870401792	-1.8920479054	 0.133216
H	-2.3426174033	-2.7811758728	-3.093711853	 0.13186
H	-2.5831780233	-2.1253390771	 1.1695244999	 0.088151
H	-0.2014372331	-2.9826086543	-0.0329571196	 0.282363
75.9049	121.2294	170.6247	192.6833	213.2903	239.4369	244.0986	249.1515	276.4657	314.9854	331.1035	466.4741	489.7694	541.8532	595.6084	751.2118	755.0298	794.2275	810.3444	851.9274	904.5931	986.4904	1013.9182	1024.1375	1065.9704	1069.9597	1120.8244	1125.2531	1151.1255	1175.7244	1180.0498	1251.1307	1266.1285	1271.3078	1289.8311	1291.4962	1309.0839	1330.5532	1362.2767	1389.9247	1406.2964	1409.3742	1430.6613	1453.7411	1494.8361	1498.0098	1500.9341	1507.6432	1516.5683	2994.3305	3023.1076	3034.9643	3037.896	3048.6206	3050.9976	3073.4592	3082.5169	3090.5701	3099.6529	3114.1127	3121.8486	3822.8095	3823.7119
CCC1C(O)C(C)C1O	CC[C@H]1[C@@H](O)[C@@H](C)[C@H]1O	
InChI=1S/C7H14O2/c1-3-5-6(8)4(2)7(5)9/h4-9H,3H2,1-2H3	InChI=1S/C7H14O2/c1-3-5-6(8)4(2)7(5)9/h4-9H,3H2,1-2H3/t4-,5+,6+,7-
