21
gdb 26405	3.98794	0.88211	0.79716	0.7089	84.58	-0.2179	0.021	0.2389	1503.6279	0.182477	-387.128681	-387.119429	-387.118485	-387.163578	34.531	
C	-0.0348487517	 1.5751615772	-0.0052469115	-0.388508
C	 0.0414553375	 0.0439985381	 0.0482418719	 0.058295
C	 0.8406823246	-0.4207876181	 1.2715925224	-0.383925
C	-1.3827483347	-0.5634281922	 0.0090814995	-0.326583
C	-1.4325950044	-2.0598247539	-0.1098416974	 0.243304
C	-1.5034781568	-2.7889614455	-1.2579062562	-0.095833
O	-1.5168720548	-4.1239608887	-0.9948419014	-0.141441
C	-1.4562407685	-4.2554429016	 0.3554034924	 0.000262
C	-1.4041797398	-3.0359948644	 0.9490643803	-0.275997
H	 0.9653399053	 2.0204464321	-0.0190751471	 0.109711
H	-0.5687007225	 1.9202753183	-0.8972155262	 0.107997
H	-0.5612178523	 1.9718189082	 0.8714657367	 0.111099
H	 0.5659172343	-0.3051665235	-0.8518356099	 0.074482
H	 0.3531584391	-0.0996450281	 2.2007536619	 0.10566
H	 0.937077319	-1.5094738522	 1.3010724928	 0.123181
H	 1.8491521281	 0.0058994088	 1.2643388357	 0.109044
H	-1.9228269404	-0.2497371612	 0.9124131142	 0.099117
H	-1.9210825802	-0.1201008736	-0.8370924899	 0.099564
H	-1.5583988489	-2.5180853913	-2.2999333134	 0.129084
H	-1.4650417319	-5.2663674494	 0.728252102	 0.133194
H	-1.3596151209	-2.839224679	 2.0092782931	 0.108294
37.2695	75.0967	115.0424	225.0945	250.9704	289.6201	318.0519	326.0264	410.4827	420.109	622.6878	640.5953	723.132	742.4369	783.6975	819.5276	842.9539	880.9757	893.9841	928.0712	948.3777	965.962	995.5657	1060.1578	1096.1461	1102.1239	1138.956	1190.7701	1205.9573	1238.5964	1272.1989	1289.4689	1317.3291	1366.3638	1369.8332	1398.2598	1412.6145	1419.61	1481.0519	1488.8661	1494.3847	1504.0135	1511.1513	1534.4369	1628.9534	3006.676	3017.3565	3021.0466	3027.622	3058.7621	3085.2359	3091.6208	3098.474	3112.8479	3249.4104	3269.1354	3282.9594
CC(C)CC1=COC=C1	CC(C)Cc1cocc1	
InChI=1S/C8H12O/c1-7(2)5-8-3-4-9-6-8/h3-4,6-7H,5H2,1-2H3	InChI=1S/C8H12O/c1-7(2)5-8-3-4-9-6-8/h3-4,6-7H,5H2,1-2H3
