23
gdb 58592	2.77079	1.20121	1.06998	2.1677	80.63	-0.253	0.0595	0.3125	1265.9449	0.205784	-425.447718	-425.438092	-425.437148	-425.481987	37.641	
C	 0.0974503357	 1.5379549842	-0.071722034	-0.420235
C	-0.0035824724	 0.0151027407	 0.0736515247	 0.098952
O	 0.6101740919	-0.4120278304	 1.2813121848	-0.444999
C	-1.4464737408	-0.5253847372	 0.0242649926	 0.383274
O	-2.1297123106	-0.0905768637	 1.2211183356	-0.491528
C	-2.2499938004	-0.1301219701	-1.2309333275	-0.260199
C	-3.30745224	-1.2357433504	-1.3582820871	-0.205224
C	-2.4999111239	-2.507285426	-1.048254692	-0.205999
C	-1.5030362169	-2.0786836668	 0.0563454467	-0.234706
H	 1.1411146101	 1.8430624457	 0.0369002047	 0.129006
H	-0.2652682714	 1.8833245285	-1.045078881	 0.114028
H	-0.4734250199	 2.0506462726	 0.7119981032	 0.097723
H	 0.563543178	-0.4543896971	-0.7403666623	 0.079239
H	-0.0659896588	-0.2925660675	 1.9622328343	 0.280885
H	-2.3125651952	 0.8514303681	 1.1320906305	 0.278073
H	-2.6668780341	 0.8801736529	-1.1580669185	 0.085422
H	-1.5881661157	-0.1443035818	-2.1069134713	 0.099009
H	-4.0834791964	-1.0857793973	-0.5996802288	 0.107138
H	-3.7953604936	-1.2577728992	-2.3365997881	 0.091131
H	-3.1273603569	-3.3497129477	-0.7454791433	 0.097012
H	-1.955635021	-2.8224793483	-1.9463875638	 0.096443
H	-0.511582138	-2.5137470429	-0.0844553037	 0.110129
H	-1.8488292898	-2.3832944564	 1.0466286942	 0.115427
52.6075	99.5992	182.2567	235.7767	243.3688	284.6953	325.2839	347.175	396.9943	416.8428	475.4727	498.25	508.1359	568.6284	674.935	738.9522	816.0346	864.518	872.0821	902.5953	916.475	957.8036	978.9531	1006.9083	1046.5317	1051.4358	1059.6095	1082.827	1118.2556	1129.8468	1193.9546	1234.7343	1243.1407	1275.6077	1287.3573	1308.2638	1331.4249	1343.6622	1346.827	1358.6883	1378.5509	1401.0949	1431.6338	1479.3938	1481.3566	1489.148	1490.8103	1500.7225	1509.4681	3021.3713	3027.4676	3030.7839	3035.0269	3045.8036	3072.5325	3074.6055	3089.19	3096.7115	3099.4698	3120.9498	3122.1917	3751.3344	3802.5943
CC(O)C1(O)CCCC1	C[C@@H](O)C1(O)CCCC1	
InChI=1S/C7H14O2/c1-6(8)7(9)4-2-3-5-7/h6,8-9H,2-5H2,1H3	InChI=1S/C7H14O2/c1-6(8)7(9)4-2-3-5-7/h6,8-9H,2-5H2,1H3/t6-/m1/s1
