14
gdb 6075	5.20795	1.04309	0.874	16.1685	60.02	-0.1702	-0.0313	0.1389	1216.6476	0.104005	-452.987506	-452.978057	-452.977113	-453.023537	31.711	
N	-0.119362754	 1.2725415958	 0.2933235908	-0.542572
C	-0.0093179067	-0.019961083	-0.0342640894	 0.602345
N	 1.1906000103	-0.5780350469	-0.2177285234	-0.533313
H	 1.2363198695	-1.5544109254	-0.4641124174	 0.30403
H	 2.0452628032	-0.0580380751	-0.1191448841	 0.289512
O	-1.1011324773	-0.6649308327	-0.1557313382	-0.156928
C	-1.1308828384	-2.1322771974	-0.5217687094	-0.280504
C	-2.629089035	-2.656114992	-0.5985777846	 0.368003
O	-3.5059404732	-1.828302881	-0.3596958427	-0.453767
O	-2.5871041603	-3.855533925	-0.9002102912	-0.463197
H	 0.6722313573	 1.8784060743	 0.4148871481	 0.288449
H	-1.0495412994	 1.6393516566	 0.4186059323	 0.31501
H	-0.6415118237	-2.2185016387	-1.4952308555	 0.131446
H	-0.5778092823	-2.6578391496	 0.2608064746	 0.131486
20.7713	54.6315	107.0396	111.4834	188.1806	242.665	304.4437	348.9542	423.6594	492.9457	546.5724	566.5116	613.9303	648.9246	754.4736	780.984	843.1194	962.1097	1037.6295	1051.7714	1121.476	1194.8301	1266.1751	1323.1481	1423.5579	1546.1289	1600.2512	1676.0632	1682.1251	1850.3256	3052.1599	3138.7307	3592.7599	3614.3541	3724.9026	3745.1106
NC(=[NH2+])OCC([O-])=O	NC(=[NH2])OCC(=O)[O]	
InChI=1S/C3H6N2O3/c4-3(5)8-1-2(6)7/h1H2,(H3,4,5)(H,6,7)	InChI=1S/C3H6N2O3/c4-3(5)8-1-2(6)7/h1,4-5H2
