15
gdb 125335	5.36779	1.32406	1.06911	2.6197	74.19	-0.2062	0.0063	0.2125	1072.6898	0.115766	-413.02307	-413.015947	-413.015003	-413.054574	27.161	
C	 0.0122406063	 1.4593182946	 0.0354078003	-0.486362
C	 0.0100679939	-0.0334267843	-0.0220908375	 0.278779
C	-0.1435988754	-0.8268795968	-1.1420289219	-0.22562
N	-0.0694977529	-2.1186809944	-0.6521498441	 0.04387
N	-0.1254955218	-3.4161673744	-1.0913188892	-0.253238
C	 0.0316926213	-4.104027066	 0.0108052957	 0.047393
N	 0.1844989837	-3.3178834031	 1.130043151	-0.411142
C	 0.1182263455	-2.0136971896	 0.692627574	 0.495555
N	 0.1757317023	-0.7848389052	 1.1397796244	-0.451623
H	 0.9574403388	 1.8356462907	 0.4416464584	 0.13248
H	-0.129181429	 1.8906237893	-0.9591237604	 0.118093
H	-0.7872875493	 1.8284900498	 0.6868566235	 0.132503
H	-0.2896598885	-0.6051944446	-2.1839002016	 0.134793
H	 0.0413709294	-5.181001232	 0.0479501635	 0.156264
H	 0.3198880459	-3.6251990439	 2.076331934	 0.288256
110.7005	149.4598	281.9245	290.0323	334.8195	408.1962	519.9854	571.7159	636.2723	653.7131	682.5765	741.7864	788.0827	817.5754	857.4927	961.7334	983.7198	1015.4518	1061.8553	1099.3255	1147.4251	1193.8852	1275.71	1326.0348	1347.1689	1409.9162	1434.6105	1449.5241	1473.7908	1487.3097	1557.7305	1568.131	1654.3037	3033.6931	3087.4565	3117.6293	3284.2359	3298.5199	3701.8782
CC1=CN2N=CNC2=N1	Cc1cn2nc[nH]c2n1	
InChI=1S/C5H6N4/c1-4-2-9-5(8-4)6-3-7-9/h2-3H,1H3,(H,6,7,8)	InChI=1S/C5H6N4/c1-4-2-9-5(8-4)6-3-7-9/h2-3H,1H3,(H,6,7,8)
