17
gdb 22577	4.07779	1.03105	0.86016	3.2133	72.48	-0.2425	-0.0038	0.2387	1285.0655	0.137205	-455.151994	-455.143694	-455.142749	-455.185289	31.175	
O	-0.0568318023	 1.3603107082	-0.2533561377	-0.3963
N	 0.0791858985	-0.0384858163	-0.2310966795	-0.191495
C	-1.0199265887	-0.6051070072	 0.0829312806	 0.373235
C	-1.0652035642	-2.1034509169	 0.1532459239	-0.29513
C	-1.8211547318	-2.53503831	 1.419325949	-0.321733
C	-3.2222849418	-1.9385936588	 1.472410018	 0.388781
O	-4.1685294778	-2.5033181532	 1.985748911	-0.370721
N	-3.3513974678	-0.718197364	 0.8597841322	-0.321563
C	-2.277850192	 0.1590431252	 0.4212940385	-0.234429
H	 0.8339624279	 1.6493952604	-0.477256581	 0.311587
H	-1.5968642317	-2.4917258449	-0.7261732632	 0.126998
H	-0.0488057663	-2.5015983591	 0.1238473388	 0.127725
H	-1.9289940933	-3.6192639727	 1.4819936247	 0.135825
H	-1.2739392604	-2.2115996965	 2.3139443237	 0.131975
H	-4.2743785808	-0.3168937404	 0.943846952	 0.248982
H	-2.0286127715	 0.9185629911	 1.1764882077	 0.141895
H	-2.604421686	 0.7180487052	-0.4646967987	 0.144368
57.968	136.4289	154.83	231.0424	323.7246	373.9104	397.4925	428.6456	494.4801	539.0186	576.8738	590.9668	653.3995	739.4306	762.8214	797.8024	941.2653	960.2924	981.7506	1005.9524	1053.0531	1105.5994	1173.8996	1206.5066	1241.6519	1264.8775	1327.1073	1329.0009	1345.6548	1383.9898	1414.337	1467.2857	1474.2229	1479.8966	1506.8057	1740.987	1799.0034	3001.7094	3019.4805	3040.1306	3041.1614	3109.4809	3121.0877	3608.2175	3822.6636
ON=C1CCC(=O)NC1	ON=C1CCC(=O)NC1	
InChI=1S/C5H8N2O2/c8-5-2-1-4(7-9)3-6-5/h9H,1-3H2,(H,6,8)	InChI=1S/C5H8N2O2/c8-5-2-1-4(7-9)3-6-5/h9H,1-3H2,(H,6,8)
