14
gdb 131883	2.76052	1.65398	1.04088	3.1436	70.4	-0.2598	-0.0841	0.1757	1057.444	0.101566	-469.97259	-469.964791	-469.963847	-470.005827	27.621	
C	-0.0377513439	 1.5442558834	 0.1373605599	-0.489684
C	-0.0239411853	 0.0601114157	 0.0106765268	 0.244163
C	 0.0350746054	-0.7215717366	-1.1304632542	 0.357279
N	 0.0223778776	-2.0346676866	-0.7245249102	-0.305901
C	-0.0426654519	-2.0079908511	 0.6227474426	 0.032419
N	-0.0718770986	-0.7719858428	 1.0961114264	-0.298031
N	 0.0997376308	-0.4034573331	-2.506615423	 0.347029
O	 0.1427954064	-1.3515020204	-3.2976830951	-0.401997
O	 0.1086359671	 0.7841917121	-2.8196984305	-0.380324
H	 0.8587592834	 1.9858375601	-0.3078484604	 0.150903
H	-0.8919922235	 1.9767304777	-0.3919486089	 0.150901
H	-0.0898632225	 1.8137334799	 1.1932292674	 0.143388
H	 0.0569905742	-2.8161238898	-1.360829773	 0.294811
H	-0.0667612292	-2.9070201386	 1.2201427722	 0.155045
52.3072	101.3477	189.3128	190.3373	278.6544	339.7119	451.5256	553.677	580.4734	647.4925	692.6142	704.3644	783.6597	838.4974	855.2323	955.3	986.4612	1062.7786	1090.4842	1174.122	1239.8434	1309.4791	1351.8509	1405.1285	1416.7917	1456.4797	1475.5025	1475.8139	1520.5232	1573.6561	1612.0844	3051.1063	3107.0255	3149.252	3258.5632	3650.7215
CC1=C(NC=N1)N(=O)=O	Cc1c([nH]cn1)N(=O)=O	
InChI=1S/C4H5N3O2/c1-3-4(7(8)9)6-2-5-3/h2H,1H3,(H,5,6)	InChI=1S/C4H5N3O2/c1-3-4(7(8)9)6-2-5-3/h2H,1H3,(H,5,6)
