21
gdb 62385	2.42918	1.7737	1.32702	0.5264	87.65	-0.2521	0.0484	0.3005	1056.4025	0.183505	-349.915819	-349.907579	-349.906635	-349.947885	33.831	
C	-0.144196717	 1.5204876231	-0.005493456	-0.47007
C	-0.0295717243	-0.0133886166	 0.0009417408	 0.171521
C	-1.3654774389	-0.5694834449	-0.1680577218	 0.256604
C	-2.4826979612	-0.9947279124	-0.3091663176	-0.45218
C	 1.1283173542	-0.6144269132	-0.8931467525	-0.044465
C	 2.1009293616	-0.2521974832	 0.2646982515	-0.247515
C	 0.8747879753	-0.6248262941	 1.1453321457	-0.044474
C	 0.7673656176	-2.1389852307	 0.8799605631	-0.21948
C	 0.9610657555	-2.1310405655	-0.6774031503	-0.21948
H	 0.8186520141	 2.0188802327	 0.1169667855	 0.116977
H	-0.5845763186	 1.8604388404	-0.9477561378	 0.125807
H	-0.8026481022	 1.8514825676	 0.8033585818	 0.12581
H	-3.4661185822	-1.3753085864	-0.4336279548	 0.186074
H	 1.2776398774	-0.2592004853	-1.9136994916	 0.061061
H	 2.9920154184	-0.876721945	 0.3723388978	 0.089648
H	 2.3874305678	 0.7969741193	 0.3056792726	 0.099542
H	 0.7691353347	-0.2800659892	 2.1748895615	 0.061062
H	 1.550959518	-2.695765973	 1.4012783731	 0.091444
H	-0.2003262426	-2.5482521357	 1.1768001217	 0.110336
H	 0.0960841117	-2.5361009718	-1.2063401948	 0.110334
H	 1.8491867609	-2.683528236	-0.9964557581	 0.091444
142.9289	159.0986	193.5829	258.5796	310.1416	331.7987	441.3773	486.172	503.6933	553.1477	618.6068	623.4089	627.7561	698.3685	813.5171	832.2436	839.5848	863.6659	903.6787	918.7405	950.0991	969.8574	995.9005	999.0351	1034.7492	1081.3081	1085.2819	1133.8222	1172.5054	1178.5266	1204.1447	1221.956	1250.3617	1256.974	1261.3349	1281.9953	1314.353	1333.6779	1411.2296	1489.1993	1489.3949	1491.1499	1506.0413	1528.6656	2221.0837	3045.4169	3057.9623	3065.9109	3070.2909	3103.6108	3105.7	3107.1371	3108.3733	3120.4689	3128.796	3151.6376	3501.4389
CC1(C#C)C2CC1CC2	C[C@@]1(C#C)[C@H]2C[C@@H]1CC2	
InChI=1S/C9H12/c1-3-9(2)7-4-5-8(9)6-7/h1,7-8H,4-6H2,2H3	InChI=1S/C9H12/c1-3-9(2)7-4-5-8(9)6-7/h1,7-8H,4-6H2,2H3/t7-,8+,9-
