22
gdb 10391	2.86655	1.63139	1.26429	1.9407	77.36	-0.2413	0.0726	0.3138	1084.5999	0.199291	-350.188989	-350.179547	-350.178603	-350.223859	34.175	
C	-0.1725619575	 1.4866058631	-0.2161247802	-0.398951
C	 0.0325481101	-0.0157168719	 0.0110362301	-0.230833
C	 0.7761718132	-0.4416574906	 1.2919469088	 0.285023
C	 0.8716776512	-1.976113754	 1.3218610523	-0.23635
C	 1.5798835619	-2.6187823641	 2.5197927548	-0.406661
C	 2.0782895148	 0.357681944	 1.5659003868	-0.108977
O	 1.4590883673	 1.0875379378	 2.6431003703	-0.277417
C	 0.2773407078	 0.2653251649	 2.5806842642	-0.108977
H	 0.7751825031	 2.0283133857	-0.2838072622	 0.124207
H	-0.7101981193	 1.6505182909	-1.1551649552	 0.11233
H	-0.7603885842	 1.949532598	 0.581624474	 0.12421
H	-0.9482089767	-0.5108863369	 0.0107331313	 0.095488
H	 0.5758667158	-0.432659487	-0.8480567951	 0.095488
H	-0.148509602	-2.3787453196	 1.2573751417	 0.097404
H	 1.3729683755	-2.3007939789	 0.3997209403	 0.097401
H	 2.6244042204	-2.3034531139	 2.6013137356	 0.122227
H	 1.0875741448	-2.3819745829	 3.4677675017	 0.12223
H	 1.5764051581	-3.7082185342	 2.4148853573	 0.115484
H	 2.9292811607	-0.2399719356	 1.9165540823	 0.092469
H	 2.4272004445	 1.0196549884	 0.7645872838	 0.095868
H	-0.6378321222	 0.8624693765	 2.4916315611	 0.095869
H	 0.1848399527	-0.3807114898	 3.4629651162	 0.092466
54.2386	55.9136	76.8464	198.0372	219.3567	254.0643	319.5581	342.2738	378.6494	397.9283	502.0975	601.471	764.885	780.8853	831.5854	865.0963	939.1287	954.8447	967.4075	1006.5751	1014.2386	1040.693	1054.3449	1082.6356	1102.335	1156.6152	1156.657	1201.138	1219.3492	1248.6179	1295.5843	1307.8612	1350.2023	1356.4248	1374.1606	1404.3774	1414.909	1419.9019	1472.7055	1486.8141	1487.8017	1501.2207	1502.6358	1504.9074	1527.6507	1541.6791	3002.1041	3007.6072	3009.0433	3020.2569	3033.1135	3041.0031	3042.0343	3043.9744	3051.7577	3053.4518	3104.7364	3106.3245	3111.393	3115.3937
CCC1(CC)COC1	CCC1(CC)COC1	
InChI=1S/C7H14O/c1-3-7(4-2)5-8-6-7/h3-6H2,1-2H3	InChI=1S/C7H14O/c1-3-7(4-2)5-8-6-7/h3-6H2,1-2H3
