23
gdb 100021	2.45183	1.22352	1.14972	1.7587	80.91	-0.258	0.0776	0.3356	1259.2393	0.2027	-425.42034	-425.409816	-425.408872	-425.45513	40.141	
C	 0.2279509599	 1.5363100706	 0.2144823706	-0.394442
C	 0.0580006326	 0.031210311	-0.0104059424	-0.207726
C	 0.6111555393	-0.4733193687	-1.3668282774	 0.295202
C	-0.15473067	 0.1025610072	-2.5608844161	-0.412946
O	 1.9626233443	-0.0478974439	-1.5169086263	-0.470883
C	 0.5806034882	-2.0192932327	-1.4018460098	 0.388455
C	-0.7163481418	-2.7274362635	-1.0761592821	-0.48124
C	 1.5876353942	-2.7144786527	-2.2152990285	-0.232824
O	 1.7474744186	-2.6052996769	-0.7881918153	-0.30511
H	 1.2696208702	 1.8300712114	 0.0656668226	 0.131992
H	-0.3887982468	 2.1240430805	-0.4725496421	 0.113465
H	-0.0672649192	 1.8075251789	 1.2326139176	 0.107595
H	 0.582338203	-0.5154148973	 0.7845993976	 0.100578
H	-1.0009864774	-0.237459135	 0.0767239971	 0.093362
H	-0.0273261902	 1.1867698161	-2.6003329916	 0.130747
H	 0.2300837999	-0.3150008921	-3.4952314587	 0.119121
H	-1.2240924635	-0.115794376	-2.4928703606	 0.112539
H	 2.4818684451	-0.632999086	-0.94654286	 0.285781
H	-1.5183173136	-2.4086824497	-1.7492906636	 0.126631
H	-0.5906067988	-3.8078124711	-1.1797142253	 0.126465
H	-1.0340404209	-2.5226241026	-0.0503683843	 0.134308
H	 1.3805333241	-3.7209309798	-2.5749847119	 0.111718
H	 2.2987912927	-2.1369705176	-2.7991177394	 0.127212
75.3788	100.8695	175.5536	198.0797	212.3138	232.9432	265.8619	304.9988	332.1247	358.9855	381.4571	410.346	444.8477	518.4343	535.7863	560.9746	673.8274	791.3434	796.005	850.4944	907.3211	927.8676	940.5375	1006.3121	1009.4702	1021.6777	1063.4429	1099.6454	1136.4671	1143.506	1178.2364	1180.6902	1207.1252	1271.475	1307.2432	1362.563	1379.1692	1394.6611	1405.2562	1420.3838	1426.8571	1476.7133	1486.3486	1491.1699	1495.7793	1499.7111	1505.9475	1511.648	1517.7199	3020.2237	3042.7927	3047.4627	3050.0416	3064.1022	3097.2151	3104.2635	3116.5752	3121.4364	3125.9937	3128.7974	3130.269	3195.4385	3734.7664
CCC(C)(O)C1(C)CO1	CC[C@@](C)(O)[C@@]1(C)CO1	
InChI=1S/C7H14O2/c1-4-6(2,8)7(3)5-9-7/h8H,4-5H2,1-3H3	InChI=1S/C7H14O2/c1-4-6(2,8)7(3)5-9-7/h8H,4-5H2,1-3H3/t6-,7-/m1/s1
