17
gdb 64990	3.38006	1.08764	0.90504	3.6814	72.71	-0.2425	-0.0212	0.2213	1292.7885	0.134656	-455.154448	-455.145198	-455.144253	-455.189009	32.889	
C	-0.0469597683	 1.5093185125	-0.7155854622	-0.46332
C	-0.0784330565	 0.1570258616	-0.0508491591	 0.294794
C	 0.9281384544	-0.8760688639	-0.3612644153	-0.20594
O	 0.9879745004	-0.1459543619	 0.8686180626	-0.282789
C	-1.4639152604	-0.3181896243	 0.3777418635	 0.357285
O	-2.4450700239	-0.0534105357	-0.2732474034	-0.326829
N	-1.4261354881	-1.0547975331	 1.5496479535	-0.332333
C	-2.4662945089	-1.6846826445	 2.2264998276	 0.082315
N	-3.6577991567	-1.7530370388	 1.801986187	-0.397172
H	 0.9560330585	 1.7334584701	-1.0853197903	 0.124118
H	-0.7572320218	 1.5230738723	-1.5447478552	 0.158482
H	-0.3417794681	 2.2903834907	-0.008148294	 0.137159
H	 0.6733740647	-1.9301139613	-0.2668992305	 0.127774
H	 1.7160360552	-0.6446772049	-1.0756317374	 0.130932
H	-0.5123778914	-1.0769803452	 1.9824944104	 0.269308
H	-2.1005275408	-2.1121322973	 3.1691454332	 0.096439
H	-4.230154268	-2.2631746562	 2.4731866296	 0.229777
61.5295	86.7614	159.0102	166.7977	181.7986	256.7304	288.6535	314.8676	375.2925	476.6548	498.5481	622.2651	714.4169	753.9635	800.1536	832.231	868.6932	925.1442	941.1716	998.8664	1059.0762	1067.2318	1100.9635	1134.2913	1155.9768	1183.1775	1263.4214	1299.1816	1370.9843	1410.8471	1430.8254	1478.0353	1494.9394	1518.9103	1548.5493	1732.702	1825.4619	3030.657	3052.3048	3091.3181	3122.5502	3146.3577	3183.4294	3496.5456	3586.0023
CC1(CO1)C(=O)NC=N	C[C@]1(CO1)C(=O)NC=N	
InChI=1S/C5H8N2O2/c1-5(2-9-5)4(8)7-3-6/h3H,2H2,1H3,(H2,6,7,8)	InChI=1S/C5H8N2O2/c1-5(2-9-5)4(8)7-3-6/h3H,2H2,1H3,(H2,6,7,8)/t5-/m0/s1
