15
gdb 34193	4.28945	1.39784	1.2561	4.2915	75.48	-0.2371	-0.0234	0.2137	977.4568	0.114978	-379.627221	-379.620672	-379.619728	-379.658038	26.495	
N	 0.0129062437	-1.1079868853	-0.0488961264	-0.345004
C	-0.0120190072	 0.0496838497	-0.0358910066	 0.177003
C	-0.0432117397	 1.4730936847	-0.0375713072	 0.249092
N	-1.1560925029	 2.2475616155	 0.5477716514	-0.367138
C	-0.7051362905	 3.4264635943	-0.3388484182	-0.094796
C	 0.1744107882	 4.2455786216	 0.5784679149	-0.058071
C	 1.2889497075	 3.546136289	 0.8170782061	-0.06391
C	 1.2897524426	 2.3180536864	-0.0232740335	-0.123845
C	 0.2723634439	 2.482428358	-1.1124639729	-0.156961
H	-2.009758686	 1.8749176358	 0.1332252688	 0.233492
H	-1.5183613157	 3.9243217921	-0.8616981039	 0.089062
H	-0.1584021624	 5.1365102817	 1.0936903947	 0.114137
H	 2.0543807782	 3.7696141607	 1.5485570957	 0.115047
H	 2.1844142657	 1.7359796112	-0.2059881814	 0.115424
H	 0.4413841946	 2.3740770545	-2.1766382315	 0.116468
138.9561	161.1346	367.2091	395.0685	490.6243	506.952	562.1184	611.9584	692.0451	712.5315	762.8402	801.3241	829.4875	877.2642	884.2296	898.7602	926.64	939.8314	992.7215	1026.4237	1037.8096	1076.2243	1121.7755	1146.4925	1212.75	1235.7167	1257.5558	1274.5279	1314.8627	1365.8552	1408.3473	1641.3457	2341.0206	3145.5258	3188.2812	3202.093	3215.0038	3238.2574	3468.1014
N#CC12NC3C=CC1C23	N#C[C@@]12N[C@H]3C=C[C@@H]1[C@@H]23	
InChI=1S/C7H6N2/c8-3-7-4-1-2-5(9-7)6(4)7/h1-2,4-6,9H	InChI=1S/C7H6N2/c8-3-7-4-1-2-5(9-7)6(4)7/h1-2,4-6,9H/t4-,5+,6-,7-/m1/s1
