25
gdb 120446	4.0899	0.73196	0.71512	0.9378	90.76	-0.2411	0.0828	0.3238	1775.5885	0.22663	-389.489384	-389.478674	-389.47773	-389.525299	40.03	
C	-0.1274733148	 1.0945917431	 0.871674035	-0.384534
C	-0.2331361784	-0.2098239093	 0.0994649959	-0.040161
O	 0.8913896124	-0.321382812	-0.7515894874	-0.252506
C	 0.9126334313	-1.5051274228	-1.5047949409	 0.169826
C	-0.0253795774	-1.6191656501	-2.7410373911	-0.295091
C	 1.1851143731	-2.1725160018	-3.5632265725	 0.342869
C	 1.1868045276	-3.70295123	-3.6253978952	-0.43554
C	 1.3800500958	-1.5744631291	-4.9531356558	-0.445576
C	 2.1281335165	-1.6254905397	-2.4419574927	-0.299398
H	 0.7897626238	 1.1139804746	 1.4671734142	 0.125578
H	-0.1066297048	 1.9458076566	 0.185127966	 0.124991
H	-0.9824201951	 1.2115418129	 1.544458234	 0.112283
H	-0.2691306021	-1.0681675722	 0.7923521934	 0.082959
H	-1.1647934379	-0.2340840974	-0.4890933383	 0.088517
H	 0.8088152689	-2.3758432723	-0.8390220187	 0.059786
H	-0.91224542	-2.2542821614	-2.6642372887	 0.088522
H	-0.3228496925	-0.6226632673	-3.081740457	 0.098056
H	 0.3805639384	-4.0691828408	-4.2715481352	 0.110388
H	 2.1348659322	-4.0769045132	-4.0290996647	 0.110951
H	 1.0482591304	-4.1515553712	-2.6360457273	 0.111598
H	 1.3841702546	-0.4800931274	-4.9180745293	 0.109499
H	 2.3306938172	-1.8987889782	-5.3935278679	 0.110384
H	 0.5779235999	-1.885177701	-5.6333782408	 0.109757
H	 2.50852051	-0.6287226366	-2.6821472731	 0.104866
H	 2.9595331009	-2.2584762236	-2.1208955317	 0.091973
53.6484	84.0161	92.6417	169.5372	218.5877	244.7594	265.5033	286.5343	302.3805	335.7833	383.3045	396.4135	454.3223	477.4456	605.2978	743.7192	821.0655	833.6824	869.4242	888.8323	914.1944	945.2898	965.3501	975.2367	1003.1884	1044.9821	1062.8887	1088.473	1120.725	1157.6147	1187.7813	1200.2446	1211.8639	1230.0646	1235.6305	1294.4248	1297.3626	1300.308	1305.6323	1375.3589	1401.9896	1404.5374	1420.5982	1441.0955	1466.6453	1483.3807	1483.7991	1485.0885	1498.1323	1500.2542	1504.0079	1506.4094	1529.6733	2953.7837	2975.7845	2983.9456	3016.3371	3022.2642	3044.0114	3047.3995	3056.6486	3079.5899	3087.4239	3091.2811	3094.4996	3105.8564	3112.6473	3118.17	3120.3624
CCOC1CC(C)(C)C1	CCOC1CC(C)(C)C1	
InChI=1S/C8H16O/c1-4-9-7-5-8(2,3)6-7/h7H,4-6H2,1-3H3	InChI=1S/C8H16O/c1-4-9-7-5-8(2,3)6-7/h7H,4-6H2,1-3H3
