19
gdb 91719	2.63273	1.64982	1.49421	3.8114	75.8	-0.2337	0.0291	0.2628	992.6956	0.162535	-419.2219	-419.214526	-419.213582	-419.253466	29.999	
C	-0.2063342837	 1.5416390714	 0.0015766882	-0.382587
C	 0.0171022479	 0.0333029487	 0.007636568	 0.027408
N	 0.8506132121	-0.4186066552	-1.1513208004	-0.313627
C	 1.9450159151	-1.2231044697	-0.5434055707	-0.102401
C	 1.2891697885	-1.8793076056	 0.6932134852	-0.24751
C	 0.8386678729	-0.5024009571	 1.2017190709	 0.083499
O	 2.092739249	 0.2329697778	 1.2399569936	-0.26705
C	 2.830979998	-0.2141009964	 0.1620363781	 0.484587
N	 3.9941789531	 0.1567576257	-0.1428712447	-0.567897
H	 0.7471653504	 2.0722119052	 0.0389594691	 0.138246
H	-0.7285210063	 1.8410978648	-0.9113127024	 0.117992
H	-0.8137873971	 1.8494043889	 0.8601507019	 0.105589
H	-0.9573680414	-0.4747753067	 0.0124746636	 0.072303
H	 0.3073824049	-1.0099164639	-1.7702172418	 0.223424
H	 2.468718108	-1.8388193652	-1.2696158995	 0.097366
H	 0.4637678496	-2.5499755483	 0.4432712639	 0.101644
H	 1.9884550649	-2.3727368959	 1.3722596306	 0.118085
H	 0.3679028309	-0.4253306841	 2.1802153337	 0.08957
H	 4.3332090935	 0.8585022256	 0.5189196528	 0.221359
112.0153	205.8796	236.9217	275.328	397.4546	412.4662	467.4267	515.9984	567.5284	712.5264	720.4415	756.7571	792.0418	848.6905	870.9689	895.9036	910.4029	952.6043	958.159	965.4728	975.3589	1013.3935	1056.973	1070.756	1105.6105	1131.7152	1147.7484	1200.3148	1245.6559	1255.766	1284.7989	1287.4284	1346.6975	1366.1252	1378.149	1408.5617	1431.28	1489.2182	1491.5374	1495.0605	1803.2825	3000.5718	3039.8993	3069.3301	3108.0181	3128.6574	3138.1821	3141.9191	3165.6811	3460.2415	3531.8526
CC1NC2CC1OC2=N	C[C@H]1N[C@@H]2C[C@H]1O[C]2[NH]	
InChI=1S/C6H10N2O/c1-3-5-2-4(8-3)6(7)9-5/h3-5,7-8H,2H2,1H3	InChI=1S/C6H10N2O/c1-3-5-2-4(8-3)6(7)9-5/h3-5,7-8H,2H2,1H3/t3-,4-,5-/m1/s1
