18
gdb 7436	3.15467	1.41103	1.16167	1.8872	64.67	-0.274	-0.0396	0.2344	1081.6759	0.150642	-422.097518	-422.088067	-422.087123	-422.132013	33.995	
C	-0.3717408151	 1.3543793505	 0.0982831943	-0.405035
C	 0.1513151647	-0.0836575508	-0.0438648092	 0.060811
O	 0.9992601877	-0.1813489779	-1.1578316565	-0.438161
C	 0.8849698875	-0.5531462804	 1.2096986056	 0.338714
O	 2.0436228042	-0.9163961671	 1.1188608369	-0.353987
C	 0.2013407792	-0.5786550589	 2.5742912593	 0.060811
C	-1.0592683756	-1.4576297543	 2.5716666604	-0.405032
O	 1.1024668276	-1.029391249	 3.5511682653	-0.438154
H	 0.4475302563	 2.0410750719	 0.330714842	 0.131969
H	-0.8121943614	 1.6588470247	-0.8539356721	 0.141595
H	-1.136992486	 1.4352568161	 0.8757357429	 0.121511
H	-0.7138110098	-0.7551024354	-0.1777933514	 0.100082
H	 1.8376365115	-0.535010659	-0.8228380315	 0.29486
H	-0.1001353544	 0.4583836657	 2.7998333366	 0.100082
H	-1.4542292645	-1.5004618784	 3.5893067251	 0.141594
H	-1.8360528453	-1.0550481216	 1.9150673754	 0.121513
H	-0.8176068277	-2.4767961052	 2.2559379902	 0.131968
H	 1.9355336711	-1.1997292009	 3.0851749168	 0.294859
39.5134	76.7997	190.9781	191.6983	236.2466	253.8088	319.3769	381.3789	393.0092	399.4289	431.2976	435.2452	491.4808	596.7569	761.8404	778.2556	912.824	937.3981	1008.7244	1023.5627	1068.6185	1086.1613	1120.0107	1182.2709	1210.2355	1264.4499	1292.0795	1351.0652	1357.3163	1402.9885	1403.1506	1429.9257	1432.308	1486.6603	1490.3855	1498.4738	1500.029	1767.0688	2961.5412	2961.9853	3044.7828	3045.2383	3120.1432	3122.3253	3130.8798	3130.9655	3697.4114	3706.1677
CC(O)C(=O)C(C)O	C[C@@H](O)C(=O)[C@@H](C)O	
InChI=1S/C5H10O3/c1-3(6)5(8)4(2)7/h3-4,6-7H,1-2H3	InChI=1S/C5H10O3/c1-3(6)5(8)4(2)7/h3-4,6-7H,1-2H3/t3-,4-/m1/s1
