17
gdb 68130	4.06508	1.23004	1.10674	1.3963	79.82	-0.2359	0.0031	0.239	1105.9092	0.134753	-384.620045	-384.612176	-384.611231	-384.651814	32.201	
O	-0.0992125323	 1.4235839337	-0.0076690194	-0.483212
C	-0.0152313961	 0.0377412075	 0.0100840507	 0.345024
C	 0.3410071587	-0.7976175823	 1.2933608667	-0.305332
C	-0.3520697608	-1.930508298	 0.4402737774	 0.211859
C	-1.3310743392	-0.7895422149	-0.0489886372	-0.271499
C	 0.6151529394	-1.9861866971	-0.7657266031	-0.123805
C	 0.8322989668	-0.7022792522	-1.0458719926	-0.182798
C	-0.8248287373	-3.1564364963	 1.0245718994	 0.043596
C	-1.2222285014	-4.1802518876	 1.5150395383	-0.336555
H	 0.7918209945	 1.7863387788	 0.0390608165	 0.281534
H	 1.3948035604	-0.9445763793	 1.5388142731	 0.09657
H	-0.2442589005	-0.5082354048	 2.1702495002	 0.108582
H	-2.0575972566	-0.4994056528	 0.7144688809	 0.110427
H	-1.8015677597	-0.9266567692	-1.0237402032	 0.105058
H	 0.9826885844	-2.8915999222	-1.2259310596	 0.11619
H	 1.4302766337	-0.2385846061	-1.8182161879	 0.106668
H	-1.5734613741	-5.083156257	 1.9491993998	 0.177692
139.0481	144.8773	245.6383	329.7644	355.0619	441.2768	497.8769	503.4953	512.2154	560.6038	563.0582	622.9262	630.8887	636.7353	692.2677	711.8111	859.1437	875.9293	901.0654	930.8871	940.0518	1004.0897	1036.3982	1048.8779	1059.2796	1127.5949	1139.6472	1173.5522	1186.6619	1232.477	1303.6357	1330.4253	1367.7319	1475.7073	1516.1894	1632.4143	2238.4371	3056.8431	3068.7742	3132.67	3142.0642	3219.6556	3249.7323	3503.6298	3808.6201
OC12CC(C1)(C=C2)C#C	O[C@@]12C[C@@](C1)(C=C2)C#C	
InChI=1S/C8H8O/c1-2-7-3-4-8(9,5-7)6-7/h1,3-4,9H,5-6H2	InChI=1S/C8H8O/c1-2-7-3-4-8(9,5-7)6-7/h1,3-4,9H,5-6H2/t7-,8-
