20
gdb 94173	2.43772	1.45774	1.17725	5.4829	74.39	-0.2535	0.023	0.2764	1134.829	0.171093	-440.308636	-440.299626	-440.298682	-440.341908	34.436	
C	 0.5191085248	 1.6640867273	-0.2409104422	-0.420377
C	-0.0129231089	 0.3015134361	 0.1827206049	 0.020683
N	 0.3057056289	-0.8243918713	-0.746537106	-0.354377
H	-0.7445335155	-1.9673307447	 0.3136406537	 0.313789
H	 0.474681518	-0.5771578402	-1.7166845955	 0.225559
C	 1.4894735606	-1.190762185	 0.0716530811	-0.215134
C	 0.8154793613	-0.4712768804	 1.2813911483	 0.123539
C	 1.6912996681	 0.297444794	 2.252579239	-0.466281
C	-0.108427225	-1.445917429	 2.0320675118	 0.420233
O	-0.1284393499	-1.5420919097	 3.2308806713	-0.342058
O	-0.9113957245	-2.1987405727	 1.2563306721	-0.390977
H	 1.5863941132	 1.6377579235	-0.4813968899	 0.12209
H	-0.0194457253	 2.0135484551	-1.1288733464	 0.122755
H	 0.3674989338	 2.4054428781	 0.5497747675	 0.135335
H	-1.0864927269	 0.3796296635	 0.3879113489	 0.094369
H	 1.6723339491	-2.2663652205	 0.1507016705	 0.12354
H	 2.4185178472	-0.6897984685	-0.226325876	 0.107397
H	 2.3525855152	 0.9934190722	 1.729715428	 0.105219
H	 1.0823393925	 0.8573338481	 2.9669211087	 0.137538
H	 2.3066142435	-0.3936129459	 2.8347012402	 0.137157
99.9065	161.7273	175.0852	222.161	247.2399	285.3069	290.8637	342.6001	372.8949	438.6532	471.9605	574.2256	691.0416	721.6998	745.5797	839.7314	842.319	885.1544	904.7854	944.1632	987.8587	1017.9304	1055.4147	1079.8385	1105.025	1151.4629	1170.2525	1177.1137	1229.091	1256.4265	1295.3759	1336.4452	1358.2536	1394.7996	1410.1673	1418.756	1449.8951	1480.6285	1484.7889	1496.7934	1497.8243	1528.7097	1852.3705	3025.9142	3033.3445	3038.6644	3051.0956	3086.2206	3099.4398	3112.1604	3122.6948	3125.5656	3399.3493	3514.3452
CC1[NH2+]CC1(C)C([O-])=O	C[C@H]1NC[C@]1(C)C(=O)O	
InChI=1S/C6H11NO2/c1-4-6(2,3-7-4)5(8)9/h4,7H,3H2,1-2H3,(H,8,9)	InChI=1S/C6H11NO2/c1-4-6(2,3-7-4)5(8)9/h4,7H,3H2,1-2H3,(H,8,9)/t4-,6+/m1/s1
