16
gdb 35200	3.48608	1.24816	1.12587	5.7351	74.37	-0.2509	0.0288	0.2797	1102.2865	0.123941	-400.696941	-400.6894	-400.688456	-400.72915	29.062	
N	 0.0183905712	-1.1002151208	-0.1252170507	-0.33499
C	 0.021333676	 0.0545786114	-0.0547188457	 0.301607
C	 0.010539182	 1.4858258512	 0.021396254	-0.274855
C	 0.5820607019	 2.1849480601	 1.2676319025	-0.370157
C	 1.3147961101	 2.2610358438	-0.0170273566	 0.480336
O	 2.5724115799	 1.6118209355	-0.1911399895	-0.302124
C	 3.0469432543	 2.7533072008	-0.9278398601	 0.102456
C	 2.2549062952	 2.9476410111	-2.1765867241	-0.299188
C	 1.7063568355	 3.4515400287	-0.8508664348	-0.22298
H	-0.8439040873	 1.9551833812	-0.4557066116	 0.13789
H	 0.0484876673	 3.0569953093	 1.6297320453	 0.134148
H	 1.0029065511	 1.5420426379	 2.0321394356	 0.155682
H	 4.0598620601	 3.0842653208	-0.7386509672	 0.119908
H	 2.6111192178	 3.731193003	-2.8381244853	 0.124304
H	 1.8085594666	 2.0884403768	-2.6682403679	 0.134104
H	 1.4506704683	 4.4822995191	-0.6494726541	 0.113859
94.4814	124.7873	186.934	291.4335	327.8046	436.7191	486.8939	501.2229	555.2378	660.8093	758.067	787.5275	808.7532	867.6923	890.777	911.9073	951.3224	963.5557	978.6963	1044.1762	1048.6417	1051.7198	1067.5635	1075.0633	1090.2154	1115.6677	1176.5845	1190.3529	1277.7562	1304.5897	1349.9326	1419.6256	1469.3371	1487.918	2354.9525	3123.287	3139.0894	3163.5141	3200.5833	3211.646	3220.6048	3236.5502
N#CC1CC11OC2CC12	N#C[C@H]1C[C@]21O[C@H]1C[C@@H]21	
InChI=1S/C7H7NO/c8-3-4-2-7(4)5-1-6(5)9-7/h4-6H,1-2H2	InChI=1S/C7H7NO/c8-3-4-2-7(4)5-1-6(5)9-7/h4-6H,1-2H2/t4-,5-,6+,7-/m1/s1
