15
gdb 20944	7.62294	1.13973	1.00974	2.186	64.02	-0.222	-0.0158	0.2062	1127.8691	0.12096	-392.146983	-392.13943	-392.138486	-392.179618	26.595	
C	-0.0125494088	 1.4802818271	 0.1133067798	-0.396638
C	-0.0454153554	-0.0172743797	-0.1703291068	-0.114699
N	-1.392960433	-0.5423783671	 0.0286978216	-0.381925
C	-1.6131952422	-1.8898982424	 0.0249600295	 0.503987
N	-2.8157782002	-2.4456455718	-0.1411125107	-0.324711
N	-2.501270901	-3.7368645367	-0.0040596202	-0.066786
N	-1.2294890726	-3.9839655718	 0.2187251547	-0.103601
N	-0.6338730294	-2.8150411577	 0.2393951503	-0.281696
H	 0.9987079479	 1.8711099628	-0.0285256775	 0.125756
H	-0.6767707585	 2.0285907466	-0.5651092113	 0.1151
H	-0.3269854728	 1.6902246407	 1.1395972868	 0.131615
H	 0.3205099921	-0.2195751216	-1.1890274639	 0.103092
H	 0.6203794677	-0.5520582069	 0.5116864414	 0.144278
H	-2.1388948066	-0.0089249178	-0.3933767784	 0.248174
H	-3.188316057	-4.4717238737	-0.0705571655	 0.298055
56.0009	93.8061	151.0328	258.4604	334.5796	350.6129	445.3356	528.1664	552.5951	717.2788	780.9324	784.4267	816.3021	936.9752	1021.1756	1053.5155	1094.6913	1148.1135	1161.8458	1166.0212	1189.9911	1263.759	1294.479	1350.1985	1389.1256	1416.5239	1463.3477	1493.433	1498.8828	1515.6899	1527.1684	1631.401	2983.5836	3034.5925	3089.2796	3109.9264	3124.2797	3609.2242	3658.6697
CCNC1=NNN=N1	CCNc1n[nH]nn1	
InChI=1S/C3H7N5/c1-2-4-3-5-7-8-6-3/h2H2,1H3,(H2,4,5,6,7,8)	InChI=1S/C3H7N5/c1-2-4-3-5-7-8-6-3/h2H2,1H3,(H2,4,5,6,7,8)
