14
gdb 24905	4.99889	1.32685	1.05719	1.079	69.37	-0.2062	-0.0128	0.1934	1044.3391	0.103995	-432.892091	-432.885392	-432.884448	-432.923268	25.855	
N	-0.0838477222	 1.2334256857	-0.0572469388	-0.526795
C	 0.0000904209	-0.0277987521	 0.0318808626	 0.376816
C	-1.2554217435	-0.9505935146	 0.0033610268	-0.420129
C	-0.5812589312	-2.2738162573	-0.0710325748	 0.261837
C	 0.7551605554	-2.1665521806	 0.018368253	 0.320939
N	 1.1561391051	-0.8330761109	 0.1676311683	-0.444812
N	 1.3567102067	-3.3997195953	 0.0495599829	-0.35269
C	 0.3310502854	-4.2037606701	-0.0227740674	 0.041501
O	-0.8902985582	-3.6022661652	-0.0822249917	-0.189118
H	 0.8337105481	 1.680498973	-0.0191383941	 0.212191
H	-1.8446695039	-0.7971183211	 0.9150453918	 0.153633
H	-1.8911837074	-0.6826562979	-0.8455509019	 0.153951
H	 2.0493823789	-0.492359401	-0.1532108679	 0.257928
H	 0.3358285759	-5.2811433927	-0.0516631889	 0.154748
111.8449	173.1129	321.7786	340.6982	386.4211	528.6048	545.3956	559.2292	635.6651	729.3801	738.8729	790.0433	816.7236	849.9528	862.7062	954.5316	968.501	1054.6601	1099.4575	1136.4972	1147.3887	1230.2108	1273.7098	1294.5839	1314.59	1390.8964	1465.4853	1466.9866	1518.2214	1681.3289	1755.8782	3043.0573	3085.3804	3287.1623	3461.7698	3627.9714
N=C1CC2=C(N1)N=CO2	[NH][C]1Cc2c(N1)nco2	
InChI=1S/C5H5N3O/c6-4-1-3-5(8-4)7-2-9-3/h2H,1H2,(H2,6,8)	InChI=1S/C5H5N3O/c6-4-1-3-5(8-4)7-2-9-3/h2H,1H2,(H2,6,8)
