18
gdb 110249	2.12284	1.59081	1.0662	1.951	73.52	-0.2451	-0.0106	0.2346	1160.6069	0.14643	-439.022171	-439.013708	-439.012764	-439.055405	32.199	
C	 0.0853026812	 1.5532279022	-0.0393506774	-0.380323
C	 0.1243261864	 0.0308238384	 0.0631225546	-0.144663
N	 0.6409430621	-0.5518320816	-1.1841745913	-0.137655
C	-0.3047029033	-0.7028173232	-2.3824946047	-0.208628
C	 0.736243829	-1.7576979939	-2.8964497649	 0.200166
O	 1.9659417602	-1.296734075	-3.336052064	-0.447862
C	 0.5690683547	-2.0678150329	-1.3683403924	-0.205686
C	-0.9457370523	-1.8474141905	-1.5701347487	 0.435025
O	-1.9992861282	-2.1992950206	-1.1389655914	-0.31861
H	 1.0719257321	 1.9512089054	-0.2931823878	 0.125535
H	-0.6219375723	 1.8807349629	-0.8082008057	 0.123756
H	-0.2319584475	 1.9901066698	 0.9118451268	 0.123714
H	 0.8173210356	-0.2734334777	 0.8561340012	 0.111839
H	-0.8691130772	-0.3568980043	 0.335795569	 0.117552
H	-0.7320905994	 0.1536385309	-2.8997687462	 0.104483
H	 0.3693353226	-2.509982573	-3.5943679078	 0.109108
H	 2.2374889145	-0.6370356867	-2.6801643673	 0.289375
H	 1.1279491619	-2.7530127802	-0.7334128221	 0.102874
75.7289	138.5202	163.2529	208.7562	269.5826	300.6761	395.7734	412.2027	510.1306	556.8026	572.9282	699.2275	715.2873	734.6239	782.6069	829.0355	843.6262	863.5638	975.3796	993.0225	1050.6081	1091.6053	1106.147	1118.9124	1137.3265	1156.9261	1177.8418	1190.8721	1205.597	1239.8562	1305.4298	1317.5018	1393.313	1413.5151	1454.5085	1490.74	1494.6335	1511.5286	1905.6627	2990.7272	3041.8839	3056.8737	3112.1395	3120.981	3128.1929	3144.0535	3150.6666	3726.4116
CCN1C2C(O)C1C2=O	CCN1[C@H]2[C@@H](O)[C@@H]1C2=O	
InChI=1S/C6H9NO2/c1-2-7-3-5(8)4(7)6(3)9/h3-5,8H,2H2,1H3	InChI=1S/C6H9NO2/c1-2-7-3-5(8)4(7)6(3)9/h3-5,8H,2H2,1H3/t3-,4+,5+
