20
gdb 95047	2.15169	1.92227	1.19572	2.4075	78.14	-0.227	-0.0254	0.2016	1080.7628	0.171914	-403.156173	-403.148034	-403.14709	-403.188939	31.665	
C	 0.0198727173	 1.5742467179	-0.130363928	-0.408523
C	 0.1220835036	 0.0503595089	-0.0709604903	 0.018915
C	 0.9512247206	-0.6064611836	-1.1925282054	-0.233609
C	 1.312560595	-1.981135507	-0.5963575292	-0.17969
N	 1.5357270064	-1.763838398	 0.8428168095	-0.097049
C	 2.8522949452	-1.1557939375	 1.1926652431	-0.30221
C	 2.118624358	 0.1053081267	 1.6681934037	 0.402055
O	 2.4464741561	 1.1370446745	 2.1754924136	-0.29681
C	 0.7855113543	-0.5111677924	 1.2147432601	-0.126269
H	 1.0082204316	 2.042052367	-0.0965223677	 0.131935
H	-0.4763519116	 1.891512325	-1.0530232286	 0.114515
H	-0.5583102373	 1.9676923954	 0.7117007006	 0.123445
H	-0.8914591565	-0.3700454565	-0.1094268366	 0.082856
H	 0.4027979788	-0.6779166507	-2.1357538855	 0.102199
H	 1.8573035883	-0.0175793716	-1.384982084	 0.101846
H	 0.4756872287	-2.6790695648	-0.7228669312	 0.105041
H	 2.1933320829	-2.4435615443	-1.050926672	 0.10635
H	 3.4042146479	-1.7034923219	 1.9644483969	 0.132421
H	 3.5277059029	-0.9726082874	 0.3445520858	 0.121139
H	 0.0628190979	-0.6388256597	 2.0281611753	 0.101444
69.0877	143.5751	191.8859	229.6509	301.1975	356.0464	425.4291	430.7435	530.4386	579.9516	602.7969	689.6275	725.6701	829.4819	847.3371	908.0723	945.4028	966.6369	968.4848	989.1537	996.9772	1048.4563	1076.3856	1105.1437	1135.1897	1162.5697	1180.6131	1196.4698	1227.0123	1246.2259	1273.7035	1280.2185	1310.2311	1350.2159	1360.3949	1372.4194	1420.2124	1463.2364	1490.7177	1494.3944	1501.1958	1504.4275	1899.6114	3005.8497	3012.1147	3026.0964	3032.9801	3038.284	3049.1	3066.5551	3089.3666	3096.4968	3103.7957	3114.1928
CC1CCN2CC(=O)C12	C[C@H]1CCN2CC(=O)[C@@H]12	
InChI=1S/C7H11NO/c1-5-2-3-8-4-6(9)7(5)8/h5,7H,2-4H2,1H3	InChI=1S/C7H11NO/c1-5-2-3-8-4-6(9)7(5)8/h5,7H,2-4H2,1H3/t5-,7+/m0/s1
