16
gdb 51065	4.2393	1.11096	1.04786	1.5535	70.79	-0.2438	0.0105	0.2542	1161.3222	0.12406	-437.797923	-437.790478	-437.789534	-437.830604	28.021	
N	-0.1302772399	 1.3404995372	 0.0427390202	-0.43372
C	-0.1043710235	 0.0929508004	 0.2008620815	 0.103506
O	-1.1236329232	-0.6622768643	-0.3008812318	-0.224618
C	-0.9814057826	-2.0216814048	-0.1766857909	 0.35179
C	-2.0308613037	-3.0960607502	-0.032747567	-0.176453
C	-1.4850518855	-3.8770913574	-1.2268415295	-0.22878
C	-0.1446168653	-3.1567824854	-0.9314040841	-0.007091
O	 0.2698450988	-3.7019778339	 0.3502799315	-0.279853
C	-0.814156925	-2.9951200583	 0.9405998892	-0.006797
H	 0.684858945	 1.7648902643	 0.4809161836	 0.236368
H	 0.654990109	-0.5048728298	 0.7182501101	 0.11261
H	-3.0470804366	-2.9913357051	 0.3236207472	 0.107843
H	-1.4578428714	-4.9691318075	-1.1802432309	 0.108765
H	-1.9317351753	-3.5363122937	-2.163695506	 0.117068
H	 0.6655965625	-3.0647295855	-1.6508197641	 0.098751
H	-0.8934904635	-2.9287851061	 2.0169591411	 0.12061
71.2624	103.2995	128.7779	310.6187	367.0017	429.945	498.1971	556.8319	719.7672	733.5701	781.6561	820.1831	829.0234	886.0674	920.9035	940.176	967.9112	972.8381	1031.5389	1041.2569	1049.9496	1066.3612	1083.7202	1107.8573	1136.203	1154.8792	1214.2149	1227.6155	1267.5021	1270.0344	1311.9083	1407.8977	1455.018	1489.6673	1750.7835	3058.1042	3061.4593	3125.7762	3154.9842	3211.0179	3221.5393	3518.7513
N=COC12C3CC1OC23	[NH][CH]O[C@@]12[C@H]3C[C@@H]1O[C@@H]23	
InChI=1S/C6H7NO2/c7-2-8-6-3-1-4(6)9-5(3)6/h2-5,7H,1H2	InChI=1S/C6H7NO2/c7-2-8-6-3-1-4(6)9-5(3)6/h2-5,7H,1H2/t3-,4-,5+,6-/m0/s1
