16
gdb 69142	2.73727	1.75046	1.37307	3.975	68.41	-0.2485	-0.0304	0.2181	960.5529	0.124092	-437.863812	-437.856432	-437.855488	-437.895436	28.704	
C	 0.0071817328	 1.5046086946	-0.0078118943	-0.48169
C	-0.0506362132	-0.0024143963	 0.0082951559	 0.284263
C	-0.623303886	-0.7723088416	 1.144257309	-0.286403
N	 0.847325678	-0.7127386151	 0.9395847927	-0.173959
C	 1.47276894	-1.8066574856	 0.2532655362	 0.406224
O	 2.2220633321	-2.5908954498	 0.7641537809	-0.310506
C	 1.0552950748	-1.7725326444	-1.2109221616	-0.093002
O	-0.353716253	-2.0825776459	-1.3035981476	-0.243347
C	 0.0429101726	-0.7147816939	-1.3334165496	-0.019129
H	 0.8645316064	 1.8585069103	-0.5906973163	 0.129959
H	-0.9027559863	 1.9215773812	-0.452841632	 0.128215
H	 0.1069049635	 1.8940987866	 1.0078233352	 0.140701
H	-0.9689507054	-0.2433990982	 2.0279766376	 0.129619
H	-1.1197109811	-1.7116063522	 0.9296274741	 0.153435
H	 1.6894946815	-2.1650517163	-1.9990957562	 0.124708
H	-0.1521287067	-0.1765374734	-2.256221194	 0.11091
132.3295	192.0111	201.4901	287.8872	315.9474	370.7043	473.2226	524.4038	580.0848	625.5577	736.2536	773.407	805.1664	844.3872	865.2446	887.6555	936.516	956.0544	1014.1057	1037.1329	1076.6132	1107.5577	1118.1167	1133.8072	1166.4441	1236.9444	1266.878	1322.5324	1362.9962	1409.8134	1421.8507	1484.5066	1493.0224	1497.3336	1858.825	3035.3308	3098.2843	3123.0329	3128.6503	3162.8017	3178.7566	3226.3873
CC12CN1C(=O)C1OC21	C[C@]12CN1C(=O)[C@H]1O[C@@H]21	
InChI=1S/C6H7NO2/c1-6-2-7(6)5(8)3-4(6)9-3/h3-4H,2H2,1H3	InChI=1S/C6H7NO2/c1-6-2-7(6)5(8)3-4(6)9-3/h3-4H,2H2,1H3/t3-,4+,6+,7?/m0/s1
