17
gdb 36319	3.86841	1.16809	0.98962	5.19	77.25	-0.2366	-0.0088	0.2278	1174.9012	0.1375	-380.859869	-380.852248	-380.851304	-380.892472	29.131	
N	-0.0063872422	-1.2649642568	 0.1569080368	-0.306384
C	-0.0189764581	-0.1133293246	 0.0663848653	 0.277772
C	-0.05059793	 1.3423148427	-0.0638892223	-0.352243
C	 1.3429521969	 1.9916118997	 0.0688408886	-0.009144
C	 1.3463059081	 3.4977693341	-0.1182885227	-0.112
C	 1.9865812896	 4.0892336379	 0.8896793281	-0.08231
C	 2.4120030543	 3.0737098696	 1.8949384102	-0.063659
C	 1.2905461753	 2.3414877478	 2.5508510435	-0.244869
N	 1.972638372	 1.7521924823	 1.3898278477	-0.09196
H	-0.4680589833	 1.5911162666	-1.0460131651	 0.153542
H	-0.738101215	 1.7497046273	 0.684383845	 0.150391
H	 1.9879363839	 1.5155458002	-0.6829467713	 0.113852
H	 0.8852127339	 3.9921408523	-0.9655534491	 0.106874
H	 2.1724035366	 5.1505264457	 0.9984401238	 0.113119
H	 3.3899789782	 3.1358326672	 2.3638197648	 0.104213
H	 1.4543932957	 1.7934800493	 3.474242369	 0.128401
H	 0.2978025641	 2.7704960988	 2.4385512777	 0.114406
59.5533	119.8283	205.6267	271.2475	387.3039	393.5744	430.3919	485.2023	598.9962	706.2796	726.6342	754.8675	793.7983	859.5357	865.6038	934.6067	950.9431	960.3563	995.9509	1035.5333	1050.3389	1079.4274	1097.0881	1107.8432	1135.1296	1160.1433	1221.7975	1265.166	1285.5391	1324.4242	1347.8719	1364.7096	1376.1309	1462.2851	1494.8298	1669.131	2365.5091	3002.3176	3051.121	3091.2688	3105.6809	3149.6315	3194.5951	3195.7838	3222.052
N#CCC1C=CC2CN12	N#CC[C@H]1C=C[C@H]2CN12	
InChI=1S/C7H8N2/c8-4-3-6-1-2-7-5-9(6)7/h1-2,6-7H,3,5H2	InChI=1S/C7H8N2/c8-4-3-6-1-2-7-5-9(6)7/h1-2,6-7H,3,5H2/t6-,7+,9?/m1/s1
