15
gdb 14830	4.00838	1.41252	1.17302	1.9211	65.3	-0.257	-0.0382	0.2189	1023.5564	0.117373	-399.796968	-399.788781	-399.787836	-399.830519	27.606	
C	-0.0233708694	 1.4733593195	 0.1437033269	-0.341794
N	 0.2535898645	 0.0549733165	-0.0445516505	-0.322569
C	 0.5827170585	-0.6416670056	 0.9365931397	 0.459686
O	 0.7481393141	-0.3320172474	 2.2737325768	-0.262662
C	 1.1113918729	-1.7142333302	 2.5960838182	-0.094338
C	 0.9236289493	-2.1170489697	 1.1254624533	-0.258433
C	-0.2192307445	-3.056533223	 0.8040470887	 0.147827
O	-0.863479124	-3.6435026634	 1.6337220088	-0.232023
H	 0.6645324115	 2.0561958354	-0.4781708767	 0.131778
H	-1.0364809477	 1.6873425601	-0.2126221995	 0.133193
H	 0.0656181014	 1.8124676669	 1.1818910478	 0.130703
H	 2.1288794278	-1.7678819984	 2.9873988218	 0.12522
H	 0.3959678504	-2.1627843596	 3.2865734674	 0.147956
H	 1.8204294944	-2.4247258478	 0.5799165304	 0.129086
H	-0.4359807493	-3.151306673	-0.2803455031	 0.106371
70.0038	86.3671	116.1993	168.382	202.3018	258.2032	309.3637	491.3251	644.1087	668.9308	709.8669	821.4214	908.3059	963.462	984.0181	1051.226	1068.3	1095.7376	1114.2477	1133.3804	1161.3926	1174.4076	1193.8042	1313.9594	1345.0496	1417.3225	1439.461	1493.9455	1497.1999	1513.6748	1819.945	1850.4663	2921.4637	3021.7774	3077.6017	3083.3487	3089.1629	3093.9763	3147.7198
CN=C1OCC1C=O	CN=C1OC[C@H]1C=O	
InChI=1S/C5H7NO2/c1-6-5-4(2-7)3-8-5/h2,4H,3H2,1H3	InChI=1S/C5H7NO2/c1-6-5-4(2-7)3-8-5/h2,4H,3H2,1H3/t4-/m1/s1
