19
gdb 86798	3.2458	1.05107	0.87666	2.0037	83.73	-0.2339	0.0095	0.2434	1358.2171	0.157309	-385.864614	-385.855456	-385.854511	-385.899088	34.153	
C	 0.2290598263	 1.5039214286	-0.1991632444	-0.388664
C	-0.0043537991	 0.0174841996	 0.069455849	 0.093447
O	 0.4860506188	-0.7627760846	-1.0281195854	-0.279516
C	 1.3679522935	-1.7858613994	-0.574953546	 0.082154
C	 2.7147454424	-1.7047554476	-1.3300811886	-0.35926
C	 2.5898068917	-1.9688249521	-2.7570451645	 0.310326
C	 2.4772597108	-2.203326856	-3.9301765696	-0.443131
C	 1.4943220005	-1.5494551258	 0.9074577776	-0.109441
C	 0.7213502653	-0.5331994772	 1.2688011578	-0.100154
H	 1.2995091431	 1.7199895322	-0.2624306399	 0.11825
H	-0.2406791485	 1.7909132801	-1.1438891153	 0.130343
H	-0.2059888821	 2.1126380763	 0.6006769367	 0.110759
H	-1.0904344101	-0.1542339838	 0.1644337894	 0.082347
H	 0.9225551532	-2.7714421625	-0.7881768948	 0.090804
H	 3.1416904455	-0.7089781779	-1.1626327141	 0.13096
H	 3.4074345648	-2.4293784241	-0.8816283407	 0.123521
H	 2.3783182985	-2.4012102942	-4.9684085771	 0.193035
H	 2.1289732092	-2.1495358588	 1.5476710356	 0.106695
H	 0.5936042264	-0.1340466426	 2.2673410545	 0.107528
52.5368	74.81	122.6331	218.5552	238.0408	294.9399	343.1471	359.4394	413.9278	499.4704	560.7551	613.927	636.5895	691.7691	771.6559	792.389	823.6708	871.6912	929.8342	956.945	962.6349	994.8271	1023.1193	1056.9354	1090.5393	1112.2601	1134.9525	1142.4599	1229.0878	1274.0704	1312.7214	1353.2954	1363.3813	1375.5644	1376.5542	1400.9503	1456.2679	1486.1787	1494.6319	1691.2393	2241.1387	2949.8193	2966.2941	3020.5614	3037.6717	3064.5201	3111.2118	3122.9235	3202.5302	3227.2965	3508.1469
CC1OC(CC#C)C=C1	C[C@H]1O[C@@H](CC#C)C=C1	
InChI=1S/C8H10O/c1-3-4-8-6-5-7(2)9-8/h1,5-8H,4H2,2H3	InChI=1S/C8H10O/c1-3-4-8-6-5-7(2)9-8/h1,5-8H,4H2,2H3/t7-,8+/m1/s1
