15
gdb 29425	6.79848	0.8434	0.76335	3.1583	72.94	-0.1975	0.0059	0.2034	1423.0333	0.112759	-453.954261	-453.945866	-453.944922	-453.988004	30.484	
N	-0.0202101387	 1.3567824929	 0.3293671906	-0.605132
C	-0.0007357414	-0.0117753163	 0.0426461807	 0.251812
C	-1.0539866884	-0.8492113212	-0.170028563	-0.104776
O	-0.5969023049	-2.1472556421	-0.3318567891	-0.190434
C	 0.7420707935	-2.0913546632	-0.2122249658	 0.470147
O	 1.4382373943	-3.231566462	-0.3989644905	-0.215329
C	 0.9346867537	-4.3926772144	 0.1218709045	 0.108623
N	 1.5172540656	-5.4729825834	-0.149537103	-0.422946
C	 1.1849035708	-0.8308765532	 0.0178604433	-0.392572
H	 0.7649667401	 1.8533594416	-0.0708276223	 0.24891
H	-0.8817272472	 1.8099127281	 0.0547966548	 0.245924
H	-2.1205152408	-0.7197636784	-0.2180594441	 0.125645
H	 0.0481207554	-4.2361961628	 0.7412584582	 0.122812
H	 1.0487857469	-6.2468165573	 0.3174547018	 0.238651
H	 2.2073273311	-0.5249287485	 0.1652468038	 0.118663
47.8424	93.2291	142.1294	231.2645	257.7647	324.0156	390.5085	453.5509	506.1453	594.8068	637.2442	668.1567	686.1897	739.2147	780.531	804.4149	831.1655	959.7105	999.547	1043.9808	1046.835	1099.1399	1134.3364	1211.402	1258.9171	1270.5235	1350.8034	1411.6233	1456.5541	1607.4231	1655.423	1683.4181	1755.1223	3099.2821	3271.1966	3294.8588	3521.5636	3542.7096	3632.8968
NC1=COC(OC=N)=C1	Nc1coc(O[CH][NH])c1	
InChI=1S/C5H6N2O2/c6-3-9-5-1-4(7)2-8-5/h1-3,6H,7H2	InChI=1S/C5H6N2O2/c6-3-9-5-1-4(7)2-8-5/h1-3,6H,7H2
