19
gdb 74726	2.3412	1.70823	1.19828	2.6733	81.56	-0.2278	-0.0249	0.203	1083.3425	0.158858	-385.872829	-385.864605	-385.863661	-385.905736	31.632	
C	-0.0823009026	 1.4812146478	-0.0475555741	-0.519799
C	-0.0343350616	-0.008061712	-0.0465928296	 0.297892
C	-0.0869453172	-0.9038140764	-1.0377768509	-0.199208
C	 0.0372248086	-2.2569713912	-0.3264840931	-0.076006
C	-0.9340587244	-2.0259933841	 0.8790160618	-0.25295
C	 0.1441813359	-0.9140712941	 1.2050562573	 0.168651
C	 1.1968456896	-1.9423062535	 0.680123409	-0.244057
C	 0.2119426123	-0.3026744847	 2.5627691563	 0.031092
O	 1.0883532874	-0.5114413994	 3.3659056913	-0.250666
H	 0.8183082571	 1.9136203353	 0.4070801923	 0.135727
H	-0.1646258005	 1.8670083157	-1.0675127106	 0.130261
H	-0.9357253959	 1.8646048514	 0.5262986558	 0.129534
H	-0.1816396651	-0.739396788	-2.1023847253	 0.100836
H	 0.0108186938	-3.1697382201	-0.9201156737	 0.066805
H	-1.948028273	-1.688170843	 0.6554681795	 0.100132
H	-0.9361821049	-2.8408171829	 1.6096543561	 0.106217
H	 1.4002765134	-2.744744545	 1.3944420502	 0.107234
H	 2.1238836407	-1.5384276237	 0.2695148252	 0.100224
H	-0.6421943337	 0.369426668	 2.8159004324	 0.06808
66.3243	149.3241	190.4956	201.1874	245.9942	327.8554	451.1331	494.8985	524.8711	564.9565	603.9318	713.7458	775.7932	786.6654	839.7134	862.1602	904.1525	939.2701	955.992	997.677	1009.0781	1045.7889	1060.045	1073.4103	1082.7923	1160.3474	1162.8626	1182.0957	1222.572	1225.8075	1257.5186	1286.2469	1310.1006	1414.2358	1427.7062	1476.1867	1478.1758	1486.5899	1513.5114	1688.74	1817.2581	2847.3791	3014.825	3049.296	3059.3873	3064.5932	3108.3964	3125.0092	3126.0371	3133.2752	3224.9941
CC1=CC2CC1(C2)C=O	CC1=C[C@@H]2C[C@]1(C2)C=O	
InChI=1S/C8H10O/c1-6-2-7-3-8(6,4-7)5-9/h2,5,7H,3-4H2,1H3	InChI=1S/C8H10O/c1-6-2-7-3-8(6,4-7)5-9/h2,5,7H,3-4H2,1H3/t7-,8+
