12
gdb 9160	8.06586	0.78033	0.71466	4.307	75.98	-0.2645	-0.0789	0.1856	1450.4435	0.080169	-381.282937	-381.274299	-381.273355	-381.31677	29.291	
O	 0.0492902117	 1.3911482923	 0.0091956794	-0.393223
C	-0.0211075733	-0.006397593	 0.0022439696	-0.175384
C	-1.4807720261	-0.4409457514	 0.0137672191	 0.165372
O	-2.4128213959	 0.3268682051	 0.0268319786	-0.249952
C	-1.665677292	-1.8819664309	 0.0077305894	 0.434055
C	-1.8503633969	-3.0808586641	 0.0031636003	-0.288765
C	-2.0461661064	-4.4243126569	-0.0022354425	 0.29958
C	-2.2208733177	-5.6191850159	-0.0073268072	-0.538145
H	 0.9769279445	 1.6443990834	 0.001492552	 0.297134
H	 0.4467156502	-0.4621478211	-0.8882084699	 0.121447
H	 0.4635297678	-0.4717768415	 0.8786158511	 0.121447
H	-2.3751465159	-6.6702675659	-0.0115608099	 0.206435
69.8147	71.4967	127.7317	208.6581	214.4929	281.3875	305.6881	403.9768	505.5184	543.3334	566.4797	609.0808	615.3582	639.9036	762.5028	957.2513	1012.4554	1132.9381	1185.9752	1243.7033	1246.7011	1442.3852	1488.242	1780.4005	2173.4905	2335.2003	2952.7833	2975.418	3500.2908	3837.6638
OCC(=O)C#CC#C	OCC(=O)C#CC#C	
InChI=1S/C6H4O2/c1-2-3-4-6(8)5-7/h1,7H,5H2	InChI=1S/C6H4O2/c1-2-3-4-6(8)5-7/h1,7H,5H2
