16
gdb 125356	3.12607	1.1953	0.93782	3.091	71.64	-0.2577	-0.0514	0.2062	1211.1795	0.123527	-434.075484	-434.066837	-434.065893	-434.110223	29.829	
C	 0.0094509639	 1.5189720795	-0.0425867116	-0.508587
C	-0.0297241696	 0.0282415136	-0.0676583754	 0.306132
C	-0.0826846327	-0.8855177009	-1.095757052	-0.142939
N	-0.1143830675	-2.1446519838	-0.580200404	-0.187781
N	-0.0847981692	-2.0718263202	 0.7155692723	-0.151945
N	-0.0385944188	-0.7561275353	 1.0465029013	-0.005701
C	 0.056964658	-0.3699215083	 2.434771527	-0.246356
C	 1.485823098	-0.0061991898	 2.8371336264	 0.148425
O	 1.7478772829	 0.8324628507	 3.6548613455	-0.220541
H	 0.9016182367	 1.9017582172	 0.4652955168	 0.150145
H	 0.0159436518	 1.9047468664	-1.063862682	 0.151644
H	-0.8641493473	 1.9403410939	 0.4680506471	 0.146689
H	-0.1033791131	-0.705838173	-2.158866233	 0.12582
H	-0.6101990935	 0.4642394204	 2.665150633	 0.149968
H	-0.25206754	-1.2405356333	 3.0234607666	 0.174796
H	 2.2675322504	-0.5995933172	 2.3141704821	 0.11023
44.817	63.152	121.6006	138.6283	247.1782	255.5597	365.9617	393.4133	447.6565	659.5281	677.9715	712.8293	719.4524	823.0275	845.3329	980.3681	1002.423	1035.1588	1043.1887	1066.8766	1136.6226	1158.3611	1228.0721	1281.3777	1323.2035	1330.7135	1351.5307	1408.2401	1424.1807	1444.3058	1456.6268	1484.3674	1508.1162	1594.6178	1843.9709	2904.6101	3033.0768	3060.8061	3084.5146	3121.3905	3132.4793	3266.6079
CC1=CN=NN1CC=O	Cc1cnnn1CC=O	
InChI=1S/C5H7N3O/c1-5-4-6-7-8(5)2-3-9/h3-4H,2H2,1H3	InChI=1S/C5H7N3O/c1-5-4-6-7-8(5)2-3-9/h3-4H,2H2,1H3
