18
gdb 40380	3.95584	1.32511	1.20038	2.7074	74.84	-0.2082	0.063	0.2712	1063.7567	0.147037	-401.824497	-401.817101	-401.816157	-401.856371	29.734	
C	-0.827820191	-0.4241500358	-1.1228465448	-0.226674
C	-1.0881552664	 0.9343655108	-0.5749037787	-0.230202
N	-0.0952385221	 0.0509292475	 0.0453096452	-0.154887
C	-0.4139684003	-0.5077349702	 1.3124373096	 0.333366
C	-0.3493788689	-1.9550673181	 1.6658852653	-0.321552
C	-1.6495100433	-1.2066850502	 1.9159757149	-0.185027
C	-1.517098433	-0.2682304339	 3.1539687887	 0.028961
O	-0.2260524357	-0.4406335643	 3.7634265889	-0.239484
C	-0.3418845025	 0.3867781386	 2.5977365916	-0.032698
H	-1.6041814334	-1.1718081931	-0.973597929	 0.115797
H	-0.2353752669	-0.5542131324	-2.0233978661	 0.122212
H	-0.6867876286	 1.8143687009	-1.0678998039	 0.120299
H	-2.0307851014	 1.081704632	-0.0524136701	 0.115957
H	-0.3940555875	-2.6225450535	 0.8103147363	 0.112385
H	 0.2542249378	-2.3059182415	 2.4942143253	 0.13542
H	-2.5917056213	-1.5012575658	 1.4733585003	 0.092176
H	-2.3196534286	 0.1066843047	 3.7772780995	 0.107557
H	 0.0269826729	 1.4042832543	 2.6489898269	 0.106394
84.9134	161.1982	192.5363	322.1361	405.1831	435.1327	504.0285	522.6342	621.8754	729.2118	780.1671	795.5038	812.9726	833.0179	880.2499	894.2205	904.6489	916.6413	967.6356	976.4837	999.5554	1024.4663	1040.7694	1073.1332	1104.548	1112.4757	1123.5527	1157.3403	1171.3835	1191.2175	1207.7953	1250.067	1256.5488	1281.7154	1377.4231	1407.3112	1479.6588	1487.7212	1513.2949	3102.9258	3107.2026	3133.8616	3183.5387	3186.6996	3196.7297	3201.7211	3204.7792	3223.7597
C1CN1C12CC1C1OC21	C1CN1[C@]12C[C@H]1[C@H]1O[C@@H]21	
InChI=1S/C7H9NO/c1-2-8(1)7-3-4(7)5-6(7)9-5/h4-6H,1-3H2	InChI=1S/C7H9NO/c1-2-8(1)7-3-4(7)5-6(7)9-5/h4-6H,1-3H2/t4-,5+,6+,7+/m0/s1
