19
gdb 40575	4.6702	1.18866	1.0971	2.0404	79.28	-0.2339	0.0866	0.3204	1145.5782	0.160809	-381.958858	-381.951702	-381.950757	-381.990661	28.632	
C	-0.1250554009	 1.3755029197	-0.0507697312	-0.226562
C	 1.2849608666	 0.9219836677	 0.0971212883	-0.226723
N	 0.1898093815	-0.0435607978	 0.0904382429	-0.069272
C	-0.138760734	-0.6470486909	 1.3687074721	 0.045581
C	-1.4983488676	-1.3463505832	 1.306097075	-0.051852
C	-0.8841490031	-2.6205084806	 0.8744650373	-0.028042
C	 0.45691708	-2.0763363655	 1.5014748513	-0.107034
C	-0.1300072257	-2.5455768548	 2.839703302	-0.158454
N	-1.5031824596	-2.536309411	 2.2278287395	-0.16016
H	-0.5726731975	 1.8859081867	 0.8008238118	 0.111522
H	-0.5109719846	 1.6805461328	-1.0190671387	 0.118701
H	 1.9487603216	 0.8888228523	-0.7618679326	 0.117778
H	 1.7763316664	 1.1308630645	 1.0463778953	 0.110318
H	 0.0473550041	 0.0387711997	 2.2151728006	 0.049294
H	-2.4626827247	-0.9232090486	 1.0574912215	 0.097256
H	-1.1411538955	-3.3542789033	 0.1234642867	 0.097929
H	 1.47939667	-2.272524001	 1.1854751747	 0.076841
H	 0.1239615848	-3.5775604078	 3.0945130368	 0.108837
H	-0.0017821517	-1.9036774087	 3.7202258169	 0.094043
87.313	156.6733	177.5609	326.5419	429.3602	452.4754	461.3066	746.2211	770.1214	780.9221	799.1454	826.1399	878.3022	891.5872	903.8614	929.4555	952.6	969.8169	982.1245	1000.1608	1028.4018	1054.6793	1070.2904	1076.1982	1113.7361	1118.1246	1152.4283	1162.1187	1170.4856	1183.6317	1197.6559	1204.9822	1229.8961	1277.6849	1300.3627	1322.0422	1336.5975	1383.4317	1487.8084	1509.6885	1515.5629	2926.7209	3026.4971	3092.0555	3097.0666	3100.0378	3138.702	3177.2094	3191.5025	3201.3048	3218.5377
C1CN1C1C2C3C1CN23	C1CN1[C@H]1[C@H]2[C@H]3[C@@H]1CN23	
InChI=1S/C7H10N2/c1-2-8(1)5-4-3-9-6(4)7(5)9/h4-7H,1-3H2	InChI=1S/C7H10N2/c1-2-8(1)5-4-3-9-6(4)7(5)9/h4-7H,1-3H2/t4-,5-,6-,7+,9?/m1/s1
