16
gdb 36271	4.74544	1.04583	0.97785	2.203	74.48	-0.2287	0.0366	0.2653	1204.5502	0.121886	-400.592985	-400.585173	-400.584229	-400.625888	30.155	
C	 0.1359909183	-1.1902157398	 0.8057210258	-0.4138
C	-0.0005866014	-0.0805619538	 0.3654263723	 0.305151
C	-0.1927309264	 1.2675243152	-0.1737872636	-0.322379
N	 1.0921488013	 1.9845486329	-0.2421742363	-0.05982
C	 1.604853959	 2.8111622348	-1.289212762	-0.095816
C	 0.5811510005	 3.8898017809	-1.8283048605	-0.005957
O	-0.6772280761	 3.705267934	-1.1698535384	-0.220415
C	 0.3689657491	 4.3985453988	-0.4799332037	-0.005961
C	 1.384854032	 3.3386383481	 0.108825232	-0.095817
H	 0.2609916999	-2.1699094956	 1.1952046966	 0.190675
H	-0.646154833	 1.2062090018	-1.1673966234	 0.14231
H	-0.9012893295	 1.8176810474	 0.4522168703	 0.142315
H	 2.5238225904	 2.5462783845	-1.8010330202	 0.104413
H	 0.5883080783	 4.3856287618	-2.7909064522	 0.115344
H	 0.1666792011	 5.3965156476	-0.1116508607	 0.115345
H	 2.0998589767	 3.5628010913	 0.8931357439	 0.104413
40.2379	131.6896	231.4247	236.1328	334.851	406.4247	470.7143	513.2281	606.752	654.866	705.8065	733.4941	744.3535	764.2687	846.3702	850.7692	865.4119	899.775	943.3759	963.5198	976.7022	1032.0039	1043.4911	1043.6353	1049.7509	1211.6136	1218.3173	1238.3872	1259.4575	1277.2155	1354.8801	1359.5496	1417.9624	1447.6536	2239.0016	3051.7955	3092.3353	3164.0243	3174.7353	3191.5196	3207.3393	3506.9711
C#CCN1C2C3OC3C12	C#CCN1[C@H]2[C@H]3O[C@H]3[C@@H]12	
InChI=1S/C7H7NO/c1-2-3-8-4-5(8)7-6(4)9-7/h1,4-7H,3H2	InChI=1S/C7H7NO/c1-2-3-8-4-5(8)7-6(4)9-7/h1,4-7H,3H2/t4-,5+,6-,7+,8?
