23
gdb 108626	2.56942	1.2989	0.96281	0.1351	93.02	-0.2081	0.0323	0.2404	1333.5989	0.206043	-351.171439	-351.162073	-351.161128	-351.205633	35.964	
C	-0.3731694183	 1.5176347561	-0.0532593648	-0.369502
C	 0.0520162081	 0.0387255077	 0.0075359949	-0.290434
C	 0.8144049206	-0.418126966	-1.2033573808	 0.21234
C	 2.0900153553	-0.8374966153	-1.2718306493	 0.21736
C	 3.1074329089	-0.9269077228	-0.1757606844	-0.504334
C	 2.4374695944	-1.2978557256	-2.6539718626	-0.110751
C	 1.6608112051	-2.5047532812	-3.1452397415	-0.280402
C	 1.17924552	-1.1165604604	-3.4790313628	-0.038485
C	 0.1385414229	-0.4744875419	-2.5678702831	-0.315188
H	 0.5008755038	 2.1715812863	-0.1351082626	 0.117408
H	-1.0182152575	 1.7150300387	-0.9151385871	 0.118417
H	-0.9269272134	 1.8010437266	 0.8474024592	 0.109711
H	 0.6451953145	-0.126180681	 0.9128782821	 0.098085
H	-0.8507144331	-0.5788656976	 0.1203356504	 0.098483
H	 2.7297304457	-0.5627174525	 0.7824212737	 0.121204
H	 3.4463210977	-1.9616271117	-0.0364185075	 0.125622
H	 4.0013728352	-0.3406376319	-0.4256605139	 0.12249
H	 3.4318807191	-1.1157151399	-3.0497361155	 0.076436
H	 2.0881368372	-3.0834264316	-3.9581542884	 0.103885
H	 1.1165969395	-3.0893304583	-2.409424442	 0.105628
H	 1.2345072283	-0.7995151926	-4.5137334186	 0.080165
H	-0.8004629022	-1.0445494003	-2.5323019065	 0.100152
H	-0.1302560417	 0.5301173252	-2.9227049086	 0.101711
53.7606	124.7707	163.5698	188.2197	216.4761	246.3067	300.1994	340.8971	377.4253	497.6601	556.1436	586.9921	648.7673	731.2719	781.1315	802.0294	816.8257	890.4878	897.1104	962.9288	981.8647	995.0648	1013.3335	1024.5052	1060.2446	1073.7743	1075.2789	1100.6105	1102.0104	1143.4921	1187.1961	1189.3474	1213.3078	1233.832	1297.7333	1324.0882	1352.8341	1363.8369	1383.1887	1406.3595	1413.712	1472.9399	1477.0731	1479.3959	1485.0882	1493.2303	1498.3843	1508.3339	1718.6072	3001.4163	3005.8639	3015.5625	3026.5799	3035.9303	3057.4251	3065.9633	3105.0865	3109.0427	3116.439	3116.8169	3152.7504	3176.1353	3205.8664
CCC1=C(C)C2CC2C1	CCC1=C(C)[C@H]2C[C@H]2C1	
InChI=1S/C9H14/c1-3-7-4-8-5-9(8)6(7)2/h8-9H,3-5H2,1-2H3	InChI=1S/C9H14/c1-3-7-4-8-5-9(8)6(7)2/h8-9H,3-5H2,1-2H3/t8-,9-/m1/s1
