17
gdb 65583	2.97825	1.4916	1.30136	0.9541	73.45	-0.2495	0.0343	0.2838	1033.4423	0.133496	-421.768222	-421.759981	-421.759037	-421.800711	32.101	
C	 0.1305040636	 1.4934484058	 0.0151546808	-0.431161
C	 0.0355912692	-0.0214991503	 0.0039979557	 0.206971
O	 0.7635682419	-0.5352981762	-1.1146642876	-0.272607
C	 1.2567953029	-1.7945979458	-0.7155671403	 0.055932
C	 2.5492369406	-1.7671857796	 0.0697561225	-0.323377
C	 1.2120690062	-1.802825434	 0.775873095	 0.055926
O	 0.6954169788	-0.5478191585	 1.1585361118	-0.272607
C	-1.3638662069	-0.4938244869	-0.0405627801	 0.382758
C	-2.5038175181	-0.8716746302	-0.076837676	-0.479959
H	 1.1828676087	 1.7819331676	 0.0486746222	 0.130151
H	-0.3327943789	 1.8998162192	-0.8861356854	 0.139974
H	-0.3867623596	 1.8901855114	 0.891016245	 0.139964
H	 0.9742339636	-2.627097874	-1.349150177	 0.110562
H	 3.1485130502	-2.6721126296	 0.0827313059	 0.117226
H	 3.097603946	-0.8328033158	 0.0913622329	 0.129358
H	 0.8923126083	-2.6421496812	 1.3821852605	 0.110562
H	-3.5109592665	-1.2082491218	-0.108687866	 0.200324
95.7793	160.8967	187.2217	211.7082	305.3387	324.3627	419.5702	428.8278	559.1495	561.1813	646.6858	656.0889	659.6081	739.5737	786.5336	788.384	811.5101	878.2534	906.0058	958.4083	1005.3866	1010.6619	1064.6593	1092.2035	1104.2581	1141.8867	1142.0956	1177.618	1205.2869	1230.341	1328.0021	1372.0041	1405.4157	1457.961	1477.5864	1480.7986	2232.0082	3062.2434	3133.0662	3147.9904	3149.7943	3174.5814	3183.4681	3233.8618	3499.6848
CC1(OC2CC2O1)C#C	C[C@]1(O[C@H]2C[C@H]2O1)C#C	
InChI=1S/C7H8O2/c1-3-7(2)8-5-4-6(5)9-7/h1,5-6H,4H2,2H3	InChI=1S/C7H8O2/c1-3-7(2)8-5-4-6(5)9-7/h1,5-6H,4H2,2H3/t5-,6+,7+
