17
gdb 54161	2.22497	1.46288	1.12138	2.5205	76.14	-0.2369	-0.0204	0.2165	1145.0035	0.131495	-421.79545	-421.785729	-421.784785	-421.83002	35.742	
C	 0.0089573114	 1.4268993591	 0.3813767317	-0.474987
C	 0.0577930947	-0.0062828431	-0.1064666524	 0.323747
O	 1.0721436836	-0.5245371099	-0.5169639583	-0.30491
C	-1.2350328577	-0.7821122306	-0.0395686707	 0.258081
O	-2.401218115	-0.0405569125	 0.1807488926	-0.456921
C	-1.328986355	-2.0797328086	-0.7971616509	-0.342406
C	-1.2253313308	-2.1249840092	 0.712275787	-0.228477
C	-0.0674764531	-2.6343599508	 1.3810356865	 0.361074
C	 0.8789833115	-3.0839457262	 1.9701290855	-0.455013
H	 1.0166141649	 1.8428782792	 0.3720798127	 0.139755
H	-0.6446923642	 2.0285273126	-0.2594396035	 0.131181
H	-0.4187255526	 1.4749313591	 1.3875709285	 0.15175
H	-2.7134464356	 0.2908075924	-0.6687428501	 0.290552
H	-2.2901019535	-2.3272012654	-1.2330276801	 0.121799
H	-0.4458928535	-2.3625228003	-1.3571208033	 0.154704
H	-2.1676104411	-2.2804182603	 1.2299759724	 0.13168
H	 1.726821576	-3.4725734457	 2.4771823323	 0.198391
56.6863	112.0873	135.7371	143.3898	239.8656	260.2692	301.3229	337.5945	371.3576	453.0694	492.3326	519.4741	552.6491	608.244	643.0617	656.254	658.6105	790.4705	851.4323	899.6701	958.9358	968.4556	1044.9044	1071.8519	1079.2054	1127.0417	1159.5743	1237.6989	1317.5424	1335.0507	1377.9911	1385.3549	1452.3593	1454.8271	1469.786	1798.0599	2242.5984	3044.7194	3105.8358	3143.167	3154.2742	3159.0923	3248.5919	3505.7449	3793.3473
CC(=O)C1(O)CC1C#C	CC(=O)[C@@]1(O)C[C@H]1C#C	
InChI=1S/C7H8O2/c1-3-6-4-7(6,9)5(2)8/h1,6,9H,4H2,2H3	InChI=1S/C7H8O2/c1-3-6-4-7(6,9)5(2)8/h1,6,9H,4H2,2H3/t6-,7+/m1/s1
