19
gdb 40103	3.24596	1.4313	1.2308	1.4118	74.01	-0.2477	0.0624	0.31	1056.4823	0.160474	-422.99852	-422.991086	-422.990142	-423.03065	29.484	
C	-0.5912425556	 1.332956583	 0.1952079687	-0.268601
O	 0.7966488269	 1.0041337211	 0.0483408826	-0.274831
C	-0.1436671846	-0.0554794953	 0.0578035828	 0.447812
C	-0.1182646314	-1.191078289	 1.0852054756	-0.343522
C	-0.4107418085	-2.1960318234	-0.0727913	 0.106844
O	-1.7284982266	-2.7095918899	-0.1307091051	-0.257509
C	-2.5666751522	-1.7515844813	-0.7712771752	-0.086078
C	-1.678947247	-1.058509293	-1.8174451881	-0.236432
C	-0.3164326999	-1.0322800832	-1.1185909551	-0.13873
H	-0.8812516681	 1.7113695339	 1.1751007135	 0.115256
H	-1.0381128768	 1.8519266741	-0.6523317607	 0.113641
H	 0.8691572607	-1.3224025385	 1.5362303076	 0.117807
H	-0.8739026162	-1.1647524966	 1.8743163601	 0.112399
H	 0.2800075353	-3.0366996854	-0.1546712529	 0.084906
H	-3.4198169518	-2.2866843187	-1.1961522122	 0.110933
H	-2.9509757238	-1.0194073224	-0.0433886047	 0.093466
H	-1.6206470713	-1.6651667878	-2.7265028801	 0.110846
H	-2.0487428539	-0.0669579539	-2.0921460537	 0.104387
H	 0.536457155	-1.0430516037	-1.798911363	 0.087407
62.2446	183.1884	242.6087	293.0075	338.9096	387.9953	453.5797	535.5298	636.198	682.6328	782.62	824.6549	852.7852	864.9267	894.8437	898.6141	927.1667	957.7477	983.0033	1008.5274	1037.0072	1059.2315	1122.6893	1127.7952	1139.3409	1159.6634	1168.0561	1201.9867	1216.6915	1228.9613	1262.5194	1265.5167	1289.304	1331.2848	1352.4755	1393.7333	1423.9517	1462.8321	1480.8202	1522.7455	1532.7777	2979.3935	3053.9999	3060.7994	3076.0535	3091.6783	3094.3062	3104.3803	3108.532	3119.3522	3161.2626
C1OC11CC2OCCC12	C1O[C@]21C[C@H]1OCC[C@@H]21	
InChI=1S/C7H10O2/c1-2-8-6-3-7(4-9-7)5(1)6/h5-6H,1-4H2	InChI=1S/C7H10O2/c1-2-8-6-3-7(4-9-7)5(1)6/h5-6H,1-4H2/t5-,6-,7+/m1/s1
