20
gdb 119217	1.97793	1.25744	0.87742	1.4432	83.79	-0.2372	0.04	0.2772	1407.4552	0.167694	-403.07612	-403.065651	-403.064707	-403.111902	37.414	
C	-0.2678236489	 1.3750585783	-0.0661197882	-0.221939
O	-0.2503352788	-0.0285406361	-0.1561342754	-0.227595
C	 0.7716142023	-0.5079513891	-0.9984188221	-0.115468
C	 0.7235944199	-2.021825121	-0.9953980066	 0.094525
N	-0.2309767523	-2.6317588696	-1.9556392992	-0.358984
C	 1.203441241	-2.8371965435	-2.1670179188	-0.033251
C	 1.8234730965	-2.2670861147	-3.4211548469	-0.405922
C	 0.8544934974	-2.6338684888	 0.3045973996	 0.302509
C	 0.9633730775	-3.162424559	 1.3795916054	-0.459448
H	 0.6768748205	 1.7713604571	 0.3399692953	 0.102554
H	-0.4432191024	 1.8468292749	-1.0463298841	 0.103471
H	-1.0835804897	 1.6482489902	 0.6073177683	 0.12883
H	 0.633285678	-0.1366909089	-2.0234791211	 0.093376
H	 1.7588933733	-0.1674893774	-0.641643026	 0.088491
H	-0.6606109737	-3.4518783144	-1.5358359849	 0.240279
H	 1.6064657825	-3.8064597555	-1.8776411815	 0.093614
H	 1.3496724674	-1.3299417635	-3.7180296107	 0.131926
H	 2.8960777379	-2.0940807792	-3.2841541422	 0.122345
H	 1.7013320209	-2.975291377	-4.2478085803	 0.125319
H	 1.0532886507	-3.6189501929	 2.3339685194	 0.195368
68.3976	83.8316	123.1829	143.2881	161.2117	179.5001	227.7801	266.6082	332.3306	380.4073	402.6523	484.091	550.4582	568.5153	593.5987	656.5701	729.1397	804.372	873.3995	969.0839	980.5477	1003.7579	1042.2469	1081.0938	1101.4906	1131.3423	1160.9394	1184.8028	1226.7777	1239.9768	1251.371	1309.5822	1333.9906	1405.4469	1425.8799	1451.3575	1477.7401	1484.963	1487.7539	1496.2387	1499.8769	1519.3001	2232.8975	2956.76	2969.2887	3009.3242	3021.3512	3039.1548	3098.3143	3115.9788	3116.2827	3139.5302	3503.3206	3511.9316
COCC1(NC1C)C#C	COC[C@]1(N[C@H]1C)C#C	
InChI=1S/C7H11NO/c1-4-7(5-9-3)6(2)8-7/h1,6,8H,5H2,2-3H3	InChI=1S/C7H11NO/c1-4-7(5-9-3)6(2)8-7/h1,6,8H,5H2,2-3H3/t6-,7+/m0/s1
