18
gdb 107227	3.95287	1.24313	1.1298	1.5389	70.42	-0.2273	0.0585	0.2858	1107.3165	0.148487	-439.034869	-439.027153	-439.026208	-439.067283	30.115	
O	 0.0718387326	 1.347259238	-0.2997625541	-0.415387
C	 0.0802829504	 0.0027484385	 0.1535669502	-0.152901
C	-1.3149797384	-0.5553173043	 0.2386214629	 0.370255
C	-2.3386272102	-0.0049061856	 1.2286945415	-0.235621
N	-3.3209210014	-1.0741157129	 1.5235648538	-0.107782
C	-4.1801279443	-1.5022317853	 0.4142141693	-0.241958
C	-2.9453874081	-2.2676529091	 0.7302988033	-0.054215
C	-1.7144356853	-1.9380589439	-0.0771019362	-0.050899
O	-1.9026049017	-0.8898215652	-1.0403036563	-0.299657
H	-0.3372886453	 1.3445862738	-1.1726119548	 0.293613
H	 0.6874509979	-0.6423978004	-0.4982318759	 0.096673
H	 0.5447257308	 0.0181734453	 1.1450764665	 0.11638
H	-1.8346041491	 0.2613338742	 2.1644042098	 0.115397
H	-2.8364111525	 0.8931547658	 0.8514760245	 0.124125
H	-5.1475715569	-1.8885889629	 0.7237868623	 0.114
H	-4.1753360778	-0.9278585775	-0.5064784791	 0.134073
H	-2.9779136087	-3.2320632711	 1.2290240647	 0.094318
H	-1.0155842321	-2.7201087973	-0.3613290324	 0.099585
66.7647	135.0242	236.4477	294.9009	343.7963	382.9742	417.6085	439.568	572.8804	671.8744	701.8072	737.1763	772.4232	824.5718	861.0677	907.428	927.1015	960.0561	1009.0021	1036.1014	1045.3724	1060.7109	1089.8664	1106.3239	1125.247	1149.6398	1186.063	1231.857	1254.7506	1270.6101	1290.2809	1334.6201	1365.953	1380.5823	1421.0804	1450.0576	1484.1683	1489.3467	1497.2846	2998.8113	3045.7926	3079.6152	3094.511	3112.418	3145.8095	3159.8332	3207.655	3801.5294
OCC12CN3CC3C1O2	OC[C@]12CN3C[C@H]3[C@H]1O2	
InChI=1S/C6H9NO2/c8-3-6-2-7-1-4(7)5(6)9-6/h4-5,8H,1-3H2	InChI=1S/C6H9NO2/c8-3-6-2-7-1-4(7)5(6)9-6/h4-5,8H,1-3H2/t4-,5+,6+,7?/m0/s1
