20
gdb 88520	2.56063	1.24205	1.14425	1.535	79.99	-0.2329	-0.0281	0.2048	1193.5534	0.16932	-403.107689	-403.098429	-403.097485	-403.142496	34.27	
C	 0.0290318751	 1.4346547404	-0.4442432387	-0.316791
N	 0.0265613513	 0.0247512001	-0.0783566504	-0.080689
C	 1.2899709052	-0.6819672741	-0.2266148787	-0.262491
C	 0.7453803561	-0.3954005048	 1.1367489105	-0.108165
C	 1.3797076248	 0.5684205179	 2.1069643498	 0.236991
C	 0.4696315735	 1.4865480882	 2.9194969343	-0.277078
C	 1.0987851843	 0.3299645977	 3.6035335222	-0.295353
C	 2.7602121104	 1.0855823606	 1.8758709624	 0.083823
O	 3.2461288204	 2.0182904493	 2.4728545549	-0.276779
H	 0.9629739443	 1.9684475612	-0.2062772995	 0.106568
H	-0.1390008428	 1.5123599678	-1.5228347211	 0.126571
H	-0.793199167	 1.9471901883	 0.0638001183	 0.124743
H	 1.2384922241	-1.6888302859	-0.6335065783	 0.117568
H	 2.1481535877	-0.1075377131	-0.5706224448	 0.109839
H	 0.233393831	-1.2198840807	 1.6300507425	 0.094142
H	 0.8700954565	 2.472413913	 3.1251927754	 0.144232
H	-0.5884009714	 1.4396637918	 2.6897114016	 0.12792
H	 0.4911228547	-0.5365073055	 3.841221791	 0.125932
H	 1.9225477673	 0.523665722	 4.2802467719	 0.139461
H	 3.3541097247	 0.5229892859	 1.1260556269	 0.079556
28.4194	89.749	158.2272	216.2801	240.2889	272.9406	292.5928	343.7594	358.9644	430.3357	510.607	631.6269	723.5105	766.0393	796.7839	827.4538	859.3457	924.1367	970.3685	992.2305	1008.6454	1043.2758	1057.2797	1067.6891	1097.7203	1109.8927	1134.7443	1142.211	1167.2476	1206.9673	1207.6447	1274.6735	1294.9305	1350.9671	1406.7041	1430.495	1450.9892	1453.3583	1483.5452	1492.016	1493.9216	1515.373	1796.4934	2913.8577	2976.2553	3072.6445	3095.7303	3107.9697	3110.0917	3137.1964	3142.6535	3175.3217	3227.9898	3242.8638
CN1CC1C1(CC1)C=O	CN1C[C@H]1C1(CC1)C=O	
InChI=1S/C7H11NO/c1-8-4-6(8)7(5-9)2-3-7/h5-6H,2-4H2,1H3	InChI=1S/C7H11NO/c1-8-4-6(8)7(5-9)2-3-7/h5-6H,2-4H2,1H3/t6-,8?/m0/s1
