19
gdb 109440	2.15622	1.43234	1.07461	2.1219	72.47	-0.226	-0.0262	0.1998	1198.9364	0.155322	-460.156619	-460.146705	-460.145761	-460.191294	36.151	
C	 0.2683571305	 1.5260764629	-0.2590600559	-0.249163
O	-0.3102037688	 0.2737596971	-0.5960770406	-0.250937
C	 0.5855189727	-0.6048862971	-1.199595296	-0.006947
C	 1.6656378772	-1.3212245831	-0.3616650314	 0.365714
O	 2.3271050474	-1.0052507158	 0.5866080958	-0.304883
C	 1.3932962968	-2.6449388062	-1.0885289111	-0.385174
C	 0.0463276707	-2.0323386915	-1.5732022985	 0.339173
C	-1.1563559493	-2.4506087805	-0.73564652	-0.44112
O	-0.1541333986	-2.2653721878	-2.9509685869	-0.476809
H	 1.0952780146	 1.4060304917	 0.4495618009	 0.144004
H	 0.6394659664	 2.0451904839	-1.1561241526	 0.1064
H	-0.5205132036	 2.1271380075	 0.1983409933	 0.128901
H	 1.0574518066	-0.1710998026	-2.0996006927	 0.091791
H	 2.0774926697	-2.8035100424	-1.927745865	 0.142878
H	 1.3550448167	-3.5460072179	-0.4737701684	 0.132741
H	-0.9674585225	-2.3148772251	 0.332967653	 0.133295
H	-2.0303302031	-1.8403830303	-0.9864073658	 0.123929
H	-1.3895387321	-3.5025909219	-0.9234845799	 0.124555
H	-1.0022890113	-1.881489321	-3.1993586681	 0.28165
73.8595	95.2869	160.1458	172.3609	229.6933	241.533	280.3196	308.8199	320.0051	355.6677	402.1958	439.487	521.5032	607.3577	637.929	743.0166	805.0087	878.2563	905.6133	977.4407	1009.2602	1031.8867	1082.0084	1125.6379	1141.3963	1153.277	1177.831	1189.4801	1242.1567	1246.9043	1281.9807	1365.8395	1377.5557	1411.353	1435.8137	1479.807	1485.4	1486.9899	1492.6296	1514.1075	1883.9115	2948.9634	2988.6661	3038.752	3066.6391	3071.6187	3108.6536	3122.3424	3126.9573	3131.3908	3803.6101
COC1C(=O)CC1(C)O	CO[C@H]1C(=O)C[C@]1(C)O	
InChI=1S/C6H10O3/c1-6(8)3-4(7)5(6)9-2/h5,8H,3H2,1-2H3	InChI=1S/C6H10O3/c1-6(8)3-4(7)5(6)9-2/h5,8H,3H2,1-2H3/t5-,6-/m0/s1
