15
gdb 127587	3.4883	1.23631	0.91809	4.5621	72.81	-0.2422	-0.0337	0.2085	1196.762	0.11249	-453.978552	-453.969942	-453.968998	-454.012702	30.017	
C	 0.0171743541	 1.4413283988	-0.033628867	-0.331538
N	 0.0290118124	-0.0052240399	 0.0095793743	-0.026255
N	 0.0426752976	-0.7307746068	-1.1565863305	-0.269892
C	 0.0623596094	-1.9899284429	-0.7733664127	-0.050269
C	 0.0637388662	-2.1284916229	 0.6432290253	-0.034715
C	 0.081196517	-3.3238032611	 1.4509443305	 0.067991
O	 0.0989766986	-4.4636654916	 1.0372348721	-0.290806
C	 0.0427900804	-0.8031671218	 1.0895914402	 0.397613
O	 0.0356029561	-0.2528145269	 2.3142847467	-0.419324
H	 0.9528738619	 1.8158554791	-0.457665343	 0.153946
H	-0.8152253405	 1.7807914445	-0.6538525038	 0.157569
H	-0.1008979996	 1.8205646478	 0.9813947884	 0.160264
H	 0.0738825359	-2.7859553511	-1.5025868232	 0.145318
H	 0.0774471655	-3.1322066067	 2.556614864	 0.018751
H	 0.0335542749	-0.9527878786	 2.9771836087	 0.321347
39.2782	104.8695	157.0129	197.8362	247.9093	293.4179	319.2046	338.7969	391.8048	536.7124	660.1803	673.2206	707.8061	768.9095	818.6412	907.0849	986.3508	1023.3947	1063.9612	1154.5936	1208.9575	1225.0938	1277.107	1287.6255	1428.5138	1449.8332	1452.4982	1480.5461	1491.2063	1513.0998	1591.6507	1612.9367	1787.0554	2763.489	3056.7856	3124.9882	3165.0553	3257.6675	3812.3954
CN1N=CC(C=O)=C1O	Cn1ncc(C=O)c1O	
InChI=1S/C5H6N2O2/c1-7-5(9)4(3-8)2-6-7/h2-3,9H,1H3	InChI=1S/C5H6N2O2/c1-7-5(9)4(3-8)2-6-7/h2-3,9H,1H3
