16
gdb 11333	6.42302	1.27227	1.07706	4.7483	75.2	-0.205	0.0025	0.2075	1080.4317	0.131065	-379.944566	-379.936499	-379.935555	-379.977532	29.173	
C	-0.0781317063	 1.4475197909	-0.0587779607	-0.329962
N	-0.0076600233	-0.0010181341	-0.1161897774	-0.348944
C	-1.0659820038	-0.6853998983	-0.0332944265	 0.471594
O	-2.3441729348	-0.1469054899	 0.113442676	-0.264168
C	-3.2907476604	-1.1991299925	 0.1955262908	-0.155154
C	-2.4862182454	-2.4681013782	 0.0528965188	 0.33617
N	-3.0990103018	-3.6935278999	 0.1464094118	-0.587326
C	-1.1900914264	-2.1356078804	-0.0757066632	-0.339019
H	 0.6886968526	 1.8163307598	 0.632228	 0.115613
H	 0.1617070863	 1.867328438	-1.0446242919	 0.116568
H	-1.0514347274	 1.8437649565	 0.2533081426	 0.117052
H	-3.818941298	-1.1565079756	 1.1584576393	 0.127536
H	-4.038443723	-1.0865750632	-0.6037304954	 0.115097
H	-4.062310006	-3.7401189901	-0.150509732	 0.255977
H	-2.5580227641	-4.4885549668	-0.158942519	 0.261783
H	-0.3379961081	-2.787667586	-0.1903760132	 0.107183
39.895	110.5898	208.4432	216.1158	295.7686	333.5394	364.6066	483.6787	500.3607	566.2902	642.0892	694.3758	707.9569	836.4571	869.0055	919.2199	1035.682	1036.0156	1076.8687	1106.7787	1129.9578	1142.698	1199.2626	1202.9137	1280.1084	1370.5981	1415.8341	1438.9936	1493.8129	1498.6027	1507.9413	1649.1359	1712.6381	1785.3356	2993.5152	3006.6845	3024.5915	3058.6772	3079.2669	3254.4568	3570.3467	3671.9752
CN=C1OCC(N)=C1	C[N]C1=C[C](CO1)N	
InChI=1S/C5H8N2O/c1-7-5-2-4(6)3-8-5/h2H,3,6H2,1H3	InChI=1S/C5H8N2O/c1-7-5-2-4(6)3-8-5/h2H,3,6H2,1H3
