20
gdb 26665	2.25083	1.52965	0.93012	1.4591	84.44	-0.1799	0.058	0.2379	1280.9918	0.170655	-399.366863	-399.356114	-399.35517	-399.402967	38.094	
C	-0.0131835663	 1.5387455606	 0.12814906	-0.50897
C	 0.0122961635	 0.0530435502	 0.012699547	 0.308757
C	 0.002890343	-0.7479898504	-1.1120327873	 0.012198
N	-0.034108934	-0.2336563568	-2.4461768842	-0.608485
C	 0.0346120313	-2.1187926974	-0.6889940108	 0.210179
C	 0.0351490315	-3.3255669699	-1.5740358157	-0.515452
C	 0.0636470978	-2.1047754086	 0.6899245933	 0.134567
N	 0.1003195031	-3.1156474569	 1.6832864416	-0.616013
N	 0.0534313749	-0.7883169162	 1.0963114577	-0.323283
H	 0.904043797	 1.942093146	 0.5768141327	 0.116618
H	-0.1132605052	 1.9606537381	-0.8741522707	 0.151728
H	-0.8553265526	 1.8938129507	 0.7357190695	 0.115738
H	 0.8353370938	-0.4256293065	-2.93687949	 0.228803
H	-0.7659078619	-0.6852923349	-2.9873385606	 0.227934
H	 0.8793307373	-3.3228648976	-2.2753153436	 0.115176
H	 0.1031377032	-4.2443425041	-0.9828253224	 0.103749
H	-0.8765027287	-3.3972997161	-2.1817511887	 0.115649
H	 0.9212307115	-3.7056266531	 1.5941754966	 0.239929
H	-0.7108540474	-3.7236706997	 1.6362966384	 0.240006
H	 0.0692534281	-0.5171598074	 2.0645928873	 0.251171
47.331	75.5289	117.5218	151.1708	181.8491	184.6559	235.986	255.7619	294.6439	301.7082	338.7094	502.8201	537.7804	587.9755	607.0124	656.5485	686.0725	733.769	803.8866	836.1896	881.5001	990.2867	1040.063	1058.4841	1065.5328	1161.245	1206.2126	1215.1493	1227.8218	1229.0025	1339.3011	1403.7189	1412.9809	1458.662	1475.8391	1485.1293	1488.9086	1493.6582	1504.2559	1574.2218	1630.7235	1657.784	1682.2511	3008.7366	3011.1511	3050.1967	3052.8795	3092.0749	3130.2347	3475.721	3496.8027	3537.971	3559.3034	3673.9891
CC1=C(N)C(C)=C(N)N1	Cc1c(N)c(C)c(N)[nH]1	
InChI=1S/C6H11N3/c1-3-5(7)4(2)9-6(3)8/h9H,7-8H2,1-2H3	InChI=1S/C6H11N3/c1-3-5(7)4(2)9-6(3)8/h9H,7-8H2,1-2H3
