23
gdb 104812	1.90617	1.41979	1.13732	2.5391	85.57	-0.2312	-0.0158	0.2154	1268.0354	0.203864	-388.312474	-388.302137	-388.301193	-388.34812	38.09	
C	-0.1633349747	 1.5842530245	-0.0762614152	-0.396887
C	-0.0788075167	 0.0545920041	-0.0376022466	-0.234034
C	 0.558769127	-0.5886331643	-1.2878242165	 0.220652
C	 1.9775971197	-0.0877178735	-1.6039728415	-0.229174
C	 3.0019348411	-0.332306398	-0.4907181928	-0.397948
C	 0.3658765489	-2.1479655993	-1.3314693705	-0.289657
C	-0.6894018695	-2.0160627176	-2.4704411451	-0.342992
C	-0.3907173055	-0.5102713297	-2.5045705231	 0.37416
O	-0.7290516267	 0.3883896473	-3.2227175363	-0.312493
H	 0.8285010062	 2.0459694391	-0.0541076224	 0.118421
H	-0.6701424006	 1.9264943674	-0.9830400704	 0.14431
H	-0.719389953	 1.9589540674	 0.7886023768	 0.111348
H	 0.4829127396	-0.2722775607	 0.846225334	 0.101729
H	-1.088832607	-0.35821781	 0.0847910679	 0.094612
H	 2.3208317824	-0.5832953425	-2.5212533987	 0.093678
H	 1.9321142052	 0.9799388476	-1.8447307275	 0.116718
H	 2.7611070901	 0.2301157511	 0.4164635036	 0.122074
H	 3.054481259	-1.3925998648	-0.2204589166	 0.117435
H	 4.0009626799	-0.0233679189	-0.8133163397	 0.117252
H	 1.2661619866	-2.6857893475	-1.6369087041	 0.105415
H	-0.0060996341	-2.5902528796	-0.4053365347	 0.103348
H	-0.4834933283	-2.5436998213	-3.4057573261	 0.130079
H	-1.7198919395	-2.2393603106	-2.1768622645	 0.131954
43.0023	89.4337	126.1889	136.0303	185.7055	231.8236	255.2626	290.8442	323.6169	355.5874	406.9462	498.5913	550.7659	654.6137	708.8282	747.8496	775.225	798.4755	865.1459	910.2792	929.8274	973.4829	1004.0941	1035.48	1037.5699	1052.8222	1072.2016	1104.0425	1159.2183	1200.8932	1203.5383	1218.0032	1244.6498	1266.1934	1311.6744	1321.4954	1356.0402	1380.3036	1409.2441	1413.7801	1436.1751	1482.2748	1486.8218	1493.6377	1501.4361	1504.736	1505.2269	1517.4903	1873.9712	3016.3695	3024.9011	3035.0825	3042.4737	3048.6481	3057.9164	3068.022	3072.0637	3101.9747	3105.0269	3107.0084	3108.4462	3121.1476	3126.3046
CCC1(CC)CCC1=O	CCC1(CC)CCC1=O	
InChI=1S/C8H14O/c1-3-8(4-2)6-5-7(8)9/h3-6H2,1-2H3	InChI=1S/C8H14O/c1-3-8(4-2)6-5-7(8)9/h3-6H2,1-2H3
