17
gdb 79767	2.75864	2.03818	1.89662	2.1081	67.96	-0.2307	0.078	0.3087	824.8089	0.139381	-421.806072	-421.79999	-421.799046	-421.836234	26.242	
O	 0.1849243115	 1.3731802187	-0.2366722132	-0.444367
C	 0.0357936374	-0.0214117384	-0.0212192366	 0.137757
C	 0.641763859	-0.5030927993	 1.296957228	-0.151871
C	-0.164112942	-0.1252381266	 2.5139058844	 0.073433
O	-1.344968626	 0.6157952616	 2.2926469467	-0.260507
C	-2.1101438685	-0.0977172414	 1.3450657148	 0.073433
C	-1.5843368996	-1.5016636414	 1.1678635305	-0.118893
C	-0.2837803512	-1.5200559063	 1.9490157474	-0.118892
C	-1.4222529636	-0.4739019594	 0.0572505956	-0.151872
H	-0.2535561133	 1.8104349462	 0.5036545022	 0.290234
H	 0.5386068207	-0.4977128325	-0.8695784183	 0.088892
H	 1.719601104	-0.5743405055	 1.3870983891	 0.09142
H	 0.3079616291	 0.1174550818	 3.4577666109	 0.10586
H	-3.1598718741	 0.1664970664	 1.3748891024	 0.10586
H	-2.2183647763	-2.3748916702	 1.1002917292	 0.094047
H	 0.0554252443	-2.407047391	 2.4659978205	 0.094047
H	-2.0094042217	-0.5216013727	-0.8526467935	 0.09142
150.8488	298.4432	444.5348	446.6201	539.0392	580.9839	648.5849	720.3433	730.2776	754.2256	775.4116	793.4415	823.6823	833.9492	904.1415	937.5808	983.8063	990.1815	999.0106	1022.1535	1052.6758	1072.346	1076.6109	1080.6211	1096.1834	1097.3691	1130.5999	1163.6246	1254.6903	1282.4586	1292.9148	1293.8255	1298.6283	1352.5032	1406.8111	1407.9984	1442.1956	3053.4101	3175.9786	3177.3097	3191.5237	3195.2369	3205.281	3216.0662	3787.0742
OC1C2C3OC4C(C23)C14	O[C@H]1[C@H]2[C@H]3O[C@@H]4[C@H]([C@@H]23)[C@H]14	
InChI=1S/C7H8O2/c8-5-3-1-2-4(5)7(2)9-6(1)3/h1-8H	InChI=1S/C7H8O2/c8-5-3-1-2-4(5)7(2)9-6(1)3/h1-8H/t1-,2+,3-,4+,5-,6-,7+
