18
gdb 55544	4.53777	0.86763	0.77359	3.5113	77.89	-0.2252	-0.007	0.2181	1474.4211	0.148646	-435.305818	-435.296776	-435.295832	-435.340288	33.748	
N	 1.2242473879	-0.4443919952	-0.3436156823	-0.521552
C	 0.0455365618	 0.0774211458	 0.0954842501	 0.438725
N	-0.0451178465	 1.2681191032	 0.5533858542	-0.559533
N	-1.0726917933	-0.7898828808	-0.044623066	-0.408479
C	-1.1016959696	-2.1326366899	-0.3495003846	 0.475933
O	-0.1022673957	-2.8026472755	-0.57174683	-0.399146
C	-2.4705107654	-2.7247927608	-0.3862882538	-0.139301
C	-2.7070062675	-3.8446626442	-1.3855135708	-0.246655
C	-2.6084192809	-4.1686451429	 0.0670245861	-0.247783
H	 2.0411496796	 0.0786561624	-0.076922349	 0.259685
H	 1.2783709623	-1.448145815	-0.4513708856	 0.282028
H	-1.000850427	 1.5115995575	 0.8010686281	 0.198882
H	-1.9561008952	-0.3532916264	 0.1647686756	 0.250655
H	-3.3016557881	-2.0579598228	-0.1823682415	 0.085348
H	-3.6768087605	-3.8768747157	-1.8680147787	 0.121273
H	-1.8608181307	-4.1004712932	-2.0118018084	 0.144898
H	-1.6965356903	-4.6413438351	 0.4118334723	 0.143926
H	-3.5085477709	-4.4298371714	 0.611048514	 0.121097
50.5466	77.5315	126.0641	167.9322	283.0834	321.0874	337.704	428.1252	455.4967	492.1765	559.2344	596.7517	695.5912	723.9116	755.6222	762.4656	795.5491	831.0811	873.2682	915.7881	939.5691	993.5204	1069.4037	1098.0058	1116.9667	1117.803	1134.5126	1166.6704	1205.4115	1209.1574	1231.1099	1405.3992	1412.1139	1455.0082	1485.9744	1502.747	1601.6693	1751.4181	1763.2147	3145.5167	3146.9722	3161.0361	3233.9213	3247.7973	3515.2157	3540.6463	3641.864	3706.2879
NC(=N)NC(=O)C1CC1	NC(=N)NC(=O)C1CC1	
InChI=1S/C5H9N3O/c6-5(7)8-4(9)3-1-2-3/h3H,1-2H2,(H4,6,7,8,9)	InChI=1S/C5H9N3O/c6-5(7)8-4(9)3-1-2-3/h3H,1-2H2,(H4,6,7,8,9)
