17
gdb 65595	3.55734	1.2357	1.21425	2.5814	73.22	-0.2564	0.0353	0.2917	1077.7227	0.134405	-421.777233	-421.768982	-421.768038	-421.80974	32.178	
O	-0.3133426025	 1.0514360392	 0.3703208128	-0.448855
C	 0.0554292317	-0.2512467004	-0.0787933187	 0.19229
C	 0.8263171801	-1.0452836018	 1.0327894447	-0.287207
C	-0.2358538831	-1.8392689215	 1.7615126233	 0.043491
O	-1.3620154524	-1.0614984031	 2.1785557803	-0.242176
C	-1.4771286124	-1.8335974662	 0.9784000857	 0.035542
C	-1.277458039	-1.0340043511	-0.2902011231	-0.266195
C	 0.8474943459	-0.1490568149	-1.3093824766	 0.275436
C	 1.5182649015	-0.039075696	-2.301347458	-0.45088
H	 0.4864432186	 1.5883223	 0.3952568034	 0.280903
H	 1.5561918391	-1.7289760391	 0.5868709121	 0.115248
H	 1.3649279244	-0.350425763	 1.6839741618	 0.113195
H	 0.045521831	-2.6535001093	 2.4253616767	 0.095157
H	-2.2021025136	-2.643442889	 1.0084141944	 0.095322
H	-2.0822712497	-0.3217297866	-0.4855315175	 0.135463
H	-1.1973832369	-1.7111379046	-1.1457828911	 0.11574
H	 2.1011790074	 0.0561511375	-3.1841607801	 0.197527
94.2337	146.896	192.5092	265.8498	290.9042	366.9925	394.8773	405.2823	525.0209	537.927	614.2265	633.2421	661.643	681.2081	785.4906	820.313	863.8856	876.299	927.0217	968.634	976.1373	1027.2891	1048.1397	1078.1233	1112.5727	1135.3277	1188.0244	1250.1345	1276.6338	1296.5538	1310.326	1332.7632	1381.0599	1443.8996	1458.7134	1470.3746	2229.9165	3051.1436	3065.3654	3099.6374	3119.9054	3136.2718	3149.4119	3499.8254	3807.0057
OC1(CC2OC2C1)C#C	O[C@]1(C[C@H]2O[C@H]2C1)C#C	
InChI=1S/C7H8O2/c1-2-7(8)3-5-6(4-7)9-5/h1,5-6,8H,3-4H2	InChI=1S/C7H8O2/c1-2-7(8)3-5-6(4-7)9-5/h1,5-6,8H,3-4H2/t5-,6+,7+
