14
gdb 22862	3.33419	1.26324	0.94216	2.8187	72.13	-0.2524	-0.0861	0.1664	1150.2044	0.100138	-473.802402	-473.794352	-473.793408	-473.83533	29.656	
O	-0.1208194921	 1.3297480796	-0.0982590644	-0.379621
N	 0.021106382	-0.0551315567	-0.0853001135	-0.200737
C	-1.1061758461	-0.652916149	-0.0040269318	 0.350465
C	-2.4533110291	-0.0909062733	 0.1118857152	-0.122192
C	-3.3938056758	-1.0581342399	 0.0903722977	-0.19485
C	-2.7464474055	-2.3720742831	-0.0957127769	 0.347427
O	-3.250485681	-3.4388544399	-0.3640618089	-0.335264
C	-1.2219763193	-2.1626783749	 0.0255261327	-0.04961
O	-0.521582975	-2.8238197101	-0.9947442175	-0.42312
H	 0.7915718303	 1.6309163298	-0.171191027	 0.317662
H	-2.6280897737	 0.9727204099	 0.1995291618	 0.148068
H	-4.4665939391	-0.9248554852	 0.1429371388	 0.135185
H	-0.915295314	-2.5228394508	 1.0242794885	 0.110316
H	-1.0179192616	-3.6365653463	-1.1670815249	 0.29627
58.9481	172.7527	220.2375	226.3275	286.0148	350.9128	375.5894	414.8247	469.2988	519.5087	618.1011	696.2851	716.3753	737.4691	822.4971	872.4869	909.1615	1005.7178	1011.9323	1082.5074	1132.1422	1174.274	1203.407	1261.5163	1334.8228	1358.9204	1386.3068	1435.2262	1598.1908	1719.6218	1814.8797	2943.6233	3221.0318	3244.4622	3744.7547	3815.5725
ON=C1C=CC(=O)C1O	ON=C1C=CC(=O)[C@H]1O	
InChI=1S/C5H5NO3/c7-4-2-1-3(6-9)5(4)8/h1-2,5,8-9H	InChI=1S/C5H5NO3/c7-4-2-1-3(6-9)5(4)8/h1-2,5,8-9H/t5-/m0/s1
