19
gdb 100413	3.26671	0.90697	0.7678	4.2913	74.91	-0.2459	0.013	0.2589	1483.1913	0.15843	-456.317256	-456.307596	-456.306652	-456.352839	34.505	
N	 0.0441188542	 1.3081608422	 0.2767380737	-0.549218
C	-0.0088810457	-0.028438109	-0.0224351715	 0.352427
C	 1.3333286634	-0.7188752032	-0.2191801192	-0.108568
O	 1.1702119428	-2.0514836977	-0.5948280107	-0.420549
N	-1.0564240284	-0.7402155276	-0.1910967526	-0.305556
C	-2.3576417016	-0.1486406999	-0.0454364997	-0.028559
C	-3.5603810042	-1.0879823636	-0.2666524782	-0.089749
O	-4.1469019368	-0.7077322864	 0.9980933257	-0.270719
C	-2.9592206045	 0.0023453412	 1.3838045382	-0.085624
H	 0.9260691425	 1.704047074	 0.5585337905	 0.26248
H	-0.7698456709	 1.7627748973	 0.6550851677	 0.266663
H	 1.9032938805	-0.1599250972	-0.9801921405	 0.107108
H	 1.9050958416	-0.6396793817	 0.7221848669	 0.098652
H	 0.2032693187	-2.178760095	-0.6028126484	 0.287416
H	-2.450866935	 0.7794158872	-0.6271218893	 0.081621
H	-4.2256419389	-0.8697792547	-1.1089951523	 0.102773
H	-3.2678990334	-2.145248864	-0.2878739515	 0.105964
H	-2.3815016087	-0.5330207699	 2.1497658381	 0.101686
H	-3.1831634555	 1.0169458781	 1.7382790631	 0.09175
47.5426	77.275	99.2196	132.5039	168.1092	260.4742	328.5947	360.8985	414.0154	431.2495	472.3815	486.4289	594.1923	640.4709	766.1588	863.9159	873.2867	900.5491	995.8853	1026.2389	1036.3278	1043.9984	1077.4743	1134.2118	1142.4328	1159.8414	1176.8882	1190.7802	1252.3562	1264.8622	1303.0168	1311.3955	1348.4009	1359.5329	1399.1966	1490.8819	1504.6085	1516.4625	1531.1946	1646.3919	1739.6651	2953.092	2975.0324	2993.6322	2997.5921	3022.2918	3045.5309	3076.0938	3593.757	3603.0285	3713.5694
NC(CO)=NC1COC1	NC(=NC1COC1)CO	
InChI=1S/C5H10N2O2/c6-5(1-8)7-4-2-9-3-4/h4,8H,1-3H2,(H2,6,7)	InChI=1S/C5H10N2O2/c6-5(1-8)7-4-2-9-3-4/h4,8H,1-3H2,(H2,6,7)
