17
gdb 18968	6.20762	1.36626	1.35432	2.822	68.65	-0.2294	0.0694	0.2988	951.0287	0.142896	-363.747669	-363.740786	-363.739842	-363.778899	26.463	
O	-0.0586611645	 1.4518640238	-0.3108186127	-0.420078
C	 0.060207383	 0.1020938534	 0.1196527101	-0.118594
C	-1.3197336712	-0.5145634323	 0.06426302	 0.016004
C	-1.9317384591	-0.8667504659	-1.2978185908	 0.001145
C	-1.1127839288	-2.184585694	-1.4727957764	-0.074896
C	-2.4154327767	-2.9432368535	-1.6893791127	-0.185573
N	-2.8612332149	-1.9277783898	-0.641952048	-0.164887
C	-1.4697058584	-2.0419633357	 0.040358608	-0.032686
H	 0.805513061	 1.8678577198	-0.2409664427	 0.287666
H	 0.7553764862	-0.4608096987	-0.5237345223	 0.084329
H	 0.4488470139	 0.0437945906	 1.149261715	 0.087986
H	-2.0138896594	-0.0046085714	 0.7402194205	 0.089263
H	-2.31269164	-0.2101533467	-2.0811720481	 0.08649
H	-0.127628208	-2.3201875873	-1.9309862873	 0.065897
H	-2.9276054537	-2.8297395117	-2.6507392845	 0.100344
H	-2.4752851237	-3.9809709711	-1.3438791026	 0.098461
H	-1.3081406555	-2.7750866496	 0.8338672744	 0.07913
83.0502	171.5419	227.0469	275.6279	375.404	472.2239	546.1527	714.0339	767.3723	807.6366	845.4094	858.0145	889.6672	920.5919	939.748	1018.8338	1027.3444	1040.2466	1062.5505	1075.4149	1106.3599	1116.4856	1137.3633	1164.6593	1171.8601	1189.9993	1215.1013	1252.3613	1265.6822	1270.1474	1278.3808	1314.5175	1389.2544	1468.8162	1519.0888	1521.7656	2964.9543	2990.6827	3031.3158	3048.1847	3066.8262	3090.4529	3091.4501	3111.1136	3829.4607
OCC1C2C3CN2C13	OC[C@H]1[C@H]2[C@@H]3CN2[C@H]13	
InChI=1S/C6H9NO/c8-2-4-5-3-1-7(5)6(3)4/h3-6,8H,1-2H2	InChI=1S/C6H9NO/c8-2-4-5-3-1-7(5)6(3)4/h3-6,8H,1-2H2/t3-,4-,5+,6-
