21
gdb 126582	5.24766	0.64092	0.61941	2.231	85.18	-0.2312	0.0271	0.2583	1868.6439	0.184234	-383.302976	-383.293603	-383.292659	-383.338763	33.884	
C	-0.1493748996	 1.5837307103	-0.023119213	-0.381767
C	-0.0068424558	 0.0592933028	-0.0281527096	-0.160308
C	 0.7101815258	-0.4817419952	 1.2124061953	-0.14562
C	 0.8521045536	-2.0155932431	 1.2123734911	-0.339077
C	 1.5420735507	-2.5537299949	 2.4314313942	 0.220677
C	 2.8465114969	-2.9933400102	 2.5496152835	-0.132638
N	 3.0223867358	-3.3567926729	 3.8444821551	-0.176621
N	 1.9182210832	-3.1896397438	 4.5945309779	-0.225714
C	 1.0221880119	-2.7021583542	 3.7412821613	-0.079623
H	 0.8304624954	 2.072679959	 0.015131711	 0.113462
H	-0.6646364457	 1.9408370836	-0.920361922	 0.110602
H	-0.7210730097	 1.9247827462	 0.8471761821	 0.114476
H	-1.0008773457	-0.4020138915	-0.1021908772	 0.093906
H	 0.5386382017	-0.2550780338	-0.9282256653	 0.092391
H	 1.7080400896	-0.0303804771	 1.2904721198	 0.0941
H	 0.1685123563	-0.1710597514	 2.1155298787	 0.097618
H	-0.1466528724	-2.463105735	 1.1253841974	 0.104104
H	 1.4007902876	-2.3248903183	 0.3142678577	 0.096675
H	 3.64028741	-3.0757722402	 1.8232534077	 0.127426
H	 3.8509924154	-3.7312321379	 4.2736488017	 0.272343
H	 0.024145575	-2.4753176423	 4.0894059026	 0.103588
29.3726	80.0455	88.5972	119.1365	239.0502	245.5135	317.1645	324.1933	432.8773	504.7993	656.7624	695.4479	729.1325	734.7284	787.2941	794.2506	884.6836	910.1557	929.7246	953.095	1002.1662	1020.8286	1062.3487	1067.1782	1094.8754	1122.9911	1169.2456	1230.2815	1249.1746	1276.7306	1306.2906	1323.224	1329.1161	1365.5845	1391.5189	1395.1271	1412.9486	1419.1712	1481.9814	1486.3895	1493.8927	1499.661	1499.943	1512.5912	1612.8894	3009.1968	3012.7714	3023.0879	3029.5857	3032.0841	3046.1827	3069.0394	3095.9178	3100.81	3235.0167	3254.9483	3678.4827
CCCCC1=CNN=C1	CCCCc1c[nH]nc1	
InChI=1S/C7H12N2/c1-2-3-4-7-5-8-9-6-7/h5-6H,2-4H2,1H3,(H,8,9)	InChI=1S/C7H12N2/c1-2-3-4-7-5-8-9-6-7/h5-6H,2-4H2,1H3,(H,8,9)
