21
gdb 72153	2.63183	1.91715	1.78647	1.335	80.25	-0.2387	0.0946	0.3333	925.6799	0.186641	-387.097162	-387.090492	-387.089547	-387.127641	29.352	
C	-0.0897532914	 1.4777335775	 0.0090865415	-0.499412
C	 0.0247855158	-0.0233414376	-0.0413536608	 0.414093
C	 0.6238609687	-0.7219013405	-1.2821622819	-0.227781
C	 0.5663792088	-2.1091255564	-0.6060699604	-0.07199
C	 1.6171068414	-1.8405759388	 0.499925207	-0.209203
C	 0.7384212147	-0.7806500422	 1.2065072178	-0.101865
C	-0.3964274473	-1.7264402243	 1.6622506641	-0.200438
C	-0.8247813269	-1.9810481477	 0.205631411	 0.077857
O	-1.2752343195	-0.6525159787	-0.0991210559	-0.295541
H	 0.9023559628	 1.9390403315	-0.008207461	 0.116853
H	-0.6566657004	 1.8482425668	-0.8508064199	 0.125712
H	-0.6035326069	 1.7996127463	 0.9200685466	 0.123751
H	-0.0379203902	-0.5820197497	-2.1385725114	 0.097467
H	 1.6435027442	-0.4373856276	-1.5537117727	 0.086664
H	 0.6837896327	-2.9943969151	-1.2292505732	 0.062711
H	 1.8404893491	-2.6899364529	 1.1501116385	 0.090109
H	 2.5586274318	-1.4686222826	 0.0888951232	 0.090008
H	 1.2015222957	-0.1334652423	 1.9505230299	 0.060859
H	-0.0197010445	-2.5863297464	 2.2215228412	 0.087878
H	-1.214453102	-1.2591947569	 2.212392193	 0.099953
H	-1.6026876068	-2.7115505324	-0.0110355867	 0.072315
209.4507	245.2339	275.2322	394.6663	502.8963	544.7892	582.3596	588.8567	635.0681	658.1315	768.6916	812.3325	835.4247	867.8169	890.6673	902.1976	915.9154	930.3224	948.5588	955.2907	968.1264	995.6093	1019.4504	1047.401	1082.3182	1102.3043	1116.2371	1161.3138	1167.6512	1184.024	1198.6771	1237.9562	1255.3768	1265.4781	1275.3335	1300.3651	1313.2403	1317.2324	1344.2244	1416.0007	1482.5314	1483.7708	1495.3191	1498.7487	1534.0129	3038.1525	3059.4975	3066.8509	3071.5035	3105.545	3109.3803	3111.9448	3121.674	3123.6172	3126.2742	3128.0882	3136.8786
CC12CC3CC1CC3O2	C[C@@]12C[C@H]3C[C@@H]1C[C@H]3O2	
InChI=1S/C8H12O/c1-8-4-5-2-6(8)3-7(5)9-8/h5-7H,2-4H2,1H3	InChI=1S/C8H12O/c1-8-4-5-2-6(8)3-7(5)9-8/h5-7H,2-4H2,1H3/t5-,6-,7-,8-/m1/s1
