18
gdb 28573	5.22473	0.97335	0.88188	1.4822	81.59	-0.2148	0.0143	0.2291	1356.0345	0.148467	-401.983986	-401.975695	-401.97475	-402.017692	30.569	
C	-0.2150024373	 1.4413332847	 0.1775530045	-0.495201
C	-0.0370442721	-0.0126912246	-0.0559147542	 0.315559
C	 0.0945997947	-0.805065096	-1.1461058661	-0.194899
N	 0.235863818	-2.1307974167	-0.7527077649	-0.328375
C	 0.184677807	-2.0896373884	 0.5422047966	 0.406779
O	 0.0200328428	-0.8371234766	 1.0452905376	-0.214983
C	 0.279004183	-3.1948252946	 1.5023611894	-0.12415
C	-0.3124664375	-4.5440457298	 1.134845386	-0.256034
C	 1.1746256669	-4.3773456293	 1.180196742	-0.256093
H	 0.6051333648	 1.8587573263	 0.7728374269	 0.139519
H	-0.2420697111	 1.966202268	-0.7801764472	 0.139494
H	-1.1488610438	 1.6542143174	 0.7103114882	 0.139509
H	 0.0981103973	-0.5175440639	-2.1859466863	 0.115508
H	 0.2119110392	-2.881343895	 2.5370832364	 0.101368
H	-0.8007231587	-5.105294279	 1.9235894515	 0.116442
H	-0.7814479754	-4.6087793755	 0.160134837	 0.139426
H	 1.7039760668	-4.3299834223	 0.2358819747	 0.139732
H	 1.7265280453	-4.8222260848	 2.0005492781	 0.1164
37.8266	141.6375	158.7792	160.5755	248.3143	288.3294	405.2581	432.3064	639.6923	643.3726	697.8249	752.5854	796.9034	822.6659	847.9672	909.6454	910.9621	967.6215	993.4628	1034.7474	1065.9542	1067.9988	1089.1081	1089.4361	1126.6408	1173.6035	1202.6293	1207.0944	1221.8446	1246.3504	1314.3205	1418.1987	1438.094	1458.4496	1472.5449	1491.4746	1499.2782	1609.8489	1651.7056	3029.8029	3080.172	3127.4169	3139.6374	3142.2971	3187.2848	3227.2661	3241.9657	3258.7207
CC1=CN=C(O1)C1CC1	Cc1cnc(o1)C1CC1	
InChI=1S/C7H9NO/c1-5-4-8-7(9-5)6-2-3-6/h4,6H,2-3H2,1H3	InChI=1S/C7H9NO/c1-5-4-8-7(9-5)6-2-3-6/h4,6H,2-3H2,1H3
