15
gdb 34900	1.97474	1.9285	1.20342	5.4537	75.02	-0.2532	0.0148	0.268	1032.8471	0.112388	-379.594771	-379.586827	-379.585883	-379.62748	29.794	
C	-0.226653219	-1.262878333	-0.0018382662	-0.440938
C	-0.1285102612	-0.0660915328	 0.0325543019	 0.366624
C	-0.0144941088	 1.3747150061	 0.0556115688	-0.223469
C	-0.2707478499	 2.1182810451	 1.3819660935	-0.052648
N	 0.7763921251	 1.6799447256	 2.3220974488	-0.308599
C	 1.0720226791	 2.7533875998	 1.355554513	-0.058358
C	 1.4375016385	 2.0551605646	 0.0339921475	-0.192801
C	 2.6149689572	 1.2031917099	 0.027561994	 0.317709
N	 3.5652568055	 0.5461588967	 0.0042527943	-0.331848
H	-0.2992961138	-2.3222867451	-0.0195547982	 0.20386
H	-0.6032758398	 1.8190273175	-0.7518572188	 0.118086
H	-1.2223009578	 2.5008964433	 1.7267760691	 0.113851
H	 0.5905485731	 2.117077809	 3.2234841675	 0.241973
H	 1.3982221195	 3.7355581662	 1.670381707	 0.116003
H	 1.4975024623	 2.7593941072	-0.7986515523	 0.130555
96.2893	100.6281	162.2181	208.8664	316.7855	398.1918	429.9949	519.9911	586.037	634.9283	642.7759	658.2893	727.4869	768.0877	840.7116	843.4706	909.022	955.7294	968.6863	1025.8402	1051.8219	1070.4676	1105.5067	1107.7137	1161.5222	1233.6864	1249.307	1307.3681	1340.3949	1352.7375	1382.1621	2242.9684	2361.3753	3068.2662	3094.7302	3200.2401	3213.2174	3491.8165	3503.277
C#CC1C2NC2C1C#N	C#C[C@H]1[C@H]2N[C@H]2[C@H]1C#N	
InChI=1S/C7H6N2/c1-2-4-5(3-8)7-6(4)9-7/h1,4-7,9H	InChI=1S/C7H6N2/c1-2-4-5(3-8)7-6(4)9-7/h1,4-7,9H/t4-,5+,6-,7+/m1/s1
