15
gdb 67207	2.97029	1.5025	1.22585	4.5787	69.48	-0.2426	0.0281	0.2707	1003.5092	0.113716	-416.739381	-416.732193	-416.731249	-416.771013	28.084	
O	-0.0456774722	 1.4632605188	-0.1717036602	-0.444979
C	 0.0386565202	 0.1118612141	-0.0588566569	 0.397325
C	 0.0749319713	-1.0321930769	-1.020641006	-0.142752
N	 1.2659142368	-1.6148794634	-0.4085982069	-0.297605
C	 0.9156949387	-0.8900361713	 0.8333323697	-0.116899
C	-0.4439316496	-1.5226818475	 1.329927815	-0.179224
C	-0.9370407563	-0.9320481894	 2.5630558776	 0.278956
N	-1.3113935309	-0.4722004446	 3.5559098889	-0.328129
C	-1.0554768431	-0.9104820429	 0.0675295671	-0.128579
H	 0.7288548747	 1.7851507857	-0.6485102223	 0.301225
H	-0.1537706594	-1.0820690367	-2.0772572839	 0.112895
H	 1.2437738009	-2.6309040292	-0.305955411	 0.217103
H	 1.7084973687	-0.6684816059	 1.5439642848	 0.105033
H	-0.443803391	-2.6154304647	 1.4215683789	 0.110249
H	-2.1009328888	-0.8175336062	-0.1926765048	 0.115379
106.7962	156.8741	273.0353	328.557	369.9713	418.3853	487.5962	529.9932	544.4897	625.2881	754.2513	784.158	819.1516	870.5934	898.1567	932.1909	973.2733	988.8146	1031.7787	1035.956	1039.7923	1081.9475	1103.4687	1132.1172	1193.6412	1217.9011	1225.2959	1284.4095	1314.5975	1340.4935	1356.1422	1510.023	2353.3205	3039.3369	3150.7801	3206.2693	3221.1897	3431.4311	3784.0669
OC12C3NC1C(C#N)C23	O[C@@]12[C@H]3N[C@@H]1[C@@H](C#N)[C@@H]23	
InChI=1S/C6H6N2O/c7-1-2-3-5-6(3,9)4(2)8-5/h2-5,8-9H	InChI=1S/C6H6N2O/c7-1-2-3-5-6(3,9)4(2)8-5/h2-5,8-9H/t2-,3+,4+,5-,6+/m0/s1
