15
gdb 51230	4.71359	1.06671	1.02631	2.93	65.36	-0.2453	-0.0054	0.2399	1144.1134	0.111586	-457.701041	-457.693832	-457.692888	-457.733319	27.116	
O	 0.1299450906	 0.0170033552	 0.1961196068	-0.260899
C	 0.1411064632	 1.2022467907	 0.3116048166	 0.147733
O	 1.0114951854	 1.9878166334	-0.3790186107	-0.230308
C	 0.8918737374	 3.3617466491	-0.2070567355	 0.35683
C	 0.0693783727	 4.3398408361	-1.0398515082	-0.2998
C	 0.921235713	 5.4164548128	-0.313940314	 0.065601
O	 0.4803630913	 5.3403620501	 1.0760382677	-0.28528
C	 1.1600099341	 4.0933272932	 1.1316478268	 0.025905
C	 2.0415287911	 4.3393717555	-0.048302304	-0.20287
H	-0.5225790299	 1.7885150427	 0.9724500797	 0.096108
H	 0.3274985259	 4.2685882524	-2.0989805758	 0.122561
H	-1.0139764834	 4.3946110819	-0.8987431397	 0.112438
H	 1.0379691831	 6.4303808471	-0.6865720855	 0.103683
H	 1.329313683	 3.6069425566	 2.0833258737	 0.125918
H	 3.1036561425	 4.2697082231	-0.232396658	 0.122379
73.3871	141.6886	145.0997	358.0537	371.7289	440.7465	466.9693	552.0071	736.7014	770.3196	774.72	812.6486	847.6487	912.6361	915.5089	965.5412	987.0468	1026.2159	1042.8115	1048.8579	1055.2628	1126.2036	1128.1265	1146.5806	1168.1804	1197.7458	1238.6838	1285.3337	1304.4897	1390.5416	1416.6683	1489.3609	1875.9541	2982.0057	3057.777	3126.0542	3163.291	3209.7493	3228.2521
O=COC12CC3OC1C23	O=CO[C@@]12C[C@H]3O[C@@H]1[C@@H]23	
InChI=1S/C6H6O3/c7-2-8-6-1-3-4(6)5(6)9-3/h2-5H,1H2	InChI=1S/C6H6O3/c7-2-8-6-1-3-4(6)5(6)9-3/h2-5H,1H2/t3-,4+,5-,6-/m1/s1
