17
gdb 34688	2.63104	1.84596	1.42667	3.411	75.25	-0.2437	0.007	0.2507	942.8457	0.137653	-380.800062	-380.792966	-380.792022	-380.831385	28.299	
N	-0.5636570563	-1.1170116817	-0.2681011166	-0.347235
C	-0.263055733	-0.0147830648	-0.0850709251	 0.286161
C	-0.0147977711	 1.3990645132	 0.0634101111	-0.130861
C	 0.4967004653	 2.1286923027	 1.2485416783	-0.057313
C	 1.6598649912	 1.4931435967	 2.0260022605	-0.039139
C	 1.7779833257	-0.0549066816	 2.1474148273	-0.25684
C	 2.5649961593	-0.0863052844	 0.7919204768	-0.245129
C	 2.4202272057	 1.4540868237	 0.6850528202	 0.032064
N	 1.270610998	 2.1297686238	-0.0664914401	-0.171607
H	-0.7766097275	 1.9566556042	-0.4804366678	 0.151086
H	-0.037106901	 3.0138144689	 1.5845168182	 0.110104
H	 1.9969264072	 2.0983743078	 2.8663264805	 0.084827
H	 2.3839953399	-0.3588934639	 3.0033340149	 0.107972
H	 0.841775606	-0.6126932185	 2.1759758724	 0.132794
H	 3.6119111367	-0.3748028512	 0.9149677432	 0.108258
H	 2.1431227777	-0.6845364069	-0.0144107847	 0.140906
H	 3.3203957963	 2.036965542	 0.4937821908	 0.093951
134.8717	167.9623	245.0541	279.8249	362.4743	437.3076	590.5237	611.9566	669.3259	682.8621	713.9126	727.9673	849.7943	864.9498	874.1471	898.8486	916.5645	956.989	979.1937	1039.4595	1066.9944	1071.4144	1105.9763	1126.3729	1176.1076	1211.497	1234.1384	1251.4676	1264.6713	1273.7331	1301.3768	1315.5223	1357.4792	1409.8591	1475.9228	1493.4129	2344.5223	3072.9108	3081.0655	3112.4646	3118.3291	3121.9043	3135.7568	3146.1105	3149.6342
N#CC1C2C3CCC3N12	N#C[C@H]1[C@H]2[C@H]3CC[C@H]3N12	
InChI=1S/C7H8N2/c8-3-6-7-4-1-2-5(4)9(6)7/h4-7H,1-2H2	InChI=1S/C7H8N2/c8-3-6-7-4-1-2-5(4)9(6)7/h4-7H,1-2H2/t4-,5+,6-,7+,9?/m0/s1
