18
gdb 22387	2.7505	1.50185	1.14601	1.5043	75.31	-0.2441	0.0118	0.2559	1094.1134	0.147045	-439.029429	-439.021287	-439.020343	-439.061832	31.888	
C	-0.0876091283	 1.526397492	 0.0293353596	-0.504422
C	 0.0300045262	 0.0331242162	 0.0061155543	 0.317576
C	 0.7638174173	-0.7970220266	-1.0888629711	-0.272964
C	-0.2763915912	-1.8218129188	-0.5928817027	 0.06677
C	 0.1852946441	-2.1710620497	 0.8415964736	-0.31944
C	 0.4243429154	-0.7290976513	 1.2609403192	 0.451806
N	 0.8247201255	-0.1961629056	 2.3369047377	-0.286265
O	 1.09555476	-1.1703735584	 3.3179189466	-0.391241
O	-1.1979040008	-0.7123050668	-0.3479738006	-0.328134
H	 0.8792514443	 1.972400462	 0.279337481	 0.135887
H	-0.4149557351	 1.9035060563	-0.9426756507	 0.124055
H	-0.8075682731	 1.8370041917	 0.7915900256	 0.141209
H	 0.5307910126	-0.4241575193	-2.0872540912	 0.113428
H	 1.8298994543	-1.010110384	-0.9724756162	 0.102768
H	-0.6870640166	-2.6122272839	-1.2192150052	 0.086238
H	-0.6053346416	-2.6458831752	 1.428075603	 0.134198
H	 1.0854948432	-2.7900243243	 0.8994800003	 0.122745
H	 1.3709675736	-0.6322585244	 4.0679128769	 0.305785
112.5239	171.7442	181.3209	256.8269	292.7595	346.1003	399.7693	437.9008	469.1037	565.656	597.4237	623.4747	707.8231	796.7808	817.2113	851.3572	872.7463	906.7132	965.7764	977.2913	985.0568	1022.5345	1058.503	1103.8551	1120.0944	1133.7904	1195.8966	1213.5006	1263.9294	1284.1206	1301.5154	1347.0748	1405.2468	1421.4515	1462.1263	1475.7319	1486.1308	1490.7161	1790.887	3049.2769	3062.4177	3065.7232	3112.4788	3123.3063	3128.629	3133.8424	3140.6222	3816.352
CC12CC(CC1=NO)O2	C[C@@]12C[C@@H](CC1=NO)O2	
InChI=1S/C6H9NO2/c1-6-3-4(9-6)2-5(6)7-8/h4,8H,2-3H2,1H3	InChI=1S/C6H9NO2/c1-6-3-4(9-6)2-5(6)7-8/h4,8H,2-3H2,1H3/t4-,6-/m1/s1
