20
gdb 12525	3.22973	1.81878	1.2322	0.6115	83.71	-0.2092	-0.0197	0.1896	1023.4655	0.178786	-311.890098	-311.882139	-311.881195	-311.92516	30.349	
C	 0.0255027812	 1.5903594953	 0.0121820109	-0.391176
C	-0.015236589	 0.0546753547	 0.0043647512	 0.009994
C	 0.568001095	-0.4715555406	-1.3186659419	-0.242311
C	 0.4064012192	-1.9369371608	-1.612396868	-0.079521
C	 0.28619116	-2.9596106294	-0.7537301969	-0.06675
C	 0.3261834374	-2.9663283845	 0.7062092123	-0.065728
C	 0.5141659471	-1.9524390186	 1.5628762545	-0.080864
C	 0.6899454723	-0.490287904	 1.259890868	-0.243218
H	 1.0590482994	 1.9554788378	-0.030370462	 0.111682
H	-0.5085771311	 2.0079510869	-0.847455631	 0.1098
H	-0.4317841101	 1.9964634423	 0.9202048283	 0.109882
H	-1.0655504032	-0.2611733339	 0.0521898203	 0.083937
H	 0.0990728765	 0.0855407045	-2.1406652351	 0.099272
H	 1.6354187034	-0.2042715665	-1.3758058317	 0.108352
H	 0.384191346	-2.1834518767	-2.6723159013	 0.0852
H	 0.166435237	-3.9470355583	-1.1951265737	 0.07947
H	 0.2135900256	-3.9553874324	 1.1457133652	 0.07956
H	 0.5449289174	-2.2038332094	 2.6212551726	 0.085163
H	 1.7645388964	-0.2542409252	 1.2026527884	 0.108736
H	 0.3260282497	 0.076319249	 2.1268264998	 0.09852
2.6269	135.4829	219.7578	322.0813	330.3317	365.7274	387.081	414.4999	524.059	611.0587	688.5565	781.2086	823.0748	847.0622	887.1987	900.5647	908.8653	933.8772	1001.8971	1012.1834	1017.5796	1059.8109	1086.3755	1104.8277	1164.8804	1182.9458	1275.3125	1277.0608	1289.3732	1323.2404	1349.0861	1377.7107	1402.8994	1416.3545	1423.628	1460.6099	1462.2801	1475.6983	1499.2941	1499.4095	1688.266	1716.9309	2979.2842	2986.1473	3017.8239	3025.3353	3027.5416	3036.3103	3089.8789	3100.0173	3124.1156	3132.5582	3148.1171	3160.0052
CC1CC=CC=CC1	C[C@H]1CC=CC=CC1	
InChI=1S/C8H12/c1-8-6-4-2-3-5-7-8/h2-5,8H,6-7H2,1H3	InChI=1S/C8H12/c1-8-6-4-2-3-5-7-8/h2-5,8H,6-7H2,1H3
