23
gdb 105896	2.06738	1.74389	1.174	0.2463	89.9	-0.2748	0.0867	0.3615	1184.1639	0.205564	-351.093318	-351.084467	-351.083523	-351.126606	34.796	
C	 0.0317369588	 1.5160926517	 0.0574588547	-0.378278
C	-0.0562636847	-0.0131173557	-0.026711752	-0.323329
C	-1.4737354392	-0.5281079071	-0.036583103	 0.383777
C	-2.6006771069	-0.241674546	-1.0662248255	-0.047668
C	-2.4330903377	-0.6947072692	-2.5097965341	-0.424994
C	-3.2485487332	-1.191615527	-0.0385989282	-0.050768
C	-1.9359040504	-2.0245801139	 0.1646618013	-0.101302
C	-1.9974465022	-1.8784890521	 1.6976982713	-0.278054
C	-2.4988522956	-0.524468473	 1.1625300774	-0.081857
H	 1.0730064513	 1.8525895166	 0.0547369752	 0.11078
H	-0.4739393569	 1.9899980002	-0.7903994214	 0.118298
H	-0.4388842038	 1.8887162268	 0.9733187951	 0.117336
H	 0.4562237937	-0.3606925453	-0.9339397392	 0.097943
H	 0.4851876733	-0.4607858625	 0.8171524802	 0.098273
H	-2.9892413012	 0.7850842333	-1.0255451244	 0.056039
H	-2.0445170417	-1.7167798214	-2.5715393657	 0.112266
H	-3.3900147092	-0.6712963173	-3.0433816597	 0.113034
H	-1.7404762319	-0.0422496316	-3.053654909	 0.112525
H	-4.2657419998	-1.5882039429	-0.0118023101	 0.061285
H	-1.6141742956	-2.8857667667	-0.4231743872	 0.065144
H	-2.7311642814	-2.5017095574	 2.219633335	 0.087831
H	-1.0453133319	-1.8809732183	 2.2383215169	 0.088991
H	-2.8370478039	 0.3561360389	 1.7127482924	 0.06273
74.7331	170.7971	175.4772	213.3922	216.5166	241.9568	295.3741	397.1684	477.1947	524.8669	621.8141	722.3414	728.1259	778.8294	844.3995	873.2097	885.6433	896.4843	900.1613	913.1337	978.8735	1000.881	1023.8078	1035.7339	1053.608	1071.5175	1099.2651	1102.4577	1125.1979	1153.4028	1163.3103	1164.8032	1183.0553	1223.3273	1237.0246	1250.4831	1281.4688	1304.7824	1326.0543	1368.6642	1403.6572	1410.4835	1416.9354	1478.4602	1494.4764	1498.9331	1499.9906	1505.8798	1511.8429	3010.3199	3011.5289	3025.5098	3034.1987	3034.403	3042.3972	3083.3889	3085.6737	3088.373	3089.1161	3096.7696	3102.2019	3102.9776	3105.1382
CCC12C(C)C3C1CC23	CC[C@@]12[C@@H](C)[C@H]3[C@@H]1C[C@@H]23	
InChI=1S/C9H14/c1-3-9-5(2)8-6(9)4-7(8)9/h5-8H,3-4H2,1-2H3	InChI=1S/C9H14/c1-3-9-5(2)8-6(9)4-7(8)9/h5-8H,3-4H2,1-2H3/t5-,6-,7+,8-,9+/m0/s1
