18
gdb 127734	2.98223	1.28294	0.94728	4.0087	75.34	-0.2398	0.0034	0.2432	1237.649	0.147622	-435.271624	-435.262246	-435.261302	-435.306161	33.038	
C	 0.060230929	 1.4128444036	 0.0080410277	-0.334595
N	 0.0088962331	-0.0324444653	 0.0679856453	 0.00901
N	-0.1303296559	-0.747636689	-1.0720073556	-0.16278
N	-0.1372290944	-2.0055735125	-0.7405249006	-0.257289
C	-0.0104784825	-2.1170367848	 0.611314293	 0.182384
C	 0.0161610094	-3.4452151359	 1.3028067864	-0.17532
O	 1.1000196335	-3.5751903452	 2.2219015019	-0.412453
C	 0.0909322538	-0.8474003115	 1.150767605	 0.24464
C	 0.2546394345	-0.3709986896	 2.5543109554	-0.517268
H	 1.0102417966	 1.7860001393	 0.4021532129	 0.144876
H	-0.0328693548	 1.6942673125	-1.0406125251	 0.171594
H	-0.7605566159	 1.8560848424	 0.5793724156	 0.145681
H	-0.8841113217	-3.5943133442	 1.9090219271	 0.11876
H	 0.0284974806	-4.2305798212	 0.5352348676	 0.119381
H	 1.913222265	-3.4479732707	 1.7215645775	 0.283883
H	 1.0514078115	 0.376437928	 2.6394910209	 0.132525
H	-0.6638877888	 0.0848967343	 2.9432308212	 0.138324
H	 0.5167756668	-1.2189568502	 3.1891081538	 0.168645
67.1143	110.9109	129.2604	154.0603	198.3796	256.8345	264.4663	276.7967	370.7272	416.925	482.5771	625.0106	683.1855	703.8871	734.4065	810.439	967.6779	995.3632	1026.3148	1051.3597	1067.7256	1150.4092	1152.7169	1188.4188	1236.7377	1272.8721	1316.3046	1346.9767	1396.1981	1417.6203	1430.1515	1443.7492	1471.2992	1484.1323	1497.0777	1500.9833	1503.7185	1523.663	1610.3288	3020.2467	3027.3816	3045.7403	3068.1468	3078.0439	3108.0493	3141.6783	3164.4408	3808.0931
CN1N=NC(CO)=C1C	Cn1nnc(CO)c1C	
InChI=1S/C5H9N3O/c1-4-5(3-9)6-7-8(4)2/h9H,3H2,1-2H3	InChI=1S/C5H9N3O/c1-4-5(3-9)6-7-8(4)2/h9H,3H2,1-2H3
