12
gdb 21387	5.69825	2.16915	1.57109	2.3663	60.32	-0.2308	0.0013	0.2321	723.2513	0.088595	-373.703881	-373.698171	-373.697227	-373.733447	21.785	
N	 0.0062580946	 1.3280874722	 0.0088272033	-0.362718
N	 1.2762265196	 1.8578780609	 0.0008908681	-0.212756
C	 2.1066802403	 0.8274917675	-0.0136070997	-0.154794
C	 1.4027642359	-0.4091661562	-0.013369161	 0.163936
C	 0.0636238186	-0.0218876976	 0.0018664546	 0.506155
N	-0.7055042612	-1.1328378922	 0.0029571795	-0.362718
N	 0.0855806805	-2.2586871651	-0.0113690818	-0.212755
C	 1.3378720297	-1.8306270589	-0.020946944	-0.154796
H	-0.7799773795	 1.9516785933	 0.0229059659	 0.274886
H	 3.1703437015	 1.0132502857	-0.0230030047	 0.120338
H	-1.7032781866	-1.2405050003	 0.0121633082	 0.274886
H	 2.1381694766	-2.5554398393	-0.0329805685	 0.120337
236.6691	269.6905	281.6472	392.4322	469.3501	654.8114	656.0391	694.6518	754.4714	771.9006	871.8051	879.8953	960.6539	981.3119	1051.5377	1053.1907	1205.7674	1234.8563	1275.8203	1304.7598	1384.6731	1437.4909	1446.3392	1503.7223	1562.8671	1651.18	3249.3972	3250.2883	3699.5118	3702.0072
N1N=CC2=C1NN=C2	[nH]1ncc2c1[nH]nc2	
InChI=1S/C4H4N4/c1-3-2-6-8-4(3)7-5-1/h1-2H,(H2,5,6,7,8)	InChI=1S/C4H4N4/c1-3-2-6-8-4(3)7-5-1/h1-2H,(H2,5,6,7,8)
