24
gdb 118487	1.90358	1.30923	0.91996	1.7261	86.27	-0.2298	0.0844	0.3141	1410.5281	0.215739	-405.5045	-405.493846	-405.492902	-405.540573	38.59	
C	-0.1671717409	 1.4984961822	-0.0679541998	-0.395301
C	 0.0944818696	-0.005992538	 0.0358745876	-0.158708
C	 0.8204840304	-0.632578921	-1.1636010355	 0.037283
C	 1.1255301983	-2.1186966002	-0.89494609	-0.085954
O	 0.0300052698	-2.8852873544	-0.4440279682	-0.233059
C	-0.8189573598	-3.3756349049	-1.4644244596	-0.234439
N	 0.0329356462	-0.4852212053	-2.3917446793	-0.05841
C	 0.2619275746	 0.7030423033	-3.205984084	-0.220726
C	 0.7531614479	-0.6267526167	-3.6535156139	-0.229162
H	 0.7605782107	 2.0604426322	-0.2280162127	 0.105335
H	-0.8491323407	 1.7340199534	-0.8892529616	 0.127118
H	-0.6220033265	 1.8719785219	 0.8550061166	 0.111153
H	 0.7006764536	-0.2072592055	 0.9281746565	 0.091776
H	-0.8474942497	-0.543195984	 0.1799378318	 0.117258
H	 1.8069341308	-0.1374672322	-1.2812210125	 0.045744
H	 1.5709840782	-2.5734886178	-1.7944981019	 0.082646
H	 1.8732002805	-2.1669953047	-0.0943431376	 0.101225
H	-1.549343831	-4.0290117863	-0.9793636972	 0.117489
H	-1.3387084933	-2.5679532383	-1.9915022369	 0.131384
H	-0.2529815605	-3.9680172142	-2.2011809421	 0.095172
H	-0.6203096008	 1.1507394238	-3.6549168174	 0.11658
H	 1.0119102121	 1.4163680277	-2.8683480728	 0.111598
H	 1.8292834357	-0.7922934182	-3.6141468401	 0.108741
H	 0.2388947149	-1.1758992527	-4.4370727093	 0.115256
63.6797	79.5795	111.8571	131.9597	166.9428	200.6152	231.4395	259.4297	299.2935	324.7449	356.9782	439.5627	486.5237	648.9906	715.7563	792.8038	833.3008	864.1452	904.4543	919.4559	981.2498	1005.553	1021.5841	1041.947	1067.2373	1112.8997	1122.3367	1125.2783	1144.1791	1163.765	1184.8534	1187.498	1201.4451	1227.1012	1280.7656	1307.417	1313.8949	1340.553	1379.3706	1388.4695	1411.0358	1413.4868	1471.2337	1478.7196	1481.5843	1489.0581	1492.3614	1501.3986	1508.9149	1519.4841	1521.2111	2879.5369	2974.7537	2981.3365	3030.8387	3032.3842	3056.8061	3063.4937	3082.9765	3090.2857	3097.567	3100.173	3111.7661	3116.9646	3173.6965	3188.41
CCC(COC)N1CC1	CC[C@@H](COC)N1CC1	
InChI=1S/C7H15NO/c1-3-7(6-9-2)8-4-5-8/h7H,3-6H2,1-2H3	InChI=1S/C7H15NO/c1-3-7(6-9-2)8-4-5-8/h7H,3-6H2,1-2H3/t7-/m0/s1
