23
gdb 36984	4.86283	0.69276	0.66854	0.8839	87.18	-0.2424	0.0921	0.3345	1791.0051	0.205487	-388.254942	-388.245486	-388.244542	-388.290655	35.068	
C	-0.1192483832	 1.4024011317	 0.1122564707	-0.079976
O	 0.0408041255	 0.0203147021	 0.3930584769	-0.254047
C	-1.1587207661	-0.6843572012	 0.4072323974	 0.156329
C	-1.7377374509	-1.1847023114	-0.8928976552	-0.287627
C	-1.0798450198	-2.1400674735	 0.085199294	-0.287696
C	 1.246967321	 2.0518468377	 0.1089577004	 0.039229
C	 2.2353287862	 1.7090567637	-1.0406776429	-0.20958
C	 2.6500971981	 3.2049127828	-1.0793843625	-0.209417
C	 1.3478313265	 3.5472549424	-0.3046031053	-0.237453
H	-0.6100779663	 1.536968144	-0.8658422427	 0.082316
H	-0.7694469386	 1.8728345124	 0.8702412904	 0.082521
H	-1.8583062081	-0.3632891956	 1.1811161312	 0.079309
H	-2.8153924139	-1.2136625467	-1.0115192573	 0.110502
H	-1.1847863682	-0.951708936	-1.7961163094	 0.117494
H	-0.0999819324	-2.5196081193	-0.1808665616	 0.124651
H	-1.7002148967	-2.8306340874	 0.64515803	 0.112267
H	 1.7226541908	 1.8862501991	 1.0813615534	 0.077414
H	 3.0097173904	 0.9659032397	-0.8402371579	 0.0996
H	 1.6973287945	 1.4127840763	-1.9473157826	 0.095117
H	 3.5413278497	 3.3949441165	-0.4744197081	 0.101755
H	 2.7932729715	 3.6687819627	-2.0581084722	 0.094587
H	 0.5365099537	 3.8284045981	-0.9849199553	 0.096945
H	 1.4040031062	 4.2933786319	 0.4917872685	 0.095758
43.73	53.6401	101.1592	125.4209	171.2316	257.7	319.2799	394.3689	448.6329	480.4054	641.7179	754.2141	767.2444	788.8706	817.3556	836.882	894.2074	916.193	936.0658	959.9146	970.9251	977.003	986.6741	1043.836	1062.9184	1070.4482	1104.0856	1124.64	1130.9387	1182.7037	1193.5434	1200.8315	1209.7301	1230.955	1242.5707	1256.9933	1258.951	1273.9425	1278.4248	1300.7937	1356.5215	1383.7995	1436.2444	1452.9728	1477.5671	1485.2485	1497.2697	1507.049	1520.0619	2951.2368	2983.9482	3044.3493	3048.2759	3056.5309	3057.7524	3082.61	3096.4814	3105.3074	3118.7327	3133.7384	3141.2766	3218.3831	3233.6674
C(OC1CC1)C1CCC1	C(OC1CC1)C1CCC1	
InChI=1S/C8H14O/c1-2-7(3-1)6-9-8-4-5-8/h7-8H,1-6H2	InChI=1S/C8H14O/c1-2-7(3-1)6-9-8-4-5-8/h7-8H,1-6H2
