22
gdb 76920	2.29468	1.25016	1.0458	0.5567	84.08	-0.2277	0.0841	0.3118	1291.9092	0.191668	-404.301784	-404.291621	-404.290677	-404.336582	38.018	
C	-0.0979498854	 1.4886776874	 0.5732885374	-0.414982
C	 0.0779940372	 0.0134044717	 0.2854580552	-0.10955
C	 0.4648082275	-0.4963181958	-1.0978388799	-0.010985
N	 0.7535097694	 0.4629481835	-2.1258953958	-0.063115
C	 1.1343461733	-0.0730638091	-3.4297634333	-0.223088
C	-0.2035282109	 0.5478960387	-3.2253824853	-0.221647
C	 1.4274628634	-0.641323426	 0.0492089467	 0.347481
C	 2.7193358392	 0.1397085414	 0.0960489982	-0.4525
O	 1.5493202811	-1.9775055717	 0.4826329519	-0.466258
H	 0.5237328187	 2.1004545368	-0.0825815272	 0.135645
H	-1.1389298321	 1.7905209483	 0.412525634	 0.114071
H	 0.1566831351	 1.7257556027	 1.6124546702	 0.109104
H	-0.6216615607	-0.638858674	 0.8025537329	 0.082831
H	-0.0100141732	-1.4281728893	-1.4167872849	 0.077628
H	 1.9197717622	 0.4662726177	-3.9516554067	 0.115451
H	 1.1711078318	-1.1550265867	-3.5422787038	 0.116122
H	-1.0643127955	-0.1180564009	-3.2012295801	 0.111895
H	-0.411389335	 1.5476071667	-3.5963138993	 0.115217
H	 2.6194471041	 1.1088456123	-0.3943945192	 0.137352
H	 3.0395015076	 0.3060276862	 1.1323673667	 0.101253
H	 3.5084361089	-0.4233917211	-0.4124788765	 0.121827
H	 1.6988828531	-1.9624096987	 1.4347777089	 0.276249
68.0651	145.7114	147.5243	163.2864	179.0088	230.0307	239.6713	298.9371	313.3252	379.8453	415.4517	455.5187	499.335	573.6224	718.9687	763.8337	803.6277	862.3985	894.1719	915.155	959.4133	989.8312	1024.4424	1034.0688	1058.2335	1092.9698	1109.177	1119.5557	1122.693	1128.3095	1151.1674	1175.7197	1200.2549	1232.9445	1291.9365	1320.8892	1340.3774	1366.1817	1406.2245	1418.14	1458.0144	1481.2753	1492.0265	1493.6003	1501.6614	1515.6238	1521.7642	3025.1592	3032.061	3058.6371	3083.687	3088.8893	3096.4674	3101.6806	3127.1093	3140.1341	3145.8543	3177.8464	3192.6645	3788.44
CC1C(N2CC2)C1(C)O	C[C@H]1[C@@H](N2CC2)[C@]1(C)O	
InChI=1S/C7H13NO/c1-5-6(7(5,2)9)8-3-4-8/h5-6,9H,3-4H2,1-2H3	InChI=1S/C7H13NO/c1-5-6(7(5,2)9)8-3-4-8/h5-6,9H,3-4H2,1-2H3/t5-,6+,7+/m0/s1
