17
gdb 69681	3.16656	1.39029	1.24337	2.6071	78.66	-0.2237	0.0387	0.2624	1069.1535	0.133352	-384.575009	-384.566876	-384.565932	-384.607302	31.985	
C	-0.0506717491	 1.5573784547	 0.0490498554	-0.504419
C	 0.1486277762	 0.0796499801	 0.0478157601	 0.419774
O	-0.7471686222	-0.7511514368	 0.7963310791	-0.267678
C	 0.6620056998	-0.8841765705	 1.0215894105	-0.059573
C	 1.286688297	-1.756059186	-0.1072047775	-0.123568
C	 0.2858068333	-2.2131802223	-1.1532116474	-0.192455
C	-1.0373044172	-2.7438701225	-0.9641161284	 0.332367
C	-2.1094622915	-3.2870707401	-0.9206957917	-0.447067
C	 0.7448565215	-0.7658129781	-1.129850762	-0.170746
H	 0.8545038099	 2.0717634633	-0.2899838248	 0.126979
H	-0.8695910759	 1.8379218697	-0.6232425303	 0.136522
H	-0.2974214638	 1.9051467121	 1.0554729396	 0.137132
H	 1.0242935252	-0.7755123046	 2.0369944805	 0.108292
H	 2.2784121182	-2.1854699739	-0.047226557	 0.099013
H	 0.8138465718	-2.7422724843	-1.9469017212	 0.121666
H	-3.0706693835	-3.7296825402	-0.8378255863	 0.186553
H	 1.2591481904	-0.3241143207	-1.9743195586	 0.097207
105.7892	155.9276	195.4153	250.9007	278.6581	342.579	406.7766	478.5473	592.0061	610.8683	621.9152	632.5529	670.1982	734.8775	744.0953	792.0007	860.8758	870.4377	926.9721	941.0276	972.2949	992.5324	1004.2834	1057.697	1070.8956	1103.6938	1171.2997	1180.9304	1256.286	1272.1957	1301.4775	1398.9642	1408.0878	1470.5764	1485.2907	1501.2734	2234.5988	3033.4159	3095.5727	3106.7222	3123.2573	3184.9483	3189.3005	3201.0591	3505.4724
CC12OC1C1C(C#C)C21	C[C@]12O[C@H]1[C@H]1[C@@H](C#C)[C@@H]21	
InChI=1S/C8H8O/c1-3-4-5-6(4)8(2)7(5)9-8/h1,4-7H,2H3	InChI=1S/C8H8O/c1-3-4-5-6(4)8(2)7(5)9-8/h1,4-7H,2H3/t4-,5+,6-,7+,8-/m1/s1
