20
gdb 107995	2.81569	1.48617	1.28732	2.8865	78.42	-0.2206	0.0675	0.2882	1070.8562	0.172902	-403.0834	-403.075566	-403.074622	-403.115875	30.801	
O	-0.0632483945	 1.4612680761	 0.0129268788	-0.420932
C	 0.0224068976	 0.0437392696	-0.055905544	-0.23262
C	-1.3809481972	-0.4994472421	-0.0098754906	 0.331343
C	-2.545469702	-0.2698657018	-0.9822605832	-0.211253
N	-3.1967384349	-1.1894776831	 0.0544372621	-0.172658
C	-1.8628236358	-1.9759791681	 0.0552551267	-0.02772
C	-1.6953609654	-2.5519868871	 1.4553662217	-0.242005
C	-2.1351499998	-1.307807731	 2.2764038535	-0.242956
C	-2.4392473808	-0.3621518525	 1.1226485351	 0.000985
H	 0.8276919613	 1.8198973876	-0.0371872763	 0.289593
H	 0.51595379	-0.2856612991	-0.9852977882	 0.087383
H	 0.606599688	-0.3650050966	 0.785845854	 0.085285
H	-2.9903421286	 0.7275253246	-1.0263787087	 0.104207
H	-2.481234741	-0.7150445394	-1.9803521339	 0.090386
H	-1.7224849384	-2.6335507209	-0.8060481012	 0.066046
H	-2.3484370772	-3.4148062426	 1.6121073819	 0.11068
H	-0.6667737803	-2.8657233657	 1.6569813044	 0.097445
H	-3.0224069573	-1.4962142925	 2.8868342632	 0.110255
H	-1.3494647642	-0.9201418425	 2.9317009637	 0.100853
H	-2.8759056193	 0.6140908571	 1.338476811	 0.075682
71.3641	154.3281	206.7699	244.9839	270.4867	373.2977	440.0371	483.2089	631.066	687.8022	707.4237	783.3706	816.227	823.2298	892.4257	918.6817	935.9344	946.4172	984.3886	997.6706	1026.5152	1040.5545	1067.1444	1088.2224	1121.6178	1123.9871	1149.5646	1161.5483	1206.5474	1236.5406	1249.3272	1255.3967	1266.6985	1282.2686	1301.0742	1315.5688	1321.3656	1390.7319	1463.2699	1476.6793	1498.1374	1512.1634	1533.8573	2954.1533	2982.1431	3044.8108	3052.3904	3060.8832	3090.7076	3092.7343	3108.9001	3109.8302	3113.2493	3827.5335
OCC12CN3C1CCC23	OC[C@@]12CN3[C@@H]1CC[C@@H]23	
InChI=1S/C7H11NO/c9-4-7-3-8-5(7)1-2-6(7)8/h5-6,9H,1-4H2	InChI=1S/C7H11NO/c9-4-7-3-8-5(7)1-2-6(7)8/h5-6,9H,1-4H2/t5-,6+,7+
