19
gdb 70939	3.52573	1.31498	1.09407	3.1876	81.86	-0.2416	-0.0243	0.2173	1139.4644	0.158305	-385.832439	-385.824315	-385.823371	-385.865002	31.394	
C	-0.0034061843	 1.4619491679	-0.0184424664	-0.51811
C	 0.027689474	-0.0408210806	-0.058827108	 0.345583
C	 0.5673544265	-0.9582425772	-1.1791782105	-0.358509
C	 0.0666112978	-1.9362498207	-0.109313596	 0.28008
C	 0.0813881186	-3.4166839881	-0.1147631338	 0.020966
O	 0.5177986743	-4.0882686506	-1.0192164889	-0.254729
C	 0.5374639018	-1.005875403	 1.0808479638	-0.116884
C	-0.8360601952	-1.0398118658	 1.7755595141	-0.27842
C	-1.1653221378	-1.0193925667	 0.2717199222	-0.116974
H	 1.0083415932	 1.8754131579	-0.0937809388	 0.124694
H	-0.5890728442	 1.8627564569	-0.8530739886	 0.124693
H	-0.4486000045	 1.8307836676	 0.9120096644	 0.121772
H	 0.0222566781	-0.951715184	-2.1280688202	 0.099631
H	 1.6471559077	-0.9388943254	-1.3558473296	 0.09966
H	-0.3492310512	-3.8944982346	 0.7957612875	 0.067537
H	 1.5385365989	-1.0157107772	 1.5162507251	 0.080102
H	-1.0937307815	-1.9445557533	 2.3329446982	 0.100301
H	-1.1160882628	-0.1515914027	 2.3500518692	 0.098528
H	-2.1349755894	-1.0447325804	-0.2292316138	 0.080081
88.9248	153.4991	207.7655	211.2656	265.6781	347.9987	380.4596	414.3493	497.3952	627.553	676.5706	689.3044	791.6071	854.4327	869.7125	871.3541	917.7534	989.9238	996.9825	1012.5361	1028.5472	1029.2213	1085.9938	1108.1628	1126.6806	1137.6178	1153.3883	1162.8269	1190.2932	1201.0326	1235.2874	1274.6076	1301.3896	1364.4461	1411.7359	1427.6815	1486.1642	1491.4712	1514.2678	1515.5734	1807.0057	2857.8159	3027.0164	3045.2101	3048.0642	3093.1172	3095.4169	3096.0213	3100.0838	3103.1879	3103.2797
CC12CC3(C=O)C1CC23	C[C@@]12C[C@@]3(C=O)[C@@H]1C[C@@H]23	
InChI=1S/C8H10O/c1-7-3-8(4-9)5(7)2-6(7)8/h4-6H,2-3H2,1H3	InChI=1S/C8H10O/c1-7-3-8(4-9)5(7)2-6(7)8/h4-6H,2-3H2,1H3/t5-,6+,7-,8-
