19
gdb 114807	2.67515	1.32891	1.18653	2.6514	70.92	-0.2503	0.0495	0.2998	1135.8954	0.15819	-460.118744	-460.110019	-460.109075	-460.152192	32.728	
C	 0.0146523827	 1.6498691016	 0.1217377216	-0.484982
C	 0.0598931745	 0.1493814293	 0.0467296699	 0.365242
O	-1.2305163157	-0.4709651449	 0.2766135037	-0.326467
C	-0.6766054728	-1.3876227295	 1.2564741194	-0.104691
C	 0.7397829062	-0.8619094617	 1.00116788	 0.02542
O	 1.4039082637	-1.5191551073	-0.092893776	-0.332209
C	 0.8707760221	-0.5634464473	-1.0644647203	 0.070946
C	 0.1556577849	-1.2805581066	-2.1940912702	-0.079892
O	 1.029175842	-2.2104594859	-2.8116315028	-0.424546
H	 1.0164827527	 2.0773118827	 0.0179992843	 0.127166
H	-0.6123660182	 2.0471666308	-0.6843550072	 0.137282
H	-0.4134025472	 1.9783054251	 1.0728215758	 0.129941
H	-1.0760717067	-1.1816556724	 2.257554475	 0.107177
H	-0.8377609133	-2.4389730251	 0.9966153861	 0.113092
H	 1.4054578376	-0.6445164072	 1.8381908785	 0.091488
H	 1.6925893521	 0.0486301461	-1.4596367707	 0.080665
H	-0.7519918712	-1.7616196367	-1.8070120397	 0.103711
H	-0.1445907729	-0.5625034644	-2.9652134672	 0.108582
H	 1.3697195795	-2.7671857664	-2.1009805203	 0.292075
83.5405	123.9535	166.8498	195.0495	222.5504	302.7261	322.422	400.0306	439.3199	496.1424	530.1108	640.3497	723.1537	826.1952	851.6687	871.1701	912.7547	929.0025	997.4745	1030.7511	1040.8017	1070.1072	1076.8378	1109.3274	1147.0781	1157.2814	1177.5236	1201.7236	1217.1902	1241.1182	1304.5477	1333.4511	1341.6142	1364.0759	1396.8908	1412.0942	1434.0264	1480.5764	1488.9273	1501.7292	1506.327	3015.2951	3019.3261	3023.9998	3037.0008	3077.4895	3081.3339	3098.7878	3105.1162	3120.1305	3790.3328
CC12OCC1OC2CO	C[C@]12OC[C@H]1O[C@H]2CO	
InChI=1S/C6H10O3/c1-6-4(2-7)9-5(6)3-8-6/h4-5,7H,2-3H2,1H3	InChI=1S/C6H10O3/c1-6-4(2-7)9-5(6)3-8-6/h4-5,7H,2-3H2,1H3/t4-,5+,6+/m0/s1
