22
gdb 121813	3.19599	0.73858	0.69872	4.7993	83.82	-0.2642	0.0411	0.3053	1724.9349	0.191471	-404.359621	-404.34848	-404.347536	-404.396385	39.284	
C	 0.152863606	 1.3662388026	 0.0081191634	-0.230353
O	 0.0538132316	-0.0378822007	 0.0012145951	-0.227995
C	-1.28009692	-0.4954429498	 0.0117515948	-0.080694
C	-1.2276033404	-2.0213863374	 0.0028486174	-0.203098
C	-2.6051006887	-2.7412004162	 0.0122018706	 0.066016
C	-3.4156319865	-2.4214891304	 1.2900616749	-0.406097
C	-3.4399274778	-2.4079771884	-1.2464000175	-0.406093
C	-2.3285383991	-4.189581802	 0.0017848541	 0.271471
N	-2.1133822109	-5.3253391929	-0.0061410521	-0.34244
H	 1.2158076288	 1.6183508456	-0.0009048837	 0.131429
H	-0.3266469788	 1.8149103937	-0.8764905004	 0.104584
H	-0.3091361597	 1.8049034592	 0.9069514337	 0.104585
H	-1.8037048068	-0.1182280082	 0.9057929277	 0.089526
H	-1.8210654218	-0.1084653812	-0.8676614975	 0.089524
H	-0.6660495078	-2.3377991414	-0.8821912293	 0.125018
H	-0.6490921533	-2.3474622896	 0.8733390522	 0.125021
H	-3.7005295894	-1.3662588477	 1.3042178522	 0.124726
H	-4.3299858074	-3.0194914506	 1.3254176775	 0.135099
H	-2.8325542352	-2.6358773826	 2.1897379798	 0.134978
H	-2.8742065473	-2.6126774278	-2.1593166356	 0.134975
H	-4.3548422997	-3.0056783215	-1.2706115164	 0.135099
H	-3.724948106	-1.3526919429	-1.2438116107	 0.124719
52.6005	73.9931	107.1372	129.0083	186.9646	194.3408	235.8446	255.8763	263.7448	289.2143	353.2627	356.5613	401.3385	462.5872	583.5229	601.2285	730.0368	799.0951	879.2001	945.0496	966.3657	999.9275	1014.1286	1059.5399	1065.3436	1162.8237	1175.5789	1204.5379	1207.2295	1228.4162	1242.9047	1269.5159	1327.7339	1341.584	1400.5713	1423.0912	1431.4299	1482.0684	1483.4017	1486.2827	1487.0143	1491.0299	1501.907	1505.8674	1512.6081	1535.0225	2352.3705	2957.3791	2972.115	2986.3154	3013.0559	3045.9977	3048.5182	3052.1009	3095.2057	3117.5667	3122.1677	3124.3654	3125.7063	3126.6218
COCCC(C)(C)C#N	COCCC(C)(C)C#N	
InChI=1S/C7H13NO/c1-7(2,6-8)4-5-9-3/h4-5H2,1-3H3	InChI=1S/C7H13NO/c1-7(2,6-8)4-5-9-3/h4-5H2,1-3H3
