16
gdb 16949	3.87833	2.06625	1.88801	1.7612	64.6	-0.2378	0.0083	0.246	778.9727	0.131972	-383.734293	-383.727838	-383.726894	-383.764689	25.355	
C	-0.022579608	 1.4902147788	 0.0528848409	-0.511551
C	-0.0835821784	 0.0049378864	-0.0297634811	 0.36274
C	-0.0845437317	-0.8285811903	-1.0746921518	-0.210913
C	 0.0205273961	-2.2226642679	-0.4756712303	-0.024256
C	 1.4624397033	-2.3318139208	 0.1188818296	-0.07731
O	 1.3980979039	-1.3994117508	 1.2048942717	-0.276278
C	 0.0231300592	-0.9383342731	 1.1744557302	 0.069179
O	-0.7001872672	-2.0717648433	 0.7652380647	-0.229211
H	 0.9002726701	 1.8113816313	 0.5520029629	 0.141623
H	-0.0503511913	 1.9503324538	-0.9383603294	 0.129079
H	-0.8560823815	 1.8937599746	 0.641254203	 0.131308
H	-0.0199013565	-0.5912359495	-2.1280210513	 0.103314
H	-0.3397925254	-3.0757642005	-1.0463977172	 0.09164
H	 1.6569349586	-3.3368290998	 0.5080537452	 0.109233
H	 2.2452680016	-2.0470684156	-0.5910022574	 0.102576
H	-0.2643177328	-0.5917001333	 2.1657452105	 0.088828
160.7894	173.2042	266.9949	331.7107	438.9512	555.4457	593.4367	641.4197	776.1583	799.6226	821.9409	860.5363	865.3285	917.1918	926.6774	971.7723	975.8853	1014.5225	1048.56	1063.3034	1112.658	1188.8555	1202.9177	1242.0922	1251.0183	1279.1649	1324.3895	1335.0024	1354.0338	1411.6533	1478.6968	1486.4894	1514.2165	1697.4597	3020.1939	3037.7636	3068.5029	3088.4632	3112.9038	3144.3525	3151.1458	3223.6509
CC1=CC2COC1O2	CC1=C[C@H]2CO[C@@H]1O2	
InChI=1S/C6H8O2/c1-4-2-5-3-7-6(4)8-5/h2,5-6H,3H2,1H3	InChI=1S/C6H8O2/c1-4-2-5-3-7-6(4)8-5/h2,5-6H,3H2,1H3/t5-,6+/m0/s1
