15
gdb 28075	5.67373	0.97205	0.83049	2.0619	71.84	-0.1884	0.0182	0.2067	1308.2366	0.114874	-450.165133	-450.157064	-450.15612	-450.197797	30.267	
N	-0.0816691082	 1.3704180577	 0.1433682718	-0.589391
C	-0.0607786026	 0.0020398582	 0.0503076239	 0.47318
N	-1.0796084758	-0.804780388	 0.0343109383	-0.415229
C	-0.4871838571	-2.0647839757	 0.0129199389	 0.338293
N	-1.319744001	-3.1717061642	-0.0044659862	-0.385571
C	-0.9168928372	-4.4781426651	-0.0314887493	 0.073799
N	 0.3141970099	-4.8162831216	-0.0490364033	-0.459205
C	 0.8621697175	-1.9573631994	 0.00923968	-0.124705
O	 1.1432205502	-0.588955696	 0.0349414057	-0.188972
H	 0.7211289958	 1.8312185601	-0.2590455908	 0.265355
H	-0.9630071452	 1.7738267621	-0.1364910749	 0.269496
H	-2.3037377555	-2.9617486343	 0.0116271377	 0.261502
H	-1.7699944341	-5.1659184361	-0.0362679041	 0.091892
H	 0.3990726305	-5.8294892561	-0.0680716287	 0.221802
H	 1.685395803	-2.6408582516	-0.0114486489	 0.167755
75.7083	168.3312	194.9665	265.9391	287.4142	318.9084	384.9026	465.9821	476.8043	568.7661	599.7502	650.2089	695.2229	751.3609	774.7451	800.9486	832.5729	976.1034	1014.2805	1033.6563	1088.3162	1115.8853	1151.5947	1204.1559	1258.307	1302.0089	1410.104	1450.4223	1556.2086	1608.3851	1663.98	1689.9982	1719.4783	3056.0533	3363.5952	3518.4761	3578.8828	3663.219	3688.0333
NC1=NC(NC=N)=CO1	Nc1nc(NC=N)co1	
InChI=1S/C4H6N4O/c5-2-7-3-1-9-4(6)8-3/h1-2H,(H2,5,7)(H2,6,8)	InChI=1S/C4H6N4O/c5-2-7-3-1-9-4(6)8-3/h1-2H,(H2,5,7)(H2,6,8)
