20
gdb 69366	4.2344	0.98945	0.93289	1.4443	80.37	-0.2374	0.0881	0.3255	1339.7085	0.169764	-403.080779	-403.072206	-403.071261	-403.114192	32.803	
C	-0.1194358114	 1.5699397914	-0.1597518475	-0.50167
C	-0.1657895402	 0.0963990537	 0.0747985132	 0.429581
C	-1.3820824968	-0.8470190494	 0.0326384967	-0.318554
C	-0.6351414206	-1.7883918105	 1.0410214663	 0.041611
C	 0.5361236236	-0.7890039591	 1.0198979744	-0.063095
O	 0.963116788	-0.6950674593	-0.344201163	-0.292778
N	-1.2936387655	-1.8440771605	 2.3318329044	-0.074849
C	-2.2054791581	-2.9659327475	 2.5399543397	-0.219883
C	-0.8800434718	-2.9312557868	 3.2162381387	-0.226948
H	 0.8679822573	 1.9653719435	 0.0931224523	 0.133135
H	-0.3208148856	 1.8032327883	-1.211650001	 0.128758
H	-0.8715279635	 2.0821281453	 0.4486577173	 0.127165
H	-2.274226075	-0.421197215	 0.4971688982	 0.11469
H	-1.6227818782	-1.2574484246	-0.9509449826	 0.100744
H	-0.3729012935	-2.7835630606	 0.6464496577	 0.061646
H	 1.2640475517	-0.582333013	 1.7971363594	 0.098192
H	-3.1132500925	-2.7409518912	 3.0920774857	 0.117135
H	-2.329739168	-3.6786151594	 1.7263455881	 0.113333
H	-0.1195457212	-3.6215735892	 2.8547024536	 0.113972
H	-0.8040736187	-2.679770876	 4.2700904886	 0.117815
77.5276	92.4233	179.5624	207.689	283.937	303.6598	354.3526	395.5141	475.0288	486.4192	636.6683	739.6925	766.3652	821.88	868.7587	892.8915	898.4161	925.4774	966.1868	988.0805	1012.6515	1029.2854	1055.4059	1077.3533	1095.7217	1113.3763	1118.948	1159.4488	1173.9897	1196.4703	1216.3976	1221.4394	1254.7706	1283.0959	1320.9324	1362.4253	1403.3848	1449.0579	1472.8537	1484.8834	1489.269	1497.0342	1515.8229	2963.0939	3033.39	3065.9511	3094.781	3096.2591	3099.69	3120.9763	3129.5033	3177.648	3178.7531	3193.055
CC12CC(C1O2)N1CC1	C[C@]12C[C@@H]([C@H]1O2)N1CC1	
InChI=1S/C7H11NO/c1-7-4-5(6(7)9-7)8-2-3-8/h5-6H,2-4H2,1H3	InChI=1S/C7H11NO/c1-7-4-5(6(7)9-7)8-2-3-8/h5-6H,2-4H2,1H3/t5-,6+,7-/m0/s1
