15
gdb 125839	3.17819	1.26363	0.90929	6.3985	71.64	-0.2416	-0.032	0.2095	1215.7917	0.112469	-450.088165	-450.079729	-450.078785	-450.121977	29.895	
C	-0.1042911402	 1.4910006368	 0.1004469211	-0.521146
C	-0.1025263596	 0.0011605729	 0.0303756512	 0.274946
N	-0.1487228429	-0.6613041443	-1.0899683431	-0.132079
O	-0.1301706936	-1.9815363851	-0.7562498462	-0.160048
N	-0.0707247443	-2.1649739379	 0.61031282	-0.147688
C	-0.0532697415	-0.9527846127	 1.1034250067	 0.367723
N	 0.0030989676	-0.6075330382	 2.4386221103	-0.389202
C	 0.0526441351	-1.4391731947	 3.5461637064	 0.069396
N	 0.0526268986	-2.7034086378	 3.4703320872	-0.399874
H	 0.8020727782	 1.8681523681	 0.5882207811	 0.141383
H	-0.1491678265	 1.9096018387	-0.9060945299	 0.167443
H	-0.9675527394	 1.8624421413	 0.6647756359	 0.141375
H	 0.0081227391	 0.3805931009	 2.6270275948	 0.260137
H	 0.0905464459	-0.8443377394	 4.4670348602	 0.095683
H	 0.0935567534	-3.1123761987	 4.4014235244	 0.231951
47.864	138.9836	153.8851	175.8096	231.3254	262.3634	373.6548	425.7956	443.0295	593.5521	620.4243	677.87	740.3895	810.4232	845.4223	903.9141	948.6376	1010.6811	1049.0833	1066.9621	1068.5334	1089.4267	1229.0255	1258.3433	1393.6671	1418.4979	1421.2175	1482.2073	1486.7582	1534.9848	1598.9976	1648.7744	1742.5116	3030.6878	3042.6387	3082.7733	3143.6131	3513.9121	3661.5442
CC1=NON=C1NC=N	Cc1nonc1NC=N	
InChI=1S/C4H6N4O/c1-3-4(6-2-5)8-9-7-3/h2H,1H3,(H2,5,6,8)	InChI=1S/C4H6N4O/c1-3-4(6-2-5)8-9-7-3/h2H,1H3,(H2,5,6,8)
