18
gdb 17533	3.949	1.80757	1.59749	1.5003	71.94	-0.2238	0.0798	0.3036	881.2918	0.153045	-347.744089	-347.73669	-347.735746	-347.775398	29.03	
C	-0.0039163876	 1.5587307297	-0.0075274633	-0.416955
C	 0.0820449491	 0.0511139427	 0.0615833866	-0.030349
C	 1.3548737821	-0.7213587186	-0.108376023	 0.072648
O	 2.4843660701	-0.0073366642	 0.4165603196	-0.314017
C	 1.912845329	-0.0890197066	 1.7350910582	 0.474821
C	 2.7503939988	-0.4712816028	 2.9082829034	-0.346131
C	 2.1797066687	 0.9378533582	 2.7828619242	-0.333236
C	 0.6499731656	-0.7418335171	 1.2331177684	-0.242656
H	 0.9365197131	 2.0153296378	 0.3070263667	 0.140249
H	-0.2078413208	 1.8845049822	-1.0332023064	 0.114542
H	-0.8059493921	 1.9418451079	 0.6320855615	 0.113093
H	-0.7641774227	-0.4752645421	-0.3785672513	 0.087121
H	 1.5524976024	-1.4889017633	-0.8476051744	 0.101589
H	 2.3261643777	-1.1400864778	 3.6504992337	 0.114279
H	 3.8135347124	-0.5963586859	 2.7346356726	 0.125659
H	 2.8754527824	 1.7307584964	 2.5298337304	 0.124955
H	 1.3706662348	 1.235949035	 3.4413082355	 0.117301
H	 0.1141268269	-1.5359248114	 1.7361850075	 0.097087
123.3706	165.1134	199.5454	282.4703	291.2864	365.5666	519.9055	560.5169	634.5228	725.387	752.9263	809.7708	842.7325	871.9858	876.7214	908.8517	963.5938	975.4148	998.4699	1039.0975	1047.8338	1054.6887	1056.6902	1066.6166	1094.3213	1132.2448	1186.2109	1194.5105	1200.5608	1271.0794	1323.3636	1398.7882	1409.1763	1434.322	1447.715	1493.0796	1499.5779	1504.1828	3036.7966	3093.3579	3118.0676	3127.7343	3130.8863	3136.8066	3177.8098	3198.4162	3211.3973	3225.4877
CC1C2OC3(CC3)C12	C[C@H]1[C@H]2OC3(CC3)[C@@H]12	
InChI=1S/C7H10O/c1-4-5-6(4)8-7(5)2-3-7/h4-6H,2-3H2,1H3	InChI=1S/C7H10O/c1-4-5-6(4)8-7(5)2-3-7/h4-6H,2-3H2,1H3/t4-,5+,6-/m1/s1
