17
gdb 73875	2.17662	1.64317	0.95271	4.4731	78.77	-0.2382	-0.0749	0.1633	1191.8723	0.134601	-421.890722	-421.881844	-421.8809	-421.92487	31.523	
C	 0.3071232103	 1.3928766628	-0.1726450881	-0.504825
C	 0.1300918924	-0.0857917831	-0.1381111685	 0.212643
C	-0.0687566238	-0.9227503613	-1.1851532038	 0.023658
C	-0.1629675179	-0.6034504422	-2.6221550851	 0.075184
O	-0.0735500402	 0.5046786499	-3.1084487564	-0.276868
C	-0.195819497	-2.3262021028	-0.7130284307	 0.333289
O	-0.3782862921	-3.3027188851	-1.4029094404	-0.328213
C	-0.0529076736	-2.3119728699	 0.8152184457	-0.340746
C	 0.1609408732	-0.8332803932	 1.1778885574	-0.30689
H	 1.2692721771	 1.6637181514	 0.2811425581	 0.14163
H	 0.2598789766	 1.7794956622	-1.1889547043	 0.180561
H	-0.4638860996	 1.8750806024	 0.4421788551	 0.141616
H	-0.3300087025	-1.4961816865	-3.2565384342	 0.109114
H	-0.9516839119	-2.7411925306	 1.2668543326	 0.140206
H	 0.7838123312	-2.9530176991	 1.1066644713	 0.140197
H	 1.1148342605	-0.6514856277	 1.6884886851	 0.129726
H	-0.6135221527	-0.4408065973	 1.8485938663	 0.129718
74.3067	101.5425	119.4077	157.4194	208.7778	253.1794	305.5966	401.5167	475.0326	520.4895	589.0968	607.8347	644.6073	760.1946	820.4937	933.9088	949.438	990.379	1017.309	1056.8272	1058.8023	1101.8248	1160.6895	1191.9319	1233.2646	1270.6392	1299.6699	1340.0116	1399.375	1431.8303	1449.8912	1460.8462	1472.5096	1492.8282	1659.7902	1783.3518	1811.9899	2947.1261	3021.7871	3031.4202	3055.6343	3068.2734	3069.7633	3110.3781	3172.1353
CC1=C(C=O)C(=O)CC1	CC1=C(C=O)C(=O)CC1	
InChI=1S/C7H8O2/c1-5-2-3-7(9)6(5)4-8/h4H,2-3H2,1H3	InChI=1S/C7H8O2/c1-5-2-3-7(9)6(5)4-8/h4H,2-3H2,1H3
