21
gdb 63143	2.30718	1.98175	1.55306	2.4325	76.14	-0.2475	0.0783	0.3257	979.1033	0.184136	-424.23715	-424.229111	-424.228167	-424.26911	32.379	
C	-0.0565968303	 1.5268984792	 0.0200197047	-0.462848
C	 0.0048182435	-0.0052135751	-0.0007031879	 0.277961
C	-1.4163408185	-0.565767466	-0.1335494324	-0.462843
C	 1.0500739914	-0.6115478642	-0.9933067989	-0.116926
C	 2.3571350669	-0.0425837662	-0.4108540914	-0.093255
O	 2.1148468589	-0.0626908034	 1.0141931536	-0.273643
C	 0.8180823089	-0.6189545133	 1.1617412929	 0.202266
O	 0.8512849416	-2.0072799437	 0.8714890091	-0.273642
C	 1.0271534556	-2.0893901416	-0.5610601747	-0.093257
H	 0.9045335885	 1.9865369581	 0.2510905331	 0.135621
H	-0.4038661423	 1.913069531	-0.9447586883	 0.112749
H	-0.7710032435	 1.8632479556	 0.7790547065	 0.11595
H	-1.8453261253	-0.3052118414	-1.1075123972	 0.112748
H	-1.4575413215	-1.6487578955	-0.0157861563	 0.135621
H	-2.0650466844	-0.1284197934	 0.6329686254	 0.115951
H	 0.8947442556	-0.432503117	-2.0577384983	 0.073689
H	 3.2269264837	-0.6677767123	-0.6436430693	 0.103432
H	 2.5703910803	 0.9818594647	-0.7359885137	 0.099813
H	 0.4874185014	-0.4795731364	 2.19025008	 0.087369
H	 0.2034233285	-2.660843485	-1.0033096372	 0.099813
H	 1.9671307513	-2.6065679038	-0.7859248998	 0.103431
138.4815	187.2305	209.6857	242.9134	290.8148	335.8753	398.8842	440.6075	512.7047	525.0404	630.4996	643.4416	758.0693	853.9095	908.7092	912.7661	919.9115	943.6779	961.1457	964.3375	969.9151	972.8939	1008.5194	1040.7014	1082.3888	1114.583	1165.2451	1192.2948	1216.3241	1217.6728	1233.2768	1255.1817	1294.7489	1316.6176	1327.5773	1370.5414	1392.5901	1404.4317	1426.7301	1482.04	1493.0386	1501.041	1515.1983	1527.7804	1546.2673	3025.0992	3027.5217	3034.6142	3040.2522	3060.0569	3065.7447	3088.9792	3094.4622	3115.437	3139.6625	3143.8625	3144.3781
CC1(C)C2COC1OC2	CC1(C)[C@H]2CO[C@@H]1OC2	
InChI=1S/C7H12O2/c1-7(2)5-3-8-6(7)9-4-5/h5-6H,3-4H2,1-2H3	InChI=1S/C7H12O2/c1-7(2)5-3-8-6(7)9-4-5/h5-6H,3-4H2,1-2H3/t5-,6+
