14
gdb 123937	3.57401	1.67427	1.17978	6.1826	65.05	-0.209	-0.023	0.186	960.0622	0.102549	-469.969425	-469.962445	-469.961501	-470.000839	26.506	
C	-0.0070736806	 1.4573757103	-0.0133955044	-0.180764
C	 1.4606932804	 1.9295167916	 0.0337777146	-0.098368
O	 2.1261280773	 1.4985343167	 1.2269720272	-0.263572
C	 1.932876079	 0.1632867077	 1.3787406521	 0.262047
C	 0.906493296	-0.5572139527	 0.8178150951	 0.40471
N	-0.1215913361	-0.0017324507	 0.1143540616	-0.416203
O	 1.0365401327	-1.8277093294	 1.1200956473	-0.253453
N	 2.2918614256	-1.878224652	 1.9814787685	-0.057841
N	 2.7169435181	-0.6996893451	 2.0567172827	-0.176884
H	-0.5623693532	 1.935645201	 0.8016207398	 0.139656
H	-0.457595509	 1.7738810633	-0.9573898621	 0.127964
H	 2.0021085952	 1.5466108038	-0.8418753887	 0.117501
H	 1.505208968	 3.0198369151	 0.0363088523	 0.131576
H	-0.5086964632	-0.5289309996	-0.6528367958	 0.26363
101.3025	224.1126	247.4892	333.9148	396.39	401.2898	489.4583	500.3691	549.5877	652.3198	713.4446	732.7899	750.4466	877.2379	946.2843	969.102	1041.3635	1076.1649	1123.189	1244.2827	1269.9522	1292.2342	1329.9207	1376.9823	1391.4164	1423.8742	1444.6601	1485.9476	1492.7902	1552.6471	1665.742	3018.368	3043.8683	3108.191	3125.7009	3621.0882
C1COC2=C(N1)ON=N2	C1COc2c(N1)onn2	
InChI=1S/C4H5N3O2/c1-2-8-4-3(5-1)9-7-6-4/h5H,1-2H2	InChI=1S/C4H5N3O2/c1-2-8-4-3(5-1)9-7-6-4/h5H,1-2H2
