17
gdb 90376	2.33163	1.63397	1.34336	4.3658	68.2	-0.2569	-0.0104	0.2465	1033.0945	0.134347	-458.971703	-458.963375	-458.962431	-459.004492	31.087	
C	 0.421803221	 1.482569446	-0.0389828743	-0.412463
C	 0.1167695213	 0.0076022728	 0.0837479078	 0.100654
O	 0.8993453374	-0.8306128986	-0.8231729602	-0.312386
C	 1.3351109493	-1.682540824	 0.2529064575	-0.128195
C	 2.6271165695	-1.1379408292	 0.8842611042	 0.45003
O	 3.8020222283	-1.252695047	 0.7700055484	-0.317361
O	 1.9408332835	-0.3089644761	 1.7547030723	-0.287928
C	 0.6306278946	-0.7968434101	 1.301007069	 0.370583
C	-0.2610646892	-1.1962429477	 2.4393963696	-0.487329
H	 1.4652644422	 1.6911379359	 0.2051300776	 0.146295
H	 0.2254387704	 1.8155228191	-1.0623793348	 0.136029
H	-0.220155724	 2.0595875981	 0.6351157845	 0.123766
H	-0.9506235306	-0.1899784115	-0.0850977007	 0.087245
H	 1.2131520783	-2.7497613999	 0.0662717527	 0.112804
H	-0.5242151315	-0.3210728734	 3.0428674973	 0.143574
H	-1.1856395849	-1.6434064812	 2.0634423978	 0.134297
H	 0.2388245144	-1.9182152833	 3.0908471912	 0.140386
98.1482	179.5772	190.4688	203.6909	232.6234	284.7863	309.7361	414.5884	459.9202	564.7042	616.8635	668.4164	761.775	812.2513	839.1242	870.6779	889.044	978.3819	1000.0056	1014.6434	1068.9267	1095.6384	1137.8023	1154.265	1191.7738	1226.2215	1267.6762	1274.1958	1349.5873	1388.0452	1409.1039	1420.6849	1482.2346	1484.9911	1489.9387	1492.5038	1943.0288	3013.247	3042.2067	3044.9155	3111.1783	3112.5325	3117.3348	3124.5009	3139.4284
CC1OC2C(=O)OC12C	C[C@H]1O[C@H]2C(=O)O[C@@]12C	
InChI=1S/C6H8O3/c1-3-6(2)4(8-3)5(7)9-6/h3-4H,1-2H3	InChI=1S/C6H8O3/c1-3-6(2)4(8-3)5(7)9-6/h3-4H,1-2H3/t3-,4+,6+/m1/s1
