21
gdb 87191	3.39174	0.98456	0.86898	3.9411	79.82	-0.2338	0.0248	0.2585	1408.5008	0.181036	-420.428211	-420.417683	-420.416739	-420.463965	38.23	
C	 0.0891802641	 1.5142222251	-0.1601551591	-0.40547
C	 0.240975337	 0.0145370041	-0.0646911685	-0.03585
N	 1.6016446058	-0.5204104672	 0.0914430279	-0.365642
C	 0.6259624969	-0.7330617732	 1.1720844916	 0.335797
C	 0.9332909206	-0.0349466891	 2.4823730192	-0.455077
C	 0.059175785	-2.1489504846	 1.3334417745	-0.391242
C	 1.1790096601	-3.1678418703	 1.531245348	 0.416947
N	 1.3334657833	-3.6552683792	 2.7948459264	-0.511365
O	 1.8996680166	-3.5058667024	 0.6084929079	-0.365666
H	 0.7914219071	 2.0317130775	 0.4964822727	 0.125123
H	 0.2878244006	 1.8489524851	-1.1842075482	 0.12214
H	-0.9285460031	 1.8242278859	 0.1023204025	 0.110846
H	-0.4267129261	-0.5323649097	-0.7317617774	 0.075117
H	 1.742535741	-1.3883570263	-0.4214871664	 0.245578
H	 1.4265794072	 0.9227295844	 2.3122760073	 0.133121
H	 0.019075399	 0.1401378005	 3.0620118432	 0.106996
H	 1.608674918	-0.6459502502	 3.0925284807	 0.114379
H	-0.6642567871	-2.1730627672	 2.1561008537	 0.094894
H	-0.4625902802	-2.4485503142	 0.4206742614	 0.126721
H	 0.7647794481	-3.3494454489	 3.5637970307	 0.2603
H	 2.0992819462	-4.2841499	 2.9754442718	 0.262352
55.1376	72.2368	143.6197	164.8879	172.4197	188.7513	228.1975	260.9825	320.9668	381.3688	434.3351	476.1822	488.8283	546.0715	602.4608	681.5045	765.6594	798.2354	876.2472	885.9553	927.6086	964.4187	976.9833	1030.001	1065.6356	1092.7279	1106.5446	1119.3666	1147.3157	1185.3348	1244.2818	1269.3217	1322.5995	1365.4273	1376.8968	1410.8112	1418.9689	1459.4686	1474.7232	1481.9504	1489.5732	1499.3857	1511.6335	1618.3465	1783.9194	3026.4381	3034.288	3041.3938	3083.0195	3088.3192	3092.4972	3100.0164	3128.5295	3142.0204	3496.4589	3602.6313	3742.8686
CC1NC1(C)CC(N)=O	C[C@H]1N[C@]1(C)CC(=O)N	
InChI=1S/C6H12N2O/c1-4-6(2,8-4)3-5(7)9/h4,8H,3H2,1-2H3,(H2,7,9)	InChI=1S/C6H12N2O/c1-4-6(2,8-4)3-5(7)9/h4,8H,3H2,1-2H3,(H2,7,9)/t4-,6-/m1/s1
