21
gdb 82174	2.74892	1.61047	1.26292	1.8125	81.17	-0.2508	0.0843	0.3351	1091.9684	0.182693	-387.080864	-387.072519	-387.071574	-387.11316	33.443	
C	 0.0706279388	 1.6052170609	 0.0640678415	-0.391957
C	 0.0220656335	 0.0753226661	-0.0220845407	-0.024151
C	 0.700914761	-0.532212091	-1.2615172905	-0.054924
C	 2.187007499	-0.3877385267	-1.473334809	-0.291597
C	 1.6420319294	-1.6364352089	-0.8218371897	-0.110476
C	 1.6230822567	-1.6548428116	 0.6987896311	 0.416449
C	 1.9743435394	-2.9169262755	 1.4362586767	-0.496466
O	 2.0900337954	-0.4219802289	 1.2865482205	-0.302016
C	 0.6725315133	-0.6304385614	 1.1645724502	-0.035037
H	 1.1037996964	 1.9535904199	 0.1438960888	 0.132073
H	-0.3760294055	 2.0619988841	-0.8245696654	 0.112453
H	-0.4768197314	 1.9697757935	 0.9398597977	 0.11015
H	-1.0300964894	-0.2418569682	-0.0359392274	 0.073584
H	 0.0863611618	-0.6538560274	-2.1473665477	 0.081387
H	 2.542963905	-0.4770005554	-2.4943513039	 0.10302
H	 2.7501707692	 0.2912681457	-0.8465838046	 0.13519
H	 1.6993879594	-2.5884815227	-1.3367008714	 0.078703
H	 3.0143890001	-3.2018434121	 1.2431821308	 0.129551
H	 1.8523284111	-2.7809210906	 2.5136347769	 0.128228
H	 1.3347239942	-3.7452030878	 1.1126351505	 0.121642
H	 0.1398447626	-0.6932423818	 2.1129977655	 0.084193
138.762	192.2051	197.8358	219.0963	238.1679	304.2583	365.1043	425.8027	507.7322	553.1497	594.2234	673.3821	727.7695	766.6504	794.5231	840.9816	874.0813	908.5037	933.6487	967.2324	1000.161	1026.3462	1033.9735	1052.3575	1084.4754	1097.2272	1105.1851	1112.2473	1138.9806	1145.5623	1203.3605	1221.1026	1283.9079	1323.8985	1340.7221	1348.7394	1385.0393	1407.8295	1411.0444	1450.059	1473.8373	1485.6092	1495.5104	1497.8476	1501.8207	3009.8488	3034.1773	3036.3389	3095.8824	3099.7563	3115.0424	3119.7654	3122.4878	3138.9243	3157.5444	3176.8813	3236.2077
CC1C2CC2C2(C)OC12	C[C@H]1[C@H]2C[C@H]2[C@@]2(C)O[C@@H]12	
InChI=1S/C8H12O/c1-4-5-3-6(5)8(2)7(4)9-8/h4-7H,3H2,1-2H3	InChI=1S/C8H12O/c1-4-5-3-6(5)8(2)7(4)9-8/h4-7H,3H2,1-2H3/t4-,5+,6+,7-,8+/m0/s1
