23
gdb 100711	2.14633	1.09162	0.85136	2.2301	82.04	-0.2434	-0.0135	0.2298	1475.3634	0.202159	-425.450723	-425.439264	-425.43832	-425.48767	40.952	
C	-0.0400871064	 1.5408209567	 0.1161482412	-0.41848
C	-0.0766898467	 0.0145376989	-0.02279122	 0.026569
C	-1.5343772981	-0.4746778127	-0.0864954872	-0.075111
O	-2.2856866357	-0.1391244439	 1.0698878827	-0.419152
C	 0.7136492218	-0.514753594	-1.2389834615	-0.087048
C	 2.1514163573	 0.0431473078	-1.3204340532	-0.410549
C	 0.834800966	-2.0445547779	-1.2013338007	 0.395487
C	 0.7796579841	-2.7657492967	-2.535514365	-0.482854
O	 0.9944964452	-2.6419850482	-0.1602344896	-0.319956
H	 0.9541070496	 1.9110854746	 0.378818449	 0.112347
H	-0.3480864528	 2.0307613433	-0.8162431501	 0.107014
H	-0.7368609824	 1.8501243023	 0.8990669044	 0.131673
H	 0.3789261656	-0.4401976318	 0.8670943666	 0.085936
H	-2.051496938	 0.0120381285	-0.9230142846	 0.102354
H	-1.5626338202	-1.5590736723	-0.2669443101	 0.092842
H	-1.9156336033	-0.6337578916	 1.8084990715	 0.284669
H	 0.1901015053	-0.2311310511	-2.1629071936	 0.071736
H	 2.7071896702	-0.4073159655	-2.1494250566	 0.116145
H	 2.1450264193	 1.1237376516	-1.4779122203	 0.12818
H	 2.6960559604	-0.1713758725	-0.3957336338	 0.135352
H	 1.4272104692	-2.2830769657	-3.2749575065	 0.136799
H	 1.0631260295	-3.8116640962	-2.411656409	 0.141518
H	-0.2425048999	-2.7122112736	-2.9301282837	 0.144528
50.9055	69.9395	98.7184	148.3228	164.9207	214.6626	221.1145	234.6367	276.133	310.3075	324.6698	340.7728	387.7825	425.6089	512.7517	605.0287	609.0217	780.4731	842.2581	907.9649	916.3037	951.2499	974.8351	992.1538	1036.8431	1071.1026	1105.7611	1121.7506	1144.4988	1161.6547	1178.6996	1238.7458	1293.1785	1323.7073	1360.9244	1375.9639	1383.5392	1396.0098	1406.5405	1411.5933	1421.8618	1461.9514	1475.0572	1489.5635	1497.7017	1499.5021	1504.3012	1512.1031	1804.3221	2996.5748	3006.9862	3021.8976	3029.0932	3034.3124	3039.7896	3056.0253	3095.3698	3099.0865	3105.2799	3123.2386	3128.4701	3151.1877	3812.7014
CC(CO)C(C)C(C)=O	C[C@@H](CO)[C@@H](C)C(=O)C	
InChI=1S/C7H14O2/c1-5(4-8)6(2)7(3)9/h5-6,8H,4H2,1-3H3	InChI=1S/C7H14O2/c1-5(4-8)6(2)7(3)9/h5-6,8H,4H2,1-3H3/t5-,6+/m0/s1
