14
gdb 7873	3.83321	1.83555	1.25071	0.466	69.3	-0.2633	-0.072	0.1913	916.511	0.108181	-378.790076	-378.782735	-378.78179	-378.821799	26.778	
C	 0.0025873402	 1.4893208647	-0.0177049925	-0.489829
C	-0.0526617025	 0.001980229	-0.0146476486	 0.199102
C	-1.0811137463	-0.8445057273	-0.1631966908	-0.243625
C	-0.6023981594	-2.2411958871	-0.0805240069	 0.397963
N	-1.3438096908	-3.2706162931	-0.1846592226	-0.523485
N	 0.7765479231	-2.1456518732	 0.1268338363	-0.407673
C	 1.1947152201	-0.8184930986	 0.179489877	 0.370423
O	 2.3266266341	-0.4299589066	 0.3469523345	-0.350237
H	 0.6742956232	 1.8473017621	-0.8056134588	 0.151759
H	-0.9859386708	 1.9276877044	-0.1698380696	 0.13151
H	 0.4135478726	 1.8605655647	 0.9274988541	 0.151758
H	-2.1254859742	-0.6160629676	-0.3222680645	 0.132234
H	-0.8055856055	-4.1350180821	-0.0969959879	 0.218359
H	 1.4080721563	-2.9232609394	 0.2271223004	 0.26174
100.2042	134.9136	186.9942	246.9643	367.9495	391.8984	443.7481	553.111	595.768	654.9021	683.0449	778.7838	783.6765	872.0077	910.021	945.4488	1009.0938	1064.0152	1089.5842	1154.4332	1200.514	1321.4649	1344.7895	1394.8734	1414.734	1470.6108	1478.7481	1693.5594	1744.0315	1833.9868	3038.5904	3091.481	3130.8364	3242.1745	3458.0976	3661.1221
CC1=CC(=N)NC1=O	C[C]1C=C([NH])NC1=O	
InChI=1S/C5H6N2O/c1-3-2-4(6)7-5(3)8/h2H,1H3,(H2,6,7,8)	InChI=1S/C5H6N2O/c1-3-2-4(6)7-5(3)8/h2H,1H3,(H2,6,7,8)
