18
gdb 11399	3.55263	1.65109	1.34022	0.789	69.99	-0.2516	0.0091	0.2607	983.5895	0.152994	-384.943459	-384.935252	-384.934308	-384.97633	29.928	
C	-0.3649228106	 1.246035	 0.2389413486	-0.239247
O	-0.1839574689	-0.158158728	 0.2243907552	-0.240389
C	 0.8285302923	-0.5988155545	 1.0942628136	 0.175888
O	 0.4890896901	-0.4264693602	 2.4603261574	-0.274373
C	 0.1849447988	-1.6918033227	 3.0640116805	 0.078766
C	-1.2944791006	-1.780373723	 3.4440341709	-0.389327
C	 0.6149278873	-2.7013896887	 2.0326915447	-0.085565
C	 0.9972824307	-2.0845872006	 0.9225329406	-0.118102
H	 0.5633939252	 1.773035649	-0.0309915689	 0.102531
H	-1.1322591282	 1.4785765059	-0.5028258994	 0.123984
H	-0.693130488	 1.5981261065	 1.2242495076	 0.124156
H	 1.739708443	-0.005573533	 0.9076469155	 0.066732
H	 0.7963585568	-1.769850851	 3.9751139532	 0.086602
H	-1.9179760427	-1.6929946835	 2.5501383606	 0.131334
H	-1.5116868448	-2.7347679634	 3.9356888755	 0.110507
H	-1.553646131	-0.9723667974	 4.1338798987	 0.124619
H	 0.5771069942	-3.7693934345	 2.2072155641	 0.109088
H	 1.3289392864	-2.5280528308	-0.0062101085	 0.112794
66.1002	117.6797	182.004	188.283	239.6745	300.4549	359.6796	440.6095	518.457	564.9741	722.2298	778.3271	819.5955	848.9706	894.8491	959.2894	985.2523	1001.616	1009.2715	1075.3019	1095.9697	1117.2913	1129.6865	1151.6607	1179.3985	1213.9945	1299.8122	1355.7034	1365.2597	1375.8586	1399.6529	1401.669	1476.1366	1484.2709	1485.9088	1496.5596	1513.5543	1692.5719	2960.0741	2986.8933	2995.4899	3037.7714	3059.3633	3110.7859	3121.6333	3126.6789	3210.4966	3239.9105
COC1OC(C)C=C1	CO[C@H]1O[C@@H](C)C=C1	
InChI=1S/C6H10O2/c1-5-3-4-6(7-2)8-5/h3-6H,1-2H3	InChI=1S/C6H10O2/c1-5-3-4-6(7-2)8-5/h3-6H,1-2H3/t5-,6-/m0/s1
