18
gdb 5961	3.39149	1.16037	1.0544	0.4286	69.99	-0.2625	0.0363	0.2988	1178.3666	0.149754	-384.897124	-384.887192	-384.886248	-384.931537	35.902	
C	 0.137952788	 1.5875083111	 0.0238197874	-0.398776
C	-0.0009977575	 0.0582389116	 0.0016882067	 0.138837
O	 0.6761739655	-0.4003508822	 1.1805419777	-0.446014
C	-1.4775254603	-0.4074712118	 0.0087397782	-0.182972
C	-2.2713948939	 0.0350348529	 1.2335849377	-0.096104
O	-3.5255989963	-0.6325258775	 1.175810673	-0.425161
C	 0.6578120126	-0.4892048841	-1.1956697511	 0.320522
C	 1.187900617	-0.970394387	-2.1615835916	-0.472353
H	 1.1917679983	 1.8631587435	-0.0502346786	 0.133703
H	-0.4048661075	 2.0360109271	-0.8116204769	 0.124293
H	-0.2566059208	 1.9838367175	 0.9623789112	 0.127426
H	 0.7692126995	-1.3568483935	 1.1087045759	 0.283852
H	-1.9737835897	-0.0569087477	-0.9023791065	 0.114032
H	-1.4965732945	-1.5029786722	-0.028535621	 0.106678
H	-1.7131056573	-0.2278851144	 2.1428312865	 0.10126
H	-2.4093341605	 1.126820036	 1.2313624123	 0.087251
H	-4.0357458009	-0.3735729528	 1.9486408747	 0.285155
H	 1.6633008782	-1.3862738566	-3.0155959958	 0.198371
79.2033	103.1601	123.9509	177.582	236.9375	242.3008	261.3375	305.6228	334.5668	363.6531	407.2482	451.0055	566.4792	585.1383	630.7237	664.3535	762.9727	797.6835	912.0746	956.3527	993.1477	1027.8793	1067.4657	1120.1416	1175.139	1184.9504	1232.7448	1252.1666	1307.6088	1340.3645	1373.909	1408.0903	1458.5614	1477.2387	1486.1757	1498.2878	1534.4935	2229.8889	2984.1445	3024.1318	3041.0633	3055.9552	3087.9808	3134.63	3139.5761	3500.1543	3806.055	3830.0733
CC(O)(CCO)C#C	C[C@@](O)(CCO)C#C	
InChI=1S/C6H10O2/c1-3-6(2,8)4-5-7/h1,7-8H,4-5H2,2H3	InChI=1S/C6H10O2/c1-3-6(2,8)4-5-7/h1,7-8H,4-5H2,2H3/t6-/m0/s1
