12
gdb 128460	4.88778	1.15457	0.93952	4.9361	58.19	-0.3217	-0.0899	0.2318	1144.0567	0.076646	-502.083693	-502.07593	-502.074985	-502.117282	25.626	
C	-0.0542144093	 1.364892259	 0.0771092058	-0.245121
O	 0.0299114865	-0.0712273083	-0.0457264493	-0.219352
C	 0.6463142047	-0.4970823316	-1.1313896658	 0.599333
O	 1.1384320413	 0.1312832535	-2.0158067418	-0.328949
N	 0.6571223238	-1.9420931802	-1.1237879818	-0.001672
N	 0.1321995067	-2.7302129578	-0.1781419872	-0.08337
N	 0.3672484291	-3.928859123	-0.5728905196	-0.068312
N	 1.0385380203	-3.884637602	-1.7643303321	-0.065677
N	 1.2164506606	-2.6594010557	-2.1025230588	-0.071875
H	 0.947760801	 1.7970268286	 0.1083515916	 0.161884
H	-0.6064451164	 1.7809079679	-0.7676651183	 0.161882
H	-0.5830012783	 1.5393480695	 1.0120566273	 0.161231
54.2902	100.8022	123.1238	172.9581	221.7279	311.1605	409.223	497.5489	701.0281	757.8051	775.8895	834.4182	893.7828	983.6906	1085.6431	1106.0649	1149.7614	1179.7527	1201.1593	1257.3572	1269.4629	1383.4166	1429.4581	1476.7281	1483.8207	1492.7293	1888.8532	3066.3109	3150.0617	3185.7327
COC(=O)N1N=NN=N1	COC(=O)n1nnnn1	
InChI=1S/C2H3N5O2/c1-9-2(8)7-5-3-4-6-7/h1H3	InChI=1S/C2H3N5O2/c1-9-2(8)7-5-3-4-6-7/h1H3
