13
gdb 129569	3.31858	1.21601	1.01821	2.5173	62.9	-0.2799	-0.047	0.2329	1119.7039	0.090702	-448.920136	-448.912347	-448.911402	-448.953631	27.201	
N	 0.0147488011	 1.5229417792	-0.0231315377	-0.492657
C	 0.0018420107	 0.0678796785	 0.0425163013	-0.225147
C	 0.590097175	-0.5978141348	-1.1478052814	 0.262464
N	 1.0406542614	-1.0570314592	-2.1079856255	-0.314405
C	 0.7089473556	-0.4242753214	 1.2797813557	 0.410494
N	 1.579984043	 0.3020098201	 1.9238267159	-0.166854
O	 1.9889718166	-0.5356204214	 2.9638685532	-0.145872
C	 1.3067644456	-1.6721829	 2.8147091269	 0.111659
N	 0.5001904163	-1.680505276	 1.8022129692	-0.297503
H	 0.9693715226	 1.8664592998	 0.02302464	 0.262825
H	-0.3803184007	 1.8314576909	-0.9053773505	 0.252129
H	-1.0374127494	-0.2743447167	 0.1144854682	 0.163447
H	 1.4859235722	-2.4539916091	 3.5378595547	 0.17942
37.0629	106.7912	190.3688	219.3134	269.8012	324.9697	424.9573	470.1775	596.2904	633.4699	703.7453	814.2407	850.4115	908.198	931.251	952.0092	987.4656	1016.2207	1121.4672	1143.366	1186.4223	1284.0363	1316.8905	1352.7867	1415.9144	1521.7964	1599.6398	1659.395	2349.4075	3051.6562	3273.1459	3508.3567	3592.6979
NC(C#N)C1=NOC=N1	N[C@@H](C#N)c1nocn1	
InChI=1S/C4H4N4O/c5-1-3(6)4-7-2-9-8-4/h2-3H,6H2	InChI=1S/C4H4N4O/c5-1-3(6)4-7-2-9-8-4/h2-3H,6H2/t3-/m0/s1
