17
gdb 95143	2.22954	1.91901	1.48845	3.5725	67.27	-0.2448	-0.0165	0.2282	947.0129	0.13669	-458.956636	-458.949043	-458.948098	-458.988644	29.504	
O	-0.0989025405	 1.4284891028	-0.1040093791	-0.424893
C	 0.0179143	 0.0170198796	 0.0180489847	 0.092101
C	 0.6929993094	-0.4321138251	 1.3324133285	-0.21701
C	-0.275889706	-0.413140118	 2.5367321152	-0.239984
C	-1.6649185861	-0.8621409511	 2.0395701317	-0.031201
O	-1.507581748	-1.7049362807	 0.852514505	-0.298383
C	-1.4308460333	-0.5221428089	 0.0076113454	-0.051221
C	-2.2417957618	 0.2056765662	 1.0966851308	 0.446606
O	-3.0593647374	 1.0678015335	 1.1574674007	-0.301339
H	 0.7828907235	 1.7971408783	-0.2153557617	 0.289158
H	 0.5755822966	-0.3961696321	-0.8348620568	 0.076941
H	 1.0514188234	-1.454643228	 1.1893712074	 0.120606
H	 1.5721613259	 0.1922765494	 1.524085849	 0.091708
H	 0.0889404653	-1.0792367717	 3.3241517184	 0.111778
H	-0.3578477585	 0.5883786786	 2.9728216954	 0.126183
H	-2.304321159	-1.3167869981	 2.7990789099	 0.103302
H	-1.8545180834	-0.6704460747	-0.9868473244	 0.105649
106.1681	138.9043	211.6848	292.7828	366.0264	385.2386	439.663	477.0575	527.2524	569.9513	718.9807	748.3649	798.6598	844.2837	877.9618	907.5825	941.1038	971.1617	1004.0872	1050.4674	1077.6832	1085.9721	1099.1021	1120.8251	1178.9779	1199.9138	1254.7586	1287.5602	1293.5881	1305.0316	1337.2623	1365.8587	1385.7328	1418.2376	1473.1677	1493.4432	1928.5803	2992.27	3045.3219	3055.0642	3083.5845	3100.3819	3105.3166	3111.1894	3823.6907
OC1CCC2OC1C2=O	O[C@H]1CC[C@@H]2O[C@H]1C2=O	
InChI=1S/C6H8O3/c7-3-1-2-4-5(8)6(3)9-4/h3-4,6-7H,1-2H2	InChI=1S/C6H8O3/c7-3-1-2-4-5(8)6(3)9-4/h3-4,6-7H,1-2H2/t3-,4-,6+/m0/s1
