19
gdb 70349	2.79168	1.80625	1.49179	3.1449	73.48	-0.2425	0.0779	0.3204	959.0005	0.160402	-423.002061	-422.994771	-422.993827	-423.033286	29.835	
C	-0.0551284744	 1.4984050047	-0.0133051692	-0.487745
C	 0.037887414	-0.0043557206	 0.0035714839	 0.416994
O	-0.7340995344	-0.6883423655	 0.9883987478	-0.283049
C	 0.6967587403	-0.7671215879	 1.079392796	-0.023348
C	 1.3467490409	-2.0963835531	 0.7042513714	-0.246867
C	 1.2303443452	-2.3167475921	-0.8084675337	 0.092275
C	 1.6129948076	-1.0579810476	-1.6244842165	-0.255467
C	 0.1298537455	-0.7147104777	-1.3554757587	 0.006008
O	-0.1598897541	-2.1205470131	-1.1941735798	-0.276714
H	 0.7625060439	 1.9362956036	-0.5968557102	 0.122283
H	-0.9989076347	 1.8185137582	-0.4690407832	 0.130177
H	-0.0120910478	 1.9008997765	 1.0017737575	 0.130821
H	 1.1103154806	-0.2403942302	 1.9391449966	 0.087476
H	 2.4022578294	-2.0848221718	 1.0029121306	 0.100142
H	 0.8603377795	-2.9184649332	 1.2408788975	 0.123062
H	 1.6164114901	-3.287982879	-1.1289130327	 0.078166
H	 2.3840830644	-0.3897425951	-1.2325504934	 0.098456
H	 1.8039026117	-1.2948619427	-2.6719324861	 0.112394
H	-0.4810257777	-0.2472190134	-2.1329563977	 0.074936
179.9581	194.8972	239.1104	317.0658	353.1266	403.6115	431.2801	505.9689	548.3674	638.4163	702.1418	798.0553	836.8798	867.5417	885.0675	913.6727	929.7531	948.8147	978.9192	1002.064	1042.8204	1046.8942	1058.9837	1100.0129	1127.4939	1134.621	1197.413	1227.294	1230.7252	1251.9684	1300.2653	1328.1089	1336.1319	1347.8795	1377.5989	1411.5313	1457.9209	1464.759	1485.1588	1489.0737	1500.629	3031.3917	3033.045	3063.8963	3071.4296	3077.7894	3079.9599	3092.7011	3109.4978	3121.4971	3135.1486
CC12OC1CC1CC2O1	C[C@]12O[C@H]1C[C@@H]1C[C@H]2O1	
InChI=1S/C7H10O2/c1-7-5-2-4(8-5)3-6(7)9-7/h4-6H,2-3H2,1H3	InChI=1S/C7H10O2/c1-7-5-2-4(8-5)3-6(7)9-7/h4-6H,2-3H2,1H3/t4-,5+,6-,7+/m0/s1
