15
gdb 6678	7.39	0.76195	0.71987	4.7049	59.68	-0.2631	0.0081	0.2712	1469.6899	0.116784	-436.992034	-436.982784	-436.98184	-437.028458	30.164	
N	-0.1688873012	 1.2616915167	 0.1172379837	-0.522449
C	 0.0354152536	-0.0848079541	 0.1035218096	 0.415319
O	 1.1388183397	-0.5840347194	 0.2216913148	-0.357853
C	-1.2279622635	-0.9272410791	-0.0597935155	-0.320482
C	-0.8758671408	-2.3565157135	-0.4558373156	-0.079853
O	-2.0769862056	-3.1295220381	-0.5675068885	-0.180422
C	-2.2353740759	-4.1810948713	 0.2577313048	 0.167375
O	-3.2089126697	-4.8718477426	 0.2450492291	-0.274313
H	 0.6228045457	 1.8641781399	 0.2723080208	 0.265979
H	-1.0830304446	 1.6711133526	 0.0396855588	 0.263041
H	-1.7721530891	-0.9333630417	 0.8930603158	 0.138942
H	-1.9009985569	-0.4834241534	-0.8011205584	 0.129696
H	-0.3787666765	-2.3804655282	-1.4288458789	 0.13702
H	-0.1932546473	-2.7958614169	 0.2778793933	 0.137521
H	-1.3704770082	-4.3269135308	 0.9347776362	 0.080477
24.9795	40.1794	69.6521	137.7793	151.5931	202.782	320.1466	353.7521	457.3841	514.0462	588.6183	650.0328	691.6909	802.9929	866.0031	1039.51	1047.7551	1059.1723	1073.2416	1106.8582	1158.8396	1258.6145	1263.4402	1322.414	1380.8169	1410.7155	1436.1639	1470.2603	1503.802	1619.3847	1792.8274	1867.0082	2943.9449	3037.171	3060.9309	3079.1847	3114.8027	3603.5943	3740.368
NC(=O)CCOC=O	NC(=O)CCOC=O	
InChI=1S/C4H7NO3/c5-4(7)1-2-8-3-6/h3H,1-2H2,(H2,5,7)	InChI=1S/C4H7NO3/c5-4(7)1-2-8-3-6/h3H,1-2H2,(H2,5,7)
