19
gdb 26214	4.17297	0.95637	0.88642	5.1141	78.97	-0.2236	0.0239	0.2475	1383.1566	0.15967	-419.248165	-419.238819	-419.237875	-419.283219	33.714	
C	 0.0394211148	 1.4777134866	-0.2366659493	-0.385942
C	 0.0286453182	-0.00887516	 0.1501712201	 0.032613
O	 0.5332167072	-0.1877415296	 1.466344808	-0.439536
C	-1.350723808	-0.6012117141	 0.0457347014	 0.290121
C	-1.9521567076	-1.3187778312	-0.9543446375	-0.237744
N	-3.2318423153	-1.5898499867	-0.5111239047	 0.015279
C	-4.2535731275	-2.3353875257	-1.2178455273	-0.337835
C	-3.3373058561	-1.0336747292	 0.7266842755	 0.001753
N	-2.2299461073	-0.4295767285	 1.0931877321	-0.347278
H	 1.0429830744	 1.8888088064	-0.0953174993	 0.116258
H	-0.2563835743	 1.6159993006	-1.2822410429	 0.102253
H	-0.6594596005	 2.034970439	 0.3950926831	 0.121653
H	 0.7051289374	-0.5540103004	-0.5200654358	 0.078349
H	-0.2324996703	-0.1063535607	 2.0507328354	 0.290376
H	-1.6033245537	-1.6612193284	-1.9148899015	 0.128264
H	-3.9162248507	-3.3543666653	-1.4306122758	 0.147877
H	-5.1485290879	-2.388130979	-0.595123016	 0.147418
H	-4.5130664001	-1.8452256332	-2.1611743759	 0.146813
H	-4.2451975528	-1.1082856005	 1.3077458604	 0.129307
32.6489	85.8158	117.8565	180.9041	214.8662	256.6022	310.7314	370.498	395.8636	442.6235	498.5601	635.7927	668.3827	715.1379	730.4568	756.2226	819.9108	901.3313	985.9712	1026.8514	1058.3149	1081.2334	1093.2808	1111.373	1151.4673	1176.6639	1249.462	1275.8015	1330.9068	1353.398	1392.3766	1394.7122	1413.0809	1444.1197	1456.3236	1482.2942	1487.5557	1493.9125	1518.289	1544.0606	1599.7482	3028.3334	3032.1703	3041.1423	3102.802	3106.5508	3118.6017	3138.1932	3242.4926	3266.0089	3755.3822
CC(O)C1=CN(C)C=N1	C[C@@H](O)c1cn(C)cn1	
InChI=1S/C6H10N2O/c1-5(9)6-3-8(2)4-7-6/h3-5,9H,1-2H3	InChI=1S/C6H10N2O/c1-5(9)6-3-8(2)4-7-6/h3-5,9H,1-2H3/t5-/m1/s1
