15
gdb 83629	3.23931	1.53498	1.17829	2.3192	69.15	-0.2419	-0.0624	0.1795	1003.9346	0.11272	-457.731164	-457.723717	-457.722773	-457.763351	27.991	
O	 0.0640117691	 1.4186360144	 0.0152096761	-0.41419
C	 0.0182452333	 0.0079871213	 0.0752966192	-0.035629
C	-1.425787454	-0.494793175	-0.063090552	 0.108219
O	-2.5962677829	 0.3746337947	-0.159135665	-0.293203
C	-2.9649764179	-0.2211783393	-1.4446059922	-0.152528
C	-1.573982133	-0.7864971641	-1.5187021122	 0.220974
C	-0.4339571937	-0.8441794806	-2.2087468616	-0.325272
C	 0.6708398396	-0.5422558088	-1.2510232552	 0.351153
O	 1.858097105	-0.5065677656	-1.4664581576	-0.328991
H	 0.9852720177	 1.657708892	-0.1460029627	 0.297425
H	 0.5349363512	-0.3806512156	 0.9624896665	 0.081047
H	-1.6312207285	-1.3221691079	 0.6274145029	 0.098928
H	-3.7784167083	-0.9486286871	-1.3287469395	 0.123845
H	-3.2342002592	 0.5249694915	-2.1984260234	 0.140253
H	-0.2789610784	-0.9015480899	-3.2779120333	 0.12797
72.7892	162.8865	222.8745	259.7936	338.833	386.6332	408.0544	516.3148	585.5727	714.9036	731.4235	773.5705	813.5746	862.2874	894.6099	907.0098	963.1971	994.1067	1052.059	1090.3822	1119.4748	1136.3092	1147.5506	1207.9931	1232.6556	1281.2969	1305.4637	1330.0304	1356.7523	1418.187	1498.0252	1707.4364	1816.531	3014.1127	3022.0895	3033.705	3089.1213	3227.0195	3783.7708
OC1C2OCC2=CC1=O	O[C@H]1[C@H]2OC[C]2[CH]C1=O	
InChI=1S/C6H6O3/c7-4-1-3-2-9-6(3)5(4)8/h1,5-6,8H,2H2	InChI=1S/C6H6O3/c7-4-1-3-2-9-6(3)5(4)8/h1,5-6,8H,2H2/t5-,6+/m1/s1
