18
gdb 105638	2.02234	1.42169	1.20282	3.6108	72.49	-0.2743	0.0042	0.2786	1153.966	0.145856	-439.077509	-439.067988	-439.067044	-439.11223	34.133	
C	 0.2761305115	 1.4430446175	 0.1730982266	-0.400152
C	 0.0542354098	-0.0534504551	-0.0608336699	-0.221477
C	 0.6778955355	-0.5411834258	-1.3680150497	 0.223505
O	 2.1097258214	-0.3293824266	-1.4113364729	-0.305475
C	 2.3878210577	-1.7482617864	-1.4119792838	-0.088165
C	 0.8975924059	-2.1000206311	-1.5018216586	 0.00523
O	 0.4612671973	-2.9112375681	-0.4510208713	-0.40784
C	 0.0250803284	 0.0586382528	-2.5404376229	 0.261954
N	-0.5117173529	 0.4906832229	-3.4688523957	-0.342852
H	 1.3440706104	 1.6760116215	 0.1621555885	 0.141359
H	-0.2116349779	 2.0442714666	-0.6003538156	 0.138002
H	-0.1316047919	 1.7431880396	 1.1421601644	 0.118788
H	 0.4941487607	-0.6446263308	 0.7470479389	 0.122661
H	-1.0171514421	-0.2880807022	-0.0790447917	 0.105796
H	 3.0134763604	-2.0431878921	-2.2596512148	 0.121591
H	 2.8475148547	-2.0796307334	-0.4743886382	 0.122493
H	 0.5834893661	-2.4829517216	-2.4777580439	 0.106109
H	-0.4377268348	-3.2039570977	-0.6313988495	 0.298473
57.9252	91.8085	148.3479	164.843	185.7112	232.0076	295.8742	313.2952	381.3779	418.8565	502.7463	546.8942	593.3994	634.1251	774.7196	796.9949	901.4487	952.5371	993.03	1001.6005	1017.4596	1035.5294	1114.6601	1145.165	1148.3435	1170.3052	1199.8899	1246.593	1293.3431	1318.1342	1338.1157	1358.8792	1411.0262	1450.2907	1475.605	1497.3712	1509.548	1516.4801	2347.0659	3038.9621	3040.5609	3046.2784	3056.4476	3093.8193	3096.5276	3118.1106	3127.7365	3823.6225
CCC1(OCC1O)C#N	CC[C@]1(OC[C@H]1O)C#N	
InChI=1S/C6H9NO2/c1-2-6(4-7)5(8)3-9-6/h5,8H,2-3H2,1H3	InChI=1S/C6H9NO2/c1-2-6(4-7)5(8)3-9-6/h5,8H,2-3H2,1H3/t5-,6+/m1/s1
