21
gdb 72906	2.63989	1.75194	1.38168	1.8697	80.24	-0.2422	0.0746	0.3168	1027.4116	0.184318	-387.074568	-387.066824	-387.06588	-387.106539	31.473	
C	-0.2831115102	 1.4858650257	 0.0059781805	-0.477659
C	 0.0449245223	-0.0005961441	-0.0437003747	 0.299154
C	-1.0882033799	-0.9375822864	 0.4422600969	-0.126238
O	-0.2928019757	-1.4281820893	 1.5389857521	-0.293747
C	 0.8367530364	-0.5958938422	 1.1614053537	 0.074405
C	 2.0473657624	-1.3344674718	 0.6226704974	-0.047434
C	 1.7611258577	-2.5662889671	-0.199519786	-0.287856
C	 2.0033038896	-1.257574759	-0.8970842485	-0.029801
C	 0.804984729	-0.4148579116	-1.330106371	-0.31236
H	 0.6261529605	 2.0909820182	-0.0835213842	 0.116711
H	-0.9518152837	 1.7694240119	-0.8152425374	 0.11758
H	-0.7764034359	 1.7544345402	 0.9460193465	 0.119326
H	-1.9930896329	-0.4255687597	 0.7946912685	 0.094072
H	-1.381731891	-1.7389990936	-0.2489264591	 0.092044
H	 1.0997258043	 0.091880105	 1.9731030797	 0.067377
H	 2.982302262	-1.2710037236	 1.1672000433	 0.079602
H	 2.5439651174	-3.3144875914	-0.258115287	 0.108247
H	 0.758032151	-2.9751008186	-0.1528234119	 0.126395
H	 2.9218532265	-1.1537988469	-1.464725808	 0.082086
H	 0.15070779	-0.9493195604	-2.0293713915	 0.100573
H	 1.1600784302	 0.4782604449	-1.8558665993	 0.097522
85.1873	204.6781	241.6561	250.7414	325.9882	367.9892	392.9603	493.6318	616.3185	642.5273	674.0625	778.2723	815.7666	855.4927	867.3604	899.1262	913.7224	933.7678	962.7595	973.2466	1001.7394	1013.7277	1038.7222	1053.4109	1070.9371	1092.6931	1109.54	1155.2005	1157.9505	1176.3169	1209.0178	1231.0925	1264.7594	1271.6762	1318.5936	1342.8323	1346.8352	1367.5832	1394.9883	1412.863	1487.8293	1493.8749	1494.8513	1499.065	1527.5517	2998.8241	3021.0421	3030.4482	3039.8308	3041.7033	3066.1245	3087.2713	3096.1766	3137.0554	3161.1842	3175.7392	3221.9987
CC12COC1C1CC1C2	C[C@]12CO[C@H]1[C@H]1C[C@H]1C2	
InChI=1S/C8H12O/c1-8-3-5-2-6(5)7(8)9-4-8/h5-7H,2-4H2,1H3	InChI=1S/C8H12O/c1-8-3-5-2-6(5)7(8)9-4-8/h5-7H,2-4H2,1H3/t5-,6-,7-,8-/m0/s1
