15
gdb 74824	3.58161	1.28264	1.06744	4.2082	72.78	-0.2364	0.0069	0.2433	1095.9575	0.114897	-413.003391	-412.995807	-412.994863	-413.035229	29.639	
N	 0.0569163185	 1.3299566343	 0.0828267074	-0.580832
C	-0.01968211	-0.0407789186	 0.010553767	 0.40868
N	-1.1096140217	-0.7253964829	 0.003425624	-0.300013
C	-0.7542501976	-2.1083423582	-0.0052736485	-0.04697
C	 0.0040698837	-2.6445226231	-1.1905379274	-0.317289
C	 0.804737921	-2.1602788669	 0.0012662117	 0.206274
N	 1.1834216702	-0.7589889997	-0.0401736632	-0.402577
C	 1.6084580492	-3.0425342952	 0.7847620549	 0.201681
N	 2.261295519	-3.752879957	 1.4250540507	-0.345681
H	 0.8078825056	 1.7490255546	-0.4456148137	 0.261711
H	-0.8344319328	 1.781219016	-0.0640440875	 0.269991
H	-1.3632912599	-2.7855879583	 0.5829000126	 0.118083
H	-0.0132326384	-3.7176318772	-1.3444105664	 0.138204
H	 0.0560832824	-2.0406827074	-2.0905712146	 0.129792
H	 1.9138698608	-0.4723426205	 0.599112033	 0.258946
122.1821	155.7216	229.3766	351.8447	365.9932	390.819	456.6255	473.519	540.7355	560.2259	604.2771	636.3823	688.9095	724.4536	763.4935	823.7886	886.7065	962.4257	999.3895	1043.2131	1064.4858	1079.3672	1109.0285	1205.9244	1236.6625	1254.6967	1329.413	1400.3473	1461.2439	1474.5131	1619.1115	1709.3199	2343.9389	3132.4992	3176.4965	3230.6972	3572.2257	3575.3978	3678.5566
NC1=NC2CC2(N1)C#N	NC1=N[C@H]2C[C@]2(N1)C#N	
InChI=1S/C5H6N4/c6-2-5-1-3(5)8-4(7)9-5/h3H,1H2,(H3,7,8,9)	InChI=1S/C5H6N4/c6-2-5-1-3(5)8-4(7)9-5/h3H,1H2,(H3,7,8,9)/t3-,5-/m0/s1
