16
gdb 48288	2.40581	0.88188	0.67448	2.2243	76.91	-0.2752	-0.0579	0.2173	1580.239	0.120985	-400.734303	-400.724402	-400.723458	-400.770687	33.746	
O	-0.1070858709	 0.0851425504	-0.3915548313	-0.228915
C	-0.0145747639	 1.180215343	 0.087106388	 0.154959
C	 1.3070413932	 1.966059305	 0.0975161359	-0.230092
C	 1.3787013911	 2.8245643831	-1.195241652	-0.195529
C	 2.6966475034	 3.6156304966	-1.3129822748	-0.371125
C	 2.7564008348	 4.3865958483	-2.5473684097	 0.283469
C	 2.7761023352	 5.0113877126	-3.5734482103	-0.415872
C	 1.4052082407	 2.7865271252	 1.3035639993	 0.268369
N	 1.4532863324	 3.4366862187	 2.2580423639	-0.313821
H	-0.884392244	 1.7205286136	 0.5157687056	 0.114302
H	 2.1202244462	 1.2322611423	 0.0895038825	 0.151494
H	 1.2748290226	 2.1459125964	-2.0461927634	 0.144114
H	 0.5326967107	 3.5185719034	-1.2230700686	 0.13606
H	 2.8013312033	 4.28520239	-0.4505480937	 0.160498
H	 3.5451142448	 2.9204154453	-1.2691390191	 0.139258
H	 2.8084543804	 5.5704881761	-4.4757583922	 0.202831
42.5491	66.5392	92.2936	108.0359	160.6456	216.6294	259.585	319.3783	347.8619	480.3395	486.6792	538.1854	597.1282	627.7281	654.7899	768.0626	889.939	925.9994	955.3162	1021.8496	1058.2535	1069.6701	1090.8136	1182.495	1236.2052	1304.8127	1308.9396	1342.7611	1379.4399	1417.7187	1474.3401	1492.4069	1842.3438	2242.9554	2356.3779	2919.383	3023.5343	3057.3092	3060.0834	3067.4989	3113.8741	3505.3129
O=CC(CCC#C)C#N	O=C[C@@H](CCC#C)C#N	
InChI=1S/C7H7NO/c1-2-3-4-7(5-8)6-9/h1,6-7H,3-4H2	InChI=1S/C7H7NO/c1-2-3-4-7(5-8)6-9/h1,6-7H,3-4H2/t7-/m0/s1
