14
gdb 30549	4.88169	0.91456	0.77026	13.7973	86.09	-0.1544	-0.056	0.0984	1368.7978	0.100762	-470.015495	-470.006928	-470.005984	-470.04969	30.563	
N	-0.1021466062	 1.3270266856	 0.0094128627	-0.523226
C	 0.0191910521	-0.0087501568	 0.0009581117	 0.174383
N	 1.1620938172	-0.6523446297	-0.010504479	-0.346382
H	 2.0419218842	-0.1531104044	-0.0136150608	 0.274776
C	 1.2066869232	-2.0530238445	-0.0189059318	 0.34435
C	 2.312684767	-2.8400366128	-0.0309856498	-0.143689
O	 1.8860502311	-4.1173837682	-0.0351813215	-0.227047
C	 0.4060720732	-4.0503431128	-0.0249816137	 0.427875
O	-0.2126603953	-5.0807667861	-0.0265741481	-0.404916
N	 0.0428906252	-2.7449717885	-0.0150108873	-0.496008
H	 0.6885938704	 1.9494537507	 0.0077148427	 0.282027
H	-1.0171859845	 1.7407340692	 0.0181544785	 0.299981
H	-0.8622741417	-0.6409438359	 0.0032926569	 0.22056
H	 3.3725305143	-2.6388377459	-0.0370065404	 0.117316
38.3727	105.9145	134.3261	179.9914	231.5272	390.9287	405.2639	436.6959	462.6014	528.7412	608.81	636.9907	660.9908	684.2715	712.9361	770.4212	801.2372	957.141	1021.4813	1056.9728	1107.7658	1186.3828	1267.3035	1305.0427	1359.1275	1426.7361	1439.3811	1616.9126	1654.4252	1736.4283	1882.6997	3215.3713	3249.6862	3592.7865	3620.0697	3743.8641
NC=[NH+]C1=COC(=O)[N-]1	[NH2]=CNc1coc(=O)n1	
InChI=1S/C4H5N3O2/c5-2-6-3-1-9-4(8)7-3/h1-2H,(H3,5,6,7,8)	InChI=1S/C4H6N3O2/c5-2-6-3-1-9-4(8)7-3/h1-2,6H,5H2,(H,7,8)
