14
gdb 49351	1.98511	1.62602	1.27149	4.3405	74.52	-0.2595	-0.0131	0.2464	1044.934	0.099361	-395.666379	-395.657729	-395.656785	-395.700015	30.762	
N	-0.3608884231	 1.024594384	 0.5592836074	-0.402812
C	-0.277530113	-0.1845262432	 0.1973535346	 0.064724
N	-1.3150570192	-0.8064754349	-0.5069816615	-0.066292
C	-1.9575992448	-2.0423731736	-0.0784044091	-0.231642
C	-1.6399484774	-2.6461017835	 1.1840774936	 0.363454
C	-1.3519633671	-3.1734501883	 2.224597219	-0.429762
C	-2.7104118116	-0.7140609206	-0.1362405481	-0.174802
C	-3.1403777745	-0.0921245649	 1.0941427408	 0.341276
N	-3.5600977636	 0.3861146284	 2.0585499787	-0.328662
H	 0.5096001581	 1.3332633386	 0.9886993947	 0.237956
H	 0.5875941688	-0.8465500376	 0.3094587691	 0.116307
H	-2.1553302236	-2.7391153817	-0.8902359678	 0.139776
H	-1.1121835668	-3.6283376888	 3.1545304966	 0.218208
H	-3.3941563823	-0.557436984	-0.966565748	 0.152271
89.7101	101.77	122.8501	166.2421	237.226	268.3342	314.749	441.2511	486.8829	598.8822	627.6477	650.2929	663.8264	687.1725	758.5829	840.9713	870.3973	889.4977	1030.8863	1041.2667	1059.5931	1101.2311	1138.7529	1223.6192	1345.0132	1362.9343	1396.8121	1413.3073	1718.6288	2243.3185	2364.26	3070.7234	3132.0935	3148.7686	3499.2809	3507.5552
N=CN1C(C#C)C1C#N	[NH][CH]N1[C@@H](C#C)[C@H]1C#N	
InChI=1S/C6H5N3/c1-2-5-6(3-7)9(5)4-8/h1,4-6,8H	InChI=1S/C6H5N3/c1-2-5-6(3-7)9(5)4-8/h1,4-6,8H/t5-,6+,9?/m0/s1
