16
gdb 19985	3.62748	1.67203	1.31883	2.8666	70.89	-0.2334	0.0299	0.2632	940.3201	0.130875	-342.688594	-342.680954	-342.680009	-342.720764	28.578	
C	 0.058789567	-1.1756151067	 0.4240923341	-0.430552
C	 0.088202244	 0.0147710868	 0.2607587046	 0.376218
C	 0.0892502544	 1.4324612377	 0.0306803249	-0.248537
N	 0.7339197774	 2.3008185893	 1.0479891156	-0.336785
C	 1.3313063731	 2.2166596872	-0.2831710322	-0.025591
C	 2.6957999092	 1.6006590544	-0.3681245152	-0.00666
C	 3.778989516	 2.141526559	 0.4945760661	-0.235255
N	 3.2230665626	 0.8027168875	 0.7395261905	-0.311482
H	 0.0527230174	-2.2268250172	 0.5741367196	 0.201766
H	-0.8261017264	 1.8121015339	-0.4192855985	 0.113317
H	 0.2008192554	 3.1577861036	 1.16311012	 0.242125
H	 1.1772438896	 3.0558611563	-0.9615979549	 0.093743
H	 2.9501292289	 1.2210113404	-1.3558461387	 0.095039
H	 4.8046852185	 2.1608280623	 0.1372508016	 0.114676
H	 3.5133314556	 2.9417673214	 1.180897839	 0.110956
H	 2.5611533273	 0.856621704	 1.5127978136	 0.247022
78.2279	107.7853	202.3411	246.2598	261.2634	391.0636	526.7871	580.3163	614.0363	651.1407	665.8716	738.1851	823.2366	849.2222	866.2774	918.6329	955.6584	980.6321	987.2414	1046.1999	1095.5506	1117.0899	1143.8929	1176.4906	1193.1053	1219.9981	1244.1885	1280.5197	1317.8492	1389.1115	1418.9498	1450.8537	1507.4253	2243.0108	3103.2874	3106.5942	3124.0924	3127.9625	3193.811	3481.3177	3504.6823	3517.193
C#CC1NC1C1CN1	C#C[C@H]1N[C@H]1[C@H]1CN1	
InChI=1S/C6H8N2/c1-2-4-6(8-4)5-3-7-5/h1,4-8H,3H2	InChI=1S/C6H8N2/c1-2-4-6(8-4)5-3-7-5/h1,4-8H,3H2/t4-,5-,6-/m1/s1
