18
gdb 63865	2.24609	1.6343	1.28443	3.8676	77.18	-0.2704	0.0142	0.2846	1059.7456	0.146668	-401.942152	-401.933487	-401.932543	-401.974995	33.399	
C	-0.1021367458	 1.5671261633	 0.0165152489	-0.453786
C	 0.0599223634	 0.0552204906	-0.0295170115	 0.322498
O	-1.1523795047	-0.5818433395	-0.3758705573	-0.459231
C	 1.1744458247	-0.5662825257	-0.9297862438	-0.266172
C	 1.7697759131	-1.2842705611	 0.2864545152	-0.09651
C	 2.1865287767	-0.2972114164	 1.3270335963	-0.336709
C	 0.7160954782	-0.6356480859	 1.2060297616	 0.186946
C	-0.0508689481	-1.1970782656	 2.265936599	 0.181374
N	-0.7214576089	-1.6261548253	 3.1075707592	-0.359654
H	 0.8378920224	 2.0750179155	 0.2489313134	 0.119296
H	-0.460928471	 1.9289428252	-0.9516689403	 0.133489
H	-0.8348164822	 1.8513105594	 0.7809603362	 0.121747
H	-1.8015417171	-0.3985350452	 0.3142642459	 0.289339
H	 0.7206125655	-1.2381900512	-1.6580053361	 0.133867
H	 1.8439081331	 0.133732311	-1.4378183262	 0.103657
H	 2.1029004066	-2.3135819028	 0.3104499234	 0.115931
H	 2.6737020438	-0.70637374	 2.2055693434	 0.14169
H	 2.5309898504	 0.6940746538	 1.0448186526	 0.122227
108.8525	128.5289	193.749	233.2522	279.7138	321.0832	374.5447	377.6207	438.7936	451.8746	517.0449	587.8457	611.0996	645.7648	810.5809	851.6462	868.8929	888.8627	933.8141	966.767	984.1655	1032.5934	1041.9889	1090.259	1114.5835	1120.7874	1178.1446	1213.6045	1241.0628	1274.7813	1289.9186	1354.9438	1385.3434	1408.3215	1471.2639	1485.0795	1489.2404	1496.9031	2337.4691	3031.9538	3062.9788	3101.1081	3117.2805	3121.0926	3142.0917	3201.7307	3215.0655	3785.866
CC1(O)CC2CC12C#N	C[C@@]1(O)C[C@H]2C[C@@]12C#N	
InChI=1S/C7H9NO/c1-6(9)2-5-3-7(5,6)4-8/h5,9H,2-3H2,1H3	InChI=1S/C7H9NO/c1-6(9)2-5-3-7(5,6)4-8/h5,9H,2-3H2,1H3/t5-,6+,7-/m0/s1
