16
gdb 40410	4.27335	1.28139	1.14191	2.0839	68.2	-0.25	0.0102	0.2602	1057.6307	0.125062	-437.851045	-437.843884	-437.84294	-437.883063	27.426	
C	 0.4834675805	 1.4573853164	 0.1659595584	-0.170941
O	 1.0319439646	 0.2543212466	-0.3811117665	-0.229617
C	-0.3098820111	 0.221896193	 0.0981446973	-0.036427
C	-0.534809996	-0.6367895023	 1.2945741602	 0.404805
C	 0.5390290856	-1.0406917758	 2.2582174511	-0.358457
C	-0.1945293985	-2.1129821315	 1.4734636576	-0.07073
N	-1.3453136678	-2.7037159245	 2.1183597354	-0.253227
C	-2.1690875983	-1.75208698	 2.2923910339	 0.088272
O	-1.846490157	-0.5083635066	 1.8387849942	-0.253147
H	 0.9030403009	 1.7658351279	 1.1215448646	 0.121956
H	 0.3010461279	 2.2535023142	-0.553258598	 0.123794
H	-1.0736041202	 0.1358829755	-0.6754219657	 0.105456
H	 1.5497760821	-0.8280149465	 1.9296340719	 0.141663
H	 0.3503122957	-0.9602350909	 3.3234360937	 0.123942
H	 0.3375895743	-2.720670485	 0.752394793	 0.117191
H	-3.1364318128	-1.8205684807	 2.7742443789	 0.145466
66.3979	165.4808	194.3923	323.8908	378.998	411.519	481.7033	598.7923	672.3381	743.6969	815.0771	851.9582	879.6161	906.8058	917.6032	936.6204	965.788	1005.0706	1028.8938	1064.3665	1076.3585	1097.6695	1117.6871	1133.18	1153.3221	1172.16	1195.1678	1260.1142	1283.7295	1333.5895	1375.9045	1441.7261	1469.0549	1522.8659	1668.4226	3092.7977	3108.656	3135.3405	3185.8981	3194.0012	3233.139	3235.9041
C1OC1C12CC1N=CO2	C1O[C@H]1[C@]12C[C@H]1N=CO2	
InChI=1S/C6H7NO2/c1-4-6(1,5-2-8-5)9-3-7-4/h3-5H,1-2H2	InChI=1S/C6H7NO2/c1-4-6(1,5-2-8-5)9-3-7-4/h3-5H,1-2H2/t4-,5-,6+/m1/s1
