19
gdb 7164	6.64235	0.79722	0.74749	4.9948	72.89	-0.2852	0.0298	0.315	1516.7579	0.163667	-365.085216	-365.075524	-365.07458	-365.120185	33.947	
C	 0.0172816132	 1.5858733923	-0.0323794817	-0.38401
C	 0.0111320418	 0.0556610743	-0.0076632148	-0.169136
C	 0.6951885804	-0.5252266418	 1.2343552718	-0.191143
C	 0.7523382298	-2.0573155816	 1.2298115937	 0.127017
O	 1.4293182998	-2.5714870635	 0.0968417626	-0.414403
C	 1.3752242746	-2.5899429873	 2.5424373145	-0.370873
C	 1.4182120505	-4.0487442181	 2.601266646	 0.271499
N	 1.444640191	-5.2022041104	 2.6588215943	-0.303379
H	 1.0399210774	 1.9796658416	-0.0261031829	 0.113702
H	-0.4797438303	 1.9687574456	-0.9287341299	 0.118279
H	-0.5011552878	 2.0020988336	 0.8387114977	 0.114771
H	-1.0229681521	-0.310186972	-0.0493750479	 0.101018
H	 0.5075305689	-0.3389866169	-0.9004266458	 0.113079
H	 1.7219835826	-0.1340974127	 1.3106697805	 0.086904
H	 0.1741688658	-0.1874016865	 2.1400884855	 0.099669
H	-0.2646326275	-2.4581018697	 1.1471914459	 0.111571
H	 2.3237484976	-2.2109950553	 0.0873546951	 0.282441
H	 2.3967462861	-2.2022139003	 2.6483687844	 0.14083
H	 0.807402158	-2.2194948713	 3.4034798709	 0.152163
56.8177	85.3896	109.9713	122.3244	199.2252	248.6526	294.2011	312.8634	360.2493	397.0178	411.2051	471.7769	609.629	747.7574	855.661	864.1703	890.0688	957.6814	965.952	1027.3327	1051.795	1095.3278	1114.0915	1145.3256	1199.5917	1243.1811	1274.5947	1311.0167	1327.5792	1359.762	1370.007	1396.4065	1415.7434	1422.734	1458.6572	1479.3626	1494.102	1500.7245	1511.1869	2366.2593	2988.1573	3027.072	3029.4317	3030.5872	3038.2083	3054.9393	3072.6755	3080.4751	3098.4279	3105.6778	3790.3364
CCCC(O)CC#N	CCC[C@@H](O)CC#N	
InChI=1S/C6H11NO/c1-2-3-6(8)4-5-7/h6,8H,2-4H2,1H3	InChI=1S/C6H11NO/c1-2-3-6(8)4-5-7/h6,8H,2-4H2,1H3/t6-/m1/s1
