13
gdb 19336	5.16942	1.70075	1.51941	3.9348	63.59	-0.2302	-0.0006	0.2296	808.4553	0.096348	-357.538173	-357.531974	-357.53103	-357.568397	24.188	
N	 0.0910735278	-1.1431607397	-0.123239507	-0.344213
C	 0.065300155	 0.0124615157	-0.0439860165	 0.1784
C	 0.0214668363	 1.4257818967	 0.0755976961	 0.240577
N	 0.202548102	 2.3434419775	-1.08413907	-0.331416
C	 1.1430554102	 2.417434122	 0.0379834302	-0.114596
C	 0.4820979892	 3.2004706267	 1.218636862	-0.053459
N	-0.8813454506	 3.6041702411	 0.8046972039	-0.30021
C	-0.6284801144	 2.2270122213	 1.2616858645	-0.123551
H	 0.6509308294	 1.799773627	-1.822940946	 0.251582
H	 2.2013140878	 2.2244363437	-0.0760193263	 0.126224
H	 1.0176717047	 3.6891260326	 2.0204177268	 0.11214
H	-1.2943178219	 4.1030640234	 1.5930315731	 0.241397
H	-1.1441488256	 1.770009132	 2.0947037692	 0.117124
155.9041	159.739	379.1079	416.6665	482.5072	540.3532	573.3287	650.0121	743.4676	798.4275	814.784	836.2362	864.7641	896.8471	911.6295	962.9534	1004.5905	1024.5469	1082.3003	1100.5548	1145.1901	1226.7211	1228.635	1289.9951	1317.977	1354.272	1395.7618	2338.4943	3209.0507	3215.1358	3224.4167	3471.72	3475.725
N#CC12NC1C1NC21	N#C[C@]12N[C@H]1[C@H]1N[C@@H]21	
InChI=1S/C5H5N3/c6-1-5-3-2(7-3)4(5)8-5/h2-4,7-8H	InChI=1S/C5H5N3/c6-1-5-3-2(7-3)4(5)8-5/h2-4,7-8H/t2-,3+,4-,5+/m0/s1
