18
gdb 37883	3.0081	2.21873	2.16038	0.4578	72.41	-0.2153	0.0801	0.2954	780.1223	0.152743	-401.914285	-401.908928	-401.907984	-401.943602	24.352	
C	-0.053544662	 1.5516135384	 0.0703249459	-0.241793
C	 1.475981246	 1.4773725856	-0.0049835287	-0.009276
C	 2.0875018783	 0.7851536574	 1.2549243087	 0.063669
O	 1.0350920503	 0.3940667042	 2.1386392133	-0.267399
C	 0.3480881469	-0.6119859621	 1.3724565453	 0.064369
C	 1.492452325	-1.5808943604	 1.0291131214	-0.224715
C	 2.3126877477	-0.4855569193	 0.3625562268	-0.026164
N	 1.3984785283	 0.1139446567	-0.6811194269	-0.15242
C	 0.0177794815	 0.0100099824	-0.0074174017	-0.025838
H	-0.5087745051	 1.9926648798	 0.9579121767	 0.112565
H	-0.4748911931	 1.9885430661	-0.8367354849	 0.109392
H	 2.0633575833	 2.2622828776	-0.487654117	 0.06858
H	 2.8821262172	 1.2662245733	 1.8270486106	 0.076355
H	-0.4962271328	-0.9822975565	 1.9533927684	 0.079405
H	 1.9512260423	-2.0144270335	 1.919917755	 0.110166
H	 1.2104953443	-2.3665169356	 0.3223773485	 0.11071
H	 3.3122301997	-0.7161894069	-0.0034159152	 0.076703
H	-0.7348585479	-0.5441305473	-0.5725063362	 0.075692
352.3384	415.3112	440.3087	546.2952	593.2301	662.4053	738.2851	759.8662	798.0434	812.353	841.8845	885.6415	911.0587	916.7167	942.3506	955.8613	963.9959	983.1034	995.9052	1009.0875	1028.4332	1046.6275	1080.9527	1126.4928	1136.1027	1183.4271	1211.1097	1217.0218	1228.8169	1250.2666	1263.9567	1279.0707	1284.766	1299.6365	1317.1468	1332.8772	1361.7593	1470.0512	1471.2598	3067.7648	3072.242	3079.2618	3086.4233	3100.5951	3125.3407	3128.7366	3131.8188	3140.461
C1C2C3OC4CC3N2C14	C1[C@H]2[C@H]3O[C@@H]4C[C@H]3N2[C@H]14	
InChI=1S/C7H9NO/c1-3-6-2-5-7(9-6)4(1)8(3)5/h3-7H,1-2H2	InChI=1S/C7H9NO/c1-3-6-2-5-7(9-6)4(1)8(3)5/h3-7H,1-2H2/t3-,4+,5-,6-,7-/m1/s1
