17
gdb 57771	3.33262	0.65216	0.63726	3.0882	75.26	-0.2623	-0.0484	0.2139	1803.5364	0.131823	-458.930161	-458.919712	-458.918768	-458.96784	35.916	
C	-0.0075621921	 1.5748240788	-0.0363193971	-0.387003
C	 0.020316019	 0.0436900954	 0.0806014307	-0.020086
O	 0.7327036908	-0.3847870302	 1.2365847077	-0.408899
C	-1.3337679732	-0.5206411896	 0.0315425878	 0.051384
C	-2.4490243699	-0.9772271817	 0.0112465427	 0.065982
C	-3.8103008884	-1.5251114473	 0.0055553979	-0.113413
O	-3.8607913888	-2.9213307701	-0.0895226863	-0.406161
C	-4.5091322114	-1.05105571	 1.2857582034	 0.143349
O	-4.9620701564	-1.8382131914	 2.0755289838	-0.247828
H	 1.0149496779	 1.9579941855	 0.0075221989	 0.13074
H	-0.4677630379	 1.8871270925	-0.9782020418	 0.127475
H	-0.5828946081	 2.0121779627	 0.7862165944	 0.115904
H	 0.5961807641	-0.3624180127	-0.7597583481	 0.126795
H	 0.1958545842	-0.168778825	 2.0072779818	 0.283443
H	-4.3619440518	-1.0750306221	-0.8388526964	 0.126702
H	-4.2246082345	-3.2242503841	 0.758216896	 0.298263
H	-4.5520527435	 0.0441573494	 1.4387384645	 0.113353
14.1658	58.6234	82.9807	135.6833	196.0821	238.936	262.3118	290.5074	304.4309	352.4963	406.3537	446.3562	502.3465	556.9471	603.2501	704.3482	768.5484	839.6745	905.7872	1010.0923	1020.5612	1062.8168	1094.9728	1135.0098	1170.9729	1237.9568	1283.5718	1324.256	1333.7531	1388.2065	1399.0099	1417.1892	1431.17	1487.5592	1491.1898	1823.5619	2348.8338	2950.725	2963.7744	3038.5146	3043.4906	3114.473	3130.0483	3687.6752	3804.5571
CC(O)C#CC(O)C=O	C[C@@H](O)C#C[C@@H](O)C=O	
InChI=1S/C6H8O3/c1-5(8)2-3-6(9)4-7/h4-6,8-9H,1H3	InChI=1S/C6H8O3/c1-5(8)2-3-6(9)4-7/h4-6,8-9H,1H3/t5-,6-/m1/s1
