15
gdb 51402	4.92044	0.84878	0.81274	0.6493	67.35	-0.2628	-0.0373	0.2255	1357.9466	0.109979	-457.701741	-457.693691	-457.692747	-457.73555	28.736	
O	-0.2368485529	 0.0122568354	-0.00749248	-0.230955
C	 0.0010276925	 1.1912254372	-0.0014620188	 0.161363
C	 1.3742453973	 1.7943879366	-0.2088244889	-0.318729
C	 1.380393813	 2.8519600342	-1.3107002757	-0.016585
C	 0.8249591362	 4.2686065322	-0.9614802509	-0.093391
O	 2.0351411022	 4.5023446544	-0.1287505281	-0.297031
C	 2.5930059528	 3.8288165533	-1.3313009989	-0.0959
C	 1.7011086427	 4.8299258917	-2.1156741135	 0.483267
O	 1.7202939828	 5.6367768872	-2.9814216017	-0.299112
H	-0.8094382653	 1.9381165096	 0.1703016207	 0.075057
H	 1.6818510804	 2.2732913184	 0.7290914125	 0.1474
H	 2.074478225	 0.9861664321	-0.4382080308	 0.128824
H	 1.0784541774	 2.4503398335	-2.2837386136	 0.108487
H	-0.1364620894	 4.574188262	-0.5548047264	 0.124006
H	 3.6601324151	 3.6181829622	-1.3458615659	 0.123297
55.831	80.3863	131.32	174.2772	276.1233	342.4641	464.194	490.8957	569.6634	680.5455	757.8594	785.3037	790.4426	832.6979	846.768	902.461	964.3107	1036.5703	1038.8554	1093.0018	1095.2853	1133.7005	1141.6695	1179.2903	1187.2817	1227.816	1253.8277	1297.4192	1389.3853	1429.9274	1459.4006	1838.7594	1946.2284	2856.595	3041.501	3062.7272	3106.6035	3154.926	3158.6902
O=CCC1C2OC1C2=O	O=CC[C@H]1[C@H]2O[C@@H]1C2=O	
InChI=1S/C6H6O3/c7-2-1-3-5-4(8)6(3)9-5/h2-3,5-6H,1H2	InChI=1S/C6H6O3/c7-2-1-3-5-4(8)6(3)9-5/h2-3,5-6H,1H2/t3-,5+,6-
