18
gdb 10710	2.48618	1.98239	1.4051	1.6875	67.93	-0.2457	-0.0235	0.2222	968.2949	0.150722	-384.946701	-384.937614	-384.936669	-384.980694	32.308	
C	 0.0617081293	 0.5691552184	 1.0828417479	-0.389286
C	 0.4095502843	-0.7049451543	 0.3036570262	-0.254149
C	 0.5939511438	-0.4494641469	-1.1778680015	 0.309196
C	 0.0548289874	-1.4008042834	-2.1755635737	-0.228013
O	-0.5978686899	-0.163114033	-1.9313102996	-0.264017
C	 1.8143248089	 0.3597864224	-1.5749251503	 0.330074
C	 1.7300183838	 1.1791500369	-2.8460346797	-0.48033
O	 2.7983149836	 0.3498891396	-0.8690312543	-0.307602
H	 0.8726444203	 1.3007222136	 1.0226991975	 0.133151
H	-0.8494827278	 1.0288397579	 0.6879057261	 0.127437
H	-0.1041093162	 0.3414516582	 2.1395806787	 0.116356
H	 1.337753623	-1.1384925755	 0.6878259579	 0.126117
H	-0.3837311977	-1.4488637528	 0.4303783803	 0.099712
H	 0.5234018476	-1.5045928432	-3.1531528785	 0.118891
H	-0.4596938067	-2.2891833623	-1.8118746305	 0.125754
H	 0.9983012975	 1.9825544648	-2.7088812532	 0.156582
H	 2.7106023777	 1.6039080795	-3.0626548829	 0.13952
H	 1.3779235512	 0.5872710201	-3.6954348104	 0.140608
65.87	82.7522	113.3941	184.199	213.7786	255.997	301.3751	341.4861	446.2066	475.3829	513.47	615.5536	662.363	762.0475	843.7303	863.8018	938.7755	955.1111	998.6713	1038.7926	1071.7429	1102.0189	1137.9969	1152.2484	1168.5798	1278.3294	1315.694	1352.7352	1385.5565	1396.5296	1406.0145	1452.5184	1465.1356	1469.3071	1500.1775	1509.0975	1526.7503	1798.6864	3042.8059	3049.3619	3049.9297	3083.7131	3093.9471	3112.4298	3114.8877	3121.5753	3157.6982	3171.0058
CCC1(CO1)C(C)=O	CC[C@]1(CO1)C(=O)C	
InChI=1S/C6H10O2/c1-3-6(4-8-6)5(2)7/h3-4H2,1-2H3	InChI=1S/C6H10O2/c1-3-6(4-8-6)5(2)7/h3-4H2,1-2H3/t6-/m0/s1
