23
gdb 96360	2.18289	1.61267	1.23231	1.6844	84.43	-0.2546	0.0777	0.3323	1154.1004	0.207445	-388.300888	-388.292248	-388.291304	-388.333624	34.619	
C	-0.1312163062	 1.6115136011	 0.0236886423	-0.403338
C	 0.018120988	 0.081438126	 0.0319810465	-0.042623
C	 0.7324817466	-0.4592565045	-1.2272162425	-0.210226
C	 2.2413906508	-0.1649989051	-1.2317325732	-0.191632
C	 2.9146747861	-0.7068126048	 0.0377097877	-0.19129
C	 2.2425537752	-0.1514684507	 1.304431234	-0.273766
C	 0.7487143059	-0.4173197421	 1.2740215979	 0.452329
C	 0.0079879094	-0.6543744048	 2.5183196915	-0.254159
O	 0.3813938566	-1.7515065005	 1.6790983801	-0.294438
H	 0.8336059277	 2.1257143815	-0.0229572589	 0.118826
H	-0.7158467428	 1.9322625708	-0.8446809348	 0.114666
H	-0.6476983579	 1.9610965328	 0.9235578235	 0.113366
H	-0.9874938033	-0.3540899958	 0.0651374602	 0.074561
H	 0.5864238783	-1.546068917	-1.2630749691	 0.107228
H	 0.2586485326	-0.0473712737	-2.1258488677	 0.086279
H	 2.7005408935	-0.6099271874	-2.1214970199	 0.092674
H	 2.4152075747	 0.9165493521	-1.3062382828	 0.093381
H	 2.8360517029	-1.8012563457	 0.0510131004	 0.109826
H	 3.9829176552	-0.4645357129	 0.0414028345	 0.088976
H	 2.6705078619	-0.6068322208	 2.2028737962	 0.099169
H	 2.4190793946	 0.9300028652	 1.3744243448	 0.098143
H	 0.5250118618	-0.6016723707	 3.4763693756	 0.106295
H	-1.0607040717	-0.443696223	 2.5613203237	 0.105753
109.3217	158.5173	216.1769	225.2869	271.5967	311.9595	356.2926	395.8257	432.7442	461.6606	550.4643	581.4357	690.77	801.9292	813.2373	845.5221	848.2338	908.5649	922.7182	933.901	982.0432	1006.9318	1013.288	1047.7743	1064.8436	1102.1751	1126.5891	1138.145	1167.7713	1169.7116	1193.1462	1260.3075	1270.5141	1299.341	1328.788	1339.8507	1360.8001	1367.9026	1377.0644	1385.5508	1410.1097	1440.4635	1473.3694	1480.9779	1487.4698	1499.0914	1501.5612	1509.5977	1530.6195	3020.1701	3021.8991	3022.9476	3027.9824	3034.8397	3037.9507	3061.4021	3066.9269	3071.7228	3074.4313	3082.0485	3101.1154	3107.1142	3155.145
CC1CCCCC11CO1	C[C@H]1CCCC[C@]21CO2	
InChI=1S/C8H14O/c1-7-4-2-3-5-8(7)6-9-8/h7H,2-6H2,1H3	InChI=1S/C8H14O/c1-7-4-2-3-5-8(7)6-9-8/h7H,2-6H2,1H3/t7-,8+/m0/s1
