21
gdb 57567	3.82602	0.64488	0.63595	4.0212	76.96	-0.2732	0.0112	0.2843	1824.9108	0.178754	-461.391498	-461.380639	-461.379695	-461.428501	38.666	
C	-0.003942886	 1.4976425428	 0.374636363	-0.393447
C	 0.013971979	 0.0284525056	-0.0596495696	 0.332925
C	 0.6331274211	-0.8447183245	 1.0388144478	-0.42262
O	-1.3657695685	-0.324248287	-0.2417811962	-0.456676
C	 0.7819556346	-0.1798942453	-1.384556783	-0.206733
C	 0.1845445077	 0.5739087999	-2.5682226046	-0.09868
O	 0.8889250691	 0.2285219778	-3.7709659097	-0.175243
C	 0.2250018576	-0.449346761	-4.7227465583	 0.167502
O	 0.7338047931	-0.8009221707	-5.744575177	-0.277116
H	 1.0127671874	 1.8923546574	 0.4587410665	 0.116503
H	-0.5593670034	 2.1120798281	-0.3383671936	 0.125997
H	-0.4957300994	 1.5925162135	 1.3463534502	 0.124636
H	 0.060633249	-0.7447842377	 1.9652972769	 0.125608
H	 0.6322085191	-1.9014998225	 0.7452826904	 0.106952
H	 1.6705279827	-0.5592154105	 1.2390876459	 0.121862
H	-1.4173796417	-1.2822325072	-0.330865434	 0.277715
H	 1.8315339399	 0.1081989305	-1.2584921829	 0.113437
H	 0.7801784325	-1.2512795165	-1.6253111535	 0.094289
H	-0.8806982692	 0.3375293505	-2.6664915615	 0.124001
H	 0.2854677933	 1.6559706914	-2.4523078575	 0.124556
H	-0.834156038	-0.6366158544	-4.4543456892	 0.074532
34.1663	51.9464	114.4598	136.3118	201.1175	224.1875	253.6863	295.1456	319.0329	344.0515	344.5945	376.3456	429.4692	472.2871	520.4552	674.8834	781.0594	790.3039	911.7366	937.1028	949.449	995.4291	1036.2577	1048.2069	1053.1476	1074.9157	1135.8076	1155.8935	1218.1235	1240.9858	1273.1974	1319.2799	1337.1211	1377.1762	1404.7278	1408.122	1421.8697	1433.9388	1474.6162	1484.8507	1491.3678	1498.2007	1510.5264	1516.7252	1865.0037	2936.6675	3021.4584	3028.2237	3047.3986	3049.2822	3072.2702	3094.9635	3108.1189	3116.1943	3123.9734	3125.3211	3802.673
CC(C)(O)CCOC=O	CC(C)(O)CCOC=O	
InChI=1S/C6H12O3/c1-6(2,8)3-4-9-5-7/h5,8H,3-4H2,1-2H3	InChI=1S/C6H12O3/c1-6(2,8)3-4-9-5-7/h5,8H,3-4H2,1-2H3
