19
gdb 41038	3.39962	1.85479	1.51382	0.4961	82.33	-0.2139	0.0734	0.2873	923.6507	0.161288	-348.640062	-348.633561	-348.632617	-348.670517	28.003	
C	 0.0343937247	 1.5044896879	-0.0314333475	-0.197673
C	 1.5392946156	 1.9333113547	 0.0210932341	-0.369192
C	 2.1389900389	 0.8449117837	 0.8742519983	 0.348494
C	 3.3353998529	-0.0661803013	 1.0914802413	-0.18392
C	 2.5760300746	 0.5251409408	 2.2923614063	-0.166101
C	 1.615805943	-0.7103743864	 2.2949144308	-0.166093
C	 2.3740584821	-1.3033491156	 1.0941423342	-0.183935
C	 1.1952610959	-0.3696126754	 0.8767151631	 0.348498
C	-0.0092018362	-0.0595726423	 0.0250848758	-0.369195
H	-0.4788768394	 1.9050778724	 0.849784042	 0.107506
H	-0.4779713107	 1.9008385347	-0.9126793906	 0.095988
H	 1.9719116278	 1.9185410542	-0.9867581364	 0.10605
H	 1.6599542891	 2.9472163721	 0.4127430118	 0.103996
H	 4.3799130012	 0.0565221287	 0.8323775862	 0.079232
H	 2.9609894243	 1.1667275252	 3.075714757	 0.078533
H	 1.0906658413	-1.2397708801	 3.080685243	 0.078533
H	 2.5126535278	-2.34649565	 0.8375586994	 0.079233
H	-0.9610978352	-0.4259808871	 0.4195321412	 0.103995
H	 0.1100127122	-0.4776880561	-0.9819456601	 0.106051
161.6871	212.6215	303.6426	405.4615	524.5866	599.5581	643.2424	668.6581	748.4546	794.8802	819.3093	821.07	827.7723	845.2291	853.5907	876.0712	893.5305	907.9312	916.5567	967.4114	971.4403	983.0013	1019.4816	1033.6468	1087.4339	1156.9675	1163.6535	1173.017	1174.5908	1179.9663	1194.5022	1233.1383	1264.3486	1304.9966	1312.0815	1330.0503	1421.4832	1426.6967	1481.3779	1483.6418	1498.076	3029.974	3031.1276	3044.0892	3085.2424	3085.699	3100.532	3171.6508	3184.7758	3184.9799	3194.5004
C1CC23C4C2C2C4C32C1	C1C[C@@]23[C@H]4[C@@H]2[C@@H]2[C@H]4[C@]32C1	
InChI=1S/C9H10/c1-2-8-4-5(8)7-6(4)9(7,8)3-1/h4-7H,1-3H2	InChI=1S/C9H10/c1-2-8-4-5(8)7-6(4)9(7,8)3-1/h4-7H,1-3H2/t4-,5+,6-,7+,8+,9-
