19
gdb 71429	4.42396	1.07337	0.99404	3.4497	80.82	-0.2362	-0.0155	0.2207	1234.5967	0.158809	-385.85344	-385.845403	-385.844459	-385.886043	31.127	
C	-0.025052102	 1.4692306937	 0.0417937951	-0.505017
C	-0.0318414509	-0.029821353	 0.0002672104	 0.331008
C	-1.2227748594	-0.9530132337	-0.2566072774	-0.285928
C	-0.3157608397	-2.100980121	 0.2583906907	-0.07901
C	 0.5755740503	-1.0097671271	 0.9762881431	-0.126413
C	 1.2263555993	-0.8329225069	-0.3817521686	-0.114148
C	 0.783512342	-2.2228537939	-0.8540128838	-0.097864
C	 1.7989376274	-3.2759670141	-0.5143479146	 0.16029
O	 2.189814109	-4.1279703992	-1.2727401879	-0.265397
H	 0.9406019624	 1.8513593287	 0.3896343418	 0.121166
H	-0.2117625229	 1.8955604387	-0.9507340296	 0.12439
H	-0.7969099294	 1.8504948704	 0.7196495773	 0.12138
H	-2.0368253406	-0.7456707337	 0.4448331321	 0.100458
H	-1.6240912072	-1.0388128731	-1.2734617055	 0.093105
H	-0.7378587259	-2.9952917324	 0.7115249421	 0.083562
H	 0.9556272576	-0.8958416247	 1.9810052834	 0.094928
H	 2.1553715148	-0.327164947	-0.6137145482	 0.093624
H	 0.4456338436	-2.3572921618	-1.8860752852	 0.080556
H	 2.1824591216	-3.2175047	 0.5313437648	 0.06931
81.9199	138.7814	206.9431	243.5343	276.6968	330.046	393.7017	448.5806	500.2758	611.4478	753.8319	773.2596	819.0424	833.7258	867.2029	893.9198	921.4937	945.6942	979.8734	1002.4667	1023.7451	1036.4063	1059.4994	1077.8062	1122.0653	1139.1962	1156.3358	1171.712	1195.3489	1230.5764	1235.3751	1253.9267	1297.7474	1312.2382	1404.0821	1426.7857	1429.9229	1486.4848	1497.2616	1501.9412	1825.2304	2857.0461	3023.434	3029.0984	3068.5994	3084.5588	3089.5139	3094.9658	3139.6146	3192.4251	3223.5824
CC12CC3C1C2C3C=O	C[C@]12C[C@@H]3[C@H]1[C@H]2[C@H]3C=O	
InChI=1S/C8H10O/c1-8-2-4-5(3-9)7(8)6(4)8/h3-7H,2H2,1H3	InChI=1S/C8H10O/c1-8-2-4-5(3-9)7(8)6(4)8/h3-7H,2H2,1H3/t4-,5-,6-,7+,8-/m0/s1
