20
gdb 82230	2.43196	2.00052	1.48531	2.5154	76.74	-0.2438	0.0672	0.3109	956.369	0.175059	-403.117746	-403.110775	-403.109831	-403.148654	29.793	
O	 0.0026197514	 1.4158221687	 0.0403344578	-0.448631
C	 0.0442284381	-0.0003928305	-0.0023713947	 0.14522
C	-1.3623401504	-0.597768837	 0.0713501682	-0.074902
N	-2.3093476765	-0.0445132211	-0.9237760292	-0.352763
C	-1.8026370628	-1.4229115221	-1.0818568277	-0.023907
C	-0.7420763932	-1.673853295	-2.1483073761	-0.024427
C	-0.0368898873	-0.3474704852	-2.5365881403	-0.23081
C	 0.801495699	-0.5241459863	-1.2400904699	-0.035901
C	 0.5757879644	-2.0573034562	-1.4041253865	-0.235156
H	-0.7417200818	 1.6685867612	-0.5214538483	 0.290088
H	 0.599051537	-0.313525598	 0.8908289263	 0.079491
H	-1.7520106725	-0.80846206	 1.063050454	 0.086383
H	-3.2524536391	-0.0572731205	-0.5458611724	 0.233861
H	-2.49924345	-2.2365696332	-0.8945218977	 0.084003
H	-1.1082644143	-2.3244069569	-2.9456675446	 0.058391
H	 0.5830438347	-0.4824109922	-3.4265754026	 0.091202
H	-0.6540150276	 0.5437413231	-2.6497056299	 0.108297
H	 1.824433113	-0.1420987309	-1.2324748372	 0.064742
H	 0.4907022026	-2.6700707824	-0.5005831977	 0.086897
H	 1.3127157453	-2.5028460454	-2.0771116414	 0.097921
149.8585	241.2003	328.4822	398.6654	414.5633	420.5333	461.5261	524.3118	593.9348	681.6689	748.9326	798.611	821.5357	864.5374	894.5252	897.6795	906.714	930.7197	963.3497	978.245	1009.1815	1038.4191	1083.5991	1089.046	1101.9818	1122.5747	1140.1337	1141.5556	1165.8787	1197.9577	1245.999	1257.4948	1259.4014	1271.9693	1294.2214	1327.9697	1341.9674	1370.8484	1386.124	1437.4174	1443.8271	1478.7712	1509.8497	3031.978	3044.212	3066.1271	3078.4931	3087.05	3106.2716	3133.6923	3135.6217	3148.8949	3511.1051	3762.9974
OC1C2NC2C2CC1C2	O[C@H]1[C@H]2N[C@H]2[C@H]2C[C@@H]1C2	
InChI=1S/C7H11NO/c9-7-4-1-3(2-4)5-6(7)8-5/h3-9H,1-2H2	InChI=1S/C7H11NO/c9-7-4-1-3(2-4)5-6(7)8-5/h3-9H,1-2H2/t3-,4+,5-,6-,7+/m0/s1
