17
gdb 49107	3.6382	1.44446	1.19852	3.9052	83.41	-0.2288	-0.0808	0.148	1030.8065	0.136271	-384.605058	-384.598045	-384.5971	-384.636461	27.986	
O	-0.0571201979	 0.266598982	 0.5032111105	-0.28053
C	 0.0770012373	 1.4168760425	 0.1325435418	 0.077863
C	 1.3217345878	 1.9832034611	-0.371770667	 0.14195
C	 1.5354065269	 3.3232928758	-0.5011446831	 0.007949
C	 1.4159790707	 4.181113501	 0.7563410597	-0.26167
C	 2.9672684341	 3.8696220531	 0.8075404303	-0.068368
C	 3.5288061364	 2.5343262567	 0.1618543201	-0.042451
C	 2.6700340211	 1.2988031764	-0.1589070279	-0.317645
C	 3.0273314026	 3.6550394087	-0.6766277473	-0.109716
H	-0.784661939	 2.1207723984	 0.1291225728	 0.066864
H	 1.2942763276	 5.2587281143	 0.6061815949	 0.118389
H	 0.7541599827	 3.8227459345	 1.548269124	 0.118681
H	 3.6536015424	 4.4702093708	 1.3990422227	 0.103745
H	 4.5977807865	 2.42196248	 0.3303048362	 0.088985
H	 2.5502940619	 0.5790412818	 0.6573554792	 0.139094
H	 3.0933530616	 0.7534280945	-1.0123628094	 0.115796
H	 3.5008161073	 4.2285070283	-1.4616551275	 0.101065
104.8061	188.9899	229.1174	312.1811	414.3257	488.6062	501.6299	602.3246	670.0697	732.3144	751.6881	777.2674	812.7578	864.5111	923.0222	943.7059	959.1919	963.2822	1017.8211	1026.6091	1035.9935	1061.2717	1073.4994	1093.3555	1118.026	1164.8685	1211.086	1222.479	1254.9621	1284.3126	1300.1699	1365.0636	1409.0226	1478.1598	1499.3165	1575.2958	1754.7699	2880.5707	3022.1225	3043.4994	3083.131	3111.5645	3137.8799	3146.1551	3205.1473
O=CC1=C2CC3C(C1)C23	O=C[C]1[C]2C[C@H]3[C@@H](C1)[C@@H]23	
InChI=1S/C8H8O/c9-3-4-1-6-7-2-5(4)8(6)7/h3,6-8H,1-2H2	InChI=1S/C8H8O/c9-3-4-1-6-7-2-5(4)8(6)7/h3,6-8H,1-2H2/t6-,7+,8-/m1/s1
