15
gdb 23087	3.19686	1.30547	1.17107	3.0891	69.49	-0.2233	0.0185	0.2418	1062.1568	0.112347	-453.803915	-453.796379	-453.795435	-453.835791	29.576	
O	-0.1669402977	 1.3247080148	 0.0453117671	-0.401978
N	-0.0235475878	-0.082461666	 0.0701630756	-0.307427
C	-1.1529552848	-0.6508888446	 0.0831299488	 0.55366
C	-1.5446299497	-2.0713267843	-0.0650759098	-0.210323
C	-2.9466809133	-2.1624665899	 0.6067500905	-0.133857
N	-3.1687134061	-0.8483124167	 1.2422177518	-0.302652
C	-2.6136940201	-0.2379976152	-0.0167279639	-0.248965
C	-2.8204595045	-1.6476169739	-0.7963999742	 0.340564
O	-3.1938520731	-2.031837054	-2.0505778324	-0.434898
H	 0.7509569702	 1.6150055346	 0.0411991307	 0.304861
H	-0.9377405173	-2.9480677382	-0.2390185578	 0.113609
H	-3.304876018	-3.1010346879	 1.0107121267	 0.109914
H	-4.1741373967	-0.6778445588	 1.2557159189	 0.217642
H	-2.9204287346	 0.7660011493	-0.2911756042	 0.103509
H	-4.1451089865	-1.9024050892	-2.1457235878	 0.296338
102.8553	195.0104	265.0032	316.1738	329.3606	370.3342	387.2954	484.991	558.5904	594.8772	669.2126	708.5168	723.6475	810.5294	868.5283	887.3241	918.4447	954.7907	976.1099	998.9258	1026.4859	1068.3419	1088.6203	1121.9459	1162.6708	1184.2797	1217.3342	1297.4762	1310.0738	1348.5769	1415.4742	1467.0452	1806.423	3185.1307	3200.9909	3233.3151	3456.7523	3779.1766	3824.2167
ON=C1C2C3NC1C23O	ON=C1[C@H]2[C@H]3N[C@@H]1[C@@]23O	
InChI=1S/C5H6N2O2/c8-5-1-2(7-9)4(5)6-3(1)5/h1,3-4,6,8-9H	InChI=1S/C5H6N2O2/c8-5-1-2(7-9)4(5)6-3(1)5/h1,3-4,6,8-9H/t1-,3+,4-,5+/m0/s1
