22
gdb 122808	3.76973	0.583	0.5244	2.5607	81.11	-0.2628	0.0338	0.2966	2123.6973	0.192145	-441.490726	-441.479505	-441.478561	-441.529	38.494	
C	 0.7027618998	 0.2453591861	 0.661919487	-0.378
C	-0.2686349985	 0.2966088506	-0.5273058372	-0.235702
C	 0.3764782062	-0.1196088968	-1.8245556076	 0.40565
N	 0.5282812033	 0.6923925767	-2.7878297983	-0.52651
O	 0.7446656461	-1.4308469668	-1.7630202063	-0.243251
C	 1.3990329491	-2.0043262296	-2.8904045238	-0.091697
C	 1.7093845801	-3.4552467838	-2.5545505876	-0.190007
C	 2.4133947185	-4.1783454209	-3.6962423801	-0.073896
O	 2.6483425835	-5.5111118173	-3.2739114302	-0.417439
H	 1.0972328112	-0.7643715628	 0.80086849	 0.129333
H	 1.5472663475	 0.9236691298	 0.505026431	 0.124609
H	 0.1957648606	 0.5451349057	 1.5835451443	 0.115964
H	-1.1165574305	-0.3711409792	-0.3340069698	 0.114143
H	-0.657726307	 1.3063944811	-0.668714475	 0.125873
H	 0.9860296128	 0.2699652245	-3.5943553324	 0.213298
H	 0.7471722724	-1.9356268961	-3.7731707052	 0.109462
H	 2.3198296467	-1.4450937893	-3.1102135616	 0.109494
H	 2.3406656057	-3.4960008449	-1.6609916435	 0.121786
H	 0.7793728687	-3.9815467826	-2.3163743621	 0.122311
H	 1.7851104368	-4.1506969722	-4.6019614704	 0.088227
H	 3.3575901295	-3.6639600969	-3.9407793554	 0.088167
H	 3.0932451575	-5.9794523053	-3.9861430957	 0.288185
41.4298	50.1254	70.3826	100.4841	125.4164	152.7768	210.6936	244.4136	266.9717	274.139	330.9902	462.0352	478.9295	591.1582	688.0001	778.8706	799.3696	855.7732	864.0477	903.2805	960.2098	1028.6367	1037.6004	1065.1043	1091.2182	1099.142	1122.7353	1139.1867	1176.3362	1229.9767	1244.3088	1275.714	1306.3763	1307.4691	1317.2095	1330.0467	1362.1169	1406.0085	1430.8395	1468.061	1475.2063	1496.7509	1497.8965	1510.201	1520.9775	1532.9417	1730.2115	2956.7231	2981.7622	2991.3276	3028.4864	3042.6047	3045.07	3054.7569	3102.8562	3109.6648	3115.1656	3133.0973	3496.1125	3832.33
CCC(=N)OCCCO	CC[C]([NH])OCCCO	
InChI=1S/C6H13NO2/c1-2-6(7)9-5-3-4-8/h7-8H,2-5H2,1H3	InChI=1S/C6H13NO2/c1-2-6(7)9-5-3-4-8/h7-8H,2-5H2,1H3
