15
gdb 25681	6.09958	0.75428	0.6741	4.0192	83.85	-0.1905	-0.0046	0.1859	1603.8453	0.112957	-416.851875	-416.842981	-416.842037	-416.888111	31.265	
C	-0.0857016709	 1.4736516531	 0.0119088702	-0.507288
C	 0.0003618446	 0.0224849004	 0.0112057918	 0.145674
C	 0.0816822865	-1.1823523842	 0.0122594293	-0.023493
C	 0.1381230307	-2.5863533687	 0.0070997063	 0.202503
C	 1.1894752087	-3.4322769382	 0.1737077657	-0.219458
N	 0.707706881	-4.7262722134	 0.0799049744	-0.324131
C	-0.6689740517	-4.7457651639	-0.1499506316	 0.437965
O	-1.3942830069	-5.7096760891	-0.2809422682	-0.431349
N	-0.9910516137	-3.3985051614	-0.1897036037	-0.429897
H	 0.5469192291	 1.9130589739	-0.7677196809	 0.15348
H	-1.1140952969	 1.8032470156	-0.1720412072	 0.154635
H	 0.2293286873	 1.8937810225	 0.9738839925	 0.153397
H	 2.2264535858	-3.2065734442	 0.3490396788	 0.144881
H	 1.240948273	-5.5737430155	 0.1600755244	 0.272509
H	-1.9278598867	-3.069888757	-0.3425394818	 0.270573
6.4878	87.4072	93.2066	192.8508	281.9478	298.1319	402.0146	440.5872	446.902	468.1598	512.7883	569.832	648.6109	732.3985	745.3548	759.6503	923.0241	985.4028	1048.4202	1050.0384	1051.8315	1098.6998	1191.6055	1286.1741	1350.1205	1399.7659	1408.2899	1415.393	1472.3123	1477.3646	1651.5413	1849.0904	2352.5984	3024.1383	3082.258	3089.9043	3293.3789	3696.3265	3698.2978
CC#CC1=CNC(=O)N1	CC#Cc1c[nH]c(=O)[nH]1	
InChI=1S/C6H6N2O/c1-2-3-5-4-7-6(9)8-5/h4H,1H3,(H2,7,8,9)	InChI=1S/C6H6N2O/c1-2-3-5-4-7-6(9)8-5/h4H,1H3,(H2,7,8,9)
