14
gdb 8379	5.26884	1.36162	1.25274	4.7512	58.66	-0.2727	0.01	0.2826	947.8131	0.105884	-419.675763	-419.668574	-419.66763	-419.70724	26.856	
O	 0.0516748842	 1.4437052937	 0.2085198737	-0.417366
C	 0.0541514809	 0.0561644916	 0.0747307855	 0.018697
C	-0.5327242086	-0.8256764777	 1.1776017382	-0.396679
C	-1.2740553457	-0.5770857623	-0.0931204461	 0.437773
C	-2.6230005459	 0.0606853111	-0.3674129552	-0.484898
C	-2.7519909443	-1.0874396743	-1.3742125481	 0.434455
O	-3.5376256065	-1.4942053944	-2.1647257309	-0.30902
O	-1.5130546489	-1.6175906293	-1.0709567833	-0.262996
H	 0.7510790656	 1.6896607555	 0.8234998272	 0.295404
H	 0.8769155141	-0.3707320958	-0.4987714871	 0.110572
H	-0.0851675281	-1.802312782	 1.3274629044	 0.136686
H	-0.9062739797	-0.3377322209	 2.0723096155	 0.128898
H	-3.354138983	 0.0298022331	 0.442134164	 0.146861
H	-2.5969159941	 1.0568892218	-0.8112511678	 0.161613
97.5213	165.267	221.2235	291.9316	357.9315	439.4991	465.9563	515.4807	526.0673	583.3183	788.602	820.6756	876.8263	900.6878	949.8837	1002.3501	1015.4939	1047.6473	1052.7695	1098.5416	1143.984	1175.2083	1204.4567	1241.0773	1293.1357	1353.1125	1419.7303	1455.5752	1512.4673	1950.4334	3091.7438	3109.3328	3130.7448	3149.5045	3225.6441	3804.0132
OC1CC11CC(=O)O1	O[C@H]1C[C@]21CC(=O)O2	
InChI=1S/C5H6O3/c6-3-1-5(3)2-4(7)8-5/h3,6H,1-2H2	InChI=1S/C5H6O3/c6-3-1-5(3)2-4(7)8-5/h3,6H,1-2H2/t3-,5+/m0/s1
