17
gdb 112988	2.08747	1.40035	1.03779	1.5626	71.25	-0.2581	-0.0558	0.2023	1208.9959	0.13257	-458.967729	-458.95847	-458.957526	-459.002807	32.166	
C	-0.0746264819	 1.3310924372	-0.505925428	-0.387154
C	-0.0770863428	-0.1776672745	-0.2442042506	-0.193786
C	-1.4326032354	-0.6650554104	 0.2531426199	 0.019671
O	-2.490732722	-0.5386473306	-0.7385650375	-0.282124
C	-2.7135516679	-1.9417634156	-0.8542473756	-0.085399
C	-2.3327050163	-2.5445382257	-2.1927720856	 0.14122
O	-1.7481811665	-1.9515353127	-3.058561934	-0.229173
C	-1.6580958831	-2.1804052059	 0.2681593869	 0.320482
O	-1.2320398249	-3.1191995507	 0.8603055735	-0.264993
H	 0.8970158029	 1.6557416485	-0.8883736415	 0.121727
H	-0.8364994405	 1.5897012414	-1.2460262802	 0.146552
H	-0.2829175119	 1.8947046333	 0.4100734728	 0.116086
H	 0.1734101924	-0.7167721966	-1.1639756963	 0.126547
H	 0.6722201712	-0.4466236984	 0.5101727454	 0.115877
H	-1.7138941773	-0.1694945224	 1.1927951573	 0.11213
H	-3.7315470384	-2.2528407142	-0.5792948004	 0.126714
H	-2.6199545876	-3.6148529928	-2.290544906	 0.095624
54.192	80.5434	107.0163	143.6634	202.6516	226.642	268.9505	293.8521	410.3201	524.6006	571.8923	653.7181	776.8189	777.6894	835.2503	867.0591	898.8163	965.9415	987.6676	1041.5976	1058.8014	1095.5425	1114.0391	1134.6253	1167.6336	1253.8886	1275.494	1299.7329	1341.6987	1388.9576	1408.4157	1411.1041	1472.0045	1495.7909	1507.3952	1827.5747	1925.2226	2890.9182	3015.5264	3020.5725	3038.252	3039.8126	3083.4747	3110.0533	3126.2873
CCC1OC(C=O)C1=O	CC[C@H]1O[C@@H](C=O)C1=O	
InChI=1S/C6H8O3/c1-2-4-6(8)5(3-7)9-4/h3-5H,2H2,1H3	InChI=1S/C6H8O3/c1-2-4-6(8)5(3-7)9-4/h3-5H,2H2,1H3/t4-,5+/m1/s1
