15
gdb 75129	3.30784	1.34036	1.05563	3.8274	63.63	-0.2421	0.001	0.2432	1091.2409	0.114197	-491.121482	-491.113666	-491.112722	-491.154123	29.165	
N	 0.2086423829	 1.3361743334	 0.5594505954	-0.537473
C	 0.0786222812	 0.0977143899	-0.0214552447	 0.44813
N	-0.9960275559	-0.5665538568	 0.0635281866	-0.333792
C	-1.2467875875	-1.874828305	-0.4977273392	-0.308887
C	-0.1080088081	-2.9012038621	-0.5099702612	 0.402239
O	-0.2084687957	-4.0119940064	-0.080090845	-0.300547
O	 1.0876411497	-2.5105879622	-1.0579539975	-0.212563
C	 1.1843623951	-1.2302014707	-1.6328593978	 0.008517
O	 1.2512470585	-0.2052286023	-0.6730209745	-0.243976
H	 1.1535063343	 1.6448407425	 0.7243211875	 0.263453
H	-0.4481671396	 1.5166457151	 1.3016449708	 0.267973
H	-2.0361994331	-2.3511882389	 0.0878694732	 0.146453
H	-1.6417276329	-1.7984601085	-1.5232638513	 0.13157
H	 2.1387380731	-1.2085866316	-2.1575167621	 0.143993
H	 0.3610679681	-1.0442343267	-2.3310679403	 0.124909
84.5799	101.4637	216.3068	318.3104	338.2914	384.08	416.7627	432.88	518.4355	542.0276	562.6658	713.1877	730.0954	740.5623	803.5978	839.6535	980.8268	996.5613	1061.4423	1111.3464	1140.443	1203.5476	1252.8212	1278.0826	1315.2173	1348.5632	1369.4062	1454.5021	1482.6484	1519.9351	1619.1065	1790.8393	1866.8822	2980.9673	3051.0237	3098.0628	3149.8256	3596.3576	3715.5063
NC1=NCC(=O)OCO1	NC1=NCC(=O)OCO1	
InChI=1S/C4H6N2O3/c5-4-6-1-3(7)8-2-9-4/h1-2H2,(H2,5,6)	InChI=1S/C4H6N2O3/c5-4-6-1-3(7)8-2-9-4/h1-2H2,(H2,5,6)
