21
gdb 116277	1.8979	1.48119	0.90584	2.3594	79.53	-0.2458	-0.0226	0.2232	1329.656	0.182015	-424.247464	-424.237977	-424.237033	-424.282868	34.155	
C	-0.0613140789	 1.5959838147	-0.0148072851	-0.392338
C	 0.0047024997	 0.0670608021	 0.0346267478	-0.202829
C	-1.3746495041	-0.5790846512	-0.0062233822	 0.122427
O	-1.9984702061	-0.3036628792	-1.2512850404	-0.248042
C	-3.1284482694	-1.153797704	-1.3225311747	-0.077326
C	-2.6569970228	-2.5107193992	-0.7548222876	-0.262921
C	-1.4427757993	-2.1375376901	 0.1410624153	-0.103172
C	-0.1831333259	-2.8171738362	-0.3472499349	 0.160603
O	 0.5950686041	-3.4098235125	 0.3551437259	-0.261075
H	 0.9411914922	 2.0327117406	 0.0110912108	 0.114252
H	-0.5593760871	 1.9315948055	-0.92802786	 0.136734
H	-0.6216356813	 1.9934780389	 0.8389241287	 0.113474
H	 0.5996994197	-0.3058184042	-0.807072073	 0.108783
H	 0.5114540121	-0.2633471461	 0.9490386508	 0.113289
H	-1.990743818	-0.1558442492	 0.8075194588	 0.069214
H	-3.954936676	-0.7484365287	-0.7167680248	 0.093593
H	-3.454577667	-1.1995036748	-2.3641717378	 0.112581
H	-3.4390729909	-3.0254308748	-0.1933501596	 0.116155
H	-2.3454501231	-3.1758740159	-1.5671151262	 0.113419
H	-1.5793772886	-2.415836178	 1.1880308444	 0.093187
H	-0.0169301393	-2.7371862276	-1.4473758063	 0.079991
45.6552	66.8615	103.5548	167.8035	197.6181	241.2691	285.6337	330.9897	406.3746	426.3102	489.3881	651.2107	708.0996	777.547	834.4622	872.99	917.0811	945.7722	955.2368	978.3134	1027.3662	1036.0633	1061.8901	1100.2422	1134.0397	1151.9343	1169.5244	1218.692	1245.1707	1267.6937	1283.6297	1310.8055	1319.6508	1346.1737	1354.9128	1397.1623	1408.0844	1417.2137	1427.2308	1473.6521	1492.2167	1496.3356	1508.0727	1518.7621	1828.4846	2855.2304	2934.5327	2975.5106	3035.2623	3037.717	3049.5967	3072.9003	3092.2281	3100.4219	3104.4167	3115.6286	3124.8509
CCC1OCCC1C=O	CC[C@H]1OCC[C@H]1C=O	
InChI=1S/C7H12O2/c1-2-7-6(5-8)3-4-9-7/h5-7H,2-4H2,1H3	InChI=1S/C7H12O2/c1-2-7-6(5-8)3-4-9-7/h5-7H,2-4H2,1H3/t6-,7+/m0/s1
