14
gdb 44042	3.43748	1.80172	1.54125	3.6517	66.07	-0.2452	-0.029	0.2162	850.0558	0.101409	-436.532925	-436.52678	-436.525835	-436.56334	24.861	
O	-0.1419918334	 0.162005901	-0.5553770452	-0.291265
C	-0.0030159086	 1.2404565408	-0.094360123	 0.376061
O	-1.0125359834	 2.0819445665	 0.4260953045	-0.274181
C	-0.0102896503	 3.0098275636	 0.9105037871	 0.302588
C	 0.7410792646	 2.9386634639	 2.2398684114	-0.310283
C	 1.8361374434	 3.2000084396	 1.1770064029	-0.098849
C	 0.897394395	 4.1305882949	 0.2789703333	-0.073007
N	 1.215544259	 3.3835213112	-0.9656131474	-0.353409
C	 1.0901668597	 2.3235157551	 0.1006159002	 0.04595
H	 0.555364339	 3.7275979182	 2.9711074971	 0.116048
H	 0.782071319	 1.9564972225	 2.7180100437	 0.122208
H	 2.9109375387	 3.3292530812	 1.3051934123	 0.112411
H	 0.8108114543	 5.219341524	 0.3211598023	 0.099637
H	 0.398318633	 3.3703056378	-1.5838443394	 0.226092
131.0111	312.7293	332.2222	379.6132	491.6618	530.6099	631.3416	677.9893	723.6642	779.1069	800.4966	871.0815	890.6487	900.8222	909.1627	973.4452	992.6684	1025.8599	1042.9611	1057.7443	1101.4859	1131.006	1153.9016	1171.5126	1198.6343	1216.5442	1251.8364	1284.0796	1299.2626	1509.4667	1937.8725	3066.0231	3083.4734	3123.7501	3130.3684	3399.4411
O=C1OC23CC4C2NC134	O=C1O[C@]23C[C@@H]4[C@H]2N[C@]134	
InChI=1S/C6H5NO2/c8-4-6-2-1-5(6,9-4)3(2)7-6/h2-3,7H,1H2	InChI=1S/C6H5NO2/c8-4-6-2-1-5(6,9-4)3(2)7-6/h2-3,7H,1H2/t2-,3-,5-,6-/m1/s1
