16
gdb 25745	2.6849	1.52169	0.98301	2.2781	73.37	-0.2479	-0.0434	0.2046	1155.8082	0.123349	-437.954352	-437.945699	-437.944755	-437.988205	30.583	
C	 0.0023442323	 1.5418828701	-0.0753569538	-0.475553
C	 0.0031275689	 0.0334775656	 0.0503709772	 0.304285
O	 0.0049658432	-0.5280408183	 1.130856173	-0.323945
C	 0.0018394681	-0.7337970755	-1.2118729921	 0.075569
C	 0.0026104865	-2.0928931665	-1.3758512737	 0.287832
C	 0.005580413	-3.2530190371	-0.4554372831	-0.505881
O	 0.0004080898	-2.3358491462	-2.7175982362	-0.171312
C	-0.0014683576	-1.1060190764	-3.2996631027	 0.055639
N	-0.0007581255	-0.1234403382	-2.4702959138	-0.308608
H	 0.8799475704	 1.8765147183	-0.6376682876	 0.148743
H	-0.8708282613	 1.876003338	-0.6446127063	 0.148797
H	-0.0011978172	 1.9847614087	 0.920848405	 0.133632
H	-0.8734362269	-3.8858272076	-0.6208214609	 0.145534
H	 0.893165523	-3.8757592353	-0.6136849572	 0.145696
H	 0.000054657	-2.8829349571	 0.5692729219	 0.183068
H	-0.0034416338	-1.0829903226	-4.3779836797	 0.156505
68.7084	120.012	126.4367	184.2041	190.6995	266.872	299.9407	406.7105	492.318	570.8977	637.7345	653.9151	696.5073	738.2149	838.6139	938.1573	957.4719	979.4188	1044.8065	1069.3934	1087.5102	1117.5716	1185.0455	1239.5131	1328.3696	1368.7755	1387.4024	1408.8189	1456.219	1466.9367	1473.2818	1488.1662	1572.4008	1624.0163	1770.1933	3036.6391	3047.9217	3089.0436	3109.8645	3159.281	3167.8156	3278.0552
CC(=O)C1=C(C)OC=N1	CC(=O)c1c(C)ocn1	
InChI=1S/C6H7NO2/c1-4(8)6-5(2)9-3-7-6/h3H,1-2H3	InChI=1S/C6H7NO2/c1-4(8)6-5(2)9-3-7-6/h3H,1-2H3
