16
gdb 55994	3.38272	0.97587	0.88082	2.318	67.36	-0.2455	-0.0273	0.2182	1331.8535	0.123096	-475.071018	-475.062187	-475.061243	-475.105938	31.635	
N	-0.0890631487	 1.3447449539	 0.0415271345	-0.562841
C	 0.1031082562	-0.0009298608	 0.1123564409	 0.499188
O	 1.1279861246	-0.5524946442	 0.4324478229	-0.38886
O	-1.065357992	-0.6397265704	-0.201658829	-0.264809
C	-1.0400748009	-2.0488983622	-0.1782056436	 0.039545
C	-2.0736790567	-2.7918679033	 0.7161019379	-0.270087
C	-2.3576673311	-3.7839053066	-0.4524904838	-0.343471
C	-1.6717016336	-2.7678810784	-1.3874000995	 0.368314
O	-1.7309701742	-2.5270735542	-2.555641529	-0.287733
H	 0.7369440245	 1.9172491539	 0.0631826933	 0.27342
H	-0.9006534967	 1.6945043707	-0.4387627922	 0.2705
H	-0.0174578328	-2.3957893344	 0.0016765964	 0.146407
H	-1.6907060391	-3.2097072983	 1.6469383304	 0.120018
H	-2.9351716452	-2.1543957497	 0.925306152	 0.126322
H	-1.7928770375	-4.7182518072	-0.3792893687	 0.137807
H	-3.397512307	-4.0180952988	-0.6876464625	 0.136276
32.4187	77.152	108.301	174.2561	245.6083	345.6164	359.2176	394.4412	484.5569	526.0876	571.2421	640.0065	692.1557	747.0917	776.7586	799.2092	909.2643	917.2667	968.973	1019.7936	1061.2614	1092.9535	1118.7325	1164.85	1186.4832	1225.0323	1245.9214	1269.2607	1334.4358	1388.5647	1446.2915	1489.7793	1611.9723	1843.1543	1900.6288	3066.7747	3073.5335	3085.3225	3126.7857	3149.0788	3616.2611	3746.5165
NC(=O)OC1CCC1=O	NC(=O)O[C@H]1CCC1=O	
InChI=1S/C5H7NO3/c6-5(8)9-4-2-1-3(4)7/h4H,1-2H2,(H2,6,8)	InChI=1S/C5H7NO3/c6-5(8)9-4-2-1-3(4)7/h4H,1-2H2,(H2,6,8)/t4-/m0/s1
