20
gdb 77555	3.02928	1.34719	1.11821	3.3559	81.66	-0.2192	-0.0302	0.189	1156.452	0.168654	-403.086898	-403.077757	-403.076812	-403.120441	34.518	
C	-0.0958390924	 1.450393342	-0.255872417	-0.348423
N	-0.0423207239	 0.0069945375	-0.0357571582	-0.147825
C	-0.6335793152	-0.5741127286	 1.2513883272	 0.34504
C	-2.1011249055	-0.5098693659	 1.5572031645	-0.515709
C	 0.2369167399	-1.8281887075	 0.9504090085	-0.291144
C	 1.1264204339	-0.5677837031	 0.7267478615	 0.25607
C	 0.5665875307	-0.0210473508	 2.0841825578	-0.328939
C	 2.5345370425	-0.5167905396	 0.2497503877	 0.039896
O	 2.9027246791	 0.078436616	-0.7323381654	-0.251308
H	 0.6202161537	 1.6967706351	-1.0432614375	 0.148256
H	-1.0984203262	 1.7056098566	-0.61425356	 0.118291
H	 0.1231358924	 2.0900962542	 0.6133161909	 0.093102
H	-2.6796056222	-0.9652901924	 0.7473020149	 0.134576
H	-2.3254925825	-1.0441969374	 2.4858753005	 0.125604
H	-2.434298143	 0.5265833377	 1.6757097899	 0.127171
H	 0.4903591467	-2.4719857236	 1.7941516485	 0.096884
H	-0.0197983754	-2.3722100097	 0.0411761017	 0.113115
H	 0.6230654413	 1.0559451218	 2.2393866645	 0.111343
H	 0.8383785436	-0.562578042	 2.9943148454	 0.099286
H	 3.2521895725	-1.0771635703	 0.8933131447	 0.074715
85.3634	148.8512	173.5634	196.0772	211.0573	214.5377	331.1894	359.6944	385.7461	460.6383	541.4566	589.0863	622.7989	704.6964	738.3487	774.0429	831.4017	899.2318	956.0848	987.973	1004.6042	1033.3677	1086.2167	1101.6847	1133.2175	1140.6394	1160.6031	1167.1514	1178.1879	1200.6461	1204.284	1268.7102	1354.8872	1410.9767	1421.1045	1437.8505	1468.8661	1483.1076	1489.1042	1495.964	1502.0075	1535.2024	1815.4192	2860.5854	2978.1786	3034.0464	3063.9335	3070.9237	3078.4318	3103.0437	3110.1853	3122.7761	3142.8252	3159.7833
CN1C2(C)CC1(C2)C=O	CN1[C@@]2(C)C[C@@]1(C2)C=O	
InChI=1S/C7H11NO/c1-6-3-7(4-6,5-9)8(6)2/h5H,3-4H2,1-2H3	InChI=1S/C7H11NO/c1-6-3-7(4-6,5-9)8(6)2/h5H,3-4H2,1-2H3/t6-,7+
