23
gdb 62638	2.71667	1.61665	1.18502	0.1949	90.65	-0.2751	0.0958	0.3709	1149.0343	0.20441	-351.092482	-351.083401	-351.082457	-351.125493	36.159	
C	-0.1388112113	 1.6709493527	 0.3625567953	-0.451939
C	-0.1968219327	 0.1422722594	 0.2912755365	 0.32679
C	-1.6471458827	-0.2900685506	 0.0782197356	-0.468693
C	 0.926124969	-0.5439910133	-0.5392332586	-0.124796
C	 2.0008827372	-0.2670996208	 0.569897431	-0.046613
C	 2.4908506344	-1.7168812958	 0.5757255734	-0.312878
C	 0.9669143165	-1.8430107057	 0.365536907	 0.352441
C	 0.2529432235	-3.1634158769	 0.2150084355	-0.527394
C	 0.6746988969	-0.6214723446	 1.3299480996	-0.124753
H	 0.8748359283	 2.0492463676	 0.5142633844	 0.111034
H	-0.5258465634	 2.1159506981	-0.5617960787	 0.109303
H	-0.7602518633	 2.0433018644	 1.1856160616	 0.10931
H	-2.0439505696	 0.1438243859	-0.8475548297	 0.110505
H	-1.7744942381	-1.3704860856	 0.0161116928	 0.115221
H	-2.2788628448	 0.0711495006	 0.8987249105	 0.110504
H	 1.09948421	-0.5099044879	-1.61858841	 0.056265
H	 2.5845549274	 0.6450518065	 0.6861973923	 0.069486
H	 3.1271576878	-2.0287404547	-0.2604683976	 0.083863
H	 2.8874153686	-2.102590933	 1.5219433852	 0.083863
H	 0.4198994402	-3.7838492668	 1.1034423857	 0.118649
H	-0.8256714846	-3.0729219437	 0.0737240951	 0.124925
H	 0.6549891022	-3.7117492597	-0.645117014	 0.118645
H	 0.5568399485	-0.6771073663	 2.4158767671	 0.05626
105.1892	162.2357	173.9513	220.0825	242.1755	308.3957	309.5784	338.4488	376.266	462.1744	513.5265	603.8416	656.5359	725.1361	810.9999	826.408	857.3301	859.4908	890.4856	939.9265	958.9705	962.0102	980.8742	1010.2922	1018.5928	1046.122	1063.0529	1110.6685	1142.4573	1147.9924	1156.2923	1170.4457	1176.7994	1217.6345	1220.9368	1236.4071	1289.8188	1313.2977	1347.6768	1399.3399	1411.9578	1423.8184	1477.0433	1482.3132	1488.8487	1495.382	1507.7372	1509.2056	1512.9705	3022.2362	3023.4628	3027.5137	3029.9792	3068.3849	3073.7024	3075.3797	3076.6396	3081.992	3082.5117	3111.2534	3117.1663	3123.556	3150.5694
CC1(C)C2C3CC2(C)C13	CC1(C)[C@H]2[C@@H]3C[C@@]2(C)[C@H]13	
InChI=1S/C9H14/c1-8(2)6-5-4-9(6,3)7(5)8/h5-7H,4H2,1-3H3	InChI=1S/C9H14/c1-8(2)6-5-4-9(6,3)7(5)8/h5-7H,4H2,1-3H3/t5-,6+,7-,9+
