20
gdb 53657	5.42512	0.53327	0.50775	3.9794	87.36	-0.2395	0.0279	0.2674	2167.9539	0.168464	-403.153329	-403.142171	-403.141226	-403.192643	37.052	
C	-0.0436805289	 1.4886188974	 0.0140982098	-0.496788
C	-0.0027255723	 0.0345399006	 0.0777094654	 0.093332
C	 0.048193104	-1.1671975256	 0.1341671516	 0.041187
C	 0.0581123347	-2.6233355744	 0.1875903159	-0.353067
C	-1.333453057	-3.2216339222	-0.1308835255	-0.174441
N	-1.3664968931	-4.669624796	-0.0761037168	-0.02531
C	-1.3466102478	-5.3301654651	 1.2182955779	-0.351719
C	-1.435848854	-5.4193673947	-1.2152418599	 0.148957
O	-1.460104525	-6.6308664695	-1.2650096271	-0.340625
H	 0.6467534803	 1.8734049121	-0.7445044311	 0.149842
H	-1.0471428438	 1.8474229484	-0.2401679883	 0.148686
H	 0.2346363366	 1.9376908239	 0.9738557982	 0.149184
H	 0.7854949689	-3.0295104441	-0.5266214496	 0.134317
H	 0.3821260198	-2.9585282218	 1.1806048672	 0.13206
H	-2.0707167662	-2.8115511406	 0.5698224078	 0.119637
H	-1.6334135942	-2.9056326885	-1.1343227609	 0.128965
H	-2.1624544443	-4.9591010171	 1.8498357524	 0.125263
H	-1.4731514038	-6.3989861005	 1.0455381899	 0.170545
H	-0.3993453483	-5.1651174414	 1.744194334	 0.127898
H	-1.4734957455	-4.7804230808	-2.1197309909	 0.072079
13.9197	43.699	60.2871	79.8999	116.6619	166.0188	214.4119	276.3233	313.5104	334.497	365.2908	388.7799	411.1982	475.2037	692.7647	769.5284	793.984	883.8976	1012.6813	1029.5288	1044.1652	1054.0064	1062.0638	1091.1574	1156.3056	1169.2172	1198.5989	1279.5489	1303.2126	1314.4719	1395.8177	1415.4335	1429.9735	1439.0787	1442.3782	1475.7629	1478.3107	1478.8932	1490.297	1499.1215	1520.932	1796.4139	2374.0559	2934.4248	3020.0351	3024.6239	3027.137	3034.6217	3054.152	3074.5839	3087.824	3088.2934	3094.6803	3155.6344
CC#CCCN(C)C=O	CC#CCCN(C)C=O	
InChI=1S/C7H11NO/c1-3-4-5-6-8(2)7-9/h7H,5-6H2,1-2H3	InChI=1S/C7H11NO/c1-3-4-5-6-8(2)7-9/h7H,5-6H2,1-2H3
