14
gdb 123677	4.28555	1.59024	1.38976	3.4227	66.44	-0.257	-0.0121	0.2449	890.9846	0.10378	-436.614006	-436.60829	-436.607346	-436.644032	23.486	
C	-0.0603148309	 1.5896936806	-0.0558086141	-0.224608
C	 1.4806939743	 1.349921087	 0.01782277	-0.100471
O	 1.1785914473	 0.1759759884	 0.8649158903	-0.285515
C	-0.009043129	 0.0313807409	 0.0040359746	-0.066099
C	 0.6754707998	-0.2811219392	-1.3150127606	 0.431469
N	 0.6490277696	-1.0501049489	-2.355896517	-0.279985
O	 1.7639829769	-0.6132750718	-3.1122952781	-0.18345
C	 2.3921249059	 0.4033741585	-2.4568651048	-0.144111
C	 1.7456642505	 0.6643412796	-1.3072961546	 0.242211
H	-0.4496996824	 2.0099461991	 0.872771453	 0.124403
H	-0.480399583	 2.0765401319	-0.9383111716	 0.118282
H	 2.1864153978	 2.0510159335	 0.455107434	 0.102354
H	-0.7960283542	-0.5996476594	 0.4070521041	 0.111606
H	 3.2600492874	 0.79876825	-2.9602753752	 0.153914
171.817	305.119	432.5027	477.3105	568.2164	578.3104	685.2101	700.0996	764.4246	828.8626	833.4312	840.7881	850.4195	892.3489	923.0201	960.4156	1010.6769	1035.8061	1056.6787	1079.9211	1133.1975	1164.868	1223.8551	1251.4817	1260.9308	1266.264	1279.3262	1374.6051	1481.0663	1598.2021	1692.0203	3074.3892	3149.1032	3166.0522	3174.2148	3269.2234
C1C2OC1C1=NOC=C21	C1[C@H]2O[C@@H]1c1nocc21	
InChI=1S/C6H5NO2/c1-4-3-2-8-7-6(3)5(1)9-4/h2,4-5H,1H2	InChI=1S/C6H5NO2/c1-4-3-2-8-7-6(3)5(1)9-4/h2,4-5H,1H2/t4-,5+/m1/s1
