21
gdb 73982	2.93518	1.51297	1.34353	0.6674	91.16	-0.1958	-0.0227	0.1731	1086.6732	0.181923	-349.870123	-349.861717	-349.860773	-349.902518	33.332	
C	-0.1710735528	 1.3765216547	-0.3866564568	-0.470489
C	-0.0594631792	 0.0363339324	 0.2669318698	 0.262562
C	-1.0939893397	-0.8189062888	 0.4544573089	-0.09716
C	-1.782400311	-1.2964797643	-0.8408976371	-0.265697
C	-0.7330030836	-2.4549327157	-0.7175773287	-0.114748
C	 0.6614001524	-2.1672079691	-0.0112700549	-0.091859
C	 1.2437764641	-0.7625994714	 0.2112044964	-0.313699
C	-0.5999849728	-2.2508256206	 0.7671991703	 0.322426
C	-0.979199102	-3.1175990567	 1.9291964599	-0.514444
H	 0.3479343045	 1.4021630151	-1.3549669585	 0.120453
H	-1.2162096778	 1.660366166	-0.5385622022	 0.124999
H	 0.2948687625	 2.1563023292	 0.2306651744	 0.12776
H	-2.7914678979	-1.7143033732	-0.7430278508	 0.101004
H	-1.74896501	-0.616138174	-1.6977189989	 0.095519
H	-0.8389030068	-3.4155415258	-1.2197748626	 0.080422
H	 1.328418881	-3.0279449187	-0.056768835	 0.07024
H	 1.8494967463	-0.3758044838	-0.6184443803	 0.104119
H	 1.8907451026	-0.7504028576	 1.1009183084	 0.104266
H	-0.5658848634	-2.7311128757	 2.8681869308	 0.119851
H	-2.0671557566	-3.1752415434	 2.0489312319	 0.119202
H	-0.6025264498	-4.1371307887	 1.7938788549	 0.115273
126.7601	170.9093	191.2771	203.5217	255.7816	268.0586	383.7249	468.1262	495.2715	532.4925	605.5797	634.2965	733.396	787.1723	846.5663	869.7425	897.6585	908.2131	941.5983	964.5521	966.922	1006.1442	1024.9995	1034.8992	1057.3182	1073.4709	1103.9469	1137.5485	1173.5977	1183.2404	1210.5172	1235.5386	1245.7102	1290.8493	1310.9683	1402.4962	1411.018	1449.1605	1465.5106	1477.5583	1485.5731	1486.394	1498.4216	1506.8592	1613.4541	2991.774	3004.177	3020.3061	3022.9582	3038.9623	3048.6592	3078.7729	3080.1329	3092.5772	3106.6289	3111.3444	3121.7043
CC1=C2CC3C(C1)C23C	C[C]1[C]2C[C@H]3[C@@H](C1)[C@@]23C	
InChI=1S/C9H12/c1-5-3-7-8-4-6(5)9(7,8)2/h7-8H,3-4H2,1-2H3	InChI=1S/C9H12/c1-5-3-7-8-4-6(5)9(7,8)2/h7-8H,3-4H2,1-2H3/t7-,8+,9-/m1/s1
