20
gdb 109549	2.13999	1.43053	0.93757	2.7866	77.03	-0.2433	0.0249	0.2682	1287.9004	0.169098	-440.307508	-440.29712	-440.296176	-440.343344	36.164	
C	-0.1151320793	 1.5677545145	 0.1000384072	-0.399682
C	 0.0748716925	 0.0472246062	 0.0856731289	-0.169735
C	 0.7095573473	-0.4841224435	-1.1949147892	 0.011074
C	 0.8927093545	-2.0363176122	-1.2862419048	-0.039989
O	 0.4822389457	-2.7628976825	-0.1556239447	-0.428912
C	-0.1076218375	-1.9697403455	-2.4612150888	 0.370305
O	-0.653674572	-2.7777169897	-3.1730017873	-0.391132
N	-0.171602143	-0.6070646923	-2.3775472712	-0.078625
C	-0.8342019426	 0.3506405796	-3.2277473659	-0.348401
H	 0.8368556616	 2.0883690933	-0.0533834058	 0.116136
H	-0.8045910404	 1.9029021217	-0.6812831055	 0.118624
H	-0.5223539003	 1.8991874003	 1.0599123127	 0.120634
H	 0.7235083063	-0.2494771015	 0.9184804395	 0.116531
H	-0.8784897799	-0.4649897172	 0.2486479453	 0.107585
H	 1.6284314903	 0.0725551062	-1.4246417002	 0.075583
H	 1.9030541975	-2.3255341155	-1.6065612645	 0.09344
H	 0.0154112701	-3.5443710667	-0.4725598366	 0.302394
H	-1.2567997594	-0.1974520657	-4.0736550263	 0.160301
H	-1.6473878327	 0.8713661896	-2.7096617992	 0.134689
H	-0.1269145588	 1.0986309807	-3.6051513433	 0.12918
68.016	88.3292	110.7491	146.6346	159.1293	177.7775	223.6758	250.6685	255.9734	322.4127	410.8907	472.8572	576.0434	653.4102	744.3855	805.476	824.0339	842.0257	937.5464	984.1874	1031.8616	1068.4016	1093.7915	1129.3211	1144.8096	1176.5866	1187.7824	1245.1302	1275.3608	1289.6074	1338.4671	1343.0562	1384.0661	1403.3264	1412.0836	1422.1521	1451.1492	1473.9495	1484.5455	1501.8603	1504.9901	1517.3075	1868.7951	3004.3832	3018.3041	3021.4199	3034.9949	3043.1746	3074.8123	3081.1589	3104.9644	3109.3033	3126.0862	3804.1415
CCC1C(O)C(=O)N1C	CC[C@H]1[C@@H](O)C(=O)N1C	
InChI=1S/C6H11NO2/c1-3-4-5(8)6(9)7(4)2/h4-5,8H,3H2,1-2H3	InChI=1S/C6H11NO2/c1-3-4-5(8)6(9)7(4)2/h4-5,8H,3H2,1-2H3/t4-,5+/m0/s1
