19
gdb 81496	3.58813	1.25182	1.05377	3.1813	81.05	-0.264	0.0292	0.2932	1172.3214	0.160116	-382.027493	-382.018957	-382.018013	-382.060147	33.233	
C	-0.1758486512	 1.5974465166	-0.01796999	-0.44849
C	 0.0251538287	 0.0912006243	 0.0216571562	 0.044175
C	 1.2012732776	-0.6019997482	-0.7476778511	-0.084616
C	 2.1703181429	-0.0726021812	 0.3482744138	-0.263268
C	 0.9187520927	-0.5906561404	 1.1135113657	-0.084574
C	 0.9643153083	-1.8524070184	 0.1760422655	 0.19676
N	-0.2663283435	-2.607184832	-0.0061734417	-0.564993
C	 2.1125084682	-2.755250588	 0.3558349459	 0.210388
N	 2.9543562924	-3.5385223893	 0.4883972334	-0.353314
H	 0.7387782212	 2.1797966002	 0.1150984081	 0.118729
H	-0.6169703221	 1.8906116798	-0.9769865598	 0.122512
H	-0.8777656215	 1.901764453	 0.7662296989	 0.12252
H	-0.9279774721	-0.416737586	-0.1198959033	 0.102489
H	 1.3709164026	-0.6416444397	-1.8250594833	 0.080696
H	 3.1033131635	-0.6196079993	 0.4932183694	 0.128972
H	 2.3460605096	 1.0004143691	 0.3684423217	 0.105276
H	 0.760953367	-0.6171340712	 2.1930964158	 0.080686
H	-0.1806511771	-3.2200590322	-0.8121435576	 0.243026
H	-0.4247234773	-3.2103580471	 0.7960959323	 0.243026
128.2496	163.3983	172.8619	202.2776	280.2199	295.0724	335.3572	403.2967	478.4301	518.9113	562.7035	612.4509	686.9543	751.0738	794.7868	817.5929	866.0984	890.4915	901.1626	1019.9994	1025.1817	1043.3538	1046.5965	1057.3049	1089.3776	1128.4001	1163.2992	1174.2414	1194.2048	1208.5023	1232.6177	1258.0886	1267.1495	1290.5938	1406.4897	1420.8515	1496.3741	1497.1052	1532.0089	1657.8134	2332.4081	3036.7051	3087.958	3092.342	3098.942	3102.7667	3110.6012	3129.8967	3162.876	3491.6454	3565.8386
CC1C2CC1C2(N)C#N	C[C@H]1[C@H]2C[C@@H]1[C@]2(N)C#N	
InChI=1S/C7H10N2/c1-4-5-2-6(4)7(5,9)3-8/h4-6H,2,9H2,1H3	InChI=1S/C7H10N2/c1-4-5-2-6(4)7(5,9)3-8/h4-6H,2,9H2,1H3/t4-,5+,6-,7-
