21
gdb 103781	3.14462	1.09587	1.0085	2.0073	79.59	-0.2341	0.0628	0.2969	1284.2832	0.181204	-424.191696	-424.182166	-424.181222	-424.22604	36.124	
O	-0.071029185	 1.3378396732	-0.0298915868	-0.432227
C	 0.0075449296	-0.0732643534	 0.1822145309	-0.151575
C	-1.3982327312	-0.6004376397	 0.0579750806	 0.382142
O	-2.2806332556	 0.0189028441	 0.9513966812	-0.476895
C	-1.9311220662	-1.0207974104	-1.2979377408	-0.425098
C	-1.6724340304	-2.0436129603	-0.2197863578	 0.298628
C	-0.6637643933	-3.2042077011	-0.1880628937	-0.300426
C	-1.5731546973	-3.9040962408	 0.865196073	-0.201534
C	-2.7014123228	-2.8745210754	 0.5591998067	-0.282927
H	 0.7302277179	 1.7424461253	 0.3136340099	 0.291377
H	 0.6698462264	-0.5504322906	-0.5534614566	 0.090942
H	 0.394366223	-0.2917817719	 1.1889230149	 0.092778
H	-2.1294691942	 0.9668084669	 0.8437349447	 0.287258
H	-2.9663002643	-0.77413426	-1.5109084631	 0.112433
H	-1.2628291895	-0.9855772078	-2.1537274404	 0.105055
H	-0.6239133776	-3.7446776783	-1.1392496512	 0.100774
H	 0.360925266	-2.9772374203	 0.1197942554	 0.093491
H	-1.80557753	-4.9559397522	 0.6858095248	 0.096052
H	-1.1844212603	-3.8043763885	 1.8816891801	 0.103391
H	-3.1658407514	-2.3775608579	 1.4128217158	 0.11897
H	-3.4881175537	-3.283105671	-0.0825075574	 0.097391
66.9767	107.5319	135.3609	167.2557	234.4565	254.5056	299.1928	390.5338	401.7018	421.3299	460.7434	498.0129	615.5434	718.5275	757.2203	782.896	862.3904	894.7131	905.4162	919.4734	938.8764	960.2921	1001.3134	1040.459	1043.1492	1063.1984	1132.8303	1143.9518	1164.6834	1219.4783	1222.9191	1235.0649	1253.5063	1257.8475	1269.8181	1276.2705	1307.9745	1329.7647	1420.0937	1450.7146	1477.3503	1480.8771	1502.7278	1507.7518	1511.1005	2984.5907	3026.8058	3042.7271	3054.3156	3064.8921	3086.508	3110.7929	3116.5694	3125.0828	3208.4625	3773.4333	3839.5292
OCC1(O)CC11CCC1	OC[C@@]1(O)CC21CCC2	
InChI=1S/C7H12O2/c8-5-7(9)4-6(7)2-1-3-6/h8-9H,1-5H2	InChI=1S/C7H12O2/c8-5-7(9)4-6(7)2-1-3-6/h8-9H,1-5H2/t7-/m0/s1
