17
gdb 42809	3.92235	1.17802	1.14867	2.443	78.2	-0.2393	-0.0113	0.228	1104.4095	0.136517	-384.660099	-384.6525	-384.651555	-384.692154	29.924	
O	 0.0357412709	-0.0031213338	 0.0109681809	-0.319802
C	-0.0068444963	 1.1893605477	-0.0280948079	 0.427069
C	-1.0938804736	 2.2783881139	 0.0526718766	-0.135587
C	-0.0551151202	 2.9950389148	 0.9802711192	-0.250499
C	 1.0120486201	 2.3462158292	 0.0393753906	-0.143433
C	 0.7163746735	 3.0554892453	-1.3170783719	-0.183669
C	-0.8690163781	 3.0053861877	-1.290086855	-0.244088
C	 1.263422594	 4.3992673997	-1.4046229651	 0.320251
C	 1.7086788421	 5.5146163271	-1.4689834057	-0.454225
H	-2.1160312078	 2.0653088672	 0.3575816671	 0.087474
H	-0.0818483429	 4.0864152335	 0.989914578	 0.12327
H	-0.032190248	 2.5941291202	 1.9945302191	 0.12096
H	 2.0536142112	 2.2074091579	 0.3177848231	 0.095025
H	 1.1064141196	 2.457726527	-2.1474493962	 0.116633
H	-1.2727789364	 2.456251823	-2.1437882111	 0.118666
H	-1.2977219504	 4.0093207315	-1.2887382726	 0.124184
H	 2.1075067623	 6.4965198679	-1.5355233492	 0.197772
103.1498	138.4282	173.6894	280.3381	400.6605	428.7879	489.3666	535.6341	622.2507	633.8918	637.7125	669.6153	767.5479	784.804	820.6217	852.9798	930.9593	952.3022	978.2988	989.5022	1014.7315	1049.3549	1054.3825	1090.1868	1111.7448	1154.3023	1202.8886	1204.2958	1243.0106	1247.2292	1282.0328	1316.0565	1352.5707	1489.9546	1505.7514	1903.8678	2233.5014	3049.7493	3072.2014	3077.0443	3123.4453	3144.0251	3148.8348	3158.7249	3503.4608
O=C1C2CC1C(C2)C#C	O=C1[C@H]2C[C@@H]1[C@@H](C2)C#C	
InChI=1S/C8H8O/c1-2-5-3-6-4-7(5)8(6)9/h1,5-7H,3-4H2	InChI=1S/C8H8O/c1-2-5-3-6-4-7(5)8(6)9/h1,5-7H,3-4H2/t5-,6-,7-/m1/s1
