13
gdb 26915	3.12955	1.48619	1.00893	3.572	70.04	-0.1996	-0.0714	0.1283	1068.678	0.088971	-489.927007	-489.919235	-489.91829	-489.959152	29.223	
N	 0.0320504348	 1.4363312786	-0.257496542	-0.580208
C	 0.0144629576	 0.0398148789	-0.1217853521	 0.185636
C	-1.1389775915	-0.6692939968	 0.0783519993	 0.42472
O	-2.3333654499	-0.0856082843	 0.2436180822	-0.400662
O	-1.1493462183	-1.9982716273	 0.1374420385	-0.245689
C	 0.0408241852	-2.7759341278	-0.016671053	 0.377642
O	-0.0598337556	-3.9688648031	 0.040560182	-0.331272
C	 1.2044105354	-1.9403954265	-0.2146682831	-0.154695
N	 1.1772139348	-0.6386586072	-0.2573904412	-0.241507
H	-0.6679750073	 1.9034806084	 0.3040080755	 0.253766
H	 0.9562094274	 1.8004961002	-0.0637153129	 0.254075
H	-2.9960147237	-0.7767557204	 0.3775686641	 0.318427
H	 2.1539461611	-2.4529094826	-0.3270440073	 0.139768
109.5864	181.8004	225.038	285.0366	344.4802	355.6876	371.5266	461.3236	471.0767	525.1092	598.4348	667.398	715.5475	720.0947	762.1475	821.252	840.2157	882.9409	1041.5451	1089.601	1193.7906	1321.2812	1339.2316	1397.8134	1457.8247	1529.2033	1630.9609	1706.3641	1852.5154	3188.8288	3539.5227	3641.5701	3784.9533
NC1=C(O)OC(=O)C=N1	Nc1c(O)oc(=O)cn1	
InChI=1S/C4H4N2O3/c5-3-4(8)9-2(7)1-6-3/h1,8H,5H2	InChI=1S/C4H4N2O3/c5-3-4(8)9-2(7)1-6-3/h1,8H,5H2
