20
gdb 48416	3.10077	1.03193	0.92274	3.6252	80.59	-0.2366	-0.0167	0.2199	1344.6873	0.169628	-403.112733	-403.103588	-403.102644	-403.147291	33.614	
O	-0.3774833203	 0.499619544	-1.012681286	-0.27955
C	-0.0573408484	 1.1150703938	-0.0223467103	 0.103434
C	 1.2145918519	 1.8831284484	 0.1138183064	 0.267901
C	 1.4623069363	 2.5113993769	 1.4684645948	-0.266273
N	 1.4984691828	 1.4913368555	 2.5112289251	-0.060871
C	 2.8041494125	 0.9432947092	 2.8597225401	-0.214273
C	 2.0976514907	 1.874997818	 3.7828556757	-0.221187
C	 2.3812210302	 1.3808973423	-0.7261020846	-0.280409
C	 1.6645191321	 2.6173731765	-1.1462824225	-0.30107
H	-0.7177407389	 1.1519951736	 0.8693823221	 0.08655
H	 2.3876272031	 3.1149117325	 1.4359014672	 0.081311
H	 0.6429946706	 3.200231941	 1.7136008772	 0.110026
H	 2.8333138925	-0.1229879035	 3.0632691825	 0.122208
H	 3.6780573176	 1.3321215568	 2.3393475764	 0.108838
H	 2.5007323477	 2.8829134437	 3.8736283836	 0.1097
H	 1.5997601252	 1.5023839221	 4.6733416149	 0.121018
H	 3.3730758523	 1.4742735979	-0.2983216475	 0.115326
H	 2.196427625	 0.4758891643	-1.2931805468	 0.140954
H	 0.9965870608	 2.5496987639	-1.9971495539	 0.139077
H	 2.1495475463	 3.5776026731	-1.0070855143	 0.117289
61.1191	95.9523	101.7714	150.7334	245.1591	288.0265	316.459	340.0151	374.5589	445.004	648.2886	753.3988	767.1625	794.9163	826.4472	845.9569	902.67	924.7742	957.2579	981.7964	1026.455	1040.3052	1051.9371	1064.7572	1075.9827	1102.4282	1114.9472	1120.4775	1171.0499	1176.9852	1204.3697	1259.8242	1301.1744	1323.5363	1346.3888	1395.6299	1434.0464	1451.9526	1481.6922	1487.1586	1495.0373	1522.3007	1805.39	2913.1735	2933.8934	3032.9278	3093.6705	3098.8645	3136.2913	3138.9969	3178.5633	3192.936	3224.7879	3238.5491
O=CC1(CN2CC2)CC1	O=CC1(CN2CC2)CC1	
InChI=1S/C7H11NO/c9-6-7(1-2-7)5-8-3-4-8/h6H,1-5H2	InChI=1S/C7H11NO/c9-6-7(1-2-7)5-8-3-4-8/h6H,1-5H2
