13
gdb 45714	2.49641	1.85532	1.06432	7.615	71.68	-0.2444	-0.1122	0.1321	1022.8415	0.090379	-452.781598	-452.774234	-452.77329	-452.81402	27.358	
N	-0.0704874558	 1.2540244029	-0.4129918492	-0.446973
C	 0.0080597165	 0.0565533201	 0.0066121905	 0.299215
N	 1.1895132435	-0.6229460138	 0.307813018	-0.39205
C	 1.2451775854	-1.9176154204	 0.7598292737	 0.043683
C	 0.1656528641	-2.7007308582	 0.9713562613	-0.254776
C	-1.1792926297	-2.2115192342	 0.7269226226	 0.309553
O	-2.1960804973	-2.8520441292	 0.8922823345	-0.306558
C	-1.2870497902	-0.7461979965	 0.2131813315	 0.234133
O	-2.353767162	-0.2500252892	-0.0177308417	-0.236687
H	 0.8499062881	 1.690317678	-0.513229199	 0.219786
H	 2.0554873705	-0.1208550471	 0.1818383064	 0.258591
H	 2.2517456125	-2.2786909875	 0.9410133149	 0.145891
H	 0.2874377543	-3.7144368249	 1.3296388165	 0.126191
49.9181	133.5561	300.8869	348.399	358.5149	450.4964	454.5841	480.3642	510.46	580.0103	594.3636	660.2416	791.137	861.51	867.3478	894.5418	983.7571	991.1906	1063.1235	1113.8769	1214.0129	1249.7252	1352.0199	1422.5277	1499.9413	1670.5437	1706.5037	1763.1164	1831.0016	3195.2569	3225.125	3437.5208	3616.2035
N=C1NC=CC(=O)C1=O	[NH][C]1NC=CC(=O)C1=O	
InChI=1S/C5H4N2O2/c6-5-4(9)3(8)1-2-7-5/h1-2H,(H2,6,7)	InChI=1S/C5H4N2O2/c6-5-4(9)3(8)1-2-7-5/h1-2H,(H2,6,7)
