16
gdb 21997	2.49707	1.55741	0.96484	0.8485	78.84	-0.1957	-0.0157	0.18	1159.0191	0.124715	-437.875456	-437.867363	-437.866419	-437.90793	30.75	
C	 0.0993255459	 1.4758190519	 0.0695016891	-0.478485
C	 0.0010883383	-0.0210288907	 0.0414127028	 0.155068
C	-0.1303964974	-0.6931729115	-1.1136067547	-0.016881
O	-0.2258830737	-2.0512417971	-1.222077594	-0.20821
C	-0.183719697	-2.7662358505	-0.071035592	 0.056664
C	-0.0556468401	-2.2205097775	 1.1454569529	-0.239831
C	 0.0481720147	-0.7769406372	 1.2916631066	 0.294123
N	 0.1749799886	-0.1205941213	 2.3991756366	-0.26114
O	 0.2033814113	-0.9949493973	 3.5044011988	-0.40198
H	 1.0359491073	 1.7896086097	 0.5415906429	 0.142556
H	 0.0495300556	 1.8980857805	-0.9375155689	 0.112606
H	-0.7075558547	 1.9015417685	 0.6747306047	 0.142554
H	-0.1747819299	-0.2239155898	-2.0879334198	 0.129237
H	-0.2668447047	-3.8276464511	-0.2672735745	 0.137136
H	-0.0292669348	-2.852691831	 2.0206020573	 0.133048
H	 0.2989756805	-0.3822491555	 4.2401676823	 0.303535
115.8234	181.6089	212.0412	218.6667	298.4166	313.0279	371.5117	467.6976	478.395	502.1991	542.1904	617.6965	728.7007	788.8024	837.0091	839.4819	873.7461	953.7543	983.7108	1004.3541	1028.0929	1065.9833	1139.7142	1176.0979	1260.2375	1332.5666	1361.069	1414.7492	1423.6853	1448.4508	1465.3899	1488.8501	1645.5375	1657.4602	1726.476	3038.4238	3096.2498	3120.3117	3219.0619	3223.0771	3253.1879	3830.1105
CC1=COC=CC1=NO	Cc1coccc1=NO	
InChI=1S/C6H7NO2/c1-5-4-9-3-2-6(5)7-8/h2-4,8H,1H3	InChI=1S/C6H7NO2/c1-5-4-9-3-2-6(5)7-8/h2-4,8H,1H3
