20
gdb 123127	2.04878	1.47065	1.0567	3.5471	71.53	-0.2412	0.0044	0.2457	1205.089	0.171098	-477.431414	-477.421921	-477.420977	-477.465855	34.886	
N	 0.6477532277	-0.0327628374	 2.3880293235	-0.511369
H	 0.0056189853	-0.6902938948	 3.9142440712	 0.308136
H	 1.5936299022	 0.1630881404	 2.7077466935	 0.258664
H	 0.7253879461	-0.6930192905	 1.6201724526	 0.24278
C	 0.0148690766	 1.2202462922	 1.9139845206	-0.164793
C	-0.0702516764	 2.2978369172	 3.0106647415	-0.196081
C	-1.2843421049	 2.2114072435	 3.9765248315	-0.087491
O	-0.9134728806	 2.4819819838	 5.329954737	-0.259717
C	-0.7052581951	 1.3531802386	 6.1729832158	-0.137806
C	 0.2190422169	 0.3614380696	 5.4681703935	 0.371115
O	-0.4842767076	-0.5472576547	 4.7771889261	-0.373305
O	 1.4210859156	 0.4802191223	 5.4096043743	-0.356406
H	 0.563263019	 1.635788316	 1.0565384448	 0.099365
H	-0.9885257259	 0.9671667551	 1.5505907352	 0.113624
H	 0.8432606121	 2.2768431944	 3.6126074414	 0.137627
H	-0.0824074013	 3.275340873	 2.5180677972	 0.101172
H	-2.0189276976	 2.9802053568	 3.7155517778	 0.104156
H	-1.7787321396	 1.2382601421	 3.8975777365	 0.120288
H	-0.2291841145	 1.7376431471	 7.0766764432	 0.12618
H	-1.6563873279	 0.8657367955	 6.4252180428	 0.103862
86.8384	106.6105	130.2519	137.2609	231.7745	251.6171	307.0012	350.278	367.2669	421.511	437.3953	494.4256	614.3659	745.1342	762.17	821.165	884.6577	898.7459	911.355	968.4655	998.5847	1001.507	1026.318	1093.4598	1103.8311	1121.3508	1182.2774	1227.5972	1290.9801	1304.6034	1320.6967	1330.4658	1365.2487	1389.6139	1413.9328	1423.257	1472.7485	1488.7804	1490.7743	1509.5185	1513.84	1649.9402	1808.719	2994.1598	3015.7463	3040.715	3049.349	3056.6387	3088.7112	3102.8651	3120.1846	3127.3267	3485.0208	3566.2739
[NH3+]CCCOCC([O-])=O	NCCCOCC(=O)O	
InChI=1S/C5H11NO3/c6-2-1-3-9-4-5(7)8/h1-4,6H2,(H,7,8)	InChI=1S/C5H11NO3/c6-2-1-3-9-4-5(7)8/h1-4,6H2,(H,7,8)
