23
gdb 61399	2.33768	1.1347	0.93791	1.0534	88.15	-0.2521	0.0439	0.296	1405.7767	0.200414	-388.261503	-388.25013	-388.249185	-388.297613	42.451	
C	 1.146344958	 0.8890566288	 0.7350232007	-0.387588
C	 0.0849757954	 0.0218256813	 0.0475987727	-0.063213
O	 0.5860629078	-0.3044856611	-1.2419331891	-0.284398
C	-0.3340413896	-0.427566618	-2.3460487093	 0.3626
C	-0.9266716063	 0.9464808029	-2.6999605213	-0.407896
C	 0.5585108717	-0.9238120476	-3.4879605448	-0.398911
C	-1.4458899179	-1.4469814576	-2.0602923028	-0.410008
C	-0.2020775475	-1.1800076758	 0.8464725426	 0.367237
C	-0.413067635	-2.149358169	 1.5256274679	-0.493408
H	 2.0914596838	 0.3430911419	 0.7869816401	 0.136299
H	 1.3004861618	 1.8045233838	 0.158295745	 0.118384
H	 0.8338145614	 1.1486009434	 1.7498229448	 0.122446
H	-0.8410398644	 0.6072748423	-0.0344648609	 0.095716
H	-0.1256968891	 1.6729240774	-2.8648467139	 0.118641
H	-1.5256401769	 0.8792909318	-3.6135395105	 0.114455
H	-1.5824508633	 1.3283227423	-1.9112796979	 0.111872
H	 1.0006916429	-1.889642337	-3.2293382601	 0.120896
H	-0.0185189203	-1.0377867926	-4.4103636733	 0.108271
H	 1.3706912552	-0.2144207454	-3.6696666297	 0.117956
H	-2.1016877239	-1.1212771982	-1.2480061275	 0.11687
H	-2.0648748819	-1.5821740051	-2.9531039786	 0.108874
H	-1.0193327941	-2.4138734311	-1.7823913908	 0.128516
H	-0.6076292979	-3.0105498374	 2.1158683267	 0.196389
42.8217	85.19	164.5664	184.1767	199.8627	222.3892	252.5903	266.7975	272.6564	314.2551	337.0764	348.8571	413.0049	458.5482	484.4634	556.9294	589.5852	626.7042	662.6575	745.5232	826.7141	865.655	908.2373	920.5062	957.3491	988.7461	1040.6252	1044.0332	1070.6122	1112.3664	1139.0695	1222.8505	1252.2569	1275.0367	1332.538	1362.6111	1397.1616	1397.9393	1400.5986	1425.5174	1470.8143	1479.7428	1481.9239	1484.6512	1493.7248	1497.3625	1500.0075	1516.1172	2229.6631	3008.1484	3036.7801	3040.7707	3047.3484	3049.65	3102.831	3110.6593	3113.7864	3121.0503	3121.4282	3128.1044	3130.2348	3134.5671	3503.2322
CC(OC(C)(C)C)C#C	C[C@@H](OC(C)(C)C)C#C	
InChI=1S/C8H14O/c1-6-7(2)9-8(3,4)5/h1,7H,2-5H3	InChI=1S/C8H14O/c1-6-7(2)9-8(3,4)5/h1,7H,2-5H3/t7-/m1/s1
