18
gdb 40384	4.38731	1.19921	1.11975	4.0486	76.04	-0.194	0.0679	0.2618	1122.466	0.149034	-397.981524	-397.974144	-397.973199	-398.013455	29.548	
C	 0.4852985213	 1.5003206531	 0.1527501367	-0.233363
N	 1.2154183527	 0.2860902394	-0.2541608245	-0.322156
C	-0.2235604415	 0.1951942058	 0.0431016766	-0.182827
C	-0.5826419156	-0.6015372341	 1.2396239104	 0.410883
N	 0.3850222838	-0.8818509401	 2.3189656048	-0.361626
C	-0.2759975539	-2.0046543718	 1.6087151026	-0.128252
C	-1.7247945322	-2.1790230105	 2.1688579478	-0.057725
N	-1.95423068	-1.1716761603	 3.2343694571	-0.3065
C	-2.0376070681	-0.7800250204	 1.8064796125	-0.136094
H	 0.7511923872	 1.8781674843	 1.1352012972	 0.135712
H	 0.2816586335	 2.2614518621	-0.5953948378	 0.114531
H	 1.3688350657	 0.2833380765	-1.2582884264	 0.236395
H	-0.9040587869	 0.0871180793	-0.8008011633	 0.085111
H	 1.2990826494	-0.7801196385	 1.8697076579	 0.24309
H	 0.2942847304	-2.7546772818	 1.0763270894	 0.095598
H	-2.3279198689	-3.0737347294	 2.0885798295	 0.092456
H	-2.9173300516	-1.3057566797	 3.5465788459	 0.226215
H	-2.934382765	-0.3469080438	 1.3815930535	 0.088553
87.8018	151.1086	188.4097	329.9171	359.392	421.6963	499.8351	608.3051	666.2571	744.9596	800.3317	807.989	841.0109	861.1869	873.8838	891.3836	897.9999	913.5977	938.7822	954.5292	980.4399	1009.655	1022.3475	1084.3461	1105.352	1115.0555	1121.9551	1156.3688	1190.2564	1227.1796	1243.4465	1248.2969	1282.8114	1303.1629	1310.5545	1363.6958	1398.6525	1478.6468	1511.4582	3108.6293	3115.6796	3187.3872	3197.195	3205.6744	3206.2386	3436.2803	3454.5996	3514.7442
C1NC1C12NC1C1NC21	C1N[C@H]1[C@]12N[C@H]1[C@H]1N[C@@H]21	
InChI=1S/C6H9N3/c1-2(7-1)6-4-3(8-4)5(6)9-6/h2-5,7-9H,1H2	InChI=1S/C6H9N3/c1-2(7-1)6-4-3(8-4)5(6)9-6/h2-5,7-9H,1H2/t2-,3+,4-,5+,6-/m1/s1
