17
gdb 19081	3.01672	2.45774	1.70632	1.7993	68.38	-0.213	0.0569	0.2699	805.315	0.140955	-363.741205	-363.733575	-363.732631	-363.773139	29.051	
C	-0.0982463829	 1.5632552921	-0.0304869398	-0.293952
N	 0.1677663991	 0.1331466157	 0.0366863231	-0.063724
C	 1.2446706406	-0.6840574807	-0.4103673782	-0.060584
C	 2.7177596068	-0.3614599689	 0.057831997	-0.121761
C	 2.9708318531	 0.7927438532	 0.9576104304	 0.085155
O	 2.5241704078	 2.0980019603	 0.7347371695	-0.415256
C	 2.2272433338	-0.3797903452	 1.5284488504	-0.158327
C	 0.7732678953	-0.7072361304	 1.0134465696	-0.063702
H	 0.6364693745	 2.0943024858	-0.6352373286	 0.139893
H	-1.0950636268	 1.708517278	-0.4639036242	 0.104856
H	-0.0947369728	 2.0081690285	 0.9681068121	 0.102744
H	 1.0810726036	-1.408081471	-1.2027047018	 0.095766
H	 3.5382856926	-0.9269284453	-0.3688098611	 0.089421
H	 4.0077573465	 0.7700537531	 1.3068286786	 0.096164
H	 2.4154510591	 2.5210708757	 1.593263173	 0.283269
H	 2.6426837629	-0.9521423808	 2.3504407641	 0.085237
H	 0.1745072368	-1.4520560602	 1.5292408059	 0.094803
62.8953	145.7475	192.8954	265.5069	289.6722	392.3757	479.5407	545.5629	636.3156	662.5897	689.9097	732.0417	755.3717	851.1919	887.4812	931.9528	966.1771	984.856	993.0307	1040.5587	1067.4018	1075.1922	1103.0119	1142.8995	1185.7933	1231.919	1253.0735	1267.9024	1274.1193	1305.5009	1350.0338	1413.6111	1450.4491	1480.8771	1496.3793	1507.9764	3023.8845	3051.6953	3089.7719	3143.3004	3146.4376	3154.1352	3168.2502	3179.1988	3803.6155
CN1C2C3C(O)C3C12	CN1[C@H]2[C@H]3[C@@H](O)[C@H]3[C@@H]12	
InChI=1S/C6H9NO/c1-7-4-2-3(5(4)7)6(2)8/h2-6,8H,1H3	InChI=1S/C6H9NO/c1-7-4-2-3(5(4)7)6(2)8/h2-6,8H,1H3/t2-,3+,4-,5+,6+,7?
