23
gdb 121734	6.66595	0.49916	0.47252	3.4391	84.75	-0.2426	-0.0082	0.2344	2394.2519	0.201791	-425.437884	-425.426215	-425.425271	-425.47746	39.329	
C	-0.0860744688	 1.5115920019	 0.1470777928	-0.379605
C	-0.0034864955	-0.0112801429	 0.0116264154	-0.171586
C	 0.7256206047	-0.456663224	-1.2599093875	-0.153802
C	 0.8098977137	-1.9765365888	-1.3996677253	-0.310781
C	 1.5292924006	-2.434707077	-2.6631985631	 0.341296
O	 1.9741518562	-1.6669772735	-3.4789615683	-0.275332
C	 1.6469197209	-3.9505748031	-2.8231246183	-0.146432
O	 2.3078927977	-4.2669328603	-4.0091743576	-0.209706
C	 2.4440753785	-5.6544781038	-4.2062680082	-0.22554
H	 0.9130593124	 1.9599600195	 0.1771920186	 0.116441
H	-0.6199902528	 1.9548349734	-0.7006606148	 0.116534
H	-0.6108541335	 1.8040795188	 1.0618766453	 0.110479
H	 0.5050375114	-0.4303300699	 0.8905208255	 0.092102
H	-1.0167556718	-0.4354362839	 0.0194583247	 0.092172
H	 0.2246182234	-0.0439384653	-2.14305296	 0.111054
H	 1.7390226238	-0.0391579581	-1.2759152948	 0.11025
H	 1.3204573579	-2.4213873314	-0.5331428874	 0.117377
H	-0.1944723707	-2.4247779343	-1.3972488991	 0.118225
H	 2.1749805254	-4.3533258572	-1.9381248547	 0.102478
H	 0.6296293316	-4.3844279903	-2.7907530137	 0.102172
H	 3.0270937868	-6.1281198897	-3.4001726676	 0.104007
H	 1.4660782004	-6.1588207895	-4.2628661799	 0.103983
H	 2.9700725979	-5.7961109905	-5.1529998019	 0.134214
15.1062	49.7874	83.319	84.7917	97.3565	126.9687	188.4101	238.382	241.7833	278.7372	310.3076	376.6873	466.5838	473.659	692.5099	720.9616	771.0535	873.6431	886.7411	914.6375	968.7173	984.2337	1034.1347	1072.2212	1077.8986	1131.9224	1140.5781	1174.9284	1184.0368	1230.2516	1241.4397	1266.3259	1287.7218	1317.568	1329.1037	1368.1197	1399.6445	1407.4937	1414.0321	1452.2084	1469.469	1484.3289	1486.7883	1492.0809	1495.5515	1498.8506	1512.0535	1516.7363	1828.7487	2928.686	2946.7738	2968.3606	3006.5133	3010.6077	3011.5321	3030.4909	3032.7905	3036.7082	3042.6632	3081.1426	3098.6518	3102.5645	3119.8106
CCCCC(=O)COC	CCCCC(=O)COC	
InChI=1S/C7H14O2/c1-3-4-5-7(8)6-9-2/h3-6H2,1-2H3	InChI=1S/C7H14O2/c1-3-4-5-7(8)6-9-2/h3-6H2,1-2H3
