20
gdb 37393	2.74383	2.17525	1.73663	1.2963	81.02	-0.2137	0.0861	0.2999	879.8796	0.175436	-365.945077	-365.938967	-365.938023	-365.975021	27.412	
C	-0.0077123439	 1.427125662	-0.1850472735	-0.25818
C	 1.2919059772	 0.7144226609	 0.0307415573	-0.024443
C	 1.9998308656	 0.7398322247	 1.3859809684	-0.049157
C	 1.1340648359	 1.4511074863	 2.4619544372	-0.255338
C	 0.4245397925	 0.1002374628	 2.6367576806	-0.022882
C	 1.7273468174	-0.6214364771	 2.1805699007	-0.021908
C	 0.8913206782	-1.6911662608	 1.4626575375	-0.224021
C	-0.2223464735	-0.6086377705	 1.3509039563	-0.021309
N	 0.0150433108	-0.0147360927	 0.0334657638	-0.077965
H	-0.3959940355	 2.0853513285	 0.5821713891	 0.117283
H	-0.2925104388	 1.70972996	-1.1957298913	 0.109672
H	 1.9278283759	 0.5273478471	-0.8324746717	 0.085578
H	 3.0401773866	 1.0534463508	 1.2825772746	 0.062483
H	 1.7296868301	 1.648279642	 3.3605170113	 0.095819
H	 0.5981958315	 2.3665956026	 2.2068877674	 0.093473
H	-0.0941416936	-0.1493002482	 3.5650003714	 0.061266
H	 2.5231217002	-0.893498565	 2.8757272089	 0.062243
H	 1.2309829677	-2.1242595674	 0.518594102	 0.100622
H	 0.6296205626	-2.4899957186	 2.1630898061	 0.095518
H	-1.2682824566	-0.9085226274	 1.4391303439	 0.071244
225.1784	330.2819	403.912	462.1265	485.5399	562.7218	589.9694	681.8627	710.1926	753.8051	790.0239	816.5324	832.6568	872.4255	918.2755	945.8531	955.4813	985.9638	994.6891	1008.2716	1040.7936	1061.5305	1075.903	1090.3113	1111.4249	1117.5057	1125.7059	1150.1689	1164.0152	1187.7327	1210.0361	1232.7464	1249.6823	1277.9965	1293.7843	1296.6894	1314.9264	1326.851	1348.9875	1389.848	1485.8863	1492.3046	1532.1495	3041.4659	3051.6298	3077.4421	3083.6042	3089.0916	3098.7054	3104.1712	3109.7985	3114.4293	3121.4344	3212.8911
C1C2C3CC4C3CC4N12	C1[C@H]2[C@H]3C[C@@H]4[C@H]3C[C@@H]4N12	
InChI=1S/C8H11N/c1-5-4-2-7(5)9-3-8(9)6(1)4/h4-8H,1-3H2	InChI=1S/C8H11N/c1-5-4-2-7(5)9-3-8(9)6(1)4/h4-8H,1-3H2/t4-,5-,6+,7+,8+,9?/m1/s1
