15
gdb 13150	3.87368	1.60326	1.16369	5.9464	69.43	-0.2444	-0.0373	0.2071	983.7124	0.119863	-358.836264	-358.828493	-358.827549	-358.869096	27.008	
N	-0.0627365893	 1.3390722742	-0.1185629498	-0.517211
C	 0.0726565876	 0.0655892817	-0.129649575	 0.242217
C	-1.1324399485	-0.7520466949	-0.1767669118	 0.303865
N	-2.0628866186	-1.4366060492	-0.2018991451	-0.330234
N	 1.2197281699	-0.6735663563	-0.1289326084	-0.092111
C	 2.5698691517	-0.2213964307	 0.218787256	-0.185485
C	 2.9535926348	-1.7058603778	 0.4764945136	-0.241419
C	 1.4608759204	-2.077567301	 0.24882435	-0.172878
H	 0.8481931199	 1.800914741	-0.0824727598	 0.22329
H	 3.0978560624	 0.2842883246	-0.5964740328	 0.126902
H	 2.5922382141	 0.4222122242	 1.1081713955	 0.120998
H	 3.6302959063	-2.12097408	-0.2703338992	 0.128368
H	 3.3406601276	-1.9202103932	 1.4719169406	 0.127266
H	 0.921955	-2.3870741893	 1.1507696307	 0.13224
H	 1.2543947017	-2.7943263536	-0.5508293346	 0.134193
81.7719	99.0177	131.1542	148.8066	258.8434	330.973	482.3842	520.8812	671.5257	715.7866	763.5319	836.5246	854.7457	875.1911	933.3845	943.1609	1003.1927	1139.2545	1141.9852	1158.5255	1204.5063	1227.9382	1239.4528	1271.4119	1301.4479	1343.2651	1427.4994	1491.4292	1510.1648	1532.8087	1673.6271	2361.674	3015.1719	3042.7674	3067.5058	3091.3189	3100.7104	3156.6536	3463.8117
N=C(C#N)N1CCC1	[NH][C](C#N)N1CCC1	
InChI=1S/C5H7N3/c6-4-5(7)8-2-1-3-8/h7H,1-3H2	InChI=1S/C5H7N3/c6-4-5(7)8-2-1-3-8/h7H,1-3H2
