17
gdb 51136	4.15728	1.05684	0.93558	2.757	73.16	-0.2453	-0.0268	0.2185	1236.0213	0.134632	-421.822951	-421.814865	-421.81392	-421.856587	29.986	
O	-0.3826824453	 0.1882257234	 0.2441840556	-0.239524
C	-0.0061803382	 1.3274355794	 0.1482318844	 0.160047
C	 1.4180257073	 1.7384663605	-0.1821991104	-0.373027
C	 1.4593797373	 2.7250519964	-1.3268730684	 0.388561
C	 1.0933722002	 2.2916686179	-2.7496950828	-0.325773
C	 1.8590685045	 3.2673736318	-3.6187816444	-0.076709
C	 2.6023736193	 4.1116773863	-2.8986200972	-0.074768
C	 2.3991879033	 3.8579958097	-1.4423109701	-0.075203
O	 1.0272718107	 4.0566181342	-1.0153545665	-0.299056
H	-0.7005194251	 2.1829083224	 0.3029552436	 0.097011
H	 1.836055043	 2.2229878631	 0.7094499955	 0.129929
H	 2.0015410049	 0.8397866479	-0.4025091974	 0.12291
H	 1.3913092492	 1.2525361362	-2.9399993465	 0.12108
H	 0.0111314645	 2.3466771574	-2.9199077684	 0.131249
H	 1.7705476633	 3.27156235	-4.6991257449	 0.107817
H	 3.2406202318	 4.8955234709	-3.2859684036	 0.107274
H	 3.1492013792	 4.0964446424	-0.6937659084	 0.098181
48.5681	70.1981	150.5554	262.4223	303.7818	380.6159	391.5694	474.4735	532.9402	647.0131	712.1765	737.7118	804.1969	827.763	875.6498	911.5465	941.3424	950.4281	973.4329	991.4883	1014.0153	1067.42	1076.027	1137.2624	1158.6375	1196.7494	1241.312	1267.3331	1304.4578	1326.6842	1370.3444	1421.5493	1427.1735	1445.4634	1460.3276	1661.48	1833.682	2892.8841	3028.2456	3033.4864	3062.9996	3102.8337	3158.0333	3196.0626	3224.2821
O=CCC12CC=CC1O2	O=CC[C@]12CC=C[C@H]1O2	
InChI=1S/C7H8O2/c8-5-4-7-3-1-2-6(7)9-7/h1-2,5-6H,3-4H2	InChI=1S/C7H8O2/c8-5-4-7-3-1-2-6(7)9-7/h1-2,5-6H,3-4H2/t6-,7-/m1/s1
