17
gdb 23436	3.14516	1.06982	0.97358	1.3492	73.23	-0.2327	-0.0016	0.231	1245.2302	0.135081	-455.035851	-455.027174	-455.02623	-455.069645	32.13	
O	 0.3383272089	 0.8745678685	 1.1048799683	-0.411074
C	 0.0872028071	 0.018475311	 0.0002898242	-0.102177
C	-1.2922331291	-0.6108036999	 0.0498557211	-0.035401
C	-1.5838085825	-2.0517592897	-0.2002474644	-0.151993
N	-1.798324992	-1.4059023518	 1.179412014	-0.140917
C	-0.6330880792	-2.217646384	 1.7080074657	-0.26402
C	-0.5133608114	-2.9099465604	 0.3662654848	 0.426677
N	 0.0360910023	-3.9508615616	-0.1014057199	-0.260691
O	 0.9146410083	-4.5134217565	 0.8415079272	-0.389984
H	-0.3879645572	 1.5032787545	 1.1716920001	 0.288652
H	 0.1863134747	 0.5520551059	-0.9577641842	 0.098066
H	 0.8757210305	-0.7363972432	 0.0248669284	 0.129137
H	-2.0827800115	 0.0508633773	-0.3058806145	 0.1022
H	-2.3984423129	-2.3841129118	-0.8338810692	 0.114631
H	 0.2013742714	-1.6188826473	 2.0777417374	 0.148266
H	-0.9735169372	-2.8968625245	 2.4934905847	 0.138941
H	 1.2367701398	-5.2946976965	 0.3793417363	 0.309686
63.0774	89.8733	183.5834	213.6507	264.2698	300.6438	325.6879	390.1812	476.5823	497.5798	562.7093	604.1531	716.6284	723.4663	789.8792	895.295	935.6103	969.3601	995.511	1006.5977	1030.7091	1041.7113	1079.7534	1101.8828	1151.3852	1186.2205	1227.945	1253.7157	1263.5881	1317.9339	1359.6208	1408.91	1418.0298	1440.9592	1483.9407	1518.2015	1791.5873	2987.6231	3073.3774	3097.9837	3112.4779	3129.1055	3181.5771	3812.1543	3818.8952
OCC1C2N1CC2=NO	OC[C@H]1[C@@H]2N1CC2=NO	
InChI=1S/C5H8N2O2/c8-2-4-5-3(6-9)1-7(4)5/h4-5,8-9H,1-2H2	InChI=1S/C5H8N2O2/c8-2-4-5-3(6-9)1-7(4)5/h4-5,8-9H,1-2H2/t4-,5+,7?/m0/s1
