19
gdb 91969	2.45247	1.72771	1.38817	2.6687	74.91	-0.2236	0.0597	0.2833	1006.2742	0.161086	-419.150847	-419.143096	-419.142152	-419.182736	31.107	
O	-0.0115303673	 1.4256259339	-0.2009883343	-0.422236
C	 0.0115631883	 0.0127111423	 0.0016829588	-0.036233
C	 0.5692130476	-0.4095357327	 1.3841738393	-0.181014
N	-0.550221104	-0.5771927162	 2.3289418383	-0.108054
C	-1.4696686976	 0.5725812822	 2.3749400623	-0.258205
C	-1.785421409	-0.5985058668	 1.5150017527	-0.09252
C	-1.4298240639	-0.4903360558	 0.0584708116	 0.381011
C	-2.3876909748	-0.2150291804	-1.0344704177	-0.284507
N	-1.8926086976	-1.5861372742	-0.811913218	-0.372339
H	 0.8912749906	 1.7506712058	-0.1160353737	 0.284171
H	 0.5666457002	-0.4699785369	-0.816960005	 0.06744
H	 1.0711455804	-1.3799718962	 1.2970645025	 0.111761
H	 1.2979359811	 0.3121595123	 1.7701731103	 0.097026
H	-1.9843449354	 0.6902019452	 3.3243305602	 0.112712
H	-1.1763559016	 1.4948860849	 1.8833254438	 0.131479
H	-2.5550917941	-1.3139958419	 1.7865587656	 0.099131
H	-3.4392049604	-0.0667905218	-0.8048942748	 0.120906
H	-2.0254728962	 0.3480413789	-1.8899839951	 0.121697
H	-1.1791812764	-1.8124948524	-1.5014276868	 0.227774
108.1985	210.7901	229.3222	293.3816	322.5742	342.7245	397.2561	436.8975	501.2358	577.3045	704.1993	767.0846	796.8867	851.6183	872.8871	877.2366	934.6596	939.8102	973.5496	982.5631	1021.2942	1041.2413	1070.6786	1103.941	1112.9333	1123.4	1144.0176	1175.9628	1204.9556	1236.0711	1258.9291	1268.2329	1301.5783	1309.5228	1334.6877	1354.6075	1399.297	1445.5219	1480.9543	1502.203	1515.0509	2979.9897	3034.5397	3077.5874	3111.8651	3114.6264	3163.5962	3197.6142	3209.2866	3488.5845	3805.605
OC1CN2CC2C11CN1	O[C@H]1CN2C[C@H]2[C@]21CN2	
InChI=1S/C6H10N2O/c9-5-2-8-1-4(8)6(5)3-7-6/h4-5,7,9H,1-3H2	InChI=1S/C6H10N2O/c9-5-2-8-1-4(8)6(5)3-7-6/h4-5,7,9H,1-3H2/t4-,5-,6-,8?/m0/s1
