19
gdb 93081	2.23881	1.51971	0.99678	3.3037	77.31	-0.2334	-0.0155	0.218	1190.094	0.159659	-423.051351	-423.042774	-423.04183	-423.084642	32.735	
O	-0.1932970674	 1.4480161644	 0.1134362145	-0.429323
C	 0.0262386464	 0.0455250396	 0.0149001609	 0.111292
C	 0.9207639378	-0.4531045716	 1.1704909407	-0.273485
C	 1.4100335148	-1.8686279787	 0.9877247157	-0.057779
C	 0.618119202	-2.9397281681	 0.9359563891	-0.062882
C	-0.8896182896	-2.8892751502	 1.0619370276	-0.342581
C	-1.4870908597	-2.0778108128	-0.0918038677	 0.375455
O	-2.0299874097	-2.6180193632	-1.0259309279	-0.299
C	-1.3869039239	-0.5607673653	 0.00591412	-0.279657
H	 0.6558918038	 1.8913994493	 0.0184772173	 0.282678
H	 0.5204784655	-0.1989409438	-0.9381099253	 0.082103
H	 1.7800787382	 0.2227840721	 1.2448237911	 0.091456
H	 0.3618419728	-0.3416554408	 2.1103429986	 0.114579
H	 2.4808772952	-2.0078556204	 0.8658199123	 0.09455
H	 1.0552053406	-3.9185502602	 0.762757046	 0.103207
H	-1.3180421808	-3.8916924715	 1.0216079172	 0.12339
H	-1.175633435	-2.4253876597	 2.0153658817	 0.117649
H	-1.8779136369	-0.2435819423	 0.9365110357	 0.119
H	-1.9433573841	-0.1351758167	-0.8315239775	 0.12935
89.5501	99.8024	168.5629	271.6041	292.5278	299.1079	349.2671	425.3328	453.536	467.7266	529.4368	608.0114	701.6906	708.2877	850.9103	883.6763	894.9498	923.4859	958.701	993.1877	1019.9757	1032.3125	1068.5071	1082.4273	1141.6177	1171.8262	1221.3918	1247.3796	1254.3144	1281.7788	1296.7881	1314.9124	1324.3942	1383.1375	1405.1728	1429.5224	1466.2258	1472.5153	1486.2156	1713.0247	1813.9422	2980.3808	3010.0218	3018.1376	3026.9019	3061.1251	3117.4759	3121.5382	3154.7868	3180.2576	3814.8955
OC1CC=CCC(=O)C1	O[C@H]1CC=CCC(=O)C1	
InChI=1S/C7H10O2/c8-6-3-1-2-4-7(9)5-6/h1-2,6,8H,3-5H2	InChI=1S/C7H10O2/c8-6-3-1-2-4-7(9)5-6/h1-2,6,8H,3-5H2/t6-/m0/s1
