19
gdb 16494	2.85445	2.52002	1.74243	1.762	74.49	-0.2169	0.0925	0.3094	841.0501	0.165926	-327.857177	-327.849787	-327.848842	-327.888237	29.263	
C	-0.0811140022	 1.5872846127	-0.0824561111	-0.42907
C	 0.0871734602	 0.0816785724	 0.0389001501	 0.023041
N	 1.0946358436	-0.6235524516	-0.8681984924	-0.18746
C	 2.4122646163	 0.0144932214	-0.4697721957	-0.183224
C	 2.2632308979	-0.6062033047	 0.9064524059	-0.134723
C	 1.3166660719	-1.6079904301	 0.3044751231	-0.075029
C	 0.7509573709	-0.5821518722	 1.2404922814	 0.320955
C	 0.227717014	-0.7467560808	 2.6366913598	-0.514434
H	 0.7942275156	 2.1420255098	 0.2643844668	 0.11868
H	-0.2754517966	 1.8633567551	-1.1247790575	 0.127442
H	-0.9375365429	 1.9165006359	 0.5156580949	 0.116678
H	-0.8749674506	-0.4061911579	-0.158789119	 0.074297
H	 3.2116034321	-0.4539485372	-1.050862849	 0.106314
H	 2.4678089016	 1.1006221315	-0.5923942687	 0.094883
H	 3.0000428242	-0.7649465929	 1.6850196768	 0.084489
H	 1.283804924	-2.686630641	 0.2404693312	 0.093662
H	 0.8387571116	-1.4510280541	 3.2113817956	 0.120654
H	 0.226765426	 0.205940697	 3.1788611177	 0.122565
H	-0.7995918176	-1.1289156334	 2.6307834201	 0.12028
171.1048	189.8291	211.1215	230.6957	296.6617	343.1888	490.7944	567.8101	603.8486	695.5796	765.1155	795.5173	831.9883	840.6488	888.1065	906.2626	918.4084	976.2791	997.3002	1029.7857	1076.5566	1092.7663	1103.7901	1130.143	1137.1005	1147.0877	1176.3197	1232.8139	1240.8747	1282.9798	1312.8963	1381.6824	1400.8043	1414.1326	1439.1697	1488.1547	1488.2899	1495.2804	1499.2456	1525.5653	3021.9195	3028.9486	3035.6548	3048.237	3081.8698	3091.6933	3094.793	3099.1764	3119.5453	3181.7124	3213.9189
CC1N2CC3C2C13C	C[C@H]1N2C[C@@H]3[C@H]2[C@]13C	
InChI=1S/C7H11N/c1-4-7(2)5-3-8(4)6(5)7/h4-6H,3H2,1-2H3	InChI=1S/C7H11N/c1-4-7(2)5-3-8(4)6(5)7/h4-6H,3H2,1-2H3/t4-,5-,6+,7-/m1/s1
