17
gdb 20041	5.46617	1.39256	1.23437	0.9552	70.23	-0.2324	0.0275	0.2599	1011.512	0.144035	-363.871627	-363.864228	-363.863283	-363.904548	26.613	
C	 0.1264851466	 1.5554262908	 0.0305519219	-0.25301
C	 1.2965360099	 0.6367276218	-0.1189101402	-0.253051
C	-0.0929327097	 0.0539248178	 0.0631018912	-0.105749
C	-0.4304125694	-0.5846071204	 1.3472908615	 0.430209
N	-0.0134391279	-0.244388047	 2.4998091465	-0.334763
C	-0.6214691428	-1.1725924764	 3.460708711	-0.181484
C	-1.4852233023	-2.1257912119	 2.5916908999	-0.113007
O	-1.2807180162	-1.6463102612	 1.2452496251	-0.260736
H	 0.0112329283	 2.0715835971	 0.9761052961	 0.139048
H	-0.2341777632	 2.0895229324	-0.8412065515	 0.116057
H	 1.754910637	 0.527819107	-1.0952957401	 0.116037
H	 1.9667928701	 0.5360928469	 0.7263135683	 0.139136
H	-0.5649522978	-0.4073772728	-0.7951621362	 0.102385
H	 0.1571362141	-1.7065517479	 4.0167281286	 0.112618
H	-1.2197047085	-0.6208403885	 4.1943152731	 0.112611
H	-1.1654276902	-3.1709366627	 2.636509268	 0.11685
H	-2.5547543578	-2.0752530751	 2.8156606168	 0.116848
36.7826	83.0688	166.1534	189.3868	343.3242	398.3839	648.7142	713.6928	760.1321	794.1177	826.8163	833.3962	896.6114	918.2224	930.2515	974.6342	1010.3462	1017.5235	1067.1515	1091.7126	1121.9535	1127.6364	1130.1951	1199.2421	1208.9801	1215.5523	1223.8044	1245.4606	1326.8252	1368.8766	1442.3843	1458.4512	1495.277	1505.6331	1527.8193	1731.1069	3033.5035	3052.0483	3058.9133	3097.966	3140.8721	3143.6289	3193.4457	3229.651	3244.1978
C1CC1C1=NCCO1	C1CC1C1=NCCO1	
InChI=1S/C6H9NO/c1-2-5(1)6-7-3-4-8-6/h5H,1-4H2	InChI=1S/C6H9NO/c1-2-5(1)6-7-3-4-8-6/h5H,1-4H2
