19
gdb 41386	2.58791	1.98781	1.35158	1.7383	81.5	-0.2275	0.0088	0.2363	988.5273	0.161154	-385.854437	-385.847285	-385.846341	-385.885881	28.947	
C	-0.1357894267	 1.4582477843	-0.0218533631	-0.330867
C	 1.4404516997	 1.5060129418	 0.0971319741	-0.315386
C	 1.4975797436	 0.1315297355	-0.6310739638	 0.423977
O	 1.9183836608	 0.1848416336	-2.0117858767	-0.326563
C	 2.4416675549	-1.159107375	-1.9374090076	-0.083617
C	 2.1119388513	-1.2792466566	-0.4338548136	-0.180517
C	 0.9149737465	-2.1889062818	-0.0295472177	-0.268236
C	-0.2823036789	-1.2450925423	 0.088364728	-0.220372
C	 0.0404827061	-0.018123119	-0.3077522011	 0.256647
H	-0.7260165319	 1.7369215595	 0.8541717938	 0.109525
H	-0.4824899929	 2.0357918508	-0.8838183487	 0.123199
H	 1.9461342917	 2.3190792892	-0.4285712135	 0.114758
H	 1.7843361042	 1.4597637564	 1.132775355	 0.112146
H	 1.8947504588	-1.8533899107	-2.5882798567	 0.098074
H	 3.5057830568	-1.1845665148	-2.199590744	 0.099854
H	 2.9800338178	-1.395558575	 0.2159066591	 0.079232
H	 0.7569837476	-2.9971501645	-0.7564703769	 0.10773
H	 1.0907014244	-2.6827099563	 0.9343634617	 0.106704
H	-1.2110421741	-1.5629591851	 0.5512314617	 0.093713
105.3657	208.2348	229.4539	257.8383	382.3207	458.872	538.3564	605.5407	664.4903	722.1617	779.7249	806.6427	816.1938	870.5238	876.9396	899.5879	917.8787	951.7019	996.2677	1012.6841	1045.465	1067.5811	1077.8946	1120.8939	1141.2946	1152.0417	1164.5791	1194.6883	1202.5093	1216.2631	1226.1241	1268.7351	1294.4596	1319.6579	1332.3771	1356.9156	1455.6469	1480.1177	1485.2994	1523.9951	1728.095	3011.852	3016.1677	3043.2321	3057.2777	3057.4907	3068.2085	3104.2122	3108.5994	3134.0956	3181.9779
C1CC23OCC2CC=C13	C1C[C@@]23OC[C@@H]2C[CH][C]13	
InChI=1S/C8H10O/c1-2-7-5-9-8(7)4-3-6(1)8/h1,7H,2-5H2	InChI=1S/C8H10O/c1-2-7-5-9-8(7)4-3-6(1)8/h1,7H,2-5H2/t7-,8-/m0/s1
