15
gdb 43189	2.24427	2.2246	1.29197	4.051	65.68	-0.2395	-0.0526	0.1869	939.6277	0.112716	-457.692478	-457.685505	-457.684561	-457.724104	26.38	
O	 0.0017723786	 0.025614261	 0.0028641036	-0.280378
C	-0.0145806636	 1.2178541613	 0.0092180682	 0.4171
C	-1.1243635897	 2.2987886581	 0.0963280669	-0.056155
O	-1.5683782427	 2.6891350142	-1.2330896121	-0.289771
C	-0.798658095	 3.9229511009	-1.1936028784	-0.184318
C	-0.0447113873	 3.4177588874	 0.0213928791	 0.253459
C	 0.6952745785	 3.9298883186	 1.242047873	-0.184339
O	 1.4986151341	 2.7173226489	 1.2678725891	-0.289752
C	 1.0651566491	 2.3296839817	-0.0658287181	-0.05619
H	-1.9432114383	 2.2241606095	 0.817266458	 0.098296
H	-0.2276902381	 4.0898982164	-2.1127111126	 0.121443
H	-1.45237527	 4.7849081667	-1.0061190355	 0.115427
H	 1.3250200531	 4.8115269539	 1.0642387761	 0.115428
H	 0.1201021786	 4.0708291681	 2.1628808402	 0.121447
H	 1.8855784826	 2.2855046433	-0.7874848272	 0.098304
94.8796	191.8114	231.3605	290.5133	305.1977	439.0122	483.4468	614.7718	709.8985	763.0886	787.3529	855.6413	933.9893	955.4604	965.2404	986.567	987.9645	1009.1236	1076.7767	1102.249	1123.601	1157.2587	1161.3803	1194.8889	1252.2103	1254.693	1266.7741	1269.0011	1343.3946	1389.989	1517.6846	1519.8429	1898.4455	3015.0497	3018.1549	3076.0358	3076.7132	3077.9076	3079.1824
O=C1C2OCC22COC12	O=C1[C@@H]2OC[C@]32CO[C@@H]13	
InChI=1S/C6H6O3/c7-3-4-6(1-8-4)2-9-5(3)6/h4-5H,1-2H2	InChI=1S/C6H6O3/c7-3-4-6(1-8-4)2-9-5(3)6/h4-5H,1-2H2/t4-,5-,6+/m0/s1
