16
gdb 77784	2.8371	1.36809	1.09385	4.5254	77.07	-0.2649	-0.0259	0.239	1113.9751	0.124009	-396.902252	-396.894002	-396.893057	-396.935087	30.735	
C	 0.0397545811	 1.5596284886	-0.0112825243	-0.422738
C	 0.0687431675	 0.0565406017	 0.1159138813	-0.026315
N	 1.2640343095	-0.7780711153	-0.1843981637	-0.169335
C	 2.4222413437	-0.0657382228	 0.3347012345	 0.37836
N	 3.4161059452	 0.2855189157	-0.3441921377	-0.490185
C	 1.9525235102	-0.0673160902	 1.7888373767	-0.415214
C	 0.6677081552	-0.7052062152	 1.2442325702	 0.161986
C	 0.0181899428	-1.8251767453	 1.8535376438	 0.22397
N	-0.5188197385	-2.7044257057	 2.3796584729	-0.330285
H	 0.9007482557	 2.0489449123	 0.4472418701	 0.13335
H	 0.0235868277	 1.8371064457	-1.0696268713	 0.152278
H	-0.8690221799	 1.9503567379	 0.4563324458	 0.139871
H	-0.8095081129	-0.4308846109	-0.3015188092	 0.132087
H	 4.1232481075	 0.7353311656	 0.2391927073	 0.233649
H	 2.5296359753	-0.7610137377	 2.4045575195	 0.159871
H	 1.86137141	 0.8895075454	 2.3081576341	 0.13865
107.7964	142.2924	161.0178	169.1075	256.5365	346.8369	420.9681	474.5688	496.2546	551.6849	597.2235	609.7057	659.8898	744.5523	840.0674	883.7624	907.5278	962.2161	968.946	1019.563	1054.8678	1122.4139	1123.9454	1168.7106	1212.9955	1248.2737	1285.1662	1315.9359	1411.9481	1437.1673	1465.806	1485.7719	1496.7507	1809.0461	2352.0847	3050.3475	3072.0975	3115.3782	3127.887	3131.3168	3149.6139	3475.4856
CC1N2C(=N)CC12C#N	C[C@H]1N2[C]([NH])C[C@@]12C#N	
InChI=1S/C6H7N3/c1-4-6(3-7)2-5(8)9(4)6/h4,8H,2H2,1H3	InChI=1S/C6H7N3/c1-4-6(3-7)2-5(8)9(4)6/h4,8H,2H2,1H3/t4-,6-,9?/m1/s1
