19
gdb 62213	4.27429	0.62197	0.56314	2.7283	77.8	-0.2528	-0.032	0.2208	1883.6256	0.157166	-419.217259	-419.206879	-419.205935	-419.254073	35.354	
C	-0.0931659273	 1.67397809	-0.1520985834	-0.39544
C	 0.0675039094	 0.1567726314	 0.0615316973	-0.112857
C	-1.2660244594	-0.5893389802	 0.1442399446	-0.125766
N	-2.054029537	-0.122810728	 1.2841898858	-0.306883
C	-3.357639057	-0.7722881476	 1.3609204541	-0.258702
C	-4.1015060896	-0.3212230818	 2.5403483434	 0.25426
N	-4.6773275513	 0.0171907998	 3.4825075884	-0.295758
C	 0.9565951974	-0.417939837	-1.0239799831	 0.156626
O	 0.6536478757	-1.3210381398	-1.7613396944	-0.243764
H	 0.8779495466	 2.178407438	-0.1654111352	 0.121146
H	-0.5963021124	 1.880036897	-1.1028240437	 0.128894
H	-0.6986215115	 2.0996705875	 0.6496731851	 0.149014
H	 0.6223379641	 0.0115253376	 1.0040096907	 0.096891
H	-1.8416257786	-0.396706134	-0.7695379064	 0.119627
H	-1.0780203348	-1.6756036277	 0.1629381487	 0.103783
H	-1.5473388527	-0.2943938295	 2.1477906971	 0.230134
H	-3.9353502011	-0.5096381725	 0.4659726892	 0.160089
H	-3.312247845	-1.8765817643	 1.3882925785	 0.135054
H	 1.9495308245	 0.0815029912	-1.1081025067	 0.083652
42.8662	81.0133	97.6196	102.7147	133.6062	178.3444	216.9411	275.5883	334.666	389.187	395.2417	428.5737	557.3975	684.4403	783.7905	813.8164	909.4713	924.1424	935.6134	956.8818	1001.4389	1052.4384	1104.1697	1144.2514	1153.9579	1176.8241	1238.1254	1285.7624	1301.6695	1328.2546	1366.4517	1402.4454	1415.6208	1433.8019	1488.4902	1491.326	1496.7303	1507.1794	1509.9146	1827.6891	2369.2146	2867.1595	2939.3738	2969.2116	2974.9051	3041.0405	3049.9207	3051.9284	3106.7703	3141.0841	3508.6496
CC(CNCC#N)C=O	C[C@@H](CNCC#N)C=O	
InChI=1S/C6H10N2O/c1-6(5-9)4-8-3-2-7/h5-6,8H,3-4H2,1H3	InChI=1S/C6H10N2O/c1-6(5-9)4-8-3-2-7/h5-6,8H,3-4H2,1H3/t6-/m0/s1
