18
gdb 90812	3.05992	1.84368	1.51283	1.6948	73.31	-0.216	0.0657	0.2817	911.2057	0.150112	-401.872239	-401.865432	-401.864488	-401.903351	28.178	
O	-0.2707278043	 1.4073363346	 0.5046949059	-0.435969
C	 0.0136751552	 0.0929154271	 0.0261452961	 0.07855
C	 0.9798792775	-0.6717520262	 0.9458053635	-0.267008
C	 0.2698310296	-1.5936192567	 1.9074092414	-0.009492
C	-1.1545580498	-1.4993493721	 2.301555555	-0.052008
C	-2.0869277744	-0.9733998245	 1.1985094277	-0.090515
C	-1.3117183941	-0.6206649933	-0.0438636754	-0.031449
C	-1.5353440769	-2.0680522701	 0.3216700024	-0.047344
N	-0.6730244379	-2.6376297456	 1.4335241385	-0.16946
H	 0.5454224661	 1.9167910904	 0.4648229008	 0.278592
H	 0.4460821367	 0.1534646211	-0.983299391	 0.064684
H	 1.6740820894	-1.274661411	 0.3472287541	 0.108779
H	 1.5864596988	 0.047520426	 1.5079918407	 0.098777
H	 0.9170284517	-2.0156722674	 2.6742389269	 0.094624
H	-1.4966288315	-1.6873298311	 3.3144081597	 0.092318
H	-3.1074123141	-0.6610376837	 1.3694024286	 0.094355
H	-1.9591697571	-0.2928201026	-0.8527520675	 0.095199
H	-2.0219513348	-2.7765139748	-0.3362814274	 0.097364
82.6883	246.1952	300.6854	381.9328	409.8604	518.2833	558.3118	601.8169	696.6234	710.3082	735.3171	751.8639	833.6313	877.7949	894.6839	922.4872	933.3643	960.7496	992.5628	1021.477	1041.4575	1058.1148	1067.8671	1082.5517	1090.7594	1118.9497	1156.7552	1218.6868	1236.6269	1254.5919	1274.8851	1312.5419	1331.335	1337.8442	1381.3567	1424.4806	1436.3925	1449.5054	1474.3494	2981.4413	3026.5239	3065.7886	3121.799	3148.9372	3156.4939	3190.0731	3212.4582	3808.1976
OC1CC2C3C4C1C4N23	O[C@H]1C[C@H]2[C@H]3[C@H]4[C@@H]1[C@H]4N23	
InChI=1S/C7H9NO/c9-3-1-2-6-5-4(3)7(5)8(2)6/h2-7,9H,1H2	InChI=1S/C7H9NO/c9-3-1-2-6-5-4(3)7(5)8(2)6/h2-7,9H,1H2/t2-,3-,4+,5+,6-,7+,8?/m0/s1
