20
gdb 116810	8.80213	0.47306	0.46992	3.6761	82.12	-0.2488	0.0209	0.2697	2322.8473	0.168422	-440.250633	-440.240282	-440.239338	-440.288185	34.887	
C	-0.2846534633	 1.3298449822	-0.1412653748	-0.248885
O	 0.0196796768	-0.041868326	 0.0776088734	-0.191706
C	 0.5648578517	-0.6907679938	-0.9699868856	 0.126923
N	 0.8777433985	-1.9055916562	-0.8822891141	-0.209447
C	 1.4618168872	-2.5343856088	-2.0502616246	-0.150244
C	 2.8400386423	-3.1239126359	-1.715298582	-0.20964
C	 3.4545552981	-3.833078949	-2.8955004729	 0.09607
C	 4.2271433981	-5.0732538107	-2.7564125631	-0.179327
O	 2.8864434642	-5.1002421369	-3.2477362673	-0.235982
H	 0.6177902531	 1.9120168487	-0.3649854194	 0.126183
H	-1.0074403724	 1.4569108372	-0.9565254985	 0.127479
H	-0.7252348275	 1.6984106874	 0.7857486444	 0.14713
H	 0.6967867266	-0.0712669917	-1.8723558177	 0.070677
H	 0.8084443678	-3.3559673685	-2.3681066925	 0.126246
H	 1.5516598826	-1.8406457729	-2.9062433161	 0.07502
H	 3.5102283277	-2.3192878801	-1.386544633	 0.098786
H	 2.7335808266	-3.8199849272	-0.8773222818	 0.117575
H	 3.6730882326	-3.2026448588	-3.7607009154	 0.087029
H	 4.9986259031	-5.3194538521	-3.4850710921	 0.111979
H	 4.3707334161	-5.5044064467	-1.7663340168	 0.114134
38.979	50.382	56.7579	95.9965	144.8225	158.8756	220.4101	269.1491	333.389	415.4723	448.0609	478.9885	612.9392	774.241	817.3974	874.939	945.2992	986.3425	1009.9583	1038.146	1056.9395	1072.4184	1105.1752	1154.3076	1157.7708	1175.8702	1177.6957	1179.6975	1232.1348	1278.3162	1287.9454	1303.2943	1316.7572	1385.608	1415.4463	1447.032	1473.4575	1485.8858	1495.0956	1500.8179	1503.0159	1530.3247	1776.2604	2933.1084	2980.1329	3014.3417	3029.8002	3049.4517	3075.5836	3076.0416	3081.5011	3095.9013	3144.6814	3166.3439
COC=NCCC1CO1	COC=NCC[C@H]1CO1	
InChI=1S/C6H11NO2/c1-8-5-7-3-2-6-4-9-6/h5-6H,2-4H2,1H3	InChI=1S/C6H11NO2/c1-8-5-7-3-2-6-4-9-6/h5-6H,2-4H2,1H3/t6-/m0/s1
