20
gdb 97566	3.1038	0.75091	0.66069	3.9002	85.31	-0.2345	0.0341	0.2686	1764.1194	0.168761	-403.170886	-403.159838	-403.158894	-403.209178	38.496	
C	-0.36311494	 1.3084542748	-0.1453336253	-0.363918
C	 1.0407929187	 0.6792776112	-0.2029271334	-0.317627
C	 1.2232609717	-0.2218654934	-1.3378212274	 0.093328
C	 1.3546370013	-0.9777283429	-2.2690038726	 0.053556
C	 1.5067865347	-1.9060271483	-3.3869454279	-0.300769
C	 0.4597736854	-3.0396303045	-3.3556248013	-0.379495
C	 1.4998164992	-1.2419939628	-4.7886974115	 0.441311
N	 1.4829520906	 0.11339195	-4.802420026	-0.536234
O	 1.531865173	-1.9249125255	-5.7939851354	-0.372076
H	-0.564364348	 1.8982634362	-1.0440435132	 0.123221
H	-1.1324671212	 0.5353217082	-0.0715636582	 0.131592
H	-0.4501328247	 1.9667239951	 0.7240263401	 0.117605
H	 1.7982061204	 1.4728685608	-0.239546363	 0.128668
H	 1.2323178257	 0.1273898324	 0.7262963361	 0.134056
H	 2.500653042	-2.3703833104	-3.3195971028	 0.134281
H	 0.6016154344	-3.6776909924	-4.2292461586	 0.146774
H	 0.5677401264	-3.6327483482	-2.4446121183	 0.118993
H	-0.5533941989	-2.6286406257	-3.380244093	 0.123794
H	 1.4127444422	 0.6377771192	-3.9469820844	 0.263684
H	 1.4741006272	 0.5845890363	-5.6914088138	 0.259256
19.5664	32.9719	85.0662	98.5323	212.994	227.0514	236.186	260.8431	271.4511	321.764	395.7218	405.8759	495.3503	550.5415	554.4484	619.6777	711.0906	762.3664	785.1601	808.0566	937.482	1006.2664	1070.5448	1081.2813	1091.4983	1104.0083	1106.7259	1181.7983	1280.346	1286.259	1320.4383	1344.8636	1352.0769	1398.2084	1410.4572	1475.6178	1493.9279	1495.2407	1500.6668	1505.2467	1601.1179	1797.9695	2352.92	3014.3271	3020.4162	3044.8596	3047.3435	3052.7136	3117.8678	3123.9703	3125.4736	3150.1058	3596.0326	3734.5162
CCC#CC(C)C(N)=O	CCC#C[C@@H](C)C(=O)N	
InChI=1S/C7H11NO/c1-3-4-5-6(2)7(8)9/h6H,3H2,1-2H3,(H2,8,9)	InChI=1S/C7H11NO/c1-3-4-5-6(2)7(8)9/h6H,3H2,1-2H3,(H2,8,9)/t6-/m1/s1
