18
gdb 86923	3.90748	0.89832	0.76869	5.1305	75.22	-0.2459	-0.0224	0.2236	1459.4814	0.146045	-439.116396	-439.106822	-439.105878	-439.151995	32.652	
C	 0.0817714075	 1.4490430823	-0.1177525288	-0.346244
N	 0.0006666188	 0.0133406604	-0.0512735818	-0.069143
C	-1.1336031268	-0.9125701615	-0.0413308547	-0.200011
C	-0.0979913812	-2.0781752864	 0.020073526	-0.159086
C	-0.0707131769	-3.0755807964	-1.1401110184	-0.29878
C	 1.1559630736	-3.9721265764	-1.0896760378	 0.150763
O	 1.1125727517	-5.172010898	-1.1845840433	-0.243337
C	 0.970236098	-0.9542828234	-0.0258959501	 0.410537
O	 2.1745009153	-0.9005523765	-0.0569963945	-0.379397
H	 1.140127927	 1.7202834234	-0.1273357128	 0.164975
H	-0.3913316592	 1.8368419885	-1.0281776794	 0.130889
H	-0.3968323484	 1.919378732	 0.7496540953	 0.132096
H	-1.7869140952	-0.8134189886	 0.8324531454	 0.114987
H	-1.7394974246	-0.8824582958	-0.9546461566	 0.112765
H	-0.1051583753	-2.5990265338	 0.9818455443	 0.11413
H	-0.9628140286	-3.7088582611	-1.1536586905	 0.124418
H	-0.0319778151	-2.5218596453	-2.08990499	 0.124749
H	 2.1160327794	-3.4303841437	-0.9582264922	 0.115689
55.0731	80.2875	104.638	127.2346	152.0161	190.643	248.3087	305.5912	338.1962	476.3782	527.7245	657.645	732.6127	775.9295	814.6911	888.6234	960.4993	986.6684	1023.8781	1074.7991	1100.1331	1124.2165	1147.9205	1169.93	1185.1564	1235.3375	1256.484	1294.6809	1297.5872	1363.4895	1420.7794	1429.3824	1449.7831	1464.1605	1482.717	1511.2579	1533.1255	1831.3505	1866.2326	2926.2606	3009.8908	3016.2542	3027.1764	3067.245	3069.232	3080.3165	3093.9294	3130.8902
CN1CC(CC=O)C1=O	CN1C[C@@H](CC=O)C1=O	
InChI=1S/C6H9NO2/c1-7-4-5(2-3-8)6(7)9/h3,5H,2,4H2,1H3	InChI=1S/C6H9NO2/c1-7-4-5(2-3-8)6(7)9/h3,5H,2,4H2,1H3/t5-/m1/s1
