18
gdb 46798	2.90492	1.61968	1.26884	4.0915	71.83	-0.2338	0.0203	0.254	1011.0771	0.15017	-439.095656	-439.08832	-439.087375	-439.127456	29.325	
O	 0.0213991961	-0.0499076063	-0.1871066168	-0.361121
C	 0.0075130527	 1.1565584248	-0.0217784127	 0.357083
C	-1.3377560116	 1.874920466	 0.2035751771	-0.185894
O	-1.4187781254	 2.9515837363	 1.1169540141	-0.26806
C	-0.5396609392	 4.0545021703	 0.9745954618	 0.129999
C	 0.1495008033	 4.1960351302	-0.4098339469	-0.26666
C	 1.3116138431	 3.3258557387	 0.1474454971	 0.00811
C	 0.8619598421	 3.7574432979	 1.5768263521	-0.232753
N	 1.1470422051	 1.9075928551	-0.1183513592	-0.303775
H	-1.7114876066	 2.1676884951	-0.7903664319	 0.117247
H	-2.0111156871	 1.1079947495	 0.5877959685	 0.14416
H	-1.0829897449	 4.9199594588	 1.3606110048	 0.085521
H	-0.3682609842	 3.8569445309	-1.3082066383	 0.113643
H	 0.4786306233	 5.2266714457	-0.5616253302	 0.113795
H	 2.3218287645	 3.5969899362	-0.162371939	 0.083784
H	 1.3695483818	 4.6682374576	 1.9065643373	 0.103647
H	 0.9006779769	 3.0000985103	 2.3619672444	 0.112549
H	 1.9793105303	 1.3493293529	-0.2397159022	 0.248725
79.0966	173.9	326.9499	345.2892	359.9465	438.9658	446.818	479.2238	526.4356	610.6983	668.2031	763.3163	795.9675	821.5735	882.4784	895.5893	914.0583	975.2905	997.6773	1017.4961	1081.2641	1091.4678	1114.8218	1153.0053	1161.4563	1224.7093	1248.2007	1269.1779	1275.4793	1284.8819	1341.7675	1371.5555	1392.3344	1403.1737	1454.3604	1463.6019	1482.1302	1494.2636	1778.0077	2983.0231	3061.642	3073.5854	3086.4354	3099.8575	3129.7552	3131.7202	3133.6988	3612.7351
O=C1COC2CC(C2)N1	O=C1CO[C@@H]2C[C@@H](C2)N1	
InChI=1S/C6H9NO2/c8-6-3-9-5-1-4(2-5)7-6/h4-5H,1-3H2,(H,7,8)	InChI=1S/C6H9NO2/c8-6-3-9-5-1-4(2-5)7-6/h4-5H,1-3H2,(H,7,8)/t4-,5+
