20
gdb 65129	3.35325	1.33653	1.20879	1.934	78.93	-0.229	0.0814	0.3104	1112.3193	0.171159	-403.043517	-403.035465	-403.034521	-403.076252	31.488	
C	-0.0150242548	 1.5575872115	-0.1479767921	-0.455133
C	 0.0546939796	 0.049756572	-0.0462526832	 0.357207
C	 1.1817178743	-0.6827802422	-0.6467183228	-0.223725
O	 1.1268093334	-0.4628283616	 0.7635054622	-0.269904
C	-1.2836077115	-0.6486386332	 0.0422607395	-0.005431
C	-1.5282307556	-1.9383440505	 0.8621566141	-0.077644
C	-1.4608273959	-1.0180856722	 2.1013497964	-0.175358
N	-2.2937504167	-0.1679264924	 1.1159604235	-0.16615
C	-3.007484429	-1.4980106071	 0.8118897898	-0.170604
H	 0.9887053788	 1.9829319261	-0.2222654353	 0.122613
H	-0.5921668864	 1.8588462815	-1.0287598424	 0.122728
H	-0.5153467807	 1.9737930154	 0.7308247957	 0.147102
H	 1.0531528228	-1.7182493108	-0.9608131661	 0.111159
H	 1.9571208112	-0.1316886615	-1.1778028167	 0.112027
H	-1.7475527112	-0.621987951	-0.9521758907	 0.075722
H	-1.099876307	-2.9358233807	 0.7158807251	 0.065611
H	-2.0320017077	-1.3202906776	 2.9835751489	 0.09606
H	-0.5020297415	-0.5842445454	 2.3755475146	 0.135282
H	-3.524275893	-1.5093084655	-0.1522236715	 0.097277
H	-3.6645987289	-1.8256536448	 1.6215047012	 0.101161
62.7003	159.8361	176.2237	221.9683	318.0673	350.7302	409.0454	446.1072	537.8223	618.2686	764.6292	778.1409	785.769	845.4838	872.0538	892.676	904.0746	921.5594	932.4215	1006.1321	1013.4871	1035.6523	1076.3381	1085.3405	1117.5806	1126.0712	1136.3931	1157.5222	1172.3328	1181.7378	1201.0904	1228.1285	1247.5212	1269.9099	1297.8869	1385.1657	1410.8301	1415.6315	1478.3021	1495.0948	1515.9839	1530.1224	1556.4958	3021.8648	3038.6155	3042.0921	3052.1555	3069.5727	3077.4138	3109.7216	3116.3994	3130.0534	3162.8334	3171.2007
CC1(CO1)C1C2CN1C2	C[C@]1(CO1)[C@H]1[C@H]2CN1C2	
InChI=1S/C7H11NO/c1-7(4-9-7)6-5-2-8(6)3-5/h5-6H,2-4H2,1H3	InChI=1S/C7H11NO/c1-7(4-9-7)6-5-2-8(6)3-5/h5-6H,2-4H2,1H3/t6-,7+/m1/s1
