17
gdb 17364	4.07909	1.56133	1.47698	2.6246	67.59	-0.2323	-0.0181	0.2142	922.0974	0.141706	-363.832194	-363.824454	-363.82351	-363.864991	28.256	
C	 0.1004130055	 1.1932268159	 0.6902933513	-0.480877
C	 0.0531307118	 0.0526004127	-0.3093775657	 0.377462
O	 1.0005582774	-0.2304596417	-1.009169784	-0.305693
C	-1.2381719761	-0.7446204358	-0.3535861557	-0.106468
C	-1.4052286502	-1.8595292086	-1.4126183669	-0.18892
N	-1.615088586	-2.9234451253	-0.3605565316	-0.123647
C	-0.370507343	-2.9471653044	 0.4283737632	-0.236556
C	-1.3472222194	-1.8714090907	 0.6943316136	-0.053883
H	 1.1097792517	 1.6023363723	 0.745910128	 0.144198
H	-0.59618699	 1.9827304184	 0.3841167539	 0.142285
H	-0.2213301616	 0.8535001229	 1.681069283	 0.141061
H	-2.1009617697	-0.0753000223	-0.3024250987	 0.090249
H	-2.3031182305	-1.7548125467	-2.0232016197	 0.112943
H	-0.5365991719	-2.0328482372	-2.052214249	 0.12889
H	-0.3367374377	-3.7691644083	 1.1365182829	 0.12236
H	 0.5728506283	-2.7182589064	-0.0610931598	 0.138362
H	-1.9289298186	-1.8135639949	 1.6088687852	 0.098233
42.8282	122.2694	137.0691	196.016	344.7364	361.8876	467.0282	569.9021	598.8224	702.8259	761.919	774.9416	804.9064	925.1541	952.9535	971.368	973.1295	1016.8598	1050.7277	1070.4447	1089.212	1124.0098	1131.957	1188.997	1198.794	1209.773	1239.2039	1294.1205	1349.3784	1368.2394	1383.7919	1461.6914	1475.7977	1489.2511	1507.6627	1801.735	3034.1891	3071.623	3076.7192	3094.6916	3114.4631	3133.4293	3151.9738	3158.3958	3206.9578
CC(=O)C1CN2CC12	CC(=O)[C@H]1CN2C[C@@H]12	
InChI=1S/C6H9NO/c1-4(8)5-2-7-3-6(5)7/h5-6H,2-3H2,1H3	InChI=1S/C6H9NO/c1-4(8)5-2-7-3-6(5)7/h5-6H,2-3H2,1H3/t5-,6+,7?/m1/s1
