20
gdb 6632	5.79004	0.72797	0.67815	0.7869	81.87	-0.2394	0.0443	0.2836	1729.4536	0.173198	-348.978327	-348.96771	-348.966766	-349.015936	35.867	
C	-0.0081796986	 1.4698230198	-0.1461803606	-0.498537
C	-0.0242949948	 0.022244561	 0.0028553372	 0.129592
C	-0.0458400692	-1.1747600668	 0.1226924726	 0.011607
C	-0.0463662076	-2.623555343	 0.2790157045	-0.218601
O	-1.3343905061	-3.1386012494	-0.0062916457	-0.257079
C	-1.4056458604	-4.5611408536	-0.0530773682	 0.176703
C	-1.3473241053	-5.1873654202	 1.3441239223	-0.395446
C	-2.70486412	-4.8968556695	-0.7768018017	-0.390218
H	 0.7467694518	 1.7888030958	-0.8732419056	 0.14724
H	-0.9792885736	 1.8374646436	-0.4955721596	 0.152385
H	 0.2120781667	 1.9686377747	 0.8040616951	 0.147109
H	 0.7001733383	-3.0734764189	-0.3992427841	 0.108718
H	 0.2688149167	-2.8796499564	 1.303468125	 0.113386
H	-0.5552701076	-4.9385484393	-0.6478366614	 0.06176
H	-1.4347550722	-6.2765445775	 1.2769423029	 0.114148
H	-0.4064317331	-4.9644715751	 1.8555654891	 0.115877
H	-2.1704291568	-4.8109842513	 1.9600079375	 0.124219
H	-2.719396077	-4.4350015208	-1.7672225854	 0.122558
H	-2.8154965609	-5.9793026532	-0.8910855944	 0.110417
H	-3.5618685903	-4.5187545898	-0.2104803995	 0.124162
21.631	34.1723	79.6677	106.8938	200.6945	205.3548	225.8472	259.6617	296.7358	364.4078	377.2866	434.8123	455.0945	534.9126	778.8802	851.0113	926.3225	933.7238	946.6268	1027.0897	1051.7074	1058.1561	1088.4754	1147.5611	1164.3645	1180.6542	1201.3254	1256.3464	1359.638	1367.8345	1397.3817	1413.3777	1414.5177	1431.5184	1476.9901	1479.3259	1479.9419	1484.747	1495.5963	1502.6279	1513.3196	2380.2824	2944.4142	2949.3907	2977.0293	3027.5584	3037.4207	3043.3421	3087.7578	3089.7663	3107.547	3112.7988	3117.2737	3124.234
CC#CCOC(C)C	CC#CCOC(C)C	
InChI=1S/C7H12O/c1-4-5-6-8-7(2)3/h7H,6H2,1-3H3	InChI=1S/C7H12O/c1-4-5-6-8-7(2)3/h7H,6H2,1-3H3
