16
gdb 29643	2.45077	1.67259	1.00579	3.5505	70.06	-0.1756	0.0567	0.2324	1127.4601	0.124371	-471.220012	-471.210815	-471.20987	-471.255333	32.953	
C	 0.0256334328	 1.4365646585	 0.0072206404	-0.331042
N	 0.0535359351	-0.0082298157	 0.0444152546	-0.142721
C	 0.1474114298	-0.8045793098	-1.0851498526	 0.452719
N	 0.2192152323	-0.3605915706	-2.2739357204	-0.615028
O	 0.1462338453	-2.108628081	-0.6657202558	-0.250325
C	 0.049480312	-2.1123116517	 0.7523150779	 0.098502
N	 0.0234201943	-3.2815279336	 1.4949957001	-0.610454
C	-0.0047999878	-0.8351641983	 1.1536198972	 0.359081
O	-0.099968161	-0.2919814423	 2.3800043435	-0.432688
H	 0.9369370148	 1.8236917939	-0.4584434605	 0.147164
H	-0.8299549075	 1.7865734316	-0.5781526932	 0.147127
H	-0.0514309932	 1.8087656284	 1.0290799321	 0.147975
H	 0.2806866774	-1.1283837985	-2.9373276769	 0.219685
H	-0.7755095772	-3.8756010592	 1.2919172252	 0.248175
H	 0.866725508	-3.8410014758	 1.4040076532	 0.248175
H	-0.1271668251	-1.0274320661	 3.0062160451	 0.313656
14.2217	99.9332	156.8522	198.299	258.1887	268.3063	327.8258	337.2336	359.5026	458.4196	576.4811	628.2459	637.418	642.3718	721.8018	730.1017	748.9467	792.5881	932.2404	1015.1028	1055.1557	1122.6775	1160.9592	1215.6932	1220.2306	1290.9397	1328.832	1414.9838	1450.4739	1476.5361	1507.7289	1559.8993	1664.7115	1755.0232	1831.2176	3043.9088	3100.362	3156.5674	3475.1643	3531.5433	3538.7999	3787.136
CN1C(=N)OC(N)=C1O	CN1[C@H]([NH])OC(=C1O)N	
InChI=1S/C4H7N3O2/c1-7-3(8)2(5)9-4(7)6/h6,8H,5H2,1H3	InChI=1S/C4H8N3O2/c1-7-3(8)2(5)9-4(7)6/h4,6,8H,5H2,1H3/t4-/m0/s1
