16
gdb 71474	4.19543	1.21778	1.1049	4.6761	74.41	-0.2643	0.0217	0.286	1084.8879	0.124481	-400.71318	-400.705597	-400.704653	-400.745075	29.563	
O	-0.1389277577	 1.4141345496	 0.035527481	-0.472781
C	-0.0495505865	 0.0372845313	 0.0118691218	 0.374134
C	 0.4472263206	-0.7489046188	-1.2417137669	-0.303835
C	-0.5170539786	-1.8408504095	-0.7877400526	-0.099245
C	-1.3373649599	-0.8809660614	 0.0204528173	-0.162018
C	-0.4527709458	-1.8742682385	 0.7647046562	 0.226049
C	 0.5139560915	-0.7747382945	 1.2143961149	-0.354848
C	-0.8614310189	-3.0225289297	 1.4989534043	 0.17374
N	-1.1835733433	-3.9558060809	 2.1039016121	-0.35162
H	 0.7508862684	 1.7852232638	 0.0243379631	 0.288434
H	 0.0883699173	-0.2740514769	-2.1582921052	 0.118504
H	 1.5159436054	-0.9761265334	-1.3192002196	 0.098152
H	-0.8572826038	-2.7142601255	-1.3269245812	 0.115839
H	-2.3968338059	-0.6905614179	 0.0998674796	 0.121752
H	 1.5860909494	-0.9972852951	 1.2325978373	 0.102709
H	 0.1936275578	-0.3408816227	 2.1640981678	 0.125034
132.2781	145.3076	167.9475	316.7119	348.3912	419.7292	450.3583	508.2632	546.1038	565.6533	633.2141	736.9193	745.2665	848.3183	872.41	906.2138	908.59	962.8934	986.6837	1007.2465	1058.479	1081.4991	1118.0432	1126.6503	1153.2783	1193.5738	1212.681	1237.9347	1256.9103	1305.8543	1371.4528	1394.243	1488.103	1509.164	2346.0783	3040.3896	3047.5137	3113.1617	3121.5104	3215.6294	3243.1286	3797.023
OC12CC3C1C3(C2)C#N	O[C@]12C[C@@H]3[C@H]1[C@@]3(C2)C#N	
InChI=1S/C7H7NO/c8-3-6-2-7(9)1-4(6)5(6)7/h4-5,9H,1-2H2	InChI=1S/C7H7NO/c8-3-6-2-7(9)1-4(6)5(6)7/h4-5,9H,1-2H2/t4-,5+,6+,7+/m1/s1
