14
gdb 21919	3.33432	1.84219	1.20935	2.4625	60.1	-0.206	0.0248	0.2308	929.6563	0.108251	-415.861201	-415.853448	-415.852504	-415.89369	27.602	
O	-0.1232908877	 1.4222017666	 0.3683260024	-0.426971
C	 0.0184864506	 0.0737812232	-0.0700849129	-0.198825
C	-1.3281292356	-0.562336353	-0.0091290792	 0.311765
C	-1.7328115074	-1.8768586069	 0.122185688	 0.137259
O	-0.8786601127	-2.9347484108	 0.2489121145	-0.450874
C	-3.142794057	-1.8404086992	 0.077488483	-0.116034
N	-3.589682659	-0.5908833156	-0.0639078499	-0.225599
N	-2.4786771127	 0.1533539867	-0.1323012764	-0.235805
H	 0.6913829152	 1.889997184	 0.1638441479	 0.294925
H	 0.4158842222	 0.0428259129	-1.0979117096	 0.109799
H	 0.7157664047	-0.4959429236	 0.5616914618	 0.119531
H	-1.3942094389	-3.7272993411	 0.423772948	 0.299973
H	-3.8402818706	-2.6631798462	 0.1472059588	 0.101874
H	-2.5375029911	 1.1571099329	-0.1641584864	 0.278983
56.4769	169.9079	196.8621	223.5968	274.1701	313.4607	346.1257	527.6256	533.5699	642.9047	678.5692	707.7166	764.2663	835.6331	957.0931	1033.8904	1055.4121	1115.6126	1156.8417	1215.6982	1225.9273	1258.9837	1287.4072	1333.5059	1400.3362	1433.4203	1473.7116	1518.6753	1548.858	1668.176	2962.836	3007.1404	3233.0392	3679.0511	3837.5088	3842.6733
OCC1=C(O)C=NN1	OCc1c(O)cn[nH]1	
InChI=1S/C4H6N2O2/c7-2-3-4(8)1-5-6-3/h1,7-8H,2H2,(H,5,6)	InChI=1S/C4H6N2O2/c7-2-3-4(8)1-5-6-3/h1,7-8H,2H2,(H,5,6)
