18
gdb 53151	3.44745	0.97578	0.87439	1.6141	83.05	-0.2376	0.0326	0.2702	1394.1917	0.146365	-401.844869	-401.83579	-401.834846	-401.88009	33.06	
C	 0.0704117701	 1.5156344706	-0.0397877405	-0.503623
C	 0.0168726983	 0.0624365081	 0.009705882	 0.148468
C	-0.0282601932	-1.1407591893	 0.0537240183	 0.049562
C	-0.0521380623	-2.5856897215	 0.0638312021	-0.213517
N	-0.1095506351	-3.3000223328	 1.4518744271	-0.143166
C	-1.5940117886	-2.8979793034	 1.4731015125	-0.247119
C	-1.3820806116	-3.3767362762	 0.0149551657	 0.346237
O	-2.2348879467	-3.3709856857	-1.0715123504	-0.460714
C	-0.5681278485	-4.5284234804	 0.654351761	-0.232153
H	 0.8831804753	 1.8611749615	-0.6879075154	 0.151223
H	-0.8650584511	 1.9356612078	-0.4254375239	 0.150841
H	 0.2385824208	 1.9381682028	 0.9569712735	 0.152387
H	 0.7550277568	-2.995975762	-0.5507872633	 0.098087
H	-2.1948341006	-3.5241166779	 2.1379269092	 0.095561
H	-1.7571336272	-1.8346259172	 1.6498328049	 0.121672
H	-3.0192729583	-3.8866540321	-0.8536746971	 0.283879
H	 0.2265379771	-4.9938774857	 0.0656547875	 0.104598
H	-1.1018678954	-5.2584275766	 1.2674011868	 0.097778
21.8555	83.7131	105.6087	209.3782	244.4509	290.5317	360.6036	365.3428	459.6966	469.4678	518.6218	615.9113	641.8738	751.9251	817.8082	858.5917	896.8168	950.6576	969.5272	989.6206	1051.4098	1053.1823	1064.9252	1090.5988	1100.332	1160.7915	1167.1206	1186.7855	1216.3087	1245.1797	1293.1486	1346.6725	1400.8398	1413.7262	1476.274	1477.5513	1503.8363	1545.6351	2365.8668	3027.4052	3055.1088	3059.1602	3066.8067	3088.921	3089.7642	3126.8663	3145.4809	3805.0976
CC#CC1N2CC1(O)C2	CC#C[C@H]1N2C[C@]1(O)C2	
InChI=1S/C7H9NO/c1-2-3-6-7(9)4-8(6)5-7/h6,9H,4-5H2,1H3	InChI=1S/C7H9NO/c1-2-3-6-7(9)4-8(6)5-7/h6,9H,4-5H2,1H3/t6-/m1/s1
