24
gdb 118759	2.91838	0.95622	0.84042	1.4896	87.71	-0.2051	0.0828	0.288	1541.5902	0.214761	-405.521158	-405.510532	-405.509588	-405.556925	39.148	
C	-0.1697359401	 1.5039253437	 0.1561808571	-0.380814
C	 0.0117786907	 0.0025075949	-0.0023357459	-0.05281
O	-1.2708824929	-0.5740077893	-0.1719559461	-0.2993
C	-1.3486802716	-1.9859984747	-0.0934007906	 0.422508
C	-0.5300848494	-2.6812451442	-1.1734493146	-0.460845
C	-1.2285616048	-2.5360804073	 1.3642129714	-0.222159
N	-2.6966780096	-2.5002612219	 1.4766458351	-0.060132
C	-3.365737505	-3.5898597523	 2.1449017159	-0.319101
C	-2.8470709199	-2.36509659	 0.0165013135	-0.204189
H	 0.8005225092	 1.9971034809	 0.2696732365	 0.110764
H	-0.6709236645	 1.9216566188	-0.7217264747	 0.125849
H	-0.7811171047	 1.7253070913	 1.0353491825	 0.127709
H	 0.6558120125	-0.2108200103	-0.8690871179	 0.088505
H	 0.5122898736	-0.4167604257	 0.8844960604	 0.086692
H	 0.5446926609	-2.533144649	-1.0271627671	 0.118959
H	-0.7176126496	-3.7582496819	-1.1653838239	 0.11592
H	-0.7978143778	-2.2903347693	-2.1607686314	 0.123392
H	-0.8056635962	-3.5545196282	 1.3868944918	 0.076224
H	-0.6983108181	-1.9179074627	 2.097137202	 0.099447
H	-3.0952066468	-3.5987926327	 3.2064519704	 0.118399
H	-4.4511760959	-3.4577876838	 2.0784513296	 0.119563
H	-3.1173710827	-4.5842844656	 1.7222793265	 0.082266
H	-3.5534015805	-1.5935092559	-0.3058012363	 0.10798
H	-3.0780869969	-3.3132357051	-0.4959471042	 0.075173
54.3946	79.003	123.6213	174.5828	216.7591	232.0234	249.0027	288.8337	312.7429	318.9954	348.0543	382.0972	445.1474	498.0494	630.2806	753.9105	822.1411	850.7895	874.1705	943.8696	959.9722	976.3378	980.06	1005.219	1095.9512	1118.0027	1134.8088	1138.0934	1154.2469	1182.1272	1190.9385	1197.8444	1235.2698	1263.1853	1286.4926	1299.1781	1305.2372	1357.7999	1399.5785	1405.5548	1425.7174	1451.685	1483.1854	1484.2232	1486.894	1489.6007	1496.8908	1498.8793	1501.9978	1516.0179	1529.3455	2903.8272	2957.9086	2969.8342	2975.9201	3003.7259	3036.9791	3044.008	3050.6413	3052.7206	3069.992	3094.0566	3104.4256	3115.6683	3117.7178	3122.775
CCOC1(C)CN(C)C1	CCOC1(C)CN(C)C1	
InChI=1S/C7H15NO/c1-4-9-7(2)5-8(3)6-7/h4-6H2,1-3H3	InChI=1S/C7H15NO/c1-4-9-7(2)5-8(3)6-7/h4-6H2,1-3H3
