23
gdb 122642	3.53489	0.71177	0.63859	1.8509	83.37	-0.2469	0.0738	0.3207	1827.7081	0.204273	-425.400362	-425.389893	-425.388949	-425.436659	37.535	
C	 0.0968163809	 1.2673977501	-0.1821283056	-0.225638
O	 0.0301778252	-0.1353701883	-0.2278337511	-0.229417
C	-1.2690735317	-0.6324332178	 0.0127759668	-0.056438
C	-1.2279846637	-2.1536542999	-0.0487026393	-0.197366
C	-2.6090938559	-2.7767534698	 0.1592551701	-0.024937
C	-3.5283578103	-2.7607546605	-1.1031525013	-0.228809
C	-3.1136290318	-4.2292920904	-1.3941332277	-0.258638
C	-2.6291455607	-4.3280804989	 0.0770613841	 0.131819
O	-1.3964844558	-4.9463199893	 0.3617457645	-0.428278
H	 1.1325464056	 1.5548214861	-0.3805995415	 0.124026
H	-0.5521871484	 1.735190912	-0.9406359847	 0.099052
H	-0.1971546511	 1.6611964284	 0.8045811139	 0.099915
H	-1.6292344399	-0.2992551408	 1.0027912905	 0.079577
H	-1.9751147759	-0.2273844172	-0.7337897497	 0.081108
H	-0.806978862	-2.4551347939	-1.0144703209	 0.104313
H	-0.5377508555	-2.52264678	 0.7161788142	 0.119172
H	-3.0576085511	-2.3682635337	 1.0713201069	 0.063331
H	-4.5871323565	-2.6680121749	-0.8481188435	 0.099676
H	-3.2929185035	-2.0209236989	-1.8719389274	 0.101443
H	-3.8853989097	-4.9272601371	-1.7287437528	 0.08963
H	-2.2631560194	-4.2835251897	-2.0790810164	 0.109897
H	-3.427443428	-4.7304458077	 0.7184218641	 0.063187
H	-1.4988221808	-5.896167378	 0.2467187669	 0.283374
64.1338	77.7438	104.232	126.557	141.4928	213.0581	226.8246	235.8057	299.2028	388.0435	426.7621	443.8408	561.213	656.5772	759.1294	789.3743	868.3283	898.6675	930.1914	956.0244	968.4839	1000.6654	1052.2336	1072.072	1105.5168	1143.6168	1161.0665	1168.7791	1182.9738	1196.9566	1217.2876	1230.1797	1235.8008	1258.6035	1264.4758	1279.069	1303.1097	1315.7851	1334.5972	1384.6918	1420.8689	1426.8441	1479.4572	1481.984	1485.2517	1487.1541	1500.454	1505.6097	1531.9601	2936.1416	2961.2859	2964.0866	2982.164	3003.1476	3037.9745	3049.6094	3057.364	3064.381	3093.7547	3103.2143	3109.1604	3120.7084	3819.7627
COCCC1CCC1O	COCC[C@H]1CC[C@H]1O	
InChI=1S/C7H14O2/c1-9-5-4-6-2-3-7(6)8/h6-8H,2-5H2,1H3	InChI=1S/C7H14O2/c1-9-5-4-6-2-3-7(6)8/h6-8H,2-5H2,1H3/t6-,7-/m1/s1
