16
gdb 9657	3.50895	1.40166	1.30699	2.7097	67.79	-0.2464	0.0249	0.2712	997.2798	0.12808	-383.679838	-383.671231	-383.670287	-383.712704	32.072	
O	 0.1809233498	 0.6296400187	 0.8017964414	-0.427524
C	-0.220571837	 0.2260312417	-0.4940282624	-0.069671
C	-1.5557376156	-0.4961132051	-0.4832420884	-0.073618
C	-1.7729893355	-1.7070617543	-1.3586220254	-0.352949
C	-1.6022769381	-1.8719712872	 0.1433768096	 0.19781
O	-0.3525164987	-2.3140305667	 0.6225522978	-0.458104
C	-2.732355956	-2.2660121262	 0.9416573021	 0.293036
C	-3.6632156814	-2.632042714	 1.610024725	-0.458557
H	 0.3102104416	-0.1830250195	 1.3050363799	 0.294702
H	-0.3036523331	 1.140065691	-1.0915714728	 0.109223
H	 0.5385741435	-0.4105232359	-0.9684273115	 0.092373
H	-2.4179384239	 0.130080159	-0.279442266	 0.111473
H	-2.7531405162	-1.8861890141	-1.7844155391	 0.126626
H	-0.9339629115	-2.0358945866	-1.9633770189	 0.122653
H	-0.3691943862	-3.2763202052	 0.6672768483	 0.293061
H	-4.4855692716	-2.9381041457	 2.2082380704	 0.199465
97.9321	103.3401	153.6344	230.3805	276.0574	301.3193	365.6028	443.7485	471.2031	507.5543	556.1639	571.3485	590.7461	682.105	708.7776	801.4716	885.7229	917.4828	954.9092	1031.5468	1059.6623	1073.0283	1082.5222	1149.7071	1217.3233	1230.8804	1277.379	1322.0532	1384.2514	1414.231	1436.6494	1472.9827	1499.0677	2232.1015	3009.153	3072.9429	3134.065	3170.3148	3229.8706	3500.9882	3795.4705	3804.9919
OCC1CC1(O)C#C	OC[C@H]1C[C@]1(O)C#C	
InChI=1S/C6H8O2/c1-2-6(8)3-5(6)4-7/h1,5,7-8H,3-4H2	InChI=1S/C6H8O2/c1-2-6(8)3-5(6)4-7/h1,5,7-8H,3-4H2/t5-,6-/m1/s1
