18
gdb 74607	3.16953	1.82966	1.45686	1.8451	80.91	-0.2028	0.0074	0.2102	941.8542	0.149916	-364.800952	-364.794064	-364.79312	-364.831883	28.327	
C	 0.0142389028	 1.4792774713	 0.0743786564	-0.497803
C	-0.0386051243	-0.012792697	 0.0082834788	 0.327339
C	 0.0399075503	-0.808150658	-1.0680071527	-0.177399
C	-0.0597475923	-2.2231704918	-0.6733683942	-0.074836
C	 0.8912484237	-2.8639212908	 0.3625355055	-0.081726
C	 1.963347754	-2.0882970361	 1.0083710367	-0.065392
C	 1.4460547937	-1.009191887	 1.6059847968	-0.084583
C	-0.0340217935	-0.9009072572	 1.2565972116	-0.180949
N	-0.4023310907	-2.2748552096	 0.7585616648	-0.108321
H	 0.8932018107	 1.8333830124	 0.6261903479	 0.130302
H	 0.0477040687	 1.92054456	-0.9252980133	 0.128508
H	-0.8649224177	 1.8794281735	 0.5957016106	 0.129145
H	 0.1513229727	-0.4793334541	-2.0940275052	 0.093685
H	-0.5871159272	-2.9194304258	-1.322064038	 0.09204
H	 0.9453928026	-3.9501762783	 0.3531877557	 0.0917
H	 3.0078575132	-2.3713430203	 0.9802057175	 0.100591
H	 1.9972558633	-0.2258209089	 2.1125226106	 0.101227
H	-0.6911637502	-0.5707509724	 2.0666544804	 0.076473
154.0541	171.3999	269.8722	341.0797	382.6919	542.9636	559.9178	582.5886	707.5265	726.0899	764.092	787.0379	812.651	841.2983	870.4842	902.4682	922.9679	944.3004	957.6835	978.9397	1005.6813	1042.7086	1061.9194	1082.9926	1105.2962	1124.0266	1187.1335	1199.8873	1269.0726	1280.0442	1303.0581	1331.8951	1355.9019	1381.2233	1413.937	1478.6716	1488.0162	1644.6888	1690.4936	3019.7556	3054.0256	3067.1383	3112.0689	3124.0916	3134.9406	3197.4458	3206.	3223.4061
CC1=CC2C3C=CC1N23	CC1=C[C@H]2[C@H]3C=C[C@@H]1N23	
InChI=1S/C8H9N/c1-5-4-8-7-3-2-6(5)9(7)8/h2-4,6-8H,1H3	InChI=1S/C8H9N/c1-5-4-8-7-3-2-6(5)9(7)8/h2-4,6-8H,1H3/t6-,7+,8-,9?/m0/s1
