18
gdb 78276	2.60848	1.43373	1.14947	2.0297	72.56	-0.2205	0.0574	0.278	1124.5073	0.145354	-438.980142	-438.971388	-438.970444	-439.012863	33.844	
C	-0.0015985303	 1.5149426706	-0.0726518785	-0.414323
C	-0.0337514059	 0.0059240041	-0.0849566853	 0.004774
C	 0.7324823348	-0.7118580096	-1.1290043716	-0.136234
N	 1.2793521404	-0.6063592343	 0.2672751553	-0.160655
C	 1.1962863346	-2.1092706334	 0.3755181149	-0.135238
C	-0.0903731492	-2.8418543752	 0.0391144697	 0.001091
O	-1.4187086982	-2.5220735932	 0.355806366	-0.416145
C	 0.7071110559	-2.2536705031	-1.0699541892	 0.331303
O	 1.2484408487	-3.0042576243	-2.0970123769	-0.449897
H	 0.9526640689	 1.8863469323	-0.456985083	 0.12712
H	-0.8099260683	 1.9223493904	-0.6890507066	 0.117347
H	-0.1245353016	 1.8940247102	 0.946911748	 0.122777
H	-0.9337069364	-0.4537408616	 0.2986680179	 0.117641
H	 1.2430270123	-0.2140473714	-1.9485665155	 0.099358
H	 1.9966640632	-2.5982426047	 0.9185228287	 0.108444
H	 0.1151343758	-3.9155298394	 0.0814462167	 0.102688
H	-1.5474405731	-2.7049692792	 1.2936412432	 0.289171
H	 0.5335127981	-3.2662379582	-2.688661534	 0.290778
168.6967	191.7527	193.8902	227.7328	236.2403	266.9519	305.3314	319.4548	381.9935	447.0761	528.4798	591.3667	662.9822	731.6981	737.4591	825.6531	859.9749	904.4157	962.8855	973.6947	1008.3034	1025.3991	1037.9567	1083.5828	1122.6855	1148.4091	1153.64	1191.5814	1237.7296	1243.3891	1273.62	1306.8691	1327.5451	1360.0732	1407.7731	1426.1874	1488.1542	1493.3901	1496.7499	3035.9572	3067.1812	3103.0204	3114.5802	3151.7289	3179.9736	3221.7753	3785.3291	3792.8485
CC1C2N1C1C(O)C21O	C[C@H]1[C@H]2N1[C@H]1[C@@H](O)[C@@]21O	
InChI=1S/C6H9NO2/c1-2-3-6(9)4(5(6)8)7(2)3/h2-5,8-9H,1H3	InChI=1S/C6H9NO2/c1-2-3-6(9)4(5(6)8)7(2)3/h2-5,8-9H,1H3/t2-,3+,4-,5+,6+,7?/m0/s1
