18
gdb 73999	3.02462	2.12523	1.64114	1.4644	81.82	-0.1908	-0.0101	0.1807	871.5265	0.148679	-364.699823	-364.692969	-364.692025	-364.730656	28.361	
C	 0.3054998728	 1.2611880689	-0.0916625019	-0.475713
C	-0.3232125901	-0.098667908	-0.0406928839	 0.269558
C	-0.5678071544	-0.8817534481	-1.1468536376	-0.139457
C	 0.7601365178	-1.3025425787	-1.8161754194	-0.197265
N	 0.7290027945	-2.4675349172	-0.8187559909	-0.105918
C	 0.8147826174	-2.2126463749	 0.6102750337	-0.044823
C	-0.6585473969	-2.3662739961	 0.8471700822	-0.125779
C	-0.1906078046	-0.9664688815	 1.1087729852	-0.134988
C	-0.7732273856	-2.3377163217	-0.6818280602	-0.017316
H	 1.2811165971	 1.2838376786	 0.4114646362	 0.117726
H	 0.4349844234	 1.5937022445	-1.1256614576	 0.124964
H	-0.3245577734	 2.0061752174	 0.4103831937	 0.129085
H	 0.7105459607	-1.7347239361	-2.8193149175	 0.113726
H	 1.6089842353	-0.6182896722	-1.7399432182	 0.112453
H	 1.6923033218	-2.409518453	 1.2084880001	 0.111869
H	-1.2047724283	-2.9822402302	 1.5489313609	 0.096499
H	-0.0119106646	-0.6407095265	 2.1280616601	 0.087895
H	-1.3902055828	-3.0384287153	-1.2428400748	 0.077484
122.1583	207.0389	269.5674	367.4921	405.2791	513.7919	580.3022	600.7267	653.7918	722.8815	757.8517	795.354	821.3828	863.6386	895.6574	911.3973	942.941	955.4313	974.6159	993.1177	1029.021	1044.4125	1051.031	1067.2588	1088.2524	1124.704	1168.6323	1178.2957	1210.7345	1230.8703	1244.7692	1270.3564	1329.7521	1387.9708	1406.5226	1469.1411	1488.512	1502.3738	1548.743	3011.893	3053.7289	3060.1407	3105.6829	3114.6393	3115.8156	3173.9299	3200.7857	3230.1536
CC1=C2CN3C4C(C14)C23	C[C]1[C]2CN3[C@@H]4[C@@H]([C@H]14)[C@@H]23	
InChI=1S/C8H9N/c1-3-4-2-9-7(4)6-5(3)8(6)9/h5-8H,2H2,1H3	InChI=1S/C8H9N/c1-3-4-2-9-7(4)6-5(3)8(6)9/h5-8H,2H2,1H3/t5-,6-,7+,8-/m0/s1
