19
gdb 80902	2.06177	1.72884	1.4853	2.6808	71.37	-0.2347	0.0582	0.2929	1019.5449	0.157833	-460.111511	-460.102713	-460.101769	-460.144069	35.108	
C	-0.1318736683	 1.5512384864	-0.0632612033	-0.482963
C	 0.0495491342	 0.0407364781	-0.0444253249	 0.371484
O	-1.2339227211	-0.551016697	-0.2992089302	-0.502671
C	 1.2967756307	-0.6414715598	-0.7044175285	-0.194812
C	 2.1284613747	-0.1307201063	 0.5137049895	-0.287012
C	 0.8169280998	-0.6732768524	 1.1252263989	 0.311141
O	 0.5065702147	-0.6492344777	 2.4686383895	-0.473073
C	 1.0266705358	-1.9144366756	 0.1777177582	 0.107958
O	 0.0203229323	-2.8360523156	-0.0859862657	-0.456575
H	-0.5187968889	 1.8728885615	-1.0392074086	 0.10683
H	-0.8628983828	 1.8402856034	 0.6977577676	 0.136685
H	 0.7879703905	 2.1073114092	 0.1161110144	 0.131375
H	-1.6069130933	-0.1355914197	-1.0840058377	 0.284404
H	 1.5892659464	-0.6089575577	-1.7520192806	 0.077017
H	 3.0264997077	-0.7064858246	 0.7444674345	 0.105099
H	 2.3187356671	 0.9372903601	 0.5845312169	 0.103795
H	-0.2149994964	-1.2721891473	 2.6137440211	 0.293239
H	 1.9289073381	-2.488369548	 0.4056215679	 0.082064
H	-0.7707101613	-2.319762147	-0.300470549	 0.286014
159.146	180.8497	184.559	235.8467	278.669	304.2996	310.8853	400.5974	436.5433	476.1735	504.2821	532.3729	640.4885	679.2827	681.6916	704.9469	762.0887	780.903	891.6849	937.477	947.9911	974.8669	1020.0715	1068.5955	1088.888	1107.866	1153.1078	1157.7589	1169.1543	1173.1636	1220.298	1236.4547	1295.8499	1342.6477	1359.8727	1398.3017	1414.9697	1485.4031	1494.0225	1499.6035	1542.6588	3024.5069	3075.7259	3089.5656	3094.6645	3140.7185	3143.6087	3169.667	3702.196	3799.1376	3806.659
CC1(O)C2CC1(O)C2O	C[C@@]1(O)[C@H]2C[C@]1(O)[C@H]2O	
InChI=1S/C6H10O3/c1-5(8)3-2-6(5,9)4(3)7/h3-4,7-9H,2H2,1H3	InChI=1S/C6H10O3/c1-5(8)3-2-6(5,9)4(3)7/h3-4,7-9H,2H2,1H3/t3-,4-,5+,6-/m0/s1
