27
gdb 112963	3.58295	0.76411	0.68373	0.0513	96.74	-0.2759	0.0858	0.3617	1820.8206	0.250999	-353.565029	-353.55406	-353.553116	-353.601199	41.185	
C	-0.1092465138	 1.6432970635	 0.0573733982	-0.380806
C	-0.0168606053	 0.1191248553	 0.1722134805	-0.174723
C	-1.3737592969	-0.5797514582	 0.0721587133	 0.030273
C	-1.9762948833	-0.6395360323	-1.3646541034	-0.259039
C	-1.5121408101	-2.120512466	-1.4805502887	 0.089088
C	-1.2977732133	-2.1344661635	 0.0609184168	-0.271849
C	-2.4626016694	-3.1427159662	-2.1023289866	 0.018772
C	-2.7189387208	-2.8331760215	-3.5835846696	-0.3893
C	-1.9371366903	-4.5732590008	-1.9204663431	-0.38931
H	 0.8791157074	 2.1093017869	 0.1209688758	 0.10977
H	-0.5576866799	 1.945790475	-0.8950129017	 0.116491
H	-0.7275157823	 2.0616637275	 0.8595997072	 0.112447
H	 0.6531080081	-0.2691758189	-0.6072124448	 0.091358
H	 0.4480668609	-0.1478746796	 1.1307048034	 0.091236
H	-2.0449310444	-0.1608915847	 0.8299587098	 0.058599
H	-3.068222733	-0.5563398518	-1.3599476147	 0.091625
H	-1.5836830024	 0.070426293	-2.0986239541	 0.091387
H	-0.545707472	-2.1760959476	-1.9977114639	 0.060838
H	-0.3747245044	-2.5844246248	 0.4390506807	 0.08973
H	-2.142950177	-2.593885171	 0.5846476837	 0.090749
H	-3.4223849541	-3.0643883374	-1.5687352366	 0.06222
H	-3.1175170765	-1.8226859008	-3.7199656157	 0.113814
H	-1.7906595848	-2.9060719737	-4.1633403975	 0.109013
H	-3.4362374706	-3.5374786686	-4.0181940781	 0.107249
H	-1.7743581528	-4.8107319789	-0.864241167	 0.114214
H	-2.6412585128	-5.3085680136	-2.3241115244	 0.107146
H	-0.9822230662	-4.7077562115	-2.4430754296	 0.109007
52.7257	91.6192	101.9111	147.6197	217.1003	222.816	233.1574	249.4177	269.8384	329.0292	375.286	401.8066	450.0775	476.7588	660.365	761.8032	812.733	819.7793	854.6157	896.9535	927.3636	936.1226	955.2047	967.0624	982.0447	991.4813	1013.8621	1052.1907	1056.4546	1106.1161	1136.6108	1147.3685	1189.0323	1212.8853	1225.5631	1244.6479	1266.1824	1278.3956	1283.0892	1298.2048	1323.865	1342.8463	1351.4435	1387.139	1394.9236	1398.5692	1412.0641	1419.7842	1471.514	1487.2748	1487.4091	1491.4689	1494.4702	1499.1751	1504.1401	1507.2748	1510.2669	2982.9768	3007.7903	3018.6583	3021.8934	3026.8725	3028.5501	3029.7666	3036.5644	3040.9022	3050.5444	3085.4949	3087.9278	3089.9208	3092.3979	3096.8596	3098.4568	3100.2715	3100.9707
CCC1CC(C1)C(C)C	CC[C@H]1C[C@@H](C1)C(C)C	
InChI=1S/C9H18/c1-4-8-5-9(6-8)7(2)3/h7-9H,4-6H2,1-3H3	InChI=1S/C9H18/c1-4-8-5-9(6-8)7(2)3/h7-9H,4-6H2,1-3H3/t8-,9-
