18
gdb 9739	3.68085	1.50545	1.44129	2.2128	68.04	-0.2501	-0.0208	0.2294	950.0218	0.153414	-384.957318	-384.949218	-384.948274	-384.990481	29.466	
C	 0.0246369684	 1.6162418941	-0.0244039826	-0.451309
C	 0.0193099353	 0.0873276456	 0.0004368743	 0.208805
C	 0.7504577046	-0.5604440916	-1.2166879958	-0.27928
C	 2.0343914536	-1.1344637138	-0.6001367928	-0.079096
O	 1.6543816735	-1.5301734571	 0.7069457774	-0.235531
C	 0.8314184449	-0.4968387424	 1.2087276745	-0.134558
C	-1.3970018408	-0.4527003809	 0.0748804976	 0.123461
O	-2.3991569597	 0.2135109734	 0.0913987639	-0.258832
H	 1.045034324	 1.9958129981	-0.1370022115	 0.110632
H	-0.5827344875	 1.9944565232	-0.8502830091	 0.133098
H	-0.3937572568	 2.025594362	 0.8997946894	 0.129145
H	 0.1534918912	-1.3735430674	-1.6435197754	 0.112014
H	 0.936469246	 0.168724436	-2.0084498019	 0.113784
H	 2.4252371415	-2.0123349265	-1.1199015825	 0.115759
H	 2.8266631127	-0.3686287953	-0.5631700759	 0.093912
H	 1.4332290535	 0.3107498736	 1.6539530833	 0.099511
H	 0.2015837923	-0.9244512161	 1.995755365	 0.11669
H	-1.4449031367	-1.566644665	 0.1231930222	 0.081796
39.0972	92.7862	222.7317	246.7785	262.0644	327.8581	378.5737	389.8555	446.5912	635.3923	705.7524	773.8498	857.3182	908.8208	917.1012	966.0799	970.5441	981.799	1022.2815	1078.9239	1111.8551	1158.2146	1177.977	1189.7137	1244.3838	1275.6121	1293.3305	1337.4586	1357.9338	1397.8359	1410.4425	1426.8886	1484.0071	1490.0948	1494.9714	1505.8096	1522.281	1828.8058	2853.5098	2969.433	2981.9732	3041.4672	3046.6471	3070.1775	3100.6575	3108.7353	3112.4112	3124.0856
CC1(CCOC1)C=O	C[C@]1(CCOC1)C=O	
InChI=1S/C6H10O2/c1-6(4-7)2-3-8-5-6/h4H,2-3,5H2,1H3	InChI=1S/C6H10O2/c1-6(4-7)2-3-8-5-6/h4H,2-3,5H2,1H3/t6-/m0/s1
