15
gdb 34670	1.68774	1.68764	1.27488	0.6392	83.35	-0.2443	0.0128	0.2571	1096.416	0.108617	-346.233579	-346.224432	-346.223488	-346.26735	34.234	
C	-0.1467639723	-1.2314077539	-0.1147594998	-0.446516
C	-0.0546019194	-0.0358246243	-0.0362349742	 0.364075
C	 0.0234279742	 1.3895849113	 0.0362480292	-0.245096
C	 0.5211591982	 2.0970130334	 1.3005424636	-0.245118
C	 0.9261366975	 1.3581933713	 2.4552120637	 0.364025
C	 1.2541578721	 0.7600794324	 3.4445281513	-0.446479
C	 1.3725475168	 2.1151428545	 0.0272371169	-0.245239
C	 2.6039580403	 1.3939293407	-0.0539460655	 0.364412
C	 3.6513709349	 0.81119502	-0.140153324	-0.44675
H	-0.217549994	-2.2888721059	-0.1773469589	 0.199571
H	-0.7694366956	 1.9169604917	-0.4863649565	 0.127997
H	 0.0177527622	 3.0357748029	 1.513045251	 0.127998
H	 1.5486273864	 0.2223616689	 4.3113070193	 0.199574
H	 1.3641945452	 3.064438989	-0.500598122	 0.127984
H	 4.5722657735	 0.2873869479	-0.2089793541	 0.199563
91.266	91.4444	112.3922	217.5207	245.032	245.0569	413.0925	413.4108	437.399	598.1142	606.0812	606.2	642.2606	652.015	652.026	659.5062	661.2415	661.2896	766.7341	766.7873	827.4585	973.6086	973.8449	1100.286	1100.4475	1114.0628	1227.0678	1367.8485	1367.9798	1386.0064	2243.1489	2246.1657	2246.2008	3144.3517	3144.4802	3157.9725	3505.3922	3505.5919	3506.4171
C#CC1C(C#C)C1C#C	C#C[C@H]1[C@@H](C#C)[C@H]1C#C	
InChI=1S/C9H6/c1-4-7-8(5-2)9(7)6-3/h1-3,7-9H	InChI=1S/C9H6/c1-4-7-8(5-2)9(7)6-3/h1-3,7-9H/t7-,8+,9-
