19
gdb 36043	3.80119	1.0419	0.92317	3.2447	79.33	-0.2561	0.0225	0.2786	1290.8715	0.159767	-382.04736	-382.038575	-382.037631	-382.081245	32.858	
N	-0.012117597	-1.2558707356	 0.1848397076	-0.312529
C	-0.0413647408	-0.1032577282	 0.2683374122	 0.250634
C	-0.0391159045	 1.3544805433	 0.3453459034	-0.405106
C	 1.3075173685	 1.9962552753	-0.0134213983	 0.295711
C	 2.5715580759	 1.2883839968	 0.3138530326	-0.272923
N	 2.1198022605	 1.4164157291	-1.0869555634	-0.345545
C	 1.233946731	 3.498168876	 0.014394962	-0.054928
C	 2.2078530451	 4.3355827039	-0.7672965306	-0.276885
C	 0.7696273315	 4.2523612557	-1.2107633494	-0.267152
H	-0.8119075317	 1.7387262753	-0.3317131527	 0.162002
H	-0.3345713234	 1.6550740616	 1.3578259267	 0.157971
H	 3.4536059456	 1.8714041808	 0.5616013624	 0.122979
H	 2.5168700821	 0.3092712447	 0.7811786646	 0.134788
H	 1.7267176606	 0.5317510344	-1.4012023982	 0.244897
H	 0.9145474872	 3.8978698781	 0.9742120212	 0.083541
H	 2.5586162603	 5.2569227855	-0.3162085101	 0.109871
H	 2.9361748083	 3.8061871651	-1.3700727488	 0.139805
H	 0.5678439556	 3.6698042401	-2.1033680315	 0.120762
H	 0.127169445	 5.1151089681	-1.0754194696	 0.112108
64.5297	87.5936	133.9425	204.9157	240.8635	318.4261	359.2908	394.9831	435.4587	477.9926	590.3898	700.2871	794.7721	829.6682	834.8834	850.4372	914.8283	938.1891	956.5434	976.2223	980.2576	1000.1378	1062.7161	1076.6001	1096.9941	1133.1175	1136.9956	1140.6856	1204.1384	1219.4882	1228.2081	1259.983	1283.7768	1323.3599	1378.2329	1428.3143	1457.2753	1464.9973	1497.2562	1512.1094	2358.3891	3035.6489	3070.6482	3115.0038	3129.829	3134.7364	3142.4063	3204.1686	3218.5647	3236.175	3495.1173
N#CCC1(CN1)C1CC1	N#CC[C@]1(CN1)C1CC1	
InChI=1S/C7H10N2/c8-4-3-7(5-9-7)6-1-2-6/h6,9H,1-3,5H2	InChI=1S/C7H10N2/c8-4-3-7(5-9-7)6-1-2-6/h6,9H,1-3,5H2/t7-/m0/s1
