20
gdb 78885	2.54688	2.10865	1.44917	1.9024	80.14	-0.2187	0.0737	0.2924	967.2464	0.171923	-365.963492	-365.955898	-365.954954	-365.994978	30.996	
C	 0.0882588477	 1.560895929	-0.0455197725	-0.404136
C	-0.0059756768	 0.0341499719	 0.0204229742	-0.062919
C	 0.7633658807	-0.6707150913	-1.0765482546	-0.05459
C	 1.2072347352	-2.0199114277	-0.652820481	-0.06167
C	 1.1659015957	-2.0026489244	 0.8815598588	-0.169472
C	 2.1400473999	-0.8556733517	 0.8177241116	-0.063143
N	 2.1985111357	-0.8943226401	-0.6953199544	-0.16785
C	 0.7088450934	-0.585349512	 1.2168052373	 0.32792
C	 0.3604520184	-0.2274418403	 2.638231162	-0.503399
H	 1.1334022472	 1.8863393226	-0.0298335285	 0.128525
H	-0.3696607218	 1.94295438	-0.963477945	 0.113685
H	-0.4273222841	 2.0289233869	 0.7990775662	 0.113645
H	-1.0597186176	-0.2750944822	-0.0028837727	 0.075173
H	 0.6091732221	-0.4313733759	-2.1233634361	 0.090762
H	 1.303298844	-2.8889300491	-1.2934171897	 0.092818
H	 1.1026499211	-2.8439793056	 1.5574776082	 0.08867
H	 3.0250564303	-0.6113575528	 1.3906950536	 0.091967
H	 0.4827044344	 0.8453868326	 2.8232103438	 0.123556
H	-0.6772542196	-0.4914481529	 2.8722173082	 0.120136
H	 1.002955304	-0.7588149869	 3.3477123305	 0.120321
163.7307	199.6923	213.1421	245.6243	270.7079	332.9295	524.8734	564.0072	592.8901	701.1172	727.079	749.1465	788.9646	807.6805	862.5493	880.8863	889.133	930.8198	946.0696	960.9111	1001.1924	1024.6471	1040.9245	1049.2276	1072.2525	1086.976	1120.6796	1138.2656	1166.2019	1170.0195	1232.66	1243.7857	1285.9047	1315.247	1344.3706	1379.8656	1397.0972	1408.3335	1419.3727	1488.705	1495.5862	1499.5656	1504.9281	3018.7388	3026.3114	3035.1397	3086.3964	3096.9964	3101.5186	3108.5509	3169.0008	3179.8422	3192.8351	3212.4003
CC1C2C3C4C(N23)C14C	C[C@H]1[C@@H]2[C@@H]3[C@H]4[C@@H](N23)[C@@]14C	
InChI=1S/C8H11N/c1-3-5-6-4-7(9(5)6)8(3,4)2/h3-7H,1-2H3	InChI=1S/C8H11N/c1-3-5-6-4-7(9(5)6)8(3,4)2/h3-7H,1-2H3/t3-,4-,5+,6-,7+,8-,9?/m0/s1
