20
gdb 58435	2.88048	1.30838	1.24257	2.2703	74.43	-0.2343	0.0482	0.2825	1119.2645	0.170862	-440.204354	-440.195705	-440.194761	-440.237291	34.341	
C	 0.1123575398	 1.5350820548	-0.0344305726	-0.41444
C	 0.1224312011	 0.0082249394	 0.1200899025	 0.072782
O	 0.7288917925	-0.3841943998	 1.3432516451	-0.439252
C	-1.2871165077	-0.5976040992	 0.0453388689	 0.410928
O	-1.9843664014	-0.2316079431	 1.2381591793	-0.497162
C	-2.1476422935	-0.6477958709	-1.2630994934	-0.114433
C	-1.2063069596	-1.7519920726	-1.803366476	-0.216017
C	-1.5217023843	-2.0928090085	-0.3255372714	-0.076201
N	-2.9737573958	-1.7813452394	-0.6701992498	-0.33695
H	 1.1292473924	 1.9202690387	 0.0733260134	 0.132793
H	-0.2725021862	 1.8372676298	-1.0146393397	 0.115864
H	-0.4990534451	 2.0132655646	 0.7400438524	 0.098162
H	 0.7540114207	-0.4109987024	-0.6667866279	 0.088636
H	 0.0355513494	-0.3081783206	 2.0118405492	 0.282743
H	-2.22210268	 0.6999543408	 1.1766900877	 0.289172
H	-2.6091940125	 0.1785778175	-1.8086488215	 0.076566
H	-1.6823755165	-2.4215734283	-2.518247452	 0.116558
H	-0.1877209121	-1.4909931476	-2.0834514725	 0.102544
H	-1.2378403518	-2.9765014449	 0.2464608795	 0.089467
H	-3.4268651795	-1.4359749382	 0.1793226188	 0.218239
73.8305	153.6105	228.8477	255.3656	282.0586	312.9097	363.5692	401.2237	466.8673	496.5341	502.2459	544.9214	640.0695	722.3542	787.5624	812.5577	874.6834	895.8338	913.4997	932.4351	1003.0041	1027.4256	1036.442	1047.8386	1082.1164	1096.7617	1111.822	1152.1379	1167.5962	1195.7364	1204.2417	1211.3425	1258.3858	1280.0108	1312.8561	1316.9814	1327.0944	1371.8888	1398.5421	1438.6691	1487.8536	1500.4703	1503.9535	3027.1121	3074.5341	3084.994	3095.9179	3106.1334	3119.4103	3122.172	3176.2235	3423.9117	3765.8637	3809.5064
CC(O)C1(O)C2CC1N2	C[C@@H](O)[C@@]1(O)[C@H]2C[C@@H]1N2	
InChI=1S/C6H11NO2/c1-3(8)6(9)4-2-5(6)7-4/h3-5,7-9H,2H2,1H3	InChI=1S/C6H11NO2/c1-3(8)6(9)4-2-5(6)7-4/h3-5,7-9H,2H2,1H3/t3-,4-,5+,6-/m1/s1
