17
gdb 26525	2.30452	1.81406	1.02802	3.9845	78.51	-0.2322	-0.0304	0.2018	1126.6588	0.13548	-421.889935	-421.881203	-421.880258	-421.924023	31.492	
C	 0.1288861312	 1.5076179912	-0.0821118835	-0.474049
C	-0.0420332175	 0.0225040801	-0.054932285	 0.300166
C	-1.202718051	-0.6642243827	 0.0501084365	 0.032779
C	-2.5478825284	 0.0089900538	 0.1593230259	-0.508913
C	-1.1865169135	-2.143016414	 0.061254141	 0.33712
O	-2.204054731	-2.8199016342	 0.1539649985	-0.380327
C	 0.1496517186	-2.7253473791	-0.048028067	-0.261014
C	 1.2315449914	-1.9408377905	-0.1471671676	 0.062983
O	 1.1747109094	-0.5938306164	-0.1537220023	-0.226613
H	 0.7693037127	 1.8331388228	 0.7450305388	 0.147034
H	 0.6186861657	 1.8183944312	-1.0115102298	 0.147037
H	-0.8304940926	 2.0170294216	-0.0041438597	 0.143818
H	-2.7703014692	 0.6302433075	-0.7145551066	 0.127037
H	-3.3090915037	-0.7696783677	 0.2312327577	 0.163053
H	-2.6195690837	 0.6456321062	 1.0473727226	 0.127028
H	 0.2505161266	-3.8033085997	-0.04751434	 0.121529
H	 2.2539127551	-2.28893902	-0.2316179494	 0.141333
59.922	75.3153	116.4452	180.7369	278.8949	303.5826	340.7473	471.6149	480.968	518.4423	539.833	563.1942	666.7035	763.055	838.3615	861.5783	893.947	965.8649	975.3382	1045.2709	1064.1139	1072.1882	1133.7008	1158.3023	1196.4385	1278.7182	1373.154	1399.4668	1416.8259	1431.3419	1471.9583	1475.2196	1491.3723	1507.5208	1636.5775	1695.157	1733.0891	3035.5685	3040.715	3089.6862	3092.7395	3139.8592	3163.2168	3205.8928	3226.2822
CC1=C(C)C(=O)C=CO1	Cc1c(C)c(=O)cco1	
InChI=1S/C7H8O2/c1-5-6(2)9-4-3-7(5)8/h3-4H,1-2H3	InChI=1S/C7H8O2/c1-5-6(2)9-4-3-7(5)8/h3-4H,1-2H3
