14
gdb 35144	4.93677	0.99227	0.8934	4.4069	74.16	-0.2796	-0.0227	0.2569	1241.2325	0.099794	-399.5145	-399.506409	-399.505465	-399.547967	29.338	
C	 0.0712155003	-1.2476300148	 0.3032779801	-0.453654
C	 0.0528724651	-0.0662204542	 0.0882845732	 0.332639
C	 0.0487534238	 1.3671975212	-0.2036536504	-0.097936
O	-0.7595186891	 2.0805637641	 0.7519315382	-0.260667
C	 0.0033304488	 3.1054847817	 1.375965132	-0.058797
C	 1.3971664022	 2.9778265936	 0.8021988698	-0.095803
C	 1.4168062619	 2.0026603523	-0.0928391699	-0.084074
C	-0.5916928888	 4.4317129144	 1.10107232	 0.271772
N	-1.0386117319	 5.4780184465	 0.9015469266	-0.315803
H	 0.0804102446	-2.2918251734	 0.4989588117	 0.209398
H	-0.3798577074	 1.522997198	-1.2056225133	 0.132615
H	-0.0115300252	 2.958974238	 2.4661736588	 0.142744
H	 2.2117195196	 3.6216327427	 1.1035345446	 0.139719
H	 2.2602985562	 1.66106659	-0.6766353315	 0.137847
41.9752	105.5748	166.5647	199.4686	270.5848	372.8378	464.4256	507.0702	545.6141	584.9316	631.1913	682.6373	728.9599	773.7593	823.2159	902.1898	917.3843	955.3074	968.2246	1006.5138	1056.3561	1092.9409	1133.0689	1265.4183	1309.3329	1323.3904	1345.3909	1364.538	1697.0752	2240.8963	2358.879	2987.5499	3000.228	3228.234	3251.6102	3501.0864
C#CC1OC(C=C1)C#N	C#C[C@H]1O[C@@H](C=C1)C#N	
InChI=1S/C7H5NO/c1-2-6-3-4-7(5-8)9-6/h1,3-4,6-7H	InChI=1S/C7H5NO/c1-2-6-3-4-7(5-8)9-6/h1,3-4,6-7H/t6-,7+/m1/s1
