20
gdb 85427	2.36535	1.49381	1.18214	3.4446	76.17	-0.2515	0.0336	0.2851	1139.3417	0.169905	-440.317277	-440.308084	-440.30714	-440.350654	35.6	
C	 0.1343934121	 1.7561303208	-0.0129591704	-0.414525
C	 0.0944563214	 0.2356598971	 0.0615805745	 0.114593
O	 0.7444580169	-0.3163979587	-1.1048527963	-0.249375
C	 1.9627715001	-0.8453412324	-0.7901147825	 0.416775
N	 2.7368773494	-1.414929322	-1.6080701071	-0.549621
C	 2.2299601472	-0.6285928222	 0.680993622	-0.34402
C	 0.8222245944	-0.4219604265	 1.2614734172	 0.352518
C	 0.7723687857	 0.3586149065	 2.5717733794	-0.453794
O	 0.1643890274	-1.6825601506	 1.412067731	-0.473667
H	 1.1583945075	 2.1377647181	 0.0528466008	 0.122232
H	-0.2851199461	 2.08231337	-0.9680444985	 0.1352
H	-0.4563596089	 2.203805762	 0.7911952219	 0.124246
H	-0.9388186879	-0.1216022792	 0.0438000489	 0.105423
H	 2.3229570119	-1.4221685926	-2.5422664493	 0.219729
H	 2.7650911418	-1.4723317366	 1.120445593	 0.12426
H	 2.8511511587	 0.2645745077	 0.8137407362	 0.125445
H	 1.240599296	 1.3426948128	 2.4855495221	 0.121803
H	-0.263372253	 0.4875342188	 2.8992578267	 0.129686
H	 1.3040346514	-0.1934314789	 3.3550383713	 0.113305
H	 0.680002894	-2.2182998042	 2.024351869	 0.279787
95.3981	113.5991	235.3531	248.0917	275.0665	289.5437	296.0483	344.672	374.8136	413.7675	495.5411	504.9679	529.2727	602.3227	680.8219	772.9478	851.7387	881.2578	900.1677	941.503	951.3201	960.009	1024.5928	1064.6045	1100.1028	1110.2671	1128.1638	1154.3233	1193.8217	1220.158	1279.1793	1306.36	1355.7921	1380.9926	1386.8313	1409.1208	1415.8383	1463.4475	1483.1013	1492.5115	1501.0564	1502.9845	1780.5822	3035.8453	3042.28	3050.8265	3076.1518	3100.9309	3116.4034	3118.3556	3123.7	3126.2689	3468.2222	3808.6842
CC1OC(=N)CC1(C)O	C[C@H]1O[C]([NH])C[C@]1(C)O	
InChI=1S/C6H11NO2/c1-4-6(2,8)3-5(7)9-4/h4,7-8H,3H2,1-2H3	InChI=1S/C6H11NO2/c1-4-6(2,8)3-5(7)9-4/h4,7-8H,3H2,1-2H3/t4-,6+/m1/s1
