13
gdb 131940	2.79708	1.62446	1.02898	3.7199	65.62	-0.2209	-0.0807	0.1401	1043.6781	0.089939	-489.821933	-489.814601	-489.813657	-489.853941	27.532	
N	 0.0071265979	 1.4294964221	 0.1687432434	-0.616581
C	 0.0028283684	 0.056788837	 0.0486947628	 0.160416
C	-1.0478489438	-0.8166028602	 0.0132736452	-0.077091
O	-0.5937110653	-2.118339705	-0.0358324334	-0.132776
C	 0.7364990925	-2.0939721017	-0.0316116665	-0.012678
C	 1.1672989065	-0.7962040223	 0.015079265	 0.24588
N	 2.5352598825	-0.3953093873	-0.0037943682	 0.343813
O	 3.3921073693	-1.2715961306	-0.0016792108	-0.371805
O	 2.773260989	 0.8162021032	-0.0295479121	-0.390378
H	 0.8901771589	 1.8490691048	-0.0856518516	 0.275282
H	-0.8018674773	 1.9052902951	-0.1994236355	 0.253759
H	-2.116095009	-0.6928505708	 0.022841307	 0.142355
H	 1.2652572305	-3.0302148441	-0.0708448353	 0.179802
85.122	198.7979	227.3949	303.527	348.805	378.2194	447.2431	560.5624	588.8246	607.9866	633.4931	699.5125	716.6076	775.2461	834.6685	841.9055	889.7012	1063.2299	1106.4426	1192.605	1224.8686	1256.971	1343.5566	1415.3509	1456.0122	1545.1577	1580.2649	1641.753	1674.8312	3295.9773	3302.5234	3564.1579	3677.5004
NC1=COC=C1N(=O)=O	Nc1cocc1N(=O)=O	
InChI=1S/C4H4N2O3/c5-3-1-9-2-4(3)6(7)8/h1-2H,5H2	InChI=1S/C4H4N2O3/c5-3-1-9-2-4(3)6(7)8/h1-2H,5H2
