23
gdb 115298	3.86862	0.95408	0.80449	1.0861	89.08	-0.2334	0.0291	0.2625	1517.9081	0.205574	-388.315207	-388.305567	-388.304623	-388.349502	36.451	
C	-0.0123713743	 1.5796129221	 0.0026074042	-0.387046
C	-0.0072023255	 0.0492048943	-0.0201383739	-0.187167
C	 0.7060640202	-0.534878093	-1.2352837522	 0.139595
C	 0.8121961302	-2.063471721	-1.2037860184	-0.262124
C	 1.2263383619	-2.5949490884	-2.5503271077	-0.163856
C	 1.1707818313	-1.8566528857	-3.6590779306	 0.293226
C	 1.6233777802	-2.3348292534	-5.0093364225	-0.477991
C	 0.6357886741	-0.4452327778	-3.5998280282	-0.150314
O	-0.0203222969	-0.1281235656	-2.3912902902	-0.260486
H	 1.0077406502	 1.9777229798	 0.0479654087	 0.107994
H	-0.4864399837	 1.9739953437	-0.8995381417	 0.133585
H	-0.5569350038	 1.9600332002	 0.8720953816	 0.107703
H	 0.476574089	-0.3427261501	 0.8831442677	 0.092365
H	-1.0370258634	-0.329115707	-0.0168372123	 0.103064
H	 1.727983633	-0.1169362045	-1.2917915779	 0.058007
H	 1.5392567546	-2.3637195301	-0.437941313	 0.099662
H	-0.1513182576	-2.4960047027	-0.8969525127	 0.107161
H	 1.5905602711	-3.6190645609	-2.5992560076	 0.077246
H	 2.0294904126	-3.3485063319	-4.9584612682	 0.123161
H	 0.7973634644	-2.3336903446	-5.7324312773	 0.123539
H	 2.400747713	-1.6799409163	-5.4246977317	 0.122977
H	 1.4602491011	 0.2681041862	-3.7938104615	 0.090138
H	-0.1034026217	-0.2892236131	-4.3961024443	 0.109561
79.1779	108.6596	170.0927	180.2197	209.9512	249.6452	279.2155	313.5733	365.0805	422.2046	454.4569	492.8222	550.5485	670.248	762.8147	798.4033	836.9008	908.7099	936.5108	942.7032	991.0777	1008.9165	1025.0171	1070.8255	1078.4342	1092.3159	1117.1549	1147.6505	1158.1602	1187.9244	1226.5166	1269.8407	1302.4575	1310.7138	1348.752	1361.502	1390.7029	1404.2495	1410.7975	1412.5782	1417.1183	1469.5854	1477.9092	1479.4952	1486.3921	1493.4613	1497.7074	1510.2711	1747.273	2917.5157	2933.8999	3001.5208	3013.0781	3026.9414	3035.9801	3037.6411	3039.9392	3057.9188	3064.7022	3100.2712	3110.8458	3125.3322	3144.1627
CCC1CC=C(C)CO1	CC[C@H]1CC=C(C)CO1	
InChI=1S/C8H14O/c1-3-8-5-4-7(2)6-9-8/h4,8H,3,5-6H2,1-2H3	InChI=1S/C8H14O/c1-3-8-5-4-7(2)6-9-8/h4,8H,3,5-6H2,1-2H3/t8-/m0/s1
