21
gdb 90706	3.09729	1.39172	1.09649	1.4226	83.96	-0.2397	0.0191	0.2588	1182.755	0.183166	-387.095656	-387.087195	-387.086251	-387.128537	32.933	
C	-0.2687314605	 1.4346837346	-0.0836441041	-0.40474
C	 0.1271078109	-0.0297069257	-0.058695164	 0.15834
O	 1.373954393	-0.2706602073	-0.7622271173	-0.309312
C	 2.0621541901	-0.6424604326	 0.454248756	 0.110409
C	 0.7381991575	-0.5790054391	 1.2596304155	-0.13763
C	 0.4388185685	-2.0217102413	 1.5570057709	-0.099769
C	 1.3989540078	-2.8366058702	 1.1196910927	-0.066057
C	 2.5640892091	-2.1058459267	 0.4813137787	-0.050486
C	 2.9789587899	-2.6460302085	-0.8937327664	-0.390016
H	 0.5085177454	 2.0602565979	 0.366791364	 0.117972
H	-0.4218706579	 1.7689305708	-1.114485334	 0.125998
H	-1.2025628205	 1.5886021709	 0.4689184664	 0.112855
H	-0.674872843	-0.6522680227	-0.4760798061	 0.075019
H	 2.8497313181	 0.0812491249	 0.6912965179	 0.068244
H	 0.6691085149	 0.0897342737	 2.121759334	 0.0745
H	-0.4749201664	-2.3387070939	 2.0486198705	 0.092692
H	 1.3810049531	-3.9187355122	 1.2058402848	 0.091544
H	 3.4382600589	-2.1663296658	 1.1474873401	 0.074853
H	 2.1587389682	-2.5490883507	-1.6080743422	 0.134545
H	 3.837544077	-2.0941484955	-1.289575606	 0.114403
H	 3.262132266	-3.7011691006	-0.8238326415	 0.106636
83.7802	163.5492	195.034	219.0201	236.6769	290.1947	332.2156	394.8221	501.3769	540.9559	651.5807	746.5599	778.3655	821.3473	831.6796	875.0622	887.2694	908.3289	947.1009	974.3245	986.4132	1017.6184	1060.4854	1077.8176	1095.7711	1108.9379	1121.299	1127.6157	1153.4721	1224.4323	1239.3611	1279.4811	1297.6976	1324.5444	1326.9027	1348.5137	1382.2213	1388.671	1404.1347	1409.5936	1483.457	1492.3348	1493.4293	1500.998	1677.6529	2981.5289	3017.842	3030.5653	3038.3386	3041.1909	3072.1029	3101.6803	3102.3793	3110.826	3132.4831	3171.7229	3197.6604
CC1OC2C1C=CC2C	C[C@H]1O[C@H]2[C@@H]1C=C[C@H]2C	
InChI=1S/C8H12O/c1-5-3-4-7-6(2)9-8(5)7/h3-8H,1-2H3	InChI=1S/C8H12O/c1-5-3-4-7-6(2)9-8(5)7/h3-8H,1-2H3/t5-,6-,7-,8-/m1/s1
