15
gdb 48900	3.00567	1.48928	1.14644	2.5346	71.26	-0.2572	-0.043	0.2142	1031.661	0.111932	-420.575427	-420.568218	-420.567274	-420.607491	27.189	
O	-0.0652706602	 0.0171844155	 0.051636763	-0.241953
C	 0.0479860739	 1.2154967721	-0.0049941103	 0.033152
C	 1.3576630623	 1.9193435273	 0.0016378591	 0.278302
C	 2.7839116715	 1.3529587451	 0.0770040461	-0.323159
C	 2.9638997131	 2.8810056505	 0.0035416094	-0.040097
C	 1.7782762459	 3.0616966453	-1.0268112457	-0.237977
C	 1.1541468126	 4.1151618074	-0.1190710542	 0.446326
O	 0.556022994	 5.1437175314	-0.1918299867	-0.323571
C	 1.7148594858	 3.1632968421	 0.9311001175	-0.238091
H	-0.8381474297	 1.8878389825	-0.066663054	 0.089063
H	 3.0661475192	 0.8643144278	 1.0124393804	 0.116971
H	 3.1240866742	 0.7711958902	-0.7828161161	 0.117016
H	 3.8747497519	 3.4776787047	 0.0020815779	 0.10495
H	 1.8314729674	 2.951569728	-2.1078444168	 0.10955
H	 1.697949998	 3.1659808301	 2.0188957605	 0.109518
102.0361	106.3213	212.0592	273.4558	352.5232	435.1476	522.4203	609.3275	655.5814	720.569	785.6724	811.6347	817.4132	863.4867	941.8885	980.8612	1010.5075	1027.5127	1030.2583	1045.7286	1093.4558	1102.3892	1119.9378	1137.165	1199.9286	1206.5402	1223.0383	1257.3189	1313.527	1418.3566	1521.0862	1819.0162	1918.6258	2874.7983	3065.3848	3125.6829	3128.6033	3149.7721	3153.355
O=CC12CC3C1C(=O)C23	O=C[C@@]12C[C@H]3[C@@H]1C(=O)[C@@H]23	
InChI=1S/C7H6O2/c8-2-7-1-3-4(7)6(9)5(3)7/h2-5H,1H2	InChI=1S/C7H6O2/c8-2-7-1-3-4(7)6(9)5(3)7/h2-5H,1H2/t3-,4+,5-,7-
