19
gdb 86245	2.74558	1.25485	1.03747	1.17	71.53	-0.2423	-0.0337	0.2086	1203.2388	0.157464	-460.176666	-460.167408	-460.166464	-460.211428	33.781	
C	 0.9602465759	 1.4363868401	-0.2609227233	-0.395841
C	 0.0988904165	 0.2356991396	 0.120470155	 0.136099
C	 0.0171479517	-0.8584320586	-0.9596997813	-0.250393
C	 1.1710306198	-1.801781205	-0.6127485095	 0.084168
O	 2.3477380367	-1.3139891262	-1.241481948	-0.433935
C	 1.2195300366	-1.6723655495	 0.9281780828	 0.005079
O	 0.651643501	-0.4233790174	 1.2793079203	-0.28935
C	 0.4633992911	-2.7924636132	 1.6379615168	 0.123439
O	 0.5989627016	-3.9607972305	 1.380648017	-0.245193
H	 1.9462431527	 1.1074603513	-0.5968409722	 0.140309
H	 0.4864349358	 2.0036799287	-1.0693971536	 0.109268
H	 1.0788598981	 2.1003405947	 0.5999287053	 0.120227
H	-0.9013888251	 0.5807102867	 0.4066564845	 0.08058
H	-0.9299986577	-1.4015348739	-0.8838221348	 0.111158
H	 0.1157388681	-0.4711990516	-1.9751216859	 0.122214
H	 0.9770522004	-2.8409602027	-0.8999726905	 0.097228
H	 3.0701014992	-1.9169218623	-1.0383519955	 0.28744
H	 2.2638563502	-1.717175161	 1.2732561164	 0.103655
H	-0.2330098327	-2.4271364993	 2.4251224964	 0.093849
36.3428	89.4008	141.7998	192.8677	252.8957	264.6992	305.1416	350.8533	383.9715	410.4011	487.769	564.4714	734.4424	748.0072	799.0024	842.8622	875.1919	913.7017	968.0176	1000.4925	1037.2198	1056.3242	1065.9723	1110.879	1132.2011	1154.6016	1203.1945	1218.8437	1268.6539	1296.0078	1320.8072	1329.5717	1365.8498	1383.9127	1394.1707	1409.8481	1435.4076	1476.4042	1491.749	1504.262	1827.957	2895.3139	2992.1265	3033.25	3040.9373	3048.6367	3066.6378	3109.8863	3128.2723	3138.5973	3819.0775
CC1CC(O)C(O1)C=O	C[C@H]1C[C@@H](O)[C@@H](O1)C=O	
InChI=1S/C6H10O3/c1-4-2-5(8)6(3-7)9-4/h3-6,8H,2H2,1H3	InChI=1S/C6H10O3/c1-4-2-5(8)6(3-7)9-4/h3-6,8H,2H2,1H3/t4-,5+,6-/m0/s1
