23
gdb 104053	2.71446	1.27913	1.15387	1.585	84.83	-0.2382	0.08	0.3182	1225.6867	0.205457	-388.264757	-388.255563	-388.254619	-388.298478	35.58	
C	-0.3650571195	 1.3866129458	 0.0228368097	-0.391991
C	 0.0385740957	-0.0920778708	 0.0490316298	-0.22962
C	 0.8388743349	-0.51225859	 1.2832019917	 0.332366
C	 2.2228856348	 0.1383379485	 1.3450359781	-0.452282
C	 0.1020683179	-0.4272599299	 2.6711106658	-0.293729
C	 0.3961810637	-1.928837555	 2.9356776522	-0.077746
C	-0.6929600618	-2.8797381844	 2.4202193383	-0.079932
O	-0.168927054	-2.8237364016	 1.0718728257	-0.294153
C	 0.9740410471	-2.0512825007	 1.4981321581	 0.076223
H	 0.5037786975	 2.0512451856	-0.0220396241	 0.114012
H	-0.9868820851	 1.6026279087	-0.8515134559	 0.112952
H	-0.9433690733	 1.6589572011	 0.9127869841	 0.114481
H	-0.8559977052	-0.7207926157	-0.0058704172	 0.1091
H	 0.6259747438	-0.3262135915	-0.8495714333	 0.089301
H	 2.1498238163	 1.2230785958	 1.4716522388	 0.11793
H	 2.8072035867	-0.2491331126	 2.187888168	 0.110489
H	 2.7902311969	-0.0600889228	 0.4283205284	 0.113511
H	 0.5666137961	 0.2621450345	 3.3802980662	 0.097804
H	-0.9648321592	-0.1906578472	 2.6142182417	 0.095884
H	 0.928851267	-2.1980669073	 3.8462206651	 0.075087
H	-0.6385616133	-3.9006975476	 2.820613211	 0.098733
H	-1.729651103	-2.5246911264	 2.481971098	 0.098541
H	 1.9188509759	-2.5277179465	 1.2159299898	 0.063038
82.622	100.5333	173.3741	220.6034	255.807	272.9064	287.2933	338.0456	399.4235	412.3419	503.5186	611.4355	759.4951	785.5667	788.9009	840.7729	885.2355	899.3539	911.8886	934.4875	976.7231	1003.3549	1013.8631	1018.6086	1034.2679	1055.2831	1076.3605	1144.2765	1151.6338	1176.7285	1201.8353	1211.364	1225.0129	1254.1929	1282.7509	1296.8777	1306.1304	1343.8048	1358.8379	1367.7247	1406.9213	1413.3347	1480.1519	1485.4066	1494.9627	1499.4265	1506.457	1510.8696	1520.185	3003.2256	3015.1608	3022.0469	3033.3805	3047.1224	3048.8858	3052.5797	3070.5278	3084.2193	3098.1653	3098.9011	3101.3527	3105.5623	3123.0569
CCC1(C)CC2COC12	CC[C@@]1(C)C[C@H]2CO[C@@H]12	
InChI=1S/C8H14O/c1-3-8(2)4-6-5-9-7(6)8/h6-7H,3-5H2,1-2H3	InChI=1S/C8H14O/c1-3-8(2)4-6-5-9-7(6)8/h6-7H,3-5H2,1-2H3/t6-,7+,8-/m0/s1
