15
gdb 16976	4.12826	2.32836	2.16808	1.7561	65.34	-0.2231	-0.0178	0.2053	690.0214	0.119611	-362.493535	-362.487781	-362.486836	-362.522866	24.388	
C	-0.009029426	 1.5596087486	-0.1135654283	-0.272841
N	 1.5177907696	 1.5928001119	 0.1352527813	-0.370197
C	 1.2734121264	 0.3055584532	 0.9456780558	 0.02584
C	 1.2691983977	-1.28948017	 0.9347034486	-0.050324
O	-0.2206154205	-1.1352769177	 1.0477774341	-0.358026
C	 0.084833417	 0.0268162635	 0.1122716796	 0.320285
C	 0.6300123041	-0.7430744019	-1.1042475567	-0.143924
C	 1.4412183795	-1.6365400442	-0.5379973882	-0.055149
H	-0.5108019268	 2.1180859689	 0.6776072218	 0.136187
H	-0.3252372394	 1.9160558206	-1.0985134226	 0.114487
H	 1.9589379919	 1.3477100077	-0.7530787984	 0.225134
H	 1.0290911279	 0.6334477699	 1.9569092555	 0.111287
H	 1.6936988288	-1.9115543956	 1.7224225282	 0.089109
H	 0.3664856321	-0.5694485652	-2.1381331059	 0.109509
H	 2.0524947179	-2.4214350898	-0.9578466848	 0.118624
272.5642	296.1905	366.844	489.4346	551.5445	576.8525	671.7527	708.4478	726.1983	779.4355	805.4413	826.0862	841.2379	864.8868	907.6252	923.4434	954.6103	978.0944	1036.7084	1054.1183	1107.7262	1129.8204	1170.4166	1196.7095	1243.4896	1252.1267	1265.5866	1311.975	1326.6441	1393.0718	1489.0197	1621.1531	3059.3166	3104.4002	3131.3357	3137.1436	3225.4027	3256.3429	3449.8076
C1NC2C3OC12C=C3	C1N[C@@H]2[C@H]3O[C@@]12C=C3	
InChI=1S/C6H7NO/c1-2-6-3-7-5(6)4(1)8-6/h1-2,4-5,7H,3H2	InChI=1S/C6H7NO/c1-2-6-3-7-5(6)4(1)8-6/h1-2,4-5,7H,3H2/t4-,5+,6-/m0/s1
