17
gdb 54946	3.14903	1.08969	0.98478	3.3778	78.37	-0.2379	-0.0346	0.2034	1254.9362	0.132034	-421.799516	-421.790169	-421.789224	-421.833642	34.855	
C	-0.0554075015	 1.4339082984	-0.0239956652	-0.484761
C	 0.0430529365	-0.0740698415	 0.016579679	 0.415262
O	 0.0552446105	-0.6848761729	 1.077922505	-0.365059
C	 0.0899596514	-0.7820465508	-1.2801767454	-0.220725
C	 0.8508659576	-2.1003969969	-1.3750132408	-0.334581
C	-0.6399543566	-2.177758918	-1.3299514075	 0.215706
O	-1.2885263224	-2.6403941125	-0.2013415487	-0.453514
C	-1.3579938043	-2.4568529861	-2.5452070917	 0.320466
C	-1.9393260355	-2.683901801	-3.5719809882	-0.428815
H	 0.8077407205	 1.8568884014	-0.5502250345	 0.145735
H	-0.9480949398	 1.7356214255	-0.5837370096	 0.150948
H	-0.1029800087	 1.8320789958	 0.9898660308	 0.146924
H	 0.0284150575	-0.1758331607	-2.1755526729	 0.108833
H	 1.3607826254	-2.304454638	-2.3087290054	 0.134972
H	 1.3672260261	-2.4091088445	-0.4717025222	 0.140488
H	-0.85012138	-2.2238144436	 0.5644043236	 0.307361
H	-2.4609376367	-2.8933390244	-4.4729958663	 0.200759
78.9903	106.8958	126.9933	155.4814	236.4236	263.119	343.0666	388.5257	427.	519.9872	561.6249	577.1732	597.8639	610.4194	654.814	679.7104	686.2236	766.1809	803.6915	921.4145	959.5692	969.9023	1031.4033	1055.4547	1077.5072	1108.4091	1200.1093	1210.0574	1284.9748	1371.1023	1394.9924	1451.5025	1462.1446	1472.4325	1480.7811	1741.0756	2244.7887	3036.4982	3097.0098	3135.5891	3155.9294	3189.4001	3236.2157	3502.8631	3580.8553
CC(=O)C1CC1(O)C#C	CC(=O)[C@H]1C[C@]1(O)C#C	
InChI=1S/C7H8O2/c1-3-7(9)4-6(7)5(2)8/h1,6,9H,4H2,2H3	InChI=1S/C7H8O2/c1-3-7(9)4-6(7)5(2)8/h1,6,9H,4H2,2H3/t6-,7-/m1/s1
