19
gdb 77743	1.9793	1.51246	1.43515	3.0677	76.68	-0.2339	-0.0071	0.2268	1092.0671	0.156988	-423.021834	-423.012505	-423.011561	-423.055418	34.945	
C	-0.2313453001	 1.6053293163	 0.0104757072	-0.427909
C	 0.0555631351	 0.1086741286	 0.0231139744	-0.152265
C	 1.1540044925	-0.5232552768	-0.8630127713	 0.426321
O	 1.34207667	-0.533243027	-2.0475672471	-0.329907
C	 1.7850845048	-1.2552916491	 0.2857954463	-0.316361
C	 2.1412477518	-0.2445008899	 1.3633623448	 0.063662
O	 2.614612607	 1.0380311796	 1.0706642113	-0.414355
C	 0.7079854393	-0.5968881937	 1.2370695066	 0.28144
C	-0.0823698795	-1.2393322745	 2.3410151818	-0.494487
H	 0.6599370212	 2.1787318614	 0.2655083944	 0.147004
H	-0.5721020354	 1.9081261426	-0.9848360339	 0.127828
H	-1.0237060146	 1.8576017456	 0.7234386641	 0.111861
H	-0.8607257413	-0.4438057373	-0.2328332383	 0.100086
H	 2.2214358828	-2.247540596	 0.2678048764	 0.105157
H	 2.6331587801	-0.7095132769	 2.2206391788	 0.096094
H	 3.4675846132	 0.951089712	 0.6312467653	 0.293845
H	-0.5731522781	-0.4788529459	 2.9596919319	 0.133344
H	-0.8629086794	-1.8947537581	 1.9395854735	 0.12553
H	 0.5572773706	-1.8367790611	 2.9981703238	 0.123111
95.8671	176.1106	184.6642	196.7081	201.538	228.3779	282.8112	294.3433	346.3584	426.1286	498.7645	570.3954	628.0002	669.0059	689.9329	729.0562	822.2197	895.3873	925.1231	974.3725	999.5028	1062.0661	1073.1274	1089.0637	1107.3678	1133.8248	1161.8246	1201.821	1217.0553	1278.3184	1303.8218	1342.0224	1357.3417	1401.2763	1419.066	1475.2788	1486.6243	1492.2835	1499.7127	1509.7155	1878.9559	3005.722	3026.8236	3040.6962	3078.8533	3087.9377	3099.2617	3102.7932	3154.2786	3182.9763	3805.3747
CC1C(=O)C2C(O)C12C	C[C@H]1C(=O)[C@H]2[C@@H](O)[C@@]12C	
InChI=1S/C7H10O2/c1-3-5(8)4-6(9)7(3,4)2/h3-4,6,9H,1-2H3	InChI=1S/C7H10O2/c1-3-5(8)4-6(9)7(3,4)2/h3-4,6,9H,1-2H3/t3-,4-,6+,7-/m0/s1
