16
gdb 47694	2.35202	1.72011	1.05172	5.0864	68.8	-0.247	0.0196	0.2666	1089.1277	0.127625	-471.256774	-471.2489	-471.247956	-471.289922	29.137	
N	-0.1247517268	 1.1407123845	 0.8573905929	-0.543421
C	 0.0093586315	 0.1476176831	 0.0821289803	 0.431811
N	-1.0558372612	-0.7418906069	-0.0757901851	-0.387303
C	-1.5922019314	-1.407469107	-1.1932420831	 0.440362
O	-2.7743256272	-1.6926010493	-1.1944495246	-0.392446
N	-0.7743387434	-1.7490849119	-2.2337621381	-0.337906
C	 0.66479832	-1.663643266	-2.3920535875	-0.15299
C	 1.3868677494	-1.4389166918	-1.0782773923	-0.0998
O	 1.1601586613	-0.1194022828	-0.5822899488	-0.24272
H	 0.7635539745	 1.6287248814	 0.9549217974	 0.227056
H	-1.8085947503	-0.5096621238	 0.5586208217	 0.278396
H	-1.2969229334	-2.2038655511	-2.9657081976	 0.260684
H	 1.0246197873	-2.6040244304	-2.827703256	 0.121629
H	 0.943136699	-0.8537324719	-3.0807055591	 0.127622
H	 1.099318758	-2.1857649542	-0.3306659442	 0.136495
H	 2.4647464328	-1.500763742	-1.242562256	 0.132532
76.9036	87.044	116.9982	314.6963	326.446	396.0718	446.2303	525.9952	528.6586	616.0078	660.5538	688.7407	729.7059	777.074	840.1022	840.558	930.0946	932.696	987.0798	1095.2216	1117.3083	1153.565	1172.0771	1270.2725	1305.9017	1331.4203	1398.4007	1424.7055	1431.5396	1441.4377	1489.1639	1496.9532	1524.3762	1748.5715	1801.2392	3007.1078	3045.0664	3060.887	3119.6844	3519.0113	3605.5026	3640.0454
N=C1NC(=O)NCCO1	[NH][C]1NC(=O)NCCO1	
InChI=1S/C4H7N3O2/c5-3-7-4(8)6-1-2-9-3/h1-2H2,(H3,5,6,7,8)	InChI=1S/C4H7N3O2/c5-3-7-4(8)6-1-2-9-3/h1-2H2,(H3,5,6,7,8)
