16
gdb 9969	2.68297	1.71448	1.50156	3.3202	56.61	-0.2401	0.0402	0.2803	911.6926	0.128083	-457.969352	-457.960564	-457.95962	-458.002614	32.437	
O	 0.0297041508	 1.3300245644	-0.2470929647	-0.435089
C	 0.0009838444	-0.0063843857	 0.2561865997	-0.128081
C	-1.3969541857	-0.5607759642	 0.1374356183	 0.307401
O	-2.3511343218	 0.1611372235	 0.8616217647	-0.468493
C	-1.8653542196	-1.1317675562	-1.1897938549	-0.064615
O	-0.8935623786	-1.2285214727	-2.2073076851	-0.434081
C	-1.6661575743	-2.038293554	 0.0137149533	 0.044325
O	-0.6103511167	-2.9490597848	-0.0235551772	-0.430839
H	-0.056966919	 1.2657852136	-1.2050614029	 0.292999
H	 0.7334136695	-0.6464249994	-0.2443591258	 0.100963
H	 0.270394768	 0.0631187451	 1.3143203137	 0.124307
H	-2.1889369936	 1.0902206626	 0.6474375287	 0.28618
H	-2.8726571667	-0.8802405238	-1.5127655839	 0.1027
H	-1.2188650476	-1.8423569897	-2.8755245115	 0.300935
H	-2.5423252421	-2.4229358597	 0.527809754	 0.116456
H	-0.1671593669	-2.8159637689	-0.8725125163	 0.284932
53.148	131.2478	195.4416	241.1816	275.1653	291.1501	320.1412	394.3314	404.853	472.1481	504.7332	507.8537	591.6003	656.0436	763.5701	848.5364	898.0373	966.243	989.599	1046.0614	1071.5101	1119.7893	1126.6382	1181.9773	1224.8996	1248.343	1283.6893	1332.1721	1352.4688	1386.7831	1398.0214	1417.032	1486.1828	1493.41	3053.9513	3103.5725	3135.6585	3156.9432	3747.295	3753.1554	3795.3104	3802.1636
OCC1(O)C(O)C1O	OC[C@@]1(O)[C@@H](O)[C@H]1O	
InChI=1S/C4H8O4/c5-1-4(8)2(6)3(4)7/h2-3,5-8H,1H2	InChI=1S/C4H8O4/c5-1-4(8)2(6)3(4)7/h2-3,5-8H,1H2/t2-,3+,4+
