15
gdb 125694	3.39153	1.15207	0.86757	2.4917	71.02	-0.2424	-0.0145	0.2279	1265.8838	0.113305	-450.129683	-450.121094	-450.12015	-450.164342	29.459	
C	-0.0590275887	 1.5139079938	 0.0062516746	-0.500047
C	-0.0061063678	 0.0243382944	 0.0339744356	 0.215928
N	-0.0849708582	-0.738482421	-1.0583156481	-0.249442
N	 0.0007820003	-1.9768561019	-0.5954620894	-0.088062
N	 0.1412877555	-2.1112805701	 0.7235485081	-0.301113
C	 0.1313676726	-0.8493168347	 1.1329210079	 0.353397
O	 0.2613908112	-0.4491692557	 2.4201820968	-0.21791
C	 0.0516494265	-1.3609082314	 3.4172771452	 0.109909
N	 0.289774068	-1.0114849688	 4.6017676407	-0.428403
H	 0.8687589946	 1.9511544352	 0.3894524865	 0.145555
H	-0.211021344	 1.8605620119	-1.0174583953	 0.14617
H	-0.8749179629	 1.8925502278	 0.6302568637	 0.142983
H	-0.0252476165	-2.776696748	-1.2050566001	 0.295876
H	-0.3203355738	-2.3197723413	 3.0505493845	 0.136807
H	 0.0691820232	-1.7754904302	 5.2378046094	 0.238352
49.0428	72.1054	91.2521	154.6052	257.2415	276.1475	363.9679	422.9058	475.9741	519.9683	680.6732	705.1798	746.2978	830.2445	856.3074	978.1072	1019.4856	1042.0264	1053.1399	1070.4932	1195.257	1201.7449	1270.4691	1278.8277	1380.0202	1407.4557	1417.1502	1466.122	1479.7676	1488.281	1559.6509	1580.025	1748.6314	3043.8385	3097.3109	3114.4234	3140.6487	3518.0562	3682.1622
CC1=NNN=C1OC=N	Cc1n[nH]nc1O[CH][NH]	
InChI=1S/C4H6N4O/c1-3-4(9-2-5)7-8-6-3/h2,5H,1H3,(H,6,7,8)	InChI=1S/C4H6N4O/c1-3-4(9-2-5)7-8-6-3/h2,5H,1H3,(H,6,7,8)
