18
gdb 85123	1.80602	1.65941	1.30535	2.6181	73.83	-0.262	-0.0393	0.2227	1105.6921	0.145252	-439.102455	-439.093029	-439.092085	-439.136822	33.885	
C	-0.4097775606	 1.2643448757	-0.1310482426	-0.417033
C	 0.205054168	-0.1134830392	-0.0590491252	 0.111163
O	 1.5054695386	-0.1731515592	-0.7643135301	-0.276471
C	 2.159196782	-0.5744907809	 0.369362857	 0.415384
N	 3.3653422583	-0.8316068788	 0.5963658964	-0.548832
C	 0.9054416093	-0.5946962343	 1.2391258196	 0.023879
C	 0.9518381786	 0.3026143189	 2.4765976194	-0.46494
C	 0.5501855951	-2.0192823597	 1.6421957724	 0.127716
O	-0.3402490107	-2.6686716038	 1.1602454484	-0.245855
H	 0.2693527638	 2.033490988	 0.2453635683	 0.127844
H	-0.6590546247	 1.5064822428	-1.1681997841	 0.139098
H	-1.3341870401	 1.2945945081	 0.4547887242	 0.132057
H	-0.4592665043	-0.8760790684	-0.4702899233	 0.121686
H	 3.9414024584	-0.7089508218	-0.2382182543	 0.232273
H	 1.3115563972	 1.3033707579	 2.2287756266	 0.13903
H	-0.036659146	 0.3909606395	 2.9384528099	 0.132063
H	 1.6406774751	-0.1200332965	 3.2140392468	 0.147518
H	 1.2021972822	-2.4285756083	 2.4435244206	 0.103419
68.7528	97.3625	159.2665	198.926	212.7957	223.8021	252.8718	280.2193	341.8577	449.7921	511.4706	584.3112	662.7643	685.9167	734.4012	858.9395	863.8493	880.4262	938.3373	997.4955	1024.1554	1043.0818	1061.0855	1126.9683	1170.2151	1191.7387	1237.5087	1255.8919	1337.6858	1392.3399	1405.9394	1415.5904	1423.9887	1479.4474	1488.1082	1498.1159	1505.0796	1803.6817	1833.2526	2907.1564	3042.5058	3046.0356	3099.0702	3113.9224	3116.064	3126.2181	3132.7237	3477.1704
CC1OC(=N)C1(C)C=O	C[C@H]1O[C]([NH])[C@]1(C)C=O	
InChI=1S/C6H9NO2/c1-4-6(2,3-8)5(7)9-4/h3-4,7H,1-2H3	InChI=1S/C6H9NO2/c1-4-6(2,3-8)5(7)9-4/h3-4,7H,1-2H3/t4-,6-/m1/s1
