18
gdb 106179	2.83425	1.58804	1.41715	1.5854	70.55	-0.2074	0.0815	0.2889	993.6277	0.148636	-439.013991	-439.00637	-439.005426	-439.046293	29.321	
C	 0.0961523859	 1.3305479218	-0.2044381575	-0.262138
O	-0.027815839	-0.0196742864	 0.221145413	-0.284735
C	-1.2930614221	-0.5260756421	 0.1053028907	 0.382626
C	-1.7570196681	-1.9468004895	-0.0563334548	-0.14071
N	-2.6919775638	-1.8368198715	 1.0665865373	-0.311212
C	-2.5185602281	-0.3450847236	 1.0577103833	-0.10321
C	-3.5559767716	 0.3135403633	 0.1543059059	-0.095193
O	-3.380353797	-0.3354778752	-1.115827576	-0.267656
C	-2.0765670284	-0.8753050317	-1.120438845	-0.002413
H	 1.1526345804	 1.5922029713	-0.1186360417	 0.133285
H	-0.2266914953	 1.4518154701	-1.2469515311	 0.118538
H	-0.4903855492	 2.010488176	 0.4284788582	 0.115119
H	-1.2033264699	-2.8552171536	-0.2665257615	 0.10143
H	-3.6409936678	-2.1133183347	 0.8131110509	 0.217811
H	-2.3778781248	 0.1061529818	 2.0412787426	 0.087071
H	-4.5894896516	 0.1492453746	 0.4786472889	 0.110538
H	-3.3833751371	 1.3991377126	 0.0676976045	 0.092079
H	-1.6163956626	-0.943786613	-2.0986800479	 0.108769
76.4358	157.2607	172.2341	253.4285	342.4372	384.5096	411.5495	543.6836	592.5313	683.5774	748.8918	765.2106	828.1317	887.6204	927.0048	945.6697	972.2691	991.4258	1009.2678	1053.144	1064.9787	1084.6798	1086.5996	1124.8983	1154.2151	1177.7974	1182.2399	1221.2159	1237.407	1255.0939	1273.5131	1296.2514	1369.8829	1379.7403	1444.2954	1488.4605	1502.4781	1507.1682	1513.0023	2968.6089	2998.6257	3055.5436	3064.8458	3102.6981	3128.3938	3174.9608	3198.2202	3441.7756
COC12C3NC1COC23	CO[C@@]12[C@H]3N[C@@H]1CO[C@@H]23	
InChI=1S/C6H9NO2/c1-8-6-3-2-9-5(6)4(6)7-3/h3-5,7H,2H2,1H3	InChI=1S/C6H9NO2/c1-8-6-3-2-9-5(6)4(6)7-3/h3-5,7H,2H2,1H3/t3-,4+,5-,6-/m1/s1
