17
gdb 55614	2.42555	1.0447	0.84224	2.6055	80.35	-0.2502	-0.0192	0.231	1406.8278	0.130668	-384.638569	-384.628232	-384.627288	-384.67481	36.563	
C	-0.249900076	 1.4769203565	 0.0248778141	-0.480012
C	 0.1439901509	 0.0142076408	 0.0500850031	 0.394537
O	 0.625002884	-0.5111673567	 1.0266661994	-0.291976
C	-0.0760908448	-0.7612114696	-1.2474493426	-0.312678
C	-0.1057392885	-2.2938405089	-1.0211906673	-0.338276
C	-1.3542330409	-2.7027559765	-0.3684933209	 0.344515
C	-2.3852047399	-3.0131509809	 0.1629354764	-0.469038
C	 0.1059335677	-3.017353154	-2.2778358001	 0.305291
C	 0.2949171464	-3.5849369188	-3.3191754134	-0.420224
H	 0.1121389051	 1.9780053698	 0.9231955473	 0.1465
H	 0.1405635985	 1.9736880276	-0.8699074511	 0.137715
H	-1.3427670066	 1.5558190408	-0.0194724588	 0.150328
H	-0.9874726404	-0.4267061383	-1.7515920427	 0.132117
H	 0.7577701965	-0.5137907127	-1.9173538015	 0.142233
H	 0.7205711844	-2.5179246711	-0.3333508215	 0.160167
H	-3.2887756622	-3.3027099422	 0.6397944888	 0.201125
H	 0.4586809659	-4.1029020457	-4.2316156493	 0.197677
43.3166	61.597	118.4992	127.95	132.509	205.3223	249.5368	337.0626	349.4567	452.558	485.3685	555.1844	563.6264	594.4861	630.3286	634.8623	650.449	652.9761	800.1676	824.2163	898.4289	969.5872	1003.1488	1065.9535	1086.5069	1173.3224	1206.2959	1262.3522	1334.6981	1358.4463	1383.1334	1449.6172	1462.3402	1475.2029	1815.1229	2240.8291	2246.7409	3027.0046	3033.8018	3039.0349	3094.069	3098.3693	3154.1209	3504.1425	3505.041
CC(=O)CC(C#C)C#C	CC(=O)CC(C#C)C#C	
InChI=1S/C8H8O/c1-4-8(5-2)6-7(3)9/h1-2,8H,6H2,3H3	InChI=1S/C8H8O/c1-4-8(5-2)6-7(3)9/h1-2,8H,6H2,3H3
