19
gdb 51737	2.51241	1.49799	1.08086	4.4901	76.19	-0.2334	0.0178	0.2513	1142.6184	0.160221	-419.195005	-419.18631	-419.185366	-419.228856	32.268	
O	 0.7676014549	 0.3102478258	 1.4965474342	-0.332304
C	 0.3086687583	 1.0340633068	 0.6318810908	 0.146716
N	 1.0386199072	 1.5993894026	-0.3581397409	-0.283993
C	 2.4503450774	 1.3137429228	-0.5229007861	 0.000041
C	 3.2090076197	 2.0445731803	-1.6588377156	-0.277039
C	 4.4322006629	 2.1929999327	-0.7030884388	-0.296603
C	 3.4834226244	 1.8857105348	 0.4614749041	 0.366621
C	 3.2006800221	 2.697060541	 1.6618809881	-0.308672
N	 3.8445244964	 1.3689416305	 1.7680862615	-0.37776
H	-0.7643671212	 1.3019846743	 0.5781261379	 0.082705
H	 0.581459078	 2.209826581	-1.0166143384	 0.251499
H	 2.5818021848	 0.2274005298	-0.593721917	 0.106122
H	 3.3516473936	 1.4976159276	-2.5921130847	 0.110377
H	 2.7545448885	 3.0156715169	-1.8790798945	 0.103538
H	 5.1730860164	 1.4016928574	-0.8474385001	 0.117124
H	 4.9416209584	 3.1583238476	-0.6954705663	 0.109
H	 3.8440880178	 3.5391972944	 1.9049860925	 0.112356
H	 2.1693164117	 2.7981631113	 1.9877929983	 0.118636
H	 3.1372603487	 0.6898905025	 2.0490410151	 0.251637
51.8487	105.4031	157.0131	194.5886	264.0255	269.5173	336.976	388.7823	464.6884	543.6073	563.3158	704.7362	764.8124	834.1287	849.8525	893.2304	921.6666	948.8536	977.5207	995.9962	1032.6143	1056.7411	1076.1928	1111.0999	1121.4529	1130.0751	1194.0716	1218.0498	1247.6953	1260.1499	1271.2915	1292.652	1323.3569	1387.058	1418.6937	1424.2015	1478.3599	1495.9029	1506.334	1514.4395	1781.6682	2947.2602	3035.5671	3057.0624	3065.0107	3105.7161	3115.0225	3127.392	3193.2144	3475.4767	3634.5336
O=CNC1CCC11CN1	O=CN[C@H]1CC[C@]21CN2	
InChI=1S/C6H10N2O/c9-4-7-5-1-2-6(5)3-8-6/h4-5,8H,1-3H2,(H,7,9)	InChI=1S/C6H10N2O/c9-4-7-5-1-2-6(5)3-8-6/h4-5,8H,1-3H2,(H,7,9)/t5-,6+/m0/s1
