16
gdb 27111	3.16819	1.25077	0.90892	2.8985	72.75	-0.1881	-0.0368	0.1513	1213.9662	0.125267	-434.114888	-434.106424	-434.10548	-434.148637	30.592	
N	 0.2860912339	 1.4220310951	 0.5327132159	-0.601795
C	 0.1193210382	 0.0606260007	 0.2277811581	 0.186182
C	-1.0267607201	-0.5696258164	-0.2056298868	 0.270592
C	-2.3972767019	-0.0376262137	-0.4464846891	-0.440628
C	-3.3355068979	-0.8806870804	-1.276844021	 0.170977
O	-3.1434722393	-2.0197819409	-1.6306879585	-0.25594
N	-0.6448307495	-1.8883141478	-0.4031746401	-0.297137
C	 0.6753307312	-1.9744780017	-0.1209116145	 0.000179
N	 1.1699626287	-0.8177819288	 0.2777390742	-0.310223
H	 1.237049545	 1.579189115	 0.8458268262	 0.247092
H	-0.3493453611	 1.746592294	 1.2523749469	 0.237163
H	-2.9592644101	 0.1432798455	 0.4898865857	 0.140206
H	-2.342883342	 0.9566953363	-0.9142236254	 0.153229
H	-4.2883269022	-0.3675733247	-1.5310625045	 0.09545
H	-1.2564494759	-2.5832790954	-0.80266497	 0.277964
H	 1.2300209929	-2.8953337368	-0.217788227	 0.126689
46.533	142.561	170.2067	189.4567	232.7011	257.511	304.3604	438.1479	587.0183	590.9304	670.8768	700.1483	709.3804	736.3017	797.3414	816.5793	835.364	935.6357	970.911	1043.1381	1066.2577	1127.3391	1194.8886	1226.3081	1258.7614	1335.1123	1357.2064	1391.4886	1429.5493	1446.282	1489.1247	1513.5119	1642.6717	1645.5592	1813.9781	2899.4663	2935.8561	3019.6656	3254.9055	3517.8225	3606.9962	3638.1405
NC1=C(CC=O)NC=N1	Nc1c(CC=O)[nH]cn1	
InChI=1S/C5H7N3O/c6-5-4(1-2-9)7-3-8-5/h2-3H,1,6H2,(H,7,8)	InChI=1S/C5H7N3O/c6-5-4(1-2-9)7-3-8-5/h2-3H,1,6H2,(H,7,8)
