19
gdb 116937	7.52323	0.48075	0.47501	2.5843	82.01	-0.2481	0.0447	0.2928	2270.7646	0.157982	-422.967218	-422.957166	-422.956221	-423.005161	34.109	
O	-0.0598290385	 1.5179053648	-0.1964728358	-0.414625
C	 0.0205417076	 0.1073756836	-0.3054574305	-0.062978
C	-1.2274591624	-0.463857118	 0.3771207119	-0.324922
C	-1.2725079894	-1.919593269	 0.3372213743	 0.032814
C	-1.2844571962	-3.1239208875	 0.2898242178	 0.095764
C	-1.3301522781	-4.5695933072	 0.2505355809	-0.212742
C	-1.6197009115	-5.3532250307	 1.5628697529	-0.073181
O	-2.6593609937	-6.116337923	 0.9239137884	-0.268685
C	-2.62791062	-5.2723462247	-0.241497923	-0.073184
H	 0.7151322081	 1.8988461279	-0.6190203402	 0.289562
H	 0.0447867036	-0.220727564	-1.3553649532	 0.097876
H	 0.9203449381	-0.2900348458	 0.1874584791	 0.097875
H	-1.247366626	-0.1078901914	 1.4145104772	 0.138076
H	-2.1132309085	-0.0392810394	-0.1111720338	 0.138075
H	-0.4489467166	-4.9693238972	-0.2597577886	 0.1083
H	-0.8125650149	-5.9881584278	 1.9435094029	 0.108156
H	-2.005506192	-4.7223367919	 2.3733220103	 0.107841
H	-3.4954962243	-4.602788736	-0.2932987746	 0.10783
H	-2.5521517253	-5.8486126026	-1.169763156	 0.108148
11.6964	61.374	74.7927	103.6838	134.0557	194.1743	238.2715	316.5062	334.8195	474.0766	502.8484	509.1324	653.0335	793.4025	850.3961	890.6896	922.9605	999.2417	1001.3616	1028.1034	1038.9839	1081.2577	1087.7044	1108.1298	1158.4847	1171.533	1194.7398	1221.5445	1237.9861	1240.7614	1303.4043	1303.8322	1328.9884	1349.123	1383.7914	1454.693	1477.149	1509.5715	1527.9174	1535.4346	2364.154	2982.5312	3013.1178	3014.119	3024.4611	3029.2021	3054.4952	3066.2087	3072.2537	3080.5611	3835.1964
OCCC#CC1COC1	OCCC#CC1COC1	
InChI=1S/C7H10O2/c8-4-2-1-3-7-5-9-6-7/h7-8H,2,4-6H2	InChI=1S/C7H10O2/c8-4-2-1-3-7-5-9-6-7/h7-8H,2,4-6H2
