20
gdb 107273	2.95446	1.63056	1.40772	2.4383	77.45	-0.2411	0.0831	0.3242	999.8407	0.173869	-403.085591	-403.078323	-403.077379	-403.117356	30.136	
O	-0.1582657992	 1.42069556	 0.0214994689	-0.412147
C	-0.043929819	 0.0090736375	 0.0785123943	-0.133663
C	-1.4055582317	-0.6794480039	 0.0713846703	 0.266877
C	-1.9049952858	-1.3546351274	-1.1582315211	-0.291593
N	-2.4448044008	-0.0332103956	-0.7914827398	-0.155854
C	-3.5958342818	-0.0345602217	 0.1788825902	 0.013404
C	-3.5696737196	-1.3866163059	 0.9429471705	-0.25027
C	-2.1846991562	-0.8509506812	 1.3913831014	-0.092189
C	-2.8905497049	 0.5552185064	 1.4386800949	-0.219129
H	-0.8704461272	 1.5827989009	-0.613969054	 0.287982
H	 0.5629630338	-0.3677785292	-0.7594569	 0.087062
H	 0.4940654271	-0.2311464901	 1.0021333046	 0.105735
H	-1.2691488788	-1.318785693	-2.0395763634	 0.115361
H	-2.5336464441	-2.2354312916	-1.1136908223	 0.118136
H	-4.5018265529	 0.3867898827	-0.2550349698	 0.075462
H	-4.2836041645	-1.3797766661	 1.7678421276	 0.104838
H	-3.6527385455	-2.335189986	 0.4123614254	 0.095727
H	-1.6433222743	-1.2670103	 2.2406686594	 0.067932
H	-2.2637275778	 1.4351733504	 1.2979638008	 0.120571
H	-3.5600187268	 0.6731054538	 2.2931179622	 0.095758
64.6042	180.0467	291.4539	311.0929	469.8935	492.3984	526.844	569.0851	587.5191	599.0285	727.235	779.3826	810.835	837.6388	844.224	884.7244	917.7183	939.8646	954.8028	1001.2012	1007.4271	1039.8573	1053.8991	1070.75	1092.0778	1103.1988	1119.4859	1129.4377	1150.5553	1190.2033	1216.9195	1236.5482	1246.992	1255.2603	1282.1414	1319.2393	1342.8889	1373.2254	1447.3205	1481.2843	1502.8632	1515.6584	1547.1941	2977.554	3063.7025	3079.0994	3085.8384	3119.1291	3121.0416	3127.7364	3134.1509	3156.8452	3210.9542	3729.6327
OCC12CN1C1CC2C1	OC[C@]12CN1[C@H]1C[C@@H]2C1	
InChI=1S/C7H11NO/c9-4-7-3-8(7)6-1-5(7)2-6/h5-6,9H,1-4H2	InChI=1S/C7H11NO/c9-4-7-3-8(7)6-1-5(7)2-6/h5-6,9H,1-4H2/t5-,6+,7-,8?/m0/s1
