16
gdb 19740	3.95699	2.47476	2.24525	1.2299	61.92	-0.2461	0.0795	0.3256	680.5221	0.134134	-383.715663	-383.710362	-383.709418	-383.744779	22.486	
C	-0.0170416408	 1.5687349252	 0.0191875723	-0.08422
O	 1.3650904831	 1.9839504744	-0.0591623668	-0.277352
C	 2.0821044437	 0.8668562313	-0.5187352531	 0.111061
C	 2.2921261955	-0.3474980925	 0.4601079204	 0.03561
C	 0.9487418197	-0.3923242013	 1.2109354521	-0.215614
C	 0.0620849086	 0.0410050648	 0.0027368917	-0.089297
C	 1.1398759327	-0.1908999467	-1.1160731571	 0.056095
O	 2.0227623703	-1.2382247259	-0.6644387555	-0.298305
H	-0.453755254	 1.9706035153	 0.9387826671	 0.112049
H	-0.5740616197	 1.9758773967	-0.8377473243	 0.096791
H	 2.9593502867	 1.1614972538	-1.0919735584	 0.095596
H	 3.2199351897	-0.565662953	 0.9880913631	 0.079311
H	 0.7418026682	-1.4063264749	 1.5581086929	 0.10987
H	 0.8875341927	 0.3026808837	 2.0521761068	 0.105828
H	-0.8911780348	-0.4730722054	-0.1097871741	 0.076686
H	 0.8317013186	-0.2610181255	-2.1581563972	 0.085891
248.9827	393.7337	407.2465	512.1202	603.7813	696.1458	763.4297	804.9571	840.3984	862.5388	879.1079	911.8056	932.9949	958.4753	961.6329	981.4747	1014.2618	1042.2988	1068.5072	1099.3688	1134.8067	1172.9968	1187.3481	1211.0245	1211.7849	1239.2455	1267.9672	1291.6147	1307.6433	1330.0621	1341.6765	1393.228	1481.6807	1523.0188	2994.6806	3069.893	3075.0608	3123.1581	3127.1002	3129.1955	3134.7491	3146.974
C1OC2C3CC1C2O3	C1O[C@H]2[C@H]3C[C@@H]1[C@@H]2O3	
InChI=1S/C6H8O2/c1-3-2-7-6-4(1)8-5(3)6/h3-6H,1-2H2	InChI=1S/C6H8O2/c1-3-2-7-6-4(1)8-5(3)6/h3-6H,1-2H2/t3-,4+,5-,6-/m0/s1
