15
gdb 132991	2.46391	1.81716	1.05266	1.7996	72.39	-0.2173	-0.037	0.1802	1053.8198	0.114308	-458.129785	-458.122235	-458.121291	-458.161851	28.376	
C	-0.022952459	 1.443230649	 0.0303330011	-0.329312
N	-0.0061397432	-0.0156383549	 0.0135457227	-0.108577
C	-0.0324691906	-0.7127532018	-1.156157497	 0.110373
N	-0.0208527957	-2.0007282892	-1.2741532446	-0.307675
C	 0.0222153258	-2.7148824656	-0.0967935343	-0.113032
C	 0.0506664514	-2.1112131301	 1.1088851986	 0.172549
F	 0.0924381325	-2.8069839034	 2.2479524639	-0.072184
C	 0.0380122282	-0.6688530462	 1.2603663526	 0.289339
N	 0.0612322421	 0.0269472342	 2.3359607699	-0.584186
H	 0.868142988	 1.8185543313	 0.5386199286	 0.162055
H	-0.0551018778	 1.8092025038	-0.9965629771	 0.131694
H	-0.8937902674	 1.797993842	 0.586339402	 0.161888
H	-0.0660119862	-0.0981661553	-2.0516403282	 0.131583
H	 0.0326484492	-3.797230875	-0.1744885537	 0.127889
H	 0.0923456126	-0.5945422987	 3.1417974855	 0.227596
114.0462	163.4893	219.6084	282.7401	310.1185	345.9959	453.6008	483.3424	524.2752	598.0174	600.9228	698.1203	756.4201	829.6399	880.8097	926.0581	961.6823	971.4663	1076.6996	1156.4988	1158.0402	1198.072	1285.8624	1312.2798	1390.0314	1421.4267	1430.5548	1462.0607	1464.2575	1513.4016	1613.6794	1651.5198	1703.0722	3059.1479	3128.6396	3154.2991	3173.1072	3187.2804	3515.1267
CN1C=NC=C(F)C1=N	CN1C=NCC(=C1[NH])F	
InChI=1S/C5H6FN3/c1-9-3-8-2-4(6)5(9)7/h2-3,7H,1H3	InChI=1S/C5H7FN3/c1-9-3-8-2-4(6)5(9)7/h3,7H,2H2,1H3
