14
gdb 131908	4.15456	1.16609	0.91571	5.4861	73.13	-0.2535	-0.0824	0.171	1197.9526	0.100232	-473.777516	-473.769756	-473.768811	-473.810443	27.696	
C	 0.1666409469	 1.4101924266	 0.0371650876	-0.491752
C	-0.0374647072	-0.0588857648	-0.0198148106	 0.360393
C	-1.1435453613	-0.8499123196	-0.1838304288	-0.251546
C	-0.6937643795	-2.1992238146	-0.1509075006	-0.21328
C	 0.6535414573	-2.117122599	 0.0310666542	 0.432141
O	 1.0711131206	-0.8349615851	 0.1128604396	-0.171066
N	 1.6406920828	-3.1408512979	 0.1424960962	 0.331225
O	 1.2270193062	-4.2961851431	 0.0637694846	-0.377897
O	 2.8065849177	-2.8024376234	 0.3053898707	-0.361363
H	 0.842152705	 1.7461847495	-0.7567458861	 0.156581
H	-0.7900781985	 1.9223544383	-0.0804641914	 0.145677
H	 0.6080642968	 1.7108741167	 0.9933282594	 0.15658
H	-2.1566628664	-0.5028860714	-0.3124022539	 0.128864
H	-1.2642812205	-3.1075341524	-0.2456133509	 0.155443
81.8195	114.8841	159.7396	185.8798	282.7282	345.081	432.6742	546.5422	606.6015	646.7604	674.6287	771.0434	817.5715	826.9997	893.3689	973.0443	985.0494	1017.0576	1045.2748	1062.6402	1205.0364	1238.2947	1272.9525	1395.0654	1407.28	1425.4263	1470.5308	1485.9735	1548.4042	1616.6703	1634.4668	3040.0657	3095.4541	3139.6252	3261.6868	3290.3959
CC1=CC=C(O1)N(=O)=O	Cc1ccc(o1)N(=O)=O	
InChI=1S/C5H5NO3/c1-4-2-3-5(9-4)6(7)8/h2-3H,1H3	InChI=1S/C5H5NO3/c1-4-2-3-5(9-4)6(7)8/h2-3H,1H3
