16
gdb 7103	8.30825	0.80841	0.74683	1.5042	67.31	-0.2511	-0.0182	0.2329	1445.1263	0.126333	-383.715531	-383.705919	-383.704975	-383.752699	32.484	
O	-0.2195081754	 1.506680679	 0.0123492312	-0.424505
C	 0.0227183929	 0.1077487767	 0.0024358691	-0.079718
C	-1.3354967991	-0.5784282481	 0.0118525962	-0.28016
C	-1.238595356	-2.0940949885	 0.002806125	 0.369571
O	-0.1835055747	-2.6772450105	-0.0101561042	-0.276602
C	-2.5930409145	-2.8286339751	 0.0114424845	-0.480938
C	-2.4974575894	-4.2775110565	 0.0033603002	 0.325762
C	-2.4257959661	-5.4757867441	-0.0032514626	-0.422521
H	 0.6303821328	 1.9562487758	 0.0066024143	 0.288997
H	 0.5863798623	-0.20360895	-0.8882239844	 0.104971
H	 0.6034513246	-0.2131860239	 0.8786071871	 0.104989
H	-1.9089531682	-0.2591027278	 0.8921429724	 0.132549
H	-1.9258471945	-0.2496975096	-0.853681027	 0.132526
H	-3.1544245899	-2.4809867277	 0.8899198883	 0.153009
H	-3.1701284981	-2.4723248986	-0.8532874843	 0.15303
H	-2.3539966366	-6.5350641511	-0.0091732158	 0.199039
6.6142	51.1608	97.6958	104.5742	193.0424	271.1448	319.2893	320.9672	384.997	421.3866	462.8343	625.0258	645.7944	705.9575	745.2241	867.3134	888.4652	948.6853	1032.207	1053.4156	1074.0406	1101.1137	1192.6417	1240.1633	1253.4607	1306.1638	1321.1853	1356.2343	1435.7392	1450.8771	1470.3198	1523.2233	1820.5694	2250.5211	2998.2338	3012.9525	3026.0769	3029.6294	3040.0417	3064.4709	3507.7535	3832.4177
OCCC(=O)CC#C	OCCC(=O)CC#C	
InChI=1S/C6H8O2/c1-2-3-6(8)4-5-7/h1,7H,3-5H2	InChI=1S/C6H8O2/c1-2-3-6(8)4-5-7/h1,7H,3-5H2
