18
gdb 114196	2.89928	1.17142	0.94959	3.0155	74.37	-0.2437	-0.0296	0.2141	1258.5608	0.147121	-439.05745	-439.0487	-439.047756	-439.091449	32.424	
O	-0.1532258164	 1.5136176297	-0.0799976375	-0.418611
C	-0.0747970233	 0.200362286	 0.431461585	-0.048948
C	-1.3354808632	-0.5850561025	 0.0654816518	-0.123106
N	-1.5402236596	-0.610106459	-1.4278255463	-0.410315
C	-1.440735919	-2.0857386439	-1.4451438815	 0.236148
C	-2.2259019742	-3.0578166128	-2.2863365651	-0.326699
C	-0.74329971	-2.9188138416	-2.4910030755	-0.291445
C	-1.2125096218	-2.1227303867	 0.0379224125	 0.319862
O	-1.0010481606	-2.9801632532	 0.8461307409	-0.311378
H	-0.3171126299	 1.4058962977	-1.0264756214	 0.287622
H	 0.8113177342	-0.3290414274	 0.0474905557	 0.091318
H	 0.0230200972	 0.2733799784	 1.5185883184	 0.121801
H	-2.1981094805	-0.2092796884	 0.6262010455	 0.106568
H	-2.4755624567	-0.3003582854	-1.6732961223	 0.229826
H	-2.607667819	-3.9441051499	-1.7905801002	 0.140576
H	-2.8842122403	-2.6327642802	-3.037428505	 0.126826
H	-0.3984418085	-2.3877768068	-3.3713034128	 0.132043
H	-0.0926036485	-3.7106673839	-2.1356144222	 0.137912
59.0378	103.4456	147.3372	178.7798	214.1593	291.281	359.8898	405.9144	500.8493	521.3599	616.6672	689.0309	744.9462	775.069	822.9881	842.6841	874.7397	918.7804	964.182	991.819	1021.8143	1046.5203	1066.7467	1075.047	1081.1735	1115.4072	1189.85	1196.7225	1207.6381	1260.3007	1318.9504	1328.1708	1375.6524	1396.8521	1428.1445	1450.533	1483.9403	1502.0778	1894.8626	2982.3167	3056.6369	3091.8199	3128.6284	3135.2687	3214.8841	3232.8859	3513.685	3759.2117
OCC1NC2(CC2)C1=O	OC[C@H]1NC2(CC2)C1=O	
InChI=1S/C6H9NO2/c8-3-4-5(9)6(7-4)1-2-6/h4,7-8H,1-3H2	InChI=1S/C6H9NO2/c8-3-4-5(9)6(7-4)1-2-6/h4,7-8H,1-3H2/t4-/m1/s1
