18
gdb 31744	6.22102	0.85059	0.7555	3.5778	76.9	-0.1735	0.0682	0.2416	1494.2711	0.146441	-439.088793	-439.079137	-439.078192	-439.124616	34.02	
C	-0.0174494393	 1.3917555143	 0.0089741406	-0.260527
O	 0.0047788588	-0.0205902771	 0.0029259842	-0.258443
C	-1.1877087577	-0.6608597585	 0.0117172877	 0.478779
C	-1.3926271121	-2.0194709057	 0.0103319752	-0.447304
C	-2.8061287191	-2.2058991717	 0.0216172789	 0.388369
O	-3.3676334057	-3.4423317968	 0.023411617	-0.262617
C	-4.7787036851	-3.4611229332	 0.0349128844	-0.239559
C	-3.4205548512	-0.9747427185	 0.0296564709	-0.251902
N	-2.3977912176	-0.0242224126	 0.0232016702	-0.356476
H	 1.023764588	 1.7168940973	 0.0012777507	 0.144537
H	-0.5209092782	 1.7950625633	-0.8812559163	 0.119317
H	-0.5054612502	 1.7876061527	 0.9110582454	 0.119373
H	-0.6349028936	-2.7841966614	 0.0022111667	 0.102289
H	-5.1924078824	-2.9622402749	-0.8531017205	 0.113439
H	-5.0823232949	-4.509568314	 0.0348423657	 0.127537
H	-5.1778110208	-2.9666043178	 0.9320055832	 0.113431
H	-4.4529879133	-0.6765629103	 0.0390984223	 0.111226
H	-2.5424525957	 0.9676321449	 0.0270110538	 0.258532
16.5921	87.8812	132.5633	184.8955	204.6589	225.2856	272.7097	287.3616	377.0594	390.6775	561.6354	562.1293	624.9461	644.0377	675.3653	715.5847	751.0767	972.1957	995.3846	1059.4259	1102.1777	1124.7255	1175.3736	1182.7323	1198.6797	1217.4241	1222.2716	1279.4007	1310.7873	1429.9575	1468.894	1479.1482	1482.9834	1491.0707	1500.2107	1511.1413	1514.8303	1591.1689	1644.9763	2987.5939	2989.3106	3040.464	3041.2933	3128.4273	3137.1553	3277.4123	3293.8375	3715.0577
COC1=CC(OC)=CN1	COc1cc(OC)c[nH]1	
InChI=1S/C6H9NO2/c1-8-5-3-6(9-2)7-4-5/h3-4,7H,1-2H3	InChI=1S/C6H9NO2/c1-8-5-3-6(9-2)7-4-5/h3-4,7H,1-2H3
