16
gdb 130226	5.86471	0.96179	0.87921	2.6753	74.36	-0.2278	-0.0055	0.2223	1294.9072	0.126372	-434.035133	-434.027327	-434.026382	-434.067831	29.462	
N	-0.0785532045	 1.3936968177	-0.113348426	-0.588779
C	 0.0392118568	 0.0217754591	 0.0183664897	 0.428342
N	-0.9734994293	-0.7080773211	 0.4356691156	-0.229338
O	-0.4629532489	-2.0162166768	 0.5308548696	-0.243559
C	 0.8269380841	-2.0190068641	 0.1504885796	 0.494538
C	 1.2146567808	-0.7622509771	-0.1923126746	-0.444288
C	 1.5306461607	-3.3081290657	 0.1706954706	-0.116282
C	 1.2211473735	-4.3115176996	 1.2323879068	-0.232777
N	 0.8006086333	-4.5524773185	-0.1497836808	-0.317413
H	 0.4434106639	 1.7841753993	-0.8843574645	 0.255697
H	-1.0397717174	 1.7081955233	-0.112536964	 0.261215
H	 2.1845064812	-0.4347028493	-0.5278681874	 0.115349
H	 2.5375413678	-3.2638308425	-0.2329773882	 0.104387
H	 2.0156217682	-4.9585153457	 1.5930778166	 0.126073
H	 0.4704047654	-4.0386091257	 1.9676960357	 0.136438
H	-0.1890962957	-4.3331984134	-0.2442205585	 0.250398
62.0526	146.0319	166.9254	283.6682	315.6487	344.2691	430.0226	468.8478	625.8715	636.387	702.9287	738.652	752.8748	792.9185	821.7006	877.4133	940.8435	969.3923	996.8315	1005.8289	1035.3249	1103.5887	1134.5222	1139.0873	1165.2641	1185.5266	1267.4321	1305.696	1330.1489	1383.688	1498.2665	1507.0682	1552.8962	1641.3135	1667.9255	3116.3427	3158.2398	3209.4944	3273.1368	3499.6272	3558.3002	3659.1106
NC1=NOC(=C1)C1CN1	Nc1noc(c1)[C@H]1CN1	
InChI=1S/C5H7N3O/c6-5-1-4(9-8-5)3-2-7-3/h1,3,7H,2H2,(H2,6,8)	InChI=1S/C5H7N3O/c6-5-1-4(9-8-5)3-2-7-3/h1,3,7H,2H2,(H2,6,8)/t3-/m1/s1
