17
gdb 9492	2.98125	1.63319	1.52766	3.0281	68.5	-0.2671	0.0222	0.2893	935.4931	0.14115	-363.865237	-363.856883	-363.855939	-363.897847	30.386	
C	-0.4564691166	 1.4139404718	 0.0073423225	-0.417557
C	 0.2093372052	 0.0589602813	-0.0602320739	 0.134368
O	 1.5203938538	 0.0927942366	-0.6647976404	-0.285674
C	 2.0427555391	-0.8269425057	 0.3063399964	-0.103135
C	 0.8047258265	-0.6202100088	 1.2271094458	 0.083705
C	 1.074945314	 0.3104490632	 2.4141954239	-0.453046
C	 0.1174179631	-1.8314164775	 1.6554028762	 0.235439
N	-0.4338270059	-2.7913631657	 1.9896623091	-0.339417
H	 0.1530098514	 2.1428764565	 0.5459399292	 0.12679
H	-0.6138395591	 1.7873607503	-1.0092568772	 0.140249
H	-1.4340954982	 1.3356449632	 0.4940298945	 0.131005
H	-0.4372514042	-0.6508014227	-0.5954177142	 0.092381
H	 2.1377714448	-1.8451238183	-0.0904364695	 0.119607
H	 3.0022855057	-0.4985713774	 0.7188629588	 0.116972
H	 1.6352203233	 1.1879777461	 2.0826267431	 0.138203
H	 0.1435166241	 0.6434871978	 2.8795325457	 0.13985
H	 1.6673759031	-0.2084640707	 3.1729457396	 0.14026
87.965	150.5706	183.7097	209.8856	236.9559	281.8948	340.2416	351.3954	485.3642	553.0956	554.8617	603.2555	766.9574	878.3453	895.4676	934.4052	951.8892	1032.1882	1037.0147	1101.2751	1118.8412	1160.27	1171.0478	1218.3199	1243.4459	1301.6418	1355.3437	1390.0337	1411.99	1412.9926	1478.2339	1486.6746	1497.1382	1501.8781	1523.5899	2351.8215	3002.9409	3023.9277	3043.9148	3048.6321	3080.9788	3113.2367	3121.9771	3128.0733	3134.1859
CC1OCC1(C)C#N	C[C@H]1OC[C@]1(C)C#N	
InChI=1S/C6H9NO/c1-5-6(2,3-7)4-8-5/h5H,4H2,1-2H3	InChI=1S/C6H9NO/c1-5-6(2,3-7)4-8-5/h5H,4H2,1-2H3/t5-,6+/m1/s1
