21
gdb 41603	3.85884	1.25382	1.12582	0.2096	89.13	-0.2153	0.0301	0.2455	1167.1489	0.184781	-349.93835	-349.930625	-349.929681	-349.971016	30.983	
C	-0.0044162178	 1.4927227	 0.0163065279	-0.238869
C	 1.5532641681	 1.4983676743	-0.1267488888	-0.237987
C	 1.5544683076	-0.0297992789	 0.0100949359	-0.115024
C	 0.027624075	-0.0352575892	 0.1385914217	-0.110648
C	 0.7026940274	-0.6719529427	-1.060144075	 0.357332
C	 0.5917238512	-0.1995042693	-2.5221922635	-0.312322
C	 0.3037064839	-1.4826547935	-3.3560637707	-0.271342
C	 0.4802635819	-2.6077648533	-2.3647072716	-0.091009
C	 0.6872773512	-2.1592809379	-1.1277780188	-0.126969
H	-0.3306311755	 1.9793024776	 0.9383225986	 0.102815
H	-0.5858781441	 1.9068912539	-0.8138294673	 0.095358
H	 1.9667913494	 1.9020411743	-1.0566033087	 0.095692
H	 2.040988903	 1.9998283266	 0.7120074483	 0.102049
H	 2.290778962	-0.6077896762	 0.5578191119	 0.078044
H	-0.602611027	-0.6227486456	 0.7970903523	 0.078398
H	-0.1897556505	 0.5526267983	-2.6572242694	 0.102185
H	 1.5319669131	 0.2589367954	-2.8448045537	 0.10538
H	-0.7127595448	-1.4819772073	-3.7722296677	 0.105092
H	 0.9791260921	-1.5756620309	-4.2150183579	 0.102925
H	 0.4182720519	-3.6525628586	-2.6477210087	 0.0893
H	 0.8211967616	-2.7764754169	-0.2453614351	 0.089599
41.0168	175.5155	197.9133	223.1854	362.4989	414.4248	487.9904	519.9551	691.7914	738.8473	750.5733	783.984	804.4798	838.2819	856.3769	877.103	921.502	936.8763	967.15	969.9974	976.2468	997.7298	1008.5111	1036.5196	1061.6393	1093.6788	1095.796	1121.6167	1174.0508	1180.7276	1219.8165	1242.3733	1253.2313	1257.7161	1273.1597	1286.4933	1292.41	1328.4055	1372.735	1416.5508	1479.6469	1483.2482	1501.2598	1503.1762	1686.9278	3012.8468	3038.6371	3043.2713	3049.354	3053.9603	3091.5914	3092.9743	3111.1294	3160.4599	3170.9734	3177.5454	3203.6668
C1CC2C1C21CCC=C1	C1C[C@H]2[C@@H]1[C@]12CCC=C1	
InChI=1S/C9H12/c1-2-6-9(5-1)7-3-4-8(7)9/h1,5,7-8H,2-4,6H2	InChI=1S/C9H12/c1-2-6-9(5-1)7-3-4-8(7)9/h1,5,7-8H,2-4,6H2/t7-,8+,9-
