16
gdb 8049	3.43245	1.87942	1.51243	4.4866	69.73	-0.2526	0.0035	0.2561	870.5622	0.131318	-342.721952	-342.714827	-342.713883	-342.753136	27.153	
C	-0.0251496532	 1.5106045619	 0.0350782368	-0.520952
C	 0.0341689484	 0.0061696243	 0.0282398623	 0.298975
C	 0.5308149681	-0.9696327533	-1.0661838298	-0.205988
N	 0.0661207607	-1.9497019511	 0.0274412767	-0.141462
C	 0.7563541738	-0.9664992152	 0.9950841072	-0.22327
C	-1.1529302703	-1.0047159136	 0.1343832863	-0.144523
C	-1.9369285196	-1.078931038	 1.3587628886	 0.285234
N	-2.578961484	-1.1055819434	 2.3200292485	-0.330225
H	 0.9793963184	 1.9375665565	-0.0514280479	 0.130414
H	-0.6248902	 1.8849820433	-0.8010957181	 0.128475
H	-0.4711652148	 1.8783294486	 0.9647901728	 0.141189
H	-0.0398741625	-1.0454819059	-1.996206544	 0.107565
H	 1.6058576274	-1.0193906787	-1.251904577	 0.112001
H	 1.8466331457	-1.0135484429	 0.9446993973	 0.109698
H	 0.4014904195	-1.0401113005	 2.0251363624	 0.134632
H	-1.8168827774	-1.0792085521	-0.7315936521	 0.118237
127.5461	172.1756	200.1845	295.7038	306.1353	461.9581	511.8825	539.0712	620.7761	634.1924	763.7958	806.3522	887.5613	904.0431	910.3691	930.9445	1009.9543	1029.7781	1058.7702	1091.4076	1128.1958	1173.7977	1193.2998	1199.8499	1202.9714	1257.3042	1328.2783	1381.6326	1411.8664	1487.0273	1488.0301	1514.8354	1554.5707	2351.631	3033.7726	3054.8281	3067.0219	3076.1875	3104.5893	3107.6867	3126.5399	3135.5224
CC12CN(C1)C2C#N	C[C@@]12CN(C1)[C@H]2C#N	
InChI=1S/C6H8N2/c1-6-3-8(4-6)5(6)2-7/h5H,3-4H2,1H3	InChI=1S/C6H8N2/c1-6-3-8(4-6)5(6)2-7/h5H,3-4H2,1H3/t5-/m0/s1
