17
gdb 6964	2.63678	2.258	1.63586	0.9498	63.63	-0.2204	-0.0272	0.1933	852.7331	0.142186	-401.015967	-401.007988	-401.007043	-401.048016	30.114	
C	-0.3172300218	 1.5852292873	 0.0629571046	-0.45217
C	 0.1135043504	 0.134124683	-0.0454645378	 0.291091
O	-1.0117561194	-0.7561097985	-0.1349930271	-0.472325
C	 1.0384935726	-0.2407947453	-1.2082439492	-0.208205
N	 1.7538549873	-1.467122364	-0.8015640914	-0.299376
C	 2.01448802	-1.3023825029	 0.6333589975	-0.283583
C	 0.920523802	-0.3755700858	 1.1762794185	 0.354507
O	 0.6720424293	-0.1183537064	 2.3265978155	-0.326566
H	 0.5452969969	 2.2584377683	 0.0272254249	 0.120534
H	-0.9966863731	 1.8418098374	-0.7548060333	 0.125489
H	-0.8288546624	 1.7533030435	 1.0166342649	 0.129828
H	-1.5047205312	-0.6791224552	 0.6911348343	 0.289784
H	 0.4837952562	-0.4063600164	-2.1340188519	 0.120366
H	 1.766703761	 0.5619235028	-1.3783838483	 0.106787
H	 1.1069761735	-2.2416676225	-0.9145947749	 0.232518
H	 2.0477917872	-2.2538334765	 1.1690650624	 0.136092
H	 2.9839817916	-0.8072759986	 0.7925178714	 0.13523
80.0996	201.9289	210.0759	223.5716	277.1945	351.9951	382.5621	408.7795	502.1619	544.5284	611.7971	659.62	719.8032	818.3468	884.7796	928.9984	937.8546	950.5947	1034.63	1073.2522	1096.8455	1113.9394	1143.5054	1199.4014	1243.5319	1291.3106	1314.0335	1347.2215	1386.3673	1406.4307	1456.5974	1476.7911	1481.6945	1487.0609	1493.8021	1844.3742	3006.3946	3032.1046	3037.8789	3104.6071	3107.9112	3115.4587	3118.8187	3518.1118	3785.8388
CC1(O)CNCC1=O	C[C@@]1(O)CNCC1=O	
InChI=1S/C5H9NO2/c1-5(8)3-6-2-4(5)7/h6,8H,2-3H2,1H3	InChI=1S/C5H9NO2/c1-5(8)3-6-2-4(5)7/h6,8H,2-3H2,1H3/t5-/m1/s1
