21
gdb 111804	2.90588	1.33628	1.27498	1.4681	76.94	-0.241	0.0796	0.3206	1127.3077	0.184661	-424.228981	-424.221	-424.220056	-424.261605	31.411	
C	 0.0483820599	 1.5312167606	 0.0999409296	-0.385756
C	-0.1219131173	 0.0197234048	-0.0917606153	-0.214963
C	 0.7050928622	-0.544369406	-1.2461665933	 0.014675
C	 2.2471680895	-0.5162256663	-1.1468948709	 0.065079
C	 2.4983427704	-1.484437724	 0.0161700105	-0.090922
O	 1.464016873	-2.4758876103	-0.1647941048	-0.284515
C	 0.7571132299	-2.0812351934	-1.3527433234	 0.053392
C	 1.709942853	-2.2578618496	-2.5398630305	-0.090331
O	 2.6555590074	-1.1806623826	-2.3520365707	-0.286054
H	 1.0787592286	 1.7920199221	 0.3638890534	 0.116729
H	-0.2060422935	 2.0790057177	-0.814221932	 0.11658
H	-0.5999412229	 1.9009280444	 0.900150555	 0.115742
H	 0.1237849664	-0.5085619673	 0.8347598658	 0.117391
H	-1.1787192659	-0.2002328011	-0.2901863728	 0.097618
H	 0.3994662533	-0.0868596594	-2.1930009874	 0.079356
H	 2.7536286773	 0.4463552914	-1.0888641942	 0.082794
H	 3.4869579783	-1.9481650976	-0.0661083928	 0.109684
H	 2.3999124485	-1.0201444555	 1.0055983625	 0.097999
H	-0.1814176985	-2.6333490106	-1.4022642345	 0.080265
H	 2.2250444064	-3.2237090809	-2.4998667716	 0.107737
H	 1.2137382742	-2.1518786463	-3.5132982325	 0.097498
69.666	166.0682	209.4806	231.3101	284.8995	342.7582	415.8712	444.0916	529.1165	645.6353	737.0762	779.7548	836.2021	861.3948	864.5698	905.5507	923.3847	943.3917	969.5481	1002.7616	1007.5155	1042.0718	1063.7147	1074.2063	1084.9551	1114.1637	1152.7053	1188.6078	1198.7266	1228.8041	1248.4659	1276.2541	1293.5419	1306.8789	1318.126	1351.3129	1368.7844	1381.6029	1406.7505	1414.7803	1489.5791	1502.0426	1506.8911	1513.9596	1520.6587	3015.7904	3021.2464	3027.3965	3032.0795	3056.6247	3069.217	3072.8366	3078.5835	3102.0588	3104.8652	3124.723	3133.7173
CCC1C2COC1CO2	CC[C@H]1[C@H]2CO[C@@H]1CO2	
InChI=1S/C7H12O2/c1-2-5-6-3-8-7(5)4-9-6/h5-7H,2-4H2,1H3	InChI=1S/C7H12O2/c1-2-5-6-3-8-7(5)4-9-6/h5-7H,2-4H2,1H3/t6-,7-/m1/s1
