21
gdb 106797	2.47217	1.42117	1.08612	0.9586	78.04	-0.2281	0.0752	0.3033	1187.2201	0.182415	-424.217521	-424.20848	-424.207536	-424.250908	34.894	
C	-0.0685219115	 1.4819785423	-0.0808243188	-0.46585
C	 0.0441675504	-0.0091746803	 0.0693384505	 0.408531
C	 1.3523454842	-0.7490606444	-0.0964914294	-0.419015
C	 0.616864799	-0.7607931754	 1.2463456659	 0.234824
C	 1.2495520088	-0.1192229159	 2.4526960417	-0.152526
O	 2.1346082054	-0.9993585097	 3.1360822391	-0.416675
C	-0.3269448431	-1.9367462004	 1.4653340745	-0.281254
C	-1.1480023813	-1.9803869481	 0.161037382	-0.103173
O	-1.1214647009	-0.6614740385	-0.3828337303	-0.297698
H	 0.8263503268	 1.9843095462	 0.2950772511	 0.118324
H	-0.1889473679	 1.7477828212	-1.1360105477	 0.130162
H	-0.9388503945	 1.860624924	 0.4641281562	 0.125813
H	 1.3850643259	-1.6502301033	-0.6998184028	 0.114248
H	 2.2519233152	-0.1430043223	-0.1561680706	 0.107428
H	 1.7641655884	 0.8107034514	 2.1637831222	 0.08226
H	 0.4828847659	 0.1478720317	 3.1892735448	 0.109433
H	 2.7812053931	-1.306998801	 2.4916002916	 0.281534
H	 0.1850661026	-2.8827381919	 1.6612863659	 0.108322
H	-0.9664506429	-1.721587016	 2.3289663074	 0.107078
H	-0.7104985735	-2.6922144602	-0.5531015882	 0.097574
H	-2.19415191	-2.2602716093	 0.3116168748	 0.11066
93.4581	143.8139	190.4157	209.8645	225.721	282.7375	314.1757	377.4857	392.2013	429.7142	471.3799	599.2957	661.4526	704.9732	772.367	843.9098	886.3119	930.5851	936.7963	945.4296	950.1903	984.8536	1033.0715	1053.7596	1070.4798	1093.7894	1116.568	1146.7391	1200.2958	1226.9484	1239.2176	1264.0726	1273.9472	1346.2002	1358.4704	1394.1196	1397.1665	1420.8715	1431.204	1476.6203	1480.6084	1493.5046	1506.0406	1508.865	1531.0348	2978.3405	3001.4672	3039.9498	3042.0699	3059.8706	3084.8419	3097.0589	3104.0898	3119.1028	3123.3416	3205.9634	3804.2783
CC12CC1(CO)CCO2	C[C@@]12C[C@]1(CO)CCO2	
InChI=1S/C7H12O2/c1-6-4-7(6,5-8)2-3-9-6/h8H,2-5H2,1H3	InChI=1S/C7H12O2/c1-6-4-7(6,5-8)2-3-9-6/h8H,2-5H2,1H3/t6-,7+/m1/s1
