13
gdb 62369	2.48225	1.815	1.1995	4.8375	63.5	-0.2717	-0.0401	0.2316	964.9498	0.088703	-452.682927	-452.675605	-452.674661	-452.714707	27.85	
O	 0.1431948668	 1.3868972542	-0.06736708	-0.476192
C	 0.08834909	 0.0034506164	-0.0482868443	 0.383184
C	 1.0288536952	-0.5348378886	-1.0263297486	 0.257419
N	 1.7635113081	-0.990907357	-1.7912650722	-0.318064
C	 0.0306175456	-0.7010849956	 1.3626349566	-0.222574
N	-1.3717573616	-0.0920292014	 1.4451158445	-0.364325
C	-1.3391706668	-0.665219984	 0.0256804781	-0.222574
C	-0.6649838837	-1.8961548541	 0.6725887851	 0.451548
O	-0.7930212051	-3.0726720679	 0.7722082876	-0.302419
H	-0.4995681581	 1.6772617156	 0.5989753463	 0.307243
H	 0.747656615	-0.630804438	 2.1769542844	 0.126948
H	-1.9836392084	-0.6349489006	 2.057460582	 0.25286
H	-2.1682156571	-0.5544609389	-0.6690259496	 0.126948
116.9491	156.7299	215.7095	305.5803	339.3145	487.9208	509.7423	520.9599	539.2629	541.6505	631.9668	734.56	777.7592	793.3405	795.7229	872.1922	1002.8306	1040.5529	1083.0216	1112.4626	1116.6556	1132.7962	1165.0194	1207.4294	1252.8669	1274.7548	1414.6446	1928.1104	2373.4586	3162.6526	3165.4389	3449.8534	3714.0739
OC1(C#N)C2NC1C2=O	O[C@@]1(C#N)[C@H]2N[C@@H]1C2=O	
InChI=1S/C5H4N2O2/c6-1-5(9)3-2(8)4(5)7-3/h3-4,7,9H	InChI=1S/C5H4N2O2/c6-1-5(9)3-2(8)4(5)7-3/h3-4,7,9H/t3-,4+,5-
