18
gdb 5615	3.1437	1.78748	1.2424	1.7951	74.86	-0.1749	0.0565	0.2314	1004.142	0.155158	-344.019692	-344.011179	-344.010235	-344.052477	31.768	
C	 0.0747663299	 1.546308966	-0.0514657383	-0.363838
C	-0.0046135806	 0.0111274087	 0.0410737339	-0.311628
C	-1.4059151391	-0.5271085599	 0.0332351845	 0.245386
C	-2.1538335515	-0.9260688117	 1.1209532629	-0.173423
N	-3.3743619473	-1.3524041333	 0.6777259432	-0.243335
C	-3.4390135927	-1.2268934539	-0.6952420443	-0.162025
C	-2.2301127418	-0.72200276	-1.1218663373	 0.149835
N	-1.8045293331	-0.5185686213	-2.4536992877	-0.608996
H	 1.1147100663	 1.8901343248	-0.0593232592	 0.105919
H	-0.4060095136	 1.9212495785	-0.9622280714	 0.105457
H	-0.434471058	 2.0134747213	 0.7973377446	 0.116136
H	 0.5561201485	-0.4272442264	-0.7946436723	 0.106568
H	 0.505456245	-0.3149038756	 0.9550251836	 0.095999
H	-1.9014737385	-0.9448992698	 2.1697266464	 0.108795
H	-4.1110776771	-1.7081261066	 1.2584967979	 0.256517
H	-4.3195425967	-1.5171176419	-1.2454620372	 0.100627
H	-2.5756633605	-0.5633395872	-3.1084037363	 0.233491
H	-1.3404902993	 0.3739808882	-2.5745735329	 0.238515
76.0362	140.1131	179.6294	189.6048	266.8177	284.2552	351.7086	422.1493	435.3506	612.6147	622.7573	631.8942	711.1925	711.8593	747.4793	784.6834	807.4542	904.4512	963.1	1050.6803	1076.6319	1081.7806	1102.1346	1150.2504	1225.5118	1262.0128	1307.2477	1340.4424	1368.8677	1407.3653	1434.5532	1479.5509	1481.5655	1493.9899	1504.1486	1568.1533	1629.5238	1659.7184	3019.794	3027.3006	3055.5853	3092.6165	3104.7167	3252.7376	3258.9227	3519.3573	3606.7352	3701.2949
CCC1=CNC=C1N	CCc1c[nH]cc1N	
InChI=1S/C6H10N2/c1-2-5-3-8-4-6(5)7/h3-4,8H,2,7H2,1H3	InChI=1S/C6H10N2/c1-2-5-3-8-4-6(5)7/h3-4,8H,2,7H2,1H3
