21
gdb 71852	3.18934	1.57283	1.29047	0.3792	86.69	-0.2293	0.027	0.2563	1063.4845	0.184889	-349.945839	-349.938224	-349.93728	-349.977374	31.448	
C	-0.140839646	 1.589073322	 0.014445004	-0.500514
C	-0.0472353582	 0.0897765997	-0.0246918305	 0.346516
C	 0.7354459761	-0.6894762321	-1.0878992812	-0.294659
C	-0.3181526527	-1.8578273389	-0.9957194242	-0.065248
C	 0.1920034181	-3.1227812294	-0.3620544169	-0.062241
C	 0.6134962931	-3.1178817073	 0.9017630105	-0.054913
C	 0.5716914185	-1.8775021472	 1.7594317931	-0.295546
C	-0.3185537245	-0.7681705732	 1.1971157672	-0.07074
C	-1.1483595946	-0.9711391349	-0.0395905866	-0.128895
H	 0.8062202434	 2.0402039653	 0.3368061075	 0.116399
H	-0.3799268565	 1.9990516367	-0.9741424484	 0.112449
H	-0.9171888117	 1.9235979397	 0.710780339	 0.114624
H	 0.6977483962	-0.1883055446	-2.0599617036	 0.094913
H	 1.7757400631	-0.9500213226	-0.8665270507	 0.090674
H	-0.8071938152	-2.0487939204	-1.951631722	 0.067056
H	 0.2387683581	-4.0288704304	-0.9596716343	 0.080471
H	 1.0036347929	-4.0217858108	 1.3624701346	 0.082412
H	 0.2070571015	-2.1513950232	 2.7585733355	 0.103658
H	 1.5931116512	-1.5029150323	 1.9236956385	 0.1097
H	-0.8316955155	-0.1975311855	 1.9675327315	 0.078802
H	-2.2270236374	-0.8655792008	-0.0595259729	 0.075083
146.1498	197.644	218.8198	253.5928	328.1528	417.1041	465.5386	497.2949	576.1809	619.8884	705.8308	712.5887	755.1804	832.7099	879.4058	893.6115	911.6264	940.305	960.4337	972.0507	992.1002	995.4393	995.9649	1046.7767	1065.5299	1102.6573	1120.0487	1161.6182	1175.3603	1217.6585	1225.1925	1236.3063	1240.0635	1307.2181	1310.9792	1334.9959	1356.6701	1408.0845	1415.0331	1455.3147	1471.0694	1484.6454	1494.091	1502.8832	1713.7363	2994.6933	3014.3024	3023.9662	3037.3189	3070.3879	3084.1789	3089.7623	3099.154	3134.5225	3148.9934	3171.8627	3174.3383
CC12CC3C=CCC1C23	C[C@@]12C[C@H]3C=CC[C@@H]1[C@@H]23	
InChI=1S/C9H12/c1-9-5-6-3-2-4-7(9)8(6)9/h2-3,6-8H,4-5H2,1H3	InChI=1S/C9H12/c1-9-5-6-3-2-4-7(9)8(6)9/h2-3,6-8H,4-5H2,1H3/t6-,7-,8+,9-/m1/s1
