17
gdb 91731	2.61471	1.59431	1.48383	3.2988	66.53	-0.2328	-0.0169	0.2159	960.5454	0.137368	-458.985592	-458.978282	-458.977338	-459.017399	28.958	
O	-0.0050589732	 1.4432343155	-0.0347489671	-0.430611
C	 0.0288805774	 0.0300689905	 0.0303143033	 0.115109
C	 0.6141764078	-0.5595478898	 1.3539996504	-0.278827
C	-0.6002292836	-1.3633958722	 1.8826009768	-0.035472
O	-1.2288662784	-1.814587032	 0.6742777187	-0.266143
C	-1.4179144007	-0.5252243579	 0.066849379	 0.04844
C	-2.2482234536	 0.2273631355	 1.1207922841	-0.340483
C	-1.6237867376	-0.3419646609	 2.4054112339	 0.422972
O	-1.8604402666	-0.0501358193	 3.5457053434	-0.319606
H	 0.8971465279	 1.7674728389	-0.1097849745	 0.291794
H	 0.5538255909	-0.3849671385	-0.83875652	 0.080856
H	 1.4567742418	-1.2288411123	 1.1671516006	 0.11377
H	 0.9354734758	 0.2332735068	 2.0350146705	 0.120342
H	-0.3899214831	-2.1937860902	 2.5533895062	 0.100561
H	-1.8876648982	-0.6456882745	-0.9078439931	 0.090349
H	-2.1644479051	 1.3138624848	 1.0874031725	 0.153028
H	-3.3035151914	-0.0540654444	 1.0595454254	 0.13392
81.1888	183.7453	270.4731	289.527	399.6486	429.7862	485.3481	520.3816	544.7014	610.3147	703.6427	765.6753	803.5037	826.1284	894.8813	925.8068	944.6007	978.7658	989.4055	1026.0169	1056.0154	1073.6056	1120.9995	1150.0475	1191.6616	1204.7987	1228.7297	1259.3588	1266.5141	1297.2146	1329.1898	1342.2439	1350.9747	1418.0765	1444.5882	1479.2505	1868.0275	3022.8364	3065.567	3073.6184	3118.3533	3135.6216	3144.4425	3150.4683	3831.8668
OC1CC2OC1CC2=O	O[C@H]1C[C@@H]2O[C@H]1CC2=O	
InChI=1S/C6H8O3/c7-3-1-5-4(8)2-6(3)9-5/h3,5-7H,1-2H2	InChI=1S/C6H8O3/c7-3-1-5-4(8)2-6(3)9-5/h3,5-7H,1-2H2/t3-,5-,6-/m0/s1
