18
gdb 83038	2.41128	1.62682	1.10215	3.471	79.83	-0.2329	-0.0518	0.1811	1123.3961	0.148412	-401.958279	-401.950322	-401.949378	-401.990668	30.611	
C	 0.1606668183	 1.5978737283	-0.1218535251	-0.408413
C	 0.0304798013	 0.0946782435	-0.1040952977	 0.003283
C	 0.7225266577	-0.7667642935	-1.1249126418	-0.158247
N	 1.2027589657	-0.6734203262	 0.2688582104	-0.123061
C	 1.0173379233	-1.8384447697	 1.134769396	-0.212464
C	 0.0387140367	-2.8810190744	 0.6710571955	-0.042646
C	-0.4233708071	-2.94921192	-0.5822205018	-0.182379
C	 0.0097006405	-1.9865906214	-1.6150648179	 0.402374
O	-0.1864872641	-2.1692093185	-2.8020827408	-0.346476
H	 1.1529227397	 1.8933878934	-0.4716837632	 0.132043
H	-0.5918076315	 2.0445266907	-0.7797589268	 0.12594
H	 0.019066901	 2.0091066303	 0.8836120184	 0.122793
H	-0.9337441566	-0.2853079559	 0.2357089286	 0.094204
H	 1.3496221928	-0.2879547344	-1.8723151417	 0.11013
H	 1.9974816343	-2.3179562222	 1.2742660319	 0.132928
H	 0.7266281101	-1.4722735844	 2.1282825646	 0.124577
H	-0.2610628969	-3.6231544974	 1.4089342721	 0.11114
H	-1.0906970254	-3.7386310383	-0.9124179808	 0.114276
104.5285	167.1851	199.5447	227.2734	309.9835	330.4596	393.6568	450.8309	517.0781	537.9051	640.6415	727.9553	753.8598	809.678	851.0593	907.3402	920.4166	976.415	1005.3565	1030.7262	1042.0338	1070.8198	1094.8866	1148.0589	1172.7277	1176.2107	1249.8485	1271.5551	1301.08	1323.3952	1372.2026	1403.9952	1410.1718	1445.6477	1471.905	1486.8321	1495.8791	1686.1	1769.1411	3000.5268	3036.1125	3037.9585	3099.7288	3101.8748	3127.7437	3144.5046	3149.9416	3192.3524
CC1C2N1CC=CC2=O	C[C@H]1[C@H]2N1CC=CC2=O	
InChI=1S/C7H9NO/c1-5-7-6(9)3-2-4-8(5)7/h2-3,5,7H,4H2,1H3	InChI=1S/C7H9NO/c1-5-7-6(9)3-2-4-8(5)7/h2-3,5,7H,4H2,1H3/t5-,7+,8?/m0/s1
