18
gdb 117736	2.24554	1.13362	0.94652	3.6482	73.8	-0.2785	-0.0576	0.2209	1334.974	0.143096	-439.096937	-439.086354	-439.085409	-439.133383	36.189	
C	-0.1148468961	 1.5577551154	 0.0544085156	-0.384962
C	 0.0425305993	 0.0486027028	 0.0967569662	-0.064177
O	-1.2677169889	-0.5225374544	 0.0448279142	-0.28017
C	-1.3525751431	-1.9274204158	-0.0467847301	 0.132378
C	-0.8077298276	-2.6880336445	 1.1671702317	-0.431571
C	-2.8797908646	-2.1751590592	-0.2087350746	 0.152049
O	-3.4513386387	-3.1323238088	 0.2250657358	-0.225834
C	-0.7153443916	-2.4134119549	-1.2964876331	 0.255501
N	-0.2312221163	-2.7792026867	-2.2806046294	-0.331473
H	 0.8673572512	 2.0369480832	 0.0992042557	 0.125665
H	-0.6113997894	 1.8671745132	-0.8690522612	 0.135073
H	-0.7106032358	 1.9080973522	 0.9018203158	 0.131622
H	 0.6353690863	-0.3081662292	-0.7567996833	 0.121725
H	 0.5536720513	-0.2627427636	 1.0175078014	 0.104782
H	-1.2173497894	-2.2392807527	 2.0756050779	 0.140334
H	-1.1329428725	-3.728694919	 1.1145337865	 0.161879
H	 0.2823663424	-2.6567248988	 1.2052737822	 0.138053
H	-3.3807193364	-1.3547283094	-0.759867021	 0.119126
52.5032	66.7607	92.9017	140.2983	168.2665	195.6026	224.7577	250.5939	278.8767	353.139	380.1854	410.3771	488.5401	567.877	675.5104	726.5792	823.2246	854.4274	912.3839	970.0502	1003.0431	1075.3434	1125.6435	1166.6137	1174.0999	1187.3713	1202.4691	1302.3185	1378.7916	1401.0976	1402.9944	1428.1618	1480.4912	1483.3166	1489.7408	1499.9621	1526.0413	1854.7795	2342.7911	2948.4149	3004.86	3043.2774	3048.8196	3061.0648	3124.1519	3128.2377	3143.161	3151.8654
CCOC(C)(C=O)C#N	CCO[C@@](C)(C=O)C#N	
InChI=1S/C6H9NO2/c1-3-9-6(2,4-7)5-8/h5H,3H2,1-2H3	InChI=1S/C6H9NO2/c1-3-9-6(2,4-7)5-8/h5H,3H2,1-2H3/t6-/m1/s1
