13
gdb 133307	2.37803	1.91843	1.06254	1.6842	68.82	-0.2148	-0.0607	0.1541	1014.8192	0.090044	-490.185513	-490.178	-490.177056	-490.217383	28.622	
N	 0.0335815357	 1.3527086637	 0.1599964036	-0.563271
C	-0.0260498511	-0.0124064485	 0.06441529	 0.314745
C	-1.189238916	-0.7194333557	 0.0425776387	 0.140137
F	-2.3572492911	-0.0786393993	 0.0543632929	-0.058857
C	-1.1896229106	-2.1538962852	 0.0001583954	 0.333467
N	-2.2381862428	-2.885066755	-0.02319809	-0.562224
N	 0.1483719404	-2.617574348	-0.0132482763	-0.309593
N	 1.2819878598	-1.9059097717	-0.0109035155	-0.043352
N	 1.2160214176	-0.6411318094	 0.0282448959	-0.270494
H	 0.9105290787	 1.7587864538	-0.1279041947	 0.269617
H	-0.7948130834	 1.8623584404	-0.1020856106	 0.269973
H	-2.0117836789	-3.8789976402	-0.0546905333	 0.205743
H	 0.3125163217	-3.6143393747	-0.0466724362	 0.274108
121.5836	175.4011	273.8859	287.5595	313.7111	406.2193	477.5274	512.968	528.982	541.8485	570.6331	633.8465	677.9705	691.7351	753.6263	771.3139	920.7343	1010.8198	1059.0723	1149.1642	1203.6458	1269.8767	1349.902	1386.9756	1448.1839	1552.6158	1622.666	1695.1103	1734.5783	3480.0694	3588.8116	3605.8648	3707.7865
NC1=C(F)C(=N)NN=N1	Nc1c(F)c([NH])[nH]nn1	
InChI=1S/C3H4FN5/c4-1-2(5)7-9-8-3(1)6/h(H4,5,6,7,8)	InChI=1S/C3H9FN5/c4-1-2(5)7-9-8-3(1)6/h1-3,5,7-9H,6H2
