18
gdb 31287	1.92855	1.65379	0.94583	1.495	90.49	-0.197	0.0034	0.2004	1251.3992	0.14756	-364.830966	-364.821909	-364.820965	-364.865664	33.804	
C	-0.3399512521	 1.576409733	-0.0711527651	-0.363864
C	 0.0827833281	 0.1017612482	 0.0494444624	-0.318575
C	 0.7507671378	-0.4266492689	-1.1856192236	 0.184745
C	 2.1081561678	-0.7018969657	-1.3263200728	 0.095215
N	 2.3109046537	-1.1464902995	-2.6210601033	-0.314143
C	 1.125969611	-1.1606728947	-3.2953888551	-0.091989
C	 0.1431060973	-0.7202598789	-2.4353626925	-0.220647
C	 3.1662189161	-0.5924128075	-0.4045503471	 0.273336
C	 4.0787746	-0.5029076334	 0.3795866682	-0.47418
H	 0.529245464	 2.2166079632	-0.2504478749	 0.121584
H	-1.0361635049	 1.7211069538	-0.9034661151	 0.115298
H	-0.8327328575	 1.9175198449	 0.8451220618	 0.107727
H	 0.7641419106	-0.0120165703	 0.8992656165	 0.110893
H	-0.8021945118	-0.5063036181	 0.2761434097	 0.102642
H	 3.2046623267	-1.4235114873	-2.9877930433	 0.266183
H	 1.0744518529	-1.4836939803	-4.3228724183	 0.121682
H	-0.9052902326	-0.6226405716	-2.6743333122	 0.096627
H	 4.8758321031	-0.420067257	 1.0756395547	 0.187466
22.0944	133.1714	149.3173	168.3111	220.6361	324.4089	371.0354	449.0173	467.1005	504.5596	535.8553	587.2731	642.5013	673.8275	681.2197	713.1643	751.5632	789.1709	832.816	913.3738	967.6151	1040.8792	1075.7141	1090.5206	1119.7713	1187.7347	1252.6282	1274.4967	1320.141	1357.2949	1405.5694	1441.3267	1470.6752	1483.4203	1493.2227	1496.5549	1509.2866	1595.7809	2218.5485	3024.0545	3033.8552	3069.8171	3104.3491	3111.1348	3241.5067	3268.1656	3502.8523	3683.8229
CCC1=C(NC=C1)C#C	CCc1c([nH]cc1)C#C	
InChI=1S/C8H9N/c1-3-7-5-6-9-8(7)4-2/h2,5-6,9H,3H2,1H3	InChI=1S/C8H9N/c1-3-7-5-6-9-8(7)4-2/h2,5-6,9H,3H2,1H3
