16
gdb 42493	5.92726	0.66956	0.63946	2.6208	79.65	-0.2341	-0.0654	0.1687	1688.427	0.120511	-400.671955	-400.662017	-400.661073	-400.707961	34.802	
O	 0.3694338253	 0.0745906642	 0.3344836039	-0.288
C	 0.1783802376	 1.2244402926	 0.0022450608	 0.225307
C	 1.244745568	 2.0513809614	-0.7301236822	-0.270476
N	 2.540486396	 1.4226597079	-0.8434901069	-0.281558
C	 3.2943898211	 1.403378622	 0.4194161907	-0.287942
C	 4.5666665211	 0.7082338894	 0.2615313191	 0.28171
C	 5.6043695182	 0.1161201571	 0.1374658984	-0.42364
C	-1.0837164471	 1.9025193542	 0.2354251632	 0.246963
C	-2.1084364522	 2.5105692294	 0.4085240358	-0.393107
H	 0.8411344447	 2.2669645649	-1.7303161392	 0.140129
H	 1.3379724665	 3.0263581619	-0.2353251698	 0.133916
H	 2.4218113019	 0.4646337321	-1.1591511485	 0.235184
H	 3.4834346946	 2.4455034444	 0.7112591445	 0.131795
H	 2.7360266652	 0.9380082699	 1.2479978924	 0.132749
H	 6.5252357601	-0.4010877967	 0.0283427866	 0.197843
H	-3.0231481109	 3.0274368953	 0.5720727313	 0.219128
42.8116	48.0186	108.3643	139.3909	172.0756	238.0992	260.5881	340.7934	348.4024	457.8923	560.6601	576.8936	595.6939	610.2611	650.1242	663.5031	713.2103	747.4752	834.9621	919.9457	991.8402	1001.4017	1076.6925	1102.3874	1172.076	1231.0582	1295.1142	1348.8991	1391.425	1442.1217	1494.4361	1507.348	1768.7106	2207.9684	2245.428	2973.6465	3010.6102	3025.1953	3059.5881	3492.6074	3506.7074	3523.6367
O=C(CNCC#C)C#C	O=C(CNCC#C)C#C	
InChI=1S/C7H7NO/c1-3-5-8-6-7(9)4-2/h1-2,8H,5-6H2	InChI=1S/C7H7NO/c1-3-5-8-6-7(9)4-2/h1-2,8H,5-6H2
