22
gdb 114103	3.20719	1.12107	0.98157	2.0328	83.53	-0.2094	0.0769	0.2862	1327.8951	0.193015	-404.306836	-404.297562	-404.296618	-404.340814	35.139	
C	 0.0580346106	 1.5310374187	-0.0337906302	-0.380123
C	 0.0814445035	 0.0163997061	 0.1604411315	-0.123853
N	-1.24994215	-0.5517623623	 0.0697852213	-0.077152
C	-2.1789644946	-0.3199389748	 1.2074195967	-0.222725
C	-2.5167252075	-1.828495178	 1.2425670616	 0.437733
C	-2.7087409862	-2.5352943189	 2.5573160352	-0.473178
O	-3.513015607	-2.2023270516	 0.2570487676	-0.336899
C	-2.4984072108	-2.5644519222	-0.7147566049	-0.08202
C	-1.387275461	-2.019966627	 0.1919813385	-0.098255
H	 1.069929675	 1.9438375293	 0.0231889109	 0.11128
H	-0.3733584913	 1.7863338128	-1.0058205472	 0.125338
H	-0.5438905954	 2.0181706185	 0.7407739224	 0.11942
H	 0.6952869449	-0.4467330723	-0.6219024694	 0.099683
H	 0.5703675077	-0.220654411	 1.1281495529	 0.067801
H	-1.6639729502	 0.011720269	 2.1234728619	 0.084395
H	-3.0119238908	 0.357012395	 0.9935880552	 0.108276
H	-3.6562417957	-2.2255775043	 3.0133627315	 0.131141
H	-2.7440762203	-3.6192447977	 2.4140844188	 0.124346
H	-1.900313567	-2.2982739475	 3.2556072734	 0.117051
H	-2.4781187303	-3.6507313257	-0.8759065112	 0.092476
H	-2.6244943368	-2.0421198514	-1.6683234762	 0.105485
H	-0.4662972968	-2.5897166146	 0.3386485598	 0.06978
74.2042	105.1963	181.1465	206.0802	218.6514	253.7197	309.2687	338.9534	364.0415	410.8782	466.1197	603.5708	693.0136	755.9218	810.2947	843.368	906.4254	929.9066	941.0749	965.4682	983.5298	997.9369	1041.5091	1061.7101	1096.6541	1115.1225	1137.8941	1168.7234	1180.6353	1194.3752	1210.1691	1223.4435	1266.3131	1310.6188	1322.7429	1340.7186	1363.7622	1396.5606	1409.5377	1414.6802	1481.6326	1484.9402	1488.7578	1490.0085	1497.3596	1505.1794	1514.5492	2884.3932	2972.2611	3007.1652	3032.5073	3037.544	3041.6126	3072.7362	3077.6541	3081.7392	3100.2083	3105.2535	3115.5125	3118.6639
CCN1CC2(C)OCC12	CCN1C[C@@]2(C)OC[C@@H]12	
InChI=1S/C7H13NO/c1-3-8-5-7(2)6(8)4-9-7/h6H,3-5H2,1-2H3	InChI=1S/C7H13NO/c1-3-8-5-7(2)6(8)4-9-7/h6H,3-5H2,1-2H3/t6-,7-/m1/s1
