22
gdb 5841	3.07452	1.374	1.22153	2.4765	78.14	-0.2358	-0.0063	0.2295	1153.8687	0.196652	-350.241733	-350.231326	-350.230382	-350.276906	37.825	
C	 0.0800555286	 1.5367908581	 0.0864722289	-0.376597
C	-0.0767688743	 0.0586948422	-0.265392339	-0.28745
C	-1.465350863	-0.4905991274	 0.0556363411	 0.375623
O	-2.3690327744	 0.2583025513	 0.3539621577	-0.316044
C	-1.6801549714	-2.020757285	 0.0192141838	 0.161571
C	-3.1841067963	-2.3175034609	-0.0866029377	-0.396683
C	-0.9316603229	-2.6750512395	-1.1580590873	-0.420355
C	-1.1385681738	-2.5841397957	 1.3553676048	-0.409184
H	 1.0715333628	 1.8987710624	-0.2001387654	 0.106654
H	-0.6743528541	 2.1385652582	-0.4249468195	 0.135241
H	-0.0493904648	 1.7003443605	 1.1599566976	 0.125373
H	 0.0968486822	-0.1010124189	-1.338501162	 0.127315
H	 0.6819397139	-0.5530220194	 0.2376830437	 0.117084
H	-3.5938021393	-1.9454302884	-1.0306955061	 0.113464
H	-3.3594134656	-3.3972960995	-0.0403262908	 0.101545
H	-3.7356538807	-1.835017633	 0.7221076686	 0.13164
H	 0.1515510169	-2.542107268	-1.0887899311	 0.115036
H	-1.1295312423	-3.7520781129	-1.1687625952	 0.116735
H	-1.2641071669	-2.2694875161	-2.1196586616	 0.117564
H	-1.659670915	-2.1391679532	 2.2085088661	 0.128633
H	-1.2941876137	-3.6676356576	 1.3910219275	 0.118686
H	-0.0663223959	-2.3997582573	 1.475638106	 0.114148
39.2039	77.8643	183.9583	188.4073	209.6937	235.4528	259.5452	273.8429	305.54	331.9567	360.0911	371.198	467.7131	560.2113	587.1178	721.283	812.2772	827.911	936.5754	944.8672	962.9851	976.0361	1011.875	1018.6839	1069.5284	1093.829	1120.1822	1221.5144	1247.7894	1275.3618	1280.7937	1366.5637	1394.6309	1399.2019	1412.1624	1429.6494	1450.6111	1477.8287	1484.2568	1486.7795	1492.2801	1498.3222	1500.5163	1505.6924	1518.5287	1793.7154	3023.114	3029.5389	3032.3057	3041.2544	3049.5345	3057.342	3095.3283	3098.904	3105.4877	3108.3422	3110.7233	3117.4797	3131.8506	3135.2074
CCC(=O)C(C)(C)C	CCC(=O)C(C)(C)C	
InChI=1S/C7H14O/c1-5-6(8)7(2,3)4/h5H2,1-4H3	InChI=1S/C7H14O/c1-5-6(8)7(2,3)4/h5H2,1-4H3
