18
gdb 97568	2.95938	0.77946	0.66175	5.0511	77.65	-0.2477	0.0147	0.2624	1716.1178	0.146483	-439.092627	-439.082421	-439.081477	-439.130541	35.353	
C	 0.3950866341	 1.3022765589	-0.4034842065	-0.364231
C	-0.3900999892	 0.275717073	 0.4337203661	-0.318097
C	 0.4357857732	-0.3934210303	 1.4329627771	 0.074589
C	 1.1436204761	-0.9100181331	 2.2592530573	 0.108216
C	 2.0016176649	-1.5849327198	 3.2247137302	-0.330709
N	 2.2535649152	-3.0155916137	 2.9382255764	-0.528673
H	 3.9823718444	-2.5992769724	 3.5399058644	 0.308478
H	 1.4856985132	-3.5862087988	 3.2751790745	 0.252254
H	 2.3000318985	-3.1535146076	 1.9324408451	 0.252059
C	 3.3679500086	-0.8538860926	 3.408845357	 0.449414
O	 3.4847438491	 0.3379383919	 3.4021643652	-0.326782
O	 4.3771666029	-1.7026590475	 3.6298391024	-0.369689
H	 1.2117438772	 0.8184752826	-0.9457854247	 0.128758
H	-0.2656718753	 1.7837300783	-1.1303173302	 0.115213
H	 0.8283082331	 2.0738120712	 0.2378271586	 0.141345
H	-1.2289921743	 0.7740961585	 0.9360834246	 0.134195
H	-0.8399110105	-0.4753493583	-0.2284974952	 0.127888
H	 1.5405911689	-1.53776352	 4.2209693578	 0.145776
10.9365	54.4993	66.5255	124.9474	187.4689	230.8129	299.9959	310.4	339.9189	381.23	461.4006	525.2079	539.3445	583.0572	712.383	785.0407	796.528	848.5669	869.8548	917.8738	985.2472	1076.4554	1087.01	1104.1622	1167.3447	1174.4623	1211.1782	1284.4549	1286.6008	1349.0204	1378.2393	1410.3251	1428.8535	1473.3118	1494.1841	1504.95	1658.8872	1883.675	2365.6812	3020.1159	3020.2134	3046.5501	3047.9902	3120.2403	3129.1168	3455.313	3504.2152	3584.8122
CCC#CC([NH3+])C([O-])=O	CCC#C[C@@H](N)C(=O)O	
InChI=1S/C6H9NO2/c1-2-3-4-5(7)6(8)9/h5H,2,7H2,1H3,(H,8,9)	InChI=1S/C6H9NO2/c1-2-3-4-5(7)6(8)9/h5H,2,7H2,1H3,(H,8,9)/t5-/m1/s1
