16
gdb 27992	3.82206	1.20122	0.91917	2.7631	76.38	-0.2011	-0.039	0.162	1221.6852	0.124363	-437.951645	-437.943487	-437.942543	-437.984269	30.639	
C	-0.0524036213	 1.5324516294	 0.0005985561	-0.493796
C	-0.0017291356	 0.0374451558	 0.0032333984	 0.289336
C	-0.0302600855	-0.7763789672	-1.0834690647	-0.208156
N	 0.0387133125	-2.1098653391	-0.6297870949	-0.126607
C	 0.0375396697	-3.238153174	-1.3994829486	 0.190156
O	 0.0995753089	-4.369822009	-0.9508737325	-0.349804
C	 0.1109870007	-2.0926980031	 0.7772457932	 0.443933
O	 0.1857687323	-3.228289741	 1.4757915522	-0.428403
C	 0.0879205277	-0.7959074858	 1.1856332765	-0.38966
H	 0.8418678637	 1.9613056741	 0.467387192	 0.133597
H	-0.1231791799	 1.9268499202	-1.0166208898	 0.123774
H	-0.9152298281	 1.9018540749	 0.5667422297	 0.133529
H	-0.0921914682	-0.5664309806	-2.1385561165	 0.13123
H	-0.0256238845	-3.02513153	-2.4789147665	 0.117712
H	 0.1779497043	-3.9668947415	 0.833812096	 0.320526
H	 0.1295332734	-0.4616718531	 2.2099167296	 0.112635
107.7719	145.913	201.3704	233.0644	274.1455	300.4378	360.4991	476.8493	499.689	586.4254	607.6609	628.9859	658.2923	694.7146	784.6938	797.4556	838.0268	970.8029	1015.2474	1031.2125	1062.1782	1168.9218	1187.6035	1246.4052	1274.9351	1359.2767	1388.6585	1419.9908	1438.3545	1477.0565	1480.2208	1499.8204	1628.6521	1678.9539	1777.4506	3010.9843	3028.5907	3078.8777	3113.1811	3261.06	3268.4511	3526.0751
CC1=CN(C=O)C(O)=C1	Cc1cn(C=O)c(O)c1	
InChI=1S/C6H7NO2/c1-5-2-6(9)7(3-5)4-8/h2-4,9H,1H3	InChI=1S/C6H7NO2/c1-5-2-6(9)7(3-5)4-8/h2-4,9H,1H3
