19
gdb 58056	2.22937	1.33548	0.92457	3.4837	75.66	-0.2532	0.0222	0.2754	1284.585	0.158353	-419.190456	-419.18074	-419.179796	-419.225329	35.232	
C	 0.0839744846	 1.5043012828	-0.0930094118	-0.431803
C	-0.0176674177	-0.0148983221	-0.0001663085	 0.137199
O	 0.7015806701	-0.5226573331	 1.1113162576	-0.420715
C	-1.4938209433	-0.5264407745	 0.0663158083	-0.196466
C	-2.2804168152	-0.0117939397	-1.0549544008	 0.271735
N	-2.884843598	 0.3701877937	-1.9638990596	-0.340371
C	-1.5453514327	-2.0541396375	 0.1262984841	 0.019943
C	-2.7698656457	-2.8157686693	-0.210723153	-0.261015
N	-1.5840578572	-2.8776070578	-1.0875883798	-0.31838
H	 1.1354989424	 1.8021606965	-0.1017698198	 0.13579
H	-0.3953532101	 1.8854597943	-0.998191921	 0.15272
H	-0.4019183544	 1.9800974642	 0.768943878	 0.112628
H	 0.4524051967	-0.4732130599	-0.8771072358	 0.117745
H	 0.4913349733	 0.0212533344	 1.8790567243	 0.28358
H	-1.9328742287	-0.1249247289	 0.9916619388	 0.120542
H	-0.8786659952	-2.4365388407	 0.8929545958	 0.120122
H	-2.9972548742	-3.7341866813	 0.3225067046	 0.123764
H	-3.6377283302	-2.2629058264	-0.560402044	 0.130465
H	-1.7459277644	-2.2951025746	-1.9076331674	 0.242517
67.4124	80.3652	145.0506	168.3586	183.757	243.6112	307.6347	323.9976	352.8418	401.4746	457.473	468.2499	541.415	638.6872	778.0607	845.7883	866.014	920.1486	951.3531	962.3847	990.8211	1034.3571	1077.0528	1108.8002	1122.5878	1148.3751	1162.5029	1191.7216	1227.2477	1263.9719	1305.9733	1311.1722	1328.5132	1366.8393	1399.9692	1409.5155	1423.1275	1491.9407	1494.9864	1512.3112	2349.2125	3004.1005	3025.6061	3061.279	3105.2729	3112.8024	3133.5253	3164.1214	3199.6694	3481.9231	3795.5768
CC(O)C(C#N)C1CN1	C[C@@H](O)[C@@H](C#N)[C@H]1CN1	
InChI=1S/C6H10N2O/c1-4(9)5(2-7)6-3-8-6/h4-6,8-9H,3H2,1H3	InChI=1S/C6H10N2O/c1-4(9)5(2-7)6-3-8-6/h4-6,8-9H,3H2,1H3/t4-,5-,6-/m1/s1
