16
gdb 77844	2.14614	1.6067	1.50858	3.9668	74.28	-0.269	-0.022	0.247	997.1224	0.124313	-396.898117	-396.889948	-396.889004	-396.930867	30.275	
C	-0.2232792916	 1.6083554367	 0.0073385689	-0.428973
C	 0.0365166605	 0.1076516981	-0.009856268	-0.074932
C	 0.7533427337	-0.5969808942	-1.1704058277	-0.057147
C	 2.2166265394	-0.3636783707	-1.226313754	-0.170441
C	 2.8777529807	 0.8559942868	-0.8300426509	 0.320573
N	 3.4492742232	 1.8193116373	-0.5425229319	-0.332431
N	 1.6899226879	-1.3407207886	-0.2215221488	-0.181862
C	 1.1098863857	-0.5326391356	 0.8655408531	 0.369324
N	 1.3693458362	-0.4901412486	 2.0884490844	-0.507944
H	 0.682770782	 2.1850175477	-0.1851664036	 0.156738
H	-0.973795065	 1.8767685848	-0.7426291224	 0.122471
H	-0.6053286581	 1.9004442114	 0.9895045594	 0.14509
H	-0.8999849988	-0.4306117604	 0.1806193058	 0.123978
H	 0.2638122109	-1.1251966318	-1.9809812923	 0.122648
H	 2.7411622546	-0.8797799278	-2.0261478925	 0.154018
H	 2.1492838788	-1.1090160749	 2.3237989405	 0.238891
98.696	134.3207	182.1516	191.9684	246.2298	265.8935	432.4146	449.2387	543.8912	602.8179	650.7894	682.6263	739.0315	804.264	816.7444	905.8436	916.7702	942.8054	948.1413	1053.2415	1057.3203	1095.9222	1105.4435	1151.3921	1216.851	1242.4725	1253.1907	1336.3322	1364.9551	1398.5714	1415.1023	1494.6796	1501.4036	1823.7356	2354.5021	3043.2902	3050.3775	3116.6176	3145.668	3153.2042	3183.8163	3454.5132
CC1C2C(C#N)N2C1=N	C[C@H]1[C@H]2[C@@H](C#N)N2[C]1[NH]	
InChI=1S/C6H7N3/c1-3-5-4(2-7)9(5)6(3)8/h3-5,8H,1H3	InChI=1S/C6H7N3/c1-3-5-4(2-7)9(5)6(3)8/h3-5,8H,1H3/t3-,4+,5-,9?/m0/s1
