16
gdb 71457	3.99591	1.4252	1.25429	4.0253	67.72	-0.2405	-0.0119	0.2286	982.2736	0.124941	-437.85658	-437.849504	-437.84856	-437.88791	28.292	
O	-0.1618691705	 1.4218320291	-0.0273103059	-0.456068
C	-0.041645643	 0.0498978028	-0.0369653605	 0.364704
C	 0.6250232613	-0.774871539	-1.1332375765	-0.262544
N	-0.3675235935	-1.9033702487	-0.8397084399	-0.169043
C	-1.1538028166	-0.9561660064	 0.0057004957	-0.099528
C	-0.2781770027	-0.7988313561	 1.2246307657	-0.130939
C	 0.4761111043	-2.0902489802	 1.4431370699	-0.362991
C	 0.338261607	-2.7923835056	 0.0753071104	 0.388465
O	 0.7899251567	-3.8540448318	-0.2358388794	-0.299404
H	 0.5726397499	 1.794406267	 0.4729126886	 0.292311
H	 0.4345725482	-0.3735233913	-2.1311796994	 0.134881
H	 1.6828443921	-1.0483627681	-1.0419679941	 0.114587
H	-2.2307339115	-0.8865336699	-0.0639860538	 0.111255
H	-0.6753629335	-0.2330413587	 2.0596750393	 0.103209
H	 1.5406784319	-1.9882002546	 1.6780581587	 0.13306
H	 0.02856898	-2.7002626384	 2.2353138413	 0.138045
102.9775	228.4979	281.2123	310.0133	375.9561	449.1079	482.732	535.7145	615.7034	660.8282	686.7047	754.211	787.5531	866.0333	885.2248	915.4173	964.6953	988.7774	995.3063	1038.8895	1054.3275	1065.2532	1090.4886	1162.7488	1175.2979	1184.2765	1234.8359	1261.5788	1276.1113	1305.7592	1322.8626	1456.098	1464.1609	1514.5822	1876.8775	3034.9073	3049.2288	3086.1661	3107.9288	3185.7052	3210.31	3797.8097
OC12CN3C1C2CC3=O	O[C@]12CN3[C@H]1[C@H]2CC3=O	
InChI=1S/C6H7NO2/c8-4-1-3-5-6(3,9)2-7(4)5/h3,5,9H,1-2H2	InChI=1S/C6H7NO2/c8-4-1-3-5-6(3,9)2-7(4)5/h3,5,9H,1-2H2/t3-,5+,6+/m1/s1
