20
gdb 85170	2.22268	1.55503	1.00871	3.5912	80.92	-0.2339	0.036	0.2699	1220.7312	0.170698	-403.163043	-403.15404	-403.153096	-403.197496	33.399	
C	 0.2587620976	 1.6318277235	 0.1903684998	-0.400824
C	 0.0831632547	 0.1248238925	 0.0794409502	 0.057604
C	 0.9699859788	-0.630797168	-0.9532102926	-0.399971
C	 1.5323048117	-1.4053489713	 0.2582054083	 0.414316
O	 2.3306538811	-2.2896084464	 0.430011791	-0.377916
N	 0.7479804833	-0.6747532085	 1.1282682658	-0.081341
C	 0.48765255	-0.7796767793	 2.5216203866	 0.02236
C	 1.6136521086	-1.1914570956	 3.4298624214	-0.267449
C	 1.0958191078	 0.2216083814	 3.4842780218	-0.272656
H	 1.319898012	 1.8971875336	 0.2394937187	 0.120436
H	-0.1822359099	 2.1307559593	-0.6787654176	 0.12304
H	-0.2334702634	 2.0219769648	 1.0867452486	 0.126881
H	-0.9817810565	-0.127527185	-0.008665004	 0.079906
H	 0.4384949651	-1.2539559159	-1.6746059727	 0.129242
H	 1.7038787995	-0.0119195904	-1.4741467736	 0.126521
H	-0.5075245054	-1.1485983141	 2.765218368	 0.0951
H	 1.3724673615	-1.8649078067	 4.2439647964	 0.120142
H	 2.5738687201	-1.3723010045	 2.9647772919	 0.150644
H	 1.7168315257	 1.0014460484	 3.059421487	 0.119167
H	 0.4998408477	 0.5270543221	 4.3370538651	 0.114801
47.9359	94.1238	111.205	160.18	240.6626	298.045	344.856	395.7568	440.6356	519.6571	569.5423	669.7982	720.1409	781.2605	825.7387	837.3537	901.5294	916.2646	927.5882	1015.7848	1039.0177	1053.1396	1058.2041	1078.5916	1096.8269	1117.9261	1138.9382	1151.6243	1185.5861	1195.9117	1217.4747	1234.498	1274.304	1379.3668	1405.7735	1409.5724	1419.6903	1465.3158	1466.8663	1488.8955	1497.0357	1502.0164	1869.1857	3015.6662	3033.7346	3081.3937	3106.761	3107.6075	3108.9164	3138.7697	3139.8179	3154.9246	3227.025	3249.1236
CC1CC(=O)N1C1CC1	C[C@H]1CC(=O)N1C1CC1	
InChI=1S/C7H11NO/c1-5-4-7(9)8(5)6-2-3-6/h5-6H,2-4H2,1H3	InChI=1S/C7H11NO/c1-5-4-7(9)8(5)6-2-3-6/h5-6H,2-4H2,1H3/t5-/m0/s1
