21
gdb 62895	3.87912	1.13103	0.98763	0.8846	90.57	-0.2508	0.0475	0.2983	1269.1895	0.181228	-349.868663	-349.859611	-349.858667	-349.901895	35.743	
C	 1.1994768865	-0.9237144584	-1.3418421025	-0.438265
C	 0.9330613719	 0.1771509937	-0.9352766318	 0.291484
C	 0.5649972548	 1.5055778914	-0.4876043224	-0.174439
C	 0.5143985452	 1.8254115873	 1.0516740528	-0.082641
C	 2.0683342474	 1.7207598583	 1.0270779347	-0.256737
C	 1.6843445304	 2.5768729805	-0.2162439056	-0.08259
C	 0.6501522406	 3.3542388459	 0.6865963098	 0.356614
C	-0.5319854554	 4.0735118529	 0.0217698362	-0.470917
C	 1.1952716962	 4.3099769532	 1.7558776464	-0.471169
H	 1.4405250025	-1.8953628216	-1.695357569	 0.187269
H	-0.2874728603	 1.8514765579	-1.069163409	 0.090362
H	-0.1700997609	 1.3744317742	 1.7733086532	 0.071076
H	 2.6296388242	 2.1967469692	 1.8270703028	 0.092513
H	 2.4695118697	 0.7308185243	 0.8105672628	 0.115055
H	 2.3575362524	 2.9980102026	-0.9660046321	 0.07107
H	-1.0320190578	 3.5160486529	-0.7703828102	 0.118818
H	-1.2900237221	 4.318440386	 0.774326	 0.116731
H	-0.1947993735	 5.0217461918	-0.4119512434	 0.116731
H	 1.5029283109	 5.2536251009	 1.2910523829	 0.115851
H	 0.4063791644	 4.5521019045	 2.4771203372	 0.115833
H	 2.0470936428	 3.9309983525	 2.3193147673	 0.11735
100.0391	133.46	151.9902	201.9359	208.4782	347.0332	372.3004	416.9701	479.22	505.0725	512.2772	565.2203	612.856	631.8633	679.6665	732.0572	819.1138	863.3218	888.8682	897.0233	952.7168	957.6915	1004.0076	1008.7845	1037.5694	1059.9884	1065.5202	1096.9665	1140.7696	1165.2942	1184.951	1197.1713	1212.1847	1221.6061	1243.0402	1305.325	1368.5423	1415.7889	1430.8362	1483.9067	1488.4465	1510.5561	1513.3421	1541.4052	2227.6726	3031.9371	3038.5248	3082.9346	3087.8416	3088.1183	3089.7617	3106.2971	3116.5035	3137.5628	3142.2063	3170.8001	3504.3897
C#CC1C2CC1C2(C)C	C#C[C@H]1[C@H]2C[C@@H]1C2(C)C	
InChI=1S/C9H12/c1-4-6-7-5-8(6)9(7,2)3/h1,6-8H,5H2,2-3H3	InChI=1S/C9H12/c1-4-6-7-5-8(6)9(7,2)3/h1,6-8H,5H2,2-3H3/t6-,7+,8-
