24
gdb 65564	3.30775	0.98445	0.92814	0.9913	89.78	-0.2299	0.081	0.3109	1420.5079	0.217354	-368.372964	-368.363498	-368.362554	-368.407318	36.509	
C	 0.024371894	 1.5814891894	-0.0090096327	-0.435847
C	-0.029227714	 0.0524825835	 0.021841926	 0.352252
C	-1.4694033876	-0.4485978835	 0.1363569805	-0.212493
N	-2.3174043997	 0.0338282963	-0.950116867	-0.061642
C	-2.4853683833	-0.84531955	-2.1025903603	-0.215694
C	-3.593923377	-0.6442398638	-1.1296356759	-0.220027
C	 0.8593689523	-0.593371614	-1.0933298394	-0.243537
C	 1.9923887079	-0.7868731288	-0.0510084573	-0.212771
C	 0.9532503587	-0.5500918248	 1.0772314023	-0.26034
H	 1.0549770452	 1.9416359084	-0.0951473865	 0.103514
H	-0.5520877903	 1.9687477933	-0.8528740781	 0.130457
H	-0.4002132118	 2.0037939525	 0.9095218857	 0.105108
H	-1.4705885921	-1.553824576	 0.1937384318	 0.067446
H	-1.9006598818	-0.0806255132	 1.0775556648	 0.097373
H	-2.5036974339	-0.3600122402	-3.0743211503	 0.114858
H	-1.9853527252	-1.8124872938	-2.0861188618	 0.108191
H	-3.8269982852	-1.4773831414	-0.4674500022	 0.105827
H	-4.4397819363	-0.0077203923	-1.3743891534	 0.114651
H	 0.4566727494	-1.5510057033	-1.4361606729	 0.089661
H	 1.0762937206	 0.0226889436	-1.969956974	 0.093735
H	 2.5123212525	-1.7476140958	-0.0539148024	 0.093691
H	 2.7437160029	 0.0055074701	-0.0979648697	 0.102888
H	 1.2441230635	 0.1023421938	 1.9054750366	 0.091966
H	 0.5786615411	-1.49076512	 1.494283266	 0.090733
67.3676	99.0377	128.9366	171.871	252.3113	276.7572	313.3444	351.0317	384.4251	398.8458	454.0725	659.2428	724.1286	767.8454	795.1048	841.1733	868.4051	896.5183	904.8016	927.309	945.1159	969.0253	982.4085	1000.5413	1027.7417	1034.3977	1073.5895	1112.9035	1119.0934	1158.9003	1164.7841	1179.7427	1206.8232	1210.7641	1228.1533	1258.251	1265.9356	1277.382	1313.6502	1322.2426	1333.0283	1384.1007	1410.4102	1474.9025	1479.4794	1483.6813	1490.4082	1496.2236	1503.2301	1508.2125	1521.7375	2917.189	3024.8565	3028.2521	3042.2763	3050.8831	3063.627	3088.2921	3089.3755	3089.9508	3095.7662	3098.883	3117.4999	3120.7451	3172.7735	3187.633
CC1(CN2CC2)CCC1	CC1(CN2CC2)CCC1	
InChI=1S/C8H15N/c1-8(3-2-4-8)7-9-5-6-9/h2-7H2,1H3	InChI=1S/C8H15N/c1-8(3-2-4-8)7-9-5-6-9/h2-7H2,1H3
