22
gdb 59067	2.00374	1.35643	1.01273	4.0553	86.68	-0.2791	0.032	0.3111	1307.5272	0.192759	-367.23235	-367.221975	-367.221031	-367.267589	38.026	
C	 0.4692718528	 0.8218909214	 0.5831010511	-0.393854
C	 0.2393663218	-0.4981720895	-0.1688069022	 0.010858
C	 1.1232760034	-1.6210233292	 0.3947227032	-0.3921
C	-1.2275486904	-0.8903355315	-0.1047515766	-0.001224
C	-2.2857659127	-0.3664745471	-1.0354063429	-0.043039
C	-2.0098173652	 0.601202798	-2.1649287859	-0.417003
C	-1.8626139832	-1.8352596358	-1.1270255043	-0.220128
C	-1.0978487467	-2.2866836621	-2.2539854478	 0.296896
N	-0.4796124584	-2.6514193422	-3.1626370083	-0.357284
H	 1.5211705745	 1.1202782726	 0.532358995	 0.11653
H	-0.1333147002	 1.6340602272	 0.1652622237	 0.116602
H	 0.2044403364	 0.719925117	 1.6422534604	 0.112958
H	 0.5202664952	-0.3487954327	-1.217366091	 0.093476
H	 1.0005428574	-2.5466924004	-0.1745672533	 0.132165
H	 2.1802609693	-1.339532949	 0.355916279	 0.115138
H	 0.8725875535	-1.8291475267	 1.4417932137	 0.108855
H	-1.5679116411	-1.0832833189	 0.9112155637	 0.094002
H	-3.2669391652	-0.2402248287	-0.5851130979	 0.0996
H	-1.0604348121	 0.3979324746	-2.6646753272	 0.144522
H	-2.7973136841	 0.536593489	-2.9225248756	 0.129811
H	-1.9866923445	 1.631119956	-1.7941153517	 0.124444
H	-2.5584928105	-2.5787476822	-0.7530890051	 0.128777
66.8979	99.0932	132.8095	166.3982	192.698	220.4411	235.9687	251.5317	330.0101	358.2451	370.1381	437.3957	522.1191	616.8125	638.1074	753.1165	785.0516	812.2745	897.0332	930.8612	947.268	963.9585	979.3571	1024.0047	1038.5881	1099.5612	1136.3232	1146.5228	1153.0998	1187.6829	1205.1637	1259.7154	1317.1758	1340.2521	1361.8956	1397.5529	1399.7655	1420.8974	1425.1968	1442.3184	1485.4224	1490.5201	1492.7543	1501.6559	1505.1015	1510.4854	2344.0249	3026.8753	3030.4015	3041.1383	3046.3653	3092.4679	3099.0635	3100.9973	3108.0062	3114.1153	3120.0474	3126.3405	3145.128	3167.2095
CC(C)C1C(C)C1C#N	CC(C)[C@H]1[C@@H](C)[C@H]1C#N	
InChI=1S/C8H13N/c1-5(2)8-6(3)7(8)4-9/h5-8H,1-3H3	InChI=1S/C8H13N/c1-5(2)8-6(3)7(8)4-9/h5-8H,1-3H3/t6-,7+,8-/m0/s1
