18
gdb 47205	2.64694	1.72376	1.14431	3.2996	80.27	-0.2329	0.0147	0.2476	1070.8554	0.149977	-401.989072	-401.981298	-401.980354	-402.021503	30.305	
O	 0.0376756918	-0.0140214317	 0.2932156888	-0.395341
C	 0.0273585984	 1.1970038717	 0.1338890921	 0.361442
N	-1.14392035	 1.8896597208	 0.0297627253	-0.358704
C	-1.3395791212	 3.3167555179	-0.1591961716	-0.207387
C	-0.0422504492	 4.0613131418	-0.2383112245	-0.098482
C	 1.1411002302	 3.4617324778	-0.1449125824	-0.117101
C	 1.2899110659	 2.0064251109	 0.0452607825	 0.206763
C	 2.4551297252	 1.4754907717	 0.8791719147	-0.29123
C	 2.4735472593	 1.2845794988	-0.5975556348	-0.291204
H	-1.9630397334	 1.303091023	 0.0960053962	 0.24594
H	-1.9242461619	 3.4946421073	-1.0761310314	 0.119562
H	-1.9484095789	 3.7217495378	 0.6651088567	 0.11961
H	-0.1169465214	 5.1347505149	-0.3781122205	 0.097924
H	 2.0564940895	 4.0455301448	-0.2079681375	 0.092374
H	 3.1137387294	 2.2141995435	 1.3224524753	 0.113838
H	 2.2318588188	 0.6105757134	 1.49188793	 0.144121
H	 2.2625782448	 0.2916314845	-0.9755739866	 0.144039
H	 3.1450698128	 1.8884394811	-1.1978526825	 0.113836
71.9714	122.7185	258.2698	272.7702	280.6367	402.727	478.5864	518.3886	556.7353	593.2776	646.4076	733.8192	751.6704	789.3927	842.3995	889.487	916.9547	941.1826	967.3194	995.8506	1002.8776	1029.1312	1066.3054	1092.2064	1096.6563	1183.8507	1205.4402	1244.5505	1268.7681	1293.8034	1363.1205	1408.1959	1439.689	1447.0106	1480.5138	1490.4608	1528.356	1737.1007	1772.1832	2968.8744	2977.5681	3139.3703	3140.6014	3150.6578	3187.2771	3231.2061	3244.673	3611.3977
O=C1NCC=CC11CC1	O=C1NCC=CC21CC2	
InChI=1S/C7H9NO/c9-6-7(3-4-7)2-1-5-8-6/h1-2H,3-5H2,(H,8,9)	InChI=1S/C7H9NO/c9-6-7(3-4-7)2-1-5-8-6/h1-2H,3-5H2,(H,8,9)
