14
gdb 5679	5.19044	2.24646	1.58342	3.8467	70.25	-0.2037	-0.0232	0.1805	756.0431	0.111306	-341.6312	-341.625619	-341.624675	-341.6607	22.203	
C	-0.0660453086	 1.4688303354	 0.0106208295	-0.242932
C	 1.4041222999	 1.8531076161	-0.0012468984	-0.102558
C	 2.1783346954	 0.7544364797	-0.0147777199	-0.178731
C	 1.3163661356	-0.4163607739	-0.0130596391	 0.37728
N	 1.4091497911	-1.7290503728	-0.0211934566	-0.360765
C	 0.0983747548	-2.155171599	-0.0109567025	-0.095004
C	-0.7828419285	-1.0942411087	 0.0031763371	-0.15319
N	 0.0173936911	 0.0200300604	 0.0017295557	-0.001618
H	-0.5844995866	 1.8391098044	 0.9035438485	 0.141132
H	-0.601387867	 1.8490110306	-0.8680623351	 0.141131
H	 1.729338193	 2.883510369	 0.0013849536	 0.115949
H	 3.2575874343	 0.7146248327	-0.025303371	 0.126472
H	-0.1478295567	-3.2065673836	-0.0143587777	 0.105946
H	-1.8588659676	-1.0464296004	 0.0136434659	 0.126889
176.5147	256.3811	441.3379	457.0965	622.7137	679.7147	687.2212	725.9227	741.03	783.7583	845.1399	869.7364	929.3248	951.1751	962.0187	987.2764	1071.075	1099.2477	1157.963	1188.0477	1190.2344	1275.112	1297.9495	1340.0382	1393.2327	1441.5445	1472.8662	1506.2609	1574.3284	1623.5009	3030.5423	3062.5943	3235.5378	3244.6582	3257.5734	3278.9597
C1C=CC2=NC=CN12	C1C=Cc2nccn12	
InChI=1S/C6H6N2/c1-2-6-7-3-5-8(6)4-1/h1-3,5H,4H2	InChI=1S/C6H6N2/c1-2-6-7-3-5-8(6)4-1/h1-3,5H,4H2
