17
gdb 17958	2.72909	2.54335	1.47242	2.2119	69.98	-0.2397	-0.0067	0.233	858.4269	0.144153	-363.853658	-363.8466	-363.845656	-363.884718	27.121	
C	-0.0228614997	 1.3915584208	 0.1205385323	-0.06535
C	 1.3499832337	 2.0770177908	 0.0008434826	-0.257991
C	 1.87730136	 2.2337083652	-1.4062525531	-0.050239
C	 2.2099414148	 1.2381081559	-2.2282103592	-0.043425
C	 2.0946790646	-0.226363566	-1.8752443334	-0.210065
N	 0.7457612338	-0.7355431386	-2.1645765078	-0.202697
C	-0.1390370225	-0.5759655718	-1.2821100505	 0.097592
O	 0.0261373431	-0.0346758431	-0.0317949136	-0.237617
H	-0.4166744534	 1.5515291863	 1.1289867736	 0.114705
H	-0.7331245456	 1.8202851024	-0.5960261767	 0.110821
H	 1.2542885727	 3.0655080359	 0.4640820675	 0.104274
H	 2.0542001638	 1.5133484216	 0.6255770603	 0.126218
H	 1.9665368771	 3.2541319457	-1.7719894563	 0.090563
H	 2.5492892586	 1.4724511398	-3.2336658477	 0.094922
H	 2.7969819276	-0.8107135293	-2.475679644	 0.104689
H	 2.3420176151	-0.3734451488	-0.8158445444	 0.111137
H	-1.1488838537	-0.9535998869	-1.4553506495	 0.112464
147.7512	174.1783	219.352	277.1565	322.2931	440.3166	483.7227	538.5061	646.3866	705.2737	743.1477	811.054	901.1545	933.7096	945.1604	970.8703	1001.1381	1005.7305	1040.3435	1066.421	1105.3052	1125.4336	1225.3377	1255.6613	1281.1135	1311.1896	1348.4512	1358.165	1389.1652	1406.3325	1423.7921	1472.1684	1493.7079	1503.2678	1718.7482	1730.3728	3017.0978	3030.253	3031.6708	3072.5073	3083.5917	3088.2492	3114.6595	3144.2736	3171.4701
C1CC=CCN=CO1	C1CC=CCN=CO1	
InChI=1S/C6H9NO/c1-2-4-7-6-8-5-3-1/h1-2,6H,3-5H2/b2-1-,7-6-	InChI=1S/C6H9NO/c1-2-4-7-6-8-5-3-1/h1-2,6H,3-5H2/b2-1-,7-6-
