16
gdb 22653	4.92989	0.87622	0.7508	3.1885	77.42	-0.2492	-0.0619	0.1873	1418.3189	0.123079	-437.87419	-437.865805	-437.864861	-437.90768	30.726	
O	-0.1746383622	 1.3263509779	 0.0060988476	-0.394495
N	 0.0039564022	-0.0682015267	 0.0023663392	-0.211168
C	-1.1150844581	-0.6695372513	 0.0092033239	 0.388223
C	-2.4996348543	-0.0428406843	 0.0201932585	-0.347422
C	-3.3990056635	-1.2457838386	 0.0248481413	-0.162663
C	-2.7155153439	-2.4009053097	 0.0179394717	 0.245365
C	-1.2192218631	-2.1849251034	 0.0072691931	-0.40588
C	-3.3357513207	-3.7274975265	 0.0203260194	 0.072134
O	-2.7145952192	-4.7672563041	 0.0140757594	-0.267426
H	 0.7330861682	 1.6485050833	 0.0003124564	 0.309195
H	-2.6424557869	 0.6056107301	 0.8951606637	 0.147461
H	-2.6551238017	 0.6082473201	-0.8506551793	 0.147457
H	-4.4817905031	-1.1741184897	 0.0329151348	 0.115985
H	-0.7458558546	-2.6349395545	-0.8726793608	 0.146524
H	-0.7328296514	-2.6381120312	 0.8784309883	 0.146532
H	-4.4486925778	-3.7188463412	 0.0285681528	 0.070177
60.7541	121.2785	152.3307	240.767	279.6398	297.7618	390.2763	428.3977	450.8207	504.4285	529.6936	691.1994	745.9083	821.4462	822.8749	887.0902	915.4588	969.842	998.0711	1001.8512	1040.1028	1135.3603	1170.3809	1182.3973	1219.2133	1273.3602	1292.7839	1368.784	1403.0383	1420.672	1445.3937	1463.2024	1679.3194	1762.6931	1786.6746	2881.5106	3021.9493	3041.2117	3045.3543	3072.1983	3191.0853	3819.0041
ON=C1CC=C(C1)C=O	ON=C1CC=C(C1)C=O	
InChI=1S/C6H7NO2/c8-4-5-1-2-6(3-5)7-9/h1,4,9H,2-3H2	InChI=1S/C6H7NO2/c8-4-5-1-2-6(3-5)7-9/h1,4,9H,2-3H2
