20
gdb 123202	2.04209	1.26568	0.88594	3.1581	76.04	-0.2618	0.0189	0.2807	1367.1819	0.168696	-440.276416	-440.265992	-440.265048	-440.312964	35.857	
C	-0.9889996036	 1.3589055043	-0.5477411344	-0.392905
C	-0.7479437505	-0.1239452066	-0.7658611433	-0.031296
O	-1.7851147005	-0.8495499814	-0.1229681906	-0.250357
C	-1.6621234883	-2.2483203606	-0.2541386629	-0.071227
C	-2.9351004565	-2.895998688	 0.2670669915	-0.089103
O	-4.0542317596	-2.8033838498	-0.6060062277	-0.236129
C	-4.6003618408	-1.5177467732	-0.7859454966	-0.187401
C	-4.0509274986	-0.8205151801	-1.9658160811	 0.283735
N	-3.6502392215	-0.2852360039	-2.9084235454	-0.331286
H	-0.1902490767	 1.9433650598	-1.0137993488	 0.117814
H	-1.9407383986	 1.6576310261	-0.9946915012	 0.141108
H	-1.012833661	 1.5940331191	 0.5204095858	 0.120196
H	-0.7425026816	-0.3592181398	-1.8408196061	 0.1106
H	 0.2277314753	-0.428155694	-0.351959589	 0.085221
H	-1.504801363	-2.5366458864	-1.305225125	 0.109984
H	-0.8020008174	-2.6211024025	 0.3290373338	 0.092423
H	-2.7708730226	-3.9696750438	 0.395473642	 0.119197
H	-3.179942916	-2.4616836035	 1.2481359362	 0.107281
H	-5.677762938	-1.6429686015	-0.9439063465	 0.151574
H	-4.4506746503	-0.8785246144	 0.0926345993	 0.150571
52.1042	68.8124	82.4258	112.3041	163.4962	191.4563	235.8357	254.3927	346.6662	367.3507	375.7203	432.0534	524.1296	588.5194	822.0448	839.9084	858.5535	905.4266	952.1949	1002.9542	1032.1999	1068.8415	1109.2934	1145.0611	1159.8224	1171.7975	1190.8903	1258.3915	1299.1945	1303.6539	1337.0363	1382.2621	1395.2092	1404.9138	1414.1578	1448.2287	1459.1716	1479.4916	1484.6359	1498.2584	1503.5826	1529.3765	2355.3344	2955.1617	2969.008	2995.3617	3010.3258	3012.7327	3030.6979	3046.4465	3077.2592	3097.1951	3118.6349	3128.8414
CCOCCOCC#N	CCOCCOCC#N	
InChI=1S/C6H11NO2/c1-2-8-5-6-9-4-3-7/h2,4-6H2,1H3	InChI=1S/C6H11NO2/c1-2-8-5-6-9-4-3-7/h2,4-6H2,1H3
