15
gdb 123817	5.61948	0.99514	0.8958	0.4826	66.85	-0.2625	-0.0199	0.2425	1258.656	0.113253	-453.918355	-453.911	-453.910056	-453.951223	26.903	
C	-0.342210574	 1.1499233611	-0.0766735854	-0.276702
C	 1.1334369735	 1.04430923	 0.2610834576	-0.298552
C	 0.3374441504	-0.1838304356	-0.0203761106	 0.145814
O	 0.0965385467	-1.0118952814	 1.1059242966	-0.250309
C	-0.9166259643	-1.8607904156	 0.9951867723	 0.462681
N	-1.6782983338	-1.9887011431	-0.0672302085	-0.225792
O	-2.5656451723	-3.0128546287	 0.3224400039	-0.164808
C	-2.2170153836	-3.3541470871	 1.5609313522	 0.1181
N	-1.2147534185	-2.6962133238	 2.0462881457	-0.322856
H	-1.0181621789	 1.3914889698	 0.7352374083	 0.131556
H	-0.6401907767	 1.5285595358	-1.0474721552	 0.127711
H	 1.869384087	 1.3546265007	-0.4714210382	 0.124566
H	 1.4167985796	 1.2129321912	 1.2936259811	 0.135616
H	 0.4929615039	-0.7475480272	-0.9340937651	 0.124179
H	-2.7920628091	-4.134784686	 2.0376407653	 0.168794
58.944	83.9577	153.2553	302.935	360.3459	403.5972	500.0953	614.7367	727.0779	764.2722	776.2047	828.7387	850.9661	909.8482	927.2259	966.1773	986.7318	992.6727	1053.3466	1064.6306	1077.7817	1120.1398	1158.0525	1179.2904	1190.8862	1239.925	1311.8009	1373.6413	1410.7377	1455.4574	1497.9286	1558.0829	1617.7525	3144.2661	3146.806	3169.7832	3228.0979	3241.5718	3264.4105
C1CC1OC1=NOC=N1	C1CC1Oc1nocn1	
InChI=1S/C5H6N2O2/c1-2-4(1)9-5-6-3-8-7-5/h3-4H,1-2H2	InChI=1S/C5H6N2O2/c1-2-4(1)9-5-6-3-8-7-5/h3-4H,1-2H2
