14
gdb 14678	5.65655	0.7054	0.66237	4.5582	64.37	-0.2692	-0.0029	0.2662	1608.6636	0.104216	-419.648366	-419.639165	-419.638221	-419.684765	29.519	
O	 0.1432223417	 0.7799833652	 0.7075726823	-0.405608
C	-0.2827421609	-0.1145931212	-0.3093683093	-0.21208
C	-1.6838350344	-0.4582609973	-0.1036240046	 0.080222
C	-2.8399836158	-0.7527577111	 0.0521844118	 0.107585
C	-4.2357124236	-1.1139311462	 0.2459631337	-0.251354
O	-4.3984563507	-2.3908294259	 0.8934660146	-0.165133
C	-4.3458117875	-3.4791992019	 0.0982759065	 0.183187
O	-4.4293549827	-4.5902217199	 0.5243683465	-0.267232
H	 1.0761926531	 0.9641050098	 0.5575862962	 0.294069
H	-0.1688054896	 0.3301855666	-1.3115355811	 0.122608
H	 0.3091780723	-1.0442890717	-0.3050569177	 0.127348
H	-4.7333431627	-0.3967803139	 0.9038475644	 0.163476
H	-4.7733486058	-1.1123435854	-0.7113610418	 0.142135
H	-4.2306663535	-3.225895017	-0.9738881115	 0.080779
23.9446	38.9042	104.4411	126.6811	169.0248	223.3609	297.9814	329.3895	356.8338	476.1188	557.6886	680.6442	774.3936	984.1572	1020.1124	1026.0626	1043.9489	1057.7977	1148.0259	1154.0256	1247.9471	1257.7611	1299.2713	1389.0338	1433.1108	1460.0715	1481.0042	1498.4641	1872.4145	2372.3327	2947.1167	2965.8066	2985.7599	3024.6431	3097.7966	3819.6327
OCC#CCOC=O	OCC#CCOC=O	
InChI=1S/C5H6O3/c6-3-1-2-4-8-5-7/h5-6H,3-4H2	InChI=1S/C5H6O3/c6-3-1-2-4-8-5-7/h5-6H,3-4H2
