19
gdb 105033	2.54999	1.23053	0.98789	1.2039	71.83	-0.266	-0.0422	0.2238	1252.4762	0.156024	-460.149385	-460.139636	-460.138692	-460.184718	35.139	
C	-0.7463176493	 1.2360897593	-0.2574755113	-0.392122
C	-0.0779981664	-0.1203447003	-0.0019143814	-0.255375
C	 0.5942107886	-0.7035749952	-1.2294738252	 0.380959
C	 0.4821955215	-2.1392489402	-1.5198725282	-0.236289
O	-0.2897646219	-1.1787369663	-2.2556449422	-0.279631
C	 1.7945191522	 0.087768043	-1.7611878887	-0.020141
O	 2.7614976907	 0.2446724378	-0.7576587968	-0.429579
C	 2.4108186728	-0.5349207233	-2.9999880911	 0.120719
O	 3.5944262363	-0.7746179643	-3.0506636612	-0.269034
H	-0.014095292	 2.0105257451	-0.5061528024	 0.126878
H	-1.4653997992	 1.1666110537	-1.0794981906	 0.130793
H	-1.2832281597	 1.5709289647	 0.6345052638	 0.118948
H	 0.6763858314	-0.0305901033	 0.7865825911	 0.129181
H	-0.8290630513	-0.8386732927	 0.3436637559	 0.102575
H	 1.2579117456	-2.6529679339	-2.0874038764	 0.12295
H	-0.0906971941	-2.7770704862	-0.8492823827	 0.122562
H	 1.4158874173	 1.0743642118	-2.0896155082	 0.101794
H	 3.591690203	-0.0705964594	-1.1512759351	 0.296923
H	 1.7278089945	-0.7344137502	-3.8446583593	 0.127889
40.0423	79.1443	110.6146	195.2856	209.0709	245.4916	296.3581	324.4773	348.0472	422.1933	439.8585	472.9202	559.8663	688.4291	759.1918	792.9824	855.0786	867.8062	909.6958	965.3885	1001.6029	1040.8195	1074.9449	1105.2807	1132.1914	1154.2146	1172.5822	1232.9003	1263.1887	1302.427	1337.3955	1350.9033	1381.0488	1410.5172	1421.1458	1445.6383	1472.3047	1503.0999	1506.7696	1534.9561	1805.3629	2934.2431	2987.8409	3041.1548	3046.7496	3083.3224	3087.8671	3111.957	3117.3501	3169.985	3675.0905
CCC1(CO1)C(O)C=O	CC[C@]1(CO1)[C@@H](O)C=O	
InChI=1S/C6H10O3/c1-2-6(4-9-6)5(8)3-7/h3,5,8H,2,4H2,1H3	InChI=1S/C6H10O3/c1-2-6(4-9-6)5(8)3-7/h3,5,8H,2,4H2,1H3/t5-,6-/m0/s1
