20
gdb 40675	3.69694	1.044	0.94996	1.1247	80.98	-0.218	0.0724	0.2904	1313.3317	0.170385	-403.073221	-403.064684	-403.06374	-403.107114	32.137	
C	 0.4206397554	 1.6824629975	 0.247661531	-0.217854
C	 1.0082710082	 0.4352654553	-0.3152472464	-0.224592
N	-0.3664804242	 0.4530552969	 0.1791674766	-0.065894
C	-0.6103537805	-0.2245813362	 1.4209649965	-0.048545
C	-2.0117619326	-0.1477481904	 2.0103211739	-0.386392
C	-1.5123775987	-1.4176232798	 1.4013125568	 0.448339
C	-2.0225641363	-2.2117966484	 0.2079636066	-0.346757
C	-1.660645747	-3.4355256008	 1.0785054031	-0.074032
O	-1.2392970096	-2.5865679305	 2.1744805847	-0.310059
H	 0.7754241835	 2.0045723573	 1.2247879122	 0.112921
H	 0.099422772	 2.4860749377	-0.4089130815	 0.116189
H	 1.1235770154	 0.3152192968	-1.3887477429	 0.115791
H	 1.7577848938	-0.0782663848	 0.284290408	 0.114627
H	 0.2103013325	-0.2624665075	 2.1439852816	 0.080243
H	-2.0953584013	-0.1041075357	 3.0910300865	 0.12103
H	-2.7551330981	 0.4184678493	 1.4585925038	 0.120573
H	-3.086216499	-2.0946760959	-0.007341219	 0.11315
H	-1.4499604749	-2.0870235758	-0.7117476072	 0.121427
H	-2.4944922381	-4.0839619124	 1.3689079488	 0.105653
H	-0.8355054505	-4.0540435626	 0.7066944169	 0.104184
61.6257	88.2936	127.0211	155.6485	294.8879	324.2384	364.5805	428.7607	490.3577	614.7676	735.6166	789.1686	821.7446	869.243	872.5565	887.5443	902.3513	926.0928	968.131	996.0723	1016.8274	1034.6271	1060.1862	1087.0285	1098.8399	1114.4919	1118.5572	1127.7647	1163.0113	1176.2191	1185.8099	1208.8153	1214.0146	1243.6053	1315.4744	1331.2943	1366.1518	1408.8881	1481.1703	1491.3374	1493.2464	1518.4877	1532.1063	3025.3538	3050.8024	3068.5758	3081.1729	3096.9579	3101.7263	3128.525	3136.1355	3178.466	3193.3832	3222.5121
C1CN1C1CC11CCO1	C1CN1[C@H]1C[C@]21CCO2	
InChI=1S/C7H11NO/c1-4-9-7(1)5-6(7)8-2-3-8/h6H,1-5H2	InChI=1S/C7H11NO/c1-4-9-7(1)5-6(7)8-2-3-8/h6H,1-5H2/t6-,7-/m0/s1
