21
gdb 114087	3.29002	1.12158	1.00205	2.2059	78.05	-0.2505	0.0759	0.3264	1252.3139	0.183463	-424.210689	-424.202096	-424.201151	-424.243651	34.039	
O	-0.1434083915	 1.4486655321	-0.0886609291	-0.422438
C	 0.0095062468	 0.0443938735	 0.0763516132	-0.109899
C	-1.3681704085	-0.5864849159	-0.0415909466	 0.056018
C	-2.0499709584	-0.4295462686	-1.4396171221	-0.289014
C	-2.3321722244	-1.915883979	-1.7433799692	 0.426425
O	-3.0482898542	-2.2320728897	-2.8962410436	-0.486747
C	-2.8585553163	-2.4387674748	-0.3842849303	-0.263588
C	-1.3981229692	-2.1314266366	 0.0604050011	-0.050348
C	-0.9744543986	-2.5926993388	-1.364984163	-0.292345
H	 0.7266390563	 1.8545049037	-0.0357359096	 0.285818
H	 0.6892093182	-0.3694180666	-0.6851394571	 0.082504
H	 0.4393864161	-0.1948394953	 1.0630378396	 0.082862
H	-1.9946175342	-0.1438306196	 0.7405150273	 0.07782
H	-2.9688547767	 0.1615159055	-1.4055641416	 0.102597
H	-1.3811688537	 0.0278711224	-2.1774350828	 0.091473
H	-2.6908832926	-1.7164018966	-3.6269148545	 0.277434
H	-3.6745511936	-1.8918118018	 0.0973656019	 0.08895
H	-3.0760057864	-3.5084252808	-0.4139642724	 0.100602
H	-0.9715821687	-2.583311549	 0.9556122779	 0.060586
H	-1.0179226398	-3.6773748322	-1.4826089007	 0.099621
H	-0.0511326406	-2.199679502	-1.8004854585	 0.081667
92.5516	158.2081	182.9164	230.3778	272.4005	342.9204	357.1624	411.4495	448.5411	474.8348	537.2816	593.5271	680.1326	819.3095	836.0205	840.1097	904.9745	924.6678	940.2696	983.9272	992.1422	1008.668	1026.8419	1041.4621	1080.1323	1113.431	1124.3656	1136.2804	1152.7703	1196.6252	1208.6942	1232.6204	1238.5803	1251.8863	1267.397	1277.1141	1312.6952	1333.3145	1369.1767	1394.0103	1459.9266	1488.6548	1494.9332	1518.7083	1532.7133	2961.9244	2990.4453	3042.0582	3046.0299	3053.0028	3058.37	3096.8364	3115.3235	3119.8561	3126.236	3806.5716	3829.7722
OCC1CC2(O)CC1C2	OC[C@H]1C[C@]2(O)C[C@H]1C2	
InChI=1S/C7H12O2/c8-4-6-3-7(9)1-5(6)2-7/h5-6,8-9H,1-4H2	InChI=1S/C7H12O2/c8-4-6-3-7(9)1-5(6)2-7/h5-6,8-9H,1-4H2/t5-,6-,7-/m1/s1
