22
gdb 100329	2.13813	1.17975	1.00737	4.6738	82.41	-0.2644	0.0366	0.301	1339.3825	0.191108	-404.364185	-404.353153	-404.352209	-404.400349	39.576	
C	-0.0533768439	 1.5668758895	 0.1519864026	-0.398538
C	-0.1083360093	 0.0455047755	-0.0154581458	-0.206623
C	 0.6789114782	-0.5167685977	-1.2227274306	 0.350508
C	 0.5742033405	-2.0481698943	-1.252172791	-0.443765
C	 0.1250290721	 0.0864726634	-2.5386296185	-0.365186
C	 0.7487918648	-0.4709199028	-3.7365504563	 0.281212
N	 1.2240030375	-0.9169425277	-4.6906580866	-0.321494
O	 2.0340170857	-0.061956446	-1.212564116	-0.273533
C	 2.9071713482	-0.6005063183	-0.2416795378	-0.24823
H	 0.9801958277	 1.9226996571	 0.1392995362	 0.13532
H	-0.5973588573	 2.0904352278	-0.6404863445	 0.118327
H	-0.5058815438	 1.8629979101	 1.1027860871	 0.116114
H	 0.2840370195	-0.4321714644	 0.8896640355	 0.102377
H	-1.1490984264	-0.2912146895	-0.0959369236	 0.099407
H	-0.4619008019	-2.3510799376	-1.4316933548	 0.121016
H	 1.194815693	-2.4651632842	-2.0493708665	 0.151104
H	 0.8826362179	-2.4879647851	-0.3001454865	 0.11977
H	-0.9565038743	-0.0747324275	-2.597470636	 0.143553
H	 0.3010652472	 1.1654519984	-2.5335328601	 0.15921
H	 3.079820022	-1.6750358959	-0.3831086698	 0.117379
H	 3.8588984059	-0.078929058	-0.3674393414	 0.134919
H	 2.5554948568	-0.4343374428	 0.7862960445	 0.107152
69.9377	73.2387	102.7351	138.295	183.2934	216.9054	238.9656	262.0448	288.0444	326.1708	369.0619	392.5805	399.8282	445.2999	520.4094	596.8819	731.6	777.8662	854.5627	900.6168	921.3932	965.4008	1004.3492	1056.6745	1061.3144	1114.6968	1146.7608	1177.4499	1187.0584	1205.693	1238.4712	1277.8015	1319.1875	1338.4889	1373.0259	1410.1461	1413.2827	1455.988	1471.6609	1479.5728	1491.3679	1498.2871	1500.9521	1506.833	1509.6108	1512.2381	2363.3335	2997.1098	3032.2073	3044.4616	3046.4303	3053.5645	3058.8672	3063.7073	3105.6441	3110.7713	3114.2333	3117.7405	3123.1791	3129.4334
CCC(C)(CC#N)OC	CC[C@@](C)(CC#N)OC	
InChI=1S/C7H13NO/c1-4-7(2,9-3)5-6-8/h4-5H2,1-3H3	InChI=1S/C7H13NO/c1-4-7(2,9-3)5-6-8/h4-5H2,1-3H3/t7-/m0/s1
