18
gdb 36291	3.63629	1.07474	1.06247	3.6312	74.71	-0.2606	0.0306	0.2912	1188.8371	0.14973	-401.942715	-401.935143	-401.934199	-401.975495	29.183	
N	 0.0231481604	-1.1879212126	-0.2342311091	-0.303536
C	-0.0263553088	-0.056399359	-0.0050113924	 0.262871
C	-0.0605098303	 1.3790170487	 0.2726078871	-0.393126
C	 1.3120285883	 2.0302031171	 0.0734627712	 0.02711
C	 1.9508618505	 2.2604066537	-1.3204228485	 0.067321
C	 0.8950513101	 3.0505644172	-2.1211526158	-0.225098
C	 0.544622061	 4.0959319307	-1.0137166027	-0.225312
C	 1.5114309656	 3.5678919506	 0.0675688571	 0.042924
O	 2.7272514236	 3.3388702751	-0.7081923297	-0.294506
H	-0.8217691362	 1.8344488149	-0.3679256215	 0.153218
H	-0.3927051482	 1.5245304648	 1.3074742618	 0.156385
H	 2.0529953974	 1.5745160263	 0.732130722	 0.110555
H	 2.5513203797	 1.5069338825	-1.8280764152	 0.095198
H	 1.3420033348	 3.5079497349	-3.0051908481	 0.117922
H	 0.0465242599	 2.4406970276	-2.4432067846	 0.105768
H	 0.8058487626	 5.1162045821	-1.2993352972	 0.117174
H	-0.5050568084	 4.0849333168	-0.7066355392	 0.0996
H	 1.662866768	 4.1501714685	 0.9764312148	 0.085532
47.3987	118.1117	240.5658	271.7775	349.7943	391.1867	471.2537	503.1007	606.0968	717.3526	770.0278	834.2741	846.3047	861.9687	874.1743	914.9326	926.0439	945.8204	1001.5572	1006.4453	1022.6631	1025.9618	1122.2822	1132.6339	1162.2805	1198.4164	1207.6912	1244.6159	1250.2293	1276.2429	1297.3824	1310.3642	1325.1911	1343.2443	1397.9777	1461.2613	1487.0394	1505.0079	2362.1913	3046.4433	3064.3803	3072.9455	3089.9669	3111.038	3113.7019	3125.8233	3129.5286	3139.1573
N#CCC1C2CCC1O2	N#CC[C@H]1[C@H]2CC[C@@H]1O2	
InChI=1S/C7H9NO/c8-4-3-5-6-1-2-7(5)9-6/h5-7H,1-3H2	InChI=1S/C7H9NO/c8-4-3-5-6-1-2-7(5)9-6/h5-7H,1-3H2/t5-,6+,7-
