17
gdb 71444	4.09239	1.42767	1.27467	5.0585	71.62	-0.2263	0.0248	0.2511	1006.2358	0.137499	-417.994224	-417.986904	-417.98596	-418.025655	29.048	
C	 0.0094612143	 1.5461666564	 0.0594756679	-0.505478
C	 0.0054837622	 0.0464222528	 0.0356060391	 0.291458
C	-1.2159799365	-0.8618517802	-0.0130842014	-0.244288
N	-0.4283970289	-1.9807703538	 0.6784712297	-0.201689
C	 0.6363768425	-0.9673111439	 0.9787642724	-0.083794
C	 1.2434747101	-0.790579399	-0.3641926942	-0.065847
N	 1.0867531416	-2.0461759359	-1.0408146306	-0.324852
C	 0.0726861063	-2.7771588166	-0.4469306374	 0.397985
O	-0.3863717135	-3.8217936594	-0.8218703377	-0.361229
H	 1.0039289926	 1.9382242223	 0.2970802516	 0.12419
H	-0.2843215506	 1.9579499918	-0.9129365379	 0.128545
H	-0.6878142199	 1.9332696256	 0.8109935313	 0.127845
H	-2.0135998413	-0.527318477	 0.6546865864	 0.123995
H	-1.644532548	-1.1328784998	-0.9845331507	 0.11916
H	 1.1066571556	-0.9047778406	 1.9524384638	 0.103355
H	 2.1851120779	-0.2694548676	-0.4839326674	 0.11282
H	 1.3231830455	-2.2097567151	-2.0057382249	 0.257824
130.3328	200.8336	231.2253	281.1513	349.0016	395.6921	470.6627	497.1346	573.2518	690.8109	724.0208	769.289	815.7408	840.5511	851.4559	894.0973	918.5144	954.3677	992.05	1015.4003	1044.5247	1059.6229	1111.6311	1127.8163	1158.9615	1189.8318	1215.1007	1245.4289	1292.7047	1328.4823	1376.7474	1417.7425	1440.8673	1486.5283	1497.6942	1511.0725	1869.7531	3024.6504	3040.4067	3086.2225	3096.0221	3102.151	3184.1175	3199.15	3652.2864
CC12CN3C1C2NC3=O	C[C@]12CN3[C@H]1[C@H]2NC3=O	
InChI=1S/C6H8N2O/c1-6-2-8-4(6)3(6)7-5(8)9/h3-4H,2H2,1H3,(H,7,9)	InChI=1S/C6H8N2O/c1-6-2-8-4(6)3(6)7-5(8)9/h3-4H,2H2,1H3,(H,7,9)/t3-,4+,6-/m1/s1
