21
gdb 103811	2.6163	1.11353	0.9366	3.4565	80.54	-0.2465	-0.0261	0.2204	1377.6897	0.178366	-424.238732	-424.228074	-424.22713	-424.274949	37.965	
C	-0.6335201042	 1.4795099346	 0.4544355782	-0.383917
C	 0.1923970727	 0.2933168538	-0.0638457222	-0.258474
C	 0.9520154231	-0.4141457005	 1.045084579	 0.392719
C	 2.0890811161	 0.3557123222	 1.6879716568	-0.457811
O	 0.1399390795	-1.1530086801	 1.9582993787	-0.270007
C	 1.0092032086	-1.9069676512	 1.1213026789	-0.111116
C	 0.3943929409	-2.8115924985	 0.0852797999	 0.370744
C	 1.3359487928	-3.8572224559	-0.4843625398	-0.487567
O	-0.7570505884	-2.7094495612	-0.2706893213	-0.302444
H	-0.0069346955	 2.2707535951	 0.8779244307	 0.112924
H	-1.2153637539	 1.9208870035	-0.3596555697	 0.116794
H	-1.332077396	 1.1468077119	 1.2276379617	 0.138536
H	-0.476607811	-0.4216080276	-0.5454155361	 0.142166
H	 0.9120958069	 0.6369892828	-0.8177641886	 0.092483
H	 1.7255077161	 1.2962909886	 2.112692894	 0.1355
H	 2.5449283731	-0.2242219557	 2.4937728647	 0.127462
H	 2.8592642343	 0.5977988068	 0.9481236858	 0.122902
H	 1.8753090726	-2.333642822	 1.6314804444	 0.08759
H	 2.269459429	-3.3956236112	-0.8261699211	 0.138725
H	 1.6059048936	-4.5815861655	 0.2932612618	 0.146297
H	 0.8517239396	-4.3772201099	-1.311257386	 0.146493
50.4218	66.7491	127.217	135.6136	162.8083	195.0957	213.3591	265.0775	322.9892	349.3474	378.1281	439.1249	497.2468	614.0488	620.5894	698.2373	785.2211	812.9696	895.5425	912.6231	954.5747	990.3939	1005.3726	1014.9823	1058.9087	1080.9038	1121.9795	1126.1303	1199.4488	1246.2312	1307.8014	1334.4514	1376.8046	1387.7992	1406.9507	1410.493	1444.404	1463.2476	1472.9842	1474.2866	1488.1435	1497.0983	1504.9762	1508.1154	1808.7247	3031.0965	3032.9819	3040.3549	3043.3308	3086.2368	3092.8309	3101.5097	3108.6764	3117.8217	3126.4429	3128.9104	3155.8173
CCC1(C)OC1C(C)=O	CC[C@@]1(C)O[C@H]1C(=O)C	
InChI=1S/C7H12O2/c1-4-7(3)6(9-7)5(2)8/h6H,4H2,1-3H3	InChI=1S/C7H12O2/c1-4-7(3)6(9-7)5(2)8/h6H,4H2,1-3H3/t6-,7+/m0/s1
