23
gdb 94321	2.55126	1.30102	1.07299	1.846	86.01	-0.2374	0.0722	0.3096	1265.4457	0.203665	-388.270562	-388.260595	-388.259651	-388.304896	37.794	
C	-0.3507362168	 1.4229648616	 0.0917031984	-0.402422
C	 0.1295047165	-0.0105964772	-0.0266568679	 0.089071
O	 1.3685052764	-0.1130448689	-0.7769484219	-0.299798
C	 2.0494722127	-0.767482849	 0.3140441716	-0.144911
C	 0.8008003357	-0.6709001838	 1.1833886417	 0.253398
C	 0.7024291975	-0.2963284733	 2.6346576358	-0.396981
C	 0.2478889053	-1.6655937799	 2.1666017966	 0.278049
C	-1.2427025485	-1.9475932765	 2.1413158241	-0.455864
C	 1.1057253325	-2.8633605498	 2.5287465626	-0.456707
H	 0.4015198321	 2.0463668177	 0.583617368	 0.120752
H	-0.5473378763	 1.8351447523	-0.9031094254	 0.12559
H	-1.2806709233	 1.4754689361	 0.6691508247	 0.11248
H	-0.6486151881	-0.6324619478	-0.4938559953	 0.070462
H	 2.3705056855	-1.7836526748	 0.0465670539	 0.09659
H	 2.9249251239	-0.1972816636	 0.6525957824	 0.098087
H	 1.6253887964	-0.2250195172	 3.2033460873	 0.106915
H	-0.0550997603	 0.4246058861	 2.9284057596	 0.109049
H	-1.8210750153	-1.0580683215	 1.8734059613	 0.115342
H	-1.4858703838	-2.7333115428	 1.4161431009	 0.116727
H	-1.5909290091	-2.285830634	 3.1241381995	 0.116385
H	 0.8432229448	-3.2443067667	 3.5225930095	 0.116361
H	 0.9658344215	-3.6825337576	 1.8133539731	 0.116542
H	 2.1706293406	-2.6115729393	 2.5418491698	 0.114884
78.382	134.7076	154.0184	208.6345	214.9111	227.0449	253.9839	270.3954	354.1538	396.4629	419.2912	432.8366	519.1302	562.0008	701.5137	791.8172	877.5561	879.6861	904.8155	922.7337	971.5505	980.4626	1020.58	1025.3534	1044.9643	1056.1914	1074.0763	1086.8524	1141.5484	1153.1763	1160.9966	1194.2246	1230.3237	1286.2667	1302.4725	1347.6508	1380.5382	1402.4075	1410.7016	1420.5859	1432.2678	1480.9137	1483.0909	1486.2133	1492.6817	1494.8505	1500.1853	1519.3805	1528.2093	2985.4979	2997.1911	3020.2224	3024.4851	3032.2908	3033.5302	3079.91	3082.7997	3098.5159	3100.534	3102.101	3114.4329	3116.9872	3197.2426
CC1OCC11CC1(C)C	C[C@H]1OC[C@]21CC2(C)C	
InChI=1S/C8H14O/c1-6-8(5-9-6)4-7(8,2)3/h6H,4-5H2,1-3H3	InChI=1S/C8H14O/c1-6-8(5-9-6)4-7(8,2)3/h6H,4-5H2,1-3H3/t6-,8+/m1/s1
