17
gdb 11438	4.03154	1.38419	1.08297	4.7026	65.32	-0.2349	0.0398	0.2747	1065.9848	0.14356	-401.045957	-401.03805	-401.037106	-401.078573	29.012	
O	-0.0873406815	 1.4388502803	 0.0895604529	-0.427826
C	 0.0189238033	 0.029652823	-0.0526091421	-0.083664
C	-1.3892530778	-0.5368616028	 0.0354527395	 0.056121
C	-1.4554564643	-2.0796492814	-0.0559880127	-0.239668
C	-2.6327772617	-2.4617865791	 0.8559899289	-0.33232
C	-2.7535613918	-1.2921570192	 1.8420930466	 0.405077
O	-3.4033827792	-1.2562164751	 2.8633139869	-0.379755
N	-1.9903807909	-0.2767019082	 1.3310056694	-0.30165
H	 0.7979326808	 1.8120792666	 0.1248497536	 0.293429
H	 0.4636968091	-0.2483067512	-1.0214167869	 0.091274
H	 0.6339156239	-0.410011224	 0.7474868039	 0.093795
H	-1.9830412318	-0.0740455354	-0.7679328865	 0.087713
H	-1.5680023745	-2.422321364	-1.0864044213	 0.110358
H	-0.524610184	-2.5046998624	 0.3358464171	 0.110059
H	-3.5765983719	-2.5304714281	 0.3029810659	 0.129789
H	-2.5012129739	-3.4033866366	 1.391409048	 0.129876
H	-2.0046776538	 0.6476563875	 1.7323631469	 0.257391
89.0253	121.2965	135.9505	219.9231	260.9507	403.5708	438.7283	513.504	518.4626	579.4927	637.7939	663.6365	822.6048	866.3031	923.3839	962.2499	988.7279	1048.0346	1083.7027	1091.992	1141.8166	1159.8413	1219.7246	1247.3533	1259.7872	1264.3297	1300.3996	1332.3546	1338.4007	1402.6698	1427.8027	1461.4242	1470.8838	1497.6281	1511.9107	1831.9064	2971.071	2978.5727	3014.458	3046.4135	3052.8847	3108.6599	3122.9087	3646.7801	3836.0623
OCC1CCC(=O)N1	OC[C@H]1CCC(=O)N1	
InChI=1S/C5H9NO2/c7-3-4-1-2-5(8)6-4/h4,7H,1-3H2,(H,6,8)	InChI=1S/C5H9NO2/c7-3-4-1-2-5(8)6-4/h4,7H,1-3H2,(H,6,8)/t4-/m1/s1
