18
gdb 6856	3.43347	1.83057	1.58775	1.8576	69.29	-0.2422	0.0115	0.2537	887.0769	0.153879	-384.946266	-384.938535	-384.937591	-384.977752	30.212	
C	-0.0580019875	 1.5865587045	-0.0137537082	-0.422064
C	 0.0197210244	 0.0641480891	 0.0297863245	 0.331065
O	-1.3345046064	-0.4019045188	 0.0784451768	-0.468695
C	 0.7073502038	-0.4966760115	-1.2224358718	-0.121084
O	 0.8792646974	-1.9010510096	-1.0930212583	-0.261652
C	 1.8325276899	-2.2210150527	-0.095045769	-0.128087
C	 1.604784328	-1.4675593682	 1.1867167598	-0.091676
C	 0.7731850415	-0.4299305258	 1.249640395	-0.091283
H	 0.9411513696	 2.0314237947	-0.0245059059	 0.116966
H	-0.6017154063	 1.9128976586	-0.9054835062	 0.123061
H	-0.5951517015	 1.9562337547	 0.8643927978	 0.126663
H	-1.2839323373	-1.3635388337	 0.0121261507	 0.278513
H	 0.0693675928	-0.3399406416	-2.0963431671	 0.112347
H	 1.6768879439	-0.0011744344	-1.3924434259	 0.086051
H	 1.7519808925	-3.3012386037	 0.072468349	 0.119845
H	 2.8562069275	-2.03155819	-0.4694134185	 0.10204
H	 2.1493824871	-1.8135799089	 2.061802532	 0.097114
H	 0.5835161605	 0.0837708873	 2.1885880453	 0.090877
115.2524	210.3716	231.5521	278.9014	329.8926	341.6073	420.1111	449.4049	491.9704	507.1744	553.6614	714.9267	747.4721	839.294	903.8744	920.8589	928.4364	992.8702	1002.3721	1012.0182	1051.483	1092.6733	1120.1568	1178.6274	1198.6258	1247.0918	1279.6349	1316.5052	1346.2388	1373.1134	1404.1378	1409.5885	1428.354	1478.0784	1482.5861	1489.1868	1497.0415	1714.7635	2932.3999	2977.7686	3041.2169	3056.2883	3095.469	3115.5459	3120.5033	3149.5235	3172.326	3784.0929
CC1(O)COCC=C1	C[C@@]1(O)COCC=C1	
InChI=1S/C6H10O2/c1-6(7)3-2-4-8-5-6/h2-3,7H,4-5H2,1H3	InChI=1S/C6H10O2/c1-6(7)3-2-4-8-5-6/h2-3,7H,4-5H2,1H3/t6-/m0/s1
