21
gdb 93681	2.91091	1.19069	1.1175	2.0969	80.24	-0.252	-0.0012	0.2508	1210.0002	0.182076	-424.241874	-424.232537	-424.231592	-424.27537	36.485	
C	-0.0403325359	 1.5661398139	 0.0187395064	-0.428077
C	 0.0136251321	 0.0334755313	 0.0021062882	 0.345299
O	-1.3306134596	-0.4862263061	-0.0261477744	-0.466054
C	 0.6786821666	-0.4873072208	-1.2794735736	-0.224428
C	 0.9893311467	-1.9829858032	-1.1756958925	-0.236289
C	 1.9552129208	-2.2815931492	-0.0218432278	 0.097048
O	 3.325163157	-2.033681595	-0.3652541867	-0.439087
C	 1.5856421719	-1.5151436318	 1.2234782226	-0.113941
C	 0.7411502332	-0.4837877467	 1.2283042583	-0.095778
H	 0.9639925827	 2.0026241419	 0.0184053073	 0.113621
H	-0.5834752415	 1.9311193169	-0.8577372694	 0.123314
H	-0.5609364287	 1.9241621893	 0.9146985071	 0.102732
H	-1.7131652694	-0.3666480584	 0.8496761925	 0.274946
H	 0.0087771994	-0.2863931116	-2.1212236367	 0.106232
H	 1.598709181	 0.0826187791	-1.4598772136	 0.083597
H	 0.0518258698	-2.521812882	-1.0019560884	 0.114336
H	 1.4277053545	-2.3607046979	-2.1040302162	 0.098138
H	 1.9297128191	-3.355922641	 0.1944953122	 0.088062
H	 3.4541849324	-1.0793605751	-0.3615545507	 0.277134
H	 2.0855604791	-1.8178460379	 2.1406809116	 0.096102
H	 0.5320074887	 0.0386062141	 2.1620565538	 0.083092
74.162	182.2288	192.1968	237.9668	251.371	285.0012	305.3876	337.06	389.5236	414.9186	433.1315	502.8721	533.3335	615.8201	704.3933	737.745	793.0404	835.7267	911.9326	917.2588	940.894	988.6814	1006.0721	1015.3056	1033.4625	1093.988	1121.5686	1138.1807	1144.9319	1209.2854	1224.1254	1265.5245	1270.9477	1341.5937	1364.7395	1387.0345	1392.6388	1400.8459	1411.7036	1430.8108	1472.7404	1481.7857	1490.7326	1491.6008	1711.4451	3025.4403	3032.3523	3038.5126	3053.4862	3083.2601	3093.2132	3098.7005	3114.7363	3119.6513	3159.9908	3807.6721	3809.3391
CC1(O)CCC(O)C=C1	C[C@@]1(O)CC[C@@H](O)C=C1	
InChI=1S/C7H12O2/c1-7(9)4-2-6(8)3-5-7/h2,4,6,8-9H,3,5H2,1H3	InChI=1S/C7H12O2/c1-7(9)4-2-6(8)3-5-7/h2,4,6,8-9H,3,5H2,1H3/t6-,7-/m0/s1
