18
gdb 30709	2.87425	1.26075	0.91934	2.396	76.28	-0.1929	0.0201	0.2131	1256.6443	0.147341	-439.106714	-439.097241	-439.096296	-439.141095	34.585	
C	 0.1271846979	 1.5139195091	 0.0057170524	-0.526152
C	 0.0520075532	 0.0186432105	-0.0145019299	 0.130171
C	-0.0179545011	-0.8027587839	-1.1038567619	 0.224035
C	-0.0247422249	-0.540968795	-2.575627588	-0.173386
O	 1.0021120831	 0.3548873821	-2.9925188695	-0.40796
O	-0.0861155658	-2.1052472826	-0.7179462893	-0.186283
C	-0.0639752069	-2.1224809686	 0.6501533225	-0.111404
C	 0.0194207277	-0.8506863111	 1.1341391205	 0.139477
N	-0.0108361196	-0.4117744595	 2.4650583218	-0.605364
H	 0.9736392883	 1.8681651161	 0.6090394028	 0.113474
H	 0.2620291214	 1.9058853409	-1.0042318497	 0.149634
H	-0.7776887248	 1.958159067	 0.4375488647	 0.132562
H	 0.035012679	-1.5088596489	-3.0944588532	 0.110465
H	-0.9584905643	-0.0607499869	-2.8900362686	 0.123528
H	 1.8322583255	 0.0217503911	-2.6350472628	 0.281366
H	-0.1212072303	-3.0924784184	 1.1144511371	 0.11912
H	 0.254081167	-1.1290635458	 3.1273721393	 0.243031
H	 0.5598113645	 0.4103367041	 2.6170927818	 0.243686
57.5057	124.3075	146.4469	202.3727	214.739	249.6111	260.1767	326.6864	370.5706	416.3789	477.0279	591.4166	625.7727	665.3921	685.5651	708.7275	747.4054	785.345	931.4106	966.2541	1047.6677	1065.375	1098.0634	1131.302	1157.1025	1180.5484	1225.3897	1284.4118	1318.1945	1376.6808	1412.7365	1425.2596	1458.3987	1491.766	1497.6457	1502.553	1597.2471	1651.2341	1688.6336	3003.3209	3014.8021	3057.1219	3060.6266	3131.4748	3277.7676	3534.47	3625.0993	3807.3372
CC1=C(CO)OC=C1N	Cc1c(CO)occ1N	
InChI=1S/C6H9NO2/c1-4-5(7)3-9-6(4)2-8/h3,8H,2,7H2,1H3	InChI=1S/C6H9NO2/c1-4-5(7)3-9-6(4)2-8/h3,8H,2,7H2,1H3
