21
gdb 88833	3.10841	1.06189	0.87929	2.4324	79.44	-0.2495	0.0703	0.3197	1379.4264	0.181275	-424.192419	-424.182951	-424.182007	-424.227198	35.181	
C	 0.0109760839	 1.5193382923	-0.2577796412	-0.420814
C	-0.0282264907	 0.0377907787	 0.0232032896	 0.074192
O	 1.2067407555	-0.6812471008	-0.0342306811	-0.270837
C	 0.5208514897	-0.6119979134	 1.227361465	 0.042543
C	 1.1980490004	 0.1265661953	 2.3445991184	-0.003566
C	 0.3429704487	 0.6246115355	 3.548246438	-0.239892
C	 1.5102963522	 0.2239667317	 4.4894963523	-0.247146
C	 2.0654511487	-0.6826100099	 3.3553457719	 0.10797
O	 1.581020392	-2.0120648979	 3.4218154287	-0.432132
H	 0.8266923979	 2.0152099258	 0.2718177623	 0.124382
H	 0.1482405154	 1.6959023593	-1.3299159223	 0.127869
H	-0.9340302537	 1.9878118874	 0.0386971711	 0.119708
H	-0.8533540174	-0.4831719073	-0.4690527776	 0.08251
H	 0.0716717378	-1.5566694518	 1.5315482509	 0.102252
H	 1.8016548887	 0.9422189681	 1.9402221899	 0.079513
H	 0.0277989307	 1.670157083	 3.5396201457	 0.097944
H	-0.5355582259	-0.0070353834	 3.7028990273	 0.111051
H	 2.1783339978	 1.0637528315	 4.7018530071	 0.101388
H	 1.2600863041	-0.2773161459	 5.4283817327	 0.0924
H	 3.1504354828	-0.6692072434	 3.1893207268	 0.065449
H	 1.9902796913	-2.4401072848	 4.1802180445	 0.285215
47.3551	107.4036	125.0471	176.5001	209.3625	241.7523	281.8353	373.056	387.8463	435.5067	492.4639	547.1792	699.211	765.5374	783.6738	852.313	884.5971	896.2404	938.0666	959.6347	965.6668	1002.5243	1029.9128	1076.4114	1095.4672	1124.6879	1147.0088	1175.6936	1187.0384	1204.2269	1224.1898	1256.2774	1258.4826	1283.907	1293.381	1309.112	1336.1159	1403.8638	1412.573	1421.0181	1466.5785	1471.9301	1487.7104	1491.6598	1512.1998	3011.1381	3037.6696	3053.4467	3065.8243	3072.6252	3083.94	3097.058	3103.5516	3121.8704	3125.747	3135.2864	3820.0325
CC1OC1C1CCC1O	C[C@H]1O[C@H]1[C@H]1CC[C@H]1O	
InChI=1S/C7H12O2/c1-4-7(9-4)5-2-3-6(5)8/h4-8H,2-3H2,1H3	InChI=1S/C7H12O2/c1-4-7(9-4)5-2-3-6(5)8/h4-8H,2-3H2,1H3/t4-,5+,6-,7-/m1/s1
