19
gdb 120808	4.81391	0.63342	0.5938	5.3813	77.52	-0.2512	0.0259	0.2771	1823.1692	0.15804	-419.174034	-419.164127	-419.163182	-419.210221	34.577	
O	-0.7715642326	 1.3782809498	 1.4711464502	-0.419363
C	-0.857374098	-0.0360976927	 1.438912526	-0.078053
C	-1.1914847527	-0.4409626929	 0.005174107	-0.203882
C	-1.2623130072	-1.9462782281	-0.1439023279	 0.007838
C	-2.5461346907	-2.6904016803	 0.020093633	-0.250367
N	-1.8895282875	-2.6248719722	-1.2838326333	-0.093962
C	-2.5273117051	-1.8257483663	-2.322253979	-0.290125
C	-3.4419557789	-2.6592003197	-3.112166342	 0.283233
N	-4.1768176785	-3.2978773163	-3.733136771	-0.299968
H	-0.5604119067	 1.648863112	 2.3694210963	 0.289808
H	 0.0926867753	-0.5038397914	 1.7445652896	 0.09143
H	-1.6388001442	-0.4097755286	 2.1194999137	 0.094275
H	-2.1362356913	 0.0386221295	-0.268555455	 0.110747
H	-0.4184305168	-0.0294808538	-0.6555392149	 0.117226
H	-0.350390081	-2.4558470868	 0.1666332018	 0.101223
H	-2.5778794736	-3.6721620836	 0.483257884	 0.128155
H	-3.4446337908	-2.0910035242	 0.165540051	 0.116194
H	-3.1031825641	-0.9626416957	-1.9523230895	 0.137195
H	-1.7533451657	-1.4328752887	-2.99181072	 0.158395
43.0226	78.262	85.7137	105.7044	173.4421	249.413	262.7015	305.3029	381.379	391.2545	460.253	485.3193	575.7068	765.917	805.0419	888.293	916.2833	938.5958	980.648	1000.9398	1022.1417	1070.4166	1082.6416	1119.5346	1136.419	1163.6434	1178.2402	1231.0352	1246.3963	1270.722	1310.5149	1329.3993	1338.9662	1375.8703	1426.9843	1462.1886	1471.8695	1492.0898	1511.697	1528.2019	2368.809	2965.4027	2980.3309	2993.6102	3036.7968	3062.4407	3085.3569	3090.6698	3109.4949	3184.6879	3831.9406
OCCC1CN1CC#N	OCC[C@H]1CN1CC#N	
InChI=1S/C6H10N2O/c7-2-3-8-5-6(8)1-4-9/h6,9H,1,3-5H2	InChI=1S/C6H10N2O/c7-2-3-8-5-6(8)1-4-9/h6,9H,1,3-5H2/t6-,8?/m0/s1
