16
gdb 132730	2.38425	1.78488	1.03378	2.794	73.36	-0.2607	-0.0339	0.2268	1095.1642	0.124081	-442.110148	-442.101911	-442.100967	-442.143282	29.854	
C	 0.0849351479	 1.4939778087	 0.0595259573	-0.484939
C	 0.0244107234	-0.0071033033	-0.0017660418	 0.26883
C	-0.0198900002	-0.6808974208	-1.2307534668	 0.064681
C	-0.0110612931	 0.0196979979	-2.5617119474	-0.513078
C	-0.073364879	-2.0688456228	-1.1178116258	 0.305911
F	-0.1182093392	-2.7997093369	-2.2283090387	-0.063895
N	-0.0839512228	-2.7409936067	 0.011239797	-0.309927
C	-0.0383952227	-1.9891989657	 1.1129814072	 0.060347
N	 0.0150583017	-0.6634329121	 1.1699405077	-0.304569
H	 0.9731469069	 1.8756033543	-0.4569838489	 0.13798
H	-0.7843919545	 1.9454705466	-0.4321723113	 0.137972
H	 0.1124401139	 1.8160217035	 1.1004441874	 0.149302
H	 0.8924986037	 0.6270348495	-2.685689524	 0.139361
H	-0.051272216	-0.7003718905	-3.3792002088	 0.147417
H	-0.8668291597	 0.6968390532	-2.6605937157	 0.139363
H	-0.0460277601	-2.5216331551	 2.0605103226	 0.125243
87.8793	122.9964	128.8828	234.8412	288.1544	290.2005	328.1885	510.3105	526.2816	529.6891	559.5031	635.9677	698.8899	805.1254	871.1527	931.1565	985.6514	992.5728	1041.2915	1076.6841	1116.5881	1178.8793	1272.5162	1308.0393	1332.9806	1402.0553	1415.4883	1440.9841	1459.7151	1480.292	1482.6442	1494.9304	1496.4682	1591.9247	1635.6871	3033.9957	3035.0011	3082.7482	3085.9536	3148.4382	3153.9202	3170.6726
CC1=C(C)C(F)=NC=N1	Cc1c(C)c(F)ncn1	
InChI=1S/C6H7FN2/c1-4-5(2)8-3-9-6(4)7/h3H,1-2H3	InChI=1S/C6H7FN2/c1-4-5(2)8-3-9-6(4)7/h3H,1-2H3
