18
gdb 42413	4.42518	0.79385	0.74094	3.2721	81.67	-0.2457	-0.0404	0.2053	1540.653	0.148526	-398.134076	-398.125019	-398.124075	-398.169434	32.61	
N	-0.1337072059	 1.4792346307	-0.0950753975	-0.525887
C	 0.0173752884	 0.2146109927	 0.044430268	 0.301239
N	-1.0250155444	-0.6650661321	 0.0910184746	-0.333092
C	-2.3992357591	-0.2650621737	-0.0887719603	 0.090855
C	-3.0945552499	-0.4366387239	-1.4722556134	-0.234116
C	-4.377953443	-0.8600612813	-0.7069310588	-0.211142
C	-3.4933475799	-1.1658636637	 0.5338164347	-0.252525
C	 1.3215764784	-0.4189371446	 0.1885083516	 0.218579
N	 2.3739842277	-0.8870662077	 0.2914881953	-0.321444
H	 0.760203863	 1.9611611544	-0.0578611954	 0.239778
H	-0.8071659871	-1.6479119972	 0.0592301151	 0.257928
H	-2.4808697936	 0.7674407736	 0.2536649388	 0.128866
H	-3.1373759922	 0.4358389693	-2.1266871104	 0.114156
H	-2.6614046613	-1.2758335876	-2.0256979288	 0.098749
H	-5.0446313711	-0.0122845177	-0.5292616456	 0.113267
H	-4.9635368207	-1.6827632244	-1.1200990157	 0.105715
H	-3.1793438074	-2.2158387207	 0.5459078711	 0.098367
H	-3.8648906519	-0.9024044561	 1.5262858266	 0.110708
28.0055	64.1623	100.6379	170.6883	237.8825	304.1445	372.0017	396.3434	408.8331	477.2329	599.8512	667.5823	723.6521	781.1027	788.5428	813.0578	900.1025	910.8408	926.7573	949.831	982.2127	1046.6328	1102.5623	1159.1401	1185.8839	1198.5529	1235.7604	1249.056	1257.2052	1273.1042	1291.7645	1316.9788	1401.3931	1475.3909	1487.4027	1509.5907	1552.3599	1681.0632	2346.6138	3043.543	3056.5862	3070.1312	3103.1715	3115.1937	3119.3011	3132.7131	3537.9924	3642.7512
N=C(NC1CCC1)C#N	N=C(NC1CCC1)C#N	
InChI=1S/C6H9N3/c7-4-6(8)9-5-2-1-3-5/h5H,1-3H2,(H2,8,9)	InChI=1S/C6H9N3/c7-4-6(8)9-5-2-1-3-5/h5H,1-3H2,(H2,8,9)
