20
gdb 122244	2.74499	0.8857	0.74537	5.528	81.44	-0.2378	0.0254	0.2632	1593.0645	0.17063	-399.302303	-399.292389	-399.291444	-399.338028	35.395	
C	-0.0078234947	 1.506560114	 0.2529447449	-0.391626
C	-0.0042940099	 0.0121941814	-0.0526071345	-0.100768
N	-1.3425255606	-0.5513786306	 0.0897472018	-0.277707
C	-1.4203976904	-1.9749663366	-0.1705013216	-0.213523
C	-2.8503600606	-2.4742313297	-0.0511193673	 0.123541
C	-3.0992671334	-3.8901511596	 0.3527237472	-0.266144
N	-3.400570784	-2.8022620349	 1.2861691556	-0.324568
C	-3.7992267131	-1.8377209246	-0.9453489586	 0.30059
N	-4.5470426458	-1.3642266228	-1.6881717901	-0.339331
H	 0.9888712656	 1.9332664756	 0.1088486872	 0.118922
H	-0.7123683764	 2.0301363594	-0.398817337	 0.137536
H	-0.3022551692	 1.6960964504	 1.2917328769	 0.113628
H	 0.3166418868	-0.153697826	-1.0891880485	 0.10992
H	 0.7411336449	-0.4981918977	 0.5871334422	 0.076281
H	-1.7108220661	-0.3414045937	 1.0126132338	 0.217669
H	-1.058854042	-2.155193877	-1.190943176	 0.127422
H	-0.7901835521	-2.5947637015	 0.4994463211	 0.075597
H	-3.9672298349	-4.4091926728	-0.0401774822	 0.147035
H	-2.2248117588	-4.5123457663	 0.5243727162	 0.126446
H	-2.6568876651	-2.7182589071	 1.9767268388	 0.239081
50.9001	78.6109	106.0779	140.4143	186.6988	237.088	258.4609	293.8245	331.2396	391.9839	466.8493	574.4327	595.2378	710.2837	752.1918	815.6614	842.0184	894.8704	925.9612	941.1979	981.0396	1024.6327	1046.6372	1080.945	1140.3123	1144.2881	1166.9406	1175.479	1249.4108	1255.7621	1305.8516	1311.5505	1354.6592	1376.2763	1405.8592	1425.8389	1484.2145	1496.2325	1499.4708	1505.3599	1510.6071	1524.883	2362.9594	2893.0332	2916.8579	3032.0988	3038.0732	3042.1245	3102.7392	3117.4439	3125.2968	3211.5734	3486.8654	3508.4022
CCNCC1(CN1)C#N	CCNC[C@]1(CN1)C#N	
InChI=1S/C6H11N3/c1-2-8-4-6(3-7)5-9-6/h8-9H,2,4-5H2,1H3	InChI=1S/C6H11N3/c1-2-8-4-6(3-7)5-9-6/h8-9H,2,4-5H2,1H3/t6-/m0/s1
