18
gdb 96775	2.47363	1.59457	1.10836	1.7276	80.89	-0.2389	0.0021	0.241	1130.4495	0.147941	-398.052254	-398.043944	-398.043	-398.085203	31.141	
C	 0.0015274811	 1.3814909737	 0.0262003718	-0.341209
N	-0.0182508776	-0.0680893469	-0.1095962143	-0.335039
C	-1.1180705096	-0.668431834	-0.1012568837	 0.32881
N	-2.4963821762	-0.2108195411	 0.1111207684	-0.191841
C	-3.296312863	-0.7715978773	-1.0167607101	-0.246913
C	-2.9219508257	-1.6865105085	 0.0729516644	-0.116641
C	-1.4801354034	-2.1226272115	-0.0965774786	 0.290837
C	-0.8297223249	-3.2638291663	-0.781439535	-0.30176
N	-0.8057739249	-3.1480559489	 0.6859309809	-0.37028
H	 0.671997427	 1.6512314789	 0.8491930873	 0.128997
H	 0.4261733037	 1.8184819783	-0.8846467569	 0.128452
H	-0.9858090619	 1.8212626766	 0.2073574107	 0.13466
H	-4.3079083519	-0.3786289381	-1.0391252941	 0.134479
H	-2.822157684	-0.8740474264	-1.9899346781	 0.127884
H	-3.6127315528	-2.0792784539	 0.8085180034	 0.123419
H	-1.4357083584	-4.0801634025	-1.1645412832	 0.1251
H	 0.0779264212	-3.0509722139	-1.3399324164	 0.131477
H	 0.0937086312	-2.7842459081	 0.9960992036	 0.249569
115.1849	138.0037	149.2983	169.8247	273.6365	280.5086	307.7286	473.7881	519.7974	612.2684	668.3637	729.2719	754.3031	822.1379	872.3208	914.3429	954.3265	984.4884	991.3564	1032.0319	1040.338	1055.1094	1084.4999	1117.723	1128.2151	1132.894	1147.1666	1176.9253	1222.1558	1270.9325	1291.099	1310.3226	1433.644	1435.6231	1489.7969	1495.0098	1498.3389	1508.9589	1826.5619	3018.5371	3084.0839	3093.6922	3108.6457	3111.2301	3198.2784	3200.1408	3208.2332	3487.6484
CN=C1N2CC2C11CN1	CN=C1N2C[C@H]2[C@]21CN2	
InChI=1S/C6H9N3/c1-7-5-6(3-8-6)4-2-9(4)5/h4,8H,2-3H2,1H3	InChI=1S/C6H9N3/c1-7-5-6(3-8-6)4-2-9(4)5/h4,8H,2-3H2,1H3/t4-,6-,9?/m0/s1
