20
gdb 88090	3.18496	1.30207	1.20261	2.0491	78.45	-0.2278	0.0698	0.2977	1119.5627	0.172212	-403.110562	-403.102615	-403.10167	-403.142723	32.05	
O	 0.0675095854	 1.3704412704	 0.2426881439	-0.41748
C	-0.0008444804	-0.0152334513	 0.0511618324	 0.034437
C	-0.4070382716	-0.8301175066	 1.2456064365	-0.35581
C	-1.340827544	-0.6979683615	 0.0624481547	 0.336696
C	-2.660265009	 0.0677330214	 0.1653188121	-0.311329
C	-3.7170797946	-1.0361670226	-0.0692536727	-0.228417
C	-2.978859308	-2.0848527342	-0.8891481898	-0.01328
C	-2.174297503	-1.624027813	-2.0488815494	-0.256199
N	-1.5181198131	-1.8944239131	-0.7544115615	-0.134378
H	-0.1472791328	 1.7965690434	-0.5938353926	 0.285144
H	 0.7633233072	-0.4373503197	-0.600978122	 0.091056
H	 0.0836450833	-1.7847316598	 1.3949819781	 0.119981
H	-0.6591194615	-0.2797084631	 2.1457385351	 0.118198
H	-2.7826501037	 0.5722342179	 1.124792002	 0.114145
H	-2.7294743055	 0.8426072827	-0.6065968757	 0.094204
H	-4.0256174505	-1.479852755	 0.8834523236	 0.110125
H	-4.6193210625	-0.6630117199	-0.5634291645	 0.103536
H	-3.3360936918	-3.110339573	-0.8585694401	 0.089287
H	-1.9133715844	-2.323335222	-2.8375509791	 0.114602
H	-2.2769676695	-0.5930750911	-2.378892361	 0.105484
111.7045	157.2865	211.7099	290.4785	308.2415	374.2947	399.652	454.2147	491.6601	594.5834	649.3899	712.4658	792.4133	828.9594	848.1249	857.0361	913.3933	932.0545	952.5236	961.0515	1003.5608	1027.3939	1034.2683	1071.5362	1102.2616	1106.547	1118.9077	1150.98	1166.1713	1190.0167	1208.5545	1218.7547	1276.3607	1295.8104	1302.807	1322.8336	1345.9102	1384.4659	1420.6551	1484.5028	1490.7486	1494.7252	1520.1918	3038.7476	3046.1884	3087.133	3104.9718	3108.8872	3114.9593	3136.6175	3146.5618	3192.8379	3232.7323	3803.7034
OC1CC11CCC2CN12	O[C@H]1C[C@]21CC[C@H]1CN21	
InChI=1S/C7H11NO/c9-6-3-7(6)2-1-5-4-8(5)7/h5-6,9H,1-4H2	InChI=1S/C7H11NO/c9-6-3-7(6)2-1-5-4-8(5)7/h5-6,9H,1-4H2/t5-,6-,7-,8?/m0/s1
