23
gdb 123059	6.0323	0.50506	0.48755	1.0635	83.37	-0.2417	0.0804	0.3221	2268.4321	0.204886	-425.40564	-425.395143	-425.394198	-425.442821	36.764	
O	-0.0711510731	 1.4323070621	-0.1633266348	-0.422379
C	 0.0114172539	 0.0153968587	-0.1049223494	-0.074189
C	-1.4031239798	-0.5357248319	 0.0133106325	-0.167562
C	-1.4433364239	-2.0645266792	 0.0841542169	-0.183612
C	-2.8658947128	-2.6236440873	 0.1996664399	-0.203302
C	-2.8975715801	-4.1410487162	 0.2207149343	 0.162953
C	-4.2587570693	-4.8525602619	 0.0474329093	-0.300611
C	-3.5955878085	-5.5134009566	-1.1768130837	-0.056745
O	-2.4001165881	-4.7240156003	-1.0128433484	-0.293833
H	 0.8208970186	 1.7816226753	-0.2447313799	 0.284086
H	 0.4942570654	-0.3933803858	-1.0077682371	 0.084952
H	 0.6118504985	-0.3126879003	 0.7598874782	 0.081638
H	-1.8713477227	-0.1010949046	 0.9054688093	 0.100899
H	-1.9852034819	-0.1819613618	-0.8466639407	 0.104358
H	-0.9736776127	-2.4944291233	-0.8088435673	 0.1182
H	-0.849014338	-2.4096833263	 0.9418366759	 0.090289
H	-3.346302243	-2.2526197945	 1.1160074681	 0.0935
H	-3.4731318324	-2.2705001059	-0.6440295292	 0.09543
H	-2.3157379821	-4.5164591781	 1.076378956	 0.06771
H	-4.5618706936	-5.5212917698	 0.8542220193	 0.108052
H	-5.0841226508	-4.1777376861	-0.1901770124	 0.108552
H	-3.3929581394	-6.5872220134	-1.0708334544	 0.098659
H	-4.0725458641	-5.339977433	-2.1486191624	 0.102954
47.1313	67.1854	80.444	96.8596	137.7829	149.4193	221.7675	265.0784	282.202	393.6188	457.5183	503.4626	735.3979	748.2471	793.2725	821.5178	878.5341	905.6559	961.0024	978.6128	1003.7421	1018.8722	1028.8154	1063.0826	1071.9651	1102.2637	1112.0967	1162.9517	1178.5251	1206.0201	1214.3603	1231.7103	1256.199	1271.794	1285.778	1299.8805	1318.2976	1331.6153	1340.0187	1368.4678	1394.3209	1410.5612	1462.7449	1472.5362	1490.157	1490.6563	1505.6618	1529.1722	1533.0916	2957.2465	2982.1492	2982.7596	3007.8173	3011.4619	3012.4911	3027.783	3046.3176	3052.6461	3058.6896	3074.5198	3079.69	3130.8193	3829.9811
OCCCCC1CCO1	OCCCC[C@H]1CCO1	
InChI=1S/C7H14O2/c8-5-2-1-3-7-4-6-9-7/h7-8H,1-6H2	InChI=1S/C7H14O2/c8-5-2-1-3-7-4-6-9-7/h7-8H,1-6H2/t7-/m0/s1
