16
gdb 45503	4.40683	1.34505	1.08407	2.3209	73.07	-0.244	0.0031	0.2471	1072.6969	0.128147	-434.102679	-434.095873	-434.094929	-434.13391	27.031	
N	-0.1178877539	 1.2757888537	 0.3017709094	-0.572383
C	-0.0099517852	 0.0474822679	 0.0500305007	 0.456547
N	-1.1022049568	-0.8022493831	-0.2018248921	-0.421
C	-0.6258639756	-2.0042888765	-0.6564723318	 0.413321
N	-1.060450702	-2.9083510674	-1.4332256287	-0.314845
C	 0.1209411829	-3.7710019403	-1.7013316562	-0.167714
C	 1.3841069758	-2.9090861156	-1.3530526688	-0.268428
C	 0.8095072188	-2.0658614844	-0.2180890296	 0.035231
O	 1.1538957185	-0.6788778334	-0.0483346722	-0.264055
H	 0.7976161741	 1.6966695423	 0.4424285931	 0.234712
H	-1.9860301806	-0.3965846841	-0.4663828205	 0.281803
H	 0.0793353857	-4.6804039596	-1.0873155817	 0.11395
H	 0.1086663123	-4.0880233447	-2.7472034034	 0.120102
H	 2.2578680474	-3.5020526841	-1.0769871199	 0.111885
H	 1.6422486052	-2.2661585766	-2.2001457751	 0.126626
H	 0.9243432733	-2.5635613441	 0.7543221569	 0.114249
118.9792	178.02	284.206	337.2786	423.0779	496.0277	561.7838	602.3531	656.776	714.1285	722.077	767.8239	809.7954	850.3987	865.3907	914.9986	932.8495	978.6963	998.7786	1060.3758	1084.4673	1108.4008	1175.0492	1201.9066	1252.8855	1281.0329	1309.396	1336.8981	1346.6181	1374.8561	1407.1982	1487.5985	1506.4029	1773.0682	1811.8398	3017.9165	3024.0189	3066.393	3094.0339	3128.9367	3534.3504	3653.1034
N=C1NC2=NCCC2O1	[NH][C]1N[C]2[N]CC[C@H]2O1	
InChI=1S/C5H7N3O/c6-5-8-4-3(9-5)1-2-7-4/h3H,1-2H2,(H2,6,7,8)	InChI=1S/C5H7N3O/c6-5-8-4-3(9-5)1-2-7-4/h3H,1-2H2,(H2,6,7,8)/t3-/m1/s1
