15
gdb 129270	5.48827	1.01149	0.9138	3.2313	69.74	-0.2461	-0.0106	0.2356	1249.6764	0.112933	-453.923442	-453.915907	-453.914963	-453.956599	27.811	
N	-0.2198421366	 1.236557656	-0.2124135157	-0.578764
C	-0.0244660231	 0.0103421469	-0.0465230977	 0.501285
O	 1.1254534023	-0.6637930852	 0.239535202	-0.243082
N	 0.8241082846	-2.053340547	 0.3484912585	-0.204427
C	-0.4338978967	-2.1232869436	 0.1071780823	 0.452068
O	-1.0272833684	-0.9261930888	-0.1365410749	-0.209151
C	-1.2603360287	-3.329205173	 0.0441848589	-0.136067
C	-0.8980678444	-4.4263809306	-0.951227756	-0.250878
C	-0.6915056181	-4.6489997587	 0.5136645732	-0.260208
H	 0.6450320925	 1.759919545	-0.1027949898	 0.244916
H	-2.3139033964	-3.1335002223	 0.202893514	 0.124285
H	-1.7215193202	-4.9248992899	-1.4492085172	 0.13219
H	-0.0232077046	-4.2544085514	-1.5668571993	 0.142466
H	 0.323567486	-4.6336189684	 0.8920105195	 0.155139
H	-1.3685101682	-5.3102903292	 1.0413457224	 0.130229
32.8963	133.1697	169.8587	222.5516	343.9646	395.8292	505.5756	639.5237	698.8607	740.7116	760.6483	782.7054	796.0462	829.8663	897.2095	910.0505	920.8461	943.5074	998.0431	1042.3854	1070.321	1096.8592	1115.6996	1124.9576	1204.6058	1221.1075	1243.8382	1293.9166	1456.7808	1466.1858	1501.6295	1686.7299	1814.6641	3145.6018	3149.6889	3188.8654	3232.2974	3246.6684	3547.1372	32.897	133.1699	169.8587	222.5518	343.9646	395.8291	505.5756	639.5237	698.8606	740.7119	760.6485	782.7053	796.0462	829.8664	897.2094	910.0502	920.8459	943.5072	998.0429	1042.3853	1070.321	1096.8591	1115.6994	1124.9576	1204.6056	1221.1074	1243.838	1293.9165	1456.7807	1466.1856	1501.6294	1686.7295	1814.6645	3145.6018	3149.689	3188.8654	3232.2974	3246.6684	3547.1376
N=C1ON=C(O1)C1CC1	[NH][C@@H]1ON=C(O1)C1CC1	
InChI=1S/C5H6N2O2/c6-5-8-4(7-9-5)3-1-2-3/h3,6H,1-2H2	InChI=1S/C5H7N2O2/c6-5-8-4(7-9-5)3-1-2-3/h3,5-6H,1-2H2/t5-/m0/s1
