15
gdb 8047	3.59111	1.87932	1.53903	4.8821	66.1	-0.2604	0.0172	0.2776	848.3085	0.118193	-362.614062	-362.606917	-362.605973	-362.645275	26.975	
C	-0.0032086248	 1.4684540561	 0.0741154318	-0.513407
C	-0.0126835195	-0.0186513733	-0.0624487988	 0.405372
C	 0.6235041481	-0.9527191323	-1.1282970277	-0.268066
C	 0.0940533475	-1.8130531931	 0.0379214203	 0.052084
O	 0.654091792	-0.8358079217	 0.9868975499	-0.327233
C	-1.2351095421	-1.0045144161	 0.0127502864	-0.200921
C	-2.0384959548	-0.9763499732	 1.2209783789	 0.278802
N	-2.7129260946	-0.9429779251	 2.1590432118	-0.323595
H	 1.0263054803	 1.8367104032	 0.1026566211	 0.14412
H	-0.5158527061	 1.9307533418	-0.7748336755	 0.134297
H	-0.5095827822	 1.7688776418	 0.9957859026	 0.156363
H	 0.1413625826	-1.0354101677	-2.1055831786	 0.103748
H	 1.7098838294	-0.892681157	-1.1871131376	 0.121293
H	 0.2316857713	-2.8704923307	 0.2560926793	 0.117594
H	-1.8564529772	-1.0921201428	-0.8819745541	 0.119549
126.4867	163.7158	199.1061	304.0112	312.0735	425.2665	493.0914	529.592	650.2735	656.7801	737.6953	763.2889	873.3687	903.9155	916.3461	963.6376	1026.2969	1034.5266	1073.6849	1101.4499	1123.4965	1156.5036	1199.7744	1225.8631	1239.9954	1324.938	1370.9229	1416.5653	1475.8759	1486.9733	1495.5337	2360.1442	3044.8515	3067.4898	3088.4359	3121.0866	3124.9732	3143.4333	3159.3727
CC12CC(O1)C2C#N	C[C@@]12C[C@@H](O1)[C@H]2C#N	
InChI=1S/C6H7NO/c1-6-2-5(8-6)4(6)3-7/h4-5H,2H2,1H3	InChI=1S/C6H7NO/c1-6-2-5(8-6)4(6)3-7/h4-5H,2H2,1H3/t4-,5-,6+/m1/s1
