17
gdb 77428	1.84748	1.66836	1.65961	0.5117	68.16	-0.2016	0.0651	0.2668	995.2258	0.13327	-458.863779	-458.85509	-458.854146	-458.89638	33.801	
O	 0.0213733646	 1.4321829301	-0.2125849577	-0.419774
C	-0.0974623065	 0.0515621234	 0.0232848197	-0.034801
C	-0.4476874287	-0.6811176151	 1.2834027356	 0.263827
O	 0.4804730498	-1.5447445555	 1.8302087443	-0.449794
C	-1.6289223642	-0.1071158586	 2.111468458	-0.136736
C	-2.2549466817	 1.1605687817	 1.5768438064	-0.305638
C	-2.5303732034	-0.1564782345	 0.8960590227	-0.116702
C	-1.373462066	-0.7317273284	 0.0280106102	 0.253964
O	-1.6213095475	-1.7534526602	-0.870689383	-0.454037
H	 0.8213176816	 1.7349104771	 0.231977752	 0.288277
H	 0.6586150725	-0.5426580457	-0.5000328336	 0.101997
H	 0.0100580364	-2.2963395505	 2.2092160055	 0.290958
H	-1.8434542548	-0.4897161636	 3.1022247568	 0.086295
H	-3.0816267318	 1.5298630762	 2.1796652176	 0.105602
H	-1.6612811782	 1.9226488859	 1.0941839429	 0.142718
H	-3.5149334689	-0.6021633286	 0.8357339781	 0.094035
H	-1.7175110932	-1.3698826336	-1.7502040756	 0.289807
130.4258	188.1741	214.0495	248.9612	258.8001	298.496	327.7975	346.7105	384.9531	408.0171	557.8971	602.8065	660.6822	697.1232	749.0784	765.8025	775.2279	896.3102	908.8849	964.5658	1014.7716	1033.6017	1061.1461	1072.8652	1103.1255	1138.9035	1159.4195	1207.3739	1226.4535	1264.5491	1289.0095	1305.9923	1335.3858	1354.8243	1377.5985	1476.6318	1518.8019	3063.8855	3124.1617	3178.453	3197.198	3250.6238	3778.5396	3784.6067	3796.2039
OC1C2(O)C3CC3C12O	O[C@H]1[C@@]2(O)[C@H]3C[C@H]3[C@@]12O	
InChI=1S/C6H8O3/c7-4-5(8)2-1-3(2)6(4,5)9/h2-4,7-9H,1H2	InChI=1S/C6H8O3/c7-4-5(8)2-1-3(2)6(4,5)9/h2-4,7-9H,1H2/t2-,3+,4-,5-,6+
