21
gdb 38845	2.69514	1.82648	1.51804	1.8124	79.5	-0.2566	0.0787	0.3353	969.9096	0.18717	-387.1055	-387.098621	-387.097677	-387.136486	29.105	
C	-0.0308587371	 1.535585904	-0.0471842775	-0.205255
C	 1.4572436094	 2.002380533	-0.0278829003	-0.212542
C	 2.2666104652	 0.6984325636	 0.1655638419	-0.039861
C	 1.3992095377	-0.3460402728	-0.5582073497	-0.231633
C	 0.0056057399	-0.0182493139	 0.0146697956	-0.001201
C	-0.0985784277	-0.5417078645	 1.4620343668	-0.241856
C	 1.1345987477	-0.2164041202	 2.2925769825	 0.053914
O	 2.3127224666	-0.9984672733	 2.0330454597	-0.261845
C	 2.3205823614	 0.3777694666	 1.6516543681	 0.058076
H	-0.6057476782	 1.957213895	 0.782898313	 0.093271
H	-0.5220319986	 1.8664337637	-0.9669076797	 0.098121
H	 1.7291853753	 2.4772903868	-0.9754456403	 0.0967
H	 1.6571388864	 2.7338610194	 0.7617668727	 0.093922
H	 3.281701144	 0.7689054039	-0.2374144406	 0.063934
H	 1.4284763514	-0.1713732342	-1.6392503099	 0.086577
H	 1.7194071071	-1.3706734596	-0.3609442679	 0.1128
H	-0.8033323721	-0.454936228	-0.5779482102	 0.060846
H	-0.9788112613	-0.1067506829	 1.9507130787	 0.095342
H	-0.2430649152	-1.6292339166	 1.4661823645	 0.108989
H	 0.967299449	-0.0352659935	 3.3544471573	 0.087529
H	 2.9827340191	 1.0063878334	 2.2493702453	 0.084171
123.004	233.3378	299.7135	373.4731	411.3074	425.3007	531.1604	591.3969	725.126	764.9377	778.5514	806.289	829.3559	857.0929	875.2551	892.833	935.0401	952.7079	969.4261	985.626	1016.1529	1032.876	1068.6377	1085.3933	1113.855	1133.2458	1171.1993	1189.1528	1195.3203	1222.8403	1253.2602	1277.8886	1293.7558	1312.8379	1327.488	1338.2756	1348.8368	1361.872	1380.6972	1395.6512	1461.0873	1477.3631	1488.6737	1491.9878	1514.2286	3024.6199	3041.5272	3044.1516	3051.2979	3058.4459	3062.8422	3068.0896	3075.6218	3093.2285	3097.5702	3108.6253	3118.6448
C1CC2CC1CC1OC21	C1C[C@@H]2C[C@H]1C[C@H]1O[C@@H]21	
InChI=1S/C8H12O/c1-2-6-3-5(1)4-7-8(6)9-7/h5-8H,1-4H2	InChI=1S/C8H12O/c1-2-6-3-5(1)4-7-8(6)9-7/h5-8H,1-4H2/t5-,6+,7+,8-/m0/s1
