20
gdb 101150	2.72543	1.25933	0.92876	2.1494	77.35	-0.2433	0.0192	0.2625	1306.912	0.170357	-440.29348	-440.283827	-440.282883	-440.328999	33.872	
C	 0.4696857991	 0.926195901	-0.4614796198	-0.238415
O	-0.2537770242	 0.0440425988	 0.3742939664	-0.246799
C	 0.513493604	-0.6206672162	 1.3702641906	 0.021844
C	-0.3993745634	-0.8973275632	 2.555925007	-0.388203
C	 1.1111938555	-1.8917802438	 0.8067421534	 0.43324
N	 0.8239171441	-3.0789820618	 1.1492767142	-0.312877
C	 1.6491199912	-3.9702345088	 0.3205984168	-0.187276
C	 2.4248610171	-3.0194371868	-0.6266309487	-0.114585
O	 2.0432355453	-1.7005463666	-0.173160167	-0.260041
H	 1.2018160765	 0.4016628218	-1.0858465739	 0.125925
H	-0.263972931	 1.4207705188	-1.1032749494	 0.12396
H	 0.9971295613	 1.6929431124	 0.1273526798	 0.101778
H	 1.3496721295	 0.0273185942	 1.6795304057	 0.082379
H	 0.1449768494	-1.409996034	 3.3518233585	 0.125425
H	-0.7937705645	 0.0482024527	 2.9355500684	 0.114577
H	-1.2312086742	-1.5338703891	 2.2481073113	 0.142203
H	 2.3128397571	-4.5613333333	 0.9611903926	 0.117176
H	 1.0113991065	-4.6744775444	-0.2227625169	 0.120017
H	 3.5118003622	-3.1057634391	-0.550690958	 0.119688
H	 2.1335006484	-3.1195040226	-1.6764013408	 0.119983
37.0306	98.5487	109.5442	148.6968	201.1064	206.9196	216.3614	301.4225	358.301	380.9596	517.6462	624.8291	752.8972	770.5496	834.9085	860.2261	918.2354	967.8248	991.5167	1004.1556	1041.158	1106.5644	1117.8806	1123.1951	1157.4909	1185.4005	1204.6231	1214.8505	1234.4821	1247.4938	1324.8284	1361.4784	1368.2509	1400.6033	1412.411	1476.5652	1480.0926	1487.0106	1491.9683	1502.6499	1517.3463	1526.8996	1737.0878	2974.642	2984.6391	3041.0044	3054.3988	3059.8094	3065.0085	3072.7932	3105.0576	3115.6924	3137.8908	3144.9781
COC(C)C1=NCCO1	CO[C@@H](C)C1=NCCO1	
InChI=1S/C6H11NO2/c1-5(8-2)6-7-3-4-9-6/h5H,3-4H2,1-2H3	InChI=1S/C6H11NO2/c1-5(8-2)6-7-3-4-9-6/h5H,3-4H2,1-2H3/t5-/m0/s1
