13
gdb 7028	4.06699	1.40821	1.04602	5.3668	60.21	-0.2509	-0.0403	0.2105	1026.0102	0.095849	-431.970363	-431.962619	-431.961675	-432.003238	26.71	
N	-0.0192398646	 1.3234066843	 0.0493475555	-0.495091
C	 0.0628660525	 0.0611343536	-0.0298206053	 0.484198
N	-1.0187440248	-0.7985483172	 0.084671318	-0.354804
C	-2.3489105052	-0.4639412923	 0.2967612387	 0.163169
O	-2.8160531825	 0.6343233151	 0.4227978738	-0.256047
N	 1.2907081076	-0.6361550743	-0.2473209686	-0.37234
C	 1.5362589452	-1.9791171446	-0.3562082596	 0.185401
O	 0.7139958393	-2.8702979202	-0.282303738	-0.32081
H	 0.888368712	 1.7719567474	-0.0609069634	 0.21544
H	-0.7915021155	-1.7865186229	-0.0018523289	 0.287855
H	-2.9538273446	-1.3920346815	 0.3364288389	 0.087497
H	 2.0937639837	-0.0312129502	-0.3345617004	 0.262275
H	 2.6088328968	-2.1785701471	-0.5263560606	 0.113257
63.2929	96.1214	183.0086	243.5718	260.5168	285.7091	402.893	474.1226	586.2623	717.2733	738.0371	746.6735	820.4899	850.2556	942.8619	1027.7499	1029.4758	1053.4897	1173.0918	1211.8569	1287.6965	1440.2615	1451.1706	1490.4941	1594.6382	1746.4887	1796.3022	1853.8594	2932.9021	2984.7958	3464.0185	3501.9338	3621.5096
N=C(NC=O)NC=O	N=C(NC=O)NC=O	
InChI=1S/C3H5N3O2/c4-3(5-1-7)6-2-8/h1-2H,(H3,4,5,6,7,8)	InChI=1S/C3H5N3O2/c4-3(5-1-7)6-2-8/h1-2H,(H3,4,5,6,7,8)
