18
gdb 71200	2.73629	2.0772	1.51756	2.2854	74.39	-0.2361	0.0205	0.2566	911.1475	0.149754	-401.939563	-401.932668	-401.931723	-401.970301	28.681	
C	 0.0303353812	 1.4641528689	 0.0791703248	-0.466445
C	-0.0341447416	-0.0423000777	-0.0071401485	 0.400583
C	 0.2148180103	-0.687115871	-1.4142969253	-0.28816
C	-1.1196164312	-1.4175100533	-1.2793123409	-0.075989
C	-1.1677096613	-2.1696514902	 0.0355340315	 0.011089
N	-0.0211385637	-2.7213603944	 0.701356367	-0.274646
C	 0.8319408941	-1.900518202	 1.1549036867	 0.111772
O	 0.8659944446	-0.555541095	 1.000687048	-0.266762
C	-1.4248094357	-0.6916737916	 0.0358877463	-0.152109
H	 1.0516362381	 1.8158005669	-0.095555232	 0.128405
H	-0.6290834958	 1.9119843675	-0.6693282675	 0.123296
H	-0.2871377386	 1.8040702091	 1.0697795675	 0.129093
H	 0.2144950783	 0.0646644004	-2.2072004183	 0.10705
H	 1.1130865483	-1.3042853655	-1.5041426679	 0.112766
H	-1.8016959452	-1.6560943537	-2.085930216	 0.090294
H	-2.0468692611	-2.7973098554	 0.1390734435	 0.100725
H	 1.6725566859	-2.239722068	 1.7570472939	 0.121431
H	-2.3296065566	-0.2256919353	 0.4046943074	 0.087607
208.4662	237.8824	271.1033	318.1726	373.4354	433.8756	505.5041	569.057	616.7494	640.7605	765.1701	789.191	831.9337	877.9301	903.1504	917.9032	934.6405	965.3622	972.0093	991.5299	999.6565	1021.4704	1076.0147	1113.5518	1126.6372	1181.5666	1194.9869	1204.1515	1231.7276	1252.3957	1314.9519	1349.0625	1396.2412	1408.5226	1416.5103	1481.8171	1486.9794	1493.5925	1705.5401	3040.813	3058.2048	3111.317	3114.2982	3122.4902	3159.6466	3165.1344	3185.5809	3197.7904
CC12CC3C(N=CO1)C23	C[C@@]12C[C@H]3[C@@H](N=CO1)[C@@H]23	
InChI=1S/C7H9NO/c1-7-2-4-5(7)6(4)8-3-9-7/h3-6H,2H2,1H3	InChI=1S/C7H9NO/c1-7-2-4-5(7)6(4)8-3-9-7/h3-6H,2H2,1H3/t4-,5+,6-,7+/m1/s1
