18
gdb 77282	1.89243	1.51627	1.00195	6.1233	74.47	-0.2435	-0.0181	0.2254	1218.7796	0.145986	-439.10339	-439.09387	-439.092926	-439.138609	33.599	
C	-0.0304393674	 1.6658563086	 0.121262284	-0.42501
C	-0.0447223503	 0.1540080421	 0.0319046994	-0.064417
C	 0.3623481739	-0.5863584059	-1.2071282217	-0.002868
N	 0.825711906	 0.1582966157	-2.3391479477	-0.286208
C	 1.8684964376	-0.2508849813	-3.1223437054	 0.149932
O	 2.5901693877	-1.1895399781	-2.875978941	-0.304534
C	 1.2314899107	-0.6899358431	 0.0413582033	-0.111805
C	 2.5794407194	-0.0706809835	 0.1142068534	 0.174221
O	 3.4492481413	-0.4759184353	 0.8453761032	-0.269386
H	 0.7516344788	 2.1136240193	-0.4954193872	 0.127567
H	-0.992419194	 2.0765168872	-0.2053224468	 0.12337
H	 0.1329450089	 1.9904053184	 1.1533722688	 0.139943
H	-0.8626365243	-0.3063166817	 0.579000523	 0.108874
H	-0.181577606	-1.4948660284	-1.4553487727	 0.117855
H	 0.2365226789	 0.8956643596	-2.6954696164	 0.252581
H	 1.9916940369	 0.3996704168	-4.0113717678	 0.0813
H	 1.1814098259	-1.6317624175	 0.5763451231	 0.114647
H	 2.747023386	 0.8086212372	-0.5411667314	 0.073938
37.9409	95.2321	121.2937	188.749	205.7479	214.2886	248.7945	296.2299	404.239	432.8593	519.139	535.7521	574.9191	746.1508	793.2185	856.493	929.2769	950.7209	986.6885	1032.4085	1040.0766	1056.5614	1102.2255	1131.8253	1154.6733	1178.9329	1212.6181	1274.3393	1338.3581	1376.2886	1420.057	1425.3682	1429.867	1447.0237	1497.5226	1505.2343	1508.4156	1809.5749	1818.5448	2913.1457	2935.3614	3039.291	3099.2819	3123.5938	3126.282	3151.0428	3181.5562	3613.1454
CC1C(NC=O)C1C=O	C[C@H]1[C@@H](NC=O)[C@H]1C=O	
InChI=1S/C6H9NO2/c1-4-5(2-8)6(4)7-3-9/h2-6H,1H3,(H,7,9)	InChI=1S/C6H9NO2/c1-4-5(2-8)6(4)7-3-9/h2-6H,1H3,(H,7,9)/t4-,5+,6-/m1/s1
