16
gdb 127736	3.11895	1.36279	0.97729	3.1476	67.96	-0.2243	0.0139	0.2382	1162.4383	0.124873	-471.19885	-471.190163	-471.189219	-471.232834	30.922	
C	 0.0527302598	 1.3928957384	 0.0423966105	-0.33212
N	-0.028188926	-0.0510319102	 0.0503985249	-0.010806
N	-0.3642127677	-0.7490225883	-1.0765827398	-0.171387
N	-0.3424930231	-2.0132920559	-0.7721604028	-0.259472
C	-0.0087060159	-2.1640921159	 0.5375898062	 0.1447
C	 0.1139407457	-3.450582487	 1.2869686694	-0.196291
O	 1.05615232	-3.3029141329	 2.3679855472	-0.42277
C	 0.1971019022	-0.906145095	 1.0666741082	 0.340483
O	 0.5620734805	-0.488255612	 2.2888069449	-0.432553
H	 1.049523471	 1.7233615474	 0.3467417171	 0.149122
H	-0.1484615795	 1.7181938754	-0.9781059953	 0.167642
H	-0.6873330345	 1.8272232157	 0.7202428881	 0.150457
H	-0.8249073354	-3.7350550839	 1.7750171643	 0.134321
H	 0.3944992559	-4.269793948	 0.6144459843	 0.131411
H	 1.9361475204	-3.2675498661	 1.9760193048	 0.295622
H	 0.7815424967	-1.3012168416	 2.778447318	 0.31164
57.1168	92.3004	143.0175	195.3028	261.3891	274.5834	322.5163	386.405	426.4666	511.2936	634.7995	663.9429	698.4706	726.9957	750.8637	828.1972	976.7482	1006.1264	1017.7413	1079.7981	1154.6764	1178.3121	1237.5155	1278.882	1324.5423	1345.7849	1356.2948	1392.5429	1425.8168	1444.9896	1481.4212	1504.9443	1506.7416	1601.3837	1641.5904	3033.2577	3051.5141	3071.9927	3116.2027	3164.6393	3642.9575	3802.8551
CN1N=NC(CO)=C1O	Cn1nnc(CO)c1O	
InChI=1S/C4H7N3O2/c1-7-4(9)3(2-8)5-6-7/h8-9H,2H2,1H3	InChI=1S/C4H7N3O2/c1-7-4(9)3(2-8)5-6-7/h8-9H,2H2,1H3
