14
gdb 56721	2.08242	1.41304	1.26834	2.3872	67.67	-0.2859	-0.013	0.2729	1075.3985	0.097608	-436.620988	-436.611896	-436.610951	-436.655214	32.273	
O	 0.3688170165	 1.5947366211	-0.0377082063	-0.404096
C	 0.1221248194	 0.2025054866	 0.0326233293	-0.150154
C	 0.53754649	-0.5099585202	-1.174801437	 0.296979
C	 0.9237129731	-1.0703734518	-2.1644544403	-0.422594
C	 0.787888258	-0.3928754224	 1.2837778142	 0.265963
C	 0.0453025606	-0.4681858043	 2.5542721852	-0.214567
O	 0.2632532381	-1.6291543794	 1.7508144661	-0.24722
C	 2.2344194636	-0.2503242635	 1.3188080579	 0.255898
N	 3.379421326	-0.0950358982	 1.3130534977	-0.323272
H	 1.2456448761	 1.7243293108	-0.4186550553	 0.304592
H	-0.9585154334	 0.0884831159	 0.1735972545	 0.137282
H	 1.2553073285	-1.5735025971	-3.0397816835	 0.215032
H	 0.5910677365	-0.4399713848	 3.49417463	 0.147146
H	-0.976654193	-0.0948020526	 2.5795074976	 0.139011
51.9608	108.8752	136.1922	203.5791	231.7258	259.8029	295.4791	333.1564	413.7345	476.6309	563.7286	588.8887	624.3226	658.7487	689.1616	750.9548	881.7191	892.8603	948.6384	998.7277	1078.732	1131.8247	1165.7278	1226.8515	1262.0702	1294.6625	1394.8084	1407.7595	1520.506	2240.9112	2359.4997	3056.634	3098.8544	3197.4466	3500.0534	3799.7491
OC(C#C)C1(CO1)C#N	O[C@@H](C#C)[C@]1(CO1)C#N	
InChI=1S/C6H5NO2/c1-2-5(8)6(3-7)4-9-6/h1,5,8H,4H2	InChI=1S/C6H5NO2/c1-2-5(8)6(3-7)4-9-6/h1,5,8H,4H2/t5-,6+/m0/s1
