15
gdb 18387	3.49897	2.29827	1.54111	1.1268	60.34	-0.2472	0.012	0.2592	792.6794	0.120967	-399.772225	-399.765798	-399.764854	-399.802795	24.512	
C	 0.0370562771	 1.5109619833	-0.0375518364	-0.116357
O	 1.4036242916	 1.8895782968	-0.2610149513	-0.226405
C	 2.3408255641	 1.6176108597	 0.6900312219	 0.142782
N	 2.3380283501	 0.941467594	 1.7549943761	-0.265334
C	 1.2065586357	 0.1676563091	 2.2618840111	-0.204549
C	 0.4763038697	-0.6620664406	 1.2126625368	 0.045554
O	-0.9435025213	-0.4910638696	 1.0998733764	-0.249206
C	-0.1136856522	 0.0091327598	 0.0493916372	 0.036657
H	-0.34278183	 1.9757631719	 0.8766928764	 0.130317
H	-0.5092410264	 1.9271596484	-0.8867210648	 0.124396
H	 3.2595458802	 2.1242144619	 0.3926648419	 0.125547
H	 1.598850866	-0.4988608358	 3.0363981492	 0.115929
H	 0.4835791026	 0.8211107343	 2.7627770317	 0.129682
H	 0.8062373783	-1.6933876076	 1.095822876	 0.106204
H	-0.1923863455	-0.5298984356	-0.8936204621	 0.104784
124.741	208.6516	280.1673	371.8621	388.8815	461.2128	520.9252	635.1078	757.0667	830.5299	836.306	930.895	937.4436	961.1964	973.1069	1009.9444	1047.5675	1081.1391	1127.5686	1147.976	1169.7015	1245.8553	1267.5191	1286.7891	1358.7556	1380.2638	1403.4808	1434.4171	1478.8807	1491.6017	1516.281	1749.9778	3039.8821	3064.9214	3074.8294	3111.8812	3121.0364	3132.9773	3136.9407
C1OC=NCC2OC12	C1OC=NC[C@H]2O[C@@H]12	
InChI=1S/C5H7NO2/c1-4-5(8-4)2-7-3-6-1/h3-5H,1-2H2	InChI=1S/C5H7NO2/c1-4-5(8-4)2-7-3-6-1/h3-5H,1-2H2/t4-,5+/m1/s1
