21
gdb 84987	2.24116	1.50591	1.25121	1.7167	78.32	-0.241	-0.0224	0.2186	1147.1642	0.179919	-424.268866	-424.259072	-424.258128	-424.303388	36.647	
C	 0.7631097808	 1.3847712158	 0.1333039496	-0.394577
C	-0.0713060335	 0.1169680769	-0.0489104643	 0.111511
C	 0.3246539287	-0.7065083495	-1.280701911	-0.354212
C	 1.2330440215	-1.7880777062	-0.7065141611	 0.364564
O	 2.0004975788	-2.4915154456	-1.3097055062	-0.324533
C	 0.9900194256	-1.8349611215	 0.8101109067	 0.258536
C	 0.3246846054	-3.1633084174	 1.1902999195	-0.40758
C	 2.3082674827	-1.6379439751	 1.5704738106	-0.412586
O	 0.0732862984	-0.7719349659	 1.0757082576	-0.313173
H	 1.8361969608	 1.1719901076	 0.0807735005	 0.119728
H	 0.5256082591	 2.1147881097	-0.6481414833	 0.11574
H	 0.55030307	 1.836348861	 1.1058306792	 0.128979
H	-1.1307064248	 0.3923724527	-0.074404457	 0.085678
H	-0.5433142881	-1.2052096237	-1.7280993366	 0.137924
H	 0.8278456661	-0.1434343785	-2.0690459847	 0.133865
H	 0.9843007997	-4.0003712229	 0.9464732361	 0.13304
H	 0.1111949627	-3.1768097034	 2.2629380202	 0.124956
H	-0.619479267	-3.2913651016	 0.6532879164	 0.116143
H	 2.7684763988	-0.67682618	 1.3264914091	 0.118739
H	 2.1224080483	-1.6640241039	 2.6479457121	 0.122481
H	 3.0123660259	-2.4325314886	 1.3087909766	 0.134776
59.1766	83.705	184.1407	199.0269	225.9477	246.1678	290.7386	309.8036	352.4738	365.209	441.6014	511.0557	556.9451	614.8479	669.7313	722.4581	818.043	858.0031	900.0478	923.7709	934.3043	985.3592	1004.5923	1034.8062	1076.6104	1099.132	1141.2788	1184.4994	1192.582	1217.2371	1264.7118	1280.545	1350.9263	1384.9142	1389.6277	1406.5107	1407.8566	1450.3368	1473.9034	1478.4462	1488.2432	1493.5657	1496.3987	1504.3508	1848.9669	3033.4437	3041.469	3041.6858	3045.8148	3054.1215	3102.6204	3116.87	3118.2091	3120.5471	3122.7148	3124.7413	3130.4847
CC1CC(=O)C(C)(C)O1	C[C@H]1CC(=O)C(C)(C)O1	
InChI=1S/C7H12O2/c1-5-4-6(8)7(2,3)9-5/h5H,4H2,1-3H3	InChI=1S/C7H12O2/c1-5-4-6(8)7(2,3)9-5/h5H,4H2,1-3H3/t5-/m0/s1
