21
gdb 50761	2.81684	1.18651	0.8979	2.9851	78.99	-0.2502	-0.0259	0.2243	1318.2783	0.183002	-424.241184	-424.232298	-424.231353	-424.275217	33.217	
O	-0.9198797481	 1.0407897904	 0.2766936319	-0.247477
C	 0.226257055	 0.7290538725	 0.0886565137	 0.146151
C	 1.3947517209	 1.7119846275	 0.0412830335	 0.021398
C	 1.2231689727	 2.8596282433	 1.0433758158	-0.202478
C	 2.0010769021	 4.1553056372	 0.7310172315	-0.21048
C	 3.3486957611	 3.9920561172	-0.0013426527	-0.194512
C	 4.209163344	 2.7910781866	 0.4268000319	-0.200762
C	 3.7745439552	 1.4600395553	-0.197123297	-0.065269
O	 2.5509084479	 0.9312412175	 0.2813618147	-0.261336
H	 0.5382176056	-0.3232355092	-0.08798848	 0.09398
H	 1.4069066787	 2.1021406396	-0.994847681	 0.091519
H	 0.1538066998	 3.0799795849	 1.1184025749	 0.124359
H	 1.5295297444	 2.456622954	 2.0151128749	 0.1097
H	 1.3707302082	 4.8215345254	 0.1304359935	 0.102576
H	 2.1677374218	 4.6810689485	 1.6783136534	 0.102617
H	 3.1720174369	 3.9123224483	-1.0824552651	 0.095094
H	 3.9221528616	 4.9161799458	 0.1320638131	 0.097077
H	 5.2446348133	 2.9633427133	 0.106564105	 0.098787
H	 4.2338163439	 2.6921262558	 1.5191148262	 0.105466
H	 3.7266803087	 1.5765629284	-1.2940966628	 0.085885
H	 4.5172844261	 0.6858602177	 0.0199280346	 0.107706
64.7694	105.0685	131.7392	200.6835	231.2932	311.5216	335.1047	356.5019	449.5865	515.4706	518.335	628.5945	750.5379	763.8015	815.0801	869.6436	903.6895	937.8014	972.4676	1022.1654	1040.8156	1049.1873	1080.9289	1123.3936	1143.3108	1160.3081	1211.6868	1222.829	1262.818	1287.2428	1309.5873	1313.8432	1354.3647	1366.4759	1377.9088	1383.7754	1396.6245	1401.539	1422.7299	1472.1084	1479.865	1489.4942	1494.858	1504.7723	1838.3396	2905.0744	2924.8093	2953.7634	3014.148	3022.2377	3028.7372	3044.0884	3054.9423	3065.4739	3069.4914	3077.4806	3095.8466
O=CC1CCCCCO1	O=C[C@H]1CCCCCO1	
InChI=1S/C7H12O2/c8-6-7-4-2-1-3-5-9-7/h6-7H,1-5H2	InChI=1S/C7H12O2/c8-6-7-4-2-1-3-5-9-7/h6-7H,1-5H2/t7-/m1/s1
