16
gdb 75954	2.19197	1.9274	1.11747	3.4358	66.	-0.2793	-0.0116	0.2676	1051.0277	0.124851	-475.072662	-475.064684	-475.06374	-475.105407	29.595	
C	-0.9184355652	 0.843831746	-0.0108403204	-0.396183
C	 0.1858250864	-0.2076869995	 0.0098030252	-0.254323
C	 1.0205585552	-0.2488909954	-1.258010463	 0.411197
N	 0.7105363719	 0.3807182092	-2.3040353046	-0.505441
O	 2.1593572227	-1.0110853733	-1.1663123656	-0.233183
C	 2.3385548296	-1.6970967284	 0.0517522408	 8.*^-6
O	 2.2301520913	-0.8384869979	 1.1702621268	-0.216213
C	 1.10528496	-0.0642745932	 1.2242173159	 0.443675
O	 0.9105993077	 0.6497313815	 2.1617346168	-0.308592
H	-0.4912280348	 1.843143555	-0.113006894	 0.146164
H	-1.5838170736	 0.6711837815	-0.8573333776	 0.137958
H	-1.4860037934	 0.804801537	 0.9203935782	 0.132216
H	-0.2678017492	-1.2085396938	 0.1108739769	 0.135916
H	 1.3973779714	 0.2179753566	-3.0423470496	 0.231919
H	 1.6188545468	-2.5226067729	 0.1390459985	 0.1222
H	 3.3569634331	-2.0834454124	 0.0502173858	 0.152681
86.5048	123.831	185.1691	257.1786	283.6206	325.0585	408.9675	476.9381	507.3946	563.3535	592.0082	644.3056	779.2783	820.9082	853.2218	908.8682	987.2159	1037.3632	1045.5644	1084.9323	1109.3709	1121.0325	1164.156	1210.3959	1269.511	1284.8533	1292.9917	1369.8705	1417.0033	1451.4373	1484.0771	1490.425	1526.3741	1771.9064	1880.4917	2973.9911	3012.8136	3070.924	3147.4487	3148.0823	3156.3642	3478.1741
CC1C(=N)OCOC1=O	C[C@H]1[C]([NH])OCOC1=O	
InChI=1S/C5H7NO3/c1-3-4(6)8-2-9-5(3)7/h3,6H,2H2,1H3	InChI=1S/C5H7NO3/c1-3-4(6)8-2-9-5(3)7/h3,6H,2H2,1H3/t3-/m0/s1
