15
gdb 129673	3.18061	1.26604	0.90999	4.8013	72.54	-0.2106	-0.0079	0.2027	1202.937	0.114195	-450.113802	-450.105466	-450.104522	-450.147416	30.025	
N	-0.2227028279	 1.4178591909	-0.0454426879	-0.610319
C	-0.1088657261	 0.0241963292	-0.0431789066	 0.283558
C	-1.0890405709	-0.9239281392	-0.0101754034	 0.219138
N	-2.4513970709	-0.6573019829	 0.029029122	-0.411362
C	-3.4668124759	-1.5756041488	 0.0639859619	 0.077774
N	-3.2707670176	-2.8361755725	 0.0640053981	-0.461765
C	-0.3741811908	-2.1558080177	-0.0263927939	-0.020608
N	 0.9223820499	-1.9576753883	-0.065789514	-0.1445
O	 1.1032648073	-0.5812973102	-0.0767719644	-0.193793
H	 0.2348702688	 1.8370523171	 0.7593771797	 0.258271
H	 0.1871757882	 1.8304729658	-0.878857086	 0.258272
H	-2.6914640547	 0.3215453443	 0.0321788402	 0.259155
H	-4.4457353157	-1.0830809746	 0.0910871866	 0.0929
H	-4.1587445561	-3.330020137	 0.0930030103	 0.224695
H	-0.7833818877	-3.152160356	-0.0100152525	 0.168586
57.2959	103.0768	169.9087	210.6633	254.8032	260.812	378.7081	447.566	518.3863	612.3219	635.9255	695.5706	703.8442	796.3697	804.5072	844.3653	930.2022	951.9097	959.0386	1038.1068	1097.8999	1176.0875	1200.5424	1213.8912	1228.5616	1270.7033	1407.5112	1461.7431	1512.8826	1536.6052	1646.0928	1717.7999	1735.2812	3052.8688	3292.7702	3488.015	3525.0418	3552.2962	3635.7401
NC1=C(NC=N)C=NO1	Nc1c(NC=N)cno1	
InChI=1S/C4H6N4O/c5-2-7-3-1-8-9-4(3)6/h1-2H,6H2,(H2,5,7)	InChI=1S/C4H6N4O/c5-2-7-3-1-8-9-4(3)6/h1-2H,6H2,(H2,5,7)
