19
gdb 97743	5.91261	0.66677	0.64613	2.3073	86.38	-0.2354	0.0412	0.2766	1787.4889	0.158338	-385.794534	-385.785688	-385.784744	-385.829621	32.433	
C	-0.3423203768	 1.6079769619	-0.0394287016	-0.36388
C	 0.1488668516	 0.1588058402	 0.1317448468	-0.318446
C	 0.8337864003	-0.3571796406	-1.0490530731	 0.11954
C	 1.3954450174	-0.7619646672	-2.0364992356	 0.009583
C	 2.0640466421	-1.2448297774	-3.2245556739	-0.167639
C	 3.517970167	-1.825552517	-3.1767120167	 0.05146
C	 3.0046001355	-3.0795696209	-2.4326875991	-0.23381
C	 2.0600002323	-2.7617507497	-3.6144949747	 0.051769
O	 3.2440492295	-2.5042726962	-4.4608764054	-0.30912
H	 0.4953207174	 2.2806514007	-0.2423294658	 0.129047
H	-1.0451907029	 1.684138072	-0.8734224539	 0.129295
H	-0.8467995843	 1.9489036567	 0.8694929355	 0.115303
H	 0.8218512269	 0.0998742335	 0.9970269795	 0.129395
H	-0.7031983984	-0.4909752522	 0.370316896	 0.129853
H	 1.9123511091	-0.6016653994	-4.0945452314	 0.105399
H	 4.4602036493	-1.2862749182	-3.0780598065	 0.099209
H	 3.6171217792	-3.9717149295	-2.5639841114	 0.108939
H	 2.6209750444	-2.9553824755	-1.4190645281	 0.114822
H	 1.2475043205	-3.3490327913	-4.0426035507	 0.09928
27.4009	80.9227	100.158	167.6767	217.9317	322.2738	385.6573	459.1913	495.1426	536.3887	575.5674	724.9589	786.8766	818.2161	823.3277	878.4457	884.3882	907.0681	929.5379	987.6093	1005.6263	1057.769	1080.602	1086.0616	1104.8142	1133.8453	1169.3035	1189.9398	1190.2558	1209.2581	1256.2253	1269.1756	1286.3702	1345.3037	1359.8553	1410.1786	1475.1292	1481.9078	1494.9111	1505.7074	2356.889	3018.3848	3045.027	3045.2047	3081.232	3088.3803	3117.0648	3118.6432	3124.1639	3124.5027	3162.0129
CCC#CC1C2CC1O2	CCC#C[C@H]1[C@H]2C[C@@H]1O2	
InChI=1S/C8H10O/c1-2-3-4-6-7-5-8(6)9-7/h6-8H,2,5H2,1H3	InChI=1S/C8H10O/c1-2-3-4-6-7-5-8(6)9-7/h6-8H,2,5H2,1H3/t6-,7+,8-
