19
gdb 31642	3.48957	1.02715	0.81511	3.3457	80.71	-0.1844	0.0473	0.2317	1402.2222	0.159765	-419.230303	-419.220577	-419.219633	-419.2652	35.172	
C	 0.1842854567	 1.3709398705	-0.0402246653	-0.344073
N	 0.0987861898	-0.0724420216	 0.0125403256	-0.012138
C	 0.2153251308	-0.9258583034	-1.0627416968	-0.202074
C	 0.0778843961	-2.2199844356	-0.6124626564	 0.22558
C	 0.1163360203	-3.453048706	-1.4663428624	-0.1557
O	 0.9161990679	-3.2939145025	-2.6325701863	-0.415427
C	-0.1053705966	-2.1498391365	 0.799802771	-0.357869
C	-0.0884883845	-0.8176635554	 1.1555196859	 0.285385
N	-0.2860457135	-0.1636425396	 2.3905256886	-0.607907
H	 1.2208792001	 1.7260014151	 0.0198308785	 0.125826
H	-0.2504201203	 1.7296850951	-0.9763445013	 0.137463
H	-0.3766855675	 1.7859806335	 0.7992624778	 0.15687
H	 0.3804321873	-0.5443224362	-2.0571736915	 0.119492
H	 0.4536140889	-4.3114727306	-0.8620705267	 0.084521
H	-0.8821498172	-3.7108596164	-1.8416485958	 0.114413
H	 1.7574887967	-2.9275218728	-2.3390570192	 0.274085
H	-0.2303824086	-2.9812166159	 1.478224092	 0.081578
H	-0.753544126	-0.7794481433	 3.0442001873	 0.247596
H	 0.5848608896	 0.1360101917	 2.8204315249	 0.242379
59.8891	93.723	137.2535	173.067	186.785	216.7347	286.0532	302.2511	356.1442	390.6377	498.657	617.6657	634.7539	658.3199	681.7606	706.7144	762.358	816.8932	828.8473	982.554	1011.5272	1059.4559	1074.2693	1137.1469	1152.1461	1172.7381	1203.6789	1208.2077	1250.9877	1339.3027	1379.4284	1404.6008	1433.1412	1445.4634	1481.1415	1498.2384	1510.4881	1518.4884	1551.2294	1612.3034	1655.0314	2964.4145	3021.0362	3034.4256	3095.6548	3141.3657	3233.6433	3265.6945	3485.3924	3595.1002	3801.7222
CN1C=C(CO)C=C1N	Cn1cc(CO)cc1N	
InChI=1S/C6H10N2O/c1-8-3-5(4-9)2-6(8)7/h2-3,9H,4,7H2,1H3	InChI=1S/C6H10N2O/c1-8-3-5(4-9)2-6(8)7/h2-3,9H,4,7H2,1H3
