19
gdb 62181	5.12563	0.59784	0.55456	3.5003	83.52	-0.2539	0.0175	0.2714	1920.6887	0.157289	-382.038151	-382.027745	-382.026801	-382.074521	36.575	
C	-0.0036171268	 1.5835419167	 0.0433265636	-0.37943
C	 0.0332483708	 0.0432784731	 0.0157625543	-0.18491
C	 0.714017898	-0.4983459269	-1.2606820004	-0.128393
N	-0.037389056	-0.1135215101	-2.4521187013	-0.298149
C	 0.621431138	-0.5218558977	-3.6867452836	-0.261932
C	-0.1820848799	-0.1590942675	-4.8576978318	 0.255194
N	-0.8255315692	 0.105350356	-5.779514362	-0.295209
C	 0.6971403712	-0.4990554305	 1.1992769745	 0.318586
C	 1.2664777187	-0.9364703045	 2.1633881651	-0.45865
H	 1.0119571022	 1.9871752677	 0.0992508548	 0.12425
H	-0.4779124757	 1.9597509004	-0.8652849277	 0.136298
H	-0.5582870514	 1.9408838434	 0.9142353599	 0.125602
H	-1.0040152091	-0.3248436321	 0.0137328764	 0.10545
H	 1.7195074212	-0.0660301508	-1.3369621221	 0.118423
H	 0.8436331223	-1.5901147665	-1.1668215162	 0.098887
H	-0.9679488231	-0.5194568365	-2.4197234747	 0.232324
H	 1.5876889584	-0.0070992438	-3.7578391528	 0.159887
H	 0.840244964	-1.6040088355	-3.7474885566	 0.134048
H	 1.7573755165	-1.3240004549	 3.0215834907	 0.197722
44.0646	76.2247	93.5885	137.0354	150.7601	214.1594	235.2042	301.1811	316.9509	393.4398	400.2392	522.3113	533.9343	590.4553	632.0679	645.8802	779.212	830.4834	917.081	927.7698	961.2314	999.2244	1040.1538	1103.6867	1125.1311	1142.2219	1167.2148	1227.6792	1292.8327	1308.8602	1339.9136	1362.7332	1398.3709	1418.9757	1489.2222	1492.511	1496.8075	1500.8899	1513.2092	2236.8576	2369.3903	2937.3088	2957.5039	2990.6721	3048.6228	3049.6432	3051.4314	3121.4997	3140.6248	3504.2353	3511.3855
CC(CNCC#N)C#C	C[C@@H](CNCC#N)C#C	
InChI=1S/C7H10N2/c1-3-7(2)6-9-5-4-8/h1,7,9H,5-6H2,2H3	InChI=1S/C7H10N2/c1-3-7(2)6-9-5-4-8/h1,7,9H,5-6H2,2H3/t7-/m1/s1
