18
gdb 12862	2.87262	2.29899	1.78739	2.4647	66.2	-0.2413	0.0715	0.3128	819.0138	0.154784	-384.933756	-384.92653	-384.925586	-384.965127	28.352	
O	 0.0383177582	 1.4163165032	-0.3630988398	-0.483856
C	 0.0408402652	 0.0529676652	-0.0022855177	 0.392901
C	 0.4030231778	-0.9582613049	-1.1349368721	-0.290862
C	-0.9779505005	-1.6520518797	-0.9544756811	-0.25147
C	-1.3817804783	-0.57473902	 0.0983595683	 0.089997
O	-1.5788587237	-1.0270939905	 1.4221478109	-0.255067
C	-0.2929820068	-1.2984272509	 1.9730478717	-0.091697
C	 0.6407116656	-0.2255426155	 1.3890646235	-0.300788
H	 0.9528765712	 1.7038879329	-0.4573491835	 0.276101
H	 0.513198776	-0.4523358952	-2.0965057987	 0.105975
H	 1.2841526163	-1.581611272	-0.9583900144	 0.091731
H	-1.6062156679	-1.6766186691	-1.8468224953	 0.10545
H	-0.936364798	-2.6592945465	-0.5342818422	 0.108613
H	-2.2172248754	 0.0701350722	-0.1784209899	 0.088911
H	-0.3807118112	-1.2590741635	 3.0616326367	 0.113106
H	 0.0466760521	-2.3095417699	 1.6975150584	 0.091857
H	 1.6871360006	-0.5438355144	 1.363158132	 0.094889
H	 0.5649063888	 0.6971999086	 1.9717906134	 0.11421
73.8866	214.3506	247.8328	276.4203	371.932	403.9614	442.7185	576.2466	629.758	662.009	734.0179	814.2417	836.317	891.7071	932.399	937.4907	951.2254	981.3893	1010.0679	1054.4957	1079.1746	1142.033	1167.2855	1181.3588	1212.6754	1226.1681	1233.6176	1248.4199	1258.4245	1269.2594	1313.0799	1339.7201	1382.656	1394.8597	1465.0238	1479.5284	1485.5826	1519.8624	2974.9405	3051.6193	3055.4561	3072.3551	3093.1468	3102.7276	3106.8792	3111.0921	3130.867	3802.2014
OC12CCC1OCC2	O[C@]12CC[C@H]1OCC2	
InChI=1S/C6H10O2/c7-6-2-1-5(6)8-4-3-6/h5,7H,1-4H2	InChI=1S/C6H10O2/c7-6-2-1-5(6)8-4-3-6/h5,7H,1-4H2/t5-,6+/m1/s1
