17
gdb 102949	3.03818	0.94332	0.75447	4.3587	72.52	-0.2747	0.011	0.2857	1455.1136	0.132198	-458.931734	-458.921698	-458.920754	-458.967608	34.453	
C	-0.2631200805	 1.1669210547	 0.2316682226	-0.242953
O	-0.2925107373	-0.2396202091	 0.3955405827	-0.233236
C	 0.668529988	-0.7367532388	 1.3064973376	-0.0734
C	 0.2724906865	-2.1888754626	 1.6010226991	-0.109267
O	-0.9662654294	-2.2321969884	 2.2993252097	-0.179612
C	-2.0977394529	-2.3012601423	 1.5591447614	 0.175302
O	-3.1823941217	-2.244454218	 2.0522225433	-0.275452
C	 2.0363219508	-0.6712724702	 0.7795851913	 0.335338
C	 3.1537543297	-0.6376490247	 0.3387170403	-0.459643
H	 0.6973859494	 1.5035344503	-0.1797014793	 0.12436
H	-1.062875502	 1.4191940796	-0.4670895047	 0.138303
H	-0.4428744938	 1.6836050375	 1.1855630691	 0.116986
H	 0.6160828202	-0.1725736251	 2.2523154292	 0.112369
H	 0.216008381	-2.7437360064	 0.657371011	 0.132208
H	 1.017064043	-2.6579805172	 2.2459625911	 0.138536
H	-1.8977983922	-2.4334900865	 0.481493091	 0.091416
H	 4.1432245412	-0.5987433327	-0.0465781054	 0.208745
65.4026	65.8231	103.5115	144.5425	174.8955	188.651	252.3299	257.3707	342.7643	373.3169	449.007	538.9494	577.3564	648.1471	677.6411	690.5844	847.1321	976.3684	1032.3801	1047.0985	1054.2901	1091.2521	1141.3877	1167.1446	1184.5576	1228.5201	1291.0566	1320.6739	1369.1047	1399.5108	1430.2932	1480.0738	1486.0171	1489.5928	1508.7061	1869.5189	2233.4699	2974.3482	2990.1521	2996.1235	3049.5113	3056.5633	3130.9435	3131.913	3500.0953
COC(COC=O)C#C	CO[C@@H](COC=O)C#C	
InChI=1S/C6H8O3/c1-3-6(8-2)4-9-5-7/h1,5-6H,4H2,2H3	InChI=1S/C6H8O3/c1-3-6(8-2)4-9-5-7/h1,5-6H,4H2,2H3/t6-/m1/s1
