20
gdb 108768	2.93018	1.12129	0.8891	5.4726	85.37	-0.2116	-0.0231	0.1885	1356.1193	0.172368	-403.199888	-403.190962	-403.190017	-403.233954	33.539	
C	 0.1654749903	 1.5983784157	-0.018947446	-0.368195
C	-0.0327456585	 0.074350921	 0.0716701886	-0.287207
C	 0.6602166114	-0.537476764	 1.2630427434	 0.368305
C	-0.0233201859	-1.0169589382	 2.3404197144	-0.29806
C	 0.6491011429	-1.4634336641	 3.5495747487	 0.371145
O	 0.0721911615	-1.897098433	 4.5326459007	-0.36157
C	 2.1720691316	-1.2727227741	 3.542319522	-0.30271
C	 2.7520954039	-1.4149934754	 2.1371994823	-0.18512
N	 2.0305996035	-0.5407746322	 1.2176101359	-0.337117
H	 1.22421458	 1.8616883978	-0.0988022398	 0.120095
H	-0.3510267199	 2.0003228019	-0.8952603498	 0.121356
H	-0.234198917	 2.0917982155	 0.8715649364	 0.134174
H	-1.0989775181	-0.1566121394	 0.1338522464	 0.124965
H	 0.3411727175	-0.397727759	-0.8475733644	 0.104004
H	-1.106323123	-1.0039867013	 2.3431937932	 0.088306
H	 2.3788893247	-0.2656425042	 3.9288894477	 0.124256
H	 2.6241962344	-1.9904530771	 4.2301001077	 0.122426
H	 3.8129171791	-1.1491472447	 2.116931332	 0.111528
H	 2.6619175518	-2.4647547968	 1.8114854303	 0.108527
H	 2.4403998897	-0.4273325983	 0.3030169601	 0.240892
48.8782	124.3009	142.5752	207.3556	237.1654	289.0519	329.8277	432.5995	461.6767	492.8723	532.806	590.1275	645.2902	712.6825	781.1071	796.3452	842.332	884.6921	926.0412	979.786	1017.5748	1059.1349	1072.7683	1093.8422	1134.3097	1174.4719	1201.0161	1247.9711	1257.5621	1278.7223	1344.0956	1349.7716	1372.0835	1396.9518	1413.5479	1457.4603	1482.9165	1495.2799	1498.0615	1508.5362	1543.7357	1649.4566	1757.4828	2966.8178	3014.6798	3028.7535	3043.5914	3079.2793	3093.9791	3114.7902	3117.6995	3121.6056	3205.1735	3610.0054
CCC1=CC(=O)CCN1	CCC1=CC(=O)CCN1	
InChI=1S/C7H11NO/c1-2-6-5-7(9)3-4-8-6/h5,8H,2-4H2,1H3	InChI=1S/C7H11NO/c1-2-6-5-7(9)3-4-8-6/h5,8H,2-4H2,1H3
