18
gdb 62746	2.43111	1.54982	1.28104	4.1826	73.02	-0.2347	0.0105	0.2451	1060.2996	0.145458	-439.082119	-439.072905	-439.071961	-439.11541	34.64	
C	 0.0403140901	 1.5432333889	 0.0302565526	-0.471431
C	 0.0906996769	 0.0325932701	 0.0502268956	 0.344125
O	-1.0842636509	-0.576177994	-0.4165268996	-0.457323
C	 1.3329493757	-0.7933467521	-0.1952673769	-0.136244
N	 2.5326262178	-0.1910004888	 0.3834320772	-0.338499
C	 1.9471519144	-0.0959992903	 1.6599010628	 0.35521
O	 2.3380275669	 0.3911637892	 2.683657557	-0.347682
C	 0.6827310132	-0.8113102385	 1.1931439739	 0.118502
C	-0.0789926852	-1.8543563032	 1.9544700373	-0.50601
H	 0.9522732564	 1.9951609965	 0.4247194663	 0.137628
H	-0.0993840385	 1.907418534	-0.9957965216	 0.109205
H	-0.8024485617	 1.8952367346	 0.6323305131	 0.140434
H	-1.2579065908	-0.2424797025	-1.3037307263	 0.288503
H	 1.3902237739	-1.5979833394	-0.9175050405	 0.113228
H	 3.0621783067	 0.5629153096	-0.0407105662	 0.239877
H	-0.4368566102	-1.4378839561	 2.9019945531	 0.137438
H	-0.9428097781	-2.1988720913	 1.3834063959	 0.145633
H	 0.5554161735	-2.7150399866	 2.1890366064	 0.127406
134.7553	150.8058	178.4112	198.8771	233.2903	244.0067	260.7034	302.397	400.5199	412.5699	499.8633	568.457	617.4161	652.63	695.1226	744.4624	776.0704	865.3489	916.7515	941.6647	987.1467	1027.0419	1077.2735	1101.8584	1131.7201	1142.8818	1209.5149	1262.316	1271.3167	1309.8097	1330.3182	1410.4692	1414.9394	1446.1662	1484.7972	1492.3313	1493.9175	1498.656	1888.6771	3025.3285	3040.8756	3096.6714	3098.4933	3134.5275	3138.9741	3197.8812	3539.8969	3800.8361
CC1(O)C2NC(=O)C12C	C[C@@]1(O)[C@H]2NC(=O)[C@@]12C	
InChI=1S/C6H9NO2/c1-5-3(6(5,2)9)7-4(5)8/h3,9H,1-2H3,(H,7,8)	InChI=1S/C6H9NO2/c1-5-3(6(5,2)9)7-4(5)8/h3,9H,1-2H3,(H,7,8)/t3-,5-,6+/m0/s1
