18
gdb 66472	3.48092	1.58209	1.4393	2.6469	74.16	-0.2225	0.0661	0.2887	966.3612	0.147765	-401.867845	-401.86051	-401.859565	-401.89902	30.07	
C	 0.0230684703	 1.438570083	 0.0168602385	-0.516488
C	-0.0894427548	-0.0501654227	-0.0465781605	 0.371758
C	 0.4550501423	-0.9395181931	-1.110246445	-0.146437
N	 1.0615136848	-0.9706816118	 0.2684258126	-0.213838
C	-0.0187171143	-2.0119547759	 0.5822742483	-0.068885
C	-1.1805764731	-0.9698537793	 0.5569250443	-0.130962
C	-1.8568904584	-1.7092093291	-0.6254250559	-0.317111
C	-0.4158184631	-2.1966953266	-0.9319539505	 0.400432
O	-0.1050579764	-3.2556892362	-1.7659517037	-0.479862
H	 0.9743931954	 1.7673118433	-0.4124924933	 0.133253
H	-0.7890619548	 1.9181812366	-0.5415207046	 0.121057
H	-0.0196272801	 1.7935790709	 1.0522261555	 0.125068
H	 1.0125489494	-0.6234016868	-1.9838098274	 0.095232
H	 0.1503337675	-2.7892873904	 1.3248442062	 0.077897
H	-1.7286693766	-0.6389120464	 1.4361156123	 0.075764
H	-2.4948692888	-2.5295393196	-0.2742651919	 0.08986
H	-2.3828635463	-1.1224519176	-1.3847354383	 0.099705
H	-0.6549277432	-4.0082292683	-1.5239664867	 0.283559
188.5649	204.1926	236.8282	286.37	354.5394	366.3649	437.8603	540.4692	577.386	655.1363	737.5722	755.4909	802.91	843.9449	861.0398	879.3247	906.4977	933.9711	956.9569	989.0657	1012.6361	1029.6974	1051.2029	1087.5382	1101.5128	1116.9443	1172.5707	1192.6616	1199.7489	1217.4715	1230.2368	1284.5348	1320.128	1396.4738	1406.2121	1436.8447	1481.3324	1484.9227	1492.6771	3027.8625	3030.3076	3091.0056	3094.4046	3108.5815	3133.4003	3145.1504	3188.6879	3812.0623
CC12C3N1C1C2CC31O	C[C@@]12[C@H]3N1[C@H]1[C@@H]2C[C@@]31O	
InChI=1S/C7H9NO/c1-6-3-2-7(9)4(3)8(6)5(6)7/h3-5,9H,2H2,1H3	InChI=1S/C7H9NO/c1-6-3-2-7(9)4(3)8(6)5(6)7/h3-5,9H,2H2,1H3/t3-,4-,5+,6+,7-,8?/m0/s1
