21
gdb 105646	1.9967	1.39699	1.26021	0.8219	85.32	-0.2507	0.0404	0.2911	1200.6964	0.179607	-387.039215	-387.029134	-387.02819	-387.073778	37.581	
C	 0.030886339	 1.4033744247	-0.1007470094	-0.252394
O	-0.0235621376	-0.0037256575	 0.0292717774	-0.279911
C	-1.3253725473	-0.5684789959	 0.031850435	 0.216838
C	-1.9393622277	-0.6436321879	-1.4079774623	-0.273155
C	-1.3200217052	-2.0554888756	-1.5646836023	-0.244997
C	-1.1700834342	-2.1302100323	-0.0207642828	 0.006059
C	 0.0648609907	-2.762636779	 0.5969693079	-0.409633
C	-2.1624113831	-0.0243526111	 1.0968011195	 0.291787
C	-2.867687855	 0.4040778105	 1.9724155424	-0.469115
H	 1.0893968396	 1.6733575572	-0.1038916745	 0.126316
H	-0.4246144076	 1.7512931649	-1.0388244431	 0.105404
H	-0.4688513237	 1.9068037226	 0.736564478	 0.122325
H	-3.0308416921	-0.6621908703	-1.3745854024	 0.111744
H	-1.6180347237	 0.1354294033	-2.1023043149	 0.106226
H	-1.9334860777	-2.8214253528	-2.043470039	 0.096223
H	-0.3472588664	-2.0202222239	-2.0617278577	 0.109448
H	-2.0764949472	-2.5648738987	 0.4118821582	 0.083018
H	 0.9758622264	-2.299773072	 0.2113585801	 0.131135
H	 0.0648198244	-2.6521634831	 1.6864003422	 0.11976
H	 0.0951392594	-3.8337023639	 0.3682597123	 0.109199
H	-3.4890771409	 0.7814132308	 2.7467616354	 0.193722
92.4697	119.8503	138.9725	167.3125	187.2618	211.1631	216.5887	299.0098	352.9221	402.8505	470.4536	523.1623	566.2792	605.367	620.8394	660.2156	694.8979	778.7927	881.5884	892.5411	943.9668	951.9482	1014.6919	1042.376	1096.5229	1115.7527	1151.2737	1167.7879	1185.0278	1191.1853	1227.2692	1232.2453	1260.886	1268.1535	1305.0198	1370.9275	1405.0368	1468.1201	1477.8744	1486.6075	1488.7132	1492.8244	1499.811	1511.7437	2223.1816	2997.5066	3035.1903	3056.5258	3058.8408	3065.7031	3072.0448	3096.4689	3113.8819	3119.7898	3128.9734	3132.3831	3499.4966
COC1(CCC1C)C#C	CO[C@]1(CC[C@H]1C)C#C	
InChI=1S/C8H12O/c1-4-8(9-3)6-5-7(8)2/h1,7H,5-6H2,2-3H3	InChI=1S/C8H12O/c1-4-8(9-3)6-5-7(8)2/h1,7H,5-6H2,2-3H3/t7-,8+/m1/s1
