17
gdb 131507	3.67016	1.35242	1.15129	2.7789	73.97	-0.2367	0.0141	0.2508	1064.9742	0.139616	-418.032155	-418.024967	-418.024023	-418.063721	28.653	
O	 0.0551688828	 1.417591296	-0.0121774042	-0.433353
C	 0.0295073163	-0.0019142852	-0.029426488	 0.13051
C	-1.4431923351	-0.5362669952	-0.0590245658	-0.379378
C	-1.6793525123	-0.6889621424	-1.5328397738	 0.230806
C	-2.6419303549	-0.8427755149	-2.5033659686	-0.228134
N	-1.9583527403	-0.9366504429	-3.6812743786	-0.18359
N	-0.6124122363	-0.8511029874	-3.545678057	-0.334816
C	-0.4577638899	-0.7044636072	-2.2380707678	 0.321144
C	 0.7173112906	-0.5624314945	-1.3156740329	-0.360086
H	-0.3876259219	 1.7240325112	-0.8125698511	 0.281949
H	 0.553226842	-0.3042457246	 0.8805237709	 0.084622
H	-1.5192537816	-1.4975241595	 0.4659030003	 0.110096
H	-2.1010178726	 0.1700389252	 0.4550406038	 0.115018
H	-3.719244677	-0.8917207964	-2.4783673766	 0.134364
H	-2.3455113681	-1.0311723986	-4.6047908452	 0.272757
H	 1.4983698259	 0.1203014982	-1.6592998105	 0.123337
H	 1.1880323724	-1.5340418618	-1.1190141151	 0.114753
92.633	216.1599	266.0636	352.724	377.9656	397.8351	484.2159	491.0935	646.0674	653.6335	682.4043	717.3459	779.3955	793.8795	859.5401	881.6407	932.4019	974.4636	1023.5552	1055.9212	1061.8324	1095.5605	1158.9027	1178.8205	1186.4441	1231.276	1270.7142	1308.2058	1320.7018	1326.851	1427.0925	1434.5634	1467.0337	1471.1352	1488.3625	1505.6959	1624.4554	3021.3064	3029.9431	3087.8313	3089.6639	3100.6369	3257.6231	3675.1667	3785.4933
OC1CC2=CNN=C2C1	O[C@H]1Cc2c[nH]nc2C1	
InChI=1S/C6H8N2O/c9-5-1-4-3-7-8-6(4)2-5/h3,5,9H,1-2H2,(H,7,8)	InChI=1S/C6H8N2O/c9-5-1-4-3-7-8-6(4)2-5/h3,5,9H,1-2H2,(H,7,8)/t5-/m0/s1
