14
gdb 133563	3.30751	1.18528	1.04669	3.4817	55.75	-0.2384	-0.0034	0.235	1114.8308	0.099164	-564.381446	-564.373672	-564.372728	-564.414867	27.939	
F	 0.4357968348	 0.1667243152	 0.1613690735	-0.041567
C	-0.0262221147	 1.4034996651	 0.0578695767	 0.257192
F	 1.018113687	 2.230182862	-0.1640342788	-0.091104
F	-0.817585204	 1.4725280835	-1.0197873305	-0.066829
C	-0.765781649	 1.8425004662	 1.3031109549	 0.204844
N	-1.2643677559	 1.027047716	 2.1431926774	-0.29344
C	-1.9494025663	 1.8676503127	 3.1454246437	-0.165785
C	-1.4906403336	 3.3275855353	 2.8646036466	-0.188338
N	-0.9764764771	 3.197917036	 1.490964247	-0.348312
H	-3.0322302676	 1.7564182276	 3.0108371525	 0.124624
H	-1.7095518348	 1.5297055679	 4.1565777449	 0.12202
H	-2.3063929613	 4.0523462118	 2.917063289	 0.1215
H	-0.6989648843	 3.6457447238	 3.5557544865	 0.112415
H	-0.2529276333	 3.829265737	 1.1788746966	 0.252781
39.7349	137.1615	176.8169	193.2031	343.9183	366.4178	403.2273	526.2523	556.9492	584.5236	715.4644	745.5296	761.2682	856.9416	908.8854	977.1022	994.3735	1040.1263	1107.0931	1150.6828	1174.862	1203.7764	1238.8291	1247.1625	1302.3238	1315.1793	1380.569	1477.7527	1495.3926	1528.4082	1729.4273	3014.675	3035.6319	3088.9656	3100.1228	3609.2301
FC(F)(F)C1=NCCN1	FC(F)(F)[C]1[N]CCN1	
InChI=1S/C4H5F3N2/c5-4(6,7)3-8-1-2-9-3/h1-2H2,(H,8,9)	InChI=1S/C4H5F3N2/c5-4(6,7)3-8-1-2-9-3/h1-2H2,(H,8,9)
