27
gdb 57520	2.29474	1.09646	1.08735	0.9315	92.61	-0.2406	0.0715	0.3121	1409.7215	0.24738	-390.702234	-390.690456	-390.689512	-390.737675	45.934	
C	-1.1771674775	 0.9517542545	-1.2744982621	-0.401467
C	-0.7812035633	-0.4238505496	-0.7034118189	 0.36374
C	-0.2588117435	-0.2783890426	 0.7346876437	-0.421549
C	-2.0191595089	-1.3354374387	-0.6970834804	-0.380682
O	 0.1052417125	-1.121727934	-1.5948549754	-0.342263
C	 1.520603784	-0.9281821691	-1.7582923081	 0.36375
C	 2.3130449697	-1.6347100689	-0.6411152551	-0.401503
C	 1.7942365985	-1.6432781752	-3.0914610579	-0.380686
C	 1.9558696321	 0.5408765611	-1.8791815134	-0.421529
H	-0.3703305241	 1.6830329926	-1.2004841018	 0.110397
H	-1.4565902476	 0.8496391457	-2.326966023	 0.115889
H	-2.0376636586	 1.3533134304	-0.7288728556	 0.106532
H	-1.0472337035	 0.1481257453	 1.3635815223	 0.111627
H	 0.0165049351	-1.2502001699	 1.152557184	 0.119749
H	 0.604632154	 0.3882286614	 0.8005235563	 0.11444
H	-2.3959821432	-1.4632825558	-1.7154994373	 0.116639
H	-1.7594830129	-2.3227254165	-0.3052954003	 0.112472
H	-2.8163760971	-0.9103517874	-0.079725766	 0.103352
H	 1.9298569476	-2.6492754443	-0.4996227296	 0.115887
H	 3.3713059922	-1.70313565	-0.9146253099	 0.106539
H	 2.253177707	-1.1065360183	 0.3121282548	 0.1104
H	 1.2326294373	-1.1653995191	-3.8988597236	 0.112481
H	 2.859578934	-1.6162466207	-3.3398458078	 0.103354
H	 1.4760728146	-2.687499916	-3.0291451802	 0.116632
H	 1.8168314205	 1.0961328415	-0.9482628384	 0.114434
H	 3.0218746657	 0.5823101901	-2.1260643482	 0.111621
H	 1.4057555752	 1.0490305935	-2.6754180282	 0.119744
75.0892	112.714	200.3157	215.8119	223.988	259.3014	263.4469	290.7885	298.8907	310.5175	315.2321	326.7622	366.4294	368.7801	419.0343	422.0879	461.7378	483.7114	565.2858	699.9653	771.2692	843.7263	905.3787	906.9597	912.1907	918.6602	956.5977	960.3108	1019.5923	1043.3976	1046.7314	1054.7377	1055.6905	1201.4454	1236.831	1243.9084	1249.1369	1249.1451	1280.563	1392.4474	1394.8009	1395.2174	1397.4104	1421.4316	1426.8684	1470.5867	1471.3222	1481.084	1483.8904	1487.0759	1487.4364	1495.3979	1499.1055	1506.6011	1511.531	1518.4976	1525.3657	3038.2312	3038.835	3039.8438	3040.0321	3046.6419	3049.1726	3104.5268	3105.6155	3107.3964	3108.8731	3118.0677	3118.8705	3119.7103	3120.1983	3124.315	3127.9352	3137.7605	3139.1398
CC(C)(C)OC(C)(C)C	CC(C)(C)OC(C)(C)C	
InChI=1S/C8H18O/c1-7(2,3)9-8(4,5)6/h1-6H3	InChI=1S/C8H18O/c1-7(2,3)9-8(4,5)6/h1-6H3
