18
gdb 88494	2.33948	1.45228	1.13862	1.6403	77.94	-0.2477	0.0326	0.2802	1141.9355	0.145749	-401.865828	-401.856782	-401.855838	-401.899553	33.912	
C	 0.5394051857	 1.3228591826	-0.5507484422	-0.441117
C	 0.0586515892	 0.0110769876	 0.0128254908	 0.099036
O	 1.033239814	-1.02606611	 0.2589002749	-0.266705
C	 0.3385065476	-0.4691485164	 1.3746276023	-0.073684
C	 1.1896655665	 0.2962640495	 2.3646926251	 0.087116
C	 2.3343898114	-0.4358255732	 2.9916257976	-0.273059
N	 2.5870565762	 0.60700622	 1.9928141399	-0.343369
C	 0.4669718959	 1.2939432764	 3.1122471164	 0.32126
C	-0.1841447449	 2.0955042563	 3.7277694891	-0.429161
H	 1.3818080882	 1.7320575992	 0.0088596783	 0.154078
H	 0.8380872268	 1.1974775557	-1.5967402816	 0.129719
H	-0.276210121	 2.0529182334	-0.5214759791	 0.132148
H	-0.8471713248	-0.37800813	-0.4551440883	 0.097156
H	-0.3878929073	-1.1376929036	 1.8388709918	 0.10479
H	 2.6274977161	-0.1868728069	 4.0064813139	 0.129891
H	 2.4714021865	-1.4750963398	 2.7034479967	 0.127724
H	 2.7525965724	 0.1511487888	 1.0952107991	 0.247755
H	-0.7416846583	 2.8145237803	 4.2753415253	 0.196421
67.1739	131.9897	167.5751	186.5748	226.1609	248.2793	318.4315	390.0561	469.8406	500.946	546.6732	582.482	610.9566	658.3487	715.5687	787.8966	839.288	884.4261	921.3699	957.8131	988.6325	1013.0774	1029.373	1085.7789	1121.7512	1133.3477	1176.2132	1179.4748	1270.4001	1296.7456	1316.3393	1353.6525	1395.5896	1422.2295	1462.0434	1493.0882	1501.7186	1505.4422	2239.0506	3043.3175	3091.8211	3103.7662	3105.1028	3111.3576	3147.0616	3206.9836	3468.9879	3502.3511
CC1OC1C1(CN1)C#C	C[C@H]1O[C@H]1[C@]1(CN1)C#C	
InChI=1S/C7H9NO/c1-3-7(4-8-7)6-5(2)9-6/h1,5-6,8H,4H2,2H3	InChI=1S/C7H9NO/c1-3-7(4-8-7)6-5(2)9-6/h1,5-6,8H,4H2,2H3/t5-,6-,7-/m1/s1
