13
gdb 21967	7.31646	1.1262	1.05545	4.6819	55.29	-0.3004	-0.0473	0.2531	1054.2623	0.095755	-428.036303	-428.028908	-428.027963	-428.069497	24.476	
O	-0.0807614881	 1.4170845319	 0.0104917139	-0.409824
C	 0.0413973664	 0.0111372884	 0.0018500295	-0.078898
C	-1.3926857754	-0.5229627697	 0.0122466444	-0.145286
N	-1.4173136216	-1.9776404306	 0.0046794385	 0.159698
N	-1.4081416811	-2.7152853702	-1.0955779755	-0.117436
N	-1.3830848017	-3.9442721328	-0.6802184592	-0.081858
N	-1.3734884752	-3.9514669367	 0.6680051868	-0.081877
N	-1.3924195394	-2.7269893482	 1.0967682452	-0.117374
H	 0.800064522	 1.8024856958	 0.0039766175	 0.301587
H	 0.5586455235	-0.3597871089	-0.8953590033	 0.119149
H	 0.5751136193	-0.3693067847	 0.8853311265	 0.119078
H	-1.9156756493	-0.1894838491	 0.9092657876	 0.16654
H	-1.9321604193	-0.1796909154	-0.8712241319	 0.166501
39.4672	87.7638	114.8738	211.9721	330.2517	355.8332	382.5545	725.8283	765.4986	796.8194	802.1819	975.3691	1012.3168	1035.5183	1100.8292	1104.7378	1144.6144	1185.1003	1249.6708	1256.7571	1259.1015	1312.2388	1360.2824	1406.688	1416.9316	1465.1207	1480.1573	1531.0429	2989.3458	3027.8067	3101.6241	3163.0633	3840.2016
OCCN1N=NN=N1	OCCn1nnnn1	
InChI=1S/C2H5N5O/c8-2-1-7-5-3-4-6-7/h8H,1-2H2	InChI=1S/C2H5N5O/c8-2-1-7-5-3-4-6-7/h8H,1-2H2
