17
gdb 52099	3.92449	1.03011	0.96348	4.8983	69.9	-0.2529	0.0083	0.2612	1240.6459	0.134787	-458.910893	-458.902794	-458.90185	-458.944566	29.696	
O	 0.6567055348	 0.1740662326	 0.2987791484	-0.273343
C	 0.7573747486	 1.3456509468	 0.4983195492	 0.181131
O	 0.6065397674	 2.2587266511	-0.4902711276	-0.178122
C	 0.8295121238	 3.628206642	-0.1443968617	-0.250909
C	 2.2890175924	 3.9669503173	-0.1861674446	 0.419649
C	 3.3629515858	 3.6188336695	-1.2495714762	-0.250746
C	 4.0530118119	 4.1785091078	 0.0151073292	 0.052911
C	 3.005402743	 5.3158221146	 0.0876011044	-0.267645
O	 3.1546026975	 3.3374961845	 0.8465554571	-0.342787
H	 0.9637755205	 1.8047300079	 1.4818377352	 0.096728
H	 0.2788292575	 4.2209240253	-0.8789455592	 0.136023
H	 0.4277210088	 3.8483208876	 0.8529262451	 0.127169
H	 3.5070222723	 2.553785345	-1.4274754722	 0.127424
H	 3.3927034481	 4.2187857	-2.1621609918	 0.100797
H	 5.1084986732	 4.1930485278	 0.2819196052	 0.106339
H	 3.0033718695	 6.0686035084	-0.7043117505	 0.102586
H	 2.843450715	 5.7338517618	 1.0817989199	 0.112794
62.7593	67.468	146.929	208.1636	274.4097	357.8744	395.7382	517.7845	593.3719	657.0561	690.4118	716.714	810.2344	871.1867	907.1291	955.3618	976.3504	986.0722	1014.403	1034.3358	1053.3153	1094.5485	1108.2438	1121.9911	1157.7672	1170.4919	1216.4771	1236.8029	1239.1468	1312.0607	1326.2823	1403.58	1432.3152	1467.006	1482.1486	1514.0406	1870.2708	2982.3752	3033.4583	3064.9676	3074.5004	3109.9434	3135.9251	3150.4573	3162.8705
O=COCC12CC(C1)O2	O=COC[C@@]12C[C@@H](C1)O2	
InChI=1S/C6H8O3/c7-4-8-3-6-1-5(2-6)9-6/h4-5H,1-3H2	InChI=1S/C6H8O3/c7-4-8-3-6-1-5(2-6)9-6/h4-5H,1-3H2/t5-,6+
