21
gdb 100389	2.43014	1.06342	0.8993	3.6359	79.36	-0.2465	-0.0362	0.2102	1392.649	0.177943	-424.249968	-424.238967	-424.238023	-424.287095	38.287	
C	 0.0372744061	 1.6383745007	 0.2979700086	-0.411651
C	 0.1012520555	 0.123426698	 0.0658015484	-0.19152
C	 0.7592574312	-0.369797463	-1.2618602403	 0.128253
C	 2.2214171181	 0.1076229706	-1.3586926911	-0.437183
C	 0.6663798017	-1.9153446622	-1.2840173819	-0.293938
C	 1.3597012644	-2.5681736101	-2.461659225	 0.138302
O	 2.2446158787	-3.3804841867	-2.358330282	-0.246184
C	-0.0357235798	 0.2260092447	-2.4193137123	 0.155988
O	-0.848005777	-0.3696924165	-3.0813675797	-0.262964
H	 1.0294302363	 2.0988394416	 0.2973496937	 0.12537
H	-0.5719569121	 2.1500795059	-0.4531184784	 0.125444
H	-0.4146285743	 1.8413392151	 1.2734899013	 0.12664
H	 0.6608694318	-0.3411374683	 0.8868807781	 0.109305
H	-0.9131770622	-0.2903621411	 0.1124784056	 0.113702
H	 2.7881575954	-0.2257567453	-0.4836479626	 0.132443
H	 2.7205737504	-0.2929220931	-2.2464380193	 0.135904
H	 2.2867720217	 1.1983554482	-1.4071693978	 0.124737
H	 1.0965999842	-2.3309907683	-0.3683987105	 0.113881
H	-0.3940282717	-2.1922082971	-1.3357027653	 0.133058
H	 0.9860390345	-2.2530238201	-3.4592720783	 0.094484
H	 0.1755729773	 1.3008405069	-2.6184047411	 0.085927
42.2317	64.9467	83.971	89.1764	178.946	199.7591	247.923	263.3762	292.2266	319.6557	349.8439	367.9482	446.706	520.5894	590.1574	732.0036	778.5086	855.9455	873.9976	928.6758	960.7794	996.8147	1021.9696	1044.4322	1084.0913	1088.5646	1173.3033	1186.2493	1227.1923	1263.0612	1311.061	1337.6805	1371.7379	1410.8246	1416.5709	1427.765	1430.3307	1450.6435	1480.1786	1494.6214	1497.1775	1506.1249	1511.8997	1820.372	1825.4866	2875.8124	2909.9096	3024.4323	3036.7097	3039.1787	3044.6338	3062.9766	3103.1599	3107.6265	3108.6417	3111.4146	3117.9888
CCC(C)(CC=O)C=O	CC[C@@](C)(CC=O)C=O	
InChI=1S/C7H12O2/c1-3-7(2,6-9)4-5-8/h5-6H,3-4H2,1-2H3	InChI=1S/C7H12O2/c1-3-7(2,6-9)4-5-8/h5-6H,3-4H2,1-2H3/t7-/m0/s1
