22
gdb 7388	3.47207	1.00668	0.82859	2.7117	74.84	-0.2603	0.0734	0.3337	1421.4056	0.197668	-387.338921	-387.328356	-387.327412	-387.374637	37.894	
C	 0.0835550205	 1.5282876607	 0.0620729441	-0.415124
C	-0.0312789424	 0.0022951432	 0.0561056637	 0.137747
O	 0.6089036185	-0.5399735884	 1.2112013013	-0.428089
C	-1.4808207167	-0.5198188124	-0.0769012502	 0.011124
C	-2.1893475965	 0.0635188998	-1.3102564869	-0.406517
C	-1.4913752419	-2.0595960385	-0.0865906642	-0.169642
C	-2.8456195005	-2.6807085008	 0.2335505936	-0.084145
O	-2.6873389697	-4.0925648735	 0.2104014839	-0.419752
H	 1.1196304759	 1.8133705291	 0.2632231137	 0.124456
H	-0.214159281	 1.9701550066	-0.8922719886	 0.120852
H	-0.5495416322	 1.9647310677	 0.8458892615	 0.103596
H	 0.5536564838	-0.3946337126	-0.784447248	 0.087649
H	 0.1671782248	-0.1732739148	 1.9855128157	 0.273603
H	-2.0197047422	-0.176547932	 0.8225520537	 0.052924
H	-2.319122261	 1.1465239945	-1.2384071291	 0.115309
H	-1.6164941718	-0.1471615553	-2.2214742046	 0.116954
H	-3.1829887135	-0.3740265376	-1.441094163	 0.116029
H	-1.1626180894	-2.4262588427	-1.0677681036	 0.096619
H	-0.7685803788	-2.4260913496	 0.6471527983	 0.123241
H	-3.1837262279	-2.3354925399	 1.225547381	 0.078495
H	-3.6071134628	-2.3619505047	-0.4956686895	 0.08134
H	-3.5433115452	-4.4933535388	 0.3869710574	 0.283332
58.581	70.8229	101.4163	162.4637	203.8571	239.3694	264.6339	287.1463	300.7572	330.2338	358.3045	388.8608	471.3121	476.2377	545.7057	793.0076	820.3222	898.6779	940.4654	970.8743	981.3361	1018.0104	1063.0112	1079.5244	1086.3205	1140.4616	1164.7622	1178.3055	1223.0843	1242.3328	1271.7342	1310.366	1324.0534	1343.4511	1364.4931	1385.145	1403.5114	1412.6833	1421.2739	1461.4562	1491.8991	1493.5324	1497.0051	1503.2904	1512.8829	1528.8661	2952.0183	2962.1804	2984.8871	3020.2442	3028.3372	3031.3533	3036.4259	3099.4846	3099.7862	3102.1485	3113.0189	3126.4056	3794.9159	3829.3157
CC(O)C(C)CCO	C[C@@H](O)[C@@H](C)CCO	
InChI=1S/C6H14O2/c1-5(3-4-7)6(2)8/h5-8H,3-4H2,1-2H3	InChI=1S/C6H14O2/c1-5(3-4-7)6(2)8/h5-8H,3-4H2,1-2H3/t5-,6+/m0/s1
