20
gdb 91661	2.56216	1.75483	1.38172	1.6889	78.99	-0.2314	0.0823	0.3137	1020.9936	0.172546	-403.09771	-403.090074	-403.08913	-403.129334	31.154	
C	-0.0729665138	 1.5179811859	-0.0277458355	-0.42051
C	 0.0736394405	 0.0080683831	 0.0581509202	 0.15469
O	 0.95774342	-0.4966517584	-0.9907871353	-0.304237
C	 1.9262842866	-1.2434782201	-0.2377709954	 0.005849
C	 1.0674998265	-2.0198904745	 0.7945185692	-0.243518
C	 0.7918843018	-0.5643733083	 1.2997522225	-0.16831
C	 2.2640755931	-0.2997135918	 0.9191993163	 0.440197
C	 3.484982883	-0.2333354071	 1.735697061	-0.346587
N	 3.009841765	 0.9392421009	 0.9552759764	-0.394821
H	 0.8737033713	 2.0223921686	 0.1740449725	 0.14841
H	-0.4221311006	 1.8011539453	-1.0254274659	 0.120591
H	-0.8143620074	 1.8646651672	 0.7006742927	 0.107922
H	-0.9090731457	-0.4654385903	-0.0711922274	 0.069841
H	 2.6588846408	-1.6947748086	-0.9061641444	 0.077469
H	 0.2225765721	-2.585418282	 0.3962872109	 0.101304
H	 1.6549855562	-2.6156142265	 1.4941316673	 0.104793
H	 0.377577032	-0.3395617807	 2.2810548378	 0.07665
H	 3.4263509915	-0.1120219933	 2.8142570468	 0.12145
H	 4.3694168798	-0.7632361663	 1.3889401562	 0.113726
H	 3.5575255373	 1.0511209769	 0.1046045241	 0.235091
161.2601	199.382	222.7151	249.3923	305.7314	351.3144	440.4049	492.899	551.202	643.3509	695.4687	807.9405	818.0515	836.673	865.2295	905.6514	911.0999	942.2923	961.4505	973.1081	1012.1527	1033.8615	1051.1324	1057.9353	1091.7363	1100.7287	1124.2948	1136.8085	1160.9316	1211.5327	1222.9095	1252.3832	1257.0365	1262.2166	1295.0995	1333.4302	1392.6345	1411.9268	1440.5707	1486.6117	1492.3986	1500.9983	1526.1265	3004.0418	3039.9912	3075.4059	3099.9728	3103.6566	3129.6297	3136.5361	3142.0869	3144.5473	3183.3961	3489.4281
CC1OC2CC1C21CN1	C[C@H]1O[C@@H]2C[C@H]1[C@]12CN1	
InChI=1S/C7H11NO/c1-4-5-2-6(9-4)7(5)3-8-7/h4-6,8H,2-3H2,1H3	InChI=1S/C7H11NO/c1-4-5-2-6(9-4)7(5)3-8-7/h4-6,8H,2-3H2,1H3/t4-,5-,6-,7+/m1/s1
