19
gdb 102894	3.00014	0.79313	0.64966	1.4976	84.92	-0.2572	0.0321	0.2893	1700.3465	0.154868	-385.810223	-385.799574	-385.798629	-385.846505	37.838	
C	-0.2048851974	 1.3984694524	-0.1083589966	-0.238117
O	 0.1932933733	 0.0521309825	 0.0524006467	-0.234423
C	 0.7080332954	-0.5459942753	-1.1266843373	-0.079194
C	 1.3022096599	-1.9036443317	-0.7282618344	-0.192671
C	 2.4368894433	-1.7558952351	 0.3041435823	-0.363605
C	 3.0230570744	-3.0372047195	 0.6750934405	 0.286946
C	 3.4891158916	-4.1067007655	 0.9646641673	-0.433751
C	-0.3196415583	-0.7000101248	-2.1657109752	 0.329316
C	-1.1633857635	-0.8345451754	-3.0112883859	-0.443731
H	 0.6352333351	 2.0305753563	-0.4355693753	 0.104723
H	-1.0206058082	 1.4966796598	-0.8367206504	 0.122651
H	-0.5509745367	 1.745295463	 0.8677028086	 0.130552
H	 1.514688379	 0.0910809191	-1.5329463722	 0.090397
H	 0.5033881464	-2.5274078082	-0.316984237	 0.130576
H	 1.6742766898	-2.4014791001	-1.6281205364	 0.122149
H	 3.2190293495	-1.1007984398	-0.1033343758	 0.124353
H	 2.044633377	-1.2502210729	 1.1924327485	 0.15149
H	 3.9087216524	-5.0451138941	 1.2297939387	 0.19248
H	-1.9073192029	-0.9536052708	-3.7601257861	 0.199856
59.9563	84.2155	101.0101	112.3635	171.1718	191.5274	239.3606	268.5258	316.637	348.2004	446.6254	458.6342	575.9468	600.3563	614.5897	628.7456	637.5696	674.5305	760.7544	868.6701	938.4539	1000.4639	1039.5718	1050.2322	1088.6651	1144.8589	1182.8471	1184.986	1240.0964	1265.7177	1312.4036	1342.1117	1364.7921	1386.645	1471.295	1478.9953	1485.0072	1485.7468	1510.7291	2230.639	2239.6186	2937.2131	2983.9244	3018.0418	3047.8333	3065.2436	3076.0837	3114.9713	3123.2753	3501.3928	3508.0059
COC(CCC#C)C#C	CO[C@@H](CCC#C)C#C	
InChI=1S/C8H10O/c1-4-6-7-8(5-2)9-3/h1-2,8H,6-7H2,3H3	InChI=1S/C8H10O/c1-4-6-7-8(5-2)9-3/h1-2,8H,6-7H2,3H3/t8-/m1/s1
