16
gdb 43464	3.0021	1.44345	1.06241	2.1684	70.66	-0.2576	-0.0176	0.2399	1094.6391	0.125707	-437.964345	-437.956764	-437.95582	-437.996827	28.933	
O	 0.0083937165	-0.0341097248	 0.00261291	-0.342158
C	-0.0417338917	 1.1685031567	 0.0103720599	 0.428351
C	-1.2868241719	 2.0592405639	 0.032445235	-0.462924
C	-0.7395689866	 3.4776242634	 0.032618543	 0.207798
C	-1.3682037202	 4.6459708075	-0.6998749003	-0.29446
C	-1.3472586757	 4.6377449728	 0.7952490445	-0.29446
C	 0.7560866334	 3.3782965993	 0.0110140679	 0.399964
O	 1.5631443092	 4.2759629648	 0.0048138289	-0.366069
N	 1.0595068845	 2.0186684059	-0.0006045506	-0.377501
H	-1.9014882822	 1.8237839378	-0.8416514264	 0.146974
H	-1.8769939502	 1.814128529	 0.9206519927	 0.14695
H	-0.6868701896	 5.316594487	-1.2113040681	 0.143997
H	-2.3072640116	 4.4550951185	-1.2077600105	 0.123497
H	-2.2717572839	 4.4411614816	 1.3271075276	 0.123502
H	-0.6517623925	 5.3028087642	 1.2947345226	 0.143997
H	 2.0089832725	 1.6742299926	-0.0158762364	 0.272541
61.7605	145.5215	243.0772	243.1518	344.7924	368.404	491.4268	561.6595	584.8848	644.6701	666.0129	736.6969	757.4059	788.7103	855.4033	870.4799	924.7931	958.7028	1006.1623	1017.3322	1067.3418	1094.4684	1134.7465	1186.1879	1203.1082	1241.3948	1293.0727	1326.3835	1354.9757	1380.3554	1454.8731	1463.7953	1488.1632	1829.9623	1871.7409	3060.0642	3099.7234	3135.8795	3137.7087	3223.226	3237.3198	3623.3289
O=C1CC2(CC2)C(=O)N1	O=C1CC2(CC2)C(=O)N1	
InChI=1S/C6H7NO2/c8-4-3-6(1-2-6)5(9)7-4/h1-3H2,(H,7,8,9)	InChI=1S/C6H7NO2/c8-4-3-6(1-2-6)5(9)7-4/h1-3H2,(H,7,8,9)
