14
gdb 31315	2.24277	1.74508	0.99016	4.1322	71.5	-0.2485	-0.033	0.2155	1100.7082	0.102787	-432.914482	-432.906421	-432.905477	-432.948112	28.684	
O	 0.5182973339	 0.6318910171	 0.8390736502	-0.401313
C	-0.0683148733	 0.1341386462	-0.3436813246	-0.18065
C	-1.4182737485	-0.4867995572	-0.1305567606	 0.169764
C	-2.1254831928	-0.6345844442	 1.0505656085	 0.153531
N	-3.3046102305	-1.2720539023	 0.6858039226	-0.312462
C	-3.25008482	-1.4711463954	-0.651371913	 0.022492
N	-2.132886673	-1.0088283755	-1.1731296767	-0.302159
C	-1.8687824812	-0.2585184612	 2.3851120441	 0.211051
N	-1.7167045446	 0.0488668144	 3.4926506773	-0.356724
H	 0.0217521971	 1.4021288374	 1.1340104935	 0.296211
H	-0.1496300944	 0.9004601521	-1.1296483094	 0.120607
H	 0.6164262266	-0.6299313529	-0.7289610611	 0.143268
H	-4.0484087187	-1.5306802717	 1.3138032178	 0.285893
H	-4.0474665005	-1.9555727969	-1.1951531087	 0.150491
33.9035	134.8356	167.7462	220.8661	240.9907	344.5539	420.4573	508.4762	540.8817	547.6025	619.4372	671.3427	705.0013	737.3537	847.3001	957.5302	985.7758	1093.4186	1113.1481	1156.0968	1201.3687	1255.5494	1270.8184	1362.6803	1388.0418	1410.7039	1465.9419	1486.1563	1507.9749	1593.2422	2337.0115	2992.7868	3064.0838	3255.7047	3659.0586	3820.495
OCC1=C(NC=N1)C#N	OCc1c([nH]cn1)C#N	
InChI=1S/C5H5N3O/c6-1-4-5(2-9)8-3-7-4/h3,9H,2H2,(H,7,8)	InChI=1S/C5H5N3O/c6-1-4-5(2-9)8-3-7-4/h3,9H,2H2,(H,7,8)
