16
gdb 62431	3.83396	1.27198	1.22223	1.0451	75.32	-0.2336	0.0019	0.2355	1050.3857	0.123586	-400.708245	-400.700233	-400.699289	-400.740634	30.466	
C	-0.0447699309	 1.5757039574	 0.0057611827	-0.46938
C	 0.02827804	 0.0590054876	 0.0304067741	 0.041339
C	-1.1318206641	-0.6207854178	-0.4793545142	 0.27223
C	-2.0993951847	-1.1945831327	-0.9064964094	-0.42496
C	 1.3234295675	-0.695598907	-0.2393124522	 0.028019
O	 2.5284095527	 0.0446358526	-0.1176017994	-0.207959
C	 2.5995441943	 0.3920928938	 1.1955814176	 0.084546
N	 1.6782601752	 0.0048136843	 1.9829895484	-0.253905
C	 0.7448409309	-0.7230094179	 1.1597751347	-0.070599
H	 0.8055019968	 2.0343778043	 0.5120903536	 0.136886
H	-0.0682458412	 1.9377241426	-1.0261150843	 0.132717
H	-0.9563832415	 1.9110600108	 0.5073574278	 0.136429
H	-2.9587128287	-1.6918828648	-1.2828456449	 0.195526
H	 1.3810602559	-1.4969634503	-0.9635644612	 0.128833
H	 3.4650922332	 0.9853740264	 1.4629249002	 0.150172
H	 0.2287833546	-1.5584464794	 1.6141964264	 0.120104
121.8723	136.2143	146.0487	227.9484	261.0396	396.1022	447.0065	508.5824	543.4212	577.0979	587.9528	659.4619	706.793	747.5191	852.7194	883.5594	895.7558	943.2056	972.8613	1016.2448	1039.09	1057.5317	1073.6014	1102.1515	1123.726	1214.2048	1275.4304	1282.7968	1328.9212	1367.4717	1418.5637	1483.3622	1497.9305	1661.8334	2231.3188	3052.5613	3117.9202	3142.3267	3199.6926	3208.3439	3235.1667	3502.7169
CC1(C#C)C2OC=NC12	C[C@@]1(C#C)[C@H]2OC=N[C@@H]12	
InChI=1S/C7H7NO/c1-3-7(2)5-6(7)9-4-8-5/h1,4-6H,2H3	InChI=1S/C7H7NO/c1-3-7(2)5-6(7)9-4-8-5/h1,4-6H,2H3/t5-,6+,7+/m1/s1
