15
gdb 12151	3.70281	1.46265	1.13436	2.0891	66.7	-0.2622	-0.0405	0.2217	1013.269	0.117663	-362.690879	-362.682934	-362.68199	-362.723611	28.312	
C	 0.0609048477	 1.6690257775	 0.0267919889	-0.41532
C	 0.0931767337	 0.1501341332	-0.030639182	-0.098412
C	 0.7741357596	-0.5738595377	-1.2538628045	-0.168076
C	 1.5208081981	-1.5416010126	-0.2724864948	-0.356519
C	 1.089836703	-0.605135285	 0.8682696304	 0.389698
O	 1.4543532037	-0.4490196519	 1.9949010014	-0.281558
C	-0.1061781545	-1.173375383	-2.2395205574	 0.270683
N	-0.8204974382	-1.6557043588	-3.0104318623	-0.321221
H	 1.0531195814	 2.0933601879	-0.1568879297	 0.126736
H	-0.6308809691	 2.0778314866	-0.7153915989	 0.137174
H	-0.2645744853	 1.998444508	 1.0175095562	 0.147544
H	-0.9080175432	-0.2684497949	 0.1294496632	 0.130464
H	 1.4773505881	 0.0963465675	-1.755525118	 0.133025
H	 1.0425442471	-2.5224974541	-0.1989556917	 0.157748
H	 2.5931647279	-1.6780177826	-0.4230197407	 0.148033
62.7977	137.8327	187.0158	205.524	208.8328	325.5952	430.6336	484.2781	528.0709	593.2784	637.9873	753.346	765.3462	880.9336	918.8219	1016.267	1035.9303	1047.0333	1096.0043	1130.8442	1157.4885	1206.3507	1226.8642	1232.5396	1316.5105	1358.281	1409.409	1440.3797	1492.3671	1494.0201	1902.4255	2355.9336	3041.0124	3045.1262	3073.1324	3079.9391	3112.1012	3121.0878	3136.562
CC1C(CC1=O)C#N	C[C@H]1[C@@H](CC1=O)C#N	
InChI=1S/C6H7NO/c1-4-5(3-7)2-6(4)8/h4-5H,2H2,1H3	InChI=1S/C6H7NO/c1-4-5(3-7)2-6(4)8/h4-5H,2H2,1H3/t4-,5-/m0/s1
