18
gdb 109758	2.66621	1.18832	1.14534	6.4896	68.3	-0.2505	0.0169	0.2673	1162.5229	0.14924	-476.236249	-476.227809	-476.226865	-476.26949	32.114	
N	-0.8091700184	 1.0970940208	-0.0659868899	-0.519218
H	-0.8123723211	 0.0843562725	-0.1395504793	 0.247451
H	-0.1976029499	 1.4426934446	-0.79998694	 0.242875
H	-2.3872039976	 2.0892758618	 0.1750635563	 0.307868
C	-0.3056917388	 1.515871952	 1.2644322011	-0.215901
C	-0.4331193061	 3.0259673889	 1.4032031901	-0.077744
C	-1.753386094	 3.6597568214	 1.0643752464	 0.067673
O	-2.8080724459	 2.7977064571	 0.7179379315	-0.437147
C	-1.2815172139	 3.6816085026	 2.5021362211	-0.218157
C	-1.9139945281	 2.8795467113	 3.6111318475	 0.42443
O	-2.862969135	 1.9982484144	 3.2477900143	-0.387336
O	-1.580273122	 3.012850842	 4.7588231937	-0.340665
H	-0.9185920981	 1.0035685345	 2.0096685782	 0.145011
H	 0.7349910915	 1.2157206033	 1.4455493666	 0.111992
H	 0.4554321246	 3.5866817261	 1.1291279236	 0.103781
H	-1.7690752191	 4.606368532	 0.5295291894	 0.109826
H	-3.0770869055	 2.141500165	 2.2976962101	 0.313599
H	-0.8937213326	 4.6226238397	 2.8732472795	 0.121663
84.2661	108.3369	173.376	249.2001	288.295	306.1362	369.9297	406.7678	442.7588	522.9779	639.5992	713.4741	755.8529	767.6388	797.5995	803.5632	851.2602	892.6417	966.4463	980.1763	1006.5881	1010.6751	1051.4852	1068.6483	1109.4677	1136.7702	1209.3493	1248.349	1272.0396	1315.4355	1348.9974	1366.4973	1419.2587	1432.2322	1459.4336	1479.0421	1516.7602	1650.2237	1853.5037	3013.6388	3100.527	3130.7351	3152.8463	3190.8829	3351.0278	3425.7232	3494.1931	3574.3725
[NH3+]CC1C(O)C1C([O-])=O	NC[C@H]1[C@@H](O)[C@H]1C(=O)O	
InChI=1S/C5H9NO3/c6-1-2-3(4(2)7)5(8)9/h2-4,7H,1,6H2,(H,8,9)	InChI=1S/C5H9NO3/c6-1-2-3(4(2)7)5(8)9/h2-4,7H,1,6H2,(H,8,9)/t2-,3+,4-/m1/s1
