22
gdb 78804	1.82762	1.75332	1.66823	1.725	84.98	-0.2371	0.0729	0.31	1071.5787	0.193635	-367.168363	-367.159212	-367.158268	-367.201721	35.187	
C	-0.0473410061	 1.584002917	-0.359330087	-0.441253
C	 0.2222205645	 0.088048359	-0.2318839756	 0.009165
C	 1.3140932952	-0.6381984867	-0.9937461406	-0.071448
C	 2.5427810904	-0.7608899787	-0.1438527001	-0.071435
C	 2.307322982	-0.1197422154	 1.2102006655	 0.009161
C	 2.7188736255	 1.3083791073	 1.5536098569	-0.441252
C	 0.844328023	-0.6113834806	 1.0112552835	 0.278747
C	-0.0069708268	-1.0046663813	 2.1855181668	-0.499934
N	 1.4043245446	-1.7227319916	 0.0411947985	-0.191095
H	 0.8634927727	 2.1839791419	-0.3736410037	 0.122456
H	-0.5873558681	 1.7885315685	-1.2903940474	 0.116739
H	-0.6754686168	 1.9418005806	 0.4642525114	 0.116155
H	-0.71334973	-0.4509670835	-0.4309821573	 0.083196
H	 1.3352679381	-0.8823343903	-2.051120085	 0.086942
H	 3.4855394249	-1.097131453	-0.5636668571	 0.08695
H	 2.7418187402	-0.7952249323	 1.9587941066	 0.083183
H	 2.4997846459	 2.0208473749	 0.7572515884	 0.12247
H	 2.21699345	 1.6538783007	 2.4644341943	 0.116164
H	 3.7972315033	 1.3515115268	 1.7423217975	 0.116743
H	-0.3126195873	-0.1190090306	 2.7554541719	 0.119323
H	-0.9125413592	-1.5247301674	 1.8571182034	 0.124508
H	 0.5399003039	-1.6697961353	 2.8614650592	 0.124513
104.8784	143.992	168.0019	183.8138	198.8626	262.8687	275.5501	333.7334	371.397	542.524	599.0633	627.8791	695.5641	699.546	754.3113	801.5031	815.5948	870.2009	907.1332	927.7777	1022.8919	1029.5254	1033.4374	1075.6731	1089.2953	1093.7313	1110.6956	1122.0463	1128.9413	1155.3792	1208.3049	1226.3521	1256.3766	1320.0405	1338.9867	1379.1445	1395.289	1404.8383	1406.4782	1413.9841	1423.7643	1480.397	1484.4583	1489.9658	1492.1692	1498.7048	1513.9878	3018.677	3019.8148	3027.0233	3034.4985	3038.4114	3089.7271	3090.5495	3093.8952	3104.7353	3125.1047	3143.7004	3159.2535	3171.4364
CC1C2C3C(C)C1(C)N23	C[C@H]1[C@H]2[C@H]3[C@@H](C)[C@]1(C)N23	
InChI=1S/C8H13N/c1-4-6-7-5(2)8(4,3)9(6)7/h4-7H,1-3H3	InChI=1S/C8H13N/c1-4-6-7-5(2)8(4,3)9(6)7/h4-7H,1-3H3/t4-,5+,6-,7+,8+,9?
