19
gdb 37694	3.46254	1.94293	1.48421	0.2252	83.76	-0.2317	0.02	0.2517	912.9574	0.16255	-348.691023	-348.684894	-348.68395	-348.720988	27.072	
C	-0.0824597788	 1.5927834824	 0.0153072602	-0.347974
C	 1.4354541573	 1.2645386711	 0.0005999813	-0.085846
C	 1.2467720283	 0.0367039559	 0.9435132795	-0.054144
C	 1.9061084174	-0.9954268132	-0.004459309	-0.093841
C	 1.1852995782	-2.3243313246	 0.0021815177	-0.065474
C	-0.1510345437	-2.3747168988	 0.0150538699	-0.071424
C	-0.9839678051	-1.1048328285	 0.0233766251	-0.406332
C	-0.0211939678	 0.0536293053	 0.0143575248	 0.36588
C	 1.2286246736	 0.0371387369	-0.9390738754	-0.054146
H	-0.4748716185	 2.0728889415	 0.9188432266	 0.089294
H	-0.4922196621	 2.0733176607	-0.8802641233	 0.089295
H	 2.2794073141	 1.9556269948	-0.0073760652	 0.066548
H	 1.2295098471	 0.0401544315	 2.035559379	 0.064895
H	 2.9963632546	-1.074427769	-0.0149866492	 0.052707
H	 1.7704933221	-3.2394921046	-0.0036748243	 0.08352
H	-0.6767663073	-3.3254199528	 0.0198996445	 0.086155
H	-1.6542320673	-1.0802805904	-0.8477317672	 0.107997
H	-1.6373096286	-1.0806774574	 0.9072586621	 0.107997
H	 1.1903222665	 0.0410872091	-2.0305824971	 0.064895
233.313	308.7866	398.0455	398.4259	490.7011	528.8157	612.7304	705.703	742.4462	742.9489	843.6044	859.0506	870.806	893.9159	911.9995	921.2905	924.1256	967.0204	987.8273	999.3568	1006.3048	1029.9134	1058.1524	1097.5231	1114.2307	1139.372	1142.6984	1177.6683	1178.2401	1201.0273	1204.4271	1223.4805	1237.0486	1275.7933	1318.6536	1347.5639	1367.3495	1396.2364	1473.6639	1510.4972	1687.6925	3001.8578	3026.0347	3027.1222	3069.3727	3082.9275	3086.0845	3088.648	3107.2956	3154.8963	3178.3285
C1C2C3C4C=CCC13C24	C1[C@H]2[C@@H]3[C@H]4C=CC[C@@]13[C@@H]24	
InChI=1S/C9H10/c1-2-5-7-6-4-9(7,3-1)8(5)6/h1-2,5-8H,3-4H2	InChI=1S/C9H10/c1-2-5-7-6-4-9(7,3-1)8(5)6/h1-2,5-8H,3-4H2/t5-,6+,7+,8-,9-
