20
gdb 58847	2.54812	1.44052	1.08001	2.4651	79.95	-0.2572	0.0221	0.2793	1183.3143	0.169946	-403.12865	-403.119654	-403.11871	-403.162326	34.3	
C	-0.2358832745	 1.5941517477	-0.1373342652	-0.394194
C	-0.0308159441	 0.0755919718	-0.0048203896	-0.077655
C	-1.3567033148	-0.6543209	 0.2433888195	-0.405959
C	 0.7185246478	-0.4524333667	-1.2060251325	 0.215073
C	 0.1054211234	-0.8810765124	-2.5505532355	-0.341069
C	 0.9768435769	-1.821736556	-1.7982260539	 0.018941
O	 2.3689155835	-1.4937896812	-2.0631046201	-0.278107
C	 2.1842487629	-0.2536180255	-1.4531687911	 0.40282
N	 3.0136398624	 0.6406250378	-1.1638333972	-0.563539
H	 0.7206052508	 2.1013824001	-0.2870290501	 0.151674
H	-0.8837911992	 1.8251697224	-0.9905558559	 0.111293
H	-0.7070431191	 2.0000054457	 0.7637661944	 0.107504
H	 0.6165751598	-0.0978342263	 0.8652806705	 0.089857
H	-2.0778010229	-0.4634225871	-0.5589341265	 0.11814
H	-1.2163513995	-1.7374143739	 0.3257211099	 0.11222
H	-1.8091678959	-0.3051779099	 1.1763713943	 0.120545
H	-0.9601466476	-1.0833853983	-2.5086517906	 0.127052
H	 0.4599659044	-0.4576903771	-3.4852238635	 0.130161
H	 0.7594631382	-2.8253947562	-1.4599987577	 0.125088
H	 3.9568176773	 0.384187215	-1.4603994495	 0.230155
58.2954	137.2678	195.302	201.43	241.8112	267.3429	297.6394	364.7318	427.1429	468.8902	525.6396	625.9072	668.4675	760.3576	854.8521	863.1563	865.2901	906.6925	925.9321	935.4986	940.115	968.5554	1008.1799	1019.6684	1042.5789	1077.8423	1127.9894	1141.7723	1167.8328	1190.4033	1255.7314	1280.3908	1346.0268	1361.5273	1399.9383	1405.4549	1423.2777	1478.3147	1490.7145	1493.2849	1506.2275	1515.7444	1824.8759	3014.4979	3029.6721	3033.3889	3095.5413	3099.2692	3106.4689	3123.8143	3124.9664	3213.7556	3220.5459	3477.5409
CC(C)C12CC1OC2=N	CC(C)[C@]12C[C@H]1O[C]2[NH]	
InChI=1S/C7H11NO/c1-4(2)7-3-5(7)9-6(7)8/h4-5,8H,3H2,1-2H3	InChI=1S/C7H11NO/c1-4(2)7-3-5(7)9-6(7)8/h4-5,8H,3H2,1-2H3/t5-,7-/m1/s1
