18
gdb 64896	2.01393	1.70418	1.07705	0.8252	85.73	-0.2344	0.0242	0.2586	1164.0931	0.143254	-364.725278	-364.715175	-364.714231	-364.759572	37.746	
C	-0.0454599245	 1.527252886	-0.0851963365	-0.462797
C	-0.0285012385	 0.0122536353	 0.0341190478	 0.094983
N	 1.2901448518	-0.63572377	-0.1523085929	-0.398223
C	 0.6691576002	-0.6924153554	 1.1910496673	 0.095019
C	 1.3838804692	 0.0834777961	 2.285068065	-0.462752
C	 0.1297645717	-1.9542982213	 1.6339283506	 0.29987
C	-0.2740859441	-3.0088651733	 2.0475596187	-0.449448
C	-1.1840823636	-0.6272601429	-0.5447359004	 0.299868
C	-2.1528164281	-1.111311583	-1.0677521229	-0.449456
H	 0.88653854	 1.9626900642	 0.2751642447	 0.132134
H	-0.1666108039	 1.8082023171	-1.1354684935	 0.135767
H	-0.8827477048	 1.9496848933	 0.477918886	 0.130429
H	 1.1678981113	-1.5297079251	-0.6230814386	 0.244472
H	 1.8574242387	 0.9814560117	 1.8882424223	 0.13208
H	 0.6853566163	 0.3644068009	 3.0786276826	 0.130433
H	 2.1639465592	-0.5440586898	 2.7259568981	 0.135772
H	-0.647387984	-3.9397945613	 2.3963052223	 0.195925
H	-3.0063310869	-1.5572942527	-1.5152113707	 0.195927
110.3842	116.4694	151.7074	161.818	184.1126	190.2317	292.6486	314.0304	373.175	410.2075	461.1504	544.3944	575.1176	605.9206	614.935	619.5228	645.9306	652.6409	654.3168	696.2147	812.0184	908.8462	992.7617	1057.5421	1057.8429	1092.8348	1120.6728	1133.4601	1260.5493	1321.9113	1360.3972	1405.0025	1417.671	1474.5234	1484.5834	1489.9917	1505.3617	2233.1562	2233.6093	3048.9656	3052.5975	3114.9868	3116.1493	3144.4678	3157.2845	3502.3805	3502.4999	3504.3648
CC1(NC1(C)C#C)C#C	C[C@]1(N[C@]1(C)C#C)C#C	
InChI=1S/C8H9N/c1-5-7(3)8(4,6-2)9-7/h1-2,9H,3-4H3	InChI=1S/C8H9N/c1-5-7(3)8(4,6-2)9-7/h1-2,9H,3-4H3/t7-,8+
