16
gdb 49154	3.94102	1.39939	1.1895	3.3976	76.76	-0.2309	-0.0664	0.1645	1020.3191	0.126029	-400.719907	-400.713163	-400.712219	-400.751218	26.497	
O	-0.0532944936	-0.0352105175	-0.0100015096	-0.277263
C	 0.0014117637	 1.17659859	-0.0186159516	 0.062596
C	 1.2436164472	 1.9394474387	-0.0442728595	 0.247816
C	 1.3763705014	 3.2721895613	 0.0750244102	-0.166722
C	 2.81301745	 3.6103971102	 0.0350007648	-0.072238
C	 3.7841811293	 2.8159663235	 0.8853762379	-0.035956
C	 3.2435854711	 1.4865164178	 1.375063436	-0.246249
C	 2.6292467205	 1.3407368394	-0.054936447	-0.121002
N	 3.5582911323	 2.4651728908	-0.5537534472	-0.136421
H	-0.9223159451	 1.7967662344	-0.0196661589	 0.070515
H	 0.5793427112	 3.9964047114	 0.1920285055	 0.125615
H	 3.143266938	 4.5948353514	-0.2799000184	 0.104922
H	 4.7001641287	 3.2905949349	 1.225114336	 0.103429
H	 4.0652375891	 0.7819717999	 1.5173848173	 0.126271
H	 2.5733292421	 1.4524602306	 2.2381470371	 0.109507
H	 2.7428266641	 0.391128713	-0.5710495226	 0.10518
101.0775	171.237	238.8635	349.8858	455.9268	497.5936	550.9542	680.0826	741.1818	760.9334	782.2842	801.6885	832.6577	880.0694	910.1234	939.2871	976.5416	1003.9807	1033.6052	1035.956	1059.5305	1094.131	1142.7705	1155.9157	1197.7018	1234.1313	1259.247	1261.1864	1343.4373	1356.6239	1369.6378	1417.9957	1487.1378	1660.6356	1772.9457	2884.115	3061.6778	3123.0707	3153.575	3155.1961	3171.4759	3214.115
O=CC1=CC2C3CC1N23	O=CC1=C[C@H]2[C@H]3C[C@@H]1N23	
InChI=1S/C7H7NO/c9-3-4-1-6-7-2-5(4)8(6)7/h1,3,5-7H,2H2	InChI=1S/C7H7NO/c9-3-4-1-6-7-2-5(4)8(6)7/h1,3,5-7H,2H2/t5-,6-,7+,8?/m0/s1
