17
gdb 8540	3.53785	2.22488	1.65353	1.6432	68.29	-0.2182	0.0726	0.2908	821.6779	0.140324	-363.74466	-363.737363	-363.736419	-363.775752	28.281	
C	-0.6345392364	 1.4288257336	-0.4341683366	-0.329065
N	-0.4111458233	 0.0191963127	-0.1335077371	-0.108716
C	-1.2286876172	-0.5815055779	 0.9591250465	-0.124696
C	-0.1188639442	-1.6222944013	 1.267133442	 0.085481
O	-0.1092359422	-1.3975516704	 2.697963013	-0.353232
C	-0.3297558616	-0.054815047	 2.1580947604	 0.457746
C	-0.4670649082	 1.0504376348	 3.1582365075	-0.53182
C	 0.6116173485	-0.3018768811	 0.902801665	-0.124699
H	 0.1849279237	 1.7937434638	-1.0621977511	 0.122712
H	-1.5612061819	 1.528360186	-1.0090547693	 0.122714
H	-0.7080001402	 2.0882652539	 0.4454292466	 0.09763
H	-2.3103497106	-0.717466313	 0.907516965	 0.086197
H	 0.0220513932	-2.6281865909	 0.877523556	 0.10251
H	 0.4385729883	 1.1146238146	 3.7700570956	 0.138175
H	-0.627741117	 2.0148257773	 2.6717190362	 0.134705
H	-1.3135175284	 0.8493227911	 3.8228352197	 0.138161
H	 1.6797889374	-0.1111859862	 0.7853797806	 0.086196
153.4798	183.0599	211.9167	239.5558	302.4722	341.3056	537.4136	545.0759	639.3992	734.0862	744.6756	775.4154	811.2137	815.4812	896.9548	901.6681	958.9887	1000.6091	1093.7838	1103.5804	1103.944	1120.1851	1147.2451	1157.3558	1158.4695	1192.744	1209.5184	1280.5808	1285.9419	1363.6622	1407.4995	1448.0619	1471.9036	1483.1148	1495.2211	1496.9032	2978.147	3040.7522	3063.8149	3098.0825	3104.0203	3107.3859	3107.8012	3131.9219	3150.6068
CN1C2C3OC2(C)C13	CN1[C@H]2[C@@H]3O[C@@]2(C)[C@H]13	
InChI=1S/C6H9NO/c1-6-4-3(8-6)5(6)7(4)2/h3-5H,1-2H3	InChI=1S/C6H9NO/c1-6-4-3(8-6)5(6)7(4)2/h3-5H,1-2H3/t3-,4-,5+,6+
