17
gdb 67056	2.83957	1.36777	0.98156	3.6027	77.35	-0.2487	-0.0589	0.1898	1182.6263	0.135046	-421.891143	-421.882695	-421.881751	-421.924568	31.258	
C	-0.7435601378	 1.3536090401	-1.4113640821	-0.476927
C	-0.2684186271	 0.3107182559	-0.4384927929	 0.211692
C	-1.0950185817	-0.4731891706	 0.2719059762	-0.148679
C	-0.6722922019	-1.5010258166	 1.2844970816	-0.36263
C	 0.7782386191	-1.3369384644	 1.719432183	 0.374393
C	 1.7211496585	-0.9561420602	 0.5948916684	-0.40765
C	 1.2041663289	 0.2008472622	-0.2645032068	 0.315353
O	 1.9727371122	 0.9770418037	-0.7909623904	-0.31091
O	 1.1366552915	-1.4900520212	 2.8598746364	-0.295435
H	-0.3525841776	 1.1570001998	-2.4151106797	 0.140663
H	-1.8346113841	 1.3859164864	-1.4578757245	 0.117122
H	-0.3693292346	 2.3418581364	-1.1269024546	 0.148433
H	-2.1688824957	-0.360629869	 0.1372691169	 0.110723
H	-1.3122734804	-1.4757227416	 2.17200283	 0.142097
H	-0.7844376684	-2.5103741222	 0.856837274	 0.144895
H	 2.7176847733	-0.7268210955	 0.9738863691	 0.148645
H	 1.7989649755	-1.8266171733	-0.0744209047	 0.148214
70.6683	97.5879	146.4347	248.2563	292.9512	332.5455	364.8258	414.635	459.4654	519.2626	563.9714	650.0642	681.3372	748.1956	783.3535	852.0833	907.4208	962.0722	999.2423	1064.5484	1074.0661	1089.343	1122.8496	1184.7247	1196.8359	1250.5806	1281.365	1332.4376	1381.4159	1415.6712	1431.424	1445.7713	1471.1151	1485.8866	1701.9188	1774.1604	1835.4127	2992.4057	3012.4882	3042.6626	3082.305	3100.424	3127.2111	3136.1328	3150.852
CC12C3CC1(CC2=O)O3	CC1=CCC(=O)CC1=O	
InChI=1S/C7H8O2/c1-6-4(8)2-7(6)3-5(6)9-7/h5H,2-3H2,1H3	InChI=1S/C7H8O2/c1-5-2-3-6(8)4-7(5)9/h2H,3-4H2,1H3
