20
gdb 111118	2.95472	1.51252	1.25926	1.6505	78.54	-0.2066	0.0779	0.2844	1082.8822	0.171714	-403.076153	-403.068477	-403.067533	-403.108711	30.758	
C	 0.7201517083	-0.1589151592	-1.5925113445	-0.372135
C	 0.512014317	-0.5367986144	-0.1237098464	-0.114857
N	-0.8325740028	-1.0902325324	 0.076450058	-0.056369
C	-1.8178540357	-0.5767720483	 1.0529246164	-0.070597
C	-2.5975845153	-1.9040494163	 0.7686531972	-0.220192
C	-1.1189195538	-2.4101320964	 0.679614646	-0.070597
C	-0.7217575719	-2.2740749941	 2.184150819	 0.027449
O	 0.1760932804	-1.1922454729	 2.465874241	-0.237534
C	-1.233701512	-0.9311301097	 2.4576117693	 0.027443
H	 1.722470264	 0.2551953237	-1.7492891974	 0.101577
H	 0.6048572479	-1.0335491872	-2.2406319841	 0.1107
H	-0.0136908741	 0.5883141358	-1.9110370602	 0.110703
H	 1.2695840965	-1.2626716116	 0.1899392397	 0.10524
H	 0.6581920039	 0.3401564641	 0.5156369815	 0.105218
H	-2.2422168757	 0.4147290471	 0.8925419824	 0.07179
H	-3.2232626965	-2.3056778457	 1.5696053136	 0.094525
H	-3.1101959818	-1.9036826166	-0.1929217147	 0.111775
H	-0.8233701287	-3.3071118524	 0.1346778547	 0.071792
H	-0.7229059109	-3.1054322744	 2.8813456726	 0.102037
H	-1.6774802087	-0.6014876791	 3.391230506	 0.102031
43.0683	180.4213	209.7222	295.3589	322.4264	424.7574	445.5798	498.066	673.0714	713.8985	726.0263	772.6479	805.1651	810.7111	851.0653	877.708	894.5438	901.302	958.5445	980.7011	982.4823	1036.1578	1058.2883	1062.3095	1100.7427	1101.3645	1129.3746	1198.0083	1205.1499	1219.0032	1221.1337	1249.643	1268.4187	1275.7432	1302.4491	1321.8586	1368.5383	1398.5486	1408.1043	1464.9075	1483.8263	1489.9643	1501.758	3030.1777	3035.9571	3071.2388	3073.8621	3101.0815	3109.3389	3112.5358	3113.385	3152.0802	3164.2058	3177.1423
CCN1C2CC1C1OC21	CCN1[C@H]2C[C@@H]1[C@H]1O[C@@H]21	
InChI=1S/C7H11NO/c1-2-8-4-3-5(8)7-6(4)9-7/h4-7H,2-3H2,1H3	InChI=1S/C7H11NO/c1-2-8-4-3-5(8)7-6(4)9-7/h4-7H,2-3H2,1H3/t4-,5+,6-,7+
