18
gdb 15864	2.51166	2.08164	1.33693	1.5012	73.33	-0.2523	0.0393	0.2916	962.5224	0.152357	-347.764071	-347.755606	-347.754662	-347.796569	32.231	
C	-0.058855215	 1.5621895364	-0.1498972368	-0.411706
C	 0.0379013362	 0.0533079519	-0.0056967622	 0.037098
C	 1.0150199045	-0.7386109398	-0.9151445299	-0.274364
C	 1.3024866382	-1.6867544361	 0.2761438752	 0.163697
O	 2.5796641454	-2.2062690266	 0.4800461189	-0.429504
C	 0.7534413443	-0.5714429071	 1.251467678	-0.254908
C	 1.8321617026	 0.2255273908	 1.7999412295	 0.321489
C	 2.7803862103	 0.8404294227	 2.2175125729	-0.468339
H	 0.9232802077	 2.0319998683	-0.0425033827	 0.12635
H	-0.4580646032	 1.8286188309	-1.1345906002	 0.115276
H	-0.7213802924	 1.9950296864	 0.6075387314	 0.116513
H	-0.9614042538	-0.3909054126	-0.0651249618	 0.080384
H	 0.6291860881	-1.1760128109	-1.8386357467	 0.099605
H	 1.9031671369	-0.1412889414	-1.1477236444	 0.103115
H	 0.6157181513	-2.5379809319	 0.2765373053	 0.093851
H	 3.1547733733	-1.4708144855	 0.7295337049	 0.281655
H	 0.0966730187	-0.9190703818	 2.0540030868	 0.098504
H	 3.587553417	 1.4053321663	 2.6145630716	 0.201284
101.6755	133.4023	166.9711	212.679	283.0897	357.9882	388.3559	406.3236	432.817	497.4097	611.8553	627.9085	641.1625	660.9927	761.717	811.7074	878.5611	938.0046	958.5919	986.1943	1062.2885	1092.4577	1121.8106	1140.9401	1171.6231	1205.167	1244.7717	1250.676	1267.9811	1341.1554	1342.5897	1376.5925	1414.1863	1447.8164	1486.9418	1492.6611	1498.9379	2216.7457	3031.3117	3045.1031	3052.8246	3062.8119	3075.475	3095.1336	3109.8726	3115.4128	3500.673	3755.5442
CC1CC(O)C1C#C	C[C@H]1C[C@@H](O)[C@H]1C#C	
InChI=1S/C7H10O/c1-3-6-5(2)4-7(6)8/h1,5-8H,4H2,2H3	InChI=1S/C7H10O/c1-3-6-5(2)4-7(6)8/h1,5-8H,4H2,2H3/t5-,6-,7+/m0/s1
