23
gdb 83251	1.75093	1.69623	1.49949	1.3271	85.08	-0.2485	0.0715	0.32	1127.234	0.205832	-388.29572	-388.285988	-388.285044	-388.33013	37.012	
C	-0.2855863174	 1.5286170544	-0.0025339606	-0.417823
C	 0.0202889926	 0.0456479982	 0.071615027	-0.040011
C	 1.3213435566	-0.6228628138	-0.3199553114	-0.110019
C	 2.5988350151	 0.2087244329	-0.3891299149	-0.225198
C	 2.7343383878	 0.9019526223	 0.988442941	-0.273477
C	 1.8181768611	 0.1198666702	 1.9659804932	 0.070225
O	 1.1011267026	 0.9509253031	 2.8764048597	-0.441807
C	 0.8407700634	-0.6819129099	 1.1195382766	 0.345694
C	 0.273163808	-1.9297707044	 1.7577456235	-0.489732
H	 0.5958953922	 2.1628463419	 0.0903481436	 0.117737
H	-0.7542171606	 1.7638703515	-0.9650938279	 0.107056
H	-0.9810085574	 1.8210238115	 0.7903596306	 0.126876
H	-0.8451052353	-0.5487912786	-0.2176451512	 0.077356
H	 1.2647199215	-1.5022631992	-0.954883932	 0.072475
H	 3.4479939796	-0.4601174939	-0.5675297225	 0.098948
H	 2.5937348441	 0.931955776	-1.212805845	 0.09882
H	 3.7725683303	 0.9188088865	 1.3343824965	 0.090468
H	 2.3970054992	 1.9405329221	 0.956241633	 0.11224
H	 2.4253229321	-0.6018219279	 2.5369073422	 0.057938
H	 1.7372722785	 1.3569477452	 3.4735796409	 0.279428
H	-0.3240624667	-1.6759724227	 2.6407786129	 0.127491
H	-0.3720170183	-2.4769452094	 1.0633542148	 0.108929
H	 1.0698469807	-2.6116436761	 2.0806014301	 0.106387
54.1207	101.8618	174.9884	196.5615	213.5424	245.8708	277.3688	302.2763	341.2103	419.911	491.8803	555.6544	561.1813	663.095	713.9861	752.7552	827.874	856.5346	899.0138	944.2613	963.3939	997.5951	1026.0615	1048.2148	1069.9194	1086.0394	1108.0472	1119.6729	1122.8744	1148.4232	1196.5783	1225.6305	1242.316	1259.441	1291.7069	1318.8288	1337.2608	1353.8514	1370.7122	1413.2118	1416.333	1426.2666	1467.5316	1482.7501	1488.1443	1495.3595	1500.4661	1505.3357	1517.8686	2954.8282	3018.8812	3032.4041	3036.7727	3056.781	3063.5182	3078.8653	3093.4437	3097.9474	3105.4247	3109.1518	3144.3945	3147.7064	3815.8202
CC1C2CCC(O)C12C	C[C@H]1[C@H]2CC[C@@H](O)[C@@]12C	
InChI=1S/C8H14O/c1-5-6-3-4-7(9)8(5,6)2/h5-7,9H,3-4H2,1-2H3	InChI=1S/C8H14O/c1-5-6-3-4-7(9)8(5,6)2/h5-7,9H,3-4H2,1-2H3/t5-,6+,7+,8-/m0/s1
