20
gdb 63723	3.08348	1.24012	1.07578	2.9664	81.03	-0.2436	-0.0301	0.2136	1198.6939	0.168873	-403.12577	-403.116682	-403.115737	-403.159188	34.727	
C	-0.1920968339	 1.5786144963	 0.0659180306	-0.440609
C	 0.0522437152	 0.0777021861	-0.0209788452	 0.349102
C	-1.2580703878	-0.6833226189	-0.181894597	-0.422744
C	 1.1611820109	-0.4252980256	-0.9966024409	-0.378939
C	 1.8499483058	-1.0278886909	 0.2174009013	 0.268103
C	 2.1223580406	 0.0054743983	 1.2500627855	-0.284911
N	 0.7662335657	-0.5229443046	 1.1966872308	-0.191302
C	 2.3459066162	-2.4108377316	 0.3320509364	 0.069502
O	 2.523712913	-3.1467712418	-0.6086901942	-0.263073
H	 0.7324941585	 2.154993794	 0.1556898123	 0.114584
H	-0.7062722589	 1.9251676621	-0.8367441099	 0.124393
H	-0.825662783	 1.813067631	 0.9277224957	 0.128241
H	-1.7532986207	-0.4034142703	-1.1175207608	 0.114632
H	-1.0811083206	-1.7625044616	-0.1934205083	 0.125574
H	-1.9336321969	-0.4616527345	 0.6503621494	 0.122373
H	 0.8110607607	-1.1777305596	-1.7041269054	 0.130795
H	 1.7331613268	 0.3336740667	-1.5368953999	 0.104885
H	 2.6566363759	-0.3031394442	 2.1445856666	 0.130339
H	 2.3452046654	 1.0165436252	 0.9195067348	 0.122112
H	 2.5351610169	-2.737214106	 1.3796696082	 0.076942
81.0524	158.6817	172.3045	203.9963	253.2262	288.7458	315.4213	358.4185	391.0446	431.8905	475.5328	519.7559	617.6945	726.0377	743.6002	819.3474	836.5243	910.9285	942.3488	951.6258	981.693	995.1081	1019.8572	1032.592	1107.5866	1122.6598	1132.7482	1184.3261	1214.5306	1277.3505	1288.4912	1298.1153	1363.735	1404.8174	1419.9985	1427.9167	1476.6864	1479.845	1488.4418	1496.3964	1506.3128	1507.9903	1807.1209	2880.0192	3033.2006	3038.3099	3065.9733	3101.9382	3106.7802	3110.152	3114.1135	3115.002	3133.4376	3195.0877
CC1(C)CC2(CN12)C=O	CC1(C)C[C@]2(CN12)C=O	
InChI=1S/C7H11NO/c1-6(2)3-7(5-9)4-8(6)7/h5H,3-4H2,1-2H3	InChI=1S/C7H11NO/c1-6(2)3-7(5-9)4-8(6)7/h5H,3-4H2,1-2H3/t7-,8?/m0/s1
