22
gdb 102173	2.35955	1.09566	0.80027	3.7422	83.17	-0.2601	0.0342	0.2943	1477.9224	0.191396	-404.363198	-404.35207	-404.351126	-404.400022	39.153	
C	-0.9203625571	 1.1519184297	 0.4483240555	-0.254941
O	 0.0157248556	 0.1642322849	 0.0503181599	-0.252387
C	 0.6843792214	-0.5086020867	 1.1040579982	 0.119271
C	 0.1051719005	-1.9397311833	 1.2219533361	-0.357955
C	-1.3239730587	-1.9484491981	 1.5231305257	 0.276649
N	-2.4512058529	-1.9504158248	 1.7786742478	-0.318324
C	 2.1961816022	-0.5179070504	 0.797914102	 0.031189
C	 2.7117692336	 0.919514795	 0.6431014024	-0.402194
C	 3.0129061296	-1.2722760155	 1.8575506072	-0.406881
H	-0.4373605741	 1.9554324376	 1.023175371	 0.106894
H	-1.3345067487	 1.5773666801	-0.4689393157	 0.131121
H	-1.7391815973	 0.7292020954	 1.0425636588	 0.139751
H	 0.518786332	 0.0172508339	 2.0565705638	 0.083735
H	 0.2681247153	-2.4623031101	 0.2727966397	 0.156228
H	 0.6202789439	-2.5046944155	 2.0042367102	 0.150552
H	 2.3165504588	-1.0274531257	-0.1683434254	 0.084631
H	 2.6341538541	 1.4682973396	 1.5897345085	 0.109498
H	 3.7653115529	 0.9201526032	 0.3472988691	 0.113341
H	 2.1410844458	 1.4590056458	-0.114819936	 0.133438
H	 2.7878885799	-2.3421171332	 1.8872676672	 0.116844
H	 4.0824785926	-1.1748440005	 1.6482121225	 0.121324
H	 2.8376373107	-0.8615420317	 2.8592814614	 0.118218
57.5034	66.2029	82.6727	129.0709	167.9734	194.9203	235.2388	250.1788	281.4726	329.9145	380.1998	396.2403	411.6896	444.1166	484.2059	585.9893	832.759	858.5166	928.8786	938.679	948.7285	965.7142	1012.6546	1046.4718	1127.107	1142.2964	1161.2824	1184.1466	1190.8958	1214.9907	1251.2908	1289.0447	1334.1914	1350.1652	1371.6536	1392.2199	1398.2786	1421.4301	1456.7996	1483.9477	1489.065	1493.4146	1495.0092	1505.5254	1509.6226	1517.2133	2359.7918	2988.7506	2997.9505	3014.929	3028.6846	3034.1416	3053.2868	3067.2082	3093.5307	3098.8946	3101.0846	3109.688	3120.661	3134.9127
COC(CC#N)C(C)C	CO[C@@H](CC#N)C(C)C	
InChI=1S/C7H13NO/c1-6(2)7(9-3)4-5-8/h6-7H,4H2,1-3H3	InChI=1S/C7H13NO/c1-6(2)7(9-3)4-5-8/h6-7H,4H2,1-3H3/t7-/m0/s1
