17
gdb 98058	3.53834	1.01537	0.79705	2.6622	72.71	-0.2291	-0.1079	0.1212	1414.4726	0.133092	-455.176283	-455.165798	-455.164854	-455.213996	35.17	
C	-0.08102484	 1.4637204942	-0.0256173659	-0.308149
N	-0.1133494351	 0.0301895891	 0.1527525105	-0.294616
C	 0.520651604	-0.5716722649	 1.1947378931	 0.266024
N	 1.1118287146	 0.1005372225	 2.1150065257	-0.545884
C	 0.4289401189	-2.0855938647	 1.101379825	 0.232212
O	-0.0891847743	-2.6183545808	 0.1420634276	-0.300253
C	 0.997498622	-3.0069110665	 2.2157527068	 0.317035
C	 0.7867586672	-4.4822054325	 1.9759022275	-0.468245
O	 1.5615631431	-2.5696506283	 3.1916158845	-0.272291
H	 0.9381230468	 1.8308230891	-0.2023280284	 0.132977
H	-0.7108968709	 1.730296096	-0.8765738812	 0.120368
H	-0.4559305137	 1.9661655919	 0.871441488	 0.147183
H	-0.4477514368	-0.5718097434	-0.5802139245	 0.259221
H	 1.4940850085	-0.5282241773	 2.8161531646	 0.248764
H	-0.2813773914	-4.7018924332	 1.8832620149	 0.159404
H	 1.2425296032	-4.7806212518	 1.0270381388	 0.160473
H	 1.2209597438	-5.0440554695	 2.802642763	 0.145775
18.1168	45.3579	85.1759	117.449	122.2929	172.264	280.9641	330.4441	336.5879	347.4697	412.4359	445.4299	545.0333	588.7074	612.0962	776.4821	779.3829	885.4998	904.3322	1001.3109	1031.533	1110.7094	1159.6073	1188.3037	1203.1509	1260.4927	1346.2631	1385.0214	1451.2773	1454.8668	1459.5212	1472.9967	1513.1212	1553.2218	1680.7535	1764.2618	1805.6264	3021.3322	3053.0383	3081.5477	3115.6422	3132.7124	3165.6883	3539.1668	3663.8382
CNC(=N)C(=O)C(C)=O	CNC(=N)C(=O)C(=O)C	
InChI=1S/C5H8N2O2/c1-3(8)4(9)5(6)7-2/h1-2H3,(H2,6,7)	InChI=1S/C5H8N2O2/c1-3(8)4(9)5(6)7-2/h1-2H3,(H2,6,7)
