20
gdb 83816	2.21987	1.70349	1.44988	1.9526	79.51	-0.2283	0.0246	0.2529	1045.9947	0.171558	-403.155299	-403.146579	-403.145635	-403.188392	33.018	
C	 0.0037493571	 1.6016120103	 0.1573919372	-0.422622
C	 0.0693687695	 0.0910531349	 0.1031671804	-0.048264
C	 1.2940157932	-0.6783210968	-0.3486790106	-0.134179
C	 2.6209130468	-0.0072909009	-0.6236730761	-0.095089
O	 3.1539814045	 0.7579342444	 0.4747522178	-0.230654
C	 2.6670576315	 0.5452193954	 1.7185008826	 0.103534
N	 1.6466720223	-0.1038076063	 2.0883313124	-0.298452
C	 0.8478199285	-0.7659269476	 1.0944167288	 0.31195
C	 0.2122125819	-2.032755358	 1.6218220874	-0.445192
H	 0.9523671401	 2.0555460484	 0.4489702333	 0.136598
H	-0.2677874963	 2.006380181	-0.8240830606	 0.115018
H	-0.7567920492	 1.9306219555	 0.8729618497	 0.124872
H	-0.8686851513	-0.3657599009	-0.2059839871	 0.084654
H	 1.125642638	-1.5457419614	-0.981458783	 0.087475
H	 3.36534752	-0.7740114211	-0.8698048038	 0.119232
H	 2.5708657852	 0.6916159685	-1.4661633754	 0.118097
H	 3.2906609944	 1.0612793131	 2.4461063688	 0.123168
H	-0.4001624337	-1.8104765924	 2.5015086596	 0.126646
H	-0.4222825964	-2.5021612715	 0.8638854409	 0.105426
H	 0.9779187638	-2.7556360347	 1.9231074577	 0.117782
102.0098	137.4269	168.5325	201.4627	222.2153	247.5703	323.2203	414.0183	458.3224	499.839	580.0032	664.8916	681.6907	777.8854	785.1925	868.8377	914.5461	940.3949	955.0662	969.9715	1016.2451	1035.6011	1088.7316	1098.6517	1130.7495	1131.4107	1164.9806	1178.9701	1257.9929	1279.0501	1297.3718	1367.3979	1400.2827	1413.065	1418.6621	1424.8798	1455.1596	1479.9684	1494.9309	1499.2472	1503.8526	1515.298	1722.873	3026.0617	3032.0096	3037.4899	3061.0204	3091.8926	3098.711	3109.4964	3119.2435	3138.1707	3143.3547	3159.183
CC1C2COC=NC12C	C[C@H]1[C@H]2COC=N[C@@]12C	
InChI=1S/C7H11NO/c1-5-6-3-9-4-8-7(5,6)2/h4-6H,3H2,1-2H3	InChI=1S/C7H11NO/c1-5-6-3-9-4-8-7(5,6)2/h4-6H,3H2,1-2H3/t5-,6+,7-/m0/s1
