18
gdb 69677	3.4041	1.27779	1.18212	1.3887	82.74	-0.2233	0.0342	0.2575	1117.2888	0.14601	-364.687915	-364.679705	-364.678761	-364.720258	32.605	
C	 0.2113550316	 1.5697348911	 0.0643469407	-0.478032
C	-0.059560285	 0.0958749719	 0.0152903764	 0.332174
C	-0.9034941593	-0.6357561831	 0.9816685411	-0.307132
N	 0.5636438789	-0.8613287848	 1.0054435664	-0.183375
C	 0.9912914792	-1.7071850666	-0.1664902728	-0.030765
C	-0.0174660036	-2.1962653225	-1.1983636834	-0.193598
C	-1.3326743908	-2.7612059341	-1.0628496258	 0.273583
C	-2.4065565029	-3.3047726361	-1.0399832965	-0.410649
C	 0.4308823224	-0.7465426823	-1.184826293	-0.173077
H	 1.231509273	 1.7934535737	-0.2671186596	 0.123782
H	-0.4830370839	 2.113631803	-0.5871568132	 0.123131
H	 0.09504082	 1.9487616413	 1.0833207338	 0.129947
H	-1.2243522823	-0.0725410443	 1.8545377439	 0.117559
H	-1.5765410478	-1.4274120239	 0.6857475249	 0.149321
H	 1.9648368395	-2.1760366716	-0.0921709571	 0.107898
H	 0.5450802812	-2.7225646933	-1.9710766984	 0.126486
H	-3.3621821254	-3.7652521742	-0.993362696	 0.19491
H	 0.9047410553	-0.2971771743	-2.0486765214	 0.097838
95.9973	168.6617	196.32	253.4501	286.785	374.6058	381.0652	453.3298	576.1383	596.6711	616.3406	640.6451	650.6212	715.3777	720.844	744.6208	853.119	885.6969	917.6128	943.6037	982.8682	989.1428	1013.7226	1062.7587	1078.2626	1097.1451	1121.4974	1136.9747	1189.6572	1229.9561	1298.9985	1323.298	1380.089	1410.6655	1423.2512	1480.4064	1493.0036	1511.7411	2225.0777	3026.2249	3086.6771	3097.6937	3115.0704	3127.6296	3179.8221	3191.2735	3244.7561	3501.6053
CC12CN1C1C(C#C)C21	C[C@]12CN1[C@H]1[C@@H](C#C)[C@@H]21	
InChI=1S/C8H9N/c1-3-5-6-7(5)9-4-8(6,9)2/h1,5-7H,4H2,2H3	InChI=1S/C8H9N/c1-3-5-6-7(5)9-4-8(6,9)2/h1,5-7H,4H2,2H3/t5-,6+,7-,8+,9?/m0/s1
