15
gdb 54653	4.08142	1.1216	0.88463	2.1903	70.02	-0.2376	-0.0494	0.1882	1231.2265	0.11431	-450.191427	-450.183234	-450.18229	-450.224517	30.29	
N	-0.0629947013	 1.2943887411	 0.0066585832	-0.525931
C	 0.0285784092	-0.0514617832	 0.0016803679	 0.35602
O	 1.0587912105	-0.7032315237	-0.0082278289	-0.374892
C	-1.307332114	-0.7396671518	 0.0106091587	 0.30481
N	-2.4482862376	-0.1580636287	 0.0209489725	-0.328443
C	-3.4403889516	-1.2433018814	 0.0259806927	-0.244923
C	-2.6493098972	-2.555112459	 0.0163412834	 0.387889
N	-3.1386538039	-3.7247675503	 0.0169443014	-0.550345
N	-1.3230999592	-2.1175336543	 0.0072977083	-0.372841
H	 0.7750369372	 1.8502543106	 0.0008488849	 0.271506
H	-0.973935868	 1.7255068578	 0.0144741532	 0.284775
H	-4.0818733087	-1.1748418055	 0.9110527969	 0.151541
H	-4.0958331692	-1.1702870896	-0.848430988	 0.15154
H	-2.4132623048	-4.4432933797	 0.0094222239	 0.213801
H	-0.4829972715	-2.6733689322	-0.0012313402	 0.275494
77.4206	108.1622	172.7979	211.3341	307.5731	357.5783	425.4192	483.874	492.3968	538.6148	578.6044	641.0114	655.3149	695.2395	821.5749	858.6714	881.3658	977.3515	981.0455	1026.5759	1079.6934	1101.2726	1180.5368	1184.8743	1277.051	1314.9667	1368.4219	1449.5007	1486.4746	1604.1973	1686.0265	1766.1205	1798.2765	3053.2525	3085.6147	3463.0996	3591.6157	3657.1103	3736.3963
NC(=O)C1=NCC(=N)N1	NC(=O)C1=NC[C]([NH])N1	
InChI=1S/C4H6N4O/c5-2-1-7-4(8-2)3(6)9/h1H2,(H2,6,9)(H2,5,7,8)	InChI=1S/C4H6N4O/c5-2-1-7-4(8-2)3(6)9/h1H2,(H2,6,9)(H2,5,7,8)
