20
gdb 104468	2.2345	1.28371	1.13227	3.2516	77.	-0.2353	-0.0325	0.2028	1216.0585	0.168302	-440.259636	-440.249455	-440.248511	-440.294666	36.719	
C	 1.047012975	 1.3059351189	-1.0441669799	-0.423959
C	 0.6445911125	-0.0528571926	-0.507050747	-0.04472
N	 1.5021209173	-0.9186748209	 0.2758347018	-0.134333
C	 2.8540033804	-0.5284399316	 0.6593327477	-0.319021
C	 0.3468110098	-0.2925560424	 0.9581130614	 0.167169
C	 0.4746649963	 0.7958342015	 2.0118321263	-0.149382
O	 0.8000254254	 0.2632384339	 3.2822421562	-0.42911
C	-0.6914213483	-1.3182929121	 1.2732604263	 0.147405
O	-1.3942690711	-1.2955837625	 2.2586422997	-0.289077
H	 1.6225397101	 1.9067405821	-0.339640741	 0.130362
H	 1.649179909	 1.1833162628	-1.9509003452	 0.133129
H	 0.1526199062	 1.8749502828	-1.316603518	 0.134173
H	 0.0317776843	-0.610994595	-1.2177086012	 0.092426
H	 3.0375872867	 0.5520399391	 0.7142735356	 0.107812
H	 3.0716210311	-0.9572346595	 1.6404288783	 0.148997
H	 3.5505326637	-0.9530510378	-0.0701821223	 0.127426
H	 1.2663683715	 1.503885279	 1.7630501838	 0.105189
H	-0.4701768215	 1.3592367042	 2.0420984205	 0.103823
H	 0.0436710938	-0.2798731281	 3.5389774184	 0.299003
H	-0.7597448623	-2.1400478018	 0.5288796688	 0.092689
75.7412	100.5911	132.4922	160.9427	194.6828	222.4448	252.7734	281.831	305.36	337.4336	409.0117	511.1901	536.2365	555.0126	571.1071	713.6207	779.4804	830.6293	935.2771	998.1292	1036.7457	1053.7926	1067.9629	1079.9455	1127.1232	1148.1126	1162.734	1185.2904	1232.2684	1312.985	1351.3162	1381.2059	1403.8751	1416.2505	1425.0223	1444.4047	1457.9302	1484.3524	1486.6345	1502.0709	1505.6385	1515.8419	1796.768	2912.6508	2994.6764	3016.2949	3045.0165	3076.5653	3082.3305	3102.1444	3118.5173	3124.4644	3148.5596	3772.6167
CC1N(C)C1(CO)C=O	C[C@H]1N(C)[C@]1(CO)C=O	
InChI=1S/C6H11NO2/c1-5-6(3-8,4-9)7(5)2/h3,5,9H,4H2,1-2H3	InChI=1S/C6H11NO2/c1-5-6(3-8,4-9)7(5)2/h3,5,9H,4H2,1-2H3/t5-,6+,7?/m1/s1
