13
gdb 48192	2.68448	0.82481	0.65151	2.0231	88.56	-0.2526	-0.0537	0.1989	1609.3133	0.084431	-382.196886	-382.187375	-382.186431	-382.232253	33.084	
O	-0.0414827662	 0.0344587988	 0.0661193495	-0.224511
C	 0.0056822493	 1.2287474099	 0.0338254998	 0.179894
C	 1.3431324689	 2.0272365295	-0.0102109609	-0.458635
C	 1.370632594	 2.8093398217	-1.2462363699	 0.310883
C	 1.3346005021	 3.4216653345	-2.2785455272	-0.422274
C	 1.427892706	 2.8547468774	 1.1890208591	 0.441233
C	 1.4531240457	 3.5100234621	 2.2053606289	-0.271807
C	 1.4885176101	 4.2521167967	 3.3447076441	 0.298219
C	 1.5197149589	 4.9096450422	 4.3565825351	-0.540607
H	-0.8929920484	 1.8771719729	 0.0309028699	 0.114597
H	 2.1453880309	 1.2786552654	-0.0128847597	 0.160747
H	 1.3262077212	 3.9718585999	-3.1873875267	 0.212814
H	 1.5475003276	 5.4883072191	 5.2466547181	 0.199447
52.8392	78.2929	89.8578	170.7689	198.4781	227.8562	333.2884	417.8825	442.0742	481.756	491.6528	539.5631	546.9575	605.5378	607.4196	655.581	657.7295	784.1264	941.5009	987.6551	1036.8808	1178.7424	1211.6263	1305.2575	1400.8198	1846.5858	2184.2988	2241.1299	2363.8459	2939.7557	3036.8969	3501.1925	3503.043
O=CC(C#C)C#CC#C	O=C[C@@H](C#C)C#CC#C	
InChI=1S/C8H4O/c1-3-5-6-8(4-2)7-9/h1-2,7-8H	InChI=1S/C8H4O/c1-3-5-6-8(4-2)7-9/h1-2,7-8H/t8-/m0/s1
