15
gdb 17324	2.85492	2.48043	1.76749	2.6696	60.01	-0.2178	0.061	0.2787	768.9333	0.118588	-399.693901	-399.687171	-399.686227	-399.724294	27.191	
O	 0.1003690258	 1.4236844354	-0.0812926679	-0.425069
C	-0.0839828633	 0.0553605395	 0.0080565502	 0.057317
C	-0.4434637093	-0.7767339537	 1.2323001856	-0.195278
C	-1.6139968468	-0.1978951048	 2.0648515251	-0.036125
N	-2.0316510985	 1.1225681978	 1.496890413	-0.370099
C	-2.4958164193	-0.1560829714	 0.886816505	-0.123742
C	-1.3607440096	-0.7388222005	-0.0121236622	 0.301942
O	-1.6298363881	-1.7713241517	-0.8920995172	-0.451845
H	-0.6098202819	 1.8014455595	 0.4672162166	 0.299062
H	 0.6773043621	-0.4634002719	-0.5742390514	 0.108027
H	 0.1899304006	-1.5763674833	 1.5952473853	 0.098411
H	-1.8344200771	-0.4423259339	 3.0952785508	 0.104147
H	-2.7892484919	 1.4857235501	 2.0743819029	 0.236435
H	-3.5473469966	-0.3896150065	 0.7818331751	 0.105343
H	-1.689619936	-1.4009571646	-1.7802302008	 0.291475
206.2116	241.3253	280.8111	317.5675	344.0307	450.7592	525.7404	601.8497	675.3719	685.8643	730.0237	765.3564	818.334	831.3149	883.8935	909.7972	953.3644	956.8807	994.6719	1058.5489	1088.8353	1122.2583	1127.3534	1200.5047	1211.4155	1258.6848	1303.0537	1312.499	1327.3643	1343.1897	1440.5879	1502.4192	3122.5282	3191.1909	3198.5924	3210.3925	3472.7342	3603.667	3785.2959
OC1C2C3NC3C12O	O[C@H]1[C@H]2[C@H]3N[C@H]3[C@@]12O	
InChI=1S/C5H7NO2/c7-4-1-2-3(6-2)5(1,4)8/h1-4,6-8H	InChI=1S/C5H7NO2/c7-4-1-2-3(6-2)5(1,4)8/h1-4,6-8H/t1-,2-,3-,4+,5-/m1/s1
