15
gdb 132515	3.13813	1.36917	0.9589	1.4641	72.19	-0.2281	-0.0234	0.2047	1154.6925	0.112518	-461.985396	-461.977562	-461.976618	-462.017943	29.478	
C	-0.0254184721	 1.4984225164	 0.059595147	-0.466962
C	 0.0103280811	-0.0034503604	-0.0252256526	 0.306466
C	-0.1215343865	-0.6905907632	-1.2288834161	-0.156613
C	-0.0804024622	-2.0853889488	-1.2453086036	-0.163118
C	 0.0927817753	-2.7632219732	-0.0493217241	 0.226552
O	 0.1414327925	-4.1177297845	 0.0031541321	-0.436773
C	 0.2139451964	-1.9680086882	 1.0965688844	 0.21243
F	 0.3822450767	-2.6274211678	 2.2586502667	-0.09618
N	 0.1785939335	-0.6695052905	 1.1349750527	-0.354189
H	 0.9048747133	 1.8826304814	 0.4906078075	 0.140305
H	-0.1646896982	 1.9509252654	-0.9250336161	 0.119281
H	-0.8399583333	 1.8285691194	 0.7125591109	 0.140305
H	-0.256263845	-0.1421842787	-2.154174968	 0.100976
H	-0.180158963	-2.6482992898	-2.166391241	 0.121296
H	 0.2667062616	-4.3717148775	 0.9258336803	 0.306224
78.3826	138.0634	236.1947	298.7052	302.4901	366.1499	431.417	477.7227	479.0778	533.7448	586.4917	633.3156	727.2556	761.6202	805.9744	853.02	953.1392	961.7574	1034.4725	1060.0223	1127.1625	1174.7091	1262.2621	1287.4821	1298.976	1409.0971	1415.5681	1463.3739	1476.0223	1496.2762	1507.6931	1639.3799	1657.5599	3039.416	3097.2949	3125.5283	3190.1798	3205.9949	3796.9033
CC1=CC=C(O)C(F)=N1	Cc1ccc(O)c(F)n1	
InChI=1S/C6H6FNO/c1-4-2-3-5(9)6(7)8-4/h2-3,9H,1H3	InChI=1S/C6H6FNO/c1-4-2-3-5(9)6(7)8-4/h2-3,9H,1H3
