20
gdb 91498	2.52398	1.93424	1.53012	2.3764	79.58	-0.2018	0.0567	0.2585	963.0202	0.172066	-403.016913	-403.009562	-403.008618	-403.048172	30.405	
C	-0.0168483481	 1.4401505722	 0.1281184486	-0.325947
N	 0.1469971978	 0.002927367	 0.057216847	-0.055898
C	 0.9458086968	-0.5073846015	-1.0753398565	-0.168798
C	 1.8970939564	-1.4139091365	-0.3040103241	-0.122763
C	 2.3470184576	-0.4262766037	 0.9015288526	-0.326055
C	 0.8198074531	-0.5974579985	 1.2416039128	 0.209178
C	-0.317960375	-1.1975201417	 2.1198637719	-0.166492
O	-0.3825744397	-2.3396573825	 1.1818247407	-0.309726
C	 1.0052041573	-2.0203915309	 0.8434381754	 0.143032
H	 0.9292120899	 2.012645987	 0.1720690941	 0.085963
H	-0.5732355366	 1.7879394586	-0.7484889233	 0.120412
H	-0.6051958779	 1.6989213552	 1.0153416264	 0.115779
H	 0.3259341723	-1.0499717915	-1.7986758976	 0.109293
H	 1.4837024063	 0.2881737091	-1.6094637512	 0.088202
H	 2.623717666	-2.003864665	-0.8640217432	 0.075419
H	 3.036283835	-0.8947957964	 1.6036446602	 0.114593
H	 2.7113936679	 0.5592036035	 0.60284791	 0.108349
H	-0.0145915761	-1.5347617983	 3.11730809	 0.104272
H	-1.2608395006	-0.648425067	 2.1515187079	 0.118813
H	 1.6494146174	-2.5919757692	 1.5204474783	 0.082373
159.7452	206.6068	271.0567	274.9498	336.8346	421.4007	441.2323	508.241	587.3483	628.7415	738.0638	771.5154	802.0479	817.419	879.7309	900.9765	933.348	951.8621	974.2266	998.5184	1009.8833	1034.9523	1066.1347	1104.5762	1123.576	1153.0711	1166.1012	1171.9638	1200.6128	1214.2364	1215.37	1240.2789	1258.6996	1281.4194	1313.8007	1348.2096	1410.553	1457.559	1483.5282	1490.387	1496.7426	1504.5634	1525.0727	2919.2239	3002.5938	3033.3513	3041.2862	3047.5356	3052.4668	3078.1443	3094.7247	3112.4236	3121.6042	3149.7733
CN1CC2CC11COC21	CN1C[C@H]2C[C@]31CO[C@@H]23	
InChI=1S/C7H11NO/c1-8-3-5-2-7(8)4-9-6(5)7/h5-6H,2-4H2,1H3	InChI=1S/C7H11NO/c1-8-3-5-2-7(8)4-9-6(5)7/h5-6H,2-4H2,1H3/t5-,6+,7+/m1/s1
