19
gdb 84836	2.65644	1.52179	1.12104	1.7345	76.51	-0.2491	0.0182	0.2673	1108.3216	0.159383	-423.018243	-423.00986	-423.008916	-423.050747	33.277	
O	-0.25617578	 1.4482758583	 0.4117583123	-0.433866
C	-0.0193219109	 0.08447704	 0.0452463357	 0.053184
C	 0.9136527895	-0.5941597371	 1.0169673352	-0.093032
C	 0.7596108694	-1.8367771771	 1.4691636051	-0.05828
C	-0.3833317603	-2.7312834328	 1.0763212533	-0.34141
C	-1.5597668257	-1.9858489705	 0.4719638594	 0.386742
O	-2.4090490357	-2.7857580087	-0.3113768772	-0.475033
C	-2.1787660617	-0.8274331299	 1.208510269	-0.335064
C	-1.3672562585	-0.5924748228	-0.0519884502	-0.055193
H	 0.5864690874	 1.9131514879	 0.3777733015	 0.278334
H	 0.4474384086	 0.0571999883	-0.9550220832	 0.076559
H	 1.7748148106	-0.0063167341	 1.3299698355	 0.078589
H	 1.4971693031	-2.2580875502	 2.1477789399	 0.090142
H	-0.039263711	-3.4673840254	 0.3359260452	 0.123343
H	-0.7138424827	-3.3167454588	 1.9465898508	 0.09846
H	-2.9152284582	-3.347885395	 0.2858502213	 0.279027
H	-3.2531934259	-0.7095679806	 1.1277510878	 0.10915
H	-1.7438996036	-0.5164750248	 2.1519307359	 0.120599
H	-1.9398121844	-0.3487281767	-0.9399447772	 0.097749
95.2688	178.7841	253.3843	280.5082	288.1516	307.6696	368.7814	414.4469	419.0664	480.7341	513.9177	600.4414	677.829	736.9212	798.372	851.8455	907.4563	928.8401	949.9491	976.3607	981.5235	1004.0845	1032.1178	1053.8162	1062.608	1108.7022	1125.3725	1181.9199	1197.8204	1241.3147	1253.0795	1276.5201	1340.3036	1343.6842	1370.7239	1412.4031	1414.7493	1431.5426	1474.0447	1496.996	1723.3346	2938.8929	2999.1642	3025.8085	3134.7306	3137.3572	3162.9324	3174.7555	3229.8894	3791.9973	3810.0944
OC1C=CCC2(O)CC12	O[C@H]1C=CC[C@@]2(O)C[C@@H]12	
InChI=1S/C7H10O2/c8-6-2-1-3-7(9)4-5(6)7/h1-2,5-6,8-9H,3-4H2	InChI=1S/C7H10O2/c8-6-2-1-3-7(9)4-5(6)7/h1-2,5-6,8-9H,3-4H2/t5-,6-,7+/m0/s1
