16
gdb 72807	2.81192	1.58614	1.29485	2.8408	70.85	-0.2223	-0.0563	0.166	991.5432	0.12518	-437.88186	-437.874352	-437.873408	-437.913666	29.314	
O	 0.2875396228	 1.3844414264	-0.2222312468	-0.470247
C	 0.0727518486	 0.0096419893	-0.0255472841	 0.360918
C	 0.2290742742	-0.7999523078	-1.3358271936	-0.21125
N	-0.9977603242	-1.5608455737	-0.9988800239	-0.315684
C	-1.3625696583	-0.5858194245	 0.0695431172	-0.194672
C	-1.4432420875	-1.2858483135	 1.4329184065	 0.413358
O	-2.4170839341	-1.7886697867	 1.9389189945	-0.328369
C	-0.0610485299	-1.2454030063	 1.991854009	-0.176496
C	 0.7597101529	-0.5455698106	 1.1983963282	-0.146532
H	 0.1554239698	 1.8371266518	 0.6186012179	 0.281582
H	 0.131347886	-0.1216988667	-2.1922413416	 0.11387
H	 1.1277693806	-1.4137745313	-1.4557518437	 0.108557
H	-1.6764127654	-1.6405883315	-1.7457039351	 0.232044
H	-2.1979685262	 0.0868523744	-0.1401543666	 0.089219
H	 0.1959676081	-1.7314312734	 2.9251410798	 0.123031
H	 1.8140966526	-0.3581222157	 1.3782198022	 0.12067
105.0979	202.0231	226.4577	305.1621	328.9663	359.0603	407.8137	495.122	584.2525	610.1465	670.7786	720.7066	749.109	830.4184	878.9304	905.9765	944.8407	997.5585	1004.6092	1015.6007	1024.4579	1086.3195	1120.1174	1142.3856	1169.7941	1207.812	1244.6739	1275.4455	1318.4229	1361.1305	1365.8248	1380.9403	1505.8002	1639.147	1824.3727	3023.5102	3077.6183	3082.8978	3179.9811	3219.918	3557.8801	3796.4669
OC12CNC1C(=O)C=C2	O[C@]12CN[C@H]1C(=O)C=C2	
InChI=1S/C6H7NO2/c8-4-1-2-6(9)3-7-5(4)6/h1-2,5,7,9H,3H2	InChI=1S/C6H7NO2/c8-4-1-2-6(9)3-7-5(4)6/h1-2,5,7,9H,3H2/t5-,6+/m0/s1
