18
gdb 55163	3.56789	1.24811	1.04542	4.793	72.65	-0.2287	0.0609	0.2897	1151.8215	0.150653	-435.285904	-435.277898	-435.276954	-435.318938	30.672	
N	-0.0530763021	 1.3667367554	 0.0352693854	-0.569328
C	 0.022629507	-0.0251118744	 0.0058618096	 0.44687
O	 1.0899333343	-0.6149366658	-0.0244436833	-0.40967
N	-1.1862629434	-0.6727589758	-0.0213134208	-0.111577
C	-2.4859347749	-0.0355100392	-0.2339757796	-0.180348
C	-3.327105688	-1.1276931637	-0.8644883642	-0.052186
N	-2.7220666281	-1.6585364956	-2.1006435777	-0.323407
C	-2.5559749814	-2.3930166048	-0.8302566487	-0.052509
C	-1.2195436417	-2.1303020623	-0.1709478338	-0.153484
H	 0.8419339349	 1.7766292078	 0.2572109574	 0.257266
H	-0.8252462353	 1.789788089	 0.527404436	 0.248533
H	-2.9492358454	 0.2929954009	 0.709839479	 0.09663
H	-2.3815343512	 0.8339711435	-0.891668049	 0.131114
H	-4.4058702525	-1.0950584313	-0.758722742	 0.094736
H	-3.4425421249	-2.1108282376	-2.658413288	 0.234119
H	-3.0342115376	-3.3574324248	-0.7001019103	 0.094984
H	-0.3636164285	-2.4530105831	-0.767627077	 0.145153
H	-1.1687008612	-2.6383971283	 0.8020347668	 0.103105
49.615	116.7638	228.0249	233.7338	334.2911	370.2768	406.7892	473.0062	546.2668	571.3892	661.8567	675.3602	776.5699	815.7683	822.4838	860.6171	889.7098	953.6505	973.4939	1015.5812	1058.491	1087.6159	1107.8979	1127.0996	1146.7926	1166.8919	1211.1302	1248.2938	1251.7682	1255.7145	1335.8616	1384.1827	1387.7159	1427.3027	1455.0023	1508.209	1517.046	1624.116	1781.832	2974.6635	3010.6615	3064.382	3106.2776	3170.4399	3180.8118	3502.518	3574.7497	3686.4695
NC(=O)N1CC2NC2C1	NC(=O)N1C[C@H]2N[C@H]2C1	
InChI=1S/C5H9N3O/c6-5(9)8-1-3-4(2-8)7-3/h3-4,7H,1-2H2,(H2,6,9)	InChI=1S/C5H9N3O/c6-5(9)8-1-3-4(2-8)7-3/h3-4,7H,1-2H2,(H2,6,9)/t3-,4+
