19
gdb 37462	2.67729	2.1241	1.79612	1.7918	75.71	-0.2457	0.0738	0.3196	865.3933	0.163375	-385.869148	-385.86298	-385.862035	-385.899274	26.92	
C	-0.0397391662	 1.5522654273	-0.1617752304	-0.223644
C	 1.4327526678	 2.0011334901	 0.055911764	-0.193868
C	 2.0940157233	 0.8645314244	 0.8776062508	-0.077856
C	 1.7397371117	 0.9872751591	 2.3714546485	 0.021995
O	 0.4392692471	 1.5513324093	 2.6275234136	-0.254256
C	 0.5889866966	 0.1235870189	 2.6491233202	 0.034221
C	 0.2489634215	-0.6393905881	 1.3883833775	-0.069656
C	-0.0211061614	 0.0342577634	 0.041819507	-0.046474
C	 1.3692997996	-0.4201996145	 0.3896222872	-0.089438
H	-0.7208146907	 2.0590734769	 0.5215588334	 0.12273
H	-0.3684725466	 1.7714603877	-1.1831210556	 0.086257
H	 1.940626257	 2.0828175159	-0.9109226893	 0.091777
H	 1.5086021076	 2.9714618516	 0.5535955188	 0.103315
H	 3.1769072753	 0.8218108026	 0.7422296024	 0.068776
H	 2.5008699009	 1.2465691395	 3.1037119569	 0.091226
H	 0.4020186169	-0.3430966833	 3.6131815584	 0.092497
H	-0.1887299774	-1.6231819786	 1.5185683862	 0.080431
H	-0.6245417299	-0.5653087716	-0.6326530942	 0.082238
H	 1.8975234267	-1.2200605507	-0.1162250652	 0.079728
206.6074	275.0133	295.9021	469.6869	557.4234	603.9505	679.8074	695.1078	718.5054	783.7706	792.635	810.4595	840.6779	862.9123	882.8634	919.6253	927.7356	980.4761	986.6453	1010.0811	1029.895	1041.1437	1043.6204	1070.5504	1099.4768	1113.627	1160.0411	1184.902	1215.7061	1263.134	1266.0077	1276.4573	1294.0387	1314.2394	1329.6871	1353.7713	1361.344	1394.4915	1433.4839	1482.8155	1502.2662	3040.2602	3054.1973	3088.195	3096.862	3128.9545	3133.486	3144.9855	3151.6283	3166.1894	3177.8603
C1CC2C3OC3C3C1C23	C1C[C@H]2[C@H]3O[C@H]3[C@H]3[C@@H]1[C@@H]23	
InChI=1S/C8H10O/c1-2-4-5-3(1)6(5)8-7(4)9-8/h3-8H,1-2H2	InChI=1S/C8H10O/c1-2-4-5-3(1)6(5)8-7(4)9-8/h3-8H,1-2H2/t3-,4+,5-,6-,7+,8-/m0/s1
