18
gdb 65399	3.91573	1.06665	0.95165	1.8789	74.	-0.254	-0.0484	0.2056	1249.6771	0.145684	-439.044595	-439.035614	-439.03467	-439.078376	32.689	
C	 0.0965318822	 1.6967048159	 0.2900733866	-0.476224
C	-0.0480754399	 0.2063125848	 0.0945056462	 0.356806
O	 0.8465025567	-0.4006086325	-0.830292246	-0.264609
C	 1.0122940771	-0.7518165666	 0.5456089947	-0.104429
C	 2.2581710472	-0.3046099506	 1.2395991526	 0.141887
O	 3.0017559835	 0.5589767654	 0.8486750076	-0.248327
C	-1.4618490399	-0.3092099287	 0.0246836233	-0.064385
C	-2.1548020626	-0.3475653359	-1.2879854197	-0.23472
N	-1.7489733753	-1.5951521121	-0.614261998	-0.325678
H	 1.1467978908	 1.9857692419	 0.3271433377	 0.166767
H	-0.3854667465	 2.2205480303	-0.5413059288	 0.135046
H	-0.3989291574	 2.0102649889	 1.2148477589	 0.125934
H	 0.6884213773	-1.7603571303	 0.8064970952	 0.112159
H	 2.4454246567	-0.8459331744	 2.1942242934	 0.085922
H	-2.0493318652	-0.1086184529	 0.9184744821	 0.100604
H	-3.225573471	-0.1756249153	-1.3422485859	 0.122999
H	-1.5906223716	-0.0349162868	-2.1624886764	 0.126259
H	-0.8933182621	-1.9231499612	-1.0617663535	 0.243989
100.4501	113.107	137.6604	193.3647	209.6707	238.6415	283.2532	321.1773	385.7915	485.0566	582.9445	684.9023	750.228	822.917	841.223	873.8013	897.0698	950.2681	967.4847	988.9797	1016.4808	1054.0582	1099.8941	1118.2038	1120.4176	1150.9316	1192.483	1232.6869	1284.0599	1308.967	1323.8245	1409.9567	1415.2584	1423.0339	1430.3246	1489.248	1500.2207	1507.6656	1823.9463	2881.1141	3044.9146	3106.4308	3108.4361	3113.5323	3128.8178	3157.5235	3202.5719	3474.9924
CC1(OC1C=O)C1CN1	C[C@]1(O[C@H]1C=O)[C@H]1CN1	
InChI=1S/C6H9NO2/c1-6(4-2-7-4)5(3-8)9-6/h3-5,7H,2H2,1H3	InChI=1S/C6H9NO2/c1-6(4-2-7-4)5(3-8)9-6/h3-5,7H,2H2,1H3/t4-,5+,6+/m1/s1
