18
gdb 92318	2.38587	1.8565	1.22673	3.3722	70.37	-0.2285	-0.0387	0.1898	1019.3502	0.148706	-439.084718	-439.076806	-439.075862	-439.117393	30.673	
O	 0.5925354518	 0.7238007424	-0.9292916582	-0.442197
C	 0.1214283022	-0.2514509987	-0.0451409786	 0.167329
C	 0.1104524021	 0.0247439048	 1.4910908662	-0.273183
C	-1.2838194085	-0.664719583	 1.5846080442	-0.004858
N	-2.3535029915	 0.1009832698	 2.2415628723	-0.297575
C	-2.8302685577	 1.0990883887	 1.2793800364	-0.280428
C	-2.2234209742	 0.7497562938	-0.0909136312	 0.381734
O	-2.2979061053	 1.4340052064	-1.085311959	-0.329573
C	-1.4104862306	-0.5306937729	 0.0433912432	-0.210775
H	-0.1569062488	 1.2532470556	-1.2313965933	 0.300113
H	 0.655354357	-1.1834312756	-0.2620527353	 0.086855
H	 0.9236828688	-0.396244661	 2.0849929919	 0.106979
H	 0.0421929136	 1.0966355374	 1.6991997003	 0.114018
H	-1.2420291256	-1.6781945556	 1.9836560895	 0.080657
H	-3.1094349689	-0.5265226122	 2.4875254654	 0.22487
H	-3.9227683246	 1.128374093	 1.211751116	 0.134849
H	-2.5068717498	 2.1160536978	 1.5388420302	 0.143251
H	-1.8273269602	-1.3246491706	-0.5814680698	 0.097933
65.6194	131.3754	167.4517	280.0472	345.0385	404.5872	436.1828	478.0263	530.1523	628.8166	649.4448	698.5974	748.9007	763.6835	805.1843	887.592	911.4551	950.2321	971.4439	1017.9382	1047.5429	1064.6261	1107.0004	1143.3446	1153.1955	1167.0994	1219.3173	1220.4598	1223.5898	1255.3364	1293.7782	1297.1066	1356.5564	1375.3675	1437.6447	1456.0354	1467.0933	1480.3847	1813.2013	3023.6524	3039.6914	3064.7622	3075.9206	3081.9352	3108.4113	3128.2116	3543.7968	3757.5788
OC1CC2NCC(=O)C12	O[C@H]1C[C@H]2NCC(=O)[C@@H]12	
InChI=1S/C6H9NO2/c8-4-1-3-6(4)5(9)2-7-3/h3-4,6-8H,1-2H2	InChI=1S/C6H9NO2/c8-4-1-3-6(4)5(9)2-7-3/h3-4,6-8H,1-2H2/t3-,4+,6-/m1/s1
