18
gdb 133656	2.45462	1.14981	1.0798	1.718	60.6	-0.2875	0.0626	0.3501	1207.689	0.141979	-570.603401	-570.593533	-570.592588	-570.638365	35.879	
C	 0.077437218	 1.2261592365	 0.6190636242	-0.416978
C	-0.0176155441	-0.2219212407	 0.1138044934	 0.015777
C	-1.4735542602	-0.7082372972	 0.1194331021	-0.402462
C	 0.5739223545	-0.4164006242	-1.300746972	-0.028357
O	-0.035432021	 0.3890736103	-2.2891248167	-0.430414
C	 2.0941732536	-0.2254910884	-1.371673185	 0.27512
F	 2.7268637896	-0.8588822602	-0.3737453302	-0.075883
F	 2.5890040314	-0.6880615383	-2.5236608275	-0.066033
F	 2.4242649901	 1.0824359352	-1.2974968561	-0.096241
H	 1.1084777496	 1.5809707349	 0.6770930013	 0.130204
H	-0.4840871715	 1.9075762586	-0.0306641336	 0.113169
H	-0.3626285618	 1.3021087752	 1.6175223273	 0.12042
H	 0.5668772273	-0.8613841426	 0.7855646788	 0.093156
H	-2.0710391262	-0.1390829035	-0.5990025952	 0.132526
H	-1.543086208	-1.7673094982	-0.1502366472	 0.113421
H	-1.9190312769	-0.5838881663	 1.1108698443	 0.113672
H	 0.3958224972	-1.4518208932	-1.6112350954	 0.115209
H	 0.2354256783	 1.3010821723	-2.1334768924	 0.293693
51.9037	90.8503	175.9231	222.0085	229.5031	252.7773	281.0922	304.0041	320.0029	346.5149	411.8431	427.0497	524.574	575.1567	622.62	710.1975	803.9581	862.0959	931.8204	964.3398	973.5858	1052.2349	1099.1112	1137.1134	1174.6315	1205.4194	1220.086	1271.8823	1284.577	1330.1407	1369.4302	1377.4508	1400.8855	1423.5506	1437.9743	1490.1566	1496.7239	1509.4591	1515.9241	3034.3619	3038.2024	3045.1747	3064.2038	3100.3368	3104.2818	3117.4255	3131.6085	3807.2425
CC(C)C(O)C(F)(F)F	CC(C)[C@@H](O)C(F)(F)F	
InChI=1S/C5H9F3O/c1-3(2)4(9)5(6,7)8/h3-4,9H,1-2H3	InChI=1S/C5H9F3O/c1-3(2)4(9)5(6,7)8/h3-4,9H,1-2H3/t4-/m1/s1
