15
gdb 55593	4.9846	0.79237	0.69809	8.05	66.75	-0.2547	-0.0363	0.2184	1538.407	0.110114	-491.161716	-491.151937	-491.150993	-491.198195	32.502	
C	 0.2509908664	 1.5343710189	-0.2013982518	-0.503867
C	-0.0711550615	 0.0987890348	 0.1831098649	 0.420469
O	-0.3877800457	-0.2453516785	 1.2896519195	-0.286879
N	 0.0286542177	-0.7848727825	-0.9074861465	-0.436669
C	-0.0352023858	-2.1896584665	-0.8456443337	 0.537292
O	 0.031723338	-2.84385106	 0.1510475043	-0.290931
N	-0.1887517497	-2.7239979524	-2.1471862971	-0.401723
C	-0.0318603191	-4.0573535656	-2.5180567231	 0.171593
O	 0.3713324511	-4.9492046485	-1.8275812627	-0.247095
H	 1.2946198491	 1.6220915393	-0.5223663439	 0.148655
H	-0.3835544973	 1.8769148572	-1.0259243415	 0.138275
H	 0.0876155552	 2.1703259301	 0.667437693	 0.16363
H	 0.2710643029	-0.3726256271	-1.795440639	 0.248871
H	-0.5319078087	-2.1101265817	-2.8712557706	 0.251568
H	-0.3231949627	-4.1873866275	-3.5806337617	 0.086812
42.4466	50.0867	89.1652	104.1867	141.0506	220.5511	234.1391	314.4308	392.505	507.767	515.3845	556.3652	594.7811	639.8261	751.1918	861.9221	904.7029	964.7402	1024.0868	1028.0169	1052.3542	1137.6641	1155.9932	1229.2272	1385.6213	1446.6269	1465.1213	1482.5553	1494.133	1508.2891	1819.3424	1848.4048	1907.9355	2922.9629	3040.651	3103.4346	3168.6623	3607.4986	3620.6916
CC(=O)NC(=O)NC=O	CC(=O)NC(=O)NC=O	
InChI=1S/C4H6N2O3/c1-3(8)6-4(9)5-2-7/h2H,1H3,(H2,5,6,7,8,9)	InChI=1S/C4H6N2O3/c1-3(8)6-4(9)5-2-7/h2H,1H3,(H2,5,6,7,8,9)
