19
gdb 61060	2.94774	1.17994	1.03099	1.7618	72.06	-0.2557	-0.0429	0.2128	1204.1405	0.158189	-460.158388	-460.149452	-460.148508	-460.192314	33.526	
O	-0.0093709006	 1.5161254498	 0.3404296634	-0.445051
C	-0.0028372605	 0.1271792072	 0.093841357	 0.022903
C	 0.6906423371	-0.1531372695	-1.2190955561	 0.142962
O	 1.1744536074	 0.733784683	-1.8825513223	-0.266825
C	 0.6595715613	-0.6513811578	 1.238644928	-0.079114
C	 2.0675696554	-0.1474802748	 1.6726548299	-0.239307
C	 1.4316684036	 0.5566719243	 2.9029552201	-0.244026
C	 0.1133308683	-0.2251014985	 2.6506996255	 0.150813
O	-1.1133819536	 0.4455470647	 2.7247496877	-0.434874
H	 0.4291339004	 1.9252911986	-0.4233624463	 0.299886
H	-1.040626074	-0.2387509121	 0.0008932536	 0.10928
H	 0.739311259	-1.2139062491	-1.536094207	 0.103992
H	 0.5811460038	-1.7213362471	 1.0171291457	 0.072628
H	 2.7360125605	-0.9689989653	 1.9397057744	 0.104042
H	 2.5851516903	 0.5030234984	 0.9639778427	 0.107845
H	 1.9128637732	 0.4152353872	 3.8734615368	 0.097345
H	 1.2886986578	 1.6252511742	 2.7276150609	 0.111137
H	 0.0217883024	-1.0954715901	 3.3070631757	 0.088708
H	-1.0372068719	 1.2366953767	 2.1750856903	 0.297657
69.6094	115.3861	122.0848	184.3726	249.9855	287.5401	334.8854	413.7907	448.9199	506.7294	564.3693	575.2309	702.7003	730.8252	753.9431	813.1162	879.8162	895.33	945.428	960.3183	1003.093	1028.5503	1061.8961	1105.8514	1143.8496	1150.0233	1203.23	1228.0362	1247.0467	1259.2583	1271.5961	1280.4381	1320.4352	1344.7753	1348.9534	1401.1709	1427.0602	1455.1356	1471.3841	1492.102	1805.3098	2939.1346	2962.3711	3044.7638	3064.4568	3066.5016	3072.8323	3111.5633	3130.0098	3677.0892	3764.6608
OC(C=O)C1CCC1O	O[C@@H](C=O)[C@H]1CC[C@H]1O	
InChI=1S/C6H10O3/c7-3-6(9)4-1-2-5(4)8/h3-6,8-9H,1-2H2	InChI=1S/C6H10O3/c7-3-6(9)4-1-2-5(4)8/h3-6,8-9H,1-2H2/t4-,5+,6-/m0/s1
