19
gdb 95719	2.57424	1.37886	1.06399	2.7863	70.96	-0.2646	-0.0079	0.2567	1161.5539	0.159701	-460.193127	-460.184459	-460.183515	-460.226802	32.604	
O	-0.4434136686	 1.4310167825	-0.7105148501	-0.430203
C	-0.0458519013	 0.2118643492	-0.0953227785	 0.120442
C	-1.3317305012	-0.5695287739	 0.216682574	-0.209261
C	-1.1278014382	-1.8274345095	 1.0893260723	-0.212446
C	-0.7046291257	-3.1014866888	 0.3176444185	-0.301597
C	 0.1984099927	-2.7665744575	-0.8461967518	 0.409201
O	 0.0912291177	-3.1820504833	-1.9639728843	-0.303903
O	 1.1692336519	-1.8530265786	-0.4884091925	-0.248959
C	 0.9273009943	-0.5424154329	-1.0137252275	-0.131033
H	 0.3344614739	 1.9884325138	-0.8149212672	 0.286926
H	 0.4652532814	 0.409004271	 0.8612915193	 0.072565
H	-1.9910798795	 0.1304990022	 0.7394992422	 0.113756
H	-1.8405815323	-0.8227071961	-0.7228873099	 0.114948
H	-0.3845903395	-1.6054213667	 1.861989151	 0.111479
H	-2.060829582	-2.0516578402	 1.615792393	 0.107986
H	-0.1774924389	-3.7864922473	 0.9921298442	 0.133389
H	-1.566183617	-3.6397285759	-0.0849806613	 0.130521
H	 0.5192177599	-0.6052523157	-2.0288186187	 0.13064
H	 1.8971047322	-0.0372473119	-1.0590339027	 0.10555
50.3019	108.9748	229.0054	244.2873	265.8451	290.844	313.0775	405.4122	433.719	445.0798	545.2729	617.5269	675.6507	769.805	818.2422	870.8227	900.2365	942.3444	996.5129	1036.4571	1056.9415	1087.3047	1090.8698	1112.6883	1156.9574	1214.7818	1227.1393	1242.4719	1266.1849	1301.0871	1340.2655	1348.0195	1356.854	1382.1516	1400.6591	1436.8246	1462.409	1489.9374	1491.0616	1506.9454	1848.8561	2966.4183	3029.3738	3041.8816	3042.3247	3052.0315	3081.46	3083.0549	3096.767	3111.0537	3816.6121
OC1CCCC(=O)OC1	O[C@H]1CCCC(=O)OC1	
InChI=1S/C6H10O3/c7-5-2-1-3-6(8)9-4-5/h5,7H,1-4H2	InChI=1S/C6H10O3/c7-5-2-1-3-6(8)9-4-5/h5,7H,1-4H2/t5-/m0/s1
