14
gdb 94145	1.97088	1.59173	1.30607	6.0096	67.09	-0.2766	-0.0449	0.2317	1039.4105	0.10036	-432.844981	-432.836332	-432.835388	-432.87849	30.743	
N	 0.1715898926	 1.2144477096	-0.6001475198	-0.505789
C	 0.0789948056	-0.0625868462	 0.017403694	-0.05667
C	 0.0056382658	-0.2847464327	 1.5522486024	-0.104324
O	-1.1533282376	-1.1462927519	 1.4065323571	-0.285591
C	-1.3454308296	-0.7685508443	 0.0365397519	 0.13609
C	-2.4566415025	 0.1832422135	-0.1190668869	 0.292195
N	-3.288122694	 0.9808699424	-0.1988912437	-0.323752
C	-1.5087065405	-1.919782557	-0.8537642885	 0.267077
N	-1.5795276704	-2.8284320756	-1.5631723193	-0.316277
H	-0.2780602326	 1.9543321747	-0.0747179102	 0.252779
H	 1.1213846852	 1.4791526625	-0.8219893827	 0.252986
H	 0.7926968414	-0.7435235715	-0.4482958386	 0.137405
H	 0.8378550339	-0.8076173485	 2.0306485489	 0.132517
H	-0.2405606071	 0.6234944749	 2.1164636252	 0.121354
90.8727	124.9017	139.027	164.3064	226.1199	262.8627	355.0989	408.1968	503.2368	514.728	558.9903	586.029	611.2129	707.7853	746.3884	907.4901	973.806	1005.4889	1023.5167	1055.776	1115.0304	1159.1491	1187.2377	1259.3746	1275.2552	1329.5663	1435.0366	1517.7806	1663.9054	2359.3448	2362.9849	3028.3053	3099.6053	3117.2489	3541.1447	3636.1922
NC1COC1(C#N)C#N	N[C@H]1COC1(C#N)C#N	
InChI=1S/C5H5N3O/c6-2-5(3-7)4(8)1-9-5/h4H,1,8H2	InChI=1S/C5H5N3O/c6-2-5(3-7)4(8)1-9-5/h4H,1,8H2/t4-/m0/s1
