22
gdb 103972	2.31195	1.5008	1.14763	1.1624	81.85	-0.2313	0.0565	0.2877	1174.1571	0.193095	-404.290923	-404.281398	-404.280453	-404.324749	36.672	
C	-0.181608495	 1.5101656919	-0.2057645953	-0.317902
N	 0.1002154799	 0.1126815177	 0.0801689001	-0.076263
C	 1.3466264012	-0.5434946133	-0.2116394808	-0.037003
C	 2.5900230966	 0.304407076	 0.1339004893	-0.330828
C	 2.1312698307	 0.333782531	 1.632050729	 0.291852
C	 2.9837879989	-0.5952511013	 2.5022581131	-0.433982
C	 1.9755066148	 1.6915293768	 2.3239839453	-0.13028
O	 1.2397882637	 1.5951607402	 3.5377690339	-0.42218
C	 0.8313473903	-0.4164108155	 1.2065451428	-0.112445
H	 0.6965754258	 2.165569729	-0.2657539618	 0.111531
H	-0.7017966894	 1.5638822046	-1.1680090859	 0.123999
H	-0.855949269	 1.9069388374	 0.5599036214	 0.119039
H	 1.3405556365	-1.4043209701	-0.8723622512	 0.092607
H	 3.5278013745	-0.2383148716	-0.0029443098	 0.106227
H	 2.6722686245	 1.2667946403	-0.3813405567	 0.097713
H	 4.0063397606	-0.211511019	 2.5908242152	 0.11157
H	 2.5596335283	-0.6619097447	 3.5083551609	 0.129415
H	 3.0353903035	-1.6038409276	 2.0796296342	 0.110834
H	 2.962987248	 2.074116318	 2.608301157	 0.104798
H	 1.5251388288	 2.4327816065	 1.6524847071	 0.085403
H	 0.3519998455	 1.2972959003	 3.3128160779	 0.285547
H	 0.3391340412	-1.1652840964	 1.8217856344	 0.090348
75.6425	147.7781	158.3117	231.7707	253.3951	256.4554	288.4658	318.7578	363.4105	369.5598	432.8659	491.4516	580.9099	687.85	720.4637	815.5524	847.7819	868.5078	905.0843	952.4193	961.5365	975.0777	990.8767	1045.094	1047.5213	1060.131	1112.237	1150.5127	1160.2206	1166.8254	1183.0009	1231.2628	1236.3885	1273.8949	1279.4036	1307.6101	1381.0522	1389.6039	1401.4295	1419.0936	1452.1528	1475.5194	1489.479	1496.0413	1502.3644	1504.3973	1518.7902	3009.5363	3024.9818	3030.0546	3050.0064	3062.4518	3074.2602	3096.5052	3098.0123	3107.9599	3114.5849	3139.7859	3162.951	3809.8788
CN1C2CC(C)(CO)C12	CN1[C@H]2C[C@@](C)(CO)[C@@H]12	
InChI=1S/C7H13NO/c1-7(4-9)3-5-6(7)8(5)2/h5-6,9H,3-4H2,1-2H3	InChI=1S/C7H13NO/c1-7(4-9)3-5-6(7)8(5)2/h5-6,9H,3-4H2,1-2H3/t5-,6-,7-,8?/m0/s1
