21
gdb 95330	3.23598	1.31864	1.0349	1.1588	85.96	-0.2328	0.016	0.2489	1218.6806	0.18396	-387.082221	-387.074055	-387.07311	-387.114675	32.444	
C	-0.5544522415	 1.3977743228	 0.0183310199	-0.404053
C	 0.0866938008	 0.0072660513	-0.0381710547	-0.032929
C	 1.0478792506	-0.1017272418	-1.2438305143	-0.073401
O	 1.6656184889	-1.3774959011	-1.3700369193	-0.275039
C	 2.1904764704	-1.9141154074	-0.1798576611	 0.094789
C	 3.6837933363	-1.7341787739	 0.2715874962	-0.258952
C	 3.1528138207	-1.5938640375	 1.7415133711	-0.314476
C	 1.8192379993	-1.2437992058	 1.1123300686	 0.275044
C	 0.8899438191	-0.3030572284	 1.2122441874	-0.244991
H	 0.2065774085	 2.177766036	 0.1356099043	 0.117702
H	-1.1207844677	 1.6141748323	-0.8932476193	 0.114182
H	-1.2416942681	 1.4742383848	 0.8668590067	 0.118011
H	-0.707823829	-0.7386803675	-0.1803102838	 0.089814
H	 0.5086726546	 0.046585967	-2.1848381182	 0.102343
H	 1.8046897974	 0.6947533698	-1.1579395756	 0.085082
H	 1.9487843181	-2.9851691408	-0.1873329486	 0.088581
H	 4.3754962864	-2.5500416688	 0.0514475521	 0.100306
H	 4.0935220866	-0.7889761587	-0.0912006793	 0.113331
H	 3.1522306401	-2.5559600233	 2.2644332867	 0.111102
H	 3.6192585218	-0.8440505702	 2.3836346851	 0.111858
H	 0.7740812866	 0.3227645611	 2.0940912359	 0.081697
95.5382	194.8592	202.6386	235.2449	278.0248	328.9441	385.7759	452.1488	489.9871	500.134	658.8897	679.4733	768.0961	825.5287	848.2559	867.2583	907.0697	938.9163	940.413	982.2234	1011.7666	1022.7422	1065.7784	1082.7743	1115.7931	1136.3213	1156.5644	1166.6883	1183.3945	1221.2646	1250.8725	1254.778	1270.8699	1311.7772	1332.735	1349.5498	1382.5035	1404.4069	1416.202	1476.0269	1488.8041	1495.3027	1499.4596	1503.9832	1761.1323	2971.7447	3005.1317	3015.0606	3029.3883	3049.8112	3068.8263	3074.4477	3096.9135	3103.7792	3108.6102	3133.8723	3150.7898
CC1COC2CCC2=C1	C[C@H]1CO[C@H]2CC[C]2[CH]1	
InChI=1S/C8H12O/c1-6-4-7-2-3-8(7)9-5-6/h4,6,8H,2-3,5H2,1H3	InChI=1S/C8H12O/c1-6-4-7-2-3-8(7)9-5-6/h4,6,8H,2-3,5H2,1H3/t6-,8+/m1/s1
