17
gdb 87648	2.70146	1.29016	1.11146	3.1784	69.47	-0.2621	-0.0028	0.2593	1154.1771	0.133908	-458.965492	-458.95658	-458.955635	-458.999215	32.475	
C	 0.0739302644	 1.5447362545	 0.2739659101	-0.408305
C	-0.0292886967	 0.0399100043	 0.1618655218	-0.066449
C	 1.1499797148	-0.7788937986	-0.3625240331	-0.374318
C	 0.7519178435	-0.8426013147	 1.0680502503	 0.443299
O	 1.597062539	-0.3050836985	 2.125966062	-0.262927
C	 1.1393512604	-1.2421643813	 3.0204683696	 0.418337
O	 1.3855814213	-1.3349026935	 4.179058256	-0.326198
C	 0.2828513716	-1.9773120219	 1.9621210932	-0.166597
O	-1.1021753454	-2.0220794225	 2.1652963662	-0.419968
H	 1.0726871615	 1.8471885404	 0.6005325882	 0.133577
H	-0.1311673139	 2.0218994042	-0.6895485942	 0.122384
H	-0.6445649979	 1.9319089219	 1.0034237147	 0.13022
H	-1.015942114	-0.3424268401	-0.0870949107	 0.111331
H	 0.96250517	-1.6417441219	-0.9933868991	 0.123684
H	 2.0623861514	-0.2370233776	-0.590639802	 0.131462
H	 0.7061812992	-2.9570154102	 1.6994547064	 0.107635
H	-1.2826441192	-2.6488007343	 2.8745029405	 0.302832
86.0117	130.8641	159.7888	177.2729	194.3725	254.8547	279.388	376.2204	443.9257	502.1021	551.4872	574.7482	718.4368	792.0918	808.5076	872.2632	886.7646	916.2457	978.9499	1018.6114	1049.7778	1083.3712	1108.57	1136.4357	1157.8664	1180.4066	1194.4085	1256.0241	1283.3046	1322.4932	1402.8133	1417.4387	1447.0369	1489.7253	1493.8176	1515.3113	1941.8074	3009.8594	3039.1841	3103.371	3115.5988	3127.3853	3148.6789	3216.0722	3815.1876
CC1CC11OC(=O)C1O	C[C@H]1C[C@]21OC(=O)[C@H]2O	
InChI=1S/C6H8O3/c1-3-2-6(3)4(7)5(8)9-6/h3-4,7H,2H2,1H3	InChI=1S/C6H8O3/c1-3-2-6(3)4(7)5(8)9-6/h3-4,7H,2H2,1H3/t3-,4+,6+/m0/s1
