20
gdb 12734	2.62475	2.16354	1.79143	1.5883	74.27	-0.2372	0.0746	0.3118	888.6096	0.176641	-348.984574	-348.976488	-348.975544	-349.016698	31.033	
C	 0.263230744	 1.5732609262	 0.0241025637	-0.405929
C	 0.0669083581	 0.06538624	 0.0382779829	-0.006154
C	 0.912234637	-0.8102070745	-0.9445883995	-0.253043
C	 1.4125614768	-1.6824840061	 0.2389627672	-0.1288
C	 2.6846942268	-1.1471243657	 0.9041218894	-0.082613
O	 1.9342976337	-0.1828920069	 1.6784827922	-0.328343
C	 0.6643619586	-0.73632409	 1.2325668776	 0.445618
C	-0.2153990347	-1.1365210916	 2.3882274515	-0.47584
H	 1.3092072509	 1.8234272808	 0.2208774321	 0.129209
H	-0.0201567743	 1.9948882856	-0.9463793543	 0.108249
H	-0.3467299207	 2.0636238294	 0.7909341049	 0.111873
H	-0.9973776667	-0.1769944106	-0.0636389686	 0.06461
H	 0.3200010762	-1.3489067479	-1.6875867382	 0.098987
H	 1.7089820743	-0.2723684716	-1.4684023224	 0.096354
H	 1.2658155868	-2.7608079335	 0.1853886529	 0.071077
H	 3.1999776631	-1.8639879974	 1.5576564028	 0.095958
H	 3.422996103	-0.6709785837	 0.2462484227	 0.09631
H	-0.5067319996	-0.2507921828	 2.9648359989	 0.127677
H	-1.1280882224	-1.6269947168	 2.0344852323	 0.114209
H	 0.3098899993	-1.818929923	 3.0633796317	 0.120589
78.4228	196.5619	210.21	215.8474	241.7624	314.3144	383.7879	387.5421	511.9269	616.7263	638.9957	783.8566	824.4492	852.1566	884.274	905.3418	918.6774	973.5939	1001.1122	1025.9204	1033.6601	1094.8875	1118.8401	1139.7281	1157.3792	1173.3471	1192.8413	1207.0918	1232.8229	1270.826	1298.9485	1331.82	1353.3882	1362.2233	1403.1147	1408.3835	1480.7606	1481.5787	1487.9563	1489.5161	1501.2599	1526.8701	3000.7093	3027.6753	3029.8386	3035.8026	3044.879	3050.0073	3091.6357	3096.5594	3102.2133	3108.8665	3116.1826	3119.357
CC1CC2COC12C	C[C@H]1C[C@H]2CO[C@@]12C	
InChI=1S/C7H12O/c1-5-3-6-4-8-7(5,6)2/h5-6H,3-4H2,1-2H3	InChI=1S/C7H12O/c1-5-3-6-4-8-7(5,6)2/h5-6H,3-4H2,1-2H3/t5-,6-,7-/m0/s1
