15
gdb 27564	3.54289	1.1917	0.89668	2.6089	82.44	-0.2732	-0.0714	0.2018	1229.0881	0.114421	-379.754415	-379.746618	-379.745674	-379.787442	28.316	
C	-0.0090453756	 1.509122202	 0.0259020341	-0.468133
C	-0.0213077738	 0.0044934902	-0.0162839087	 0.342386
C	 0.1160278536	-0.6929861736	-1.2173063194	-0.252584
C	 0.0974710925	-2.0905093689	-1.1976760907	 0.203388
C	-0.0583174066	-2.7450980201	 0.0264785718	-0.212733
C	-0.1871890962	-1.958933503	 1.166116511	 0.0096
N	-0.1708377838	-0.6262587035	 1.1585203653	-0.311698
C	 0.2359486798	-2.8354302656	-2.4126355061	 0.214521
N	 0.3478968412	-3.4369839919	-3.3947743568	-0.32215
H	 0.1168524992	 1.942950128	-0.9685107682	 0.124885
H	-0.9431845663	 1.8819968018	 0.4572361354	 0.148548
H	 0.8027558496	 1.8618560497	 0.6695225963	 0.148549
H	 0.2356383926	-0.1631840236	-2.1545429367	 0.124421
H	-0.0777564485	-3.8260710051	 0.0836989185	 0.128223
H	-0.3103049378	-2.4305729464	 2.1379527841	 0.122777
54.0066	140.9009	148.6731	202.2399	350.1913	396.8507	457.0059	467.6178	555.709	577.7276	630.9535	750.7011	760.3215	869.7758	911.9284	924.5519	997.0752	1002.2227	1019.1249	1063.098	1133.5024	1179.5039	1277.3587	1287.8944	1326.6265	1410.1283	1417.8263	1474.8129	1486.9435	1510.7432	1588.9951	1632.5958	2350.0513	3045.3737	3107.261	3131.7905	3160.2434	3206.2444	3216.5835
CC1=CC(=CC=N1)C#N	Cc1cc(ccn1)C#N	
InChI=1S/C7H6N2/c1-6-4-7(5-8)2-3-9-6/h2-4H,1H3	InChI=1S/C7H6N2/c1-6-4-7(5-8)2-3-9-6/h2-4H,1H3
