19
gdb 73165	2.46734	1.41937	1.27808	4.7243	79.48	-0.2425	0.0154	0.258	1099.7624	0.159942	-382.050419	-382.04198	-382.041036	-382.083397	32.324	
C	-0.2741467916	 1.3899513335	-0.1282300112	-0.503248
C	-0.0003282496	-0.0856582697	 0.0338829812	 0.336858
C	-1.2019149047	-1.0182498335	 0.3932956715	-0.288776
C	-0.4724484781	-1.4679006475	 1.6982067214	-0.202525
C	 0.7994378468	-0.7478786031	 1.208905056	-0.044259
N	 1.549383452	-1.5649628794	 0.2145831712	-0.317442
C	 1.0569624785	-0.7379053445	-0.911422992	-0.175309
C	 0.5842671815	-1.4833000861	-2.0807601868	 0.302027
N	 0.1887493744	-2.0544880797	-3.0048352782	-0.33517
H	 0.6525272942	 1.9720724399	-0.181422982	 0.116934
H	-0.8452801561	 1.5815797741	-1.0446273754	 0.133977
H	-0.8632537477	 1.7721520422	 0.7121237892	 0.124541
H	-2.1408855388	-0.482722694	 0.5505742911	 0.105364
H	-1.3792643753	-1.8146449798	-0.3323608788	 0.131631
H	-0.895899614	-1.0046012685	 2.5941125286	 0.099242
H	-0.3667241553	-2.5417622244	 1.8622003882	 0.111893
H	 1.4116723489	-0.1853079421	 1.9191230375	 0.068415
H	 2.5564139978	-1.5690779091	 0.3191552398	 0.229514
H	 1.7736680971	 0.018806942	-1.2604953613	 0.106334
81.6871	133.624	177.4681	215.5309	265.6636	329.0739	362.3722	392.2307	528.3756	539.3153	573.2928	670.4111	716.2179	765.0215	826.4489	871.2348	893.9745	933.8104	950.1493	981.3496	1008.7631	1038.6333	1059.9304	1092.3852	1155.5371	1167.8689	1178.0373	1217.0681	1233.6994	1259.7925	1276.37	1295.7497	1343.0886	1368.603	1392.2536	1413.9093	1466.607	1488.5488	1490.1807	1493.3378	2351.7322	3000.9604	3022.5372	3056.2864	3067.9831	3073.264	3087.5963	3096.0518	3115.7425	3131.0751	3555.5104
CC12CCC1NC2C#N	C[C@]12CC[C@H]1N[C@H]2C#N	
InChI=1S/C7H10N2/c1-7-3-2-5(7)9-6(7)4-8/h5-6,9H,2-3H2,1H3	InChI=1S/C7H10N2/c1-7-3-2-5(7)9-6(7)4-8/h5-6,9H,2-3H2,1H3/t5-,6+,7+/m1/s1
