16
gdb 11897	4.93453	1.5881	1.34233	1.5609	67.22	-0.2063	0.0578	0.2642	924.6636	0.132135	-379.932267	-379.925063	-379.924119	-379.963847	27.692	
N	-0.0258170052	 1.3250183041	-0.1342577313	-0.579368
C	-0.0754887883	-0.0409989236	-0.0664366714	 0.455271
N	-1.0975586353	-0.7609230909	 0.1878375196	-0.381187
C	-0.6548596813	-2.1281717529	 0.0463578319	 0.348997
C	-1.2466118662	-3.1987151771	 0.920206404	-0.317485
C	-1.5768502073	-3.1526447851	-0.5573983619	-0.315798
C	 0.8443793084	-2.0635211767	-0.2866441848	-0.170332
O	 1.1098765167	-0.6474202651	-0.3606740535	-0.258266
H	 0.8778232005	 1.7300114784	 0.0562904086	 0.262029
H	-0.7988609943	 1.7843691007	 0.3213126356	 0.267963
H	-0.5934060741	-3.9898505083	 1.2765000505	 0.105628
H	-2.0138299911	-2.8903252583	 1.6211034878	 0.122247
H	-2.5648798226	-2.8129522637	-0.8458959179	 0.123229
H	-1.1467987502	-3.9118563731	-1.2040077447	 0.105814
H	 1.4845467508	-2.4946611795	 0.4908840658	 0.11393
H	 1.1018421695	-2.513273619	-1.2510060384	 0.11733
58.2389	190.4332	264.747	298.5442	370.3645	451.1689	472.5549	505.4453	561.2822	699.2108	733.3792	772.7466	837.4361	856.3341	918.5055	931.6432	946.6406	989.701	1046.7715	1053.5967	1066.5346	1090.862	1153.5197	1191.0968	1213.1255	1258.7778	1303.8739	1389.025	1431.4115	1454.0401	1498.3492	1525.9078	1618.8792	1756.6535	3033.5647	3077.4263	3122.689	3126.8306	3211.8806	3226.3252	3588.9352	3702.0034
NC1=NC2(CC2)CO1	NC1=NC2(CC2)CO1	
InChI=1S/C5H8N2O/c6-4-7-5(1-2-5)3-8-4/h1-3H2,(H2,6,7)	InChI=1S/C5H8N2O/c6-4-7-5(1-2-5)3-8-4/h1-3H2,(H2,6,7)
