21
gdb 90858	3.58466	1.41869	1.19525	0.6986	88.78	-0.2198	-0.0009	0.2189	1111.9697	0.184327	-349.89741	-349.889883	-349.888939	-349.92884	31.454	
C	-0.1113447053	 1.5810151743	 0.0942210809	-0.412889
C	 0.0121855225	 0.0601693789	 0.0272207189	 0.002701
C	 0.7558108321	-0.4379983367	-1.2682107132	-0.228851
C	 0.8643902968	-1.9720710305	-1.2684364881	-0.015431
C	 1.8145380008	-2.9578088165	-0.5288338747	-0.066414
C	 2.40648806	-2.5378230788	 0.8506573132	-0.280565
C	 1.057628967	-1.8647703292	 1.0575770715	 0.138155
C	 0.8587545792	-0.5462283331	 1.1215046563	-0.122682
C	 0.4031603143	-2.6970561405	-0.0408964813	-0.158527
H	 0.8767588017	 2.054825233	 0.1246790052	 0.112671
H	-0.6411163196	 1.9762051838	-0.7787728275	 0.110256
H	-0.657741132	 1.893540421	 0.9899569082	 0.115935
H	-0.9901399983	-0.3837746319	 0.0118707781	 0.085546
H	 0.201385267	-0.1237574686	-2.1619882078	 0.090555
H	 1.734418088	 0.0535993353	-1.3212215464	 0.098588
H	 0.5519857473	-2.4283788616	-2.2065499756	 0.082227
H	 2.1644003699	-3.8280820488	-1.0762007158	 0.084204
H	 2.5748387661	-3.4461204672	 1.4409874306	 0.104158
H	 3.2979672248	-1.9031125571	 0.8891424914	 0.092884
H	 1.5821233888	 0.0978041173	 1.6205961127	 0.081821
H	-0.4465515713	-3.3629426732	 0.0400910534	 0.085657
146.1444	204.6731	236.1939	284.3392	373.5457	424.1765	434.7267	477.6955	531.2687	670.3268	713.714	757.7361	780.1587	831.2288	849.1274	882.5268	909.4757	926.2238	936.5596	956.9812	985.4065	1015.5647	1034.5537	1055.0148	1068.8039	1089.3093	1114.2468	1130.1789	1149.3771	1172.2753	1198.9067	1225.4672	1246.7071	1296.9153	1299.4017	1316.2929	1324.4564	1370.7627	1394.3262	1410.3909	1485.9147	1492.7287	1496.4942	1498.9567	1690.2151	3017.9204	3025.5938	3027.4716	3031.5298	3058.8731	3078.5644	3093.1892	3101.0467	3117.5715	3129.7266	3151.6622	3187.451
CC1CC2C3CC(=C1)C23	C[C@H]1C[C@H]2[C@H]3C[C]([CH]1)[C@@H]23	
InChI=1S/C9H12/c1-5-2-6-4-8-7(3-5)9(6)8/h2,5,7-9H,3-4H2,1H3	InChI=1S/C9H12/c1-5-2-6-4-8-7(3-5)9(6)8/h2,5,7-9H,3-4H2,1H3/t5-,7+,8-,9+/m1/s1
