19
gdb 120419	3.04704	0.89083	0.77008	0.6101	73.42	-0.2505	0.0175	0.2679	1497.5181	0.159116	-456.328848	-456.319076	-456.318132	-456.364318	34.879	
N	 0.1826335251	 1.4975618018	 0.2071060185	-0.511995
C	 0.0992556796	 0.0664770569	 0.0300214874	-0.127823
C	-1.276454405	-0.6358953664	 0.2307318907	 0.112234
C	-2.515063706	 0.2299171209	 0.3200527832	-0.210776
C	-3.810264569	-0.5869478485	 0.272643342	-0.06808
O	-4.9679416743	 0.2193001464	 0.4138083764	-0.416926
O	-1.1298305724	-1.2666957861	-1.0942431416	-0.27123
C	 0.0274552927	-0.5650183751	-1.3584982323	 0.402756
N	 0.7137747533	-0.4739250225	-2.4042425957	-0.547099
H	 1.153375002	 1.7906553654	 0.2053214079	 0.246324
H	-0.261950807	 1.9829593479	-0.5655980736	 0.239297
H	 0.8750181481	-0.4073507522	 0.6373244987	 0.115739
H	-1.2818042874	-1.4158194942	 0.9992880929	 0.092198
H	-2.47612651	 0.8032931248	 1.2526947497	 0.128972
H	-2.5130319951	 0.9580259359	-0.5021316362	 0.086033
H	-3.840138068	-1.1827434524	-0.6512004144	 0.107715
H	-3.8352574593	-1.2907626637	 1.1123921198	 0.112621
H	-5.0412497616	 0.7714218394	-0.371006492	 0.282423
H	 0.3203509141	-1.0348698383	-3.1622646013	 0.227619
59.7438	85.2471	112.1575	128.6312	181.66	237.8625	265.6923	293.7237	353.8817	404.6252	495.575	554.6009	663.1082	746.237	791.4765	826.0319	857.1732	871.9464	881.3916	961.7884	1016.7275	1024.5621	1065.7441	1075.6163	1105.4815	1146.795	1200.0549	1209.0867	1219.603	1251.3631	1269.4534	1315.5816	1340.4011	1385.8133	1415.5545	1421.2596	1432.596	1469.8148	1512.9401	1671.8134	1817.4965	3002.1574	3020.6126	3055.869	3063.2668	3083.1437	3089.8333	3470.4724	3511.8287	3587.8647	3818.491
NC1C(CCO)OC1=N	N[C@H]1[C@@H](CCO)O[C]1[NH]	
InChI=1S/C5H10N2O2/c6-4-3(1-2-8)9-5(4)7/h3-4,7-8H,1-2,6H2	InChI=1S/C5H10N2O2/c6-4-3(1-2-8)9-5(4)7/h3-4,7-8H,1-2,6H2/t3-,4+/m1/s1
