18
gdb 48789	2.72973	1.46594	1.15094	2.0105	77.99	-0.2421	-0.0314	0.2107	1095.6244	0.147409	-401.899882	-401.891845	-401.890901	-401.932466	30.83	
O	-0.1696857109	 0.1725398271	-0.6746968669	-0.276348
C	 0.0559732922	 1.0428117179	 0.1369750158	 0.055044
C	 1.2276852695	 1.9253751244	 0.1118292937	 0.174742
C	 2.096397974	 2.0435130944	-1.1278268449	-0.3209
C	 2.7165390276	 1.4315751339	 0.0711125454	-0.077081
C	 3.1021401909	 2.4869670054	 1.1187740739	-0.302572
C	 1.6420079525	 2.9800497003	 1.1266514484	 0.272206
C	 1.084220798	 4.3379445195	 1.3085039462	-0.305225
N	 0.9539413124	 3.3098841404	 2.3682486953	-0.371025
H	-0.6359495445	 1.2067081699	 0.9951266846	 0.059127
H	 1.8097181609	 1.3573414733	-1.9175398779	 0.147427
H	 2.3913636495	 3.0380603146	-1.4521440016	 0.119767
H	 3.0141705071	 0.3908746869	 0.0887488179	 0.11725
H	 3.3727121746	 2.0565027074	 2.0849901191	 0.126713
H	 3.871538077	 3.2021043848	 0.8109430046	 0.107328
H	 1.7369822665	 5.1682954854	 1.5641618821	 0.122838
H	 0.203201042	 4.6116458149	 0.7328853389	 0.114919
H	 0.0086981605	 2.9342499894	 2.3770657455	 0.23579
107.7355	129.0807	181.8275	206.6974	295.2772	329.705	404.0544	476.9003	513.7327	568.1428	724.5421	764.0073	811.3988	833.996	879.539	899.1017	918.8958	948.271	980.3803	999.1069	1034.3795	1050.4853	1058.5382	1083.8882	1097.294	1135.2281	1155.8927	1191.6764	1242.9451	1258.4545	1274.0632	1297.355	1375.1529	1411.1584	1447.8165	1470.2392	1488.6378	1512.5777	1788.9503	2856.5771	3052.7233	3103.51	3116.9916	3119.8456	3189.7219	3199.9398	3220.0194	3498.6124
O=CC12CC1CC21CN1	O=C[C@]12C[C@H]1C[C@]12CN1	
InChI=1S/C7H9NO/c9-4-6-1-5(6)2-7(6)3-8-7/h4-5,8H,1-3H2	InChI=1S/C7H9NO/c9-4-6-1-5(6)2-7(6)3-8-7/h4-5,8H,1-3H2/t5-,6+,7+/m0/s1
