13
gdb 130180	3.58873	1.6711	1.14165	1.6385	65.42	-0.2084	0.0008	0.2092	964.7717	0.092658	-448.934783	-448.927804	-448.926859	-448.966134	26.334	
N	-0.063873863	 1.3884979465	 0.1755239161	-0.589533
C	 0.0452283427	 0.0132099642	 0.0531779431	 0.253688
N	-1.036030717	-0.7651480447	 0.0121831284	-0.308432
N	-0.5813888951	-2.0772691663	-0.0397060544	-0.377825
C	 0.7564085475	-2.0712613124	-0.0218825051	 0.46509
C	 1.2229917347	-0.7853601938	 0.0277568261	 0.142643
N	 2.6173986332	-0.8265663402	 0.0232210755	-0.340913
C	 2.8821794935	-2.0863329609	-0.0242095233	 0.026665
O	 1.777199754	-2.9496201713	-0.0558381471	-0.219451
H	 0.6718239156	 1.899761812	-0.2906806036	 0.258025
H	-0.9811347843	 1.7307710693	-0.0771261359	 0.254756
H	-1.2446610287	-2.828970877	-0.006560241	 0.281483
H	 3.8408467968	-2.5790242153	-0.0418579987	 0.153805
131.2404	194.8972	257.6305	261.8641	319.1364	450.3734	545.586	622.8855	633.5453	649.7885	689.6334	709.2121	773.468	793.8789	840.2971	910.1099	1002.6136	1027.5447	1136.1486	1155.0151	1256.6403	1323.6373	1347.2904	1465.2928	1540.3491	1554.1904	1589.0682	1626.4893	1654.418	3285.4398	3556.5805	3659.1355	3708.6527
NC1=NNC2=C1N=CO2	Nc1n[nH]c2c1nco2	
InChI=1S/C4H4N4O/c5-3-2-4(8-7-3)9-1-6-2/h1H,(H3,5,7,8)	InChI=1S/C4H4N4O/c5-3-2-4(8-7-3)9-1-6-2/h1H,(H3,5,7,8)
