23
gdb 108583	2.30859	1.43081	1.17854	1.2908	85.33	-0.2287	0.0794	0.3081	1218.6448	0.205893	-388.292233	-388.282796	-388.281852	-388.326264	35.875	
C	-0.0776548224	 1.4537571588	 0.2009311122	-0.373877
C	 0.4180598182	 0.0149674915	 0.012151449	-0.253827
C	 0.8788606588	-0.6172297683	 1.3016638637	 0.430143
O	 1.9782993196	 0.0399623291	 1.9064737042	-0.303992
C	 3.0434278033	-0.9013549621	 2.0638580938	-0.075056
C	 2.3784577257	-2.2817986305	 2.2473579828	-0.253024
C	 1.0292859693	-2.0939813867	 1.5558974457	-0.151712
C	-0.0589324206	-1.298587415	 2.2747138225	-0.067023
C	-0.0409410924	-1.0166450723	 3.7593513829	-0.41316
H	 0.7101450575	 2.0736471118	 0.6376587655	 0.133279
H	-0.374701669	 1.897965655	-0.753987456	 0.10528
H	-0.9416251411	 1.4869520437	 0.8730883752	 0.113204
H	-0.3784201222	-0.6055953198	-0.4160282562	 0.091864
H	 1.2481594094	 0.0010618008	-0.7062417614	 0.095162
H	 3.6846533611	-0.8963999832	 1.1689238803	 0.092301
H	 3.6468068066	-0.5819554881	 2.9187878699	 0.103648
H	 2.9620819422	-3.0765037576	 1.7749418602	 0.102832
H	 2.2725014662	-2.5388336345	 3.3062753487	 0.107164
H	 0.7209420977	-2.8218585981	 0.8135092104	 0.083757
H	-1.0529858797	-1.4839782591	 1.8715211638	 0.077489
H	 0.9224230819	-0.611806474	 4.0773878858	 0.128047
H	-0.8038620341	-0.273692894	 4.0148359087	 0.116426
H	-0.2488554957	-1.9199181973	 4.3439604481	 0.111078
86.8645	128.1147	146.499	171.0962	196.245	227.2897	273.9914	318.0372	371.2252	487.9197	545.812	630.996	652.8235	731.5151	774.5233	805.4618	851.3461	890.6631	925.836	943.7179	984.779	985.5465	1009.1066	1042.6455	1062.4085	1092.8667	1110.4746	1132.4221	1135.265	1159.5931	1218.4337	1226.1218	1230.6938	1255.4899	1304.0379	1317.8241	1345.6969	1364.1792	1389.0942	1405.9678	1411.6877	1454.3371	1475.2896	1489.0409	1495.5455	1500.7475	1508.1063	1509.9872	1520.5216	2982.6366	3018.6767	3033.2205	3037.7568	3048.9574	3057.5856	3079.928	3088.9156	3097.09	3104.1028	3114.417	3119.6347	3130.2898	3165.6012
CCC12OCCC1C2C	CC[C@]12OCC[C@H]1[C@H]2C	
InChI=1S/C8H14O/c1-3-8-6(2)7(8)4-5-9-8/h6-7H,3-5H2,1-2H3	InChI=1S/C8H14O/c1-3-8-6(2)7(8)4-5-9-8/h6-7H,3-5H2,1-2H3/t6-,7+,8-/m1/s1
