18
gdb 54933	4.50334	0.8738	0.79282	2.3118	73.15	-0.236	-0.0262	0.2098	1430.2243	0.145449	-439.089737	-439.080301	-439.079357	-439.125341	32.779	
C	-0.2043194229	 1.6149823092	-0.1025067826	-0.48134
C	-0.0089684056	 0.1254682095	 0.088387912	 0.372849
O	 1.0510378096	-0.3580099931	 0.4208463125	-0.306767
C	-1.2265064249	-0.7558188059	-0.1531016839	-0.054451
C	-1.4366164731	-1.1047550098	-1.6616720979	-0.279251
C	-0.9796136211	-2.529760541	-1.2810488093	-0.039914
N	-1.0094680757	-2.1819291137	 0.1678414738	-0.34495
C	-1.9390331329	-3.6590691569	-1.5927698791	 0.166074
O	-2.7843488588	-3.620465334	-2.4490284139	-0.242174
H	 0.7616605843	 2.1201906568	-0.1312956088	 0.148524
H	-0.7728468801	 1.8290579346	-1.0133030877	 0.142192
H	-0.7885449237	 2.0098869617	 0.737347411	 0.152004
H	-2.0976809275	-0.3141024693	 0.3472908352	 0.092972
H	-2.4719454319	-1.0637352812	-2.0005102256	 0.137655
H	-0.8028562416	-0.5693275488	-2.3698624713	 0.116632
H	 0.0153098057	-2.8024019975	-1.6613859293	 0.102448
H	-0.1104303016	-2.3037587707	 0.6282204679	 0.234414
H	-1.8129179484	-4.5462976598	-0.9317357228	 0.083086
46.9139	76.8528	96.0405	113.1591	135.7718	248.2247	268.8631	332.2064	420.3394	573.1255	585.1208	619.3101	714.0355	749.4497	833.8026	889.2628	914.6624	955.7566	969.7205	1001.2515	1031.079	1067.5441	1086.3468	1125.432	1147.149	1198.6408	1227.7737	1251.5084	1282.5315	1322.597	1338.8509	1383.0311	1404.6653	1435.297	1463.1223	1475.1484	1491.5552	1801.5469	1832.2565	2883.3032	3004.6535	3022.6358	3038.6533	3087.0436	3099.7198	3146.4274	3154.123	3498.4432
CC(=O)C1CC(N1)C=O	CC(=O)[C@H]1C[C@@H](N1)C=O	
InChI=1S/C6H9NO2/c1-4(9)6-2-5(3-8)7-6/h3,5-7H,2H2,1H3	InChI=1S/C6H9NO2/c1-4(9)6-2-5(3-8)7-6/h3,5-7H,2H2,1H3/t5-,6-/m1/s1
