18
gdb 68959	2.42467	1.6357	1.19651	3.4292	77.96	-0.2403	-0.0268	0.2136	1076.3108	0.147264	-401.951442	-401.943206	-401.942262	-401.984018	31.643	
C	-0.0277772054	 1.5187341319	-0.072143168	-0.464693
C	-0.05035783	 0.0161464159	 0.0675463065	 0.267443
C	-1.3454674919	-0.72989019	-0.2846611931	-0.335776
C	-1.3379283564	-1.9495444287	 0.6086281504	-0.093076
C	-0.3058378299	-1.9412866102	 1.4546759845	-0.142666
C	 0.5885823991	-0.7723743388	 1.2090261093	 0.166162
N	 1.2061909917	-0.6801983316	-0.1490262732	-0.397237
C	 1.3807656502	-0.169231754	 2.3065139143	 0.097163
O	 1.2573602148	-0.4760751139	 3.4679731649	-0.265857
H	 0.9517219691	 1.9236827247	 0.1891620021	 0.134459
H	-0.2393200421	 1.8019691706	-1.1097814085	 0.125926
H	-0.7864912559	 1.985317958	 0.5641497246	 0.126355
H	-2.2210515044	-0.0970559529	-0.0890792263	 0.121758
H	-1.3837659196	-0.9826437903	-1.3529773032	 0.118638
H	-2.0886602383	-2.7279335858	 0.538011093	 0.106685
H	-0.0907768674	-2.6727685075	 2.2226088009	 0.120951
H	 1.0686372893	-1.5698075364	-0.6260426293	 0.232991
H	 2.118327637	 0.591722569	 1.9735251014	 0.080773
99.7281	173.0608	193.6831	216.0673	248.752	323.9807	388.2904	459.002	465.3751	538.2312	588.2442	696.8136	726.2432	751.5751	790.4573	874.0943	933.7858	950.491	960.5374	974.7239	1034.29	1051.2958	1083.4242	1097.1102	1117.8623	1148.5497	1185.3424	1263.8936	1276.8973	1323.7128	1384.8421	1400.5861	1410.6678	1434.9099	1470.5422	1487.1656	1496.6215	1667.4014	1809.4677	2908.4371	3018.3863	3035.0953	3046.856	3096.4189	3133.0987	3198.4845	3230.276	3476.508
CC12CC=CC1(N2)C=O	C[C@]12CC=C[C@]1(N2)C=O	
InChI=1S/C7H9NO/c1-6-3-2-4-7(6,5-9)8-6/h2,4-5,8H,3H2,1H3	InChI=1S/C7H9NO/c1-6-3-2-4-7(6,5-9)8-6/h2,4-5,8H,3H2,1H3/t6-,7-/m0/s1
