18
gdb 37283	4.3754	1.56478	1.5075	1.0706	73.73	-0.2168	0.0922	0.309	914.8412	0.15152	-401.885435	-401.879503	-401.878559	-401.915342	25.85	
C	 0.0134702091	 1.4658386525	-0.0215343056	-0.248201
C	 1.2931328496	 0.7114117924	 0.0501425916	-0.046551
C	 1.8621896503	 0.3309372974	 1.4069967085	-0.07353
C	 1.4576538649	-1.1989474191	 1.5137805342	-0.059451
C	 1.6131412228	-1.5107819383	 2.9908547636	-0.106614
O	 1.0328459212	-0.3195463326	 3.5640022302	-0.290066
C	 0.6780708224	 0.4337571946	 2.4117608711	 0.101573
C	 0.0201926227	-0.5701644725	 1.4100873123	-0.021628
N	-0.011915491	-0.0096005253	 0.0410321598	-0.117173
H	-0.3296387257	 2.0523215046	 0.8234391	 0.119767
H	-0.2990375297	 1.8561374753	-0.9861898092	 0.117635
H	 1.9204863934	 0.6121301509	-0.8320168165	 0.095997
H	 2.8595691971	 0.6754439107	 1.6808515906	 0.072726
H	 1.7969176631	-1.9256794054	 0.7761043582	 0.082326
H	 1.0544316434	-2.3962502074	 3.3169231302	 0.106194
H	 2.6563992397	-1.6144303062	 3.3135378175	 0.103844
H	 0.2324500815	 1.3727217103	 2.7317975545	 0.085355
H	-0.8745972449	-1.131972562	 1.678961699	 0.077795
280.379	304.3836	353.5994	380.7626	508.1719	602.1524	647.0302	688.6752	788.7368	793.5895	815.9975	900.9905	920.1048	931.1016	956.4967	965.7906	973.4412	1005.748	1023.7697	1032.2767	1041.8616	1076.8876	1084.9501	1111.3955	1112.4167	1157.1168	1165.7791	1199.0145	1213.3648	1234.4748	1244.5629	1252.4299	1261.9289	1286.1897	1336.8665	1371.4331	1392.3787	1507.8088	1526.4008	3020.4275	3057.4728	3116.5745	3117.1291	3121.6516	3129.5741	3138.0096	3149.2359	3208.9279
C1C2C3C4COC3C4N12	C1[C@H]2[C@@H]3[C@H]4CO[C@@H]3[C@H]4N12	
InChI=1S/C7H9NO/c1-4-5-3-2-9-7(5)6(3)8(1)4/h3-7H,1-2H2	InChI=1S/C7H9NO/c1-4-5-3-2-9-7(5)6(3)8(1)4/h3-7H,1-2H2/t3-,4+,5+,6+,7+,8?/m1/s1
