20
gdb 108848	3.02593	1.16345	0.91606	3.8052	83.38	-0.2396	-0.0188	0.2208	1340.5491	0.170992	-403.215721	-403.206272	-403.205328	-403.2503	34.75	
C	 0.0304190856	 1.5447190098	 0.2630009495	-0.380432
C	 0.0025653229	 0.0451902713	-0.0847871768	-0.286559
C	-1.3834214077	-0.5165588074	-0.0898971829	 0.222565
C	-2.1289575591	-0.9837663171	-1.0954861218	-0.217552
C	-3.4807068458	-1.4543908547	-0.6126219633	-0.002758
C	-3.7747856868	-2.9262961583	-0.935190159	-0.389627
N	-3.379513037	-1.1891290455	 0.8087846886	-0.334113
C	-2.180155234	-0.6297591791	 1.1795901829	 0.360417
O	-1.8451319366	-0.3054881288	 2.3024889609	-0.392929
H	 1.0599506912	 1.9142624835	 0.2871326923	 0.111061
H	-0.5239860139	 2.1298756799	-0.4777216789	 0.111296
H	-0.4205724796	 1.7113408089	 1.2438822788	 0.152222
H	 0.4742228409	-0.1286666102	-1.05806803	 0.097348
H	 0.5931509792	-0.4966871361	 0.6640695816	 0.122262
H	-1.8451446489	-1.0516792287	-2.1390626021	 0.106806
H	-4.2712417597	-0.8339445225	-1.0650317397	 0.098048
H	-3.000505444	-3.5723373135	-0.5124872158	 0.13155
H	-4.7433819608	-3.2279068596	-0.5238175866	 0.118865
H	-3.8084648424	-3.079917018	-2.01842071	 0.122105
H	-4.1168830234	-1.3561255641	 1.4724322223	 0.249426
66.8524	79.4265	120.3768	200.152	216.9981	252.9622	290.2627	338.6527	388.1561	469.8266	510.267	518.5279	621.7016	710.2244	763.9858	793.4608	811.6776	871.2025	896.5389	957.6276	973.4824	1043.9551	1066.1219	1088.549	1100.8806	1143.0945	1174.8586	1227.2316	1276.3453	1301.6915	1343.8892	1352.3765	1378.7453	1401.7577	1402.5908	1418.7736	1476.6082	1493.0695	1496.0767	1496.5165	1513.148	1704.6848	1807.7094	2972.8799	3030.836	3037.1257	3040.8293	3071.9507	3106.9155	3108.1081	3123.456	3134.7005	3203.6249	3665.3507
CCC1=CC(C)NC1=O	CCC1=C[C@@H](C)NC1=O	
InChI=1S/C7H11NO/c1-3-6-4-5(2)8-7(6)9/h4-5H,3H2,1-2H3,(H,8,9)	InChI=1S/C7H11NO/c1-3-6-4-5(2)8-7(6)9/h4-5H,3H2,1-2H3,(H,8,9)/t5-/m1/s1
