23
gdb 92700	2.7176	1.20937	0.88713	1.3416	88.47	-0.2319	0.0273	0.2592	1385.1454	0.205722	-388.318896	-388.309231	-388.308287	-388.352813	37.412	
C	 0.0004344626	 1.5676206586	 0.0439413274	-0.403604
C	 0.0277002704	 0.0374788512	 0.0142077474	 0.018281
C	 0.6961618061	-0.4965419905	-1.2633684715	-0.242846
C	 0.9980250142	-1.9693623327	-1.1917243088	-0.162184
C	 0.9828273553	-2.6962398129	-0.0718269671	 0.328242
C	 1.2824413495	-4.1715819468	-0.0648013148	-0.504217
C	 0.6383466279	-2.0735071168	 1.2730194978	 0.003215
O	 1.5165998825	-2.515603951	 2.3123602028	-0.435369
C	 0.7319458182	-0.5502310901	 1.2418454019	-0.190595
H	 1.0175053455	 1.9764171419	 0.0704287714	 0.113461
H	-0.497676573	 1.973231299	-0.8434773877	 0.108703
H	-0.5309773495	 1.9393258731	 0.9263021181	 0.110396
H	-1.0115597705	-0.3233011252	 0.0186061547	 0.070544
H	 0.0605371038	-0.2893209078	-2.1347308455	 0.097654
H	 1.6298051825	 0.0584922017	-1.4491608679	 0.103712
H	 1.2484465256	-2.45832624	-2.1322726223	 0.07426
H	 1.4639240174	-4.5471283322	-1.0749345874	 0.121963
H	 2.1679695896	-4.3921237271	 0.5427101062	 0.129808
H	 0.4495576782	-4.7492733326	 0.3614183238	 0.112641
H	-0.3966542029	-2.3627436152	 1.5314414662	 0.06635
H	 1.3147221949	-3.4356029009	 2.5057573297	 0.282223
H	 1.7957343085	-0.2791997019	 1.2270812372	 0.104094
H	 0.313134823	-0.1446017619	 2.1690794884	 0.093267
79.3525	145.5898	195.0538	238.5046	251.6798	264.2642	280.2995	307.6339	344.9168	384.7329	415.676	446.8628	492.8891	604.8388	671.8274	755.3557	824.1723	851.8908	918.7835	925.5939	968.1837	989.3056	1025.2361	1053.8175	1058.4823	1076.6655	1106.3928	1119.3931	1153.9455	1164.4094	1201.8795	1261.6483	1277.8096	1312.4374	1326.8135	1340.2677	1371.5218	1382.0287	1398.0964	1404.5467	1411.4145	1424.7151	1476.7266	1480.6071	1493.0413	1497.9989	1499.7901	1501.0157	1737.6478	2926.5749	2979.2481	2994.4445	3005.9118	3022.9655	3027.9667	3029.8944	3062.1496	3073.7398	3090.6867	3096.724	3112.5907	3130.4847	3832.4429
CC1CC=C(C)C(O)C1	C[C@H]1CC=C(C)[C@@H](O)C1	
InChI=1S/C8H14O/c1-6-3-4-7(2)8(9)5-6/h4,6,8-9H,3,5H2,1-2H3	InChI=1S/C8H14O/c1-6-3-4-7(2)8(9)5-6/h4,6,8-9H,3,5H2,1-2H3/t6-,8-/m0/s1
