18
gdb 37460	2.85842	2.08949	1.77341	1.209	72.77	-0.2243	0.0664	0.2906	847.5684	0.151334	-401.894882	-401.888746	-401.887802	-401.925098	26.211	
C	 0.0383767541	 1.4143327637	-0.1086994038	-0.249241
C	 1.3140249932	 0.6531400297	-0.0472141574	-0.022648
C	 1.945134733	 0.4015486674	 1.3368013723	 0.054002
O	 1.6393309671	 1.4534450684	 2.2590511387	-0.263284
C	 0.460737877	 1.1321811429	 2.9955474341	-0.116643
C	 0.0598394771	-0.273149541	 2.5951766693	-0.080317
C	 1.2261845381	-0.8699265757	 1.8539998048	-0.103477
C	-0.0995114909	-0.7858844169	 1.15419353	-0.02452
N	 0.0273058991	-0.0567082129	-0.1061533149	-0.102848
H	-0.2790967071	 1.9578300077	 0.7705726021	 0.131051
H	-0.2771320936	 1.8576438113	-1.0500289195	 0.114352
H	 1.9546061877	 0.5739362658	-0.9227064773	 0.086331
H	 3.0319465537	 0.3115457956	 1.2829538054	 0.083952
H	 0.6973056587	 1.1470972854	 4.0689532013	 0.102772
H	-0.3132457722	 1.8906771914	 2.8217159006	 0.106454
H	-0.4740354329	-0.8577075259	 3.3375091337	 0.093815
H	 1.7616726797	-1.7712528215	 2.1243924555	 0.091488
H	-0.7405149019	-1.6567661554	 1.0688260651	 0.098761
169.9345	251.7909	319.7073	490.7149	550.2933	619.2466	645.2643	697.8125	751.4788	774.174	793.4171	820.2775	853.6476	888.8273	920.487	932.6123	986.9589	998.0574	1011.3869	1041.4851	1053.485	1058.8355	1077.7148	1106.1408	1112.3145	1129.4983	1154.1749	1172.4542	1218.4694	1258.5625	1278.8244	1285.601	1333.6116	1345.6356	1363.3735	1379.7325	1405.7348	1505.013	1537.8485	3001.0646	3029.6001	3092.7847	3120.7236	3131.6038	3159.5641	3168.5642	3190.0841	3239.452
C1C2C3OCC4C3C4N12	C1[C@H]2[C@H]3OC[C@@H]4[C@H]3[C@@H]4N12	
InChI=1S/C7H9NO/c1-4-7-5-3(2-9-7)6(5)8(1)4/h3-7H,1-2H2	InChI=1S/C7H9NO/c1-4-7-5-3(2-9-7)6(5)8(1)4/h3-7H,1-2H2/t3-,4+,5+,6-,7-,8?/m1/s1
