20
gdb 80675	2.94908	1.39555	1.17215	1.456	78.44	-0.2249	0.0818	0.3067	1121.3618	0.171045	-403.072214	-403.063859	-403.062915	-403.10519	32.08	
C	-0.0473212234	 1.0585470898	 1.1846960218	-0.438247
C	 0.4638143649	-0.3456132352	 0.9636858023	 0.032603
C	 0.7217120252	-1.0025584256	-0.3306005922	-0.046675
C	 1.3276779624	-0.057822732	-1.3714149984	-0.296543
C	 2.493317124	 0.132443364	-0.3701816838	 0.033579
C	 2.9822503548	 1.4980491739	 0.0406336989	 0.068162
C	 3.3749921798	 2.4953166527	-0.964354878	-0.182303
O	 2.1721140404	 2.6507100759	-0.2097723912	-0.224787
N	 1.8579551016	-0.7653850118	 0.6712289418	-0.189132
H	 0.2262510163	 1.7554422126	 0.3942811731	 0.160044
H	-1.1404232151	 1.0299302724	 1.2576457931	 0.113872
H	 0.3345184881	 1.4609126913	 2.1294828394	 0.121605
H	 0.0794762585	-1.0409640584	 1.7098299632	 0.094638
H	 0.3745216119	-2.0067275804	-0.5551034465	 0.091509
H	 1.6272997567	-0.5520789706	-2.2964756735	 0.107778
H	 0.7385691404	 0.8295424245	-1.6151268998	 0.119798
H	 3.3767127601	-0.4216587398	-0.7077534237	 0.096084
H	 3.4922610858	 1.5169420951	 1.0054962311	 0.103341
H	 4.1639150628	 3.2123460127	-0.7430967057	 0.118036
H	 3.232958915	 2.2727674989	-2.0214025821	 0.116639
84.72	138.7851	155.8901	226.9211	250.5464	277.5852	370.0309	424.5202	538.9672	598.2485	694.4924	719.472	766.5986	797.2959	854.5004	900.0198	915.0063	961.4963	968.6616	980.8285	1023.8026	1055.7954	1079.1853	1101.3363	1114.6626	1134.664	1153.2603	1160.4943	1166.8328	1173.9766	1250.9252	1274.0867	1277.1872	1300.4674	1355.1528	1383.8921	1418.3575	1420.841	1445.4049	1489.4577	1501.8616	1507.2313	1528.7495	3035.5599	3036.6347	3069.8819	3083.1458	3089.6832	3099.6569	3107.2187	3125.0283	3153.7082	3166.8896	3170.3501
CC1C2CC(C3CO3)N12	C[C@H]1[C@H]2C[C@@H]([C@H]3CO3)N12	
InChI=1S/C7H11NO/c1-4-5-2-6(8(4)5)7-3-9-7/h4-7H,2-3H2,1H3	InChI=1S/C7H11NO/c1-4-5-2-6(8(4)5)7-3-9-7/h4-7H,2-3H2,1H3/t4-,5+,6-,7+,8?/m0/s1
