13
gdb 133014	2.91952	1.46779	0.98272	1.472	65.9	-0.2619	-0.0727	0.1892	1098.5873	0.088283	-494.057554	-494.049705	-494.04876	-494.091839	27.019	
C	 0.0094164405	 1.4481569706	-0.0342067766	-0.32407
N	-0.0008623121	-0.0021258755	 0.0037315257	-0.286894
C	 0.5235086066	-0.6729829073	-0.9101367997	 0.472575
O	 1.1555129953	 0.0514716135	-2.0329276476	-0.243326
C	 1.6996528693	-0.6714911662	-2.9795641253	 0.426041
F	 2.2204288542	 0.0831876089	-3.9065180084	-0.023619
N	 1.7615059475	-1.9435694935	-3.0704257815	-0.374261
C	 1.1570474876	-2.5832859662	-1.9984241046	 0.073756
N	 0.5767868551	-2.0400044629	-0.9851067242	-0.269386
H	 1.031210619	 1.847557225	-0.0552303751	 0.132543
H	-0.5099458505	 1.8350715092	-0.9200025394	 0.132682
H	-0.4938912646	 1.8277037744	 0.8567867264	 0.134931
H	 1.1904850721	-3.6685604	-2.0422685699	 0.149028
19.3039	94.6709	170.2918	189.4559	262.1275	391.7035	459.9529	504.3996	563.9175	590.7826	737.603	740.6929	786.6339	847.0096	946.6879	1008.6997	1015.4409	1098.2383	1111.1375	1202.6618	1262.5763	1400.5983	1424.9075	1439.1595	1483.8632	1501.7739	1592.0618	1709.0745	1812.7847	3013.1567	3067.304	3122.1627	3180.9101
CN=C1OC(F)=NC=N1	C[N]C1=NCN=C(O1)F	
InChI=1S/C4H4FN3O/c1-6-4-8-2-7-3(5)9-4/h2H,1H3	InChI=1S/C4H5FN3O/c1-6-4-8-2-7-3(5)9-4/h2H2,1H3
