20
gdb 60913	3.74834	1.01364	0.81693	3.1046	86.22	-0.2131	0.0008	0.2138	1405.3217	0.172314	-403.194956	-403.186056	-403.185112	-403.228855	32.904	
C	 0.0130507624	 1.4493928948	-0.0013183771	-0.355847
N	 0.0156373954	-0.0081629256	 0.0042291629	-0.168663
C	-0.0424310602	-0.6560737956	 1.2177815643	 0.145551
O	-0.0793186871	-0.1033701238	 2.2961842294	-0.338987
C	 0.0471634819	-0.6872629541	-1.2170159844	 0.438046
C	 0.014876484	-0.1202520341	-2.4320208384	-0.214362
C	 0.0090346728	-1.1459734548	-3.5359330476	-0.24358
C	 0.3795396478	-2.4589003435	-2.8017296592	-0.217673
C	 0.0825889698	-2.2024653633	-1.3041132404	-0.315727
H	 0.894074519	 1.8261111207	-0.5301153422	 0.134155
H	-0.8846332064	 1.829816619	-0.5000915965	 0.133678
H	 0.0277591207	 1.7835179091	 1.0345586953	 0.169281
H	-0.0557114971	-1.7511931101	 1.111792404	 0.09462
H	-0.0531985048	 0.9418972296	-2.625289133	 0.087811
H	-0.9818128308	-1.209521396	-4.0089378494	 0.10495
H	 0.7147483114	-0.911515553	-4.3411916895	 0.102845
H	-0.156902862	-3.328968538	-3.1873710088	 0.102082
H	 1.4480820846	-2.6568226352	-2.9273890203	 0.11073
H	 0.843134771	-2.6520896418	-0.6571777712	 0.114926
H	-0.8812443924	-2.6302132444	-0.995824058	 0.116163
71.7142	109.5444	154.3779	200.4264	207.2128	276.3669	340.6612	349.1657	432.7371	463.8158	516.2796	651.1352	776.5024	812.21	832.264	875.8535	912.7873	919.8323	971.9881	985.9872	1019.4749	1055.7287	1067.1151	1132.5193	1157.777	1159.6801	1221.4887	1237.1359	1270.2136	1310.773	1330.0129	1338.266	1356.0628	1399.3455	1441.8457	1450.7106	1485.9728	1493.4084	1497.91	1510.456	1514.8638	1698.9332	1789.6454	2998.4899	3012.1192	3025.514	3037.5972	3044.1823	3057.0558	3068.5286	3094.8453	3106.9306	3172.8358	3218.8381
CN(C=O)C1=CCCC1	CN(C=O)C1=CCCC1	
InChI=1S/C7H11NO/c1-8(6-9)7-4-2-3-5-7/h4,6H,2-3,5H2,1H3	InChI=1S/C7H11NO/c1-8(6-9)7-4-2-3-5-7/h4,6H,2-3,5H2,1H3
