17
gdb 31812	4.67531	0.99131	0.8804	2.7971	77.99	-0.2456	-0.0387	0.2069	1325.6364	0.138058	-418.083287	-418.075248	-418.074303	-418.116648	29.869	
C	-0.0573423463	 1.5434751128	-0.058215987	-0.367129
C	-0.0205302395	 0.0076315904	 0.0272785966	-0.299316
C	 0.7309251614	-0.4997070839	 1.2320003061	 0.227729
C	 2.107027448	-0.7376032104	 1.2193332251	-0.048689
N	 2.7997851725	-1.1590589202	 2.2752031528	-0.290334
C	 2.0865137826	-1.3485786717	 3.3820866826	 0.453309
O	 2.7746182232	-1.767722603	 4.4545270222	-0.390531
N	 0.7716891794	-1.1732325041	 3.5363790005	-0.34899
C	 0.1144085685	-0.7510439628	 2.4565597294	-0.051626
H	 0.9542701812	 1.9578653259	-0.1146774891	 0.124165
H	-0.6090727422	 1.8717097721	-0.9444726823	 0.118032
H	-0.5425759694	 1.9741829941	 0.8234616981	 0.122609
H	-1.0461212371	-0.3788978659	 0.050413547	 0.109151
H	 0.4396433533	-0.3947480349	-0.8827138765	 0.110734
H	 2.6799217651	-0.5859466588	 0.3050367905	 0.113695
H	 2.128363692	-1.8620911044	 5.1673644137	 0.30474
H	-0.9596537827	-0.612565845	 2.5732928302	 0.11245
44.5539	97.957	208.55	212.7096	319.4241	413.4966	425.5181	466.6563	514.1699	557.2334	592.8073	672.2218	757.6689	787.0807	835.4048	897.7774	971.2305	973.8259	1008.5461	1057.581	1069.5418	1086.2489	1186.2058	1255.6506	1266.2651	1294.9305	1357.0248	1364.0355	1386.6963	1412.2408	1442.569	1485.2047	1497.2955	1501.2955	1509.0949	1611.8614	1647.7402	3031.3423	3035.8762	3065.978	3109.7811	3110.0313	3135.8194	3139.7446	3783.4073
CCC1=CN=C(O)N=C1	CCc1cnc(O)nc1	
InChI=1S/C6H8N2O/c1-2-5-3-7-6(9)8-4-5/h3-4H,2H2,1H3,(H,7,8,9)	InChI=1S/C6H8N2O/c1-2-5-3-7-6(9)8-4-5/h3-4H,2H2,1H3,(H,7,8,9)
