15
gdb 43529	2.65453	1.44549	1.05333	3.1614	74.59	-0.2469	0.0086	0.2556	1113.2078	0.110965	-416.729541	-416.721225	-416.720281	-416.762508	31.103	
N	-0.1229916385	 1.1344185037	-0.9431908409	-0.544863
C	-0.0333549769	 0.0845682047	-0.2500836761	 0.317145
N	 0.9547525961	-0.5887122267	 0.4766025129	-0.348576
C	 0.1456449296	-1.8086452491	 0.7063339449	-0.253565
C	 0.0640398355	-2.2777413894	 2.0775678279	 0.326378
C	-0.0217033508	-2.6851631217	 3.2050494278	-0.421532
C	-1.0400262606	-0.9853053084	 0.1184194557	 0.363398
C	-2.4366649568	-0.8963552651	 0.5297062279	-0.250752
O	-2.0371925224	-1.5052676419	-0.7122729858	-0.256354
H	 0.7699619988	 1.6228601691	-1.024168326	 0.216262
H	 1.949519763	-0.5726916869	 0.3057772034	 0.248609
H	 0.4024524537	-2.6344116257	 0.0308216196	 0.124073
H	-0.0916528622	-3.0385641162	 4.2043281274	 0.204359
H	-2.8093326261	-1.5831868053	 1.2867815063	 0.133413
H	-2.9556581926	 0.0543354288	 0.4320947349	 0.142007
83.505	119.0208	208.1617	232.6104	246.6592	314.4551	391.7333	402.6455	510.2409	597.3662	625.6645	632.8128	668.7383	695.7424	772.6953	830.1592	857.756	917.5659	951.1634	1009.1115	1051.0253	1058.8767	1122.3997	1139.7207	1159.1668	1175.9888	1298.8146	1335.8121	1365.7491	1445.5471	1533.1187	1808.4743	2238.8648	3028.5699	3098.1883	3197.1474	3469.4268	3500.8318	3612.3254
N=C1NC(C#C)C11CO1	[NH][C]1N[C@@H](C#C)[C@]21CO2	
InChI=1S/C6H6N2O/c1-2-4-6(3-9-6)5(7)8-4/h1,4H,3H2,(H2,7,8)	InChI=1S/C6H6N2O/c1-2-4-6(3-9-6)5(7)8-4/h1,4H,3H2,(H2,7,8)/t4-,6-/m0/s1
