19
gdb 32749	3.02892	1.11525	0.84641	1.0819	79.99	-0.1968	0.0327	0.2295	1394.796	0.158005	-423.056762	-423.04732	-423.046376	-423.092207	33.645	
C	-0.0800763086	 1.440856612	 0.0570399484	-0.38611
C	 0.272352488	-0.0322178776	-0.0103211451	-0.060469
O	 0.1980976817	-0.5609829302	 1.3275474596	-0.277511
C	 0.5248391812	-1.8514750399	 1.4695190785	 0.347149
C	 1.3782618002	-2.4607181291	 2.3373404831	 0.1271
C	 2.2636764983	-1.7909755238	 3.3400307366	-0.5074
C	 1.2265203159	-3.8696483094	 2.0720519657	-0.265014
C	 0.3178182855	-3.9908311621	 1.0747603253	-0.016477
O	-0.133754398	-2.7572809962	 0.6924173895	-0.188135
H	 0.6197918784	 1.9778740003	 0.7032514528	 0.129514
H	-0.038645999	 1.8819356915	-0.9432105146	 0.120738
H	-1.0896654833	 1.5764876049	 0.4546462155	 0.133152
H	-0.4241074858	-0.5790163627	-0.6552765214	 0.121305
H	 1.2884578197	-0.1856158722	-0.3977588799	 0.104484
H	 1.9977159039	-2.0673929045	 4.3671422489	 0.126806
H	 3.315960003	-2.0622019421	 3.1962332807	 0.123446
H	 2.1795800956	-0.7044847295	 3.2556339877	 0.13049
H	 1.7440900341	-4.6778021184	 2.566566234	 0.106033
H	-0.0982185407	-4.825737851	 0.5368284946	 0.130897
43.4958	53.9633	127.2203	136.5921	233.3241	247.2876	257.7999	335.1452	368.9305	495.5713	617.7413	631.969	675.144	716.4842	773.8306	816.5601	820.9711	892.8088	921.9807	983.9655	1054.258	1062.4884	1067.2503	1116.4568	1147.6266	1176.8466	1187.4038	1274.247	1283.7747	1293.5314	1392.0348	1411.3176	1417.5675	1449.6547	1483.0988	1488.0191	1497.9615	1499.9942	1523.1164	1559.8891	1695.5508	3015.2119	3024.9815	3046.7258	3068.4407	3071.8774	3116.543	3121.8955	3125.8067	3245.3586	3286.6713
CCOC1=C(C)C=CO1	CCOc1c(C)cco1	
InChI=1S/C7H10O2/c1-3-8-7-6(2)4-5-9-7/h4-5H,3H2,1-2H3	InChI=1S/C7H10O2/c1-3-8-7-6(2)4-5-9-7/h4-5H,3H2,1-2H3
