19
gdb 74853	2.44522	1.81894	1.23084	0.9235	82.13	-0.2245	0.0091	0.2335	1055.1743	0.160798	-382.028214	-382.020328	-382.019384	-382.060338	31.314	
C	 0.0888940128	 1.4890126249	 0.029166027	-0.510192
C	-0.0039873671	-0.004909346	-0.0003057561	 0.233575
C	-0.1208168629	-0.7822843764	-1.0874592389	-0.16555
C	-0.0674613324	-2.2280174047	-0.7320815776	-0.093261
N	 1.2344188258	-2.6170851312	-0.1036427655	-0.343328
C	 0.0714598921	-2.2820086195	 0.7467106	-0.138421
C	 0.0715311637	-0.8562207058	 1.2352298884	 0.313515
C	 0.7305980121	-0.4164432948	 2.4923756253	-0.280047
N	-0.7309472609	-0.5685196544	 2.445022812	-0.369619
H	 1.0875186125	 1.8213093649	 0.3384885122	 0.137204
H	-0.1123280516	 1.9127146971	-0.9578818031	 0.131132
H	-0.6256864419	 1.93404431	 0.7333604111	 0.118381
H	-0.1885007772	-0.4185451641	-2.1061363315	 0.094361
H	-0.6106071567	-2.9735425865	-1.3023968912	 0.089035
H	 1.3122364019	-3.6334149259	-0.135397135	 0.225793
H	-0.3920912323	-3.0437104671	 1.3632291727	 0.096335
H	 1.2511931704	-1.147778167	 3.1043404065	 0.121425
H	 1.1537851814	 0.5841797792	 2.5282703451	 0.110092
H	-1.1774522398	 0.3423405171	 2.3629568687	 0.229571
109.1348	163.2397	211.6868	250.3097	269.2975	370.5924	450.7	475.0943	529.1177	612.9457	670.3083	740.9896	814.8079	835.7811	855.7329	871.8599	891.7286	913.4046	942.0172	970.1428	992.8641	1008.0855	1046.8446	1061.8475	1086.0443	1112.6032	1130.0652	1157.1792	1182.6199	1242.5913	1262.6451	1272.0679	1323.0784	1365.1747	1384.9414	1411.2384	1428.6575	1479.7764	1487.1258	1511.7869	1684.5137	3018.1495	3064.1613	3106.7546	3115.0706	3168.736	3181.4413	3191.0542	3199.5679	3465.2559	3491.4443
CC1=CC2NC2C11CN1	CC1=C[C@H]2N[C@H]2[C@]21CN2	
InChI=1S/C7H10N2/c1-4-2-5-6(9-5)7(4)3-8-7/h2,5-6,8-9H,3H2,1H3	InChI=1S/C7H10N2/c1-4-2-5-6(9-5)7(4)3-8-7/h2,5-6,8-9H,3H2,1H3/t5-,6-,7-/m1/s1
