23
gdb 77468	1.86361	1.50044	1.39878	1.5576	86.66	-0.2219	0.0821	0.304	1192.1405	0.203129	-388.271627	-388.261348	-388.260403	-388.305816	38.819	
C	 0.0570574139	 1.6439777488	-0.3139041437	-0.428872
C	 0.1672648165	 0.1410277402	-0.1568743247	-0.112438
C	 1.4174853025	-0.6453241328	-0.4214374767	 0.411144
C	 1.648907082	-1.6809375426	-1.4744394866	-0.489499
O	 2.5641443753	 0.1100694819	 0.0129168127	-0.347162
C	 2.1482999819	-0.0294239774	 1.4032735124	 0.118672
C	 2.2506663474	 1.2351488294	 2.234964695	-0.423676
C	 0.8168066522	-0.6528701894	 0.9789080023	 0.162516
C	 0.0932525381	-1.7114179971	 1.7614022339	-0.49728
H	 1.0428572961	 2.111162249	-0.2792263863	 0.137184
H	-0.3908027646	 1.8870273018	-1.2838271919	 0.110305
H	-0.5728419924	 2.0948936232	 0.4607562858	 0.111098
H	-0.7165346479	-0.397989386	-0.4992039002	 0.079059
H	 1.9526172759	-1.2106050269	-2.4169829665	 0.130636
H	 2.4395194133	-2.3772416542	-1.1765953126	 0.124379
H	 0.7335065111	-2.2494240463	-1.6633555382	 0.119552
H	 2.7721186198	-0.8100523447	 1.8659908492	 0.073116
H	 3.2829056658	 1.6011014216	 2.2330642903	 0.125257
H	 1.6009066383	 2.0313837994	 1.8702034133	 0.125134
H	 1.9772814745	 1.0140566451	 3.2727829271	 0.115499
H	-0.4743052236	-1.2786006811	 2.594604908	 0.120951
H	-0.6197816516	-2.2541132594	 1.1319937642	 0.118448
H	 0.7908765656	-2.4453208924	 2.1820226931	 0.115977
159.2022	162.6523	170.7061	183.1986	190.8923	206.3606	214.5173	241.0681	277.8758	319.5939	347.4267	456.5935	557.9565	596.9345	604.2644	691.5467	723.1637	771.7634	860.7053	887.9035	920.1746	969.76	1027.6708	1071.2584	1076.832	1093.6209	1099.5618	1116.1871	1138.18	1140.2944	1203.2992	1234.6903	1261.4045	1325.9265	1337.1911	1393.0327	1404.8216	1407.527	1410.1284	1418.3813	1473.4678	1482.468	1486.5598	1490.2701	1495.1525	1497.4997	1499.3208	1510.7215	1522.7768	2975.9443	3016.7503	3029.1063	3031.5673	3040.0772	3072.8893	3084.6819	3090.8844	3091.0986	3099.5427	3104.993	3112.7955	3132.7453	3147.5926
CC1C2(C)OC(C)C12C	C[C@H]1[C@@]2(C)O[C@@H](C)[C@@]12C	
InChI=1S/C8H14O/c1-5-7(3)6(2)9-8(5,7)4/h5-6H,1-4H3	InChI=1S/C8H14O/c1-5-7(3)6(2)9-8(5,7)4/h5-6H,1-4H3/t5-,6+,7-,8-/m1/s1
