22
gdb 117199	3.05554	0.96371	0.8627	1.2503	84.26	-0.2554	0.0333	0.2887	1485.4948	0.192732	-404.353927	-404.343661	-404.342717	-404.389826	37.538	
C	-0.2364663877	 1.4496649723	-0.2407763365	-0.390301
C	-0.0365211304	-0.0430262804	-0.0556088189	-0.02892
O	-1.3310098071	-0.6610736411	-0.1032061221	-0.248355
C	-1.3761105761	-1.9968235086	 0.0815283864	 0.331704
N	-0.3121722046	-2.6683285239	 0.2616174982	-0.545323
C	-2.8035901555	-2.4715490159	 0.0372405835	 0.285556
C	-3.7327096668	-1.7683023038	 1.0133096303	-0.463132
C	-3.3551670204	-2.8388454287	-1.3257053688	-0.281458
C	-3.0737953808	-3.9137107692	-0.3057035844	-0.316774
H	 0.7304586049	 1.9609934081	-0.2134000917	 0.119048
H	-0.7127457066	 1.6643538637	-1.2018088026	 0.125809
H	-0.8662784771	 1.8611271393	 0.5533604396	 0.124823
H	 0.5945739034	-0.4734923384	-0.8404187905	 0.116859
H	 0.4385153319	-0.2799979764	 0.9021784375	 0.118008
H	-0.5353505395	-3.6486239423	 0.4170477419	 0.219024
H	-3.7315191006	-0.6893920647	 0.8401538252	 0.136341
H	-4.7572251742	-2.1353629225	 0.8992103092	 0.111542
H	-3.4253664085	-1.9464899227	 2.0497892225	 0.120387
H	-4.3861584613	-2.5745363457	-1.536253325	 0.114172
H	-2.690942086	-2.7713243338	-2.1799526653	 0.12251
H	-2.2363907855	-4.5757478286	-0.4979702276	 0.113813
H	-3.9119229715	-4.3934285267	 0.1879739591	 0.114666
36.8535	81.834	110.7693	142.1091	211.9151	237.958	276.7369	292.721	318.2715	336.2587	385.0535	489.6003	542.5929	733.4676	772.4043	792.5404	806.2965	861.9358	874.469	882.5752	925.7476	951.8592	963.1925	1038.7701	1050.8499	1072.4291	1087.7013	1112.7337	1130.3789	1137.6377	1183.5505	1190.5247	1272.1794	1288.3828	1316.8284	1367.0112	1404.2137	1414.2511	1435.3423	1467.3341	1485.2576	1488.9166	1496.3485	1501.6429	1510.8889	1521.3397	1710.1578	3035.0343	3043.98	3045.6997	3081.0169	3099.071	3118.3352	3121.8909	3123.0105	3131.7542	3135.3276	3210.4839	3225.1624	3517.1855
CCOC(=N)C1(C)CC1	CCO[C]([NH])C1(C)CC1	
InChI=1S/C7H13NO/c1-3-9-6(8)7(2)4-5-7/h8H,3-5H2,1-2H3	InChI=1S/C7H13NO/c1-3-9-6(8)7(2)4-5-7/h8H,3-5H2,1-2H3
