23
gdb 40962	3.07929	1.29932	1.16048	1.4201	84.89	-0.237	0.075	0.312	1192.1056	0.208457	-388.305176	-388.296897	-388.295953	-388.338093	33.03	
C	 0.0050249051	 1.3173547401	-0.3737289912	-0.063315
C	 1.4496101654	 1.5298375354	 0.1151466001	-0.360092
C	 1.2938069143	 0.1358875029	 0.7701103031	 0.462364
C	 2.1686305458	-0.9793461709	 0.1968740755	-0.237996
C	 1.7342980583	-2.3554598723	 0.721572712	-0.195442
C	 1.7304515277	-2.3932786353	 2.2565993092	-0.183849
C	 0.8600025126	-1.2664306482	 2.8313033594	-0.195442
C	 1.2975951337	 0.1056259382	 2.298749569	-0.237992
O	-0.0754375623	 0.0263165989	 0.25924529	-0.327591
H	-0.7409974191	 2.0162915893	 0.0244839414	 0.099104
H	-0.1255608179	 1.2496643063	-1.4609264625	 0.099106
H	 2.2078001058	 1.5884971911	-0.6684224544	 0.104362
H	 1.5927360887	 2.3547679874	 0.8160583881	 0.104361
H	 2.1187251852	-0.9512102199	-0.8974104251	 0.089188
H	 3.2128570208	-0.7801654919	 0.4769942191	 0.08938
H	 0.7236607607	-2.5641900047	 0.3501587262	 0.113415
H	 2.3896523056	-3.1350248697	 0.3177742485	 0.086198
H	 1.373686297	-3.3668070284	 2.6112803153	 0.089345
H	 2.7600174158	-2.2843723892	 2.6270457588	 0.086715
H	-0.1854076222	-1.4318445395	 2.5437959816	 0.113415
H	 0.8942286134	-1.2723208567	 3.9263183419	 0.086198
H	 2.3131222878	 0.34055218	 2.6481253762	 0.08938
H	 0.6373536575	 0.8940099972	 2.6772635677	 0.089187
69.191	117.3279	190.8263	273.1941	286.8607	369.7015	409.5415	436.9542	476.6478	526.3354	668.3158	774.1017	790.9423	827.0743	852.2429	858.0224	886.6438	935.9703	938.828	964.1243	981.5554	990.9685	1027.9657	1042.361	1075.1228	1099.6561	1147.2027	1161.3704	1164.5736	1173.5457	1210.8608	1254.2217	1267.0433	1273.2503	1306.6487	1310.1294	1347.2978	1355.9774	1368.4736	1379.0426	1379.4733	1398.8316	1469.2672	1479.7906	1485.5206	1489.443	1490.7799	1504.4156	1532.3979	3005.1764	3006.6951	3011.6357	3015.0671	3030.6712	3031.5728	3048.0268	3060.399	3061.6795	3064.9803	3070.4921	3072.7426	3078.7059	3124.365
C1CC2(CCCCC2)O1	C1CC2(CCCCC2)O1	
InChI=1S/C8H14O/c1-2-4-8(5-3-1)6-7-9-8/h1-7H2	InChI=1S/C8H14O/c1-2-4-8(5-3-1)6-7-9-8/h1-7H2
