13
gdb 21724	5.13371	1.43279	1.14367	3.8873	55.47	-0.2537	-0.0179	0.2358	975.5854	0.096696	-431.912818	-431.905539	-431.904595	-431.945024	25.769	
N	 0.5382085877	 0.174879114	-0.8314194058	-0.507143
C	-0.0104570475	 0.701588404	 0.4146520237	-0.275475
C	 0.6096875764	 0.0063653006	 1.5817919729	 0.475912
N	 0.9998748899	-1.2322415807	 1.6527790279	-0.40307
C	 1.4278948336	-1.3111395943	 2.9554258093	 0.441268
O	 1.9257180666	-2.4312744686	 3.4752297686	-0.398584
N	 1.3164462062	-0.2157149962	 3.6621587367	-0.2033
O	 0.7618822499	 0.6801214449	 2.719872314	-0.202609
H	 0.4605027975	-0.8375683196	-0.8309618702	 0.247796
H	-0.0068476692	 0.518134251	-1.6151485596	 0.236925
H	 0.2091563281	 1.7713622838	 0.4965537896	 0.145279
H	-1.1059462288	 0.5978320501	 0.5220963834	 0.123227
H	 1.9206792795	-3.0961161687	 2.7758884696	 0.319774
50.4527	156.5136	192.0645	260.4971	354.3944	401.2168	415.9396	484.5941	635.7598	693.7663	767.1157	786.342	853.5624	931.3948	1019.6052	1039.5696	1066.1879	1103.3176	1176.4719	1217.9408	1283.8118	1315.1116	1425.3476	1466.2372	1499.1982	1604.2688	1652.9136	1678.2018	2934.2748	3071.6967	3504.5014	3587.6778	3814.7352
NCC1=NC(O)=NO1	NCc1nc(O)no1	
InChI=1S/C3H5N3O2/c4-1-2-5-3(7)6-8-2/h1,4H2,(H,6,7)	InChI=1S/C3H5N3O2/c4-1-2-5-3(7)6-8-2/h1,4H2,(H,6,7)
