13
gdb 132289	2.08617	1.90768	1.00265	2.7438	64.31	-0.2635	-0.0717	0.1918	1078.7402	0.088875	-494.082009	-494.074456	-494.073512	-494.114732	27.017	
C	-0.0042949747	 1.4544830322	 0.0747285714	-0.473466
C	-0.0176666798	-0.0305249021	-0.0443446258	 0.436362
N	-0.1502109175	-0.6296285785	-1.1826929006	-0.363959
C	-0.1378733505	-1.9940308837	-1.0785572314	 0.339225
F	-0.2729911952	-2.5967622069	-2.2348577202	-0.034488
N	-0.0158427915	-2.7252756451	-0.0356483734	-0.363111
C	 0.1253383205	-2.0669384842	 1.1716117053	 0.435981
N	 0.2606812014	-2.5555303971	 2.3229022165	-0.518564
O	 0.1190296144	-0.6501234565	 1.1259321082	-0.205509
H	 0.9352694095	 1.7799001893	 0.5318703484	 0.168686
H	-0.1196397122	 1.9037467313	-0.910070882	 0.165536
H	-0.8134748653	 1.779157316	 0.7361779902	 0.168678
H	 0.2527787109	-3.5714481348	 2.2505380433	 0.24463
94.9909	106.7462	182.1617	196.5505	300.2752	384.9824	544.1484	552.9734	588.2048	606.9693	651.8372	725.742	798.9292	855.5	867.007	963.3007	1026.1335	1051.0162	1066.905	1135.9037	1236.1754	1351.1528	1405.0486	1415.1842	1461.4932	1471.0244	1623.922	1696.0921	1775.0596	3055.6408	3116.0898	3178.614	3525.6726
CC1=NC(F)=NC(=N)O1	C[C@H]1N=C(F)N=C([NH])O1	
InChI=1S/C4H4FN3O/c1-2-7-3(5)8-4(6)9-2/h6H,1H3	InChI=1S/C4H5FN3O/c1-2-7-3(5)8-4(6)9-2/h2,6H,1H3/t2-/m0/s1
