14
gdb 6010	2.70861	1.81682	1.55233	5.1318	58.21	-0.2618	-0.0014	0.2604	875.8814	0.105176	-415.900949	-415.892159	-415.891215	-415.934147	31.408	
C	-0.0794585101	 1.5553787646	-0.0236966883	-0.394134
C	 0.0303905098	 0.0241297971	-0.008042453	 0.129227
O	 0.7839614191	-0.3351411401	 1.1487652728	-0.454934
C	-1.3074416433	-0.5930887101	 0.0562646284	 0.261027
N	-2.3337547048	-1.1098920531	 0.1751004258	-0.328339
C	 0.7167728799	-0.4235955957	-1.3370535706	 0.374857
N	 1.9839986535	-0.867305197	-1.1659909985	-0.528106
O	 0.1371711892	-0.3311543795	-2.3967285586	-0.35569
H	 0.9276541959	 1.9801859588	-0.0090625881	 0.136615
H	-0.5949513546	 1.8779271361	-0.9291004354	 0.164945
H	-0.623811402	 1.898688342	 0.8578312543	 0.145665
H	 0.584640136	-1.2514230944	 1.3740867149	 0.303124
H	 2.4118066011	-0.823571247	-0.2565850941	 0.273101
H	 2.5333523003	-1.0874458417	-1.9803138795	 0.272641
53.1793	149.0113	188.1408	233.4511	243.8456	269.9652	318.9235	372.7117	412.626	443.7139	474.2223	569.2931	623.9306	655.9386	674.4526	773.4167	906.0214	956.8365	1060.1677	1091.7691	1161.2398	1187.5708	1351.3989	1354.2512	1401.1593	1484.5522	1487.9285	1590.268	1816.7673	2359.0249	3059.5561	3140.4197	3161.7215	3598.603	3737.2451	3803.7237
CC(O)(C#N)C(N)=O	C[C@@](O)(C#N)C(=O)N	
InChI=1S/C4H6N2O2/c1-4(8,2-5)3(6)7/h8H,1H3,(H2,6,7)	InChI=1S/C4H6N2O2/c1-4(8,2-5)3(6)7/h8H,1H3,(H2,6,7)/t4-/m1/s1
