17
gdb 29527	3.14172	1.54227	1.05401	1.3656	75.63	-0.1658	0.0503	0.216	1101.1368	0.139377	-418.016577	-418.008896	-418.007952	-418.048532	29.908	
N	-0.0223335149	 1.4300667662	 0.2551220362	-0.606487
C	 0.0273405642	 0.0410363014	 0.069125954	 0.049893
C	-1.0237844855	-0.8351011598	 0.0018770934	-0.124349
O	-0.5610499997	-2.1552198973	-0.0950034305	-0.215106
C	 0.7667525117	-2.041276295	-0.0852637169	 0.387492
C	 1.2126144616	-0.7693819067	 0.0225904449	 0.164765
C	 2.7118023735	-0.782227521	-0.0959468213	-0.361086
C	 3.0004262419	-2.3204392391	 0.0445108894	-0.162836
N	 1.7257159311	-3.026800703	-0.2996913494	-0.405657
H	 0.6964967272	 1.9159038527	-0.2660262821	 0.242996
H	-0.9243141936	 1.8249938805	 0.0217162303	 0.241514
H	-2.0916180739	-0.7241048501	 0.0671396063	 0.114208
H	 3.0589036911	-0.4117988857	-1.070603922	 0.106694
H	 3.2492407408	-0.2146323576	 0.6708436051	 0.109562
H	 3.8044488518	-2.656453302	-0.6142198292	 0.11289
H	 3.2887191876	-2.5433724534	 1.0796636745	 0.107615
H	 1.5881928753	-3.8822814601	 0.2264366574	 0.237889
134.2461	183.7878	204.9651	234.9942	269.0225	370.5445	513.2935	544.4431	574.8361	605.4651	623.1522	682.0809	710.3549	760.7483	772.6228	832.9726	861.7822	930.3594	1013.0672	1062.5363	1067.5431	1077.3934	1132.5084	1194.6944	1213.6716	1242.3142	1273.8094	1305.9644	1324.6653	1370.0965	1444.7943	1498.4166	1514.2252	1532.9804	1600.1286	1656.472	1686.6428	3000.889	3018.0201	3058.5923	3097.0139	3291.5774	3533.6057	3535.0754	3622.9498
NC1=COC2=C1CCN2	Nc1coc2c1CCN2	
InChI=1S/C6H8N2O/c7-5-3-9-6-4(5)1-2-8-6/h3,8H,1-2,7H2	InChI=1S/C6H8N2O/c7-5-3-9-6-4(5)1-2-8-6/h3,8H,1-2,7H2
