20
gdb 6610	4.18886	1.412	1.30587	1.8792	75.07	-0.2562	0.0781	0.3343	1034.5627	0.175351	-348.982853	-348.974511	-348.973567	-349.015216	32.396	
C	-0.559056892	 1.5613412892	-0.074291515	-0.450148
C	 0.088416973	 0.1840711432	 0.0259009576	 0.349844
C	-0.9418408621	-0.9290837483	-0.1771629774	-0.436533
C	 1.3674549629	-0.0314950073	-0.8585257658	-0.358214
C	 2.0617199094	-0.6034780681	 0.376304699	 0.480203
C	 2.8532021309	-1.8284361849	 0.5048034899	-0.267829
O	 3.451862788	-0.5301849186	 0.6314085982	-0.274108
C	 0.9728277939	-0.0599783389	 1.2998206395	-0.358221
H	 0.1771745193	 2.3587549185	 0.0708034848	 0.111881
H	-1.0230770203	 1.7083292817	-1.0566313655	 0.113052
H	-1.3412181177	 1.685372434	 0.6838327508	 0.113053
H	-1.4147567889	-0.8507773879	-1.1627982037	 0.112827
H	-0.4813785014	-1.9202714553	-0.1060411603	 0.11286
H	-1.7332553495	-0.8737535477	 0.579051281	 0.112827
H	 1.2682840421	-0.6814531915	-1.7322449302	 0.098953
H	 1.8225798395	 0.9141715109	-1.1689669106	 0.107877
H	 2.8069443237	-2.4117216125	 1.4242354706	 0.112422
H	 3.1378846946	-2.3877846351	-0.3861525152	 0.112421
H	 1.2842716505	 0.8753230505	 1.7752293148	 0.107878
H	 0.5739975242	-0.7315503017	 2.0650603675	 0.098954
63.1076	219.5804	243.927	257.7277	309.1564	316.2539	320.2465	354.8112	421.8852	440.1408	516.2383	694.3825	815.9679	845.5407	866.8488	868.3194	902.3197	929.7368	955.8743	973.6186	1000.9279	1017.0385	1083.9169	1126.7443	1150.9347	1164.3674	1164.8208	1212.6299	1218.4012	1244.5034	1292.7595	1305.8451	1401.7451	1418.5781	1433.7731	1464.9051	1483.6763	1484.1065	1494.6181	1502.7834	1505.8852	1536.9625	3018.4404	3023.3093	3047.0409	3052.6784	3074.1131	3083.4586	3089.6705	3092.1652	3095.5397	3103.3883	3104.6114	3159.9802
CC1(C)CC2(CO2)C1	CC1(C)CC2(CO2)C1	
InChI=1S/C7H12O/c1-6(2)3-7(4-6)5-8-7/h3-5H2,1-2H3	InChI=1S/C7H12O/c1-6(2)3-7(4-6)5-8-7/h3-5H2,1-2H3
