16
gdb 69213	2.68717	1.6243	1.17179	2.0371	69.43	-0.2515	-0.0437	0.2079	1038.2305	0.122912	-437.915201	-437.907052	-437.906108	-437.948292	30.274	
C	-0.0126309405	 1.5573965041	-0.032519473	-0.476123
C	-0.0096277668	 0.0525061393	 0.0239085157	 0.191475
C	 1.2261829641	-0.7473655449	-0.2096833309	-0.285346
N	 0.6702365156	-0.6374389075	 1.1550903547	-0.162926
C	-0.0858867018	-1.8274483324	 1.4824217732	 0.38749
O	 0.2474753363	-2.586308506	 2.3441256592	-0.291778
C	-1.3214099594	-1.935581652	 0.5893058817	-0.470918
C	-1.2984248667	-0.6767875367	-0.2718765622	 0.372481
O	-2.1766188411	-0.2694481762	-0.9872176568	-0.312063
H	 0.9740145562	 1.9569152506	 0.2118157598	 0.133146
H	-0.2933353604	 1.8869660753	-1.0364859792	 0.147466
H	-0.7391798064	 1.9712754464	 0.6726656562	 0.137646
H	 1.1584514856	-1.7063913605	-0.7178204063	 0.135803
H	 2.1636392127	-0.2203968516	-0.3585208158	 0.146453
H	-1.3008257018	-2.8546856791	-0.0046276511	 0.170103
H	-2.2353692858	-1.972690549	 1.1892269047	 0.177091
56.4776	127.7178	158.3836	241.3608	288.8241	339.2692	420.5843	484.7351	529.1753	567.3865	585.6716	653.3634	701.4134	779.9231	798.6386	872.3007	933.3633	968.4571	996.6137	1041.0271	1096.4568	1118.4483	1123.8696	1145.1853	1197.9204	1232.7194	1309.9892	1355.5918	1406.1926	1415.1623	1481.1114	1492.0204	1511.3284	1837.0455	1883.7423	3050.7891	3069.7365	3110.2803	3111.2678	3120.9908	3135.8502	3201.9068
CC12CN1C(=O)CC2=O	C[C@@]12CN1C(=O)CC2=O	
InChI=1S/C6H7NO2/c1-6-3-7(6)5(9)2-4(6)8/h2-3H2,1H3	InChI=1S/C6H7NO2/c1-6-3-7(6)5(9)2-4(6)8/h2-3H2,1H3/t6-,7?/m0/s1
