18
gdb 76673	3.14385	1.08034	0.94002	7.0898	67.95	-0.2468	0.0287	0.2755	1260.3027	0.148526	-476.234922	-476.226246	-476.225302	-476.268424	32.872	
N	 0.0547650749	 0.9143492999	-0.0761086428	-0.527815
H	-0.3888392448	-0.8572588368	 0.8615623535	 0.297005
H	 0.90901348	 1.4296945202	-0.2610839421	 0.250801
H	-0.5025046055	 0.9328533114	-0.9236522128	 0.249761
C	-0.6848832529	 1.475895827	 1.0311778629	-0.092681
C	-1.2084480449	 0.4329952759	 1.9945941085	 0.091116
O	-0.8907048887	-0.902540788	 1.6976155461	-0.427621
C	-0.0898986832	 1.3493557364	 2.4286434223	-0.060336
C	 1.3151963565	 0.8186142805	 2.6685043397	-0.376684
C	 1.4309477022	-0.0269582049	 3.9425358133	 0.406283
O	 2.1445218709	 0.2666326307	 4.8643196892	-0.324682
O	 0.6845030542	-1.1438469318	 3.9619044852	-0.378057
H	-1.2975836977	 2.3551437663	 0.8417113108	 0.094791
H	-2.1943248186	 0.5312233032	 2.4351725982	 0.114671
H	 0.1574514289	-1.2281939838	 3.1398803456	 0.320659
H	-0.3841567593	 2.1421591969	 3.1105516393	 0.109762
H	 1.6391418939	 0.2050801866	 1.8219052458	 0.122126
H	 2.0212889641	 1.6451703004	 2.7694891174	 0.130901
86.8479	113.5164	162.1633	227.2422	244.3575	282.4154	309.3775	438.3218	475.3819	568.2845	615.6695	639.8487	675.6012	723.4995	771.0571	807.9033	872.3712	881.5863	896.9199	917.1493	948.8085	1027.3233	1070.063	1109.4318	1127.0743	1146.3549	1192.7695	1241.2536	1252.7023	1287.7551	1305.0453	1336.807	1375.7206	1401.263	1413.4172	1459.3867	1484.2118	1652.9366	1860.9695	3061.3304	3112.4736	3117.355	3151.7355	3176.2359	3492.1236	3506.8859	3582.8302	3591.7799
[NH3+]C1C(O)C1CC([O-])=O	N[C@H]1[C@@H](O)[C@H]1CC(=O)O	
InChI=1S/C5H9NO3/c6-4-2(5(4)9)1-3(7)8/h2,4-5,9H,1,6H2,(H,7,8)	InChI=1S/C5H9NO3/c6-4-2(5(4)9)1-3(7)8/h2,4-5,9H,1,6H2,(H,7,8)/t2-,4+,5-/m0/s1
