20
gdb 110615	3.1438	1.25204	1.11533	1.7977	78.28	-0.2247	0.0655	0.2902	1190.8164	0.169273	-403.074101	-403.065311	-403.064367	-403.107656	33.468	
C	 0.3554953154	 1.5406083517	 0.0891946227	-0.373851
C	-0.2413870438	 0.1530552526	-0.1325840927	-0.120849
N	 0.5126235182	-0.5556371926	-1.1658203558	-0.079528
C	 1.7245083332	-1.3024303153	-0.8847792779	-0.086868
C	 1.6480709943	-2.1144001035	 0.40168377	-0.074079
O	 1.653232658	-3.5091434014	 0.0484102042	-0.287655
C	 0.4112681027	-2.78574919	-0.0538107696	 0.398555
C	-0.7727742894	-3.3259909593	 0.6822585896	-0.500872
C	 0.458258102	-1.9907158567	-1.362840073	-0.138496
H	 1.3824004269	 1.4687000712	 0.4628535158	 0.117643
H	 0.3767246339	 2.1045537261	-0.8473806504	 0.12823
H	-0.2319002566	 2.1007448066	 0.8229959815	 0.112717
H	-0.2838414088	-0.3893531115	 0.8225815015	 0.092421
H	-1.271335253	 0.243056577	-0.4976869986	 0.103107
H	 2.6220240398	-1.0848278543	-1.4519141125	 0.105111
H	 1.9693747779	-1.8638211307	 1.4059216128	 0.105731
H	-0.4795711086	-3.6692010623	 1.6777742351	 0.135261
H	-1.5523736135	-2.5649184941	 0.7835371407	 0.12884
H	-1.2045335794	-4.1774067075	 0.1444439642	 0.133615
H	 0.2386440209	-2.3751373861	-2.3529090276	 0.100966
60.8474	130.491	174.629	190.3769	248.3595	265.9954	325.5438	383.3723	466.5684	531.2571	631.056	655.2929	731.915	775.0985	816.1919	854.7632	869.1446	903.6403	922.4962	965.0734	974.2429	1009.8764	1035.9743	1056.6628	1071.875	1099.7743	1118.1977	1172.802	1191.7334	1246.4563	1263.4444	1282.5536	1299.0293	1343.0723	1382.3145	1402.1276	1409.181	1446.9988	1482.8938	1488.0514	1490.6536	1496.4081	1510.2787	3002.0571	3037.2954	3038.6502	3052.1079	3099.3658	3107.1941	3121.0737	3123.6107	3171.3534	3182.1226	3190.7175
CCN1C2C3OC3(C)C12	CCN1[C@H]2[C@@H]3O[C@]3(C)[C@@H]12	
InChI=1S/C7H11NO/c1-3-8-4-5(8)7(2)6(4)9-7/h4-6H,3H2,1-2H3	InChI=1S/C7H11NO/c1-3-8-4-5(8)7(2)6(4)9-7/h4-6H,3H2,1-2H3/t4-,5+,6+,7-,8?/m1/s1
