19
gdb 82707	2.32713	1.92281	1.48794	3.1238	78.28	-0.2333	-0.0144	0.2188	973.7644	0.160393	-385.872508	-385.86507	-385.864126	-385.904226	29.813	
C	-0.1935760193	 1.5760121621	 0.1086326413	-0.418129
C	 0.0583757633	 0.0804932917	-0.0084678662	 0.032132
C	 0.7720304453	-0.5250586365	-1.2508506919	-0.062699
C	 2.10398585	 0.167779644	-1.6315911173	-0.241488
C	 2.8304279768	-0.5568314424	-0.4597955518	-0.166943
C	 1.5659816154	-1.4873865795	-0.2970749509	-0.041424
C	 1.0921857063	-0.620707722	 0.9327560207	-0.194842
C	 2.46550038	 0.0583094161	 0.8957163841	 0.432627
O	 3.0836031034	 0.7032231058	 1.6957523966	-0.32495
H	 0.7316390728	 2.1548277764	 0.0269254422	 0.127655
H	-0.8764602134	 1.9188725753	-0.676757666	 0.116085
H	-0.6462933585	 1.821172782	 1.0753340039	 0.123443
H	-0.8869417284	-0.4609975687	 0.1123288818	 0.083301
H	 0.1323907557	-0.8507836222	-2.0718224598	 0.068398
H	 2.4733589277	-0.2163697734	-2.586267115	 0.111712
H	 2.1426423402	 1.2608741539	-1.65969369	 0.107413
H	 3.8608136659	-0.8816782025	-0.6055146637	 0.087199
H	 1.5821818279	-2.572670254	-0.3236298603	 0.076045
H	 0.7423857387	-0.990827026	 1.8971474023	 0.084465
111.7114	163.6044	204.1621	263.9374	360.6555	439.0974	505.9847	531.4551	565.4148	699.389	766.5286	813.9466	820.6826	846.4562	859.8516	888.1533	940.8238	943.7123	968.872	991.9407	1028.1705	1068.9996	1084.1593	1101.5696	1124.7666	1139.6406	1155.5174	1173.9902	1184.3313	1205.7215	1242.7795	1244.6663	1285.2097	1312.423	1328.4868	1366.8547	1415.6543	1481.7704	1493.4339	1502.2089	1873.8526	3030.7412	3035.6371	3051.8806	3095.789	3096.27	3101.9771	3105.8908	3108.4683	3113.4555	3163.8892
CC1C2CC3C2C1C3=O	C[C@H]1[C@H]2C[C@@H]3[C@H]2[C@H]1C3=O	
InChI=1S/C8H10O/c1-3-4-2-5-7(4)6(3)8(5)9/h3-7H,2H2,1H3	InChI=1S/C8H10O/c1-3-4-2-5-7(4)6(3)8(5)9/h3-7H,2H2,1H3/t3-,4+,5+,6-,7-/m0/s1
