12
gdb 48216	1.66716	1.56997	1.3413	4.6978	66.74	-0.2818	-0.0775	0.2042	1053.3731	0.072423	-435.454603	-435.445231	-435.444286	-435.489649	31.3	
O	-0.7006835476	 0.7464341143	 0.7644937173	-0.209487
C	 0.0822690962	 0.9294412327	-0.1161123281	 0.172343
C	 1.3037530836	 1.8934110052	 0.0026463684	-0.281409
C	 2.6147874856	 1.0313650498	-0.0984231637	 0.158839
O	 2.5935540917	-0.1504132491	-0.268452931	-0.210484
C	 1.310005386	 2.8134621425	-1.1296946895	 0.293613
C	 1.3294078992	 3.5069239644	-2.1101026708	-0.419055
C	 1.3232503752	 2.596819453	 1.2879285174	 0.303738
N	 1.394441717	 3.1355011882	 2.3065319962	-0.309384
H	 0.0227532054	 0.4466339263	-1.108521866	 0.131841
H	 3.5412126112	 1.6302927149	-0.0169818741	 0.140865
H	 1.3356229563	 4.1435121979	-2.9617229461	 0.22858
61.2535	71.7089	123.0878	148.873	150.0184	208.8428	252.1122	381.7201	452.5837	469.5511	492.9172	564.9754	626.3679	662.7157	684.3429	728.7864	924.9655	967.7541	1040.2431	1077.8823	1164.9085	1393.9955	1402.5637	1839.5195	1860.6012	2236.051	2367.1869	2965.7042	2975.344	3493.6506
O=CC(C=O)(C#C)C#N	O=CC(C=O)(C#C)C#N	
InChI=1S/C6H3NO2/c1-2-6(3-7,4-8)5-9/h1,4-5H	InChI=1S/C6H3NO2/c1-2-6(3-7,4-8)5-9/h1,4-5H
