13
gdb 44176	5.83502	1.05714	0.9698	2.6262	64.73	-0.2922	-0.0331	0.2591	1134.8101	0.089493	-452.710191	-452.703036	-452.702092	-452.742303	26.11	
N	-0.1976525406	 1.1371235253	-0.6506704778	-0.528225
C	-0.0834107357	 0.013315574	-0.1228387973	 0.443225
O	 1.0397821124	-0.6603984844	 0.3756264045	-0.266721
C	 0.2615369955	-1.8388782009	 0.6819886499	 0.048012
C	-0.3616290627	-1.763402358	 2.0980754252	-0.0544
O	-1.5112788482	-1.0496613049	 1.5814851006	-0.281224
C	-1.0253267189	-1.130481562	 0.2185180924	-0.018265
C	-0.7339043937	-3.0505976534	 2.6840195759	 0.292018
N	-1.004733277	-4.0828118121	 3.1263802313	-0.302813
H	 0.6901594075	 1.6402072434	-0.6934029529	 0.24404
H	 0.7039581713	-2.7603145611	 0.3134803069	 0.138266
H	 0.2172309279	-1.1704897857	 2.813485852	 0.152951
H	-1.7764712277	-1.4646572402	-0.4941853007	 0.133137
79.3984	133.4209	180.7171	287.2892	362.4382	427.9039	470.7506	550.1738	677.846	741.1503	811.5811	873.5298	876.2831	935.1583	946.5848	971.0854	987.3965	1005.4503	1041.0881	1051.1347	1170.5655	1197.6669	1236.4025	1241.5259	1282.5005	1316.5787	1356.5893	1841.4778	2361.7185	3070.3561	3148.0098	3165.1452	3484.0037
N=C1OC2C(OC12)C#N	[NH][C]1O[C@H]2[C@@H](O[C@@H]12)C#N	
InChI=1S/C5H4N2O2/c6-1-2-3-4(8-2)5(7)9-3/h2-4,7H	InChI=1S/C5H4N2O2/c6-1-2-3-4(8-2)5(7)9-3/h2-4,7H/t2-,3-,4+/m0/s1
