20
gdb 120076	5.89247	0.85466	0.85129	1.2413	80.79	-0.2305	0.0805	0.311	1441.7881	0.17079	-403.03045	-403.022187	-403.021243	-403.064076	30.954	
C	-0.3873479114	 1.4165572429	-0.5517643674	-0.222974
O	-0.3016223258	 0.0156070226	-0.6484141544	-0.235673
C	 0.9793989313	-0.4815638519	-0.320828937	-0.088236
C	 0.9267057018	-1.9909816902	-0.426663412	 0.034178
C	 1.0548782325	-2.7044967541	-1.7697798577	-0.068912
C	 2.6017214428	-2.4996160018	-1.7376599365	-0.008225
C	 2.917880616	-3.9855369993	-1.9226206034	-0.258163
C	 1.6816771552	-3.9216669638	-1.0243585699	 0.002556
N	 2.2591040556	-2.7141859293	-0.2305176727	-0.186492
H	-0.170630517	 1.7699595451	 0.4689674584	 0.104436
H	 0.3103184338	 1.9185292955	-1.2413480818	 0.102472
H	-1.408980835	 1.7017927238	-0.814812399	 0.126338
H	 1.7414978083	-0.0574989142	-0.9957628472	 0.083082
H	 1.2617148184	-0.1948159966	 0.7068770253	 0.094581
H	 0.149601903	-2.3761965202	 0.2447557725	 0.075982
H	 0.3912786153	-2.7141139099	-2.6402998357	 0.069046
H	 3.1751584431	-1.6300107091	-2.0603284878	 0.084122
H	 2.7806855023	-4.3996587009	-2.9245709099	 0.099896
H	 3.8380167173	-4.3450005772	-1.4544777059	 0.109032
H	 1.1524465226	-4.7161745214	-0.4947780879	 0.082954
57.3281	88.4529	128.3812	222.4935	262.5219	332.6868	349.065	451.9736	580.5937	704.9911	784.0458	815.4465	847.2529	850.7395	886.1144	909.6526	931.8994	998.2304	1020.094	1026.4913	1036.4368	1051.5376	1106.1351	1132.9047	1144.4871	1151.9063	1163.9861	1180.195	1183.6402	1195.8679	1220.8505	1232.7321	1243.939	1265.8861	1271.458	1316.4655	1382.3346	1440.2896	1481.7893	1485.5309	1490.0982	1503.5291	1525.6653	2953.0782	2970.0728	2982.3985	3011.3014	3039.6788	3054.0895	3057.8534	3098.3788	3109.3816	3112.3427	3123.5088
COCC1C2C3CC2N13	COC[C@H]1[C@H]2[C@@H]3C[C@H]2N13	
InChI=1S/C7H11NO/c1-9-3-6-7-4-2-5(7)8(4)6/h4-7H,2-3H2,1H3	InChI=1S/C7H11NO/c1-9-3-6-7-4-2-5(7)8(4)6/h4-7H,2-3H2,1H3/t4-,5+,6-,7-/m0/s1
