17
gdb 65953	2.29174	1.53035	1.33819	2.1699	72.78	-0.2484	0.0177	0.2661	1046.68	0.135244	-417.971593	-417.962873	-417.961929	-418.005102	32.397	
N	-0.0838538131	 1.4740032489	-0.1258689924	-0.539143
C	-0.0108809009	 0.0208487947	-0.0501146245	-0.037667
C	 0.081879416	-0.4996396264	 1.4125983855	-0.083789
O	-1.2721400911	-0.9879993294	 1.3747629408	-0.297776
C	-1.3886105151	-0.6633434838	-0.0062310456	 0.47931
C	-2.6709375418	-0.2520345297	-0.6363579364	-0.33279
C	-2.0217408677	-1.5840303591	-0.9931906651	-0.343888
C	 0.9442486784	-0.5707431141	-0.9970300335	 0.241571
N	 1.6977688836	-0.9946916683	-1.7655538669	-0.344352
H	 0.8442909145	 1.8736410532	-0.0102497128	 0.244969
H	-0.4055916151	 1.7593711557	-1.0470435653	 0.243587
H	 0.8070416393	-1.3037335402	 1.5736033018	 0.12262
H	 0.2155099393	 0.2996088928	 2.1469674365	 0.122764
H	-3.5479311571	-0.271442845	 0.0015929172	 0.136355
H	-2.6659033517	 0.5461277798	-1.3715776356	 0.118467
H	-1.559519255	-1.6952443651	-1.9687796483	 0.135508
H	-2.4724154926	-2.486039054	-0.5939669354	 0.134254
60.9834	124.6915	182.0589	190.0658	232.3114	287.3639	335.7964	388.5397	491.7678	518.9068	548.1318	627.7331	652.962	752.6537	871.3335	877.5001	886.2304	924.7122	951.1851	979.0139	989.2582	1031.9602	1054.864	1073.0751	1146.6453	1180.8472	1185.7135	1210.0811	1231.9805	1290.8036	1353.6951	1382.9335	1448.5111	1490.1712	1513.8427	1656.148	2341.1715	3041.919	3104.2183	3131.1418	3133.1128	3214.4525	3228.5544	3483.9329	3562.3166
NC1(COC11CC1)C#N	N[C@]1(COC21CC2)C#N	
InChI=1S/C6H8N2O/c7-3-5(8)4-9-6(5)1-2-6/h1-2,4,8H2	InChI=1S/C6H8N2O/c7-3-5(8)4-9-6(5)1-2-6/h1-2,4,8H2/t5-/m0/s1
