17
gdb 31565	3.37277	1.15947	0.87341	1.8419	74.01	-0.1709	0.0498	0.2207	1296.339	0.136064	-455.152387	-455.143144	-455.1422	-455.186755	33.861	
C	 0.0210225705	 1.4309991688	-0.1602130917	-0.243634
O	 0.0841288261	 0.0154757392	-0.0137303506	-0.270942
C	 0.6150434045	-0.6779555534	-1.0290536465	 0.462899
C	 0.6796363692	-2.0250015268	-1.207576313	-0.410232
C	 1.3865178997	-2.2060967857	-2.4486304886	 0.254899
N	 1.6272877691	-3.4271072549	-3.0877404454	-0.613026
C	 1.6996255696	-0.9709129208	-2.9276888692	 0.187968
N	 2.3496194594	-0.5794312917	-4.0912089626	-0.603049
O	 1.1985058816	-0.0000162618	-2.0330273201	-0.225165
H	 1.0212573048	 1.867060584	-0.249259098	 0.131759
H	-0.5678481864	 1.7137015609	-1.0394572121	 0.129999
H	-0.4639542658	 1.8001955085	 0.7441211619	 0.134673
H	 0.2710920821	-2.7805905988	-0.5577379051	 0.100889
H	 1.9477624838	-4.1472320502	-2.4526286383	 0.240025
H	 2.2906266974	-3.3146295188	-3.84537748	 0.245447
H	 1.7517051783	-0.1063227796	-4.7624791971	 0.239124
H	 3.167965386	-0.0015420789	-3.9278548037	 0.238366
35.6671	150.5965	194.5501	201.0146	217.1226	252.8026	299.8966	324.7022	391.3461	392.5084	548.9184	619.4619	638.0816	666.0322	679.9653	732.7234	755.3196	794.6664	826.2276	984.7367	1029.4577	1067.0686	1123.2504	1177.3067	1200.8173	1209.6001	1225.6682	1309.8392	1356.8072	1464.8924	1484.1597	1485.0227	1503.3794	1636.2844	1644.7695	1665.8156	1736.3366	3030.0039	3095.536	3146.1392	3270.4663	3477.2213	3523.7509	3538.1073	3617.1181
COC1=CC(N)=C(N)O1	COc1cc(N)c(N)o1	
InChI=1S/C5H8N2O2/c1-8-4-2-3(6)5(7)9-4/h2H,6-7H2,1H3	InChI=1S/C5H8N2O2/c1-8-4-2-3(6)5(7)9-4/h2H,6-7H2,1H3
