22
gdb 106380	3.17887	1.41884	1.23211	1.2676	85.19	-0.2263	0.0916	0.318	1125.1418	0.196204	-367.16447	-367.156636	-367.155692	-367.196576	32.409	
C	 0.1518369011	 1.5440919451	-0.0266745012	-0.392827
C	-0.0454138699	 0.0254528511	 0.002041499	-0.279562
C	-1.4879926228	-0.4273696343	-0.0410365818	 0.358199
C	-2.5926312329	-0.0012723167	 0.9867847799	-0.243542
C	-3.5240255475	-0.5991762117	-0.1268482587	-0.056623
C	-2.5146018416	 0.0146870634	-1.1292378833	-0.286683
C	-3.0862086332	-2.0655495556	-0.0238237599	-0.017796
C	-2.1797879393	-2.6552189729	-1.0414972717	-0.264591
N	-1.6096847047	-1.9266177645	 0.1072339972	-0.1401
H	 1.2158307573	 1.7960653024	 0.0125966516	 0.11365
H	-0.2584542179	 1.9885425081	-0.9394840632	 0.115442
H	-0.3338995506	 2.0276030037	 0.8272503966	 0.117019
H	 0.4835066173	-0.4312137792	-0.8451632756	 0.098682
H	 0.4128354645	-0.3969555866	 0.9042950495	 0.109195
H	-2.5718261542	-0.5046741166	 1.9566120546	 0.099227
H	-2.6958906324	 1.0793276534	 1.106183317	 0.094212
H	-4.5916403955	-0.3865369599	-0.172671534	 0.064185
H	-2.6059242811	 1.1011855931	-1.164864342	 0.10094
H	-2.4477283355	-0.367233262	-2.1487270349	 0.092385
H	-3.591017943	-2.7050522928	 0.696268765	 0.090657
H	-1.9915496017	-3.7247690954	-0.9941188671	 0.113441
H	-2.1186919063	-2.247808102	-2.0439613069	 0.114492
80.6397	182.0034	210.9476	276.7192	348.513	409.7576	442.2426	553.7089	561.2875	606.0327	647.6445	740.3226	765.1148	790.7022	833.8885	860.0297	887.7624	911.5645	948.175	967.7048	985.3183	991.1914	1026.7972	1056.858	1059.8418	1072.4562	1100.5758	1112.6982	1128.8432	1147.3159	1180.0127	1192.2412	1205.5293	1221.708	1244.6904	1293.2459	1306.7556	1308.2355	1362.993	1378.0585	1411.5303	1475.4358	1481.3289	1499.3892	1502.0108	1507.7713	1542.1332	3020.6765	3035.2728	3057.5397	3061.7705	3081.4915	3103.0848	3105.6406	3118.2959	3120.0015	3127.6074	3132.0767	3136.2142	3204.29
CCC12CC(C1)C1CN21	CC[C@@]12C[C@@H](C1)[C@H]1CN21	
InChI=1S/C8H13N/c1-2-8-3-6(4-8)7-5-9(7)8/h6-7H,2-5H2,1H3	InChI=1S/C8H13N/c1-2-8-3-6(4-8)7-5-9(7)8/h6-7H,2-5H2,1H3/t6-,7-,8+,9?/m1/s1
