19
gdb 91566	2.79517	1.2477	1.0188	1.3012	80.28	-0.2331	0.0457	0.2788	1217.6109	0.156932	-385.816255	-385.807213	-385.806269	-385.850232	34.24	
C	-0.0792327589	 1.5124284121	-0.1880549766	-0.408413
C	 0.1314696169	 0.0176686615	-0.0810069353	 0.111299
O	 1.2902803876	-0.4755232342	-0.8249892727	-0.308984
C	 1.7498610335	-1.1767768828	 0.330421243	 0.039837
C	 2.0970356315	-0.2191385407	 1.4295026233	-0.344837
C	 0.6534401573	-0.6271551047	 1.2103856784	 0.272676
C	-0.217956387	-1.2662503773	 2.2650568797	-0.475673
C	-0.9183145216	-0.2830307247	 3.0908811788	 0.316863
C	-1.4921578651	 0.543257465	 3.7486299686	-0.457144
H	 0.7846663339	 2.0679588001	 0.1854615322	 0.121999
H	-0.2449954692	 1.797504281	-1.2318496586	 0.126126
H	-0.9590396821	 1.8046330063	 0.3941824487	 0.129074
H	-0.7608652984	-0.5188055018	-0.4333636453	 0.078762
H	 2.1609462306	-2.1711344034	 0.1963857658	 0.103903
H	 2.5508667153	-0.663663969	 2.3107651334	 0.113568
H	 2.4559871074	 0.7753544073	 1.1825428477	 0.117212
H	-0.9550271298	-1.9257587305	 1.7865844014	 0.133224
H	 0.3952616961	-1.9121973746	 2.906271556	 0.132607
H	-1.9981629679	 1.2660081603	 4.3394233314	 0.197901
51.158	95.5686	196.4249	203.4157	240.0563	294.749	345.6404	356.1964	425.6696	480.0815	524.7994	621.4549	640.7152	710.8176	714.5958	839.0937	870.9914	878.7161	915.6577	948.0352	960.2509	1006.8144	1027.1342	1047.7928	1082.7343	1085.5229	1124.2146	1137.5109	1181.9731	1253.5274	1264.6475	1315.1422	1336.5301	1383.3754	1398.1033	1417.8778	1462.626	1483.8667	1485.2015	1496.1266	2237.1565	3003.2051	3011.9958	3041.0191	3046.7174	3111.4632	3117.3096	3123.7714	3175.4561	3206.5203	3505.9536
CC1OC2CC12CC#C	C[C@H]1O[C@H]2C[C@@]12CC#C	
InChI=1S/C8H10O/c1-3-4-8-5-7(8)9-6(8)2/h1,6-7H,4-5H2,2H3	InChI=1S/C8H10O/c1-3-4-8-5-7(8)9-6(8)2/h1,6-7H,4-5H2,2H3/t6-,7+,8+/m1/s1
