18
gdb 127442	3.16747	1.20152	0.92463	1.3659	75.47	-0.2443	0.0033	0.2476	1278.0965	0.148195	-435.300527	-435.291169	-435.290225	-435.335079	32.908	
C	 0.115157804	 1.3685556256	 0.0377605972	-0.341588
N	 0.087080703	-0.080647889	 0.0744804401	 0.009233
N	 0.0979396965	-0.8018973428	-1.074812242	-0.301096
C	 0.034974836	-2.0539806262	-0.6413233208	 0.333833
C	 0.0255464965	-3.2237603909	-1.5671565201	-0.483462
N	-0.0097181628	-2.1728693743	 0.7175627845	-0.349211
C	 0.0174391237	-0.9165617234	 1.1355193372	 0.2962
C	-0.011444915	-0.4786782279	 2.5688304958	-0.189293
O	 1.0843826217	 0.3597020905	 2.9235566701	-0.407258
H	 0.7775685264	 1.682634841	-0.7702742167	 0.156152
H	-0.884385324	 1.7748417402	-0.1481151927	 0.142055
H	 0.4959260221	 1.7337788389	 0.991657521	 0.167936
H	 0.876610342	-3.883015446	-1.3690948547	 0.136421
H	-0.883066307	-3.8186563754	-1.4305103427	 0.137721
H	 0.0739943479	-2.8840633542	-2.6030658831	 0.137952
H	-0.9076414274	 0.1153135602	 2.7779105269	 0.128236
H	-0.0590061261	-1.3847318477	 3.1841379653	 0.133692
H	 1.8931724624	-0.1455370384	 2.7862113147	 0.292477
72.5364	102.64	128.2532	156.4349	183.8977	240.9827	273.7749	299.2709	382.0893	411.1348	492.7666	627.3721	658.03	716.4553	773.784	806.495	969.6788	1005.6618	1038.8133	1065.3879	1069.6479	1073.6547	1154.6104	1188.9421	1234.4595	1316.1406	1356.6208	1370.6907	1409.1001	1415.3219	1444.0324	1478.5802	1480.2671	1484.6888	1492.6589	1499.3512	1510.5911	1543.1764	1563.1842	3038.1251	3045.7985	3047.7057	3082.773	3101.0983	3125.6953	3143.6046	3166.3607	3807.5496
CN1N=C(C)N=C1CO	Cn1nc(C)nc1CO	
InChI=1S/C5H9N3O/c1-4-6-5(3-9)8(2)7-4/h9H,3H2,1-2H3	InChI=1S/C5H9N3O/c1-4-6-5(3-9)8(2)7-4/h9H,3H2,1-2H3
