15
gdb 74591	2.62269	2.1408	1.44733	2.581	68.95	-0.2462	-0.036	0.2103	894.9411	0.113251	-416.794293	-416.787375	-416.78643	-416.825562	26.916	
C	 0.0219464819	 1.4714607331	 0.0746019688	-0.487049
C	-0.0684569271	-0.0068875124	-0.0336407	 0.310871
N	 0.0261219164	-0.7069604957	-1.0962911696	-0.24405
C	-0.0258525171	-2.0903531882	-0.6526109829	-0.012782
C	-0.5730313391	-2.1509264134	 0.7102650863	-0.043955
C	 0.9018600646	-2.5380461232	 0.5386514467	-0.238863
C	 1.2180389624	-1.3478363046	 1.3546750276	 0.435875
O	 2.1229139482	-0.9185474202	 1.9953018989	-0.30792
N	-0.1774969373	-0.7885403925	 1.2026405711	-0.248124
H	 0.8579039649	 1.7422535158	 0.7291517719	 0.162108
H	 0.1681607518	 1.9169730467	-0.9096177263	 0.149908
H	-0.8861512257	 1.8716043704	 0.5370491657	 0.14898
H	-0.2050735146	-2.8541864703	-1.398552973	 0.1218
H	-1.3884153301	-2.7036363357	 1.1563245123	 0.127315
H	 1.3920017506	-3.5017033597	 0.5274207526	 0.125885
135.5533	163.0567	186.7595	331.5616	423.7284	444.2193	584.0687	619.6823	678.0641	752.4708	761.8185	803.364	829.2187	841.862	861.262	912.6546	967.9208	999.6231	1004.6983	1034.8386	1052.7767	1070.5973	1098.2267	1125.1964	1206.2207	1273.1583	1280.8522	1354.9272	1409.9189	1470.0501	1471.2479	1699.9375	1916.6647	3044.2483	3101.1447	3157.6019	3205.9027	3212.3692	3223.9139
CC1=NC2C3C2C(=O)N13	C[C]1[N][C@@H]2[C@H]3[C@@H]2C(=O)N13	
InChI=1S/C6H6N2O/c1-2-7-4-3-5(4)8(2)6(3)9/h3-5H,1H3	InChI=1S/C6H6N2O/c1-2-7-4-3-5(4)8(2)6(3)9/h3-5H,1H3/t3-,4+,5-/m1/s1
