20
gdb 108606	2.7737	1.209	0.90699	4.1965	83.62	-0.2364	-0.0132	0.2232	1326.954	0.170343	-403.21845	-403.208436	-403.207492	-403.255141	35.153	
C	-0.2422583159	 1.6152896021	-0.1156097719	-0.374003
C	 0.0351879174	 0.1035171791	-0.0079231947	-0.290581
C	 0.7748140384	-0.4539725068	-1.1863921114	 0.200679
C	 2.0397937512	-0.8959143632	-1.2678675387	 0.082789
C	 3.1160855507	-0.9859976807	-0.2379064283	-0.494461
C	 2.3163834422	-1.3517800832	-2.6675193366	 0.380594
O	 3.3554646434	-1.7963310304	-3.1136929681	-0.388838
N	 1.1399592276	-1.1643893633	-3.3556254064	-0.349176
C	 0.1018237111	-0.5875154907	-2.5387008868	-0.248848
H	 0.6922244575	 2.1784451385	-0.1973839242	 0.127158
H	-0.852797356	 1.8512942303	-0.9928076759	 0.119814
H	-0.7793106309	 1.9716284495	 0.7684513394	 0.119347
H	 0.6025677046	-0.0946887467	 0.9066564743	 0.112345
H	-0.9215575511	-0.4252724942	 0.1015996468	 0.107814
H	 3.4820085546	-2.0152570931	-0.1573040018	 0.144195
H	 3.9790326824	-0.3787450921	-0.5328838882	 0.143552
H	 2.7803143925	-0.6550179967	 0.7474783832	 0.117037
H	 1.0622630351	-1.3463227232	-4.3411479747	 0.251151
H	-0.787409613	-1.2329862185	-2.4749909901	 0.118701
H	-0.235858602	 0.3862449733	-2.923050766	 0.120731
22.4375	50.8871	83.3681	128.349	206.8169	223.5884	263.8691	311.1582	341.0378	408.776	505.7292	554.6133	591.6063	672.5784	753.9931	769.1228	789.5669	879.0372	962.7186	989.1216	1012.2227	1059.1512	1080.9663	1083.6952	1129.2945	1166.4312	1189.0151	1191.9942	1294.5155	1327.9608	1341.5182	1365.0371	1408.61	1417.1518	1425.6344	1472.0227	1477.2552	1488.9881	1498.9022	1502.3553	1508.4725	1725.1039	1814.0054	2989.0884	3009.9985	3017.1776	3037.7933	3039.7207	3075.1222	3089.3779	3111.009	3115.1022	3123.6814	3675.2712
CCC1=C(C)C(=O)NC1	CCC1=C(C)C(=O)NC1	
InChI=1S/C7H11NO/c1-3-6-4-8-7(9)5(6)2/h3-4H2,1-2H3,(H,8,9)	InChI=1S/C7H11NO/c1-3-6-4-8-7(9)5(6)2/h3-4H2,1-2H3,(H,8,9)
