23
gdb 108589	2.3422	1.39854	1.18293	1.0453	85.22	-0.2362	0.079	0.3152	1213.8703	0.205844	-388.284386	-388.274777	-388.273833	-388.318743	36.015	
C	 0.0144109804	 1.3251028176	-0.5095520396	-0.251214
O	 0.0120001042	 0.0267217851	 0.049701575	-0.283143
C	-1.2613084694	-0.5369055788	 0.1604481538	 0.422339
C	-2.1448295988	-0.0399297226	 1.30256959	-0.282787
C	-3.0418456288	-1.2368881086	 1.7096643544	-0.22711
C	-2.3611666594	-2.512026041	 1.1404240882	-0.220566
C	-1.3987567878	-2.0330540543	 0.0635587686	-0.133925
C	-1.8822926483	-1.1434859501	-1.0782289079	-0.067244
C	-3.3111415818	-0.9862418149	-1.5565489507	-0.427052
H	 1.0586903518	 1.6358772599	-0.594510446	 0.122728
H	-0.4444366814	 1.336850849	-1.5090650921	 0.104058
H	-0.5172667216	 2.0500917273	 0.1237801817	 0.106235
H	-1.4730288238	 0.2429250534	 2.1207084774	 0.108023
H	-2.737796105	 0.8458977514	 1.0503660993	 0.094094
H	-3.1621100304	-1.29465929	 2.7950730138	 0.09929
H	-4.0483874654	-1.122540793	 1.2997235947	 0.107125
H	-1.7852660307	-3.0215772824	 1.9211226844	 0.102883
H	-3.0976161158	-3.2348502982	 0.7723225826	 0.096685
H	-0.518700304	-2.6337918964	-0.1394912778	 0.086805
H	-1.1675983367	-1.1559576949	-1.8992552838	 0.088239
H	-4.0302377073	-0.8640766687	-0.7446046435	 0.120205
H	-3.4038629627	-0.1083598766	-2.2058462925	 0.116019
H	-3.6233638772	-1.859116173	-2.1414232499	 0.118314
91.4545	99.8922	150.232	163.1785	180.3459	195.5657	247.0869	344.3527	389.3839	458.3337	501.9615	590.6898	664.1959	696.6884	750.401	825.207	866.9471	900.4359	911.3951	953.2306	1001.0191	1014.3162	1028.2449	1058.2642	1082.7926	1117.5776	1132.7911	1146.7643	1177.874	1184.41	1199.5437	1223.1346	1248.2882	1257.5671	1278.3742	1319.5501	1321.6582	1344.3383	1361.8342	1415.768	1444.8476	1480.6705	1486.4178	1489.2934	1491.2122	1497.8041	1506.2825	1509.6554	1519.1426	2984.7007	3031.4401	3032.6454	3034.976	3037.8173	3060.0799	3066.1302	3071.5918	3082.6443	3100.6134	3112.831	3116.4229	3135.4301	3167.3753
COC12CCCC1C2C	CO[C@]12CCC[C@H]1[C@H]2C	
InChI=1S/C8H14O/c1-6-7-4-3-5-8(6,7)9-2/h6-7H,3-5H2,1-2H3	InChI=1S/C8H14O/c1-6-7-4-3-5-8(6,7)9-2/h6-7H,3-5H2,1-2H3/t6-,7+,8+/m1/s1
