19
gdb 91486	2.47444	1.59657	1.20013	3.3329	75.38	-0.2426	-0.0235	0.219	1071.8916	0.159866	-423.022656	-423.014567	-423.013622	-423.055361	31.436	
O	 0.3228886418	 1.2854400314	-0.19279744	-0.440333
C	 0.0322297126	-0.0887976408	-0.0417865442	 0.102185
C	 0.5237451735	-0.7448182058	 1.2924268714	-0.261142
C	-0.8212509037	-1.2710672932	 1.8262570068	-0.020067
C	-1.4416747059	-1.9060851992	 0.5470255057	-0.267571
C	-1.4822837651	-0.4309682157	 0.0700655825	 0.241904
C	-1.768463703	-0.0653684868	 1.5708934827	-0.286321
C	-2.3786104979	 0.0465673294	-1.0223115997	 0.0329
O	-3.1697124355	-0.6524201256	-1.6093203291	-0.254786
H	 0.0746845852	 1.7430541981	 0.6171414234	 0.280243
H	 0.4692049579	-0.5651059616	-0.923487301	 0.100465
H	 1.2555276447	-1.5397899115	 1.1260400852	 0.108694
H	 0.9835062681	 0.0047306415	 1.9452884078	 0.096624
H	-0.8155681409	-1.7916668361	 2.7836089073	 0.07011
H	-0.831292678	-2.6094019936	-0.0264529519	 0.098966
H	-2.4424896361	-2.3130399657	 0.6986992004	 0.117282
H	-2.8048757624	-0.2678929705	 1.8474694333	 0.118469
H	-1.4747526072	 0.923175671	 1.9405752306	 0.081926
H	-2.2740294681	 1.1270333147	-1.266327401	 0.080454
72.4288	151.7286	189.6823	260.3299	283.3074	342.5776	408.0299	466.5087	483.3389	544.7558	668.3001	717.1396	816.8693	833.741	856.9839	896.1641	923.1335	940.0065	970.3667	990.6534	1016.3462	1041.5383	1061.7118	1087.0683	1110.6262	1132.4805	1187.2139	1191.2834	1217.4582	1244.0241	1256.0298	1286.0093	1303.8518	1313.7864	1331.6948	1422.3961	1432.1806	1490.9151	1491.4423	1526.1811	1812.9827	2887.8945	3040.3729	3049.5788	3062.9551	3075.5663	3100.89	3115.7039	3120.8485	3133.6561	3812.1887
OC1CC2CC1(C2)C=O	O[C@H]1C[C@@H]2C[C@]1(C2)C=O	
InChI=1S/C7H10O2/c8-4-7-2-5(3-7)1-6(7)9/h4-6,9H,1-3H2	InChI=1S/C7H10O2/c8-4-7-2-5(3-7)1-6(7)9/h4-6,9H,1-3H2/t5-,6-,7+/m0/s1
