21
gdb 107888	2.32492	1.77082	1.20373	1.0789	83.28	-0.2431	0.0957	0.3388	1114.5945	0.181822	-387.011445	-387.002902	-387.001957	-387.044446	33.172	
C	-0.0393491929	 1.4226026873	 0.0643835659	-0.264606
O	-0.0493491748	 0.0077692643	 0.1310986808	-0.292643
C	 0.6284711113	-0.5059326963	 1.2157693079	 0.450878
C	 0.3471495182	-0.2806447668	 2.7182112123	-0.332709
C	 1.5018184057	-1.2997890657	 2.6633525929	-0.054035
C	 0.9265059367	-2.0259993081	 1.39761805	-0.1135
C	 2.2884913987	-1.9521146686	 0.6646973579	 0.002495
C	 2.3394784119	-1.9557504669	-0.8563242989	-0.42764
C	 2.1945892804	-0.6144124921	 1.4384530778	-0.125515
H	 0.9832831934	 1.8163162627	-0.0204219114	 0.111897
H	-0.604751475	 1.7040335354	-0.8264266311	 0.128744
H	-0.5157624345	 1.8719937918	 0.9464151374	 0.115792
H	 0.5844014803	 0.7037947566	 3.134274574	 0.090063
H	-0.6139191392	-0.6438168386	 3.0965903483	 0.094029
H	 2.0222283163	-1.7860422209	 3.4853387702	 0.078464
H	 0.1792106509	-2.8219514405	 1.403715283	 0.067687
H	 3.0385577795	-2.6380552874	 1.079777413	 0.058013
H	 1.5867270797	-1.2868099799	-1.2801025636	 0.132804
H	 3.3252976706	-1.6374700448	-1.2149604168	 0.106842
H	 2.1592920014	-2.9628016111	-1.249702103	 0.10977
H	 2.9086953313	 0.2100107997	 1.4916290834	 0.063171
77.638	166.5187	180.5116	220.4081	222.1992	261.5244	378.8576	408.8965	455.8104	527.7851	643.8914	735.5406	737.7684	843.2497	850.1972	864.3297	892.5299	919.6466	986.7394	1005.3537	1023.7886	1033.6676	1066.1702	1084.8986	1091.429	1114.268	1126.6941	1144.789	1152.8522	1180.4028	1181.278	1207.763	1227.3035	1238.6308	1252.4045	1280.8189	1337.6582	1396.7902	1412.626	1481.4454	1488.0428	1497.7573	1503.9597	1506.5994	1512.5463	2994.4501	3016.5064	3029.2109	3036.4717	3049.4067	3083.4002	3090.0758	3095.9251	3096.5978	3123.7543	3126.5314	3144.1129
COC12CC3C1C(C)C23	CO[C@@]12C[C@H]3[C@@H]1[C@@H](C)[C@@H]23	
InChI=1S/C8H12O/c1-4-6-5-3-8(6,9-2)7(4)5/h4-7H,3H2,1-2H3	InChI=1S/C8H12O/c1-4-6-5-3-8(6,9-2)7(4)5/h4-7H,3H2,1-2H3/t4-,5+,6+,7-,8+
