17
gdb 52894	1.94513	1.23722	0.83782	2.156	85.86	-0.2472	0.0043	0.2516	1419.5932	0.131083	-384.612167	-384.601866	-384.600922	-384.64838	36.099	
C	 0.1003295238	 1.4889075707	 0.0747960293	-0.505351
C	 0.0403917592	 0.0364280298	 0.0250018693	 0.106172
C	-0.004313105	-1.1663824297	-0.0078272657	 0.008511
C	-0.0280331089	-2.6076544684	-0.0693561551	 0.071263
O	-0.5144535107	-3.2933156125	 1.1128054386	-0.278629
C	-1.3239706458	-3.3536438461	-0.0533835105	 0.04579
C	-2.6626926351	-2.6692373326	-0.0124031891	-0.431067
C	 1.1153670961	-3.2208618922	-0.7075091375	 0.262166
C	 2.0585860722	-3.7299098982	-1.2502827078	-0.444619
H	 1.1049460477	 1.8496293713	-0.170609224	 0.156535
H	-0.6008135803	 1.9418523155	-0.6345384355	 0.152413
H	-0.15124575	 1.8579583917	 1.0750046939	 0.156606
H	-1.3026509086	-4.3249754765	-0.5507375776	 0.10041
H	-2.5755455379	-1.6651582765	 0.4065449927	 0.140192
H	-3.0826265993	-2.5984367339	-1.0210826569	 0.127083
H	-3.3580461272	-3.2491295172	 0.6033811122	 0.132668
H	 2.8971094999	-4.1776672251	-1.7238668262	 0.199858
34.4815	79.5688	110.6873	143.7378	165.4505	181.8557	256.892	311.4377	349.6248	398.0679	461.2493	512.41	547.4003	579.7535	601.7164	621.9341	659.1515	771.6699	887.0091	928.8367	1014.0471	1044.7996	1051.1716	1054.5341	1131.4829	1160.8653	1261.1722	1323.5506	1401.7715	1413.1658	1432.6377	1475.2937	1476.5291	1484.621	1491.7003	2241.9837	2371.11	3030.2247	3041.6905	3092.4567	3094.6092	3096.3573	3105.4704	3142.3019	3502.1538
CC#CC1(OC1C)C#C	CC#C[C@]1(O[C@H]1C)C#C	
InChI=1S/C8H8O/c1-4-6-8(5-2)7(3)9-8/h2,7H,1,3H3	InChI=1S/C8H8O/c1-4-6-8(5-2)7(3)9-8/h2,7H,1,3H3/t7-,8+/m0/s1
