18
gdb 32873	4.55698	0.83502	0.71274	1.0995	76.74	-0.1876	0.0318	0.2194	1570.8402	0.147174	-439.09085	-439.081523	-439.080579	-439.126085	33.262	
C	-0.202523079	 1.3855628913	 0.3527597903	-0.222537
O	-0.2775456324	-0.0046446695	 0.5593874019	-0.228573
C	-1.0225396909	-0.6621286777	-0.4361038064	-0.166057
C	-1.0577164503	-2.1172670037	-0.1107892182	 0.35986
C	-0.5710022466	-2.8402458729	 0.93040439	-0.33155
C	-0.9315615563	-4.2091793622	 0.6712306189	 0.231371
N	-0.689872121	-5.2876313587	 1.5347049483	-0.60557
C	-1.6090695631	-4.2007706786	-0.5108350494	-0.107406
O	-1.695786347	-2.9164786174	-0.9966465256	-0.195441
H	 0.3888538986	 1.8041853115	 1.1702290566	 0.12969
H	 0.2868237466	 1.6306309199	-0.6032053361	 0.106492
H	-1.1996116062	 1.8535945653	 0.3576570596	 0.107217
H	-2.0498984713	-0.2578976381	-0.4907226283	 0.104869
H	-0.5750026054	-0.5058450285	-1.4344525614	 0.103934
H	-0.0305396215	-2.4506897704	 1.7777535197	 0.112049
H	 0.2082013458	-5.2192800273	 1.995927208	 0.244457
H	-0.7575640063	-6.1852963489	 1.0728810376	 0.241442
H	-2.0779870538	-4.963816864	-1.1080347055	 0.115753
34.897	75.5655	118.461	186.9518	223.3368	233.0662	323.1409	342.9834	366.2423	442.2232	611.9576	637.9605	645.515	665.5842	753.4776	772.2516	806.044	973.2141	1003.0175	1005.6536	1048.8885	1104.46	1135.2695	1161.8823	1183.8827	1185.0912	1231.7457	1238.4965	1261.8321	1318.3698	1420.4407	1456.8376	1484.0156	1485.9919	1501.8426	1523.9909	1594.876	1653.4321	1682.8487	2934.2113	2949.2742	2972.4062	3016.3719	3118.7034	3269.5184	3283.319	3536.6247	3625.8312
COCC1=CC(N)=CO1	COCc1cc(N)co1	
InChI=1S/C6H9NO2/c1-8-4-6-2-5(7)3-9-6/h2-3H,4,7H2,1H3	InChI=1S/C6H9NO2/c1-8-4-6-2-5(7)3-9-6/h2-3H,4,7H2,1H3
