19
gdb 81836	2.41722	1.5649	1.23841	3.4281	75.64	-0.2465	-0.0388	0.2077	1084.9031	0.158129	-423.009998	-423.001274	-423.00033	-423.043042	33.291	
C	-0.1101549284	 1.5203785246	 0.2503690603	-0.497414
C	 0.0177273792	 0.0419178026	 0.0205834311	 0.346487
C	-0.8825837756	-0.9894941916	 0.6410460452	-0.349476
C	 0.5929176856	-1.0589539372	 0.9238282041	-0.125441
C	 1.3689842921	-1.6569843734	-0.2546811826	 0.139412
O	 1.2515843378	-3.0116231208	-0.5717701516	-0.437975
C	 0.7397085308	-0.5751622263	-1.2183401726	-0.22797
C	-0.1761100588	-1.0383543266	-2.3075693072	 0.155597
O	-0.7501217129	-2.1085008557	-2.3044432712	-0.275519
H	 0.8461483747	 2.0344058098	 0.0999332693	 0.119619
H	-0.8422909653	 1.973419528	-0.4287361597	 0.123924
H	-0.4430279728	 1.7250342301	 1.27309864	 0.126123
H	-1.4843945926	-0.620314318	 1.4656344375	 0.114571
H	-1.3762829813	-1.7475192503	 0.0408341049	 0.129927
H	 0.9805788576	-0.9653677163	 1.9319157838	 0.08752
H	 2.4380569886	-1.4531538539	-0.141271848	 0.094116
H	 0.3949024199	-3.1316866004	-1.0059961713	 0.296522
H	 1.4842225843	 0.1127565484	-1.6301398103	 0.084738
H	-0.3501243429	-0.322781903	-3.1408990116	 0.095239
115.6767	124.6152	190.1942	213.1197	238.9411	255.6587	335.2592	402.462	426.7278	507.7297	533.7969	600.6343	689.8343	764.0269	795.5202	836.8813	896.7755	916.8413	971.4769	979.1241	1016.9495	1034.9288	1061.4256	1087.6791	1104.2465	1120.2333	1139.1644	1175.6966	1222.0958	1252.4391	1292.9108	1327.6438	1352.5249	1395.6746	1420.5423	1429.3399	1463.0358	1484.5854	1497.2326	1503.0713	1780.7982	2889.4019	3021.7013	3057.4638	3071.3399	3079.8754	3098.1917	3126.0509	3175.4375	3207.0929	3726.6364
CC12CC1C(O)C2C=O	C[C@]12C[C@H]1[C@@H](O)[C@H]2C=O	
InChI=1S/C7H10O2/c1-7-2-4(7)6(9)5(7)3-8/h3-6,9H,2H2,1H3	InChI=1S/C7H10O2/c1-7-2-4(7)6(9)5(7)3-8/h3-6,9H,2H2,1H3/t4-,5+,6+,7-/m0/s1
