20
gdb 110463	3.8207	1.40205	1.25969	1.4897	80.35	-0.2233	0.0744	0.2976	1074.4159	0.172676	-365.959372	-365.952061	-365.951117	-365.991124	29.791	
C	 0.0416572177	 1.533671573	 0.0463583741	-0.380151
C	-0.0068913882	 0.0034277739	 0.0207506907	-0.176186
C	-1.4294943617	-0.5546550053	-0.0128201198	 0.040602
C	-1.5224316022	-2.0728388656	-0.0110718168	-0.091094
C	-1.5350911214	-2.5563608134	 1.4227861855	-0.093295
C	-2.8249011098	-2.4854221489	 0.630195818	-0.11253
C	-3.2332056476	-1.2161570159	 1.4372075036	-0.064587
C	-1.9665598777	-1.288817245	 2.2146007897	-0.06772
N	-2.1744168814	-0.2215528081	 1.2171438284	-0.117356
H	 1.073711424	 1.8955175324	 0.0883070271	 0.10486
H	-0.4235781466	 1.9583044685	-0.8504038911	 0.109389
H	-0.4969884364	 1.9223524439	 0.9144792315	 0.135521
H	 0.5341636918	-0.3729269966	-0.8566491424	 0.090491
H	 0.5081430007	-0.4042838711	 0.8996176309	 0.097988
H	-1.9776428885	-0.1277033676	-0.8627017806	 0.075087
H	-1.0803282364	-2.686000015	-0.7871005205	 0.087848
H	-0.9999318604	-3.4146954016	 1.8013842732	 0.088853
H	-3.4716517604	-3.2786550223	 0.2847924373	 0.08987
H	-4.2321727899	-0.8952895216	 1.7031009245	 0.091581
H	-1.7272221257	-1.0334200039	 3.2385176868	 0.09083
94.2923	158.3641	189.869	261.1915	372.8033	515.908	584.517	710.6187	712.87	751.7524	779.4875	800.3855	802.2165	823.8998	865.937	891.551	908.9219	926.1269	951.6463	969.0714	1002.3109	1004.8249	1009.4207	1033.2724	1038.6862	1057.9186	1087.9546	1132.3868	1157.0718	1197.9062	1209.8746	1249.0975	1255.6781	1280.985	1290.5324	1303.7234	1339.7865	1383.9546	1398.1332	1409.7187	1481.7572	1495.9627	1509.0891	3022.3246	3027.8301	3034.7869	3059.5017	3098.0896	3122.3066	3188.7578	3192.0408	3201.5836	3217.7773	3229.6554
CCC1C2C3C2C2C3N12	CC[C@H]1[C@H]2[C@@H]3[C@H]2[C@H]2[C@@H]3N12	
InChI=1S/C8H11N/c1-2-3-4-5-6(4)8-7(5)9(3)8/h3-8H,2H2,1H3	InChI=1S/C8H11N/c1-2-3-4-5-6(4)8-7(5)9(3)8/h3-8H,2H2,1H3/t3-,4-,5+,6-,7+,8-,9?/m0/s1
