19
gdb 40249	2.77891	1.63499	1.23714	3.2039	75.43	-0.2335	0.0597	0.2932	1045.303	0.162301	-419.150018	-419.142604	-419.141659	-419.181775	29.77	
C	 0.0507064146	 1.4983330644	-0.0251886896	-0.288972
N	 1.2702003327	 0.6701968348	 0.0492436097	-0.353151
C	-0.0511839998	 0.0202392434	 0.0049442246	 0.36886
C	-0.4500350635	-0.716568531	 1.2699725265	-0.154405
O	-0.0235649683	-2.0683295115	 1.2122153051	-0.248773
C	-0.7209443451	-2.8272209807	 0.2405522878	-0.075809
C	-0.7767863684	-2.162292619	-1.1311166752	-0.058561
N	-1.8461625333	-1.1614934699	-1.3130212473	-0.34083
C	-0.4435696991	-0.7156573719	-1.2403663399	-0.121743
H	-0.1612028207	 2.0794205065	 0.8689183553	 0.118152
H	-0.1879077283	 2.0058857888	-0.9570181059	 0.107135
H	 1.7196834711	 0.6256264926	-0.8633617872	 0.225177
H	 0.0532293753	-0.266073727	 2.1281962743	 0.114988
H	-1.5399578213	-0.657621697	 1.4120016409	 0.102427
H	-0.1866815965	-3.7795819736	 0.1727852928	 0.10745
H	-1.7504022547	-3.0304797901	 0.5767130016	 0.098724
H	-0.5371861095	-2.8010884752	-1.9776165336	 0.091393
H	-2.1667366749	-1.1520645571	-2.2774716341	 0.232926
H	 0.0280364396	-0.3628546065	-2.1572984257	 0.075011
97.9166	203.7161	245.1114	292.7761	362.8921	392.6299	439.8779	486.0225	528.4435	674.0525	779.7193	797.7397	829.1811	883.2292	912.2174	925.7976	934.5408	947.693	979.5273	987.0563	1032.4491	1045.8869	1080.9545	1112.6424	1125.6798	1143.3629	1168.8093	1206.6817	1250.7308	1260.5913	1262.6604	1314.843	1337.3797	1353.9729	1385.1708	1410.048	1420.172	1471.2291	1478.7299	1491.7312	1514.8187	2977.1094	2994.4275	3080.8248	3099.9569	3104.3533	3109.7889	3137.1747	3182.7204	3480.1534	3506.515
C1NC11COCC2NC12	C1N[C@]21COC[C@H]1N[C@@H]21	
InChI=1S/C6H10N2O/c1-4-5(8-4)6(2-7-6)3-9-1/h4-5,7-8H,1-3H2	InChI=1S/C6H10N2O/c1-4-5(8-4)6(2-7-6)3-9-1/h4-5,7-8H,1-3H2/t4-,5-,6-/m1/s1
