22
gdb 116682	2.76155	0.88263	0.74259	2.8515	87.77	-0.2302	0.0191	0.2493	1641.5406	0.191475	-404.33092	-404.320228	-404.319284	-404.367843	37.885	
C	 0.6815778187	-0.2167912499	 1.6108703191	-0.37152
C	 0.2425271628	-0.203266364	 0.1430886522	-0.220573
C	-1.2444311485	-0.4779681276	-0.0448275405	 0.353868
C	-1.6949841078	-1.1419697186	-1.3316173751	-0.333456
C	-1.6958871106	-1.9131355552	-0.0251740638	-0.279023
N	-2.0655469676	 0.4846491929	 0.6459736626	-0.270451
C	-2.7874360534	 1.2664491308	-0.0254581221	 0.116818
O	-3.538428792	 2.1991532992	 0.5934023383	-0.19224
C	-4.3522105814	 2.995280734	-0.2587914945	-0.249533
H	 1.7505946526	 0.000360744	 1.7004263197	 0.102045
H	 0.1260425712	 0.5273169225	 2.1864065439	 0.138145
H	 0.4962528266	-1.195325164	 2.0661564954	 0.112592
H	 0.479405074	 0.7704364254	-0.3054489961	 0.090884
H	 0.8078147441	-0.9530689493	-0.423206811	 0.088591
H	-2.6611688249	-0.8846092412	-1.7506211643	 0.103609
H	-0.9439563958	-1.3836904592	-2.0765326954	 0.108372
H	-0.9489074384	-2.686013023	 0.1242165977	 0.107349
H	-2.6598197617	-2.1241621621	 0.4247328959	 0.115165
H	-2.8710683607	 1.2675622139	-1.1216064793	 0.079508
H	-3.7516181264	 3.536204693	-1.0004172298	 0.126861
H	-5.1049986946	 2.3889721899	-0.7774120974	 0.126553
H	-4.8574425563	 3.7165622188	 0.3845343345	 0.146433
36.5968	62.955	93.8302	137.4272	150.1562	214.431	222.4841	234.8014	316.1032	329.3617	415.0009	464.0545	504.0772	571.5572	743.6802	776.9505	800.0825	898.1563	903.5129	937.089	982.9605	997.3264	1009.1817	1049.2315	1069.85	1075.7115	1085.2617	1117.0822	1165.8877	1176.857	1187.6089	1254.254	1270.8341	1300.2022	1341.7281	1372.1063	1401.7085	1409.4323	1459.9881	1481.1193	1484.1894	1493.5747	1494.5883	1498.9589	1500.7828	1510.1782	1764.2317	3006.4747	3017.7983	3020.601	3039.3059	3056.8791	3075.4233	3102.721	3127.7255	3127.87	3132.0941	3144.5521	3207.4492	3221.9711
CCC1(CC1)N=COC	CCC1(CC1)N=COC	
InChI=1S/C7H13NO/c1-3-7(4-5-7)8-6-9-2/h6H,3-5H2,1-2H3	InChI=1S/C7H13NO/c1-3-7(4-5-7)8-6-9-2/h6H,3-5H2,1-2H3
