19
gdb 71589	2.71168	1.69244	1.616	1.0356	80.14	-0.2235	0.0199	0.2434	954.2103	0.161533	-385.859061	-385.85198	-385.851036	-385.890026	29.728	
O	-0.0485586523	 1.3502905828	 0.0105524712	-0.47349
C	 0.0471506841	-0.0275039292	 0.0315170454	 0.391376
C	 0.6278918422	-0.9544366625	 1.1351277519	-0.305581
C	 0.0498826408	-1.8889913645	 0.0420017464	-0.069181
C	-1.2022081958	-0.9490651406	-0.0233363441	-0.01929
C	-2.067622683	-0.9376365437	-1.2810104864	-0.311097
C	-1.2282622824	-0.9681203955	-2.5282006551	-0.062783
C	 0.0977371243	-0.9839081987	-2.4093695391	-0.089172
C	 0.7095227667	-0.9735925007	-1.0430875998	-0.098316
H	 0.8403919553	 1.7211671052	-0.004491447	 0.281792
H	 1.7156898898	-0.960599818	 1.2546236238	 0.082036
H	 0.1113454221	-0.9478896626	 2.0985884331	 0.091741
H	 0.0506704027	-2.9767481795	 0.0389968576	 0.077819
H	-1.8076171265	-0.9389255413	 0.8888841574	 0.061985
H	-2.762033261	-1.7900605709	-1.2639531307	 0.104715
H	-2.7061330052	-0.0423195382	-1.2754620392	 0.117108
H	-1.7236171508	-0.9703943126	-3.4946244504	 0.085952
H	 0.750957949	-0.9992163585	-3.2766479739	 0.082463
H	 1.8033222499	-0.9794648011	-1.046093261	 0.051922
183.9387	200.4193	255.3027	351.7496	401.44	449.6697	488.361	557.9134	592.6161	629.7791	720.3602	782.5011	787.0624	804.7508	866.4314	933.1849	945.6662	956.8282	984.2738	995.8283	1007.9132	1016.2387	1065.6043	1086.9973	1097.9205	1123.9798	1129.5898	1168.3666	1176.2348	1202.6894	1216.0216	1255.0331	1292.9318	1330.0718	1349.2979	1361.7459	1409.7422	1434.6029	1468.8579	1519.8612	1714.4553	3000.2722	3021.394	3044.0231	3054.3882	3065.6014	3112.9009	3141.0648	3159.12	3182.8117	3807.1367
OC12CC3C1CC=CC23	O[C@@]12C[C@H]3[C@@H]1CC=C[C@@H]23	
InChI=1S/C8H10O/c9-8-4-5-6(8)2-1-3-7(5)8/h1-2,5-7,9H,3-4H2	InChI=1S/C8H10O/c9-8-4-5-6(8)2-1-3-7(5)8/h1-2,5-7,9H,3-4H2/t5-,6-,7+,8-/m1/s1
