20
gdb 40657	3.70998	1.20224	1.01185	1.4092	84.11	-0.2284	0.0147	0.2431	1219.708	0.17311	-365.975212	-365.967519	-365.966575	-366.007643	30.773	
C	-0.1954149964	 1.4144342599	-0.1978867952	-0.275545
C	 1.2461319973	 1.1464769145	 0.1625220007	-0.275924
C	 0.2714438293	 0.0017872968	 0.0443183824	 0.043283
C	-0.178686476	-0.7555918763	 1.2801971497	-0.052901
C	-1.551972331	-1.3994676622	 1.1434443671	-0.087641
C	-1.5406788188	-2.7059893302	 1.4137237746	-0.059274
C	-0.1540808473	-3.1629181603	 1.7273284259	-0.088202
N	 0.7703130211	-2.9838996366	 0.5669575633	-0.331576
C	 0.7080664571	-1.9562035117	 1.6300660557	-0.061723
H	-0.823912913	 1.8792937663	 0.5555323042	 0.105946
H	-0.427003904	 1.7164338317	-1.2133300767	 0.109709
H	 2.0008640035	 1.2624284546	-0.6073784777	 0.10976
H	 1.5790745802	 1.4326533079	 1.155410749	 0.1041
H	 0.3766055165	-0.6338271794	-0.828818677	 0.101797
H	-0.184045962	-0.0514622993	 2.1266033444	 0.070505
H	-2.4157084075	-0.8298210486	 0.8187028527	 0.096322
H	-2.3950212139	-3.3712607303	 1.3762526884	 0.096068
H	 0.0370753102	-3.9726948466	 2.4232965966	 0.086124
H	 1.6030692213	-3.5493524506	 0.726019543	 0.225273
H	 1.5767414433	-1.8137165196	 2.263552319	 0.083901
80.5543	130.0812	156.5651	297.8718	334.4996	407.4967	491.0601	530.5383	703.3087	749.5491	775.8335	793.2096	820.8363	830.5163	858.6549	875.4323	915.5533	918.8043	928.1328	948.2824	975.2547	1006.8187	1036.1474	1055.7611	1076.6695	1079.0126	1113.1151	1147.9958	1150.4328	1161.0078	1181.0412	1198.9429	1223.6053	1245.8251	1280.8944	1301.2396	1325.7889	1390.7431	1407.9323	1409.5617	1468.6657	1504.6886	1666.4985	2983.1731	3124.5847	3129.6978	3162.2405	3166.1238	3172.0534	3187.4501	3202.7853	3213.3661	3218.5187	3472.0761
C1CC1C1C=CC2NC12	C1CC1[C@H]1C=C[C@H]2N[C@@H]12	
InChI=1S/C8H11N/c1-2-5(1)6-3-4-7-8(6)9-7/h3-9H,1-2H2	InChI=1S/C8H11N/c1-2-5(1)6-3-4-7-8(6)9-7/h3-9H,1-2H2/t6-,7-,8+/m1/s1
