17
gdb 30410	2.51489	1.58814	0.98518	2.1975	81.89	-0.2239	-0.0244	0.1995	1176.6565	0.136246	-418.040186	-418.031656	-418.030712	-418.073619	30.984	
C	-0.1368466534	 1.4077852766	-0.0159236196	-0.331029
N	-0.1239465307	-0.0389622498	-0.0927244229	-0.305108
C	 0.589642166	-0.6295845914	-0.9709905257	 0.301267
N	 1.4035920201	 0.0458745119	-1.9155045627	-0.316336
C	 2.0764081711	-0.6308227684	-2.7487818878	 0.121206
O	 2.1269174755	-1.9790000049	-2.8665333054	-0.19112
C	 1.3561835782	-2.683904135	-1.9748854907	-0.035285
C	 0.5960486607	-2.0991446851	-1.0410946876	 0.178371
C	-0.237067756	-2.8878341336	-0.0784318261	-0.474181
H	 0.4993062559	 1.9073562644	-0.7538176732	 0.128599
H	-1.169129413	 1.7593438137	-0.1364847608	 0.12037
H	 0.1759637985	 1.7114636124	 0.9908725941	 0.120355
H	 2.7154734239	-0.1628751101	-3.4930156485	 0.142464
H	 1.4494685826	-3.7505726231	-2.1317736195	 0.136155
H	-0.1344541179	-3.9634405396	-0.2466591224	 0.111259
H	 0.0506993047	-2.6554012389	 0.9514899659	 0.146508
H	-1.2909657261	-2.6078969391	-0.1706901972	 0.146505
80.435	109.0741	170.9481	198.8084	220.5759	298.1964	317.743	462.9753	488.0383	491.3269	537.9695	609.2794	749.7908	785.403	857.6468	876.0494	962.9137	1006.8069	1027.6047	1066.1112	1066.6822	1095.4165	1128.6333	1164.8504	1191.7262	1321.3023	1398.1256	1412.574	1417.3349	1428.952	1462.6122	1481.8788	1486.3515	1495.0861	1661.5302	1708.7301	1730.428	3012.2862	3040.8893	3062.0994	3093.5435	3103.3597	3120.5329	3178.5817	3224.016
CN=C1N=COC=C1C	CN=c1ncocc1C	
InChI=1S/C6H8N2O/c1-5-3-9-4-8-6(5)7-2/h3-4H,1-2H3	InChI=1S/C6H8N2O/c1-5-3-9-4-8-6(5)7-2/h3-4H,1-2H3
