16
gdb 79175	2.68298	1.89995	1.4811	1.3472	67.17	-0.2433	-0.0357	0.2075	904.2593	0.125743	-437.855562	-437.84849	-437.847546	-437.887241	27.61	
O	 0.1317521467	 1.3973527202	 0.2424472251	-0.434052
C	-0.0120356682	 0.0013309997	 0.0523338306	 0.003211
C	-1.4451306744	-0.4326389373	-0.1235475857	-0.044203
C	-2.222628496	-0.1055568443	-1.3450940793	-0.02004
C	-1.3584526647	 0.2714326897	-2.5372685293	-0.257561
C	-0.4764879639	-0.959679479	-2.1431339514	-0.12557
N	-1.5674540644	-1.4635385738	-1.2022020943	-0.159681
C	 0.6417625848	-0.4381809084	-1.2751290729	 0.403289
O	 1.8028745511	-0.2770345122	-1.5509467447	-0.329628
H	 1.0710669514	 1.5947375063	 0.1344158356	 0.295363
H	 0.4451526064	-0.5634448219	 0.8808043875	 0.098025
H	-2.0253469937	-0.6724687015	 0.7606796981	 0.106458
H	-3.3009953323	 0.0072894356	-1.2928716568	 0.102164
H	-1.8723008781	 0.0853076534	-3.4818166981	 0.127495
H	-0.8982169882	 1.2622871404	-2.5574600267	 0.128654
H	-0.1868737765	-1.656983357	-2.9254080776	 0.106078
69.339	197.0223	235.7513	329.5503	372.5814	462.2323	497.7622	577.7035	659.37	722.8716	756.3289	777.1768	784.1101	865.734	898.1368	951.973	969.3407	1001.3089	1029.6446	1057.7855	1071.8518	1111.822	1136.299	1184.5611	1186.9901	1214.4034	1236.6725	1263.2843	1285.9734	1316.8819	1354.0025	1414.9525	1426.759	1491.2394	1847.857	2975.9608	3068.1737	3126.2033	3151.225	3160.5553	3178.2326	3774.9986
OC1C2C3CC(N23)C1=O	O[C@H]1[C@H]2[C@H]3C[C@H](N23)C1=O	
InChI=1S/C6H7NO2/c8-5-3-1-2-4(6(5)9)7(2)3/h2-4,6,9H,1H2	InChI=1S/C6H7NO2/c8-5-3-1-2-4(6(5)9)7(2)3/h2-4,6,9H,1H2/t2-,3+,4-,6+,7?/m1/s1
