16
gdb 130394	1.88571	1.64702	0.96444	3.1515	67.49	-0.2565	-0.0397	0.2168	1196.7767	0.124239	-471.165967	-471.157034	-471.15609	-471.200794	31.334	
N	 0.1299988484	 1.4083606983	-0.2512801519	-0.507612
C	-0.0435247487	-0.0198258715	 0.0411016952	-0.280455
C	 0.7051269993	-0.3871640914	 1.2801102332	 0.377089
C	 0.3159697289	-0.7187322144	 2.5459139086	 0.121887
C	-1.0518614231	-0.8437520237	 3.1452032149	-0.186184
O	-1.9456927491	-1.5919454485	 2.328641353	-0.406092
N	 1.4712515521	-0.95978109	 3.256520502	-0.166732
N	 2.4899315562	-0.7946629085	 2.5404093687	-0.020958
O	 2.0365610437	-0.4231628076	 1.2285378095	-0.221383
H	 1.0961146363	 1.5886965533	-0.5081107263	 0.241406
H	-0.4346877525	 1.6553996702	-1.0580443912	 0.237118
H	-1.1011202866	-0.2206280715	 0.2299913203	 0.149802
H	 0.2798071865	-0.6951591616	-0.7690127353	 0.11188
H	-0.9505294281	-1.27015295	 4.1520182467	 0.124574
H	-1.5194149525	 0.140344113	 3.2516070729	 0.138013
H	-1.5890521709	-2.483089506	 2.2468157495	 0.287648
45.6063	62.0273	152.4515	165.8977	227.3	248.2359	345.3	367.5872	436.161	444.1887	633.8795	668.6737	700.6789	711.5282	797.3052	861.1627	964.744	1003.5008	1017.1261	1056.87	1060.9052	1147.8895	1171.5785	1225.8149	1267.6569	1312.0787	1357.824	1404.7019	1418.4423	1434.7376	1463.6438	1501.0568	1509.8322	1639.7595	1660.3458	2959.2039	3023.9507	3079.9182	3103.9425	3495.7316	3576.9292	3808.579
NCC1=C(CO)N=NO1	NCc1c(CO)nno1	
InChI=1S/C4H7N3O2/c5-1-4-3(2-8)6-7-9-4/h8H,1-2,5H2	InChI=1S/C4H7N3O2/c5-1-4-3(2-8)6-7-9-4/h8H,1-2,5H2
