17
gdb 49802	2.30923	1.55047	1.0415	2.645	74.93	-0.2473	-0.0421	0.2052	1141.0809	0.135508	-421.867822	-421.859615	-421.858671	-421.901478	30.175	
O	-0.5275788646	 0.5805335803	-0.4917211609	-0.231598
C	 0.3067529123	 0.9147523288	 0.3051970871	 0.143865
C	 1.3075444264	 2.0541790387	 0.0777056403	-0.246563
C	 1.0846972479	 2.802600944	-1.2050731239	-0.035382
C	 1.1197471217	 4.1305103764	-1.2880280304	-0.080927
C	 1.3235922629	 5.0223663758	-0.0912719636	-0.272341
C	 0.8446670728	 4.3408749264	 1.2030645907	-0.303484
C	 1.3550121925	 2.9217050623	 1.346348642	 0.371028
O	 1.7354558197	 2.4520790665	 2.3927495098	-0.316052
H	 0.4319952041	 0.4093116367	 1.2852268148	 0.111068
H	 2.2825578842	 1.5384270383	 0.066129189	 0.141776
H	 0.9063103579	 2.1936974497	-2.0854156719	 0.112243
H	 0.9923074812	 4.6114046223	-2.2540026937	 0.10017
H	 2.3840645327	 5.2976900977	-0.0009926895	 0.125196
H	 0.7841149095	 5.9658262185	-0.2258073022	 0.11756
H	 1.1157443842	 4.8996579317	 2.1014744377	 0.126519
H	-0.2523637156	 4.2699513358	 1.1700100947	 0.136923
41.9083	116.9099	149.3438	200.661	263.4796	385.5013	401.772	470.7858	503.6632	615.8418	652.6876	716.4518	740.1522	775.7246	839.1209	893.6186	959.4076	989.6401	999.2974	1026.9747	1047.6078	1090.5392	1137.4462	1179.7749	1215.2769	1232.4944	1258.6101	1297.176	1322.5284	1369.6601	1398.4694	1420.0164	1457.2288	1485.4563	1727.6417	1799.8668	1836.9524	2925.0275	2978.5415	3008.5279	3018.4293	3066.4647	3112.0365	3162.4307	3190.0792
O=CC1C=CCCC1=O	O=C[C@H]1C=CCCC1=O	
InChI=1S/C7H8O2/c8-5-6-3-1-2-4-7(6)9/h1,3,5-6H,2,4H2	InChI=1S/C7H8O2/c8-5-6-3-1-2-4-7(6)9/h1,3,5-6H,2,4H2/t6-/m1/s1
