21
gdb 72533	2.56673	1.64571	1.6221	1.412	80.96	-0.2412	0.0221	0.2633	988.1151	0.1858	-387.116528	-387.108955	-387.108011	-387.147842	31.947	
O	-0.0771474452	 1.4281849368	-0.0083556829	-0.509411
C	 0.0225876559	 0.0134680962	-0.0219680398	 0.368693
C	 0.7616796585	-0.5315368923	 1.2301992229	-0.241112
C	 0.8180092238	-2.082025048	 1.1676952192	-0.20732
C	 0.1204514459	-2.5647578829	-0.1332156963	-0.056308
C	-1.3618225125	-2.1022755266	-0.0725297158	-0.209782
C	-1.4162059444	-0.5526106155	 0.0036737676	-0.206643
C	 0.774745741	-1.8698544466	-1.303815726	-0.082844
C	 0.7186741621	-0.5378822428	-1.2462195656	-0.122167
H	 0.8132146594	 1.7860174664	 0.0752269333	 0.270695
H	 1.7707857546	-0.105182022	 1.2618556505	 0.082716
H	 0.2341778908	-0.1801965855	 2.1229776319	 0.09932
H	 1.8526818377	-2.4353346387	 1.1851094935	 0.09677
H	 0.3144939959	-2.5241295163	 2.0343235961	 0.094217
H	 0.1770117866	-3.6533161515	-0.2138006764	 0.057909
H	-1.8951304349	-2.4657927365	-0.9552061287	 0.097952
H	-1.8459231523	-2.5525439945	 0.8009478924	 0.092357
H	-1.9054008165	-0.2106057038	 0.9214046108	 0.097755
H	-1.9714951015	-0.1271568204	-0.8358898055	 0.104281
H	 1.2341662015	-2.4248064685	-2.114998883	 0.08767
H	 1.1107797837	 0.140145433	-1.9975253381	 0.085251
147.0915	255.1527	276.4482	309.944	346.0434	384.7799	428.2728	453.668	537.78	582.3508	634.0538	714.9702	719.6465	806.8226	814.8422	838.1665	914.3318	925.9441	957.8393	973.3851	975.2212	1008.5148	1024.4057	1043.8621	1069.6851	1113.9106	1138.1966	1151.458	1181.5603	1208.7516	1231.9515	1254.4051	1274.6949	1302.9841	1309.9739	1333.1608	1348.6825	1370.521	1383.4007	1397.1629	1481.7235	1493.3533	1498.9569	1515.1857	1676.121	3029.55	3036.9074	3042.4667	3053.6311	3070.3507	3074.6663	3079.7175	3091.9599	3104.0821	3168.2398	3192.5153	3803.2865
OC12CCC(CC1)C=C2	O[C@@]12CC[C@@H](CC1)C=C2	
InChI=1S/C8H12O/c9-8-4-1-7(2-5-8)3-6-8/h1,4,7,9H,2-3,5-6H2	InChI=1S/C8H12O/c9-8-4-1-7(2-5-8)3-6-8/h1,4,7,9H,2-3,5-6H2/t7-,8-
