19
gdb 62018	3.32522	0.80068	0.71871	5.9771	73.61	-0.2442	-0.021	0.2232	1582.9548	0.157388	-456.394433	-456.383847	-456.382902	-456.431736	36.856	
C	 0.1642367066	 1.2820428566	-0.3919196163	-0.406795
C	 0.0852897558	-0.1339225977	 0.1999582044	-0.052495
C	 0.5661565395	-0.175888541	 1.6699874078	-0.174463
N	 1.9333553809	 0.2967411086	 1.8341271025	-0.336774
C	 2.9789776013	-0.5837937529	 1.6407777883	 0.449141
N	 4.2176317263	-0.0854516045	 2.0261185697	-0.565935
O	 2.8237571724	-1.7052333806	 1.1962698685	-0.382338
C	-1.3500305612	-0.6172346003	 0.1413910743	 0.159774
O	-1.7435524954	-1.5782650964	-0.4653829764	-0.241189
H	 1.1743692022	 1.6813190636	-0.2712406668	 0.125056
H	-0.0804193389	 1.2793461712	-1.4577089916	 0.132036
H	-0.5317112236	 1.9640207458	 0.1122905032	 0.112472
H	 0.6968830741	-0.8296643174	-0.3799420944	 0.123691
H	-0.0805004466	 0.4556661072	 2.2892927607	 0.099167
H	 0.494608226	-1.2046173721	 2.0373845828	 0.14249
H	 2.0828352566	 1.0658640469	 2.4661516544	 0.244177
H	 4.3709781794	 0.9082237001	 1.9399448758	 0.247266
H	 4.9810087842	-0.6470129347	 1.6799942807	 0.263456
H	-2.0616814896	 0.0204998478	 0.7237466426	 0.061263
37.8349	49.7494	59.6693	87.3397	216.1175	250.1614	261.1255	304.9822	340.7669	352.6488	381.5198	426.7741	519.076	555.205	574.5094	683.4199	780.483	844.3956	876.7933	912.8469	961.1083	963.5526	1091.466	1114.7847	1133.1631	1153.0784	1177.7022	1265.8303	1313.6903	1330.8782	1366.4491	1391.9159	1411.4139	1430.771	1469.2533	1497.0245	1502.2304	1529.0441	1628.5119	1804.5813	1839.1991	2816.7418	3029.6885	3038.2354	3083.8426	3094.0302	3107.6166	3123.8954	3573.922	3638.9924	3687.1323
CC(CNC(N)=O)C=O	C[C@@H](CNC(=O)N)C=O	
InChI=1S/C5H10N2O2/c1-4(3-8)2-7-5(6)9/h3-4H,2H2,1H3,(H3,6,7,9)	InChI=1S/C5H10N2O2/c1-4(3-8)2-7-5(6)9/h3-4H,2H2,1H3,(H3,6,7,9)/t4-/m0/s1
