17
gdb 28572	4.0087	1.08612	0.91004	2.6828	77.19	-0.2108	0.019	0.2298	1281.6736	0.137113	-418.031406	-418.023233	-418.022288	-418.064625	29.992	
C	 0.9182431243	 1.1020303046	-0.015683056	-0.508182
C	 0.0731871205	-0.1237189267	-0.0857337681	 0.297668
C	-1.020433639	-0.4535038089	-0.8474860377	-0.170379
N	-1.4855425919	-1.7122703115	-0.5381288998	-0.322364
C	-0.6784399122	-2.1521682173	 0.4001197762	 0.345515
N	 0.2845778595	-1.233719297	 0.7080671828	-0.335922
C	-0.7352992317	-3.4657241841	 1.0674384907	-0.025998
C	 0.4277789656	-4.3723228375	 1.1125377348	-0.174841
O	 0.0696771403	-3.5836038956	 2.2498384622	-0.247378
H	 1.9693897084	 0.8948288904	-0.2507940454	 0.130505
H	 0.5574741441	 1.8398247035	-0.7360705998	 0.142981
H	 0.8903305449	 1.5674509286	 0.977287039	 0.13179
H	-1.4994970466	 0.1533069452	-1.6016609453	 0.103014
H	 0.9479911503	-1.3376345684	 1.4589340007	 0.268881
H	-1.7300565695	-3.902111339	 1.1271595695	 0.120935
H	 0.2687438611	-5.4440826438	 1.2198376632	 0.125909
H	 1.3480310719	-4.0801076024	 0.609822743	 0.117866
84.4062	130.1008	138.9979	153.7497	255.5711	323.2734	416.5053	468.1629	585.8653	618.7017	662.7162	709.2173	738.2335	841.333	849.5372	897.4126	983.0726	993.9886	1022.8418	1053.8904	1065.3313	1091.9438	1145.3833	1167.3576	1177.4296	1201.706	1258.1015	1289.7889	1378.6626	1396.3856	1419.5446	1464.5197	1480.6377	1499.0329	1519.0904	1558.3812	1626.0224	3020.5284	3066.315	3087.2352	3123.0701	3142.6633	3180.4021	3243.6411	3654.842
CC1=CN=C(N1)C1CO1	Cc1cnc([nH]1)[C@H]1CO1	
InChI=1S/C6H8N2O/c1-4-2-7-6(8-4)5-3-9-5/h2,5H,3H2,1H3,(H,7,8)	InChI=1S/C6H8N2O/c1-4-2-7-6(8-4)5-3-9-5/h2,5H,3H2,1H3,(H,7,8)/t5-/m1/s1
