25
gdb 60343	2.99518	0.72615	0.68548	0.1523	85.66	-0.2602	0.065	0.3252	1812.5688	0.224757	-426.640108	-426.62824	-426.627296	-426.677292	43.989	
C	 0.0793463583	 1.5726583148	-0.0385462361	-0.401454
C	 0.0331457887	 0.0447332005	-0.0077800885	 0.130764
O	 0.8321969971	-0.4708014802	 1.0585391504	-0.430235
C	-1.4009081756	-0.4951613	 0.04952552	-0.196041
C	-1.4667444567	-2.0246916691	 0.0153069771	-0.196233
C	-2.8890391214	-2.6186783684	-0.077648873	 0.339606
C	-2.8051001159	-4.1478412757	-0.188758692	-0.417208
C	-3.7645428533	-2.2230382314	 1.1149548474	-0.391213
O	-3.569516112	-2.091787278	-1.2273085195	-0.458513
H	 1.1155281987	 1.9213205928	-0.0569707581	 0.121626
H	-0.4385802188	 1.9684905672	-0.9181001778	 0.115793
H	-0.4076684723	 1.9938370206	 0.8503137169	 0.10452
H	 0.519462171	-0.3428275908	-0.9127663371	 0.083335
H	 0.4738298561	-0.1193877835	 1.8815865676	 0.273813
H	-1.8761313742	-0.1118217927	 0.963746913	 0.081826
H	-1.9787847541	-0.0899865041	-0.7887515037	 0.105156
H	-0.8977457693	-2.3819284451	-0.8563483641	 0.076648
H	-0.9527741297	-2.4348724149	 0.8913698447	 0.102377
H	-2.3453608886	-4.5885624028	 0.7016880684	 0.11488
H	-3.804939242	-4.5741054867	-0.311548877	 0.118356
H	-2.1981230846	-4.4425587554	-1.0534727677	 0.100747
H	-3.9231366485	-1.1424890193	 1.1423006736	 0.122499
H	-4.7444447463	-2.7020985359	 1.0355383448	 0.117777
H	-3.3017952906	-2.5331223313	 2.0567265024	 0.108394
H	-3.0953242962	-2.3938954207	-2.0096958619	 0.272782
37.1677	71.8127	121.6043	150.8323	216.5312	235.3995	236.8063	252.882	286.7167	295.664	303.0658	342.9415	377.3462	416.5945	445.6979	470.6406	505.3681	541.0521	766.2745	775.063	852.3528	905.8065	929.1513	933.3052	940.3147	973.7933	1009.1244	1051.4478	1062.875	1097.3345	1111.2395	1159.7008	1167.9147	1218.7367	1240.3565	1285.0294	1296.355	1339.5951	1360.7325	1376.3091	1396.1195	1402.2817	1403.5679	1419.43	1422.1675	1470.5893	1481.8694	1487.6029	1490.6792	1494.7325	1496.5105	1499.9816	1510.9758	2994.1506	3008.6575	3021.1754	3025.0929	3030.781	3046.016	3061.913	3078.6274	3092.1009	3093.7197	3111.8647	3117.4124	3118.9238	3126.2618	3792.3367	3800.6189
CC(O)CCC(C)(C)O	C[C@@H](O)CCC(C)(C)O	
InChI=1S/C7H16O2/c1-6(8)4-5-7(2,3)9/h6,8-9H,4-5H2,1-3H3	InChI=1S/C7H16O2/c1-6(8)4-5-7(2,3)9/h6,8-9H,4-5H2,1-3H3/t6-/m1/s1
