15
gdb 45971	3.02577	1.4958	1.16092	1.6694	66.15	-0.2497	-0.0389	0.2107	1021.7463	0.114742	-453.971702	-453.964332	-453.963388	-454.003808	27.923	
O	 0.040778942	-0.0284196249	 0.220329812	-0.312032
C	 0.0055568822	 1.1654961701	 0.0449625066	 0.441142
C	-1.3128342746	 1.9364031779	-0.0586565523	-0.268908
N	-1.2776220023	 2.9516628149	-1.1028766484	-0.340802
C	-0.1814829348	 3.6252266502	-1.5574370865	 0.455737
O	-0.229063694	 4.4483647876	-2.4514448934	-0.376153
C	 1.1186493534	 3.2682176606	-0.8837590855	-0.151242
N	 1.1172846956	 3.3273044742	 0.5801212234	-0.32991
C	 1.2308245071	 2.0069766787	-0.0763193645	-0.160011
H	-2.1002846104	 1.2119833178	-0.2757022807	 0.141306
H	-1.5137768718	 2.3785908937	 0.9283316269	 0.148419
H	-2.1500190836	 3.2393415422	-1.5205717076	 0.257278
H	 1.991374441	 3.6127127303	-1.4280339413	 0.125006
H	 2.0311632406	 3.6180046431	 0.9178251719	 0.255241
H	 2.1753053196	 1.4729723936	-0.0583037705	 0.114929
79.3247	157.7015	205.7528	289.8852	405.6369	440.0481	470.0043	489.8074	544.8771	585.6128	715.7748	744.3125	772.9109	868.7632	879.99	908.3712	934.3322	984.8838	1068.5629	1075.2778	1147.8309	1167.394	1219.2469	1246.6847	1256.5988	1331.3845	1360.2523	1389.1151	1432.3976	1462.9536	1506.2275	1797.4628	1824.9046	3001.6704	3110.489	3173.2264	3182.7751	3514.0496	3619.6326
O=C1CNC(=O)C2NC12	O=C1CNC(=O)[C@H]2N[C@@H]12	
InChI=1S/C5H6N2O2/c8-2-1-6-5(9)4-3(2)7-4/h3-4,7H,1H2,(H,6,9)	InChI=1S/C5H6N2O2/c8-2-1-6-5(9)4-3(2)7-4/h3-4,7H,1H2,(H,6,9)/t3-,4-/m0/s1
