20
gdb 58406	1.71649	1.47323	0.89938	2.2895	77.06	-0.2561	-0.0413	0.2148	1337.3066	0.168535	-440.326796	-440.316488	-440.315544	-440.362814	36.484	
C	 0.1213614169	 1.4953428824	-0.2750140093	-0.387418
C	 0.0322260658	-0.0271551647	-0.1137036878	 0.021713
C	-1.4375002249	-0.4743827128	-0.0552220135	-0.402303
C	 0.8111466938	-0.753549605	-1.2577167027	-0.072262
N	 2.183070916	-0.3074904811	-1.4025190546	-0.278593
C	 2.5643549349	 0.5387728736	-2.3988403834	 0.151116
O	 1.8061055405	 1.1520627779	-3.120854046	-0.324888
C	 0.8261143509	-2.2554271294	-1.0253354771	 0.156326
O	 1.830276139	-2.8798257283	-0.7845466496	-0.258829
H	 1.1561456568	 1.8421346226	-0.2482962463	 0.127306
H	-0.3127498864	 1.816661243	-1.2265836598	 0.13654
H	-0.4227671304	 1.9875847143	 0.5375001197	 0.109326
H	 0.5198447218	-0.3019544688	 0.8319270003	 0.08295
H	-1.9394448393	-0.2984548175	-1.0138861927	 0.124452
H	-1.5551569767	-1.5316397937	 0.1983340933	 0.116346
H	-1.9729483386	 0.1020460275	 0.7049703161	 0.124533
H	 0.2853812831	-0.5475302382	-2.1999774105	 0.12778
H	 2.8768464606	-0.9290362453	-1.0080588494	 0.258004
H	 3.666193628	 0.6237689304	-2.4678543386	 0.083641
H	-0.159777392	-2.7576384468	-1.0695081879	 0.104259
43.5795	76.0414	98.8741	179.5834	197.2838	229.9458	234.5549	269.4198	329.0561	360.676	384.7612	419.8069	486.1634	597.6094	700.9332	763.9079	832.9717	902.0291	929.965	946.5414	973.9052	998.2128	1032.9008	1094.3518	1152.5903	1155.6426	1187.8068	1219.4024	1279.9245	1321.1772	1354.7829	1370.1843	1401.7677	1417.0319	1426.2307	1429.6773	1481.6447	1492.2412	1503.2565	1513.661	1515.9189	1795.6754	1819.1104	2944.3953	2947.8208	3008.3717	3033.0691	3036.7833	3043.5455	3101.2118	3110.4892	3112.4175	3133.3671	3585.8538
CC(C)C(NC=O)C=O	CC(C)[C@@H](NC=O)C=O	
InChI=1S/C6H11NO2/c1-5(2)6(3-8)7-4-9/h3-6H,1-2H3,(H,7,9)	InChI=1S/C6H11NO2/c1-5(2)6(3-8)7-4-9/h3-6H,1-2H3,(H,7,9)/t6-/m0/s1
