19
gdb 52152	4.24928	0.85115	0.82106	4.1896	77.36	-0.2759	0.0096	0.2854	1437.9323	0.159813	-422.990516	-422.982332	-422.981388	-423.024984	30.202	
O	 0.3758319572	 0.1498021923	-0.5072712349	-0.276564
C	 0.3703773043	 1.3438974248	-0.4871095987	 0.175511
O	 0.8497119792	 2.0592310378	 0.5448693654	-0.174082
C	 0.8401245275	 3.4948097719	 0.4361050934	-0.15304
C	 2.2520966468	 3.9964658901	 0.2042379399	 0.057086
C	 2.9139815366	 3.9790852067	-1.2141077809	-0.050961
C	 2.028849437	 5.2011957593	-1.6013513875	-0.226227
C	 2.5360785131	 5.490725159	-0.1565287551	-0.063083
C	 3.9338116291	 5.0087831413	-0.6456404617	-0.214587
H	-0.0326051858	 1.9801976792	-1.3004625979	 0.073176
H	 0.1396379513	 3.7986692714	-0.3486764289	 0.110126
H	 0.454181418	 3.8640447941	 1.3913052196	 0.124909
H	 2.8962409351	 3.5982545685	 0.9957549583	 0.082062
H	 3.1369341321	 3.1020889475	-1.8230962946	 0.082165
H	 2.4262901227	 5.8486967133	-2.3870845299	 0.097795
H	 0.9596354604	 5.039192904	-1.7481486791	 0.089827
H	 2.319213157	 6.3655188231	 0.4585828858	 0.074826
H	 4.6256945396	 4.6466527169	 0.1192859963	 0.096257
H	 4.4371215087	 5.6468564589	-1.3760094095	 0.094803
37.3626	49.9901	136.4212	201.7209	300.8913	359.6734	389.62	563.5409	570.0606	670.7094	758.5808	789.1463	833.0783	900.7915	903.0245	904.3052	993.7886	1008.9943	1015.7818	1033.366	1043.6136	1048.8406	1095.4798	1104.1768	1111.9462	1144.4614	1157.4251	1181.0923	1193.1512	1215.2095	1246.0725	1249.4436	1271.2745	1309.7756	1380.8488	1420.6103	1442.4632	1498.2719	1506.9565	1545.427	1865.512	2936.2779	3042.9759	3050.1946	3054.841	3065.5461	3092.8572	3100.1052	3107.9275	3121.3309	3124.8261
O=COCC1C2CC1C2	O=COC[C@H]1[C@H]2C[C@@H]1C2	
InChI=1S/C7H10O2/c8-4-9-3-7-5-1-6(7)2-5/h4-7H,1-3H2	InChI=1S/C7H10O2/c8-4-9-3-7-5-1-6(7)2-5/h4-7H,1-3H2/t5-,6+,7-
