17
gdb 31165	2.15222	1.62263	0.96457	2.0217	72.32	-0.1672	0.0474	0.2146	1175.0937	0.136304	-455.161181	-455.151715	-455.150771	-455.19514	34.896	
N	-0.1199306441	 1.3615371881	-0.0015945021	-0.606215
C	-0.102625161	-0.0369138555	-0.0492591772	 0.272122
C	-1.1682934061	-0.9243681676	-0.0309122225	 0.032566
C	-2.6102997853	-0.5366765262	-0.053804762	-0.1982
O	-2.8949517332	 0.4902179287	-1.0160799774	-0.414298
C	-0.5884901819	-2.2375780529	-0.0100906607	 0.238123
O	-1.2555479225	-3.4312261322	-0.0253077403	-0.452383
C	 0.7742635456	-2.1200019526	-0.0153784284	-0.196047
N	 1.0550244455	-0.7521140455	-0.0560255366	-0.310928
H	 0.58201296	 1.7860288628	-0.5976797444	 0.237335
H	-1.0364455178	 1.6938643175	-0.284386274	 0.259659
H	-3.2412765669	-1.4225390528	-0.2418032845	 0.075324
H	-2.9499794531	-0.1101486966	 0.8982113213	 0.119503
H	-2.518266603	 0.189957433	-1.8512935411	 0.279331
H	-2.17491681	-3.2718478198	 0.2058770779	 0.292194
H	 1.5531842031	-2.8613098358	-0.0198830897	 0.116298
H	 1.972510181	-0.3542334226	 0.0369415419	 0.255616
92.6393	130.7981	151.8076	191.3513	222.2565	270.8961	288.8528	312.7022	382.4902	421.3318	446.0475	532.9245	587.042	597.2886	651.8464	697.9545	743.3186	779.283	844.5731	947.1604	1011.2028	1050.5096	1094.2288	1156.1861	1180.4543	1213.6003	1247.1813	1321.4371	1354.9643	1367.5423	1417.8334	1449.3762	1506.1411	1552.0395	1597.9699	1652.216	1674.3671	2948.583	3035.5777	3291.0754	3503.19	3590.9202	3687.3615	3794.1626	3839.866
NC1=C(CO)C(O)=CN1	Nc1c(CO)c(O)c[nH]1	
InChI=1S/C5H8N2O2/c6-5-3(2-8)4(9)1-7-5/h1,7-9H,2,6H2	InChI=1S/C5H8N2O2/c6-5-3(2-8)4(9)1-7-5/h1,7-9H,2,6H2
