25
gdb 116051	2.91869	1.04832	0.82666	0.2867	94.26	-0.2333	0.0248	0.2581	1497.0878	0.230717	-352.378364	-352.368763	-352.367819	-352.413006	37.024	
C	 0.0825400339	 1.6006040403	 0.1776357096	-0.39308
C	 0.0077062191	 0.078424054	 0.0151469826	-0.17432
C	-1.4178995244	-0.5100427252	-0.0570735182	 0.048635
C	-2.1487647747	-0.0498673005	-1.3315979652	-0.179994
C	-3.6562818553	-0.3660885305	-1.3952234539	-0.257623
C	-4.0123159883	-1.8154402347	-1.6248010432	-0.048477
C	-3.5986764834	-2.8457309824	-0.8878682664	-0.048227
C	-2.694340696	-2.760857379	 0.3181787538	-0.261604
C	-1.3505162281	-2.041158735	 0.09493573	-0.183942
H	 1.1199207596	 1.9257357981	 0.3062717061	 0.110707
H	-0.3178139401	 2.1338208112	-0.689616422	 0.118951
H	-0.4792588649	 1.9311830207	 1.0588441455	 0.112049
H	 0.5661202665	-0.2236159425	-0.8819094642	 0.091884
H	 0.5289515298	-0.3860608826	 0.8619086091	 0.088883
H	-1.9782602271	-0.1177680367	 0.8075046145	 0.059831
H	-2.0398671967	 1.036423128	-1.4228135038	 0.089826
H	-1.6518694116	-0.4856299605	-2.2088968704	 0.091572
H	-4.1263367003	-0.0122155528	-0.4647072774	 0.104228
H	-4.1002248128	 0.2355200795	-2.1953935683	 0.094077
H	-4.673996007	-2.0190334807	-2.4640268362	 0.080267
H	-3.94216099	-3.8413438051	-1.1604974091	 0.080325
H	-3.2242050674	-2.2622618611	 1.1444119501	 0.10372
H	-2.4854049441	-3.7755227478	 0.6734935685	 0.094579
H	-0.8524563526	-2.4728060127	-0.7835570335	 0.092226
H	-0.7064334342	-2.265355252	 0.9547646423	 0.085507
53.7966	82.9788	174.4615	184.3182	234.0251	256.2501	305.69	322.9247	399.0214	433.6897	484.1464	502.9771	663.4743	721.0322	737.7901	788.1871	860.0303	861.5738	900.0461	912.0236	947.782	993.1768	1003.1675	1018.8836	1037.2926	1050.9957	1088.2448	1094.8751	1117.7929	1156.3437	1170.7738	1228.5086	1261.4795	1275.0196	1289.9548	1297.1997	1316.9754	1343.7101	1365.4622	1366.8759	1373.7131	1393.3421	1408.9402	1413.0253	1425.228	1473.7634	1480.5275	1484.3306	1486.6182	1491.2504	1501.5804	1509.2532	1727.9149	2968.5793	2990.6133	2991.8998	3006.6345	3012.2725	3019.9939	3032.5417	3041.3251	3052.8846	3059.7486	3061.0215	3066.8035	3096.2568	3107.9198	3133.3944	3158.5739
CCC1CCC=CCC1	CC[C@H]1CCC=CCC1	
InChI=1S/C9H16/c1-2-9-7-5-3-4-6-8-9/h3-4,9H,2,5-8H2,1H3	InChI=1S/C9H16/c1-2-9-7-5-3-4-6-8-9/h3-4,9H,2,5-8H2,1H3
