21
gdb 113579	3.6246	0.96797	0.90859	1.5168	79.07	-0.2407	0.087	0.3277	1393.7785	0.182275	-424.211849	-424.202706	-424.201762	-424.246675	33.602	
C	-0.1058019211	 1.5155883937	 0.1673061321	-0.372558
C	 0.3146681232	 0.0627975686	-0.0869969308	-0.203458
C	 0.8639899594	-0.609569413	 1.1539959593	-0.059613
C	-0.0749679017	-1.2422645765	 2.1750010312	-0.370173
C	 0.8326503558	-2.103286176	 1.3658729641	 0.377171
C	 0.4085342011	-3.126957209	 0.3105260408	-0.160614
O	 1.4773637094	-4.0726677173	 0.2948724535	-0.253417
C	 2.5209819148	-3.5149154352	 1.0630194352	 0.014872
O	 1.9143988364	-2.7081456225	 2.0414616087	-0.266093
H	 0.7449102843	 2.1180907203	 0.5034231852	 0.116865
H	-0.5050916011	 1.9780831271	-0.7406150807	 0.111629
H	-0.876594051	 1.5707736689	 0.9429357771	 0.119942
H	-0.5484202487	-0.5024624289	-0.4611827999	 0.094689
H	 1.0670426317	 0.0331268571	-0.886152603	 0.100087
H	 1.7392461673	-0.1291726803	 1.5855307214	 0.093586
H	 0.1572010784	-1.1342404034	 3.2286727821	 0.126273
H	-1.1362806469	-1.265843997	 1.9433519691	 0.113225
H	-0.5133161944	-3.6538459098	 0.5805456915	 0.112825
H	 0.2782396643	-2.6740798628	-0.6802957162	 0.10668
H	 3.0795885389	-4.3165864578	 1.5538715349	 0.118035
H	 3.1936119399	-2.9132541661	 0.4240231843	 0.080046
38.8812	86.7688	137.4279	159.9456	217.1402	250.2386	300.9853	375.4251	419.5029	509.6288	551.5542	744.5104	773.6483	808.4299	817.7502	879.8662	920.1493	927.175	962.8119	973.516	1037.345	1044.5764	1052.1474	1093.6752	1110.0251	1113.9638	1130.9239	1176.0801	1190.9858	1211.2273	1227.8807	1243.0241	1295.0495	1317.4268	1348.8942	1373.63	1409.4838	1414.2506	1437.1927	1482.6359	1491.4404	1497.3677	1506.7287	1524.4226	1543.1461	2930.5722	3013.6271	3020.7436	3033.3687	3047.132	3060.4815	3091.4289	3101.7962	3106.4924	3122.4148	3137.5584	3214.9346
CCC1CC11COCO1	CC[C@H]1C[C@]21COCO2	
InChI=1S/C7H12O2/c1-2-6-3-7(6)4-8-5-9-7/h6H,2-5H2,1H3	InChI=1S/C7H12O2/c1-2-6-3-7(6)4-8-5-9-7/h6H,2-5H2,1H3/t6-,7+/m0/s1
