20
gdb 81594	4.93387	1.01377	0.97707	0.9595	80.01	-0.203	0.0742	0.2773	1269.6595	0.17088	-403.039334	-403.031189	-403.030244	-403.072159	32.332	
O	-0.0557300054	 1.393135146	-0.242210519	-0.434522
C	-0.2034196646	 0.0028257655	-0.1941850238	 0.15347
C	-0.0814465236	-0.7587740416	 1.1686406537	-0.083147
C	-1.371186185	-0.0225123062	 1.6357317996	-0.244037
C	-1.6081089333	-0.5173602175	 0.180534535	-0.046454
N	-0.904592827	-1.8320644197	 0.4757325024	-0.127647
C	-1.6277841882	-2.8032488224	 1.2769369527	 0.062901
C	-0.9307918769	-4.0703005094	 1.6845243158	-0.279118
C	-1.3729988919	-3.0835619015	 2.7421119021	-0.275664
H	 0.8787534567	 1.5913185689	-0.354026997	 0.288809
H	 0.2593548101	-0.5174848997	-1.0384688359	 0.08044
H	 0.8230622303	-0.9988956331	 1.7316470572	 0.075108
H	-1.9553380757	-0.5114122035	 2.4130336553	 0.10828
H	-1.2991069254	 1.0553466679	 1.7859234944	 0.110744
H	-2.5190470969	-0.4852325365	-0.420472211	 0.079171
H	-2.6541860473	-2.9162945093	 0.93760385	 0.089316
H	-1.4587218117	-5.0129732662	 1.590335282	 0.108563
H	 0.131996491	-4.129123054	 1.4725821274	 0.112602
H	-0.5982754573	-2.5119587371	 3.2411718585	 0.113108
H	-2.2136918481	-3.3368698005	 3.3802303706	 0.108076
60.6598	153.5012	167.0781	262.8153	320.3158	338.7999	405.1633	436.0319	551.1698	625.1604	742.2856	750.131	789.6955	801.1771	804.5341	886.441	895.8441	911.8451	928.7172	951.7	1018.9981	1029.9266	1060.6992	1062.3055	1072.6348	1097.5584	1118.7153	1127.4403	1141.4778	1172.567	1189.5487	1198.3399	1207.2653	1217.0125	1235.4087	1259.0707	1274.0396	1302.3077	1391.2479	1420.8637	1463.2324	1497.6952	1504.1296	3064.3982	3085.7862	3090.9779	3103.062	3126.1184	3129.4081	3138.6005	3168.1232	3205.4666	3221.3368	3828.8885
OC1C2CC1N2C1CC1	O[C@H]1[C@H]2C[C@@H]1N2C1CC1	
InChI=1S/C7H11NO/c9-7-5-3-6(7)8(5)4-1-2-4/h4-7,9H,1-3H2	InChI=1S/C7H11NO/c9-7-5-3-6(7)8(5)4-1-2-4/h4-7,9H,1-3H2/t5-,6+,7+
