18
gdb 92313	2.42918	1.73743	1.15196	2.4262	72.75	-0.2205	-0.0282	0.1923	1076.0975	0.147461	-439.070046	-439.061855	-439.060911	-439.103254	30.236	
C	 0.0002012179	 1.4680949469	-0.052148789	-0.330534
N	 0.0278803472	 0.0360479459	 0.1365721816	-0.079056
C	-1.221681601	-0.7038985359	 0.4035305518	-0.194425
C	-0.4536900155	-1.5714671036	 1.4293913194	 0.10638
O	 0.0594680429	-2.8040234552	 0.9313261441	-0.278313
C	 1.3898651711	-2.6661124367	 0.4568911652	-0.186671
C	 1.9113416432	-1.3060465044	 0.9318521322	 0.405643
O	 3.0558332143	-0.9397391608	 0.9342386621	-0.308598
C	 0.6724582597	-0.5223212315	 1.3503558501	-0.144978
H	 1.0224453598	 1.8481204137	-0.1422524792	 0.137973
H	-0.5298223773	 1.7054357593	-0.9803379604	 0.127763
H	-0.4982495011	 2.006015628	 0.7761424887	 0.094747
H	-1.9978306295	-0.0887240495	 0.8869249653	 0.090348
H	-1.651663112	-1.2220516978	-0.4596840252	 0.113178
H	-0.9498788729	-1.764261482	 2.3813695367	 0.095448
H	 2.0110401187	-3.4757136906	 0.8549193131	 0.134431
H	 1.4327751186	-2.7082718566	-0.6408222195	 0.134156
H	 0.824218626	 0.1665555909	 2.1878497631	 0.082508
87.0769	94.5466	130.9838	219.4978	275.0937	317.9416	385.1995	444.1287	552.065	583.1188	648.2038	750.3208	815.8167	838.4636	879.3408	938.7259	986.8793	999.8495	1015.6164	1038.8358	1098.2546	1132.1176	1164.1947	1195.1832	1201.4866	1208.0111	1219.1364	1233.9234	1276.361	1295.3353	1326.8055	1330.3937	1370.7403	1451.1931	1485.8062	1486.3993	1498.3595	1504.599	1859.6142	2931.8018	2973.6272	3009.1172	3056.1434	3064.0523	3071.1569	3071.8956	3102.9632	3107.6417
CN1CC2OCC(=O)C12	CN1C[C@H]2OCC(=O)[C@@H]12	
InChI=1S/C6H9NO2/c1-7-2-5-6(7)4(8)3-9-5/h5-6H,2-3H2,1H3	InChI=1S/C6H9NO2/c1-7-2-5-6(7)4(8)3-9-5/h5-6H,2-3H2,1H3/t5-,6-/m1/s1
