18
gdb 38833	2.74388	1.98265	1.71877	1.3163	69.32	-0.2263	0.0781	0.3045	872.4162	0.151314	-439.05564	-439.049161	-439.048216	-439.08629	26.798	
C	 0.0291660186	 1.4206176343	-0.3043759582	-0.249495
C	 1.2994888946	 0.6898978192	-0.0521390376	-0.039867
C	 2.002444911	 0.8449133544	 1.2957853809	 0.17436
O	 1.4158573002	 1.8570344979	 2.1095599448	-0.270932
C	 0.4785614382	 1.2011936924	 2.9662077212	-0.102714
C	 0.4938566564	-0.249419378	 2.460280687	 0.042066
C	-0.4410882109	-0.5405608595	 1.2642809457	-0.17139
N	 0.0107307252	-0.0142993601	-0.0317958241	-0.092537
O	 1.8535812574	-0.3606520119	 2.0235351709	-0.245841
H	-0.2862797481	 2.1225428486	 0.4618717613	 0.126291
H	-0.2502592456	 1.6894188732	-1.3198692481	 0.114522
H	 1.9559889626	 0.4193687684	-0.8768080465	 0.091224
H	 3.0685067031	 1.0540966072	 1.178878123	 0.093533
H	 0.8268551697	 1.2636145947	 4.0036929073	 0.111165
H	-0.5038445458	 1.6790873203	 2.8888829618	 0.104682
H	 0.3288053279	-0.9777799085	 3.2567075938	 0.091515
H	-0.497262117	-1.628904108	 1.1519850971	 0.117385
H	-1.4556684173	-0.1831754345	 1.4743217598	 0.106033
138.8255	247.5859	314.2249	383.2635	441.6297	484.431	562.8351	646.5387	723.4428	784.5476	799.0916	820.7899	869.4263	906.3605	925.4505	933.6117	998.882	1009.2234	1022.8692	1048.0965	1063.0933	1097.3349	1107.8816	1129.7355	1161.3446	1164.7007	1213.8621	1250.7429	1288.3608	1315.3546	1327.4446	1345.1827	1364.5089	1374.2617	1391.0755	1408.6424	1484.7052	1514.1194	1524.1143	3029.333	3033.1171	3070.6435	3076.3668	3087.4486	3099.7008	3109.5256	3125.8185	3199.838
C1C2C3OCC(CN12)O3	C1[C@H]2[C@H]3OC[C@@H](CN12)O3	
InChI=1S/C6H9NO2/c1-4-3-8-6(9-4)5-2-7(1)5/h4-6H,1-3H2	InChI=1S/C6H9NO2/c1-4-3-8-6(9-4)5-2-7(1)5/h4-6H,1-3H2/t4-,5+,6+,7?/m1/s1
