23
gdb 90714	2.94775	1.25305	1.23857	1.5238	85.32	-0.2358	0.0796	0.3154	1200.7633	0.204492	-388.276297	-388.266924	-388.26598	-388.309925	36.655	
C	 0.4446641216	 1.5928676431	-0.0428724085	-0.405564
C	 0.1073550401	 0.1112255621	 0.0120763704	 0.024644
C	 0.8630635795	-0.8774228545	-0.9380136354	-0.281194
C	 1.2555004731	-1.7611389353	 0.2791421353	-0.117304
C	 0.6190440851	-0.7073727068	 1.2254496152	 0.106199
O	 1.9175031522	-0.2989747274	 1.7008299084	-0.342206
C	 2.5783375271	-1.4125935396	 1.0112281551	 0.421201
C	 2.9647508101	-2.4816581186	 2.0314589194	-0.421443
C	 3.7879428235	-0.9394180919	 0.2217982921	-0.43961
H	 1.5069926868	 1.7529813264	 0.159882598	 0.129894
H	 0.2106706102	 2.0120747603	-1.0274974934	 0.108381
H	-0.1243612852	 2.1569945934	 0.7044320934	 0.112843
H	-0.9750745749	-0.0327168303	-0.0854940957	 0.067857
H	 0.2155008127	-1.3839810277	-1.6572612468	 0.099416
H	 1.7005420715	-0.4440629662	-1.4900135764	 0.09842
H	 0.9759397251	-2.8140663662	 0.2471976022	 0.06663
H	-0.0736807434	-0.9160239521	 2.0467353347	 0.064595
H	 2.0875580804	-2.8231538129	 2.5888111445	 0.116311
H	 3.4165405662	-3.3481609467	 1.5358803841	 0.11033
H	 3.6868704022	-2.0764127484	 2.7471420404	 0.120602
H	 4.5544053309	-0.5642232977	 0.9080429643	 0.122985
H	 4.2226379424	-1.7648505707	-0.352110954	 0.11473
H	 3.5342956229	-0.1320589121	-0.4679021675	 0.122282
65.3822	171.2554	179.4787	214.6487	241.1874	254.0392	321.4744	347.7262	364.3007	381.1653	480.6132	527.5624	596.0706	723.8237	755.5287	821.0885	871.1309	879.3066	888.1778	923.1394	936.8383	961.2232	979.8535	996.6834	1016.8875	1064.2562	1088.1342	1122.8941	1169.5463	1173.9694	1190.8182	1211.2168	1219.7598	1257.9987	1282.4583	1297.8428	1316.4499	1339.7123	1358.8216	1395.9721	1406.1287	1410.966	1469.7594	1475.6865	1487.0035	1489.4023	1494.0258	1504.0157	1509.5745	3029.1874	3030.0729	3033.787	3038.903	3054.2015	3065.0999	3092.3578	3099.3605	3104.0537	3106.2542	3111.6053	3115.163	3118.5931	3127.9819
CC1CC2C1OC2(C)C	C[C@H]1C[C@@H]2[C@H]1OC2(C)C	
InChI=1S/C8H14O/c1-5-4-6-7(5)9-8(6,2)3/h5-7H,4H2,1-3H3	InChI=1S/C8H14O/c1-5-4-6-7(5)9-8(6,2)3/h5-7H,4H2,1-3H3/t5-,6+,7-/m0/s1
