19
gdb 39129	3.45352	1.38125	1.24328	2.6735	74.37	-0.2455	0.0755	0.321	1062.7976	0.160689	-422.995057	-422.987572	-422.986628	-423.027294	29.291	
C	-0.0791872175	 1.4484989269	 0.0113942176	-0.301669
C	 1.2969465776	 0.8384327715	-0.0204933784	-0.053256
C	 1.9578711043	 0.6346630841	 1.3298034865	-0.111383
O	 0.958507149	 0.0366429122	 2.1580163937	-0.299119
C	 0.0761078063	-0.726653174	 1.3522595443	 0.359634
C	 0.2647357869	-2.2683621727	 1.3615401863	-0.130918
O	-1.0758509565	-2.4599415217	 1.8540904895	-0.273663
C	-1.2588860338	-1.0430474802	 2.0550425826	-0.127304
C	 0.076772561	-0.0524595417	-0.0022575678	-0.106745
H	-0.4108003658	 1.9233147263	 0.9298021409	 0.123921
H	-0.438883608	 1.9155083599	-0.8983330949	 0.114223
H	 1.9198561394	 0.9428262524	-0.900504372	 0.093336
H	 2.8354372528	-0.0231852743	 1.2317320238	 0.096626
H	 2.274733457	 1.5593084444	 1.8235740966	 0.111075
H	 0.4245812552	-2.763419184	 0.3959091571	 0.095831
H	 1.0263938867	-2.6000692587	 2.0790893655	 0.101601
H	-1.2575213447	-0.7672677584	 3.1167739113	 0.107557
H	-2.1696053178	-0.668183689	 1.5744924719	 0.103186
H	-0.2397701022	-0.6220733732	-0.8674325647	 0.097068
76.8898	124.9826	202.2845	320.8412	347.0959	371.1394	452.1794	510.0064	690.8235	748.2561	789.2265	833.4409	848.4986	890.7168	910.1914	952.7437	979.557	987.5104	1008.5098	1031.0111	1033.3837	1076.815	1080.8919	1102.0309	1113.0964	1119.3356	1151.0531	1159.0304	1185.1433	1204.0121	1226.5333	1251.4869	1298.3212	1347.9046	1360.7029	1381.7328	1405.1803	1479.6196	1498.4458	1521.5597	1526.6857	2984.0867	3006.1151	3022.1489	3059.6292	3068.6963	3072.0596	3129.0017	3183.0833	3190.4928	3219.9608
C1C2COC3(COC3)C12	C1[C@H]2COC3(COC3)[C@@H]12	
InChI=1S/C7H10O2/c1-5-2-9-7(6(1)5)3-8-4-7/h5-6H,1-4H2	InChI=1S/C7H10O2/c1-5-2-9-7(6(1)5)3-8-4-7/h5-6H,1-4H2/t5-,6-/m0/s1
