22
gdb 60087	2.21924	1.17107	0.96201	2.7632	82.94	-0.247	-0.024	0.223	1365.2798	0.192157	-404.342529	-404.332344	-404.3314	-404.377795	37.568	
C	 0.1441891663	-0.3916626065	-2.2156841488	-0.399189
C	-0.1526348711	-0.0933495794	-0.7394001653	 0.038939
C	-0.1622744604	 1.4191352077	-0.4809838428	-0.391527
C	-1.4833027838	-0.7124455225	-0.2602297662	-0.289361
C	-1.5660976302	-2.2253394169	-0.3252396548	 0.213627
C	-2.8969478993	-2.8837605842	-0.5588392916	-0.279143
N	-1.8704833071	-2.9399465217	-1.5912706283	-0.340727
C	-0.6320426998	-3.0044960127	 0.5436165307	 0.147407
O	 0.0404494476	-2.530488371	 1.4255655636	-0.268091
H	 1.0870673892	 0.0731214202	-2.5215436193	 0.115456
H	 0.228222193	-1.4648328845	-2.4101778119	 0.128147
H	-0.6428955476	 0.0123090348	-2.8661960116	 0.101738
H	 0.6467684499	-0.533231238	-0.1326505936	 0.104755
H	-0.3257702958	 1.6427560391	 0.5782864055	 0.115385
H	 0.7884725274	 1.8740853508	-0.7768874768	 0.111881
H	-0.9574884061	 1.9129695674	-1.053443182	 0.10719
H	-1.6489162826	-0.4142099241	 0.7815723116	 0.117818
H	-2.3128521607	-0.2891373863	-0.8441184275	 0.084808
H	-3.1302924543	-3.8346723031	-0.0869161702	 0.127355
H	-3.7452294528	-2.2148907484	-0.6792185567	 0.125895
H	-2.059626296	-2.2545806661	-2.317990878	 0.242075
H	-0.6208861258	-4.0926903848	 0.3117471639	 0.085562
52.5476	97.8833	139.3953	154.4325	226.3979	237.3285	273.8064	304.9974	315.4377	367.8544	387.3281	428.5163	484.3288	547.818	775.558	812.0853	829.6701	875.8213	903.1624	935.0564	959.049	967.5751	981.5062	984.7035	1050.9089	1067.5828	1123.2604	1130.5316	1152.6057	1194.6188	1244.0357	1256.7408	1313.2774	1332.3752	1367.8758	1380.5884	1386.9597	1403.1282	1422.4175	1428.0789	1465.4963	1490.6065	1494.5663	1505.4913	1507.7756	1515.2987	1819.1207	2892.813	3007.1835	3017.6532	3022.9676	3049.2359	3065.0033	3084.0948	3093.5241	3101.7292	3105.2093	3109.0007	3191.6319	3511.371
CC(C)CC1(CN1)C=O	CC(C)C[C@]1(CN1)C=O	
InChI=1S/C7H13NO/c1-6(2)3-7(5-9)4-8-7/h5-6,8H,3-4H2,1-2H3	InChI=1S/C7H13NO/c1-6(2)3-7(5-9)4-8-7/h5-6,8H,3-4H2,1-2H3/t7-/m0/s1
