22
gdb 61216	3.1498	0.94811	0.84095	4.1272	86.4	-0.2808	0.0371	0.3178	1448.0994	0.193101	-367.225396	-367.215386	-367.214442	-367.260357	37.599	
C	 0.2243884717	 1.3315192276	-0.6178175637	-0.429116
C	 0.01316873	-0.0705670734	-0.0337756429	-0.046282
C	 0.6136127598	-0.155435135	 1.397998474	-0.338788
C	 2.0563257771	 0.0708862198	 1.4312364983	 0.262943
N	 3.198501071	 0.24919283	 1.4379368511	-0.316679
C	-1.4419548674	-0.5627643542	-0.0023846053	 0.369614
C	-1.5783229421	-2.0730333072	 0.1118353714	-0.466497
C	-2.4956196254	 0.2717581929	 0.6929627938	-0.300966
C	-2.5139408496	 0.1333123473	-0.8096207195	-0.320885
H	 1.279466483	 1.6124277208	-0.5551175179	 0.144236
H	-0.0657571364	 1.3688945941	-1.6703675675	 0.126559
H	-0.3513491858	 2.0917172956	-0.077717699	 0.119575
H	 0.5775172997	-0.7747085041	-0.6588062968	 0.092761
H	 0.1285317846	 0.5848070966	 2.0448604372	 0.148517
H	 0.4157391512	-1.1360338364	 1.8414953772	 0.148469
H	-1.1044433131	-2.4690207416	 1.0173294859	 0.116149
H	-2.6309420538	-2.3695035064	 0.1447605572	 0.118111
H	-1.1184113307	-2.5743734933	-0.7477939451	 0.121503
H	-3.253794464	-0.2426059598	 1.274024334	 0.112899
H	-2.2116439949	 1.2371124283	 1.0991859193	 0.111327
H	-2.2568181109	 1.006014829	-1.3965811819	 0.115816
H	-3.280613374	-0.4885418805	-1.25954428	 0.110734
65.3992	68.4836	142.2995	209.6428	231.4476	252.6822	287.9377	338.596	348.4331	382.1454	398.0541	444.3065	496.3797	535.3529	711.641	789.0689	846.1885	869.5458	884.6841	907.8055	946.7108	950.3566	966.2452	1031.3584	1058.9172	1071.7882	1086.3484	1112.3735	1122.3574	1126.947	1189.8799	1237.969	1271.5512	1303.4966	1341.9725	1357.8534	1381.8313	1418.2399	1422.5414	1461.9824	1467.9272	1494.1293	1496.8256	1502.0893	1510.4924	1514.4995	2357.7402	3019.2431	3024.9488	3040.6485	3049.0796	3081.6001	3092.2694	3102.254	3108.4482	3122.8954	3128.7841	3140.6841	3207.4145	3228.5652
CC(CC#N)C1(C)CC1	C[C@@H](CC#N)C1(C)CC1	
InChI=1S/C8H13N/c1-7(3-6-9)8(2)4-5-8/h7H,3-5H2,1-2H3	InChI=1S/C8H13N/c1-7(3-6-9)8(2)4-5-8/h7H,3-5H2,1-2H3/t7-/m0/s1
