23
gdb 117666	2.78806	0.90461	0.82234	2.7207	81.75	-0.2618	0.0766	0.3384	1516.6461	0.203113	-425.399528	-425.388746	-425.387802	-425.435516	39.496	
C	-0.0416773288	 1.7125626016	 0.0478711124	-0.418897
C	 0.0770142701	 0.1761666689	 0.0871189869	 0.210185
C	 0.9208596047	-0.2605827991	 1.2965849408	-0.435611
C	-1.3187951067	-0.4993820691	 0.1074854343	-0.173125
C	-2.2203505611	-0.1916878686	 1.2991789929	-0.103541
O	-3.4531006956	-0.8606954902	 1.0641081697	-0.419385
C	 0.7270187693	-0.2601397859	-1.2259186953	 0.097563
C	 2.156978358	-0.5283107048	-1.425024235	-0.197294
O	 1.2126768729	-1.5995270486	-1.3279750038	-0.247923
H	 0.9435277381	 2.1728493872	-0.0821955877	 0.113422
H	-0.6791450943	 2.0427710363	-0.7798450199	 0.113694
H	-0.4689387977	 2.1062645079	 0.9745792024	 0.116709
H	 0.4074002408	-0.0362401094	 2.2352013556	 0.112474
H	 1.1213864552	-1.3349110024	 1.2611864764	 0.134258
H	 1.8790072298	 0.2677879557	 1.3236218731	 0.109118
H	-1.8680552692	-0.2098954684	-0.7974729898	 0.099957
H	-1.1853879642	-1.5856686303	 0.0526605229	 0.120739
H	-1.7597497216	-0.5412616093	 2.2353247249	 0.087345
H	-2.377963582	 0.8936682957	 1.396715365	 0.08421
H	-4.0276234993	-0.7027511434	 1.8187888169	 0.284377
H	 0.1650998284	 0.059704312	-2.1076783368	 0.085867
H	 2.5968736732	-0.3831439556	-2.4111262695	 0.112204
H	 2.85471842	-0.45002477	-0.5947438462	 0.113656
61.2481	74.5721	111.3309	156.3896	216.1073	246.4015	255.2216	266.2127	315.4567	320.9009	335.3736	376.2417	393.1452	519.4728	567.9295	734.3749	797.6438	834.6829	869.5161	941.0297	949.3604	962.843	994.7156	1015.9915	1033.3114	1069.9036	1072.6992	1104.5781	1157.8528	1179.269	1194.9416	1213.5351	1241.0003	1267.8248	1274.1854	1310.0764	1337.6248	1356.6081	1394.8922	1408.5051	1440.0605	1463.9936	1486.0642	1489.2303	1497.5082	1505.2082	1519.1742	1530.4789	1533.1478	2975.424	3001.8119	3027.8471	3031.1165	3043.1741	3069.6052	3077.7934	3091.3325	3095.7653	3105.0208	3108.1058	3122.9965	3179.3509	3829.1831
CC(C)(CCO)C1CO1	CC(C)(CCO)[C@H]1CO1	
InChI=1S/C7H14O2/c1-7(2,3-4-8)6-5-9-6/h6,8H,3-5H2,1-2H3	InChI=1S/C7H14O2/c1-7(2,3-4-8)6-5-9-6/h6,8H,3-5H2,1-2H3/t6-/m1/s1
