14
gdb 129560	3.35616	1.12511	1.04105	5.2558	67.55	-0.2679	-0.0209	0.2469	1150.1217	0.103466	-429.044826	-429.036922	-429.035978	-429.078294	28.22	
N	-0.2073236534	 1.3993875669	 0.1184534711	-0.501873
C	 0.0005674462	-0.0423265145	-0.0211898124	-0.230425
C	 0.7724393081	-0.4146807984	-1.2348497744	 0.260368
N	 1.3454798403	-0.6681032985	-2.2064745201	-0.324429
C	 0.6760907232	-0.5764933326	 1.2120989105	 0.379203
C	 0.3658878444	-1.650570032	 2.0092462598	-0.184675
N	 1.3244112552	-1.6257582994	 2.9635895395	-0.149567
N	 2.1795563183	-0.6032818645	 2.7826331797	-0.098063
N	 1.7872477125	 0.0301783426	 1.7182714359	-0.247187
H	 0.6805776618	 1.833426416	 0.3561419436	 0.262606
H	-0.512758903	 1.794256553	-0.7659265376	 0.245242
H	-0.9787442478	-0.5264783128	-0.1160700043	 0.135651
H	-0.4155190444	-2.3906550955	 1.9794026851	 0.161707
H	 1.4572711988	-2.2465682001	 3.7464312036	 0.291443
40.3479	104.8015	185.5575	214.5148	289.8332	343.8552	421.1653	470.7243	589.2235	597.721	694.9222	743.3252	771.7004	809.8338	863.9107	958.6001	991.3442	1029.2723	1053.4827	1106.4102	1132.7206	1177.548	1272.2803	1305.1533	1330.7078	1364.5922	1402.1571	1489.858	1597.1494	1655.1068	2345.5539	3042.5894	3287.2496	3496.2678	3580.4629	3656.5345
NC(C#N)C1=CNN=N1	N[C@@H](C#N)c1c[nH]nn1	
InChI=1S/C4H5N5/c5-1-3(6)4-2-7-9-8-4/h2-3H,6H2,(H,7,8,9)	InChI=1S/C4H5N5/c5-1-3(6)4-2-7-9-8-4/h2-3H,6H2,(H,7,8,9)/t3-/m0/s1
