25
gdb 58297	2.68528	0.95811	0.84904	0.9967	89.66	-0.2354	0.0815	0.3169	1546.2728	0.226291	-389.479095	-389.468125	-389.467181	-389.51558	40.706	
C	 0.1882122507	 1.4288629217	 0.3243114797	-0.393671
C	-0.0774720826	-0.0444658565	-0.0149614698	 0.029636
C	-1.5856490099	-0.3268691317	-0.0877967226	-0.386866
C	 0.6668123214	-0.4472844434	-1.3031206798	 0.149662
C	 0.6318924056	-1.9502999307	-1.5937793666	-0.412961
O	 0.1013194069	 0.3199961006	-2.3682100586	-0.265718
C	 0.8824298481	 0.4176965804	-3.5162087681	 0.15686
C	 0.6277945298	-0.494456228	-4.6919939678	-0.284347
C	 0.2057649535	 0.9616367685	-4.7320450825	-0.298278
H	 1.2607338767	 1.6256979376	 0.4323246949	 0.10211
H	-0.1944306218	 2.0795389438	-0.4669779086	 0.129769
H	-0.2992539119	 1.7085552835	 1.2637952389	 0.104795
H	 0.3511555017	-0.6619313636	 0.786531542	 0.066561
H	-2.0372445698	 0.2154099101	-0.9231835114	 0.130055
H	-1.799415348	-1.3914933424	-0.2199584407	 0.108074
H	-2.0789451497	-0.0042459195	 0.8345726846	 0.105995
H	 1.7215609704	-0.1458361122	-1.1829710041	 0.058396
H	-0.3873101354	-2.2882099825	-1.8003158896	 0.122404
H	 1.2511925044	-2.1952995325	-2.4600871155	 0.122157
H	 1.0159483661	-2.5113147318	-0.7353370676	 0.11084
H	 1.9136467892	 0.7196691694	-3.3260621188	 0.080468
H	 1.4682922354	-0.8150796455	-5.2985571705	 0.108881
H	-0.1610756622	-1.2290423507	-4.5797212235	 0.118794
H	-0.8539929311	 1.1696187557	-4.6374609472	 0.123843
H	 0.7506144825	 1.6521343296	-5.3657438268	 0.112543
43.4674	67.3555	97.9252	150.0396	207.6161	225.923	235.4806	256.2135	295.4212	329.1081	378.6399	400.8954	469.5499	512.4944	582.2771	757.7479	772.2469	810.249	828.2026	889.7537	926.8839	939.0527	963.5867	968.092	992.8526	1036.6791	1041.9487	1063.875	1069.5725	1110.1761	1126.3427	1162.5647	1177.6946	1194.066	1200.4738	1215.9755	1242.6923	1331.2841	1347.4961	1371.7405	1378.5663	1397.36	1402.7232	1413.7694	1425.4157	1452.4404	1485.6489	1487.7765	1494.4279	1496.9325	1502.6409	1512.0111	1518.5829	2951.2687	3009.5046	3031.5486	3041.7348	3044.4011	3085.717	3094.3981	3104.8453	3113.0259	3116.3978	3121.6001	3126.7376	3133.5575	3140.387	3219.353	3233.6887
CC(C)C(C)OC1CC1	CC(C)[C@@H](C)OC1CC1	
InChI=1S/C8H16O/c1-6(2)7(3)9-8-4-5-8/h6-8H,4-5H2,1-3H3	InChI=1S/C8H16O/c1-6(2)7(3)9-8-4-5-8/h6-8H,4-5H2,1-3H3/t7-/m1/s1
