17
gdb 118613	2.14681	1.07755	0.80197	5.0829	71.67	-0.2721	0.0055	0.2776	1434.5834	0.134444	-455.165392	-455.155422	-455.154478	-455.201795	33.477	
C	 0.1820501641	 1.3391558478	 0.0110739281	-0.232405
O	 0.1073859864	-0.071356275	 0.0282702894	-0.242353
C	 0.5653044983	-0.6699367022	-1.1588193741	-0.071863
C	 0.407189382	-2.1857480829	-0.9892725643	-0.145256
N	 1.1115898937	-2.6483186994	 0.1907858015	-0.26686
C	 2.0805101268	-3.60509665	 0.1218304786	 0.165107
O	 2.4218095686	-4.1696639172	-0.8939261513	-0.315484
C	-1.0201638289	-2.5563817014	-0.9389005066	 0.293577
N	-2.1389076559	-2.8415122297	-0.9092007542	-0.318199
H	 1.2177953201	 1.687590793	-0.1182195341	 0.113985
H	-0.4328342545	 1.7638652234	-0.7955811774	 0.120407
H	-0.1968682878	 1.6938302909	 0.9715038454	 0.139774
H	-0.0116812791	-0.3272873506	-2.0313390936	 0.115762
H	 1.6289234153	-0.4446565869	-1.3352778799	 0.11063
H	 0.8677094923	-2.6999933493	-1.8393231566	 0.169461
H	 0.9130955549	-2.1788986629	 1.0605657738	 0.270344
H	 2.5276170836	-3.8079587476	 1.1128089952	 0.093375
38.7925	67.1543	106.9334	124.18	167.8918	209.033	234.5998	264.0969	320.3833	371.6133	450.5412	551.28	575.5599	696.1816	751.9314	882.466	923.0971	1026.0503	1032.5199	1061.3197	1121.5572	1161.7736	1184.8485	1205.1926	1223.47	1264.7874	1307.1987	1350.8074	1409.2637	1424.5193	1480.241	1487.2965	1498.9827	1510.0304	1521.7738	1804.037	2363.7187	2964.8894	2976.3261	2988.1942	3019.5644	3037.9037	3081.4532	3129.1613	3641.6336
COCC(NC=O)C#N	COC[C@@H](NC=O)C#N	
InChI=1S/C5H8N2O2/c1-9-3-5(2-6)7-4-8/h4-5H,3H2,1H3,(H,7,8)	InChI=1S/C5H8N2O2/c1-9-3-5(2-6)7-4-8/h4-5H,3H2,1H3,(H,7,8)/t5-/m0/s1
