13
gdb 132450	3.21356	1.40103	0.97711	6.509	67.06	-0.214	-0.0464	0.1675	1086.078	0.090357	-494.087829	-494.080445	-494.079501	-494.119649	28.096	
N	 0.0656887351	 1.4007486637	 0.1711973918	-0.583637
C	-0.0354630381	 0.0213610102	 0.046680172	 0.398927
C	-1.1991322092	-0.6953516544	 0.0033740884	-0.134259
N	-1.1904995227	-2.0617289795	-0.0269376618	-0.27882
C	-0.0768263284	-2.6891743161	-0.0422822738	 0.211209
F	-0.0767152174	-4.0138382413	-0.0781197894	-0.052977
C	 1.2560692315	-2.0745536049	-0.0131679094	 0.299845
O	 2.3320191021	-2.6358470407	-0.0183270328	-0.372614
N	 1.1439401286	-0.6784259611	 0.0384013784	-0.39079
H	 0.7615429844	 1.8308480811	-0.4256390518	 0.25973
H	-0.8233055127	 1.8720027312	 0.0771321282	 0.266854
H	-2.16290199	-0.2026567889	-0.0069547675	 0.11079
H	 2.0247214969	-0.1897472794	 0.1346366975	 0.265742
124.863	181.6791	256.3906	316.2006	329.0562	405.6056	448.7701	483.2951	533.9485	604.4528	637.3048	671.1014	703.3767	726.5217	781.0011	798.7477	810.0117	1046.1367	1112.5727	1172.8363	1277.9231	1292.3906	1314.0866	1396.9304	1516.9061	1612.3407	1647.2523	1678.5285	1798.68	3205.6714	3540.8723	3593.7157	3642.7577
NC1=CN=C(F)C(=O)N1	Nc1cnc(F)c(=O)[nH]1	
InChI=1S/C4H4FN3O/c5-3-4(9)8-2(6)1-7-3/h1H,(H3,6,8,9)	InChI=1S/C4H4FN3O/c5-3-4(9)8-2(6)1-7-3/h1H,(H3,6,8,9)
