17
gdb 114445	3.86597	1.35468	1.2149	3.0427	66.4	-0.2268	0.0625	0.2894	1032.6744	0.136875	-458.900997	-458.893881	-458.892936	-458.932669	28.205	
O	 0.0566265619	 1.3824713496	-0.1142763856	-0.424266
C	 0.0657658975	-0.0222488546	 0.0554294084	-0.0761
C	-1.3510150392	-0.5799013203	 0.0853989292	 0.114348
O	-2.0052078556	-0.1884592849	-1.1448020426	-0.29312
C	-2.7756028047	-1.2806618521	-1.5822806896	 0.075577
C	-2.0610176522	-2.6037384717	-1.8080760634	 0.06058
O	-0.8006298836	-2.5808276662	-1.1407203518	-0.293995
C	-1.4732383454	-2.1001672039	 0.0698198526	 0.030252
C	-2.8646928843	-2.3670244915	-0.5502530715	-0.204384
H	-0.447617204	 1.549078816	-0.9190115012	 0.292434
H	 0.6255026917	-0.5311768163	-0.739981884	 0.111637
H	 0.5614437647	-0.2216078846	 1.0119738434	 0.102656
H	-1.9036684807	-0.1535327927	 0.9374543595	 0.079885
H	-3.6216097135	-1.0068844574	-2.201056051	 0.112877
H	-2.1841934196	-3.272158949	-2.6524827268	 0.110857
H	-1.151819987	-2.6334352671	 0.9648236287	 0.093951
H	-3.737967976	-2.8244346932	-0.1069092945	 0.10681
104.1606	155.0624	199.3927	347.5098	426.2656	434.365	512.2938	548.4258	702.7702	735.3365	779.3765	812.185	830.481	833.6779	876.3502	920.1895	984.4432	1012.3696	1022.2622	1041.074	1049.1618	1074.1711	1084.5285	1098.3195	1115.757	1123.5597	1210.0349	1229.6808	1235.3701	1262.8849	1307.2655	1322.3527	1356.7643	1395.8448	1403.8613	1436.3062	1502.5421	2986.3638	3022.9902	3078.5332	3118.0836	3180.9356	3194.1625	3211.0737	3802.6184
OCC1OC2C3OC1C23	OC[C@H]1O[C@H]2[C@H]3O[C@@H]1[C@@H]23	
InChI=1S/C6H8O3/c7-1-2-4-3-5(8-2)6(3)9-4/h2-7H,1H2	InChI=1S/C6H8O3/c7-1-2-4-3-5(8-2)6(3)9-4/h2-7H,1H2/t2-,3+,4+,5-,6+/m1/s1
