15
gdb 130078	5.21117	1.33243	1.06919	2.026	74.94	-0.1982	-0.018	0.1802	1063.7333	0.11626	-413.023162	-413.016302	-413.015357	-413.054187	27.118	
N	-0.0259887067	 1.3031874758	 0.1457782066	-0.581258
C	 0.001853768	-0.0721663016	 0.0549927759	 0.385677
N	-1.1102326056	-0.8120438872	 0.0371495931	-0.359829
N	-0.5703654092	-2.0609690028	 0.014632122	 0.056639
C	-1.0521070751	-3.3773986745	-0.0163753158	-0.014316
C	-0.0036322929	-4.2144836056	-0.0391550408	-0.134097
C	 1.2964426173	-3.4170413338	-0.0220678779	-0.419701
C	 0.7765087536	-2.0107464782	 0.0116209654	 0.394753
N	 1.1934940145	-0.759813288	 0.0356776978	-0.416374
H	 0.7999324269	 1.7414932809	-0.2339061252	 0.259129
H	-0.8850777749	 1.717685628	-0.184413062	 0.25775
H	-2.1139209865	-3.5677794246	-0.0179047432	 0.147186
H	-0.0533801846	-5.2917832397	-0.0632443482	 0.118413
H	 1.9158255441	-3.6499900315	 0.8519413617	 0.153758
H	 1.914463701	-3.6093151271	-0.9068407194	 0.152269
128.5264	254.8212	286.9536	320.0941	345.5329	436.5393	540.5231	582.3746	620.1756	667.1003	703.7171	750.083	768.6137	824.4333	905.753	920.0696	936.7036	937.327	1015.7066	1087.131	1106.956	1138.5383	1194.8435	1245.9957	1293.219	1388.4357	1417.8425	1429.417	1446.2836	1551.6279	1591.3964	1636.7586	1645.5566	3046.5723	3076.8813	3254.9324	3277.5846	3574.7211	3682.3555
NC1=NN2C=CCC2=N1	Nc1nn2C=CCc2n1	
InChI=1S/C5H6N4/c6-5-7-4-2-1-3-9(4)8-5/h1,3H,2H2,(H2,6,8)	InChI=1S/C5H6N4/c6-5-7-4-2-1-3-9(4)8-5/h1,3H,2H2,(H2,6,8)
