19
gdb 39719	4.93557	1.33926	1.22248	0.0005	84.45	-0.2181	0.0083	0.2264	1056.4886	0.160839	-348.675405	-348.668704	-348.66776	-348.706071	28.73	
C	-0.0063652453	 1.5238245185	 0.0267438928	-0.368556
C	 1.3214385451	 0.7689867434	 0.0110085306	-0.368578
C	 0.0254647567	 0.0350178055	-0.0047491809	 0.454202
C	-0.5683646281	-1.0286962078	 0.9183136404	-0.141774
C	-1.8270902045	-1.1321800289	-0.0296898716	-0.049536
C	-2.2385222537	-2.5952303664	-0.0606871048	-0.117409
C	-1.0781435649	-3.2549959843	-0.0744762388	-0.117406
C	-0.0307934591	-2.1535137584	-0.0510345899	-0.049544
C	-0.5680942073	-0.9887234594	-0.9721183826	-0.141783
H	-0.2916245545	 2.0250794451	 0.9471206801	 0.109281
H	-0.2912665048	 2.0634890048	-0.8717670348	 0.109279
H	 1.9147881525	 0.8094426837	-0.8978503807	 0.109282
H	 1.9143924754	 0.7709242604	 0.9210262964	 0.109281
H	-0.5708633883	-1.0559641454	 2.0122610004	 0.067615
H	-2.5778045044	-0.341652977	-0.0130846364	 0.06308
H	-3.2508237616	-2.974766314	-0.0688604226	 0.100937
H	-0.8868894764	-4.3188502677	-0.0969426711	 0.100937
H	 1.0325573542	-2.3944347499	-0.0559748369	 0.063079
H	-0.5702963012	-0.9697271622	-2.0662408795	 0.067615
161.6291	222.2301	248.1253	428.8621	476.5305	513.1719	555.5312	669.6667	751.7162	768.646	769.1663	790.6533	795.4037	889.442	897.2453	910.4115	920.7699	927.7561	930.8582	957.5713	988.0789	1014.7641	1021.6543	1047.7541	1078.2754	1083.1265	1136.1961	1142.3707	1156.8571	1164.6294	1181.7492	1183.7446	1187.1568	1225.9933	1251.7319	1316.8675	1328.991	1426.1942	1463.5834	1523.1403	1632.5286	3068.2182	3072.1354	3113.6454	3116.1997	3117.3423	3119.5741	3188.1719	3202.5953	3217.0157	3244.2774
C1CC11C2C3C=CC2C13	C1CC21[C@H]1[C@@H]3C=C[C@H]1[C@H]23	
InChI=1S/C9H10/c1-2-6-7-5(1)8(6)9(7)3-4-9/h1-2,5-8H,3-4H2	InChI=1S/C9H10/c1-2-6-7-5(1)8(6)9(7)3-4-9/h1-2,5-8H,3-4H2/t5-,6+,7-,8+
