21
gdb 120896	5.27416	0.74156	0.7337	1.2418	80.43	-0.2266	0.0745	0.301	1647.2616	0.18079	-424.179555	-424.170068	-424.169123	-424.214878	34.606	
C	-0.7285278239	 1.4033374578	 0.150863695	-0.223698
O	-0.6527836762	 0.0358182049	 0.4749385594	-0.23601
C	-0.6629970651	-0.8012226445	-0.6586709509	-0.071597
C	-0.5722857887	-2.2362602734	-0.1748944691	 0.117478
C	-1.8466871141	-2.8632200553	 0.4309564767	-0.370569
C	-1.7617113133	-3.8052775865	-0.7643330317	 0.466588
C	-1.9359335293	-5.2849202976	-0.8414057947	-0.333107
C	-2.8241711179	-4.3507463906	-1.6574700845	-0.331713
O	-0.5960545802	-3.1603506539	-1.2906985181	-0.323248
H	-0.7136134244	 1.9640149717	 1.0886863576	 0.127228
H	 0.123771132	 1.7234477029	-0.4690983338	 0.105889
H	-1.6558491793	 1.6437914064	-0.392972695	 0.10449
H	-1.5853846753	-0.6640798343	-1.2481381709	 0.087986
H	 0.1888361899	-0.583628365	-1.3251348821	 0.094237
H	 0.3316414237	-2.3651380443	 0.4320419268	 0.086287
H	-1.723838884	-3.3286594455	 1.4100878576	 0.113134
H	-2.7134582993	-2.1989384875	 0.4488456871	 0.112864
H	-1.1769908602	-5.8429947268	-1.3792709248	 0.124116
H	-2.3669001778	-5.8037564925	 0.0090965433	 0.11308
H	-3.8627123612	-4.2302085932	-1.3655664674	 0.113169
H	-2.6428488754	-4.3014204228	-2.7259528305	 0.123397
40.6212	77.3334	91.8806	164.4041	233.221	266.7919	286.2026	321.3641	402.6886	434.3001	481.9565	587.3803	754.4067	815.4755	835.0178	890.2165	908.2164	911.2161	938.8471	989.5668	993.4462	1033.3242	1048.7373	1066.9117	1103.1215	1130.8766	1162.2274	1173.2839	1186.7227	1197.5304	1214.5478	1228.3927	1244.3697	1252.7606	1307.6082	1356.0439	1389.4085	1427.305	1447.6504	1481.4604	1485.8539	1489.111	1503.2271	1506.4116	1526.4324	2954.4539	2972.7891	2987.6663	3015.1716	3039.5479	3073.6925	3113.5431	3125.1044	3127.8274	3128.4878	3208.6583	3222.9619
COCC1CC2(CC2)O1	COC[C@H]1CC2(CC2)O1	
InChI=1S/C7H12O2/c1-8-5-6-4-7(9-6)2-3-7/h6H,2-5H2,1H3	InChI=1S/C7H12O2/c1-8-5-6-4-7(9-6)2-3-7/h6H,2-5H2,1H3/t6-/m1/s1
