18
gdb 8555	2.79236	2.71154	1.70593	1.7559	71.45	-0.2201	0.0867	0.3068	825.9958	0.153007	-347.749544	-347.742143	-347.741199	-347.780591	29.111	
C	-0.1053226427	 1.5033303025	-0.0525530445	-0.507383
C	 0.0127463482	 0.0090976497	-0.025251179	 0.244388
C	 0.9162822133	-0.8695035246	-0.8983727628	-0.28066
C	 0.083489776	-2.0512977285	-0.3487410044	 0.070067
O	 0.4489864021	-2.0961233899	 1.0585936056	-0.329119
C	-0.2933661181	-0.878227431	 1.2077434213	 0.438811
C	-0.6226299155	-0.4154941052	 2.5858942599	-0.508541
C	-1.0934532438	-1.056116309	-0.0439567208	-0.245872
H	 0.8216468258	 1.9806029807	 0.2867368706	 0.123688
H	-0.3141903283	 1.8668170173	-1.0654367047	 0.120125
H	-0.914644216	 1.8581434541	 0.5943616208	 0.118274
H	 0.7267219706	-0.6931054364	-1.961446852	 0.097003
H	 1.992908666	-0.8981607239	-0.6982954301	 0.094766
H	 0.0413983978	-3.030599379	-0.8206549264	 0.082918
H	 0.2922312221	-0.2036015264	 3.1500758883	 0.132195
H	-1.2231367001	 0.4977386625	 2.5561785264	 0.125367
H	-1.1878082193	-1.1807668284	 3.1269379672	 0.131943
H	-2.150185878	-1.0245861847	-0.2744116155	 0.092029
171.0305	184.8754	225.0536	233.5871	305.1655	354.9185	456.9039	521.5262	620.6524	638.1207	744.9325	773.3713	804.941	876.5398	911.9548	921.5917	930.6987	939.2563	971.6874	1026.6529	1080.3041	1093.1972	1119.3503	1147.2838	1158.0491	1178.9251	1237.8984	1241.4959	1289.7515	1352.6812	1402.9089	1419.0025	1448.8451	1472.3261	1486.3129	1490.6204	1493.913	1508.8053	3021.2007	3036.1621	3038.6168	3079.1058	3091.6768	3099.4608	3099.7562	3119.144	3143.1987	3198.6506
CC12CC3OC1(C)C23	C[C@@]12C[C@H]3O[C@]1(C)[C@@H]23	
InChI=1S/C7H10O/c1-6-3-4-5(6)7(6,2)8-4/h4-5H,3H2,1-2H3	InChI=1S/C7H10O/c1-6-3-4-5(6)7(6,2)8-4/h4-5H,3H2,1-2H3/t4-,5-,6+,7-/m1/s1
