20
gdb 113769	2.71438	1.0704	0.8991	4.4987	77.9	-0.2315	0.0295	0.261	1363.1479	0.169045	-440.272245	-440.262206	-440.261262	-440.307999	35.312	
C	-0.2214153645	 1.1820791427	 0.8429006561	-0.240662
O	-0.1880648941	 0.131123032	-0.1039804933	-0.23315
C	-1.334469486	-0.6513197229	-0.1076154354	 0.137714
C	-1.3389563627	-1.8084795943	-1.0497678816	-0.359187
C	-1.307617263	-2.0744144927	 0.4438171971	-0.051305
N	-0.1271974547	-2.6137440824	 1.0417564633	-0.030771
C	 0.2320295739	-2.1739480115	 2.3816742467	-0.347996
C	 0.5224106386	-3.6907986971	 0.5008971781	 0.157428
O	 1.4574131655	-4.2738662165	 1.0084433519	-0.343934
H	 0.7234658767	 1.7216777216	 0.7509972838	 0.135409
H	-1.049582669	 1.8770159549	 0.6395568366	 0.112372
H	-0.3242028822	 0.8125573963	 1.8724261956	 0.108788
H	-2.2629984259	-0.0977737667	 0.0338181606	 0.089356
H	-2.237630354	-2.0484017609	-1.6053385795	 0.12566
H	-0.4114386074	-1.9596686052	-1.5893494883	 0.143764
H	-2.2412286618	-2.4128562267	 0.8958184186	 0.096493
H	-0.6339893843	-2.2331896158	 3.0519654865	 0.117134
H	 1.0196571484	-2.833454321	 2.7465009984	 0.16676
H	 0.5988590177	-1.1439719971	 2.3706577292	 0.136025
H	 0.0955895686	-3.9767438566	-0.4766526444	 0.080102
44.5182	94.9926	105.0292	153.2452	179.2197	185.3858	255.0134	293.368	336.0008	356.7621	417.9963	495.0126	578.9369	685.9629	790.4289	808.3441	845.0085	951.5691	1002.4513	1037.1034	1069.2033	1085.3431	1102.3541	1129.656	1137.9576	1151.267	1154.9258	1183.7982	1214.8949	1255.4642	1294.7642	1375.897	1395.1564	1408.9355	1439.2883	1439.5719	1471.6753	1486.0747	1492.4585	1495.9259	1508.8285	1518.0418	1792.6779	2977.4675	2988.6666	3028.3569	3041.0997	3080.3844	3095.8064	3101.0167	3125.825	3147.7878	3156.4947	3238.5483
COC1CC1N(C)C=O	CO[C@H]1C[C@H]1N(C)C=O	
InChI=1S/C6H11NO2/c1-7(4-8)5-3-6(5)9-2/h4-6H,3H2,1-2H3	InChI=1S/C6H11NO2/c1-7(4-8)5-3-6(5)9-2/h4-6H,3H2,1-2H3/t5-,6+/m1/s1
