15
gdb 133567	3.28484	1.24132	1.22131	2.6904	58.31	-0.2474	0.0655	0.3129	1035.4814	0.110619	-548.226589	-548.219411	-548.218467	-548.259722	27.171	
F	-0.2887508392	 0.2651476301	-0.6249718255	-0.074984
C	 0.0359323645	 1.4272374264	-0.0355395801	 0.263726
F	 1.3469744289	 1.3934491024	 0.2269116679	-0.062747
F	-0.1734147376	 2.391575676	-0.9508996455	-0.080282
C	-0.7559890241	 1.7747594459	 1.2185683146	-0.107042
C	-2.1745536855	 1.2470117853	 1.5312586716	-0.079276
C	-1.4776432969	-0.0769633401	 1.9248480721	-0.182904
N	-0.5158921502	 0.9816879505	 2.5155855386	-0.153384
C	-1.8197692517	 1.6732507304	 2.9740500214	-0.168803
H	-0.5922675974	 2.8461905858	 1.3680418121	 0.105524
H	-3.0991188788	 1.4096514488	 0.9689787907	 0.082179
H	-1.9601633101	-0.6812675098	 2.6967027012	 0.106116
H	-1.0387632575	-0.7016141723	 1.152731979	 0.130697
H	-1.6997291768	 2.7378996164	 3.1907144926	 0.109036
H	-2.3122532475	 1.147344684	 3.7944841192	 0.11214
20.746	162.9277	241.5577	337.0824	379.6953	407.7497	540.4241	564.8562	627.2063	728.9786	761.8401	783.901	874.4875	880.5343	902.5965	926.8474	987.036	1024.3292	1078.9544	1086.4162	1129.3907	1153.646	1167.5156	1182.4727	1200.2565	1209.402	1229.7175	1248.9852	1286.5563	1307.164	1443.3006	1519.9355	1563.1307	3054.0172	3062.7657	3073.3171	3083.2469	3131.3224	3191.6292
FC(F)(F)C1C2CN1C2	FC(F)(F)[C@H]1[C@H]2CN1C2	
InChI=1S/C5H6F3N/c6-5(7,8)4-3-1-9(4)2-3/h3-4H,1-2H2	InChI=1S/C5H6F3N/c6-5(7,8)4-3-1-9(4)2-3/h3-4H,1-2H2/t4-/m1/s1
