14
gdb 85350	2.99618	1.25009	0.91453	1.7708	73.04	-0.2672	-0.1003	0.1669	1179.5777	0.100772	-436.72934	-436.721286	-436.720342	-436.762518	29.145	
O	 0.0679354976	 1.4084540298	 0.0779111278	-0.415655
C	 0.0273223561	-0.0006545782	-0.0093452397	 0.003481
C	-1.4273689673	-0.4806218989	-0.0860850322	-0.350322
C	-1.5029043286	-1.4127139028	-1.3010179704	 0.398486
O	-2.4377951907	-2.1011593897	-1.6250266167	-0.308546
C	-0.1992972666	-1.3082994776	-2.0129516716	-0.285522
C	 0.6394642976	-0.5277794567	-1.3158553265	 0.193499
C	 1.9667751463	-0.1663338475	-1.6675221444	 0.220115
N	 3.0522586093	 0.1697214647	-1.89382749	-0.317479
H	 0.9827525914	 1.6873076155	 0.1993593968	 0.301347
H	 0.5557655882	-0.4594802958	 0.8390774509	 0.104469
H	-1.7777744349	-0.9886755739	 0.8141560195	 0.144107
H	-2.0761602679	 0.3838738285	-0.2581923186	 0.164474
H	 0.0012474195	-1.8049538073	-2.9532749749	 0.147547
71.7793	116.3053	133.6632	254.5478	316.1875	341.7493	414.9573	464.8394	505.766	548.6862	583.79	630.4451	699.9904	815.9905	848.7353	911.5574	957.0986	1003.1434	1091.1996	1127.9067	1165.0577	1185.8112	1247.6598	1265.6447	1285.3607	1329.0501	1417.7516	1446.8782	1659.7329	1825.8979	2333.8036	2995.4804	3073.3999	3128.9507	3231.3631	3803.6022
OC1CC(=O)C=C1C#N	O[C@H]1CC(=O)C=C1C#N	
InChI=1S/C6H5NO2/c7-3-4-1-5(8)2-6(4)9/h1,6,9H,2H2	InChI=1S/C6H5NO2/c7-3-4-1-5(8)2-6(4)9/h1,6,9H,2H2/t6-/m0/s1
