14
gdb 124098	3.74848	1.60839	1.1609	3.7762	62.81	-0.235	-0.002	0.233	969.0151	0.103837	-473.808189	-473.801833	-473.800889	-473.839089	24.474	
C	 0.0267088356	 1.4028671829	-0.001311923	 0.003956
O	 1.3040047432	 1.9337156057	-0.0374701324	-0.228439
C	 2.0638440292	 1.6841764493	 1.1586305467	-0.205527
C	 1.8797115215	 0.2438894452	 1.5219515549	-0.006407
C	 0.9106271508	-0.4786796577	 0.8923757222	 0.493753
O	 0.9072355289	-1.7530103794	 1.259314223	-0.225443
N	 1.9464553423	-1.9234279823	 2.2105381761	-0.152459
C	 2.4925551031	-0.7361017279	 2.3410454327	-0.074897
O	 0.0202974902	-0.0520736226	 0.003897219	-0.25471
H	-0.5294924265	 1.726345628	 0.8911612357	 0.113381
H	-0.4851751252	 1.6908500395	-0.9182068493	 0.144353
H	 3.0976573879	 1.9292836372	 0.9003451346	 0.139712
H	 1.7419912962	 2.3721451074	 1.9550985554	 0.117159
H	 3.3225476428	-0.6296546052	 3.0265966644	 0.135569
123.3037	229.9374	312.9922	364.519	407.0219	479.5255	591.68	626.1985	721.0307	732.6113	778.2016	873.6274	908.7699	941.1508	948.7169	960.6334	1036.1447	1108.7682	1144.3304	1207.06	1232.1686	1255.4534	1315.9757	1334.4098	1360.5661	1429.5114	1441.9666	1498.6013	1512.5742	1557.6543	1681.3415	2987.2845	2998.9013	3087.4967	3154.7355	3234.5043
C1OCC2=C(ON=C2)O1	C1OCc2c(onc2)O1	
InChI=1S/C5H5NO3/c1-4-2-7-3-8-5(4)9-6-1/h1H,2-3H2	InChI=1S/C5H5NO3/c1-4-2-7-3-8-5(4)9-6-1/h1H,2-3H2
