18
gdb 36835	3.78735	0.76083	0.69659	1.7875	81.8	-0.2402	0.0192	0.2594	1630.0173	0.146459	-401.852349	-401.843244	-401.8423	-401.888574	32.14	
C	 1.1086730696	 1.5715457909	 1.3044120243	-0.285637
C	 0.594940998	 0.2162059303	 1.0815826227	 0.106189
C	 0.1691032077	-0.8906850877	 0.8611665622	 0.054739
C	-0.3417473172	-2.2191801367	 0.6593102332	-0.112243
C	-0.7451050965	-2.707500704	-0.6745889005	-0.16127
O	 0.4710836285	-3.1440689848	-0.0841391638	-0.213818
N	 1.043644773	 2.5130307684	 0.1802014728	-0.072932
C	 1.2633515718	 2.0060527087	-1.1695178347	-0.219235
C	-0.0930351679	 2.4400885908	-0.7305894047	-0.218694
H	 0.564140537	 2.0259397724	 2.1414067574	 0.139843
H	 2.1590128957	 1.5098469957	 1.61499175	 0.142364
H	-0.8293308256	-2.665694706	 1.5253946054	 0.119133
H	-1.5333427985	-3.4558393709	-0.7482075857	 0.121017
H	-0.6416325137	-2.0439965564	-1.5311439504	 0.123989
H	 1.8701432439	 2.6402300202	-1.8093638351	 0.117221
H	 1.4141782017	 0.9365217807	-1.2982115541	 0.123675
H	-0.8276251849	 1.6534195248	-0.5732086761	 0.11901
H	-0.4988699526	 3.3980956636	-1.0426542627	 0.116647
16.8685	64.5008	83.86	151.4251	190.074	327.6784	332.9593	362.4164	436.1872	527.0639	602.3409	732.2838	756.2106	825.5428	834.766	874.2784	901.3263	981.5858	991.6558	1028.8458	1062.9789	1081.9292	1117.6326	1126.2689	1145.1897	1158.0054	1173.5194	1176.5428	1186.8212	1282.7601	1289.5314	1312.4944	1360.5142	1405.965	1464.4277	1482.9524	1513.0947	1519.4444	2348.496	3026.593	3058.5292	3084.5979	3104.099	3106.5051	3114.8126	3177.5687	3185.7012	3199.0737
C(C#CC1CO1)N1CC1	C(C#C[C@H]1CO1)N1CC1	
InChI=1S/C7H9NO/c1(2-7-6-9-7)3-8-4-5-8/h7H,3-6H2	InChI=1S/C7H9NO/c1(2-7-6-9-7)3-8-4-5-8/h7H,3-6H2/t7-/m0/s1
