19
gdb 65045	2.24675	1.5231	1.22335	4.9748	79.34	-0.2701	0.0234	0.2934	1114.62	0.158824	-382.044276	-382.035305	-382.034361	-382.077942	34.003	
C	 0.0059385817	 1.3762731813	 0.6458215848	-0.473969
C	 0.0003282023	-0.015117208	 0.0356823673	 0.287035
C	 0.978218627	-0.29743177	-1.0787137628	-0.338059
C	 1.1918157447	-0.908314185	 0.2853619934	-0.290588
C	-1.3748032107	-0.6532859744	 0.0092149059	 0.084771
C	-2.3149700584	-0.3671770855	-1.1202260199	-0.261523
N	-1.759546768	-1.7098599115	-0.9448430288	-0.33934
C	-1.9424561412	-0.8479532759	 1.3336628609	 0.292404
N	-2.3743183938	-0.9667210446	 2.3992977352	-0.346731
H	 1.0226023868	 1.7778197198	 0.6807654652	 0.119322
H	-0.6107507811	 2.0675828706	 0.0607853605	 0.121492
H	-0.3838539015	 1.3594668368	 1.6686259962	 0.147989
H	 0.7075011394	-0.9574380606	-1.8967892979	 0.110469
H	 1.6182157674	 0.5221947363	-1.3869268761	 0.123086
H	 1.9938973537	-0.5272072402	 0.9075214028	 0.12396
H	 1.0145709071	-1.9734570628	 0.3888719158	 0.128397
H	-3.3805344129	-0.2809946028	-0.9334109761	 0.143282
H	-1.9247546285	 0.2643560499	-1.9141300036	 0.127509
H	-1.0037972539	-1.8752387634	-1.6040636127	 0.240495
51.5836	141.9401	185.5978	219.0868	232.9692	283.3913	315.59	353.6504	429.4561	464.9882	543.5109	585.7982	614.5935	777.1606	803.7114	863.4917	883.3332	900.9579	921.2774	952.0946	958.7789	990.9395	1043.0803	1060.1913	1080.6357	1086.43	1130.0388	1131.9826	1185.8724	1215.021	1262.8747	1299.6028	1343.1082	1366.8404	1421.1859	1470.9002	1489.8428	1498.9214	1503.8503	1514.5783	2357.0908	3033.2031	3099.4199	3112.8014	3114.4712	3128.8746	3136.7955	3204.8342	3209.5906	3224.3373	3515.6114
CC1(CC1)C1(CN1)C#N	CC1(CC1)[C@]1(CN1)C#N	
InChI=1S/C7H10N2/c1-6(2-3-6)7(4-8)5-9-7/h9H,2-3,5H2,1H3	InChI=1S/C7H10N2/c1-6(2-3-6)7(4-8)5-9-7/h9H,2-3,5H2,1H3/t7-/m1/s1
