18
gdb 36502	3.96249	0.99511	0.83207	1.7295	77.91	-0.2486	0.0224	0.2709	1343.9332	0.148281	-401.928345	-401.91986	-401.918916	-401.96186	31.634	
C	-0.0643454751	-1.2314064786	-0.0026213399	-0.431721
C	-0.0523305168	-0.0294838913	 0.0136542523	 0.29298
C	-0.003516335	 1.4282291334	 0.0310012506	-0.378559
C	 1.4285258269	 1.9978428526	-0.0163755849	-0.033234
C	 2.1463036734	 1.6285993228	-1.3119551011	-0.072812
O	 3.459634836	 2.2025429248	-1.3607343682	-0.223847
C	 3.5777116199	 3.4449425746	-0.8334937088	 0.129024
N	 2.734886228	 4.1295249948	-0.1863933343	-0.275783
C	 1.4393161173	 3.5269774876	 0.1114794377	-0.167078
H	-0.0889009447	-2.2929638432	-0.012462369	 0.198994
H	-0.5798955082	 1.8248686938	-0.8162891603	 0.132295
H	-0.5023196725	 1.7995894418	 0.9354722137	 0.137662
H	 2.0002505681	 1.5719772025	 0.816952835	 0.103123
H	 2.2814391699	 0.5502657419	-1.4120417282	 0.133323
H	 1.5760183217	 1.9892987711	-2.1799023436	 0.108895
H	 4.5727370972	 3.836463264	-1.037416828	 0.124487
H	 0.6850715192	 3.9691691169	-0.5559367274	 0.108759
H	 1.1545424447	 3.8252221906	 1.1274075043	 0.113492
69.4224	103.192	160.466	187.8296	281.9456	345.9902	391.293	416.9508	492.3859	509.7612	586.7454	624.4625	645.8005	793.751	866.4377	898.5607	933.68	937.6465	967.5873	987.4207	1007.6961	1082.162	1125.5261	1131.5875	1177.1384	1217.8789	1236.173	1293.8704	1307.8439	1353.7224	1355.0321	1379.495	1406.7603	1422.1631	1470.0725	1486.3176	1511.7688	1737.6378	2237.8533	3000.852	3009.0616	3012.4946	3037.2099	3045.7956	3058.1887	3117.3964	3159.557	3505.2965
C#CCC1COC=NC1	C#CC[C@H]1COC=NC1	
InChI=1S/C7H9NO/c1-2-3-7-4-8-6-9-5-7/h1,6-7H,3-5H2	InChI=1S/C7H9NO/c1-2-3-7-4-8-6-9-5-7/h1,6-7H,3-5H2/t7-/m1/s1
