17
gdb 32291	2.72372	1.49029	0.97463	1.9668	80.37	-0.2271	-0.059	0.1681	1185.3582	0.136498	-418.03853	-418.030316	-418.029372	-418.071798	30.572	
C	-0.0096842931	 1.5265362807	 0.1182482836	-0.378425
C	 0.10387026	 0.0095112634	-0.0066439323	-0.252494
C	 0.7293692495	-0.4647039609	-1.2891265216	 0.270514
N	 1.1237243644	 0.3755429803	-2.1854060162	-0.305737
C	 1.6936081106	-0.1212022194	-3.3490696051	-0.092431
C	 1.8410594682	-1.4356205737	-3.5587063748	 0.038522
O	 1.4403328942	-2.3523466746	-2.6429133854	-0.221014
C	 0.8627108883	-1.9297245514	-1.4576820411	 0.345801
N	 0.4769089474	-2.7605496971	-0.5806219263	-0.521759
H	 0.9723309749	 2.0038086139	 0.0658910758	 0.12592
H	-0.6163795523	 1.9469747959	-0.6879930315	 0.125949
H	-0.4724053163	 1.7902623561	 1.073510607	 0.108298
H	 0.6816488936	-0.416488422	 0.8239185558	 0.133541
H	-0.8784476654	-0.4722367448	 0.083604807	 0.133524
H	 2.0169983966	 0.6018935917	-4.0868296223	 0.12138
H	 2.2743609219	-1.896323238	-4.4369187486	 0.141732
H	 0.6544798175	-3.7198295801	-0.8813465539	 0.226679
65.5307	97.6832	199.5413	200.5705	262.8613	341.5327	411.0282	497.8964	546.0468	548.013	565.0939	725.2064	738.1789	813.6162	821.0934	871.8337	894.5251	914.7776	967.6018	1003.4905	1044.0739	1087.0783	1097.3193	1164.2225	1211.8913	1271.337	1271.3456	1305.479	1394.895	1415.0113	1420.6072	1450.6378	1492.152	1499.1485	1613.7	1670.4685	1722.1824	3032.1996	3049.2981	3050.6791	3119.9057	3123.7822	3208.0424	3231.4412	3482.5538
CCC1=NC=COC1=N	CCC1=C(OC=C[N]1)[NH]	
InChI=1S/C6H8N2O/c1-2-5-6(7)9-4-3-8-5/h3-4,7H,2H2,1H3	InChI=1S/C6H8N2O/c1-2-5-6(7)9-4-3-8-5/h3-4,7H,2H2,1H3
