15
gdb 50200	3.00042	1.40264	1.20217	4.5901	65.19	-0.2371	-0.0397	0.1974	1028.108	0.112675	-453.9299	-453.922208	-453.921263	-453.96278	28.276	
O	-0.8331334293	 1.077448262	-0.0213218106	-0.250683
C	 0.3062654429	 0.7068025876	 0.1050157194	 0.169292
C	 1.5040207607	 1.6228893591	-0.0357643155	-0.098155
N	 2.6356162062	 1.0142279448	-0.7899881005	-0.336128
C	 2.6881345896	 2.1888315282	-1.7114388928	-0.175378
C	 1.4011021579	 2.7835282416	-1.0678977633	 0.001497
N	 0.7072523808	 2.4821076392	-2.3128131224	-0.319031
C	 1.7974790639	 1.9121668066	-2.9587202155	 0.45112
O	 1.9257787784	 1.386567355	-4.0266494026	-0.346897
H	 0.5614016059	-0.3542838623	 0.3207725377	 0.093152
H	 1.7808965555	 1.9935819097	 0.9619785024	 0.105936
H	 3.4793456437	 0.9011230633	-0.2419953233	 0.235131
H	 3.6399813052	 2.7052876322	-1.8220847981	 0.105083
H	 1.2856945746	 3.800296636	-0.6967160295	 0.101128
H	-0.281178886	 2.3394735269	-2.4686458453	 0.263934
60.7981	109.5759	170.5173	222.8455	323.0261	395.8457	459.0251	512.2058	616.8454	682.3261	715.478	776.1255	790.0712	834.7425	893.2377	898.6494	958.9215	1021.4581	1043.4406	1062.5289	1094.1008	1136.2624	1142.7751	1187.8967	1212.2028	1278.9132	1330.7681	1337.1188	1355.3572	1379.7525	1410.4016	1824.052	1904.0454	2894.6267	3002.0406	3124.8397	3138.2402	3556.4139	3601.2967
O=CC1NC2C1NC2=O	O=C[C@H]1N[C@@H]2[C@H]1NC2=O	
InChI=1S/C5H6N2O2/c8-1-2-3-4(6-2)5(9)7-3/h1-4,6H,(H,7,9)	InChI=1S/C5H6N2O2/c8-1-2-3-4(6-2)5(9)7-3/h1-4,6H,(H,7,9)/t2-,3+,4-/m1/s1
