23
gdb 74972	2.45494	1.53639	1.52781	0.2228	89.36	-0.2247	0.0358	0.2605	1081.2797	0.209797	-351.193854	-351.185886	-351.184942	-351.22585	32.703	
C	-0.0213672898	 1.5038360868	 0.0373755382	-0.505863
C	-0.0013249466	 0.007157378	-0.0209058824	 0.36223
C	-0.0158113005	-0.7414734752	-1.1288840208	-0.192696
C	 0.0105205014	-2.2333063546	-0.8935042227	-0.039609
C	 1.2872022353	-2.5727523298	-0.0779080212	-0.194762
C	 1.3059651756	-1.7114943901	 1.2150997401	-0.198387
C	 0.0389786418	-0.8157810857	 1.252450727	-0.096042
C	-1.2027825042	-1.7467130634	 1.2716204455	-0.198386
C	-1.2179606181	-2.6080938698	-0.0213322233	-0.194757
H	 0.8627015429	 1.8949665395	 0.5581372595	 0.121171
H	-0.0487550462	 1.9462866112	-0.9628098427	 0.118537
H	-0.8935809321	 1.8699472508	 0.5950460969	 0.121207
H	-0.0442640073	-0.3247815568	-2.1315197225	 0.073266
H	-0.0026790411	-2.7957839495	-1.8307185613	 0.052285
H	 1.2928894721	-3.6417884568	 0.1637027798	 0.087238
H	 2.174651507	-2.3791106155	-0.6870317679	 0.092698
H	 1.3259248025	-2.3459342585	 2.108398685	 0.088124
H	 2.2016283905	-1.0842663712	 1.2526206911	 0.092575
H	 0.0501019152	-0.1799813984	 2.1430849959	 0.050546
H	-1.1648811746	-2.3807833367	 2.1645994636	 0.088121
H	-2.113081895	-1.1447848287	 1.3495829892	 0.09257
H	-2.1371056488	-2.4401809405	-0.5897272156	 0.092696
H	-1.1824302	-3.6766769752	 0.2197441788	 0.087238
130.0407	160.6327	195.5665	261.3109	321.1267	369.9604	405.6078	482.4061	511.4878	630.3086	644.2351	768.9676	806.1271	807.6153	826.355	830.6896	869.2548	881.1794	944.5455	969.5339	979.5458	1025.283	1038.9216	1046.7063	1049.5072	1072.811	1120.5089	1151.1433	1163.6819	1190.5458	1204.259	1256.7809	1264.5007	1287.6687	1292.5421	1311.2706	1332.0986	1353.5855	1368.2144	1377.138	1388.668	1411.9713	1478.2859	1482.154	1488.2741	1493.4817	1499.3102	1514.5257	1714.5606	3009.4857	3028.0284	3028.1635	3040.8826	3040.8925	3053.8483	3058.6588	3067.2348	3067.9408	3072.1725	3087.9074	3092.0734	3102.2414	3165.8282
CC1=CC2CCC1CC2	CC1=C[C@H]2CC[C@@H]1CC2	
InChI=1S/C9H14/c1-7-6-8-2-4-9(7)5-3-8/h6,8-9H,2-5H2,1H3	InChI=1S/C9H14/c1-7-6-8-2-4-9(7)5-3-8/h6,8-9H,2-5H2,1H3/t8-,9+
