15
gdb 28182	5.11479	1.29546	1.04139	2.0032	74.	-0.1854	-0.0052	0.1802	1087.6249	0.115188	-416.841146	-416.834132	-416.833188	-416.87236	27.612	
N	 0.0846049617	 1.3119209388	 0.1436143187	-0.591015
C	-0.0498338381	-0.0510219496	 0.0455354525	 0.40888
N	-1.1500388236	-0.7460527934	 0.0231808818	-0.422355
C	-0.6723614198	-2.0546276165	 0.0123461498	 0.248962
C	 0.6751725736	-2.0620130387	 0.0202674735	 0.2694
C	 1.2456449104	-3.4328616896	-0.0161229872	-0.415667
C	-0.0563138994	-4.2412522897	-0.0391798507	-0.089754
C	-1.1427796964	-3.4386326993	-0.0231118587	-0.191305
O	 1.1222200112	-0.7641591902	 0.0420958514	-0.233089
H	 0.9124065412	 1.6855273789	-0.2979905999	 0.26372
H	-0.760498238	 1.8019514573	-0.1110509273	 0.271276
H	 1.8583403768	-3.6404208787	-0.9032213449	 0.135642
H	 1.8577139043	-3.6884854765	 0.8586861971	 0.136942
H	-0.0572296754	-5.3223859539	-0.0609379744	 0.101289
H	-2.1758922187	-3.7585908288	-0.0333915016	 0.107075
119.4399	247.8003	277.0988	303.956	323.8567	431.4844	522.7147	563.8361	615.6185	646.946	733.3137	736.2766	755.9362	800.9264	882.5395	915.2465	919.9504	938.8443	949.8311	1072.8672	1118.5513	1121.8503	1153.5968	1219.3045	1293.2898	1324.9216	1407.813	1437.3138	1449.5547	1561.0317	1597.424	1648.6263	1674.6196	3028.6392	3057.6743	3218.3414	3240.0621	3571.0751	3679.5404
NC1=NC2=C(CC=C2)O1	Nc1nc2c(CC=C2)o1	
InChI=1S/C6H6N2O/c7-6-8-4-2-1-3-5(4)9-6/h1-2H,3H2,(H2,7,8)	InChI=1S/C6H6N2O/c7-6-8-4-2-1-3-5(4)9-6/h1-2H,3H2,(H2,7,8)
