19
gdb 65151	3.67684	1.04709	0.92158	3.7285	75.76	-0.2414	-0.0157	0.2257	1291.1029	0.156968	-423.019024	-423.010198	-423.009254	-423.052823	33.266	
C	 0.0706632004	 1.5539168829	-0.4127147723	-0.461499
C	-0.0371803776	 0.085779467	-0.0612531639	 0.395391
C	 1.1342624765	-0.7870491952	-0.2246252824	-0.229119
O	 0.7437998773	-0.323116003	 1.0737215831	-0.269694
C	-1.4347393059	-0.4944263177	-0.1106945973	-0.063036
C	-1.6527766634	-1.9420994874	 0.4269820725	-0.369416
C	-2.8663710923	-1.4098523614	 1.1997042473	 0.398449
O	-3.8166142729	-1.9257283549	 1.7107782287	-0.291281
C	-2.4540396957	 0.0482093448	 0.9490362401	-0.356832
H	 1.1020743919	 1.8997577381	-0.3125290113	 0.130128
H	-0.2594209162	 1.7304499332	-1.4421159768	 0.123262
H	-0.5580288589	 2.1587685355	 0.2489099038	 0.131652
H	 1.0015893876	-1.854040902	-0.396518956	 0.115527
H	 2.0663075308	-0.3709576914	-0.6046134076	 0.115599
H	-1.8358088733	-0.3814577561	-1.122557014	 0.086391
H	-1.831260405	-2.7530416273	-0.2822139641	 0.123704
H	-0.8561159172	-2.2273830811	 1.123009443	 0.150557
H	-1.9495828957	 0.4673962136	 1.8269740163	 0.142952
H	-3.2408899002	 0.7334309324	 0.6264044011	 0.127265
72.8287	81.7747	172.3298	194.5015	237.0886	327.8868	366.0595	418.7202	428.1311	507.6009	520.065	614.7864	679.6714	717.0464	790.6118	865.2147	909.8448	925.6914	929.6383	991.2934	1009.7349	1025.2306	1061.0733	1104.2589	1116.6757	1135.26	1170.0562	1195.7836	1198.3356	1237.2608	1244.7516	1259.4824	1372.5859	1393.8131	1415.3446	1423.6158	1446.166	1483.6381	1495.4918	1530.6585	1896.9441	3037.4992	3051.2776	3056.1297	3063.1085	3084.7202	3101.6021	3120.4213	3122.9719	3126.1177	3170.2882
CC1(CO1)C1CC(=O)C1	C[C@]1(CO1)C1CC(=O)C1	
InChI=1S/C7H10O2/c1-7(4-9-7)5-2-6(8)3-5/h5H,2-4H2,1H3	InChI=1S/C7H10O2/c1-7(4-9-7)5-2-6(8)3-5/h5H,2-4H2,1H3/t7-/m0/s1
