19
gdb 40021	3.56729	1.35219	1.12558	1.8128	81.88	-0.2331	0.0055	0.2386	1115.3613	0.160872	-385.868893	-385.861358	-385.860414	-385.901652	30.095	
C	-0.2581920483	 1.4845840769	 0.0266295753	-0.235292
O	 1.0738705729	 0.9982856636	-0.0879603966	-0.278015
C	-0.0121555163	 0.0336501222	 0.0010106838	 0.406723
C	-0.1072270697	-0.7405939346	 1.3125275061	-0.328289
C	 0.2262647679	-2.2296629673	 1.209648097	-0.03596
C	-0.8613479795	-3.2258259927	 0.8901338765	-0.285735
C	 0.1947979011	-2.8930997668	-0.1469166836	-0.07378
C	-0.136627693	-2.0526160709	-1.3197591395	-0.076324
C	-0.2317916194	-0.7232002478	-1.2558201538	-0.124129
H	-0.5052595238	 1.9635660539	 0.9751708799	 0.106559
H	-0.657731205	 1.9850475328	-0.8559865093	 0.108417
H	 0.5653637244	-0.2528101683	 2.0234312635	 0.119513
H	-1.1230268777	-0.6214013599	 1.7090352447	 0.108591
H	 0.9986504278	-2.5739676227	 1.8887722163	 0.090474
H	-0.8262905958	-4.2033613426	 1.3588194875	 0.110841
H	-1.8616480693	-2.8388677217	 0.7213610262	 0.111793
H	 0.9270493391	-3.672657371	-0.3386964397	 0.091145
H	-0.2827606667	-2.5591096363	-2.2709903861	 0.093578
H	-0.4333010788	-0.1370626267	-2.1477623782	 0.089889
26.8236	172.9112	298.7669	321.8887	356.1562	400.3853	434.8718	529.4592	580.3368	662.0793	752.2928	766.2656	793.5254	812.6687	857.2801	890.6937	920.7352	928.8807	979.915	991.1631	1010.4708	1037.8283	1057.034	1088.5825	1124.8109	1131.8237	1136.4668	1164.2671	1192.0989	1226.9915	1260.1036	1304.2776	1313.4338	1363.7082	1380.7795	1409.7001	1447.4207	1470.8882	1488.488	1526.0208	1710.9144	3026.9698	3064.0053	3088.9555	3124.4804	3137.2599	3146.9833	3150.207	3161.9027	3175.9553	3214.689
C1OC11CC2CC2C=C1	C1O[C@]21C[C@H]1C[C@H]1C=C2	
InChI=1S/C8H10O/c1-2-8(5-9-8)4-7-3-6(1)7/h1-2,6-7H,3-5H2	InChI=1S/C8H10O/c1-2-8(5-9-8)4-7-3-6(1)7/h1-2,6-7H,3-5H2/t6-,7-,8+/m1/s1
