17
gdb 26956	3.02049	1.37119	0.99632	2.1093	75.23	-0.1903	0.0308	0.221	1158.5416	0.137933	-418.000057	-417.991996	-417.991052	-418.03295	30.638	
N	-0.012486336	 1.3140585515	-0.1721523855	-0.59495
C	-0.0959416911	-0.06523108	-0.070821311	 0.290725
C	-1.1483770875	-0.9312435797	 0.0608034474	 0.161222
C	-0.5400656022	-2.2277545943	 0.2534230071	-0.268393
C	 0.7983155385	-2.0490091164	 0.1990429275	-0.029489
O	 1.0861739052	-0.7168361923	 0.0043627302	-0.173054
C	-2.592962437	-0.608167705	 0.0395294676	-0.141241
C	-3.1718792682	 0.2246824737	-1.0536321575	-0.245753
N	-3.4747323017	-1.2127182094	-0.9850961914	-0.311528
H	 0.7375645694	 1.6267317786	-0.7760338464	 0.255459
H	-0.8946789429	 1.7325332058	-0.4331770594	 0.256822
H	-1.0585936981	-3.1633835971	 0.3975193885	 0.113204
H	 1.6522437657	-2.7002731912	 0.2669115286	 0.132562
H	-3.0870312945	-0.5525959106	 1.00878985	 0.101982
H	-4.0138514745	 0.8807272632	-0.8508795946	 0.11825
H	-2.5038976583	 0.571325014	-1.8384953017	 0.103793
H	-2.8909519766	-1.7017601509	-1.6605230394	 0.230391
70.3156	144.0973	160.6354	243.2159	272.3804	344.1394	399.7133	503.1933	597.591	621.2797	674.2407	701.2162	718.8515	761.3441	829.3593	839.5484	871.8201	910.0103	962.8609	1002.8203	1026.1235	1057.6524	1106.0124	1146.8063	1167.0556	1182.6897	1198.7183	1247.361	1290.1539	1308.9191	1310.2661	1401.8853	1476.4107	1504.9394	1568.5245	1621.5158	1678.8716	3103.5523	3105.5655	3189.0251	3250.8306	3296.1774	3491.5332	3540.2788	3646.0404
NC1=C(C=CO1)C1CN1	Nc1c(cco1)[C@H]1CN1	
InChI=1S/C6H8N2O/c7-6-4(1-2-9-6)5-3-8-5/h1-2,5,8H,3,7H2	InChI=1S/C6H8N2O/c7-6-4(1-2-9-6)5-3-8-5/h1-2,5,8H,3,7H2/t5-/m1/s1
