18
gdb 77615	2.08556	1.60213	1.29065	3.4644	78.46	-0.2301	0.0157	0.2458	1080.611	0.147931	-398.097824	-398.088685	-398.087741	-398.131501	33.738	
C	 0.0624414719	 1.5465120452	 0.0186466085	-0.4713
C	 0.0463344092	 0.0482832805	 0.0635045622	 0.266692
N	 0.6155982389	-0.7048667117	-1.0623487813	-0.348486
C	 1.2109358445	-1.7303216874	-0.1548225569	-0.233155
C	 0.6777264146	-0.9675649652	 1.0568243136	 0.09385
C	 1.3165236015	-0.7383465452	 2.3010764916	 0.192018
N	 1.8084758807	-0.549258925	 3.3336885222	-0.362419
C	-0.8599857819	-0.794669812	 0.8996394839	-0.070241
N	-1.644267129	-0.1964134803	 1.9344353197	-0.522155
H	 1.0544283583	 1.9041040815	-0.2682396595	 0.143522
H	-0.6579345457	 1.9044363766	-0.7261805979	 0.135216
H	-0.2036027586	 1.9964295526	 0.9784721252	 0.127878
H	-0.0856748146	-1.0704199856	-1.7024477851	 0.220712
H	 0.8235134355	-2.7507786956	-0.2660057105	 0.107864
H	 2.3015878886	-1.751941195	-0.2331357907	 0.130969
H	-1.370258198	-1.6266474198	 0.4131009225	 0.096309
H	-1.7703259824	-0.8453702564	 2.7060189333	 0.247452
H	-1.1968001636	 0.6272665628	 2.3216976793	 0.245274
108.0056	115.6486	129.1412	182.3718	226.6399	254.3687	286.7579	353.5409	408.5753	480.6728	562.1996	580.5851	625.9047	683.6819	693.2829	774.0042	853.383	888.2698	952.6437	987.1114	1016.1862	1044.2133	1086.8978	1112.3031	1160.6712	1174.292	1200.9799	1247.283	1280.4156	1330.8702	1355.9297	1382.6001	1421.9827	1454.4737	1472.5451	1497.0336	1514.9642	1662.4661	2331.3111	3021.8706	3037.7487	3081.9467	3097.8887	3104.3537	3127.4491	3484.1054	3501.6619	3582.8134
CC12NCC1(C#N)C2N	C[C@@]12NC[C@]1(C#N)[C@H]2N	
InChI=1S/C6H9N3/c1-5-4(8)6(5,2-7)3-9-5/h4,9H,3,8H2,1H3	InChI=1S/C6H9N3/c1-5-4(8)6(5,2-7)3-9-5/h4,9H,3,8H2,1H3/t4-,5-,6+/m0/s1
