18
gdb 67071	2.6119	1.57283	1.33631	4.274	80.93	-0.2598	0.0181	0.2779	1032.755	0.14858	-364.788722	-364.780904	-364.779959	-364.820812	30.514	
C	-0.068699854	 1.5568650389	-0.0518645806	-0.525195
C	-0.0038575034	 0.068130526	-0.0113566689	 0.308125
C	 0.0186357027	-1.0144688525	-1.0634855207	-0.119976
C	 1.2898537513	-1.6414353198	-0.5048417303	-0.271101
C	 0.914494392	-0.9428669961	 0.8383290479	 0.147893
C	-0.3934178159	-1.6658058316	 1.2852314145	-0.271091
C	-1.0376636608	-1.0299074001	 0.0597603184	-0.119994
C	 1.9225029146	-0.5703564639	 1.7912679081	 0.160651
N	 2.7307689352	-0.2513418153	 2.5557710644	-0.348212
H	 0.8868970847	 1.9938931239	-0.3618742197	 0.134019
H	-0.8327672848	 1.8825952012	-0.7660164565	 0.129174
H	-0.3254868663	 1.976170308	 0.9271699365	 0.134017
H	-0.2745093983	-0.9232430628	-2.1011267149	 0.095593
H	 1.3863981137	-2.7318304536	-0.4742283469	 0.104884
H	 2.1858933594	-1.1996151843	-0.9463693894	 0.12037
H	-0.3420687165	-2.7568449967	 1.3640244192	 0.104872
H	-0.784979991	-1.242579887	 2.2129181945	 0.120377
H	-2.0925105325	-0.9498463944	-0.1679333356	 0.095593
119.3147	151.8009	203.4286	217.7168	285.6695	404.6948	466.1926	516.9975	523.3321	554.5327	655.6749	710.068	734.6763	847.6841	873.3628	906.0717	921.7744	971.9506	976.0249	1010.9299	1017.4557	1067.9066	1069.2562	1125.1412	1126.5821	1155.4333	1160.9955	1221.752	1246.4643	1247.9001	1290.8834	1307.9845	1411.3099	1454.8789	1480.7541	1490.3127	1495.7371	1510.1969	2345.0695	3026.3616	3042.9208	3048.9361	3089.2622	3096.9733	3112.6408	3115.4642	3199.5245	3208.8707
CC12C3CC1(CC23)C#N	C[C@@]12[C@H]3C[C@@]1(C[C@@H]23)C#N	
InChI=1S/C8H9N/c1-7-5-2-8(7,4-9)3-6(5)7/h5-6H,2-3H2,1H3	InChI=1S/C8H9N/c1-7-5-2-8(7,4-9)3-6(5)7/h5-6H,2-3H2,1H3/t5-,6+,7-,8+
