23
gdb 58804	3.42393	1.08729	0.96396	1.4263	86.03	-0.2273	0.0869	0.3142	1362.466	0.203903	-388.266222	-388.256408	-388.255464	-388.30057	37.546	
C	 0.1126667196	 1.5375057994	 0.0202710811	-0.389046
C	 0.0283134468	 0.0019684544	 0.0294510784	-0.080356
C	 0.462572558	-0.5983440388	-1.3126244235	-0.401627
C	 0.8156321332	-0.5466301715	 1.187894857	 0.516914
C	 2.2717367358	-0.8925187608	 1.2583209405	-0.346505
C	 1.2288100243	-1.925782742	 1.654874381	-0.22738
C	 0.5911208342	-1.5341920485	 2.9865834034	 0.150692
C	 1.375914716	-1.5866886352	 4.2813133545	-0.408425
O	 0.354892556	-0.177056812	 2.5018593855	-0.356331
H	 1.1374667633	 1.8693527545	-0.180550107	 0.113441
H	-0.5371907919	 1.9572606058	-0.7542874263	 0.105874
H	-0.1930660515	 1.9474589465	 0.9863931046	 0.135508
H	-1.0198756449	-0.2757188811	 0.2072568877	 0.080548
H	 1.4868880737	-0.3059067304	-1.5672923856	 0.118501
H	 0.4129304793	-1.6921151888	-1.3022365022	 0.113665
H	-0.1900830372	-0.2416878939	-2.1152139966	 0.115587
H	 2.7601431142	-1.1054324127	 0.3129110509	 0.113396
H	 2.9044706586	-0.4158984573	 2.0014348441	 0.110547
H	 1.1471830886	-2.8905911088	 1.1716406262	 0.093998
H	-0.3788605117	-2.0343823043	 3.1124846441	 0.077811
H	 2.3707989258	-1.1486714227	 4.1662957943	 0.120794
H	 0.8474658887	-1.0354602334	 5.0657805272	 0.126525
H	 1.488078261	-2.6250128885	 4.6118849207	 0.115869
62.6001	123.0174	152.7774	219.0101	230.3483	252.1764	286.5356	292.017	294.0672	424.7339	459.3873	468.9863	551.668	653.2844	701.454	827.6119	855.2075	873.9241	892.0262	932.577	956.9223	964.5457	979.792	984.7939	1018.0613	1056.6247	1084.1528	1089.8042	1118.1551	1129.5798	1150.5038	1166.557	1192.1319	1276.4715	1306.3287	1347.8584	1362.595	1382.213	1394.729	1395.6679	1411.4741	1421.08	1484.0338	1485.3486	1490.7251	1491.6576	1494.3643	1503.3629	1516.2539	3007.3269	3009.1615	3031.0121	3034.6965	3037.4722	3097.7029	3101.7312	3105.1267	3105.9136	3118.135	3120.0034	3122.0223	3193.9082	3209.4904
CC(C)C12CC1C(C)O2	CC(C)[C@]12C[C@H]1[C@@H](C)O2	
InChI=1S/C8H14O/c1-5(2)8-4-7(8)6(3)9-8/h5-7H,4H2,1-3H3	InChI=1S/C8H14O/c1-5(2)8-4-7(8)6(3)9-8/h5-7H,4H2,1-3H3/t6-,7+,8-/m1/s1
