22
gdb 115849	3.27483	1.13315	1.09025	0.7499	82.04	-0.2201	0.0856	0.3057	1264.479	0.194514	-404.326808	-404.317705	-404.316761	-404.360555	34.441	
C	 0.4739151652	 1.1712620772	-1.0755329166	-0.385465
C	 0.4759909267	-0.3188978538	-0.7288072304	-0.182677
C	 1.3851780677	-0.6480002323	 0.4610191653	 0.099778
O	 1.0084666964	 0.0792249873	 1.6412941267	-0.268882
C	 0.2341535682	-0.7510744978	 2.5042513542	-0.113559
C	 0.5745697654	-2.1838113055	 2.143603101	-0.050328
C	 1.3131886613	-2.1174250442	 0.8461212793	-0.054465
N	 1.9710045878	-2.580567372	 2.0583908658	-0.107125
C	 3.0374097974	-1.8247825893	 2.7080036553	-0.331217
H	 1.4726166134	 1.5084434035	-1.3752750374	 0.112707
H	-0.2124011205	 1.3851373925	-1.9001939924	 0.109271
H	 0.1689878966	 1.7645366113	-0.209487885	 0.133432
H	-0.5437335489	-0.6544990781	-0.4998344631	 0.097366
H	 0.810646957	-0.9087851609	-1.5920250979	 0.095868
H	 2.4105528385	-0.3270377359	 0.2289590339	 0.081295
H	 0.4892328105	-0.4780522124	 3.5351519428	 0.109032
H	-0.8457876065	-0.5837213543	 2.368247525	 0.098085
H	-0.1395618051	-2.9647238959	 2.3920753478	 0.092362
H	 1.1962789458	-2.8498942184	 0.0513131521	 0.090886
H	 2.9085258783	-0.7355160645	 2.6999881191	 0.132978
H	 3.1124869011	-2.1616429201	 3.7468646219	 0.119772
H	 3.9829470838	-2.0696709064	 2.2137171624	 0.120886
84.3411	123.8275	163.074	182.1112	232.403	235.3912	274.8766	334.9954	429.9058	459.9587	539.3696	711.3703	746.1932	749.1698	798.6122	838.3009	875.2509	922.8248	945.9014	994.7678	1007.3691	1033.7762	1045.1027	1075.1661	1102.6624	1129.9596	1141.0989	1146.7056	1171.8992	1186.8233	1231.5649	1283.9259	1291.5508	1308.3841	1320.814	1349.7011	1368.8402	1392.2075	1406.9458	1417.2916	1459.5365	1478.2872	1492.2559	1496.5572	1509.0476	1513.0905	1522.8291	2982.3644	3005.5671	3017.9042	3020.1754	3036.1959	3049.7471	3056.9	3084.2639	3099.1478	3101.6482	3122.3951	3134.8409	3144.7839
CCC1OCC2C1N2C	CC[C@H]1OC[C@H]2[C@@H]1N2C	
InChI=1S/C7H13NO/c1-3-6-7-5(4-9-6)8(7)2/h5-7H,3-4H2,1-2H3	InChI=1S/C7H13NO/c1-3-6-7-5(4-9-6)8(7)2/h5-7H,3-4H2,1-2H3/t5-,6+,7-,8?/m0/s1
