21
gdb 83871	1.92253	1.86841	1.26618	0.3141	77.6	-0.2408	0.0643	0.3052	1094.8166	0.184124	-424.207592	-424.198958	-424.198014	-424.240514	33.653	
C	-0.4074712317	 1.4699256741	-0.0828687598	-0.411909
C	-0.0517823928	 0.0028277635	 0.0223862927	-0.005398
C	 1.3007768135	-0.5907948056	-0.3250862189	-0.091765
C	 2.5215836706	 0.273641282	-0.6182112514	-0.101232
O	 3.3524382613	 0.4823494809	 0.5184525809	-0.235269
C	 2.6386577824	 1.0922552693	 1.5701040638	-0.126238
C	 1.5578981047	 0.1604371436	 2.1593907149	 0.075739
O	 0.6310666535	 0.8969182616	 2.9554151271	-0.43003
C	 0.7950086983	-0.6170093092	 1.1081559342	-0.040827
H	 0.4355844185	 2.1360328252	 0.1039662943	 0.120046
H	-0.7886918635	 1.6966143402	-1.0851822593	 0.109659
H	-1.1851343391	 1.7256388219	 0.6427544883	 0.131377
H	-0.8825746628	-0.6370721133	-0.2675606997	 0.083838
H	 1.2864272806	-1.5369895516	-0.8564875939	 0.086354
H	 3.1569290083	-0.223706184	-1.3550550087	 0.109349
H	 2.2318189129	 1.2500274217	-1.0385997891	 0.092908
H	 3.3745498874	 1.3398895984	 2.3434326065	 0.096226
H	 2.1713502984	 2.0346237016	 1.2446285898	 0.096827
H	 2.077738632	-0.584112465	 2.7818749497	 0.072496
H	 1.1086521633	 1.260391326	 3.7088715767	 0.281845
H	 0.4386906242	-1.5757651215	 1.4723275617	 0.086003
102.6612	137.7941	194.7623	219.9778	281.9296	308.2473	344.5153	397.7884	435.5037	463.7818	505.8028	656.245	684.3564	735.6262	767.5395	840.8767	939.0329	944.9252	958.616	998.9456	1034.4319	1058.3538	1077.5695	1082.9644	1108.3392	1121.7386	1150.8154	1171.9506	1180.1205	1243.291	1253.4701	1284.9413	1321.3343	1348.4727	1361.4775	1377.3534	1392.9298	1411.3779	1425.4566	1442.8267	1453.4076	1487.0081	1496.4623	1504.2449	1515.5958	2972.8103	2976.5297	2994.2497	3038.2975	3063.4198	3091.6793	3100.0655	3117.0665	3139.4191	3142.1603	3156.6027	3804.0824
CC1C2COCC(O)C12	C[C@H]1[C@H]2COC[C@@H](O)[C@@H]12	
InChI=1S/C7H12O2/c1-4-5-2-9-3-6(8)7(4)5/h4-8H,2-3H2,1H3	InChI=1S/C7H12O2/c1-4-5-2-9-3-6(8)7(4)5/h4-8H,2-3H2,1H3/t4-,5+,6+,7-/m0/s1
