18
gdb 37297	3.15169	1.78351	1.67875	2.7973	73.9	-0.2133	0.0644	0.2777	887.1604	0.150029	-401.829717	-401.823352	-401.822408	-401.860153	26.951	
C	 0.0157909801	 1.5674854458	 0.1684602785	-0.076485
O	 1.4673383884	 1.5512145918	 0.1292767655	-0.284903
C	 1.4955638347	 0.1248319193	 0.0311168094	 0.105801
C	-0.0570341584	 0.0321091855	 0.007614648	-0.10951
C	 0.0091038229	-0.6612878271	-1.4002654906	-0.031624
C	-0.0027853835	 0.0654665238	-2.7687250626	-0.082467
N	 0.6340213021	 1.3903991076	-2.6218573008	-0.316219
C	 1.4932300817	 0.1927066726	-2.7389612572	-0.059235
C	 1.5627058593	-0.5531260653	-1.3874078643	-0.052158
H	-0.3354342162	 1.9090521288	 1.1507970356	 0.08827
H	-0.4115970752	 2.1824546327	-0.6227382743	 0.120269
H	 2.1344866848	-0.3336099803	 0.7936017585	 0.070521
H	-0.6323425282	-0.5096086824	 0.7585166705	 0.073481
H	-0.4506218768	-1.6496370966	-1.435305436	 0.072448
H	-0.6705287603	-0.1324088627	-3.5988845924	 0.091636
H	 0.6211980257	 1.826300941	-3.5433479797	 0.229384
H	 2.2129930805	 0.1238010271	-3.5457043414	 0.093592
H	 2.1611185484	-1.4648217918	-1.4317901968	 0.0672
175.7254	235.5247	293.2112	355.2464	496.9738	635.2735	658.0101	686.4216	752.2378	787.5089	808.9171	814.3272	833.859	904.0293	913.2405	919.4973	944.0497	983.3609	1002.9983	1009.8284	1039.8997	1051.4534	1088.9368	1097.7611	1123.2956	1141.352	1162.9778	1177.2243	1199.2714	1217.2616	1226.9129	1267.1024	1293.1943	1310.4556	1331.3345	1342.0963	1366.2557	1384.7323	1499.1279	3015.4091	3042.2272	3091.8981	3098.1829	3111.2912	3131.4779	3174.4173	3187.5885	3471.6738
C1OC2C1C1C3NC3C21	C1O[C@H]2[C@@H]1[C@H]1[C@H]3N[C@H]3[C@@H]21	
InChI=1S/C7H9NO/c1-2-3-4(7(2)9-1)6-5(3)8-6/h2-8H,1H2	InChI=1S/C7H9NO/c1-2-3-4(7(2)9-1)6-5(3)8-6/h2-8H,1H2/t2-,3+,4-,5+,6-,7-/m0/s1
