15
gdb 43225	3.01719	1.86038	1.62773	1.9375	63.66	-0.2345	-0.039	0.1955	846.8275	0.114182	-457.72257	-457.716349	-457.715405	-457.753124	25.08	
O	-0.0356258167	 0.0327681098	 0.2036010281	-0.309911
C	-0.0144697583	 1.2267753978	 0.1320782938	 0.425035
C	-1.0952961763	 2.3355709325	-0.0357328715	-0.072418
O	-1.3915746378	 2.9355096755	 1.2119536189	-0.25127
C	-0.2001617083	 3.2131494132	 1.9522903793	-0.095096
C	 0.9313200287	 3.4629899469	 0.9636835832	 0.064615
O	 0.3939016817	 4.3460889188	-0.058161455	-0.283033
C	 0.0327441152	 3.1757174394	-0.7882569602	 0.108517
C	 1.0744834512	 2.2666911729	-0.0649081993	-0.243606
H	-2.0336740712	 2.1053617898	-0.5389146495	 0.105872
H	-0.4006945863	 4.11019454	 2.5449745194	 0.129704
H	 0.0461676903	 2.3823593854	 2.6311033435	 0.111625
H	 1.8498680745	 3.8410964651	 1.4162135489	 0.102548
H	-0.0558863485	 3.3122222433	-1.8654795101	 0.104117
H	 2.0762533019	 2.0226103095	-0.4122933593	 0.103301
128.9112	272.153	317.3422	411.0575	453.5823	542.9155	595.3235	683.0709	743.6614	777.3742	820.5248	829.1657	867.7061	900.2829	936.5847	1005.9191	1016.3037	1038.9331	1053.7756	1077.7245	1107.0446	1114.8403	1168.8666	1193.8483	1225.0028	1239.3073	1264.08	1310.7322	1319.5711	1339.8845	1391.6837	1498.5769	1888.6282	2993.2302	3090.7921	3101.3781	3123.0957	3132.9071	3144.4885
O=C1C2OCC3OC2C13	O=C1[C@H]2OC[C@@H]3O[C@H]2[C@H]13	
InChI=1S/C6H6O3/c7-4-3-2-1-8-6(4)5(3)9-2/h2-3,5-6H,1H2	InChI=1S/C6H6O3/c7-4-3-2-1-8-6(4)5(3)9-2/h2-3,5-6H,1H2/t2-,3-,5-,6+/m0/s1
