19
gdb 5220	6.3042	1.03742	0.9521	1.8671	78.86	-0.1933	0.0489	0.2422	1270.3901	0.166931	-327.973997	-327.965737	-327.964793	-328.007476	30.514	
C	-0.1312800308	 1.5757655906	-0.0449620729	-0.37954
C	-0.1188321865	 0.045827731	-0.0737189678	-0.15147
C	 0.8255321014	-0.5245071855	-1.151358138	-0.308166
C	 0.8723305779	-2.0188575	-1.1974639757	 0.307739
C	 1.849640379	-2.9096766572	-0.8078538217	-0.226287
C	 1.3661135979	-4.2275483313	-1.0452571659	-0.13571
C	 0.1040685443	-4.1092073927	-1.5751915387	-0.100197
N	-0.1855077283	-2.7689268944	-1.6614538192	-0.282638
H	 0.8680661949	 1.9749251902	 0.1616424946	 0.11608
H	-0.4576519054	 1.9893147688	-1.0060762976	 0.111871
H	-0.807301139	 1.9552450305	 0.7274412989	 0.112776
H	 0.1848552174	-0.3476108494	 0.9034305052	 0.106295
H	-1.1363262703	-0.3284621614	-0.2462334125	 0.086992
H	 0.5313955373	-0.1201518762	-2.1313517502	 0.095503
H	 1.8416372977	-0.1580767288	-0.9678615277	 0.111097
H	 2.8107828635	-2.6374977299	-0.397577979	 0.083752
H	 1.8871864599	-5.1530223297	-0.85371861	 0.088222
H	-0.6060401972	-4.8531204912	-1.898924399	 0.109777
H	-1.0421878836	-2.3871889032	-2.0228327527	 0.253903
44.7609	84.7729	115.4536	238.7305	300.3769	322.5686	363.8574	478.6351	629.2318	657.8721	703.261	737.9474	743.1507	793.7782	846.8765	867.8766	892.4914	896.4282	976.96	1041.9591	1050.687	1079.4499	1109.2996	1121.4957	1146.0388	1244.3693	1256.5221	1296.1268	1311.5961	1330.0238	1381.7921	1410.9795	1437.5973	1457.536	1478.6377	1490.8	1497.7746	1504.2724	1509.3458	1617.0429	2995.9263	3021.5151	3028.2356	3054.2352	3072.0413	3095.8112	3102.6359	3236.9975	3250.3042	3269.9836	3678.0107
CCCC1=CC=CN1	CCCc1ccc[nH]1	
InChI=1S/C7H11N/c1-2-4-7-5-3-6-8-7/h3,5-6,8H,2,4H2,1H3	InChI=1S/C7H11N/c1-2-4-7-5-3-6-8-7/h3,5-6,8H,2,4H2,1H3
