13
gdb 25240	3.49234	1.62719	1.11784	4.3669	64.82	-0.2513	-0.0265	0.2248	979.9381	0.091763	-456.619686	-456.613385	-456.612441	-456.650528	24.152	
O	-0.1052180488	-0.0362334864	 0.0053901862	-0.337912
C	 0.0325540392	 1.1505156181	 0.0091501313	 0.39512
O	-1.071796191	 2.0092433729	 0.0288699977	-0.253747
C	-0.6912545318	 3.3948647906	 0.0306202361	-0.194543
C	 0.7924047487	 3.2964824005	 0.0097278742	 0.312423
C	 1.2182879364	 2.0148830306	-0.0026138353	 0.056675
C	 2.6515568408	 2.0709274056	-0.0217905229	-0.369272
C	 2.9466742324	 3.3982783484	-0.0189981292	-0.004462
O	 1.7997870667	 4.1754176129	 0.0003648667	-0.194197
H	-1.1183366668	 3.8873117439	-0.8508655084	 0.147323
H	-1.0938428161	 3.8783499398	 0.9284442395	 0.147332
H	 3.3592480284	 1.2580606823	-0.0355458877	 0.142967
H	 3.8692856219	 3.9539801607	-0.0286808682	 0.152291
163.7506	201.9759	250.0706	316.7076	534.0848	607.221	631.3477	632.897	654.8378	751.5635	772.8535	773.024	847.4649	918.7728	995.2289	1025.2747	1025.4169	1043.4347	1091.401	1151.4297	1181.0971	1275.5738	1321.9226	1412.4296	1480.1354	1497.895	1528.3043	1638.5464	1889.0424	3033.3609	3069.7024	3268.5358	3294.1303
O=C1OCC2=C1C=CO2	O=C1OCc2c1cco2	
InChI=1S/C6H4O3/c7-6-4-1-2-8-5(4)3-9-6/h1-2H,3H2	InChI=1S/C6H4O3/c7-6-4-1-2-8-5(4)3-9-6/h1-2H,3H2
