19
gdb 71255	2.28354	2.07517	1.61532	0.5261	74.1	-0.2365	0.0792	0.3157	942.1303	0.158664	-422.992425	-422.984658	-422.983714	-423.024088	31.294	
C	-0.1542297926	 1.4872776939	 0.0150025648	-0.508715
C	 0.0091358159	-0.0031520356	 0.0125104137	 0.341562
C	 0.5626402594	-0.7610654432	-1.2135406637	-0.242206
C	 0.7588161948	-2.0566903474	-0.412787196	 0.019531
O	 1.7772495752	-1.6499902142	 0.5498155658	-0.329289
C	 0.739105611	-0.8767859199	 1.1656092489	 0.380413
C	 1.0072957974	-0.3308829977	 2.5320887478	-0.523733
C	-0.3715014152	-1.8183560656	 0.6883715326	 0.018988
O	-1.2240715253	-0.7609137966	 0.2594367647	-0.332612
H	 0.8135647398	 1.9729871309	-0.1445288459	 0.127511
H	-0.8296381788	 1.8031484431	-0.7871348278	 0.133149
H	-0.5678676593	 1.8384141875	 0.9647113934	 0.127484
H	-0.1856231302	-0.8101024358	-2.0075201795	 0.106887
H	 1.5171526397	-0.392831356	-1.5947623901	 0.107056
H	 0.9679252703	-3.0036391633	-0.9057589196	 0.083212
H	 1.8048920762	 0.4190530584	 2.503095862	 0.131437
H	 0.1044924109	 0.1414766994	 2.9303280335	 0.135913
H	 1.3133026125	-1.1295501801	 3.2138494181	 0.133015
H	-0.8456853016	-2.641111508	 1.2208382971	 0.090396
176.8273	185.5979	206.5708	221.0559	301.3949	335.236	466.9902	524.0441	530.4673	613.731	646.1821	705.331	764.067	797.1417	839.4585	865.9963	880.234	909.8313	938.9408	950.991	985.5951	1020.9385	1054.7474	1100.2193	1133.7124	1139.1082	1163.0559	1172.2558	1229.1266	1250.9013	1272.0158	1298.9843	1338.8187	1366.0092	1415.4798	1417.816	1462.3645	1476.6848	1477.6688	1492.7019	1494.4062	3036.8639	3039.4214	3074.6457	3105.2305	3107.6099	3114.6566	3119.9192	3136.1287	3137.6172	3150.4962
CC12CC3OC1(C)C3O2	C[C@@]12C[C@H]3O[C@]1(C)[C@H]3O2	
InChI=1S/C7H10O2/c1-6-3-4-5(9-6)7(6,2)8-4/h4-5H,3H2,1-2H3	InChI=1S/C7H10O2/c1-6-3-4-5(9-6)7(6,2)8-4/h4-5H,3H2,1-2H3/t4-,5+,6-,7-/m1/s1
