17
gdb 83391	2.88222	1.73739	1.55747	1.5242	67.05	-0.2532	0.0506	0.3038	907.4014	0.137736	-458.870378	-458.863727	-458.862783	-458.901014	27.728	
O	 0.0259832379	 1.4650874409	-0.0575506028	-0.453957
C	-0.0421179309	 0.0755820608	-0.0620717494	 0.162879
C	 0.1310253812	-0.660083135	 1.2608640146	-0.030401
O	-0.9150723147	-0.0067089409	 2.066010874	-0.318959
C	-2.0955536621	 0.0600186304	 1.1706020931	-0.205177
C	-1.4683626068	-0.6624270986	 0.0103197394	 0.181337
C	-1.6690471585	-1.6411073557	-1.1416998162	-0.193048
O	-0.5588817083	-2.4400431334	-0.6123171365	-0.303086
C	-0.7144741713	-1.8178283829	 0.6940298401	 0.113811
H	-0.1819394393	 1.7502478325	 0.8418998745	 0.295403
H	 0.5558793353	-0.3113747154	-0.8847635317	 0.113125
H	 1.0331933621	-0.7101333589	 1.8702370976	 0.084458
H	-2.9337274932	-0.4596277747	 1.6412954694	 0.119052
H	-2.3535257153	 1.1091693989	 0.9966216855	 0.110408
H	-2.6056553418	-2.2124736522	-1.120560041	 0.11274
H	-1.4679958885	-1.2818370347	-2.1553753916	 0.119587
H	-1.1811700858	-2.4850727412	 1.422992101	 0.091829
225.3401	271.6555	291.4923	325.9827	392.4433	451.5029	515.8801	543.709	638.204	724.3237	769.0697	828.3843	835.5895	861.7539	885.925	927.5363	940.2687	968.2235	1006.8559	1024.5942	1086.7032	1104.3571	1127.8303	1151.0877	1176.0307	1211.9494	1218.7492	1236.0717	1246.407	1280.4681	1303.101	1304.7765	1348.2742	1381.3983	1438.3835	1513.3953	1524.014	3020.9231	3048.3006	3080.5264	3089.267	3102.238	3125.1248	3144.6215	3766.5614
OC1C2OCC11COC21	O[C@H]1[C@H]2OC[C@]31CO[C@@H]23	
InChI=1S/C6H8O3/c7-4-3-5-6(4,1-8-3)2-9-5/h3-5,7H,1-2H2	InChI=1S/C6H8O3/c7-4-3-5-6(4,1-8-3)2-9-5/h3-5,7H,1-2H2/t3-,4+,5+,6-/m1/s1
