22
gdb 109791	1.96011	1.34541	0.9253	1.6047	83.48	-0.2189	0.0746	0.2935	1360.93	0.192316	-404.292584	-404.282525	-404.281581	-404.328289	36.499	
C	-1.3636796428	 2.528578949	-0.4237871287	-0.373793
C	-1.2490198428	 1.3211796859	-1.3526387783	-0.114514
N	-1.8647917813	 0.1494895459	-0.7335220796	-0.111368
C	-1.568990615	-1.2030816971	-1.2050330846	-0.010612
C	-0.6373194192	-1.5073975828	-2.3595891904	-0.418026
C	-1.0942352225	-0.7415837677	 0.1405214326	-0.04822
C	 0.3539134358	-0.5375752796	 0.4564555645	 0.073756
C	 0.779030518	-0.1488301795	 1.8101105003	-0.185344
O	 0.9127137509	-1.4971574241	 1.3631965828	-0.236759
H	-0.9710142998	 3.4278205967	-0.9086055826	 0.110493
H	-2.4083461673	 2.7034058453	-0.152352617	 0.128065
H	-0.7976159906	 2.3674006577	 0.4993016407	 0.118193
H	-1.8011629547	 1.5158907786	-2.279933184	 0.103109
H	-0.1965734619	 1.1815254174	-1.6417277389	 0.081868
H	-2.4538442794	-1.8404905588	-1.2056719467	 0.090208
H	 0.2826010034	-0.9203269318	-2.3478603202	 0.119936
H	-0.35464095	-2.5649690604	-2.3372540922	 0.13017
H	-1.1385466681	-1.3197173174	-3.3154804717	 0.12397
H	-1.6456332168	-1.0787596285	 1.0186259915	 0.091081
H	 1.018857796	-0.2799191075	-0.3648398688	 0.096171
H	 1.7125828023	 0.3946233413	 1.9504837262	 0.114901
H	 0.0246691058	 0.0154267177	 2.5788615549	 0.116716
46.8868	69.4019	128.8	162.2538	181.4848	212.311	240.9846	285.2446	338.1127	365.9036	478.6344	535.1785	576.6035	714.4981	794.4392	812.7563	832.0029	859.4653	920.335	965.6734	983.3611	1003.5718	1059.8897	1084.2194	1094.4687	1119.5623	1148.27	1153.3621	1165.9387	1171.0056	1186.996	1209.2783	1289.7584	1305.6738	1319.8951	1345.2659	1381.9826	1406.6138	1413.9814	1419.4289	1470.1958	1488.4979	1491.347	1498.258	1504.1894	1517.2801	1527.7656	2982.8393	3039.2281	3040.0943	3045.6669	3079.6309	3088.2412	3096.2377	3100.72	3108.4263	3120.8798	3127.4808	3138.9316	3167.6962
CCN1C(C)C1C1CO1	CCN1[C@@H](C)[C@H]1[C@H]1CO1	
InChI=1S/C7H13NO/c1-3-8-5(2)7(8)6-4-9-6/h5-7H,3-4H2,1-2H3	InChI=1S/C7H13NO/c1-3-8-5(2)7(8)6-4-9-6/h5-7H,3-4H2,1-2H3/t5-,6+,7-,8?/m0/s1
