19
gdb 73042	3.45205	1.05987	0.95616	5.0724	79.84	-0.2412	0.0342	0.2755	1284.6578	0.159377	-382.043864	-382.035099	-382.034155	-382.077757	32.731	
C	-0.1162123678	 1.4454563516	 0.1117380078	-0.488496
C	-0.04474065	-0.047729348	-0.0187939214	 0.321348
C	-0.8720054824	-0.8682565384	-1.0146596304	-0.314117
C	-1.1364023879	-1.854224666	 0.1479166822	-0.156847
N	-0.3745454085	-1.0070660868	 1.1333079421	-0.172803
C	 1.004927772	-0.8696974513	 0.6237132053	-0.028679
C	 1.7973072571	-1.9760859325	-0.061467717	-0.393849
C	 2.1949072419	-3.040099249	 0.8623378104	 0.277005
N	 2.509799903	-3.8773390679	 1.5935300131	-0.30444
H	 0.4091571766	 1.9337894511	-0.7178188691	 0.124111
H	-1.1552554061	 1.7914949918	 0.1004954708	 0.126882
H	 0.3421624653	 1.7783767511	 1.0471291425	 0.133819
H	-1.7745142642	-0.3424785853	-1.3326157153	 0.116465
H	-0.3589259833	-1.2336534968	-1.910224031	 0.102054
H	-2.1828221338	-1.898971124	 0.4529850425	 0.120209
H	-0.7636391146	-2.8784845995	 0.05055657	 0.114141
H	 1.607878658	-0.3339305144	 1.3537513057	 0.111732
H	 1.247105707	-2.426489791	-0.8914120191	 0.154129
H	 2.7052826077	-1.5394844147	-0.4940412591	 0.157336
43.5098	114.8321	176.621	219.692	253.8528	289.0573	327.9612	388.8982	431.0703	478.5188	600.3561	617.3188	708.7713	788.7599	790.9528	868.3677	917.2236	940.5899	962.0772	972.488	1005.2786	1049.8609	1071.9536	1115.4687	1150.5157	1170.3888	1215.8588	1228.5582	1243.1362	1281.0891	1317.3857	1323.9209	1342.1485	1412.4986	1459.8594	1462.7172	1482.3532	1493.0541	1498.0281	1522.428	2363.8261	3028.1327	3047.0169	3050.2412	3059.5235	3090.0189	3103.0975	3105.0168	3114.3295	3123.8158	3136.0144
CC12CCN1C2CC#N	C[C@]12CCN1[C@H]2CC#N	
InChI=1S/C7H10N2/c1-7-3-5-9(7)6(7)2-4-8/h6H,2-3,5H2,1H3	InChI=1S/C7H10N2/c1-7-3-5-9(7)6(7)2-4-8/h6H,2-3,5H2,1H3/t6-,7+,9?/m0/s1
