16
gdb 84528	2.3453	1.79164	1.45754	3.6866	72.83	-0.2632	-0.0257	0.2374	958.3619	0.125608	-396.920934	-396.913286	-396.912342	-396.953012	28.817	
C	-0.3167021221	 1.5278506408	-0.0339962406	-0.411256
C	 0.0030067744	 0.0338320984	 0.0162022689	 0.018908
N	 0.6886906615	-0.4363422223	-1.2057695277	-0.183232
C	 1.6882305659	-1.1290111565	-0.8493903245	 0.027231
N	 1.9137730593	-1.3445594122	 0.5589320117	-0.132029
C	 2.3464573195	-0.0859328426	 1.2456433182	-0.178708
C	 2.9336625649	 1.0038476168	 0.5090510058	 0.326644
N	 3.4555180569	 1.8797396756	-0.0373803874	-0.338216
C	 0.8982398926	-0.462061539	 1.1599519671	-0.063426
H	 0.59018405	 2.1285584969	-0.1253997436	 0.156464
H	-0.9539965485	 1.7379527771	-0.8962795318	 0.138466
H	-0.8495896173	 1.8328440047	 0.8718407215	 0.11914
H	-0.9450588151	-0.5167875104	 0.0844611016	 0.108215
H	 2.3770659624	-1.6007066421	-1.542440315	 0.143901
H	 2.8531432268	-0.2769167126	 2.1876437684	 0.149822
H	 0.4369300288	-0.8152088427	 2.0763575072	 0.118075
123.6397	131.6614	215.2457	229.6785	258.6421	366.7688	426.1187	523.1157	596.4746	633.4975	729.1257	734.2948	785.5449	843.3019	876.4315	926.6923	939.9855	984.8686	1017.4717	1063.2186	1070.957	1109.6862	1136.4148	1153.0652	1252.1276	1307.7306	1311.1047	1343.9183	1355.6529	1387.7619	1413.4673	1490.1184	1503.5354	1684.0472	2351.1638	3015.0992	3051.9353	3123.5085	3144.4519	3150.9556	3169.1282	3203.8515
CC1N=CN2C(C#N)C12	C[C@H]1N=CN2[C@@H](C#N)[C@@H]12	
InChI=1S/C6H7N3/c1-4-6-5(2-7)9(6)3-8-4/h3-6H,1H3	InChI=1S/C6H7N3/c1-4-6-5(2-7)9(6)3-8-4/h3-6H,1H3/t4-,5+,6-,9?/m1/s1
