14
gdb 15306	4.65898	1.08595	0.95026	4.3502	63.81	-0.2586	-0.0372	0.2215	1151.6788	0.106256	-378.709965	-378.702016	-378.701072	-378.74358	27.196	
O	-0.4977805513	 0.2490320928	 0.0506415982	-0.231224
C	 0.0150529475	 1.335430216	 0.1120811324	 0.157956
C	 1.4334263919	 1.6426766485	-0.3341721475	-0.293764
C	 1.4564690625	 2.7862117176	-1.3266514256	-0.023844
N	 1.2371932769	 4.1295535292	-0.7873472104	-0.307747
C	 2.556599485	 3.8049966035	-1.3623163921	-0.197137
C	 3.6675834735	 3.7478925567	-0.4428864026	 0.332997
N	 4.5700249193	 3.6815179463	 0.2765197265	-0.327511
H	-0.5336523891	 2.2160397354	 0.5129836298	 0.094931
H	 2.0101565248	 1.9304885412	 0.553773706	 0.152071
H	 1.8768988926	 0.7399319828	-0.7627369396	 0.133562
H	 1.023546925	 2.559355921	-2.2995891407	 0.117292
H	 0.7161091337	 4.7147260001	-1.4346901007	 0.252628
H	 2.8137762776	 4.2155747089	-2.3347689537	 0.139791
56.4382	67.9157	115.4254	195.5218	253.4884	343.6969	434.6699	493.7551	575.9259	614.7638	775.942	823.3133	846.0805	895.5263	955.5455	998.5136	1028.2975	1075.6382	1121.2263	1183.085	1211.4799	1241.4593	1270.0971	1297.5872	1399.4083	1420.6111	1450.456	1452.611	1836.78	2361.4579	2894.8177	3041.383	3110.2044	3127.948	3153.6496	3516.3764
O=CCC1NC1C#N	O=CC[C@H]1N[C@H]1C#N	
InChI=1S/C5H6N2O/c6-3-5-4(7-5)1-2-8/h2,4-5,7H,1H2	InChI=1S/C5H6N2O/c6-3-5-4(7-5)1-2-8/h2,4-5,7H,1H2/t4-,5+/m1/s1
