18
gdb 8535	4.22917	1.8157	1.53013	1.8795	71.54	-0.2251	0.0847	0.3098	891.8071	0.152643	-347.721753	-347.714428	-347.713484	-347.752817	28.822	
C	-0.1146044116	 1.6320177279	-0.0050467692	-0.417098
C	-0.0460483258	 0.1114717904	-0.0016772903	-0.017708
C	 1.1426226179	-0.5874259587	-0.7045437468	-0.142276
C	 2.0882148721	-0.3813249597	 0.5189065643	 0.082344
O	 2.4902106867	-1.7776227949	 0.6053929166	-0.364223
C	 1.0672917313	-1.825096987	 0.2549847569	 0.472989
C	 0.4078630579	-3.1548720476	 0.0809858323	-0.526855
C	 0.6838746575	-0.6039736045	 1.1605482253	-0.142274
H	 0.8545555465	 2.0808457651	 0.2372722294	 0.114286
H	-0.4201306032	 2.0108635995	-0.9865844354	 0.116813
H	-0.8420414796	 1.9956410771	 0.7290515729	 0.116813
H	-1.0237280554	-0.320987332	-0.2459896077	 0.06631
H	 1.4300001108	-0.5979304722	-1.757100899	 0.07479
H	 2.8387168884	 0.3838301805	 0.7102932933	 0.092437
H	 0.4699439155	-3.7375711728	 1.005225466	 0.135065
H	-0.6479338707	-3.0267311078	-0.1778145405	 0.128728
H	 0.8942627643	-3.7224289956	-0.7183303049	 0.135071
H	 0.4502972073	-0.6332722775	 2.2259852267	 0.07479
171.3373	192.4122	215.1061	233.24	301.564	327.3762	522.3076	551.4246	647.2376	732.8843	740.3431	785.0295	827.0387	829.6375	876.6959	890.6621	954.782	981.3125	1042.0867	1065.8208	1077.0382	1081.9345	1121.5766	1134.7565	1147.3361	1170.1371	1173.4649	1248.7345	1257.9979	1283.0035	1370.8426	1396.6609	1415.5594	1417.0143	1472.7937	1491.5864	1493.8321	1501.2028	3028.1554	3031.1274	3038.1187	3091.6881	3098.6382	3104.9628	3107.2407	3111.238	3112.8603	3134.5964
CC1C2C3OC2(C)C13	C[C@H]1[C@H]2[C@@H]3O[C@@]2(C)[C@H]13	
InChI=1S/C7H10O/c1-3-4-6-5(3)7(4,2)8-6/h3-6H,1-2H3	InChI=1S/C7H10O/c1-3-4-6-5(3)7(4,2)8-6/h3-6H,1-2H3/t3-,4-,5+,6-,7+
