17
gdb 63259	2.66283	1.31989	1.09536	4.4433	68.81	-0.2361	-0.0899	0.1462	1133.7137	0.133294	-459.002773	-458.99401	-458.993065	-459.036154	33.164	
C	 0.4182570854	 1.3904831812	-0.0635210019	-0.432132
C	-0.1460084917	-0.0326749181	 0.0087464251	 0.350953
O	-1.5620597978	-0.0082222274	 0.1230813888	-0.468413
C	 0.3341788556	-0.8872157215	-1.1951864568	-0.387649
C	 1.6677049341	-1.4802294619	-0.7698902813	 0.318552
O	 2.5564949106	-1.9007275599	-1.4573811137	-0.27861
C	 1.699330765	-1.4299801061	 0.7927654887	 0.316012
O	 2.6087145368	-1.8267374668	 1.4675318154	-0.28008
C	 0.3965030087	-0.7894045865	 1.2396422433	-0.359736
H	 1.5134480168	 1.3903961085	-0.1024641844	 0.130801
H	 0.0602578433	 1.9032194871	-0.9639899731	 0.11582
H	 0.1047676892	 1.9657409215	 0.8118570671	 0.135014
H	-1.9126536858	 0.5405944172	-0.5872275057	 0.279697
H	-0.3746609383	-1.7149171766	-1.3310921407	 0.145332
H	 0.4077503266	-0.3463928047	-2.1420632521	 0.126844
H	 0.5223385061	-0.1693997984	 2.1295127974	 0.136866
H	-0.3111959044	-1.5909463976	 1.4895916839	 0.15073
74.2118	94.052	246.3326	287.3308	310.8286	315.8673	338.3558	354.7758	372.9374	434.5579	505.6397	551.0126	603.7893	648.0892	705.9562	777.7052	869.3369	916.9059	951.2665	971.5841	1015.1694	1047.9053	1116.2397	1139.6776	1162.4584	1193.5763	1229.1281	1276.3276	1293.1978	1385.2376	1409.9089	1436.4358	1450.8156	1488.2248	1496.2995	1842.4917	1866.4377	3025.9616	3032.6272	3039.2972	3090.3148	3105.1718	3115.1767	3118.497	3802.2079
CC1(O)CC(=O)C(=O)C1	CC1(O)CC(=O)C(=O)C1	
InChI=1S/C6H8O3/c1-6(9)2-4(7)5(8)3-6/h9H,2-3H2,1H3	InChI=1S/C6H8O3/c1-6(9)2-4(7)5(8)3-6/h9H,2-3H2,1H3
