24
gdb 60536	2.47354	1.26166	1.0377	2.5002	85.75	-0.2425	0.079	0.3215	1300.8717	0.215005	-405.526635	-405.51619	-405.515246	-405.561242	40.442	
C	-0.0533010982	 1.6013694398	-0.127752607	-0.400847
C	-0.0011265543	 0.0720688721	-0.0707329687	 0.021272
N	 0.6772394973	-0.3320692387	 1.1724722044	-0.079514
C	 1.6040805968	-1.4591797526	 1.1283017721	-0.222072
C	 2.106836071	-0.0693606642	 1.2864843351	-0.230215
C	-1.4238815664	-0.5701988091	-0.0463146321	 0.377672
C	-2.2993338197	-0.0628967443	-1.1947601414	-0.416405
C	-1.3430165466	-2.1064501597	-0.1086720213	-0.419098
O	-2.0716893627	-0.1769297408	 1.1616322323	-0.474571
H	 0.9429666147	 2.0284268115	 0.0163255828	 0.107976
H	-0.4240252494	 1.9465342198	-1.0953506778	 0.118342
H	-0.712883894	 1.983895784	 0.6552007525	 0.134613
H	 0.5446423025	-0.306207594	-0.9534897217	 0.052529
H	 1.5707713477	-2.1380178373	 1.9759358221	 0.119158
H	 1.7725123626	-1.9406187365	 0.1668823999	 0.116569
H	 2.6145712908	 0.3708761265	 0.4301381536	 0.114264
H	 2.4494705108	 0.2924928517	 2.2517593325	 0.119411
H	-1.8303294558	-0.2585147406	-2.1646962756	 0.105414
H	-3.264961072	-0.5760712869	-1.1730101695	 0.119475
H	-2.4894711118	 1.0078658188	-1.1034027818	 0.123294
H	-0.8023529907	-2.5110813013	 0.7498653137	 0.117815
H	-2.3545680662	-2.5215806781	-0.0908222365	 0.11699
H	-0.8461379225	-2.4493311413	-1.0234502715	 0.099553
H	-1.3934881639	-0.2622109887	 1.8478031839	 0.278375
77.891	110.0555	178.6328	206.6939	230.4541	240.9542	279.6767	305.9778	332.3215	351.3494	374.8157	395.7526	464.6303	509.4257	538.0237	583.9908	744.9264	769.1626	832.5987	886.7717	908.1684	927.7361	964.0494	968.8901	1006.0765	1020.1689	1037.0438	1074.4163	1116.8058	1121.5409	1126.5401	1163.9513	1175.8745	1193.9927	1213.19	1241.4302	1314.5514	1333.5129	1352.0498	1389.3725	1402.3905	1409.152	1422.2722	1475.232	1486.4248	1491.0275	1496.8172	1500.5068	1502.1336	1517.7322	1520.0792	2937.4631	3034.3876	3044.1405	3052.669	3096.6309	3100.7173	3104.3258	3112.3974	3119.2839	3127.1058	3132.9784	3137.8388	3177.0524	3191.5945	3720.4798
CC(N1CC1)C(C)(C)O	C[C@@H](N1CC1)C(C)(C)O	
InChI=1S/C7H15NO/c1-6(7(2,3)9)8-4-5-8/h6,9H,4-5H2,1-3H3	InChI=1S/C7H15NO/c1-6(7(2,3)9)8-4-5-8/h6,9H,4-5H2,1-3H3/t6-/m1/s1
