19
gdb 74963	2.4113	1.91677	1.47513	1.4668	75.59	-0.2345	0.0118	0.2464	985.2841	0.159118	-423.034499	-423.026475	-423.025531	-423.066501	31.765	
C	-0.012454432	 1.5057555633	-0.0010990186	-0.510993
C	-0.0887219491	 0.018680254	-0.0474609573	 0.342552
C	-0.0760629889	-0.8276461248	-1.0811429886	-0.222732
C	 0.0156034645	-2.2119943566	-0.4628527494	-0.033628
C	 1.4476136841	-2.3148925116	 0.1553768712	-0.081772
O	 1.3669895537	-1.3711438735	 1.2248084425	-0.307259
C	-0.0167225326	-0.9014473166	 1.1861772969	 0.377101
C	-0.4343295943	-0.4083111559	 2.5420537597	-0.499782
O	-0.7242629558	-2.0467174	 0.7596808278	-0.258601
H	 0.9049227645	 1.8309042571	 0.5059539101	 0.13946
H	-0.0138993934	 1.9367845659	-1.0057958461	 0.127613
H	-0.8515152731	 1.938554058	 0.5570275762	 0.130274
H	 0.0123481745	-0.6018600202	-2.1354734443	 0.100968
H	-0.3345145302	-3.071465844	-1.0308747274	 0.087835
H	 1.634578152	-3.3167274797	 0.5574080316	 0.106119
H	 2.2415510784	-2.0412061944	-0.547250873	 0.099908
H	 0.2056259488	 0.4208877814	 2.8533726771	 0.132328
H	-1.471773135	-0.0655741733	 2.5179121415	 0.130833
H	-0.3397854761	-1.2163434192	 3.2703724903	 0.139776
151.4634	180.0522	193.6911	229.7791	278.5783	314.8114	393.5446	444.647	556.1515	592.7294	638.4898	666.962	771.4457	772.8214	805.5648	858.5945	871.2931	896.3575	926.0229	977.9294	1000.3441	1019.1153	1050.228	1063.0321	1117.557	1138.1137	1190.5568	1211.5694	1249.0928	1284.9197	1321.1143	1333.1392	1350.9558	1412.1985	1423.8515	1475.1811	1478.581	1487.2492	1490.6299	1512.5666	1697.8911	3020.4337	3032.5092	3057.8181	3068.749	3081.847	3111.4836	3134.1583	3141.6432	3146.2162	3221.2412
CC1=CC2COC1(C)O2	CC1=C[C@H]2CO[C@]1(C)O2	
InChI=1S/C7H10O2/c1-5-3-6-4-8-7(5,2)9-6/h3,6H,4H2,1-2H3	InChI=1S/C7H10O2/c1-5-3-6-4-8-7(5,2)9-6/h3,6H,4H2,1-2H3/t6-,7+/m0/s1
