19
gdb 65766	3.41632	1.05063	0.9961	3.7617	77.98	-0.2366	-0.0187	0.2178	1260.7703	0.156911	-423.041811	-423.032613	-423.031669	-423.076513	33.42	
C	-0.0147626674	 1.4320015784	-0.0338034115	-0.410759
C	-0.0514416255	-0.1015634948	 0.0104356609	 0.309136
C	-1.5056734479	-0.6290533595	-0.1089182159	-0.291508
C	-2.1630086013	-0.2532871669	-1.4203825281	 0.151994
O	-3.2351823799	 0.2898372729	-1.5139918491	-0.248436
O	 0.7149899908	-0.6193502442	-1.0943639037	-0.306235
C	 1.7711029951	-1.4590007696	-0.6340193692	-0.131813
C	 1.6687799295	-1.4265208129	 0.8641537182	-0.101259
C	 0.6444472647	-0.6656570074	 1.2269928449	-0.114896
H	 1.0163195227	 1.7847255335	 0.0469405946	 0.122745
H	-0.4347632003	 1.8018557129	-0.9739119541	 0.134272
H	-0.5972768196	 1.8591096828	 0.7888665372	 0.119065
H	-1.4699392166	-1.7250361205	-0.0575169142	 0.11943
H	-2.1269364315	-0.262470779	 0.7135559453	 0.113223
H	-1.5737867276	-0.529133091	-2.3204230541	 0.096235
H	 1.6513798462	-2.475448446	-1.0412539882	 0.107929
H	 2.7365894508	-1.077697073	-1.0002654234	 0.111246
H	 2.3502156809	-1.9574297826	 1.5167624671	 0.111513
H	 0.3156068169	-0.4483823732	 2.2354004333	 0.108119
57.7307	78.2752	89.1556	186.2682	229.9248	260.8709	318.4789	367.0654	417.2568	457.1283	533.3863	655.228	738.2741	776.1644	818.1905	833.8363	905.0596	915.9222	955.0379	959.8337	983.791	1045.4592	1051.0227	1071.4929	1113.6519	1144.2102	1179.1605	1197.0641	1203.7559	1256.8436	1303.6433	1358.7827	1379.9748	1407.612	1421.6643	1451.6659	1484.327	1493.6503	1521.6451	1693.0253	1825.8422	2914.6536	2977.4779	2996.8782	3028.9403	3040.7826	3099.9496	3113.1236	3125.8601	3206.2898	3230.6753
CC1(CC=O)OCC=C1	C[C@@]1(CC=O)OCC=C1	
InChI=1S/C7H10O2/c1-7(4-5-8)3-2-6-9-7/h2-3,5H,4,6H2,1H3	InChI=1S/C7H10O2/c1-7(4-5-8)3-2-6-9-7/h2-3,5H,4,6H2,1H3/t7-/m1/s1
