19
gdb 74965	2.45027	1.61452	1.42596	2.9153	80.72	-0.2336	0.0023	0.236	1035.5459	0.161043	-385.927359	-385.919631	-385.918687	-385.959365	30.519	
C	-0.0739735913	 1.4972884206	 0.0444979878	-0.510592
C	-0.0239577377	 0.0064453615	-0.0075485097	 0.332293
C	-0.043130582	-0.8015539486	-1.0848630129	-0.188654
C	 0.0462520862	-2.2406500536	-0.6292689395	-0.161369
C	 1.4650861703	-2.4805579274	-0.020529369	-0.214632
C	 1.4888298954	-1.5464610401	 1.2348714673	-0.220343
C	 0.078641702	-0.874442614	 1.2253982878	-0.214166
C	-0.754491427	-2.0638150452	 0.6857065972	 0.430588
O	-1.7016131135	-2.6393447981	 1.1292700135	-0.326657
H	 0.8270596246	 1.913163031	 0.5131370083	 0.128965
H	-0.164612002	 1.9268135478	-0.957408198	 0.127004
H	-0.9253687912	 1.8440498852	 0.6433401986	 0.133941
H	-0.0992731392	-0.4905042591	-2.1211969869	 0.096627
H	-0.3066028635	-3.0061010572	-1.3176597856	 0.0796
H	 1.5874082736	-3.5301175364	 0.2636042778	 0.108479
H	 2.2493378234	-2.232925052	-0.7386376347	 0.106705
H	 1.6295109755	-2.121159386	 2.1549617791	 0.109332
H	 2.2836975292	-0.7989973612	 1.1832855982	 0.106185
H	-0.2415713926	-0.4388742773	 2.170847181	 0.076695
119.6498	177.717	196.3909	209.4758	294.4495	393.209	457.9515	521.7681	570.1515	643.2431	715.3034	763.4466	780.671	817.0535	852.9258	869.5103	889.0334	910.1438	971.7237	989.805	997.8412	1054.5616	1067.7268	1101.0786	1125.554	1154.3724	1171.316	1205.7143	1245.3218	1250.0686	1275.3667	1300.9083	1331.5762	1344.3004	1413.6564	1477.4356	1485.9088	1488.5285	1504.1363	1670.8843	1892.2545	3017.4738	3052.0978	3063.2176	3065.4568	3096.8719	3107.3405	3115.5088	3130.1364	3139.4425	3200.183
CC1=CC2CCC1C2=O	CC1=C[C@H]2CC[C@@H]1C2=O	
InChI=1S/C8H10O/c1-5-4-6-2-3-7(5)8(6)9/h4,6-7H,2-3H2,1H3	InChI=1S/C8H10O/c1-5-4-6-2-3-7(5)8(6)9/h4,6-7H,2-3H2,1H3/t6-,7+/m1/s1
