18
gdb 85564	2.79506	1.37987	0.97209	0.5946	73.66	-0.2517	-0.0327	0.219	1191.8266	0.147594	-439.125152	-439.116581	-439.115636	-439.158778	31.837	
C	-0.0183638501	 1.5572149866	-0.0491844012	-0.404188
C	 0.1087272407	 0.0352886219	-0.0049545925	-0.098129
C	 0.9278444422	-0.5621291505	-1.1677579818	-0.310099
C	 0.9003275457	-2.067834936	-1.1282080171	 0.394102
N	 0.7452644141	-2.7702626062	-2.1676220745	-0.513149
O	 0.9856506003	-2.6364500188	 0.1156531984	-0.243092
C	 1.3947358098	-1.8292927248	 1.2168902024	-0.186178
C	 0.7290666623	-0.4537397754	 1.2950969535	 0.365795
O	 0.7633088231	 0.1802687654	 2.3211313081	-0.3032
H	 0.9689035198	 2.030229559	-0.0673421307	 0.124394
H	-0.5652758745	 1.8724001923	-0.9420357973	 0.119889
H	-0.543212054	 1.9228848541	 0.8355146921	 0.142407
H	-0.8965680588	-0.4125535105	-0.0453118495	 0.122312
H	 0.5444040608	-0.2452617672	-2.1380020617	 0.145443
H	 1.9657912638	-0.2071299957	-1.1008574229	 0.126014
H	 0.7509610404	-3.7638226739	-1.9264606286	 0.221976
H	 1.160544302	-2.3938846324	 2.1214280748	 0.154701
H	 2.4837316024	-1.6733734577	 1.1977151784	 0.141
53.4971	124.0232	172.6977	195.4449	266.8692	304.9919	371.47	425.6053	429.0525	536.4127	565.8406	624.4004	679.6744	745.1012	824.2636	899.8827	915.5909	921.5839	967.2391	1033.1387	1071.8206	1096.6498	1136.7799	1147.5788	1177.8311	1199.781	1255.2867	1286.0419	1311.9238	1331.3887	1361.9182	1389.4649	1410.9737	1467.9816	1479.8693	1492.4644	1497.3373	1761.1022	1824.6476	2993.2374	3004.1945	3022.8691	3045.9326	3112.9766	3118.8833	3130.7333	3137.3389	3462.6746
CC1CC(=N)OCC1=O	C[C@H]1C[C]([NH])OCC1=O	
InChI=1S/C6H9NO2/c1-4-2-6(7)9-3-5(4)8/h4,7H,2-3H2,1H3	InChI=1S/C6H9NO2/c1-4-2-6(7)9-3-5(4)8/h4,7H,2-3H2,1H3/t4-/m0/s1
