18
gdb 114161	5.00455	0.89174	0.82441	1.8486	80.82	-0.2246	0.0263	0.2509	1386.4034	0.146678	-401.862025	-401.853141	-401.852196	-401.895622	33.636	
O	 0.1391923099	 1.3783610384	-0.0415507485	-0.421026
C	 0.0647302159	-0.0251939033	 0.1737674153	-0.091236
C	-1.360079988	-0.5478758848	 0.0494126862	 0.014532
C	-2.0388357123	-0.5455963499	-1.3712499674	-0.324502
C	-2.2596366359	-2.0619627186	-1.2305142928	 0.243078
N	-0.8937086892	-2.6460831164	-1.0674842174	-0.366742
C	-1.5736379668	-2.0674368277	 0.1071223353	-0.14456
C	-3.3511213647	-2.8338102268	-1.7082371003	 0.142998
C	-4.2839297953	-3.469176784	-2.1276608532	-0.396411
H	-0.0529999811	 1.5408198531	-0.9705111254	 0.283977
H	 0.7217341284	-0.5780907181	-0.5104320498	 0.111092
H	 0.4333994623	-0.1891101167	 1.1927941059	 0.10557
H	-2.0021408526	-0.0348527174	 0.7703354655	 0.087942
H	-2.9685772323	 0.023681828	-1.3969876396	 0.120709
H	-1.4085650362	-0.2667441776	-2.2207536114	 0.102329
H	-1.0116366822	-3.6580739884	-1.0181739879	 0.238511
H	-1.7915141133	-2.6745429849	 0.9776604456	 0.104947
H	-5.1062409166	-4.0322456151	-2.4939517301	 0.188794
83.7715	105.1495	138.1375	206.6119	237.2218	297.7921	374.8168	438.9617	452.1188	516.5329	555.2224	580.7606	620.8438	664.696	692.9	816.165	847.8917	906.4091	917.4978	964.3626	1006.3496	1030.4591	1048.621	1067.4913	1113.4241	1132.9901	1147.8109	1216.5408	1229.5085	1236.3199	1286.0863	1317.6248	1360.3838	1390.1927	1398.6476	1422.2293	1474.6721	1508.2659	2231.5246	3019.4646	3060.3227	3064.7936	3081.9333	3134.164	3189.434	3477.157	3502.6802	3817.3099
OCC1CC2(NC12)C#C	OC[C@H]1C[C@]2(N[C@@H]12)C#C	
InChI=1S/C7H9NO/c1-2-7-3-5(4-9)6(7)8-7/h1,5-6,8-9H,3-4H2	InChI=1S/C7H9NO/c1-2-7-3-5(4-9)6(7)8-7/h1,5-6,8-9H,3-4H2/t5-,6+,7-/m1/s1
