15
gdb 54368	4.07579	1.40749	1.21956	2.9751	68.86	-0.2258	0.0112	0.2371	993.818	0.112578	-416.712772	-416.705383	-416.704438	-416.744954	28.156	
N	 0.0973053591	 1.2017724556	 0.4838781829	-0.544383
C	-0.0173246429	-0.014612848	-0.1312734417	 0.250369
O	 0.8956203821	-0.5377142108	-0.7475747231	-0.374754
C	-1.3244880237	-0.6798486677	 0.0149560258	 0.28546
C	-1.5308610394	-2.2047460252	 0.1951753524	-0.144824
C	-2.8996664919	-1.9045423375	 0.8527632754	-0.048113
C	-2.713155148	-0.4427511937	 0.6657255981	-0.172317
N	-3.4037280282	-1.2457328154	-0.4047268375	-0.174766
C	-2.0362557766	-1.52228586	-1.0299454432	-0.045909
H	 0.9355702277	 1.7319838644	 0.3075493972	 0.26283
H	-0.7073867626	 1.6892348857	 0.8380770642	 0.259873
H	-0.7569678254	-2.9438304875	 0.3384269289	 0.121857
H	-3.5467986084	-2.4698844594	 1.5117919694	 0.10672
H	-3.1843931274	 0.4103429139	 1.1411176407	 0.095838
H	-1.8310476145	-1.6399599645	-2.0854045996	 0.122117
68.5573	151.9081	167.8044	233.9836	366.0805	467.816	538.2852	642.0674	649.3937	734.86	760.9551	771.018	785.4945	865.3144	872.976	883.039	919.2686	927.1032	982.2333	997.5875	1007.3219	1024.5746	1073.5493	1119.4524	1123.3074	1168.6833	1226.7971	1271.8791	1316.9855	1325.7115	1442.8763	1616.1697	1772.454	3168.9605	3192.5872	3210.4783	3239.5102	3597.3606	3731.6701
NC(=O)C12C3C4C1N4C23	NC(=O)[C@@]12[C@H]3[C@H]4[C@@H]1N4[C@@H]23	
InChI=1S/C6H6N2O/c7-5(9)6-1-2-4(6)8(2)3(1)6/h1-4H,(H2,7,9)	InChI=1S/C6H6N2O/c7-5(9)6-1-2-4(6)8(2)3(1)6/h1-4H,(H2,7,9)/t1-,2-,3+,4-,6+,8?/m0/s1
