18
gdb 58548	2.13507	1.45977	1.4178	2.4711	66.97	-0.2456	0.0014	0.247	1063.9467	0.146694	-476.237593	-476.228228	-476.227284	-476.271552	34.574	
C	 0.002680987	 1.6012352579	 0.041294964	-0.443752
C	 0.0079338914	 0.0747058676	-0.0398397133	 0.09417
O	 0.8004790458	-0.5014670991	 0.9917705268	-0.434979
C	-1.4085101902	-0.5331416854	-0.0157841224	 0.100564
N	-2.2218117179	-0.0157171649	-1.1022508446	-0.567812
C	-1.4581727967	-2.0688691807	 0.1422209887	-0.114615
O	-2.0557205814	-1.92952042	 1.4757582949	-0.239602
C	-2.0230876363	-0.5651780496	 1.4087414948	 0.399824
O	-2.3744915868	 0.217506448	 2.2373019017	-0.345129
H	 1.0322854445	 1.9633684368	 0.1021674192	 0.132901
H	-0.4573027507	 2.0494204892	-0.8440146995	 0.128486
H	-0.543465794	 1.9426487371	 0.9279935698	 0.141772
H	 0.4774867807	-0.2403636111	-0.978603911	 0.104603
H	 0.5724355896	-0.070652058	 1.8240363492	 0.294886
H	-3.133962495	-0.4634791572	-1.1086724874	 0.239659
H	-2.3934293676	 0.9763362745	-0.9692049441	 0.24554
H	-2.1372320075	-2.5900527583	-0.535800786	 0.118865
H	-0.4932754749	-2.5696828767	 0.2099413391	 0.14462
74.1734	126.1886	135.6457	232.798	235.533	262.4562	297.028	351.2746	358.4741	392.5102	454.3975	475.6566	567.4454	695.4741	761.0424	778.017	848.7899	899.9711	929.8609	966.2584	976.7507	1028.623	1073.1	1103.457	1132.2766	1155.3011	1168.2783	1249.9214	1299.4485	1312.2785	1366.5764	1371.7933	1400.0675	1414.442	1497.472	1500.987	1502.1441	1662.8432	1910.6889	3036.5492	3051.905	3080.7727	3111.8522	3121.8725	3158.211	3495.1232	3572.02	3793.674
CC(O)C1(N)COC1=O	C[C@@H](O)[C@@]1(N)COC1=O	
InChI=1S/C5H9NO3/c1-3(7)5(6)2-9-4(5)8/h3,7H,2,6H2,1H3	InChI=1S/C5H9NO3/c1-3(7)5(6)2-9-4(5)8/h3,7H,2,6H2,1H3/t3-,5+/m1/s1
