21
gdb 84370	2.59269	1.40927	1.1847	2.6243	79.51	-0.2413	0.0204	0.2617	1157.4947	0.180737	-424.240951	-424.231222	-424.230278	-424.274793	37.451	
C	-0.0510756738	 1.5897888116	-0.0294759901	-0.41885
C	 0.0581737621	 0.0619891401	-0.0233038661	-0.030642
C	 0.8262887255	-0.5234615819	-1.1921525511	-0.072274
C	 1.6046182651	-1.5370511663	-0.8252586617	-0.131553
C	 1.4874925325	-1.8440932988	 0.659183118	 0.369903
C	 0.6082943463	-3.0741122172	 0.907360084	-0.417096
O	 2.7304576228	-2.1036562988	 1.2832279891	-0.483931
C	 0.8207430383	-0.5316496855	 1.1957510302	 0.012952
O	 1.8932408176	 0.3190068027	 1.6054127949	-0.440429
H	 0.9396771348	 2.0507777393	-0.020898078	 0.130053
H	-0.5790144115	 1.9327672575	-0.9249520224	 0.1164
H	-0.611146944	 1.9559640693	 0.8391907961	 0.102517
H	-0.9627927415	-0.3497961594	-0.0191062497	 0.081103
H	 0.7080473846	-0.1481131174	-2.2037387341	 0.090201
H	 2.2331201977	-2.138548959	-1.4722439779	 0.094963
H	 1.0566583954	-3.9534843719	 0.4359325004	 0.123617
H	 0.5310667651	-3.2670406738	 1.9815743245	 0.117791
H	-0.3952689091	-2.9379092078	 0.4932682865	 0.112568
H	 3.099248705	-1.2373903139	 1.5020940134	 0.286768
H	 0.1595403972	-0.7336952323	 2.0473908161	 0.061959
H	 1.55327761	 0.9732141238	 2.2204030577	 0.29398
85.3206	128.2305	192.6986	218.0708	233.8673	247.3832	287.8862	331.9625	356.9694	385.4866	431.8089	481.2227	497.0598	591.4472	647.4842	725.6157	784.8618	827.8858	845.0569	901.8504	944.768	961.5698	975.4899	1002.7071	1057.1628	1082.0167	1104.8488	1122.1025	1155.4235	1169.4854	1207.1595	1246.0353	1266.8083	1312.4388	1336.9028	1374.1222	1393.621	1403.9247	1413.5278	1421.8756	1479.6425	1495.262	1496.6936	1508.1117	1683.1976	2981.4913	3026.3263	3030.6195	3038.5814	3092.3793	3114.6037	3115.5888	3123.0676	3174.846	3206.8164	3754.8695	3857.9336
CC1C=CC(C)(O)C1O	C[C@H]1C=C[C@@](C)(O)[C@H]1O	
InChI=1S/C7H12O2/c1-5-3-4-7(2,9)6(5)8/h3-6,8-9H,1-2H3	InChI=1S/C7H12O2/c1-5-3-4-7(2,9)6(5)8/h3-6,8-9H,1-2H3/t5-,6-,7+/m0/s1
