23
gdb 113535	2.83185	1.03023	0.8917	1.458	86.74	-0.2545	0.0765	0.331	1421.3205	0.204657	-388.263667	-388.253699	-388.252754	-388.298846	37.29	
C	-0.6280007159	 1.2002951238	 0.1075084386	-0.413269
C	 0.1334675263	-0.0975337472	-0.1214754833	-0.026037
C	 1.5450363007	 0.0021750223	-0.7773552124	-0.228304
C	 2.0944277896	-1.0125150054	 0.2647842811	-0.300705
C	 0.8046069348	-0.8171481487	 1.0724520769	 0.344183
C	 0.7408382936	-0.4026387734	 2.5158790008	-0.342154
C	 0.221725261	-1.7572620929	 2.0888724836	-0.058552
C	-1.2543967447	-2.0433062309	 2.127335057	-0.102875
O	-1.6112897554	-2.3913749728	 3.46025649	-0.418379
H	-0.0212582224	 1.9172145471	 0.6712456639	 0.116111
H	-0.8945081514	 1.6653909586	-0.8483829011	 0.11241
H	-1.5577451681	 1.039202671	 0.6647005647	 0.114031
H	-0.4959620869	-0.7992156578	-0.6830984665	 0.066585
H	 1.6222255002	-0.2755986851	-1.8310978619	 0.094128
H	 1.9758676961	 0.9994634671	-0.6486753989	 0.099185
H	 2.189601291	-2.0251799429	-0.1408444544	 0.098055
H	 3.032713475	-0.7504542787	 0.7617309454	 0.097531
H	 1.665348256	-0.3581435024	 3.0831650264	 0.106297
H	 0.0041858931	 0.3398505263	 2.8082056663	 0.111123
H	 0.8386446983	-2.6135039426	 2.3527115174	 0.082877
H	-1.8139567559	-1.1571720146	 1.786760441	 0.082134
H	-1.4941136259	-2.8641430888	 1.4314789358	 0.082884
H	-2.5374266794	-2.651458182	 3.4613986596	 0.282742
59.3616	78.4067	116.6846	177.5847	222.8666	225.5454	268.5499	300.5448	357.9946	384.7102	440.5897	488.2031	614.6185	687.3306	778.0893	830.4816	870.7518	887.6288	892.1874	923.0088	940.7883	960.0697	1017.3906	1030.6542	1054.6585	1068.9567	1092.0655	1110.6998	1148.7285	1161.1223	1175.8559	1194.8803	1222.066	1253.6412	1259.4951	1268.9958	1283.746	1285.6438	1324.6262	1365.4823	1405.4011	1412.8003	1466.5321	1479.1492	1489.9171	1493.9836	1495.0105	1501.8014	1517.4988	2959.7051	2986.5798	3019.2827	3023.7878	3042.2721	3055.7181	3087.9055	3088.4278	3095.3237	3112.2623	3119.1274	3131.6657	3202.6517	3822.6667
CC1CCC11CC1CO	C[C@H]1CC[C@]21C[C@H]2CO	
InChI=1S/C8H14O/c1-6-2-3-8(6)4-7(8)5-9/h6-7,9H,2-5H2,1H3	InChI=1S/C8H14O/c1-6-2-3-8(6)4-7(8)5-9/h6-7,9H,2-5H2,1H3/t6-,7-,8+/m0/s1
