15
gdb 130976	3.94395	0.98637	0.82594	4.3652	67.58	-0.2251	-0.0421	0.183	1307.535	0.112251	-453.92414	-453.916033	-453.915089	-453.958214	28.751	
O	 0.8187710657	 1.1917167615	 1.3131813301	-0.23198
C	 0.5293649798	 1.7297879769	 0.2782288808	 0.173044
C	 1.207644434	 1.4316771943	-1.0562663323	-0.268003
N	 1.292313107	 2.6260814243	-1.8744855414	-0.404143
C	 2.2763207292	 3.554061702	-1.5323915525	 0.167445
C	 3.0441283026	 3.6434026677	-0.4069792075	 0.000868
O	 3.8269351536	 4.7433328421	-0.4709496267	-0.169218
N	 3.5955968537	 5.3983581434	-1.6624745963	-0.121347
C	 2.6773379937	 4.6999497406	-2.2818171163	-0.04605
H	-0.2803730778	 2.489615278	 0.2048707054	 0.096117
H	 2.1774929442	 0.9497444402	-0.8583861289	 0.126674
H	 0.5698539612	 0.7039840756	-1.5733504495	 0.137404
H	 1.2474148019	 2.443502805	-2.8661331359	 0.248256
H	 3.1335368436	 3.0475771363	 0.4861000297	 0.161493
H	 2.3225583677	 5.0265576519	-3.2494870588	 0.129439
52.0091	65.5076	113.5201	201.9599	284.4521	369.4149	413.0061	524.7376	594.0674	611.9949	671.2498	699.5812	780.6709	791.4038	885.7833	929.7928	939.0318	1015.7225	1042.2231	1108.3987	1113.6126	1137.4414	1219.8318	1249.7443	1309.4283	1328.6626	1377.7165	1404.1337	1458.3229	1481.5776	1515.4436	1672.6156	1840.3821	2895.0944	2990.7208	3063.7098	3240.1216	3282.9932	3596.5047
O=CCNC1=CON=C1	O=CCNc1conc1	
InChI=1S/C5H6N2O2/c8-2-1-6-5-3-7-9-4-5/h2-4,6H,1H2	InChI=1S/C5H6N2O2/c8-2-1-6-5-3-7-9-4-5/h2-4,6H,1H2
