15
gdb 11292	4.03696	1.54903	1.35709	3.9758	61.02	-0.2896	0.0142	0.3038	930.8152	0.118936	-399.80895	-399.801299	-399.800355	-399.841622	26.932	
C	-0.0785971087	 1.4398053074	-0.0205736849	-0.416707
C	 0.1468510506	-0.0536868918	 0.0968325585	 0.100634
C	 0.7334790457	-0.7446711567	-1.151185443	-0.09921
O	 1.6975892001	-1.6723357479	-0.6357972743	-0.249134
C	 1.6780968678	-1.5608041083	 0.766158728	 0.058808
O	 1.1592081271	-0.3083696401	 1.0867141534	-0.23781
C	 0.8471272612	-2.6572291083	 1.3575874449	 0.273218
N	 0.211419497	-3.5026492215	 1.8216976685	-0.323468
H	 0.8502030185	 1.9468450904	-0.2974098536	 0.133955
H	-0.833884557	 1.6475042845	-0.7846382837	 0.129971
H	-0.4318688884	 1.8500537512	 0.9286800342	 0.141659
H	-0.7793464106	-0.5600912317	 0.4030550102	 0.103294
H	-0.0266964215	-1.278187082	-1.7296231246	 0.125001
H	 1.253219963	-0.0351474411	-1.8045913493	 0.116968
H	 2.6974273454	-1.6376626442	 1.1562048457	 0.142821
57.2955	93.0566	193.7938	226.1511	276.809	316.0712	438.6043	528.8045	586.0948	644.4947	808.6949	847.5384	901.0923	927.6979	954.74	968.0585	1045.6501	1094.5987	1126.9635	1159.1611	1175.386	1227.3202	1312.5062	1358.5102	1366.0971	1375.0553	1405.5474	1418.1662	1485.0857	1497.9502	1525.0265	2354.7771	3007.9095	3037.9633	3046.5072	3077.9355	3089.9084	3120.5459	3129.3062
CC1COC(O1)C#N	C[C@H]1CO[C@@H](O1)C#N	
InChI=1S/C5H7NO2/c1-4-3-7-5(2-6)8-4/h4-5H,3H2,1H3	InChI=1S/C5H7NO2/c1-4-3-7-5(2-6)8-4/h4-5H,3H2,1H3/t4-,5-/m0/s1
