17
gdb 73506	2.90316	1.84465	1.46536	1.1339	66.2	-0.2331	0.0623	0.2954	912.7899	0.137421	-458.939653	-458.932651	-458.931706	-458.97079	28.156	
O	-0.0467261976	 1.352843213	 0.0104148771	-0.469783
C	 0.0655799433	-0.0338896273	-0.0320560548	 0.324901
C	 1.0631471809	-0.6727197543	-0.9964388589	-0.146706
O	 0.419172222	-1.8154997394	-1.5594812046	-0.267415
C	-0.7130736095	-2.1612533904	-0.7600126104	 0.064533
C	-0.2849590586	-3.0232296063	 0.4349767114	-0.089508
O	 0.2773371813	-2.096703227	 1.3764535246	-0.262406
C	-0.3518178216	-0.8548201175	 1.1734264367	 0.012653
C	-1.1863241827	-0.871599543	-0.0783163096	-0.182927
H	 0.6308229456	 1.6916497172	 0.6057241933	 0.289518
H	 1.300829775	 0.035487237	-1.7975419657	 0.11173
H	 1.9920547572	-0.9735246425	-0.4935869072	 0.103069
H	-1.45028406	-2.645775883	-1.40338072	 0.091022
H	-1.1499334774	-3.5403536635	 0.8775576489	 0.093177
H	 0.4829045651	-3.7533124927	 0.169541057	 0.12043
H	-0.6667896036	-0.3456372872	 2.0789293031	 0.101504
H	-2.1844623093	-0.4661626831	-0.1708768008	 0.106207
154.5213	203.474	257.4105	320.1259	345.7073	406.5646	493.9154	563.5708	630.0647	729.1486	768.6458	808.834	843.708	884.2393	909.1031	939.1435	956.5047	992.1093	995.5001	1040.4521	1047.5914	1064.6298	1106.7767	1118.1387	1188.4868	1223.4478	1224.7089	1254.6718	1272.8475	1281.6857	1319.1863	1336.0733	1354.5924	1377.5807	1441.3649	1498.7092	1512.7162	2991.9205	3011.4518	3068.789	3100.0842	3111.0277	3161.8106	3210.4554	3799.515
OC12COC3COC1C23	O[C@@]12CO[C@H]3CO[C@@H]1[C@@H]23	
InChI=1S/C6H8O3/c7-6-2-9-3-1-8-5(6)4(3)6/h3-5,7H,1-2H2	InChI=1S/C6H8O3/c7-6-2-9-3-1-8-5(6)4(3)6/h3-5,7H,1-2H2/t3-,4-,5+,6+/m0/s1
