13
gdb 21854	4.36452	2.0614	1.4256	3.7835	61.17	-0.2229	0.0064	0.2293	809.8677	0.09781	-394.737688	-394.731481	-394.730537	-394.768089	23.243	
O	 0.0219650121	 1.3952588202	-0.0326986237	-0.425113
C	 0.045630087	 0.0496574228	-0.0660032747	 0.206819
C	 0.1106000517	-0.8152877124	-1.138754199	 0.256227
C	 0.2057929329	-1.4175642392	-2.536674453	-0.383229
C	 0.1945856007	-2.8159549268	-1.7985039741	-0.165094
N	 0.1019599042	-2.0258509245	-0.5500141919	 0.096971
N	 0.0390938199	-2.0010414577	 0.7770565903	-0.192574
N	 0.0019065969	-0.7058213523	 1.0650708711	-0.276609
H	-0.0272054441	 1.6449775566	 0.8994230934	 0.307699
H	-0.6528018074	-1.2445920827	-3.1882918069	 0.139703
H	 1.1265378915	-1.2042681127	-3.0829432292	 0.140029
H	-0.6782690259	-3.4455837684	-1.9793268794	 0.147384
H	 1.1123625503	-3.401771433	-1.872907783	 0.147788
123.9241	219.724	299.6884	371.4428	394.3402	518.0296	663.8814	670.9172	700.3744	717.784	808.3814	880.2474	902.87	1059.0713	1076.3214	1126.472	1133.457	1177.9718	1197.2691	1220.0972	1261.4322	1309.1869	1325.1874	1382.4849	1482.3459	1489.4903	1528.3081	1671.0284	3078.6786	3083.307	3127.7196	3146.9347	3785.1669
OC1=C2CCN2N=N1	Oc1c2CCn2nn1	
InChI=1S/C4H5N3O/c8-4-3-1-2-7(3)6-5-4/h8H,1-2H2	InChI=1S/C4H5N3O/c8-4-3-1-2-7(3)6-5-4/h8H,1-2H2
