17
gdb 64986	3.67525	1.01688	0.85049	1.7788	72.94	-0.2611	-0.0287	0.2324	1345.1506	0.134554	-455.148632	-455.139433	-455.138489	-455.183527	32.645	
C	 0.0239717962	 1.4040582761	 0.425393995	-0.470987
C	 0.037665531	-0.0647444046	 0.0626671924	 0.126662
C	 0.5323205467	-0.5005722456	-1.2787303854	-0.249796
N	 1.3396517819	-0.7665142075	-0.0902195816	-0.317019
C	-0.9931362339	-0.9629625209	 0.6878478606	 0.491753
O	-1.1700919943	-2.117056979	 0.4134267669	-0.344656
O	-1.7304254544	-0.2765654568	 1.6246948485	-0.216524
C	-2.7185919261	-0.9584456751	 2.2921674268	 0.117316
N	-3.3967361868	-0.3247745215	 3.1404904522	-0.422837
H	 0.7951690496	 1.9346696462	-0.1415777223	 0.112621
H	-0.9420554347	 1.8627136121	 0.1974999532	 0.14166
H	 0.2129809879	 1.5510590093	 1.4923199018	 0.143389
H	 0.0971268612	-1.3850617654	-1.7319775482	 0.144306
H	 0.8354561328	 0.2851109812	-1.9658932037	 0.118708
H	 2.0813857929	-0.0738505178	-0.0084509006	 0.237436
H	-2.7903044166	-2.0031425296	 1.9899640981	 0.147183
H	-4.0880442034	-0.9448466609	 3.5603967462	 0.240785
36.3629	108.0003	123.7775	151.4342	214.2045	305.2491	310.4848	324.4012	367.0998	413.3838	532.3855	602.8428	747.4476	796.4736	847.5776	854.5213	917.362	944.3674	982.2446	1013.457	1022.687	1058.8344	1073.7023	1122.6406	1153.2617	1172.9132	1263.4872	1271.2403	1344.909	1367.4701	1389.3037	1422.933	1480.5758	1496.0281	1500.6716	1746.0229	1841.1417	3041.5211	3112.6658	3115.7332	3119.1253	3142.8536	3213.4153	3490.1797	3506.108
CC1(CN1)C(=O)OC=N	C[C@]1(CN1)C(=O)O[CH][NH]	
InChI=1S/C5H8N2O2/c1-5(2-7-5)4(8)9-3-6/h3,6-7H,2H2,1H3	InChI=1S/C5H8N2O2/c1-5(2-7-5)4(8)9-3-6/h3,6-7H,2H2,1H3/t5-/m0/s1
