17
gdb 75018	3.38788	1.45633	1.26628	2.411	68.86	-0.2255	0.0548	0.2803	1019.4151	0.139458	-455.175529	-455.168335	-455.167391	-455.207177	28.29	
N	-0.1102675586	 1.4045181198	 0.0565142167	-0.574618
C	-0.1180602413	 0.0396352595	 0.0029345046	 0.46909
N	-1.1006902593	-0.7306648849	 0.2640467288	-0.348922
C	-0.6552420391	-2.0846363617	-0.0520819503	-0.028363
C	-1.3266119702	-2.6611639276	-1.3157563905	-0.089267
O	-0.5113095244	-2.2485625572	-2.4051839568	-0.241911
C	 0.8273227075	-2.3872559588	-1.9634477987	-0.103751
C	 0.8353644945	-1.91887509	-0.505709925	 0.062284
O	 1.0641654901	-0.4988743233	-0.4073901721	-0.26013
H	 0.7905666515	 1.8303389903	 0.2077664225	 0.263129
H	-0.8689993693	 1.8019976587	 0.5871389612	 0.269012
H	-0.7887935604	-2.7469102983	 0.8086240762	 0.078325
H	-1.3704760556	-3.7619450253	-1.2619138206	 0.081302
H	-2.3315813714	-2.26470069	-1.4672115864	 0.124487
H	 1.1537989609	-3.4404739562	-2.0106218934	 0.087239
H	 1.4734966215	-1.7846422889	-2.6054038346	 0.121883
H	 1.5838453535	-2.4233994061	 0.1081924985	 0.090212
118.5487	136.4975	264.831	324.752	394.442	414.144	466.7208	524.6266	606.038	686.0601	717.6728	745.7098	842.0455	853.9576	897.1383	907.8692	957.2224	964.8494	1005.3626	1037.1121	1078.0855	1105.5294	1123.1669	1179.8933	1222.0535	1231.5388	1279.0433	1288.7849	1327.5055	1342.2473	1354.4622	1400.5705	1433.9932	1488.568	1505.0543	1617.1312	1754.5318	2958.5376	2966.4967	3057.5506	3096.3144	3109.3647	3124.3377	3594.9283	3709.8958
NC1=NC2COCC2O1	NC1=N[C@H]2COC[C@H]2O1	
InChI=1S/C5H8N2O2/c6-5-7-3-1-8-2-4(3)9-5/h3-4H,1-2H2,(H2,6,7)	InChI=1S/C5H8N2O2/c6-5-7-3-1-8-2-4(3)9-5/h3-4H,1-2H2,(H2,6,7)/t3-,4+/m0/s1
