18
gdb 6494	3.85115	1.34957	1.30081	3.6666	68.52	-0.2384	0.0546	0.293	1035.6588	0.153186	-381.152506	-381.143551	-381.142607	-381.18602	33.176	
C	 0.054706755	 1.4725249568	-0.3054478744	-0.448051
C	 0.0161891114	-0.0077678947	 0.0213454898	 0.380644
C	 1.2736551973	-0.8348955929	-0.0977318844	-0.326685
C	 0.7088480011	-0.5046537368	 1.2628088324	-0.259101
N	-1.1979386521	-0.6868613708	-0.349616799	-0.389704
C	-2.3782483113	-0.4849192295	 0.3290879404	 0.447397
N	-3.4772518719	-1.131128145	-0.2320862013	-0.566549
O	-2.4550369708	 0.1484189669	 1.3654549707	-0.395356
H	 1.0055236695	 1.9171871543	 0.0034138816	 0.111557
H	-0.0642226795	 1.6423861001	-1.381983277	 0.10238
H	-0.7531467824	 1.9890906051	 0.2203751307	 0.146789
H	 1.1765167783	-1.8569145227	-0.4481790331	 0.108742
H	 2.1768631695	-0.3311576526	-0.4243731971	 0.11278
H	 1.2248984691	 0.226254764	 1.8748980959	 0.115484
H	 0.2218432436	-1.2964730627	 1.8173163598	 0.12677
H	-1.2199226806	-1.1432807638	-1.247459023	 0.233099
H	-3.4975876165	-1.2684263673	-1.2312799411	 0.240659
H	-4.3489818696	-0.8009592183	 0.1529180691	 0.259142
65.5709	79.6987	156.9173	243.2655	254.951	310.5763	325.2877	406.6116	429.5994	439.1715	478.8872	529.2076	638.559	761.2123	775.9862	787.7758	876.6162	904.8779	940.5839	988.6402	1040.7537	1062.0487	1071.585	1079.965	1097.3927	1139.8072	1187.1594	1310.2912	1323.3577	1348.5063	1412.0155	1461.406	1484.514	1498.3508	1508.7046	1525.912	1628.3107	1797.9951	3029.1156	3096.4201	3118.8883	3131.7862	3148.6692	3215.6054	3240.4719	3575.2695	3621.8162	3690.6372
CC1(CC1)NC(N)=O	CC1(CC1)NC(=O)N	
InChI=1S/C5H10N2O/c1-5(2-3-5)7-4(6)8/h2-3H2,1H3,(H3,6,7,8)	InChI=1S/C5H10N2O/c1-5(2-3-5)7-4(6)8/h2-3H2,1H3,(H3,6,7,8)
