15
gdb 20246	4.13095	3.03493	2.47654	2.0777	68.87	-0.2074	-0.0316	0.1758	618.6837	0.121361	-325.406725	-325.401739	-325.400794	-325.435317	21.808	
C	-0.2066368824	 1.3172842788	 0.1006739456	-0.274886
C	 1.3819274068	 1.2548600001	 0.0583472652	-0.040834
C	 2.1797180162	 0.0927929641	 0.7359202174	-0.070565
C	 1.5467848165	-1.2875760673	 0.5024558277	-0.066312
C	 0.1025631113	-1.0918599719	 0.2988941229	-0.100814
C	-0.0401187874	-0.0586984047	-0.5636946385	 0.005629
C	 1.3415441521	 0.2880373697	-1.1414419747	-0.005615
N	 2.3654838826	-0.6497070115	-0.5547694125	-0.145317
H	-0.7225287489	 1.3418405379	 1.0621980841	 0.110197
H	-0.5462342525	 2.1444305034	-0.5325611115	 0.108791
H	 1.9324997801	 2.1967973956	 0.0186707841	 0.09333
H	 2.9997934298	 0.2214950567	 1.4333889186	 0.102792
H	 2.0034849948	-2.1419147455	 0.9921382402	 0.098861
H	-0.5974730735	-1.3053115543	 1.1006460784	 0.102563
H	 1.4674003547	 0.569737999	-2.1844404073	 0.082178
334.9515	455.6962	519.3024	653.177	689.6873	720.2945	722.5076	752.5962	799.0981	826.4982	855.8895	878.756	915.6795	931.5428	962.6562	971.332	1005.0377	1029.5429	1049.8444	1071.6509	1086.4381	1125.919	1146.9852	1193.0323	1199.1166	1244.7382	1247.8297	1276.4632	1306.8945	1329.4912	1492.5022	1568.8122	3039.8426	3095.7574	3118.2439	3135.2512	3161.676	3175.9822	3180.8013
C1C2C3C4C=C1C2N34	C1[C@H]2[C@H]3[C@H]4[CH][C]1[C@@H]2N34	
InChI=1S/C7H7N/c1-3-2-5-7-4(1)6(3)8(5)7/h2,4-7H,1H2	InChI=1S/C7H7N/c1-3-2-5-7-4(1)6(3)8(5)7/h2,4-7H,1H2/t4-,5-,6+,7+,8?/m1/s1
