23
gdb 112704	3.01577	0.99587	0.8786	2.0987	81.38	-0.2551	0.055	0.3102	1425.5092	0.205491	-425.437249	-425.427126	-425.426182	-425.472493	37.894	
C	-0.1662004922	 1.5514719535	 0.0599833818	-0.402487
C	 0.0549205596	 0.0417800609	 0.0513866583	 0.019812
C	 0.7919658639	-0.511318326	-1.1829279336	-0.257186
C	 1.2360444584	-1.9394773635	-0.7791102039	 0.038935
C	 2.5734579237	-2.331384154	-1.3934706343	-0.088072
O	 2.8547882709	-3.6737588786	-1.0305589932	-0.419595
C	 1.2427470011	-1.9424106403	 0.781500135	-0.255577
C	 0.9061815322	-0.5038636503	 1.2206002181	 0.127199
O	 2.0717048317	 0.2844620937	 1.46306503	-0.4385
H	 0.7897627325	 2.0822226607	 0.0787085002	 0.118623
H	-0.7239292777	 1.8749325618	-0.8251174452	 0.105559
H	-0.7324784224	 1.8632329251	 0.9439925932	 0.112089
H	-0.9197991907	-0.4639987878	 0.112016063	 0.07022
H	 0.1767988313	-0.4991467068	-2.0869756095	 0.098385
H	 1.6687773487	 0.1178106119	-1.39961239	 0.081782
H	 0.4989323342	-2.6655165005	-1.1375887445	 0.081654
H	 2.529652099	-2.2146416228	-2.4887625708	 0.085917
H	 3.3613993163	-1.6489005312	-1.026584323	 0.069015
H	 3.712319335	-3.9135543519	-1.3935383705	 0.2869
H	 0.4911810904	-2.6389134504	 1.1642740557	 0.102013
H	 2.2033869737	-2.2618662032	 1.1944694556	 0.111169
H	 0.3603976123	-0.4751525861	 2.1683156046	 0.075593
H	 2.6595760382	 0.196503686	 0.7060369529	 0.276551
41.3508	118.5061	127.4662	198.7017	226.608	244.5824	263.985	278.13	315.1727	384.018	392.0526	432.6167	544.4195	595.941	694.594	791.59	829.9992	866.8065	912.8255	921.3546	973.5698	999.212	1004.749	1046.6053	1063.7802	1080.8176	1103.6255	1124.9053	1159.0852	1175.4889	1207.9837	1246.2357	1248.2834	1267.924	1290.7744	1299.828	1315.213	1337.514	1353.227	1365.5795	1384.8671	1408.6208	1432.8961	1458.6085	1486.1908	1492.1821	1500.8256	1503.3869	1519.24	2936.3169	2977.7609	2992.0835	3005.4499	3034.4555	3045.3721	3058.2422	3072.2759	3085.1656	3097.0938	3103.5172	3113.9742	3816.1062	3830.2933
CC1CC(CO)CC1O	C[C@H]1C[C@@H](CO)C[C@H]1O	
InChI=1S/C7H14O2/c1-5-2-6(4-8)3-7(5)9/h5-9H,2-4H2,1H3	InChI=1S/C7H14O2/c1-5-2-6(4-8)3-7(5)9/h5-9H,2-4H2,1H3/t5-,6+,7+/m0/s1
