21
gdb 62838	2.54632	1.80057	1.47993	1.2652	84.08	-0.2244	0.0751	0.2994	1007.449	0.182133	-386.968582	-386.96041	-386.959466	-387.000446	33.813	
C	-0.1117002353	 1.4975134613	 0.0367746276	-0.49104
C	 0.0740443709	-0.0167799721	-0.0384946876	 0.44978
O	-1.1796407913	-0.5765126929	-0.4014858102	-0.484332
C	 1.3253111208	-0.6476535343	-0.7033166645	-0.157211
C	 2.1551040155	-0.1346915636	 0.5615618009	-0.330511
C	 0.8373888988	-0.7694586589	 1.1180434736	 0.23126
C	 0.0692709563	-1.683844881	 2.1021955239	-0.327806
C	-0.1086546114	-2.6865637044	 0.8813180243	-0.262888
C	 1.0891405602	-1.9437301478	 0.1681548768	-0.006605
H	 0.767483204	 2.0481965386	 0.369615984	 0.124152
H	-0.3843197536	 1.8912938931	-0.9519062762	 0.105644
H	-0.9359188983	 1.7233845529	 0.7206046419	 0.127785
H	-1.5465752194	-0.0327636543	-1.1052171009	 0.275472
H	 1.6395009715	-0.5515398783	-1.7490291476	 0.059794
H	 3.0583353117	-0.7076325894	 0.7767663621	 0.102199
H	 2.3500351598	 0.9358330891	 0.6447746593	 0.090461
H	 0.7051767058	-2.1038960654	 2.8865235444	 0.104057
H	-0.8380362309	-1.2757377762	 2.5556110648	 0.102319
H	 0.1195866747	-3.7309264475	 1.1079015626	 0.087427
H	-1.0816407261	-2.6154935955	 0.4074031218	 0.136042
H	 2.0202265563	-2.4861328434	 0.3559106789	 0.063999
170.8379	188.5832	200.0865	220.0845	317.3873	362.3486	434.2924	440.0498	473.8291	533.3657	630.1984	650.8656	708.5498	712.6617	774.4844	809.137	830.8616	882.9204	893.5067	957.0503	983.0568	1012.4163	1014.7064	1040.4021	1066.7323	1088.6301	1101.6935	1122.5964	1149.4615	1172.7839	1187.9187	1195.356	1212.3643	1220.7642	1235.1282	1240.1431	1262.908	1375.4625	1388.5108	1410.9896	1466.0623	1477.9541	1493.5366	1496.9803	1534.1238	3019.8643	3037.5216	3050.8308	3053.9091	3073.7436	3078.1189	3089.0838	3109.7419	3132.0315	3149.5717	3193.8638	3817.0926
CC1(O)C2CC11CCC21	C[C@@]1(O)[C@H]2C[C@]31CC[C@@H]23	
InChI=1S/C8H12O/c1-7(9)6-4-8(7)3-2-5(6)8/h5-6,9H,2-4H2,1H3	InChI=1S/C8H12O/c1-7(9)6-4-8(7)3-2-5(6)8/h5-6,9H,2-4H2,1H3/t5-,6-,7+,8+/m0/s1
