20
gdb 86939	3.69239	0.85416	0.76123	2.9997	76.7	-0.2228	-0.0221	0.2007	1500.6505	0.16809	-440.25998	-440.250012	-440.249067	-440.29562	35.535	
C	-0.2069624057	 1.5797151402	-0.1619058916	-0.395072
C	-0.000049563	 0.0728783687	-0.0249771948	 0.012261
C	 0.7287462139	-0.5865905499	-1.2290915047	 0.108902
O	 0.7103188703	 0.1843954771	-2.4024557073	-0.422048
C	 2.0057204522	-0.5767220589	-0.3481898298	-0.21949
N	 1.134524405	-0.3816956416	 0.8239204852	-0.091646
C	 1.6030861487	 0.3792644973	 1.9553763074	-0.242287
C	 2.4803155047	-0.4811599258	 2.854040719	 0.162028
O	 3.4333156459	-0.0796410939	 3.4681305952	-0.238691
H	 0.7111986593	 2.096709537	-0.4525038338	 0.126547
H	-0.9562543656	 1.7799861983	-0.9327455009	 0.130436
H	-0.5667197891	 2.0093689527	 0.7784990533	 0.111377
H	-0.9471996023	-0.4013157444	 0.2604863999	 0.074838
H	 0.3670790414	-1.6060241142	-1.4095362304	 0.080312
H	 1.1521364934	-0.3087630066	-3.1001392594	 0.289866
H	 2.6295061225	-1.4773307065	-0.3189592188	 0.09978
H	 2.6393897861	 0.2930454685	-0.5850972031	 0.096139
H	 2.152705879	 1.3030134413	 1.7081364509	 0.107262
H	 0.7350264133	 0.6682877817	 2.5668257487	 0.128859
H	 2.1473968899	-1.5430096711	 2.9018210148	 0.080627
54.4726	77.1182	93.6121	154.3784	221.3539	225.2226	244.2595	293.032	317.0629	417.9548	429.2384	503.4511	557.5225	679.1323	753.9746	805.326	826.422	918.8572	979.0341	1003.573	1049.7815	1068.0118	1079.9672	1108.3013	1134.8729	1156.1285	1175.8901	1219.142	1240.5893	1256.0909	1291.4379	1312.931	1327.8272	1342.4801	1378.0116	1399.6429	1405.6574	1435.9997	1454.4146	1489.6941	1493.0412	1514.7792	1838.6457	2879.7368	2964.0141	2975.2806	3015.9506	3026.0455	3030.6695	3043.4945	3055.3134	3111.7676	3125.0596	3827.293
CC1C(O)CN1CC=O	C[C@H]1[C@@H](O)CN1CC=O	
InChI=1S/C6H11NO2/c1-5-6(9)4-7(5)2-3-8/h3,5-6,9H,2,4H2,1H3	InChI=1S/C6H11NO2/c1-5-6(9)4-7(5)2-3-8/h3,5-6,9H,2,4H2,1H3/t5-,6-/m0/s1
