17
gdb 84485	3.1637	1.51117	1.11094	4.2129	77.4	-0.2076	-0.0166	0.191	1089.0671	0.136736	-418.021278	-418.013044	-418.0121	-418.054117	30.669	
C	 0.0338797919	 1.452797285	 0.0197474412	-0.351624
N	 0.0256466211	 0.0085001564	-0.0244698862	-0.111606
C	 0.0661077987	-0.78541148	-1.1813089155	-0.033903
C	 0.0510643696	-2.0944064743	-0.8909575318	-0.287782
C	 0.002819322	-2.2174407996	 0.5828758008	 0.195826
C	-0.6825026738	-3.3048527638	 1.3450101901	-0.265003
N	 0.7729071658	-3.2106689098	 1.3726231957	-0.329926
C	-0.0118255468	-0.7933287625	 1.1081070986	 0.3936
O	-0.0686124034	-0.4105198825	 2.2551282872	-0.384472
H	 0.9449920893	 1.8619418696	-0.43129251	 0.131729
H	-0.835456007	 1.8733775228	-0.4980826257	 0.130771
H	-0.0037619024	 1.7406877913	 1.0719637764	 0.170609
H	 0.0966127637	-0.3008184871	-2.147040692	 0.131496
H	 0.0664582522	-2.9127005474	-1.5945589487	 0.111105
H	-1.1679660579	-3.0328449046	 2.2781993784	 0.144196
H	-1.1614726186	-4.0944473766	 0.7717525943	 0.118063
H	 1.1804574257	-3.884351807	 0.7265949372	 0.236922
93.8245	127.5638	162.3542	233.5325	268.0429	298.1681	299.92	480.9463	530.3445	582.1282	673.8674	711.4164	739.7166	747.3375	859.9447	883.944	919.4514	951.4318	982.0636	989.0506	1051.1313	1088.2863	1119.9765	1135.7419	1155.6236	1249.8347	1273.4134	1311.0311	1346.1317	1367.0653	1424.0806	1462.1206	1494.0788	1495.062	1511.8964	1651.4933	1823.1163	3024.5522	3078.8448	3106.7538	3143.0274	3202.268	3230.3072	3253.7228	3485.7545
CN1C=CC2(CN2)C1=O	CN1C=C[C@]2(CN2)C1=O	
InChI=1S/C6H8N2O/c1-8-3-2-6(4-7-6)5(8)9/h2-3,7H,4H2,1H3	InChI=1S/C6H8N2O/c1-8-3-2-6(4-7-6)5(8)9/h2-3,7H,4H2,1H3/t6-/m0/s1
