17
gdb 18193	4.28939	1.65134	1.36946	1.9095	73.52	-0.2347	0.0604	0.2952	923.0557	0.143763	-326.680455	-326.673369	-326.672425	-326.711567	28.006	
C	-0.0011107476	-1.2274428213	-0.0552825529	-0.461814
C	 0.0066089642	-0.0260640696	-0.0104488567	 0.324944
C	 0.0129089775	 1.4296746618	 0.0375921091	-0.154766
C	-0.6309480118	 2.0282249016	 1.3256216545	-0.226623
C	 0.0053409382	 3.4283142311	 1.4841516439	-0.218413
C	 1.3851088243	 3.2775481406	 0.8681286696	-0.03163
N	 2.0810220309	 2.0500942603	 1.3163550907	-0.329298
C	 1.4013249823	 2.0713542465	 0.007677582	-0.040518
H	-0.0035876208	-2.2885156367	-0.0893158391	 0.190344
H	-0.5289922858	 1.8091076272	-0.8405075818	 0.100052
H	-1.7203979261	 2.0570513048	 1.2579883547	 0.101664
H	-0.3613426914	 1.3980768238	 2.1737649518	 0.135293
H	-0.5557961128	 4.18522502	 0.9226441856	 0.098314
H	 0.0368389367	 3.7477986337	 2.5304135956	 0.105767
H	 1.9740061783	 4.1564519627	 0.6253630527	 0.084538
H	 3.0816288709	 2.1555454715	 1.1712723935	 0.231684
H	 1.9928352631	 2.0067051622	-0.8993703232	 0.090462
112.1517	150.0555	250.93	323.5007	393.6257	495.7658	508.3858	610.1438	624.4363	631.7467	653.6288	800.9277	830.3555	861.5977	876.507	907.3475	941.1981	981.3734	1015.7337	1041.6867	1067.6891	1074.0729	1124.6984	1165.27	1196.8077	1227.6732	1254.1931	1291.0894	1317.614	1325.3648	1346.4439	1378.4152	1425.2002	1481.6208	1495.0413	2236.302	3004.681	3035.2813	3080.1365	3085.7589	3136.6158	3157.6381	3170.9175	3505.6207	3509.2762
C#CC1CCC2NC12	C#C[C@H]1CC[C@H]2N[C@@H]12	
InChI=1S/C7H9N/c1-2-5-3-4-6-7(5)8-6/h1,5-8H,3-4H2	InChI=1S/C7H9N/c1-2-5-3-4-6-7(5)8-6/h1,5-8H,3-4H2/t5-,6+,7-/m0/s1
