19
gdb 67262	2.64423	2.17257	1.69857	1.733	77.15	-0.2356	0.0814	0.317	886.9647	0.161578	-385.838804	-385.832291	-385.831347	-385.869232	27.835	
C	-0.0151944277	 1.5136391352	-0.0479290289	-0.529443
C	 0.0700658264	 0.0128771432	-0.0677501238	 0.330032
C	 0.5288209052	-0.8640895284	-1.2768031228	-0.109881
C	-0.7119657234	-1.6299666484	-1.7738531162	-0.255409
C	-0.791174845	-2.1312673469	-0.3081710606	-0.053044
C	 0.7726922842	-1.9483480363	-0.1729399599	-0.06729
C	 0.8172301055	-0.8773633752	 0.9686254886	 0.03226
O	-0.3559509272	-1.0562705597	 1.7800095543	-0.30314
C	-1.0862703315	-0.8788851777	 0.5380060235	 0.043598
H	 0.9473099829	 1.9729531819	-0.2985094399	 0.117432
H	-0.7549833972	 1.8796013159	-0.7697956646	 0.118223
H	-0.3100524372	 1.8689792057	 0.9454750675	 0.130883
H	 1.3022576989	-0.4724947363	-1.9369254354	 0.06356
H	-1.5614446141	-1.0605978527	-2.1691926863	 0.089929
H	-0.4541143026	-2.4288692248	-2.4750628074	 0.101797
H	-1.302829896	-3.0513547101	-0.0287083544	 0.070633
H	 1.4388394136	-2.8025163797	-0.2657285916	 0.068828
H	 1.7307957943	-0.6484794898	 1.5173511271	 0.075361
H	-2.1145485592	-0.5430548159	 0.6748749908	 0.075672
215.5747	227.9518	257.2873	371.0725	457.5931	527.1757	605.1282	697.9476	721.8746	791.6912	827.546	843.9972	850.5063	867.8619	883.4911	900.8989	931.4306	944.0487	965.6044	996.2231	1010.1682	1029.4391	1068.1695	1102.5106	1114.5452	1153.8236	1156.4995	1170.2951	1198.8329	1202.6239	1222.3434	1250.5589	1256.035	1270.9976	1292.2957	1318.8506	1373.2793	1410.4259	1489.9513	1493.2373	1500.966	3022.2648	3032.1382	3084.7452	3093.4695	3095.2627	3113.9464	3116.7806	3120.2633	3125.1205	3149.8879
CC12C3CC4C3C1OC24	C[C@@]12[C@@H]3C[C@H]4[C@@H]3[C@@H]1O[C@@H]24	
InChI=1S/C8H10O/c1-8-4-2-3-5(4)7(8)9-6(3)8/h3-7H,2H2,1H3	InChI=1S/C8H10O/c1-8-4-2-3-5(4)7(8)9-6(3)8/h3-7H,2H2,1H3/t3-,4+,5-,6+,7-,8-/m0/s1
