17
gdb 102004	2.44989	1.36639	0.94219	1.2878	79.96	-0.2545	-0.0466	0.208	1240.7241	0.134208	-417.999271	-417.989684	-417.98874	-418.034218	34.204	
C	 0.0169984563	 1.5248913217	 0.0958456427	-0.377214
C	-0.0289865272	 0.0020295398	-0.0330047504	-0.156753
N	-1.3972993763	-0.5390029823	-0.0472808001	-0.113586
C	-1.9806461823	-0.8222849177	-1.2737067548	 0.158171
O	-3.0996603113	-1.2220472183	-1.4694613147	-0.298975
C	-2.0406230074	-0.7162795095	 1.1870963976	 0.267924
N	-1.4098110591	-0.3812047867	 2.2528890493	-0.520688
C	-3.3634882209	-1.2724103258	 1.2211081607	 0.284548
C	-4.4514816997	-1.7243551332	 1.4644792257	-0.431815
H	 1.0569933923	 1.865507559	 0.087595739	 0.121495
H	-0.5064329065	 2.0075247035	-0.7355034558	 0.119212
H	-0.4414897004	 1.8421784615	 1.0340615716	 0.151547
H	 0.449766381	-0.3181156117	-0.9627999951	 0.111601
H	 0.5002550026	-0.4646280855	 0.7987698955	 0.148377
H	-1.2626701025	-0.6299128094	-2.0934098987	 0.088684
H	-1.986660684	-0.5799676917	 3.0677346124	 0.235358
H	-5.4224427047	-2.1292078735	 1.6133790151	 0.212114
40.2179	96.6408	149.5601	173.9188	225.8893	239.5859	253.6842	296.9067	392.3569	424.1318	463.7681	572.0523	643.1761	650.0708	683.2936	738.0413	775.8485	813.3572	869.5398	950.2041	1031.9584	1042.3237	1109.2781	1116.3241	1188.5939	1278.8061	1378.5848	1397.967	1406.3147	1414.2028	1453.9937	1489.8155	1494.8585	1508.3825	1637.705	1822.1523	2224.1961	2951.0103	3045.1191	3066.6163	3108.3139	3129.632	3146.2789	3500.0276	3515.6879
CCN(C=O)C(=N)C#C	CCN(C=O)C(=N)C#C	
InChI=1S/C6H8N2O/c1-3-6(7)8(4-2)5-9/h1,5,7H,4H2,2H3	InChI=1S/C6H8N2O/c1-3-6(7)8(4-2)5-9/h1,5,7H,4H2,2H3
