18
gdb 12840	2.91855	2.4379	1.76113	1.9717	71.48	-0.2392	0.0126	0.2517	819.5561	0.154933	-347.80047	-347.793438	-347.792494	-347.831447	27.611	
C	-0.2223431989	 1.5254587289	 0.0361858831	-0.483212
C	 0.0701450087	 0.0351421878	-0.0343476745	 0.293594
C	-1.0957711258	-0.8869561119	 0.4099054769	-0.117639
O	-0.3986058085	-1.3029923181	 1.6023215581	-0.29646
C	 0.806654599	-0.6114551131	 1.175743047	 0.060905
C	 1.8389849869	-1.509418812	 0.5544031425	-0.088083
C	 1.838003839	-1.4133807222	-0.7760448497	-0.061584
C	 0.8307440793	-0.4159644553	-1.3011589355	-0.334162
H	 0.700663354	 2.1112388983	-0.0390289192	 0.117417
H	-0.8813188246	 1.8378412366	-0.782353652	 0.116778
H	-0.7128385112	 1.7888243326	 0.9791156225	 0.122994
H	-2.0404664429	-0.3829823602	 0.6485812986	 0.096882
H	-1.2998695102	-1.7299499429	-0.2639490274	 0.09403
H	 1.186786788	 0.0302590265	 1.9797541893	 0.071376
H	 2.4797148645	-2.1595842809	 1.1392823268	 0.099097
H	 2.4892268863	-1.9744375287	-1.4389812586	 0.097781
H	 0.1622753512	-0.8586798043	-2.0515176064	 0.105935
H	 1.3274759952	 0.428248639	-1.7992491216	 0.104348
101.5301	237.4657	241.6611	281.3747	335.5337	399.6011	483.1017	593.0163	665.3222	744.9362	783.537	873.6478	893.669	925.4136	945.3739	968.7466	972.1623	983.4485	992.6822	1015.5639	1029.689	1115.7652	1133.1913	1156.8665	1185.7028	1231.1137	1254.4566	1272.5166	1304.885	1339.4212	1369.5457	1374.3697	1411.3754	1483.5928	1493.0273	1496.4253	1520.3533	1676.8023	3001.728	3008.3192	3022.7167	3033.8824	3035.3728	3050.4871	3087.835	3096.9805	3177.1383	3206.3597
CC12COC1C=CC2	C[C@]12CO[C@H]1C=CC2	
InChI=1S/C7H10O/c1-7-4-2-3-6(7)8-5-7/h2-3,6H,4-5H2,1H3	InChI=1S/C7H10O/c1-7-4-2-3-6(7)8-5-7/h2-3,6H,4-5H2,1H3/t6-,7-/m0/s1
