17
gdb 124781	3.94122	1.07015	0.86834	2.2935	70.71	-0.2099	0.0193	0.2292	1301.997	0.137591	-451.358354	-451.349531	-451.348587	-451.391961	32.864	
C	 0.4742228092	 1.4874670896	-0.4182274648	-0.401777
C	-0.1392091155	 0.2697768607	 0.2676053669	 0.006058
O	-0.5670022158	-0.732728558	-0.653672486	-0.430687
C	 0.7917517564	-0.3353701942	 1.2846606318	 0.35362
N	 1.6070797767	 0.2976850527	 2.1140956255	-0.380034
C	 2.1701027012	-0.7268810775	 2.8221097779	 0.385218
N	 3.0557330617	-0.4934025871	 3.8561277679	-0.584522
N	 1.7686794747	-1.944394567	 2.4777469463	-0.299209
N	 0.8744355401	-1.6592064764	 1.4850890906	-0.237258
H	 1.3699959522	 1.2014391058	-0.9819771549	 0.114407
H	-0.2488429266	 1.9348576953	-1.1048308638	 0.124195
H	 0.7770792628	 2.2263482771	 0.3268132041	 0.153717
H	-1.0577674977	 0.5772409085	 0.7833140744	 0.123516
H	 0.1487096656	-0.8690542836	-1.285186089	 0.283793
H	 3.5696905564	 0.3683331751	 3.746499788	 0.256009
H	 3.6511693471	-1.2819082376	 4.0636631835	 0.255716
H	 0.3644266015	-2.3859338334	 1.0125147817	 0.277237
56.829	143.3673	167.6499	238.5712	289.343	307.59	341.056	359.8687	379.3473	468.4402	517.5654	568.0983	622.0384	650.5149	751.6691	764.7001	800.5151	903.2419	1019.5174	1033.7771	1053.1322	1083.7357	1098.5074	1136.4382	1183.1281	1266.6245	1292.0024	1348.8523	1402.1645	1407.0066	1420.8814	1485.6248	1487.7236	1491.6179	1566.0484	1588.8188	1647.7626	3031.1101	3039.2123	3111.5618	3141.9007	3572.437	3678.215	3681.8198	3795.4643
CC(O)C1=NC(N)=NN1	C[C@@H](O)c1nc(N)n[nH]1	
InChI=1S/C4H8N4O/c1-2(9)3-6-4(5)8-7-3/h2,9H,1H3,(H3,5,6,7,8)	InChI=1S/C4H8N4O/c1-2(9)3-6-4(5)8-7-3/h2,9H,1H3,(H3,5,6,7,8)/t2-/m1/s1
