17
gdb 124240	2.6373	1.49957	0.96737	1.681	76.85	-0.2399	-0.0284	0.2115	1181.8007	0.136197	-418.066333	-418.057404	-418.05646	-418.100699	31.638	
C	-0.0380956742	 1.5287656	-0.1430243086	-0.491088
C	 0.0390479887	 0.0112140617	-0.1022314502	 0.295932
O	 1.1101870121	-0.5690685968	-0.1687683523	-0.343974
C	-1.2237341418	-0.722604709	 0.020091205	 0.047093
C	-1.3499649989	-2.1137453801	 0.0727366203	 0.296749
C	-0.3328441222	-3.2014696424	 0.0255036154	-0.481375
N	-2.6724952776	-2.3463460974	 0.1844912342	-0.245074
N	-3.4376132474	-1.2259252184	 0.2106943184	-0.2301
C	-2.557434282	-0.2430610389	 0.1108952372	-0.093018
H	 0.9685825128	 1.9373098103	-0.2351651396	 0.139012
H	-0.6481736986	 1.8618623452	-0.9898565254	 0.13818
H	-0.5093605924	 1.9161159974	 0.7670023094	 0.138185
H	-0.8036358945	-4.1870418401	 0.0934265943	 0.111869
H	 0.2466555686	-3.1468537108	-0.8997891223	 0.162774
H	 0.3850844078	-3.0929289338	 0.8426536135	 0.16282
H	-3.1258465232	-3.2437035756	 0.2478300504	 0.274588
H	-2.9020943972	 0.7808604385	 0.1067986103	 0.117426
62.6363	79.4334	125.4989	172.5114	183.51	267.1863	296.215	411.1671	483.3534	572.6393	583.0598	636.3664	691.3108	695.8259	714.6894	901.6505	945.1582	953.9209	1005.468	1041.6551	1060.227	1094.8347	1117.4378	1216.7545	1273.7095	1318.9642	1375.7012	1386.5562	1420.9351	1456.6651	1463.9467	1467.8776	1475.2351	1476.959	1531.6	1596.4659	1754.5681	3037.0776	3044.8058	3098.7385	3117.0859	3120.5163	3153.2921	3244.2406	3655.9855
CC(=O)C1=C(C)NN=C1	CC(=O)c1c(C)[nH]nc1	
InChI=1S/C6H8N2O/c1-4-6(5(2)9)3-7-8-4/h3H,1-2H3,(H,7,8)	InChI=1S/C6H8N2O/c1-4-6(5(2)9)3-7-8-4/h3H,1-2H3,(H,7,8)
