21
gdb 67044	2.07291	1.96903	1.55972	1.2865	80.99	-0.2354	0.0693	0.3047	1005.5973	0.183488	-387.076529	-387.068377	-387.067433	-387.108387	33.365	
C	 0.04628502	 1.5293120079	 0.0212472128	-0.481652
C	 0.0177052812	 0.0152948786	 0.0398382788	 0.251618
C	 0.239153646	-0.7179433481	-1.3322666933	-0.268617
C	-0.9979299523	-1.5665614167	-1.0448821967	-0.121803
C	-0.9505928008	-2.1035797585	 0.3986642964	-0.123546
C	 0.3987568347	-2.1509578766	 1.1145827134	-0.241386
C	 0.856512208	-0.6655635329	 1.1367516969	-0.250695
C	-1.3803616241	-0.6955064436	 0.1205416162	 0.35294
O	-2.5989533679	-0.1053941542	 0.3937674447	-0.463644
H	 1.0517288886	 1.9022468929	-0.2051781419	 0.111539
H	-0.6403465797	 1.9293350338	-0.7314959915	 0.121835
H	-0.250619604	 1.9437654609	 0.9917793347	 0.106678
H	 0.0799776822	-0.0448997134	-2.1793429909	 0.098471
H	 1.1970944959	-1.2340815143	-1.4654012019	 0.085686
H	-1.638154902	-2.0450000255	-1.7768565198	 0.084677
H	-1.7174106689	-2.8380816351	 0.6210218652	 0.081277
H	 0.3005438287	-2.5603729726	 2.1248804465	 0.093998
H	 1.1164093822	-2.7880097327	 0.5860790523	 0.100819
H	 1.9330565953	-0.5519052807	 0.9695144701	 0.092461
H	 0.6285822414	-0.2091014317	 2.1087590305	 0.085064
H	-2.7331160446	-0.1083358776	 1.3479264074	 0.28428
184.0996	204.0171	213.2684	226.5793	304.2085	314.0338	364.3655	441.5874	459.8403	563.4465	603.1873	641.8321	710.2993	745.5285	813.1942	857.6849	880.5618	903.2577	931.0299	954.7484	983.5764	986.612	1026.5224	1044.7564	1056.0963	1109.5228	1124.4024	1157.1473	1182.1407	1219.1343	1232.72	1235.6044	1262.0242	1281.7676	1295.6066	1307.222	1330.6001	1355.6288	1412.229	1462.9222	1484.5832	1492.3624	1494.929	1496.119	1513.9075	3018.0642	3023.6637	3030.292	3041.0049	3065.859	3081.0496	3085.3283	3089.7545	3099.6549	3170.1083	3181.2548	3791.1973
CC12CC3C(CC1)C23O	C[C@@]12C[C@H]3[C@@H](CC1)[C@@]23O	
InChI=1S/C8H12O/c1-7-3-2-5-6(4-7)8(5,7)9/h5-6,9H,2-4H2,1H3	InChI=1S/C8H12O/c1-7-3-2-5-6(4-7)8(5,7)9/h5-6,9H,2-4H2,1H3/t5-,6+,7+,8+/m1/s1
