21
gdb 84923	2.27763	1.48805	1.03284	1.6268	86.79	-0.2366	0.0078	0.2444	1232.7949	0.18337	-387.097645	-387.088562	-387.087618	-387.131405	34.896	
C	 0.3623230211	 1.4049256178	-0.0125051184	-0.466747
C	-0.0131401327	-0.0583276007	-0.0513868908	 0.282197
C	 0.007338289	-0.7344657008	-1.2035288247	-0.153815
C	-0.3227124474	-2.1828426386	-1.4662060683	-0.254595
C	-1.6299451985	-2.6810251862	-0.834922802	-0.247434
C	-1.6092729252	-2.7513160536	 0.6683624281	-0.075622
C	-1.0374871365	-1.9119501391	 1.5304503939	-0.058525
C	-0.3028728911	-0.6124799044	 1.3325535596	-0.016332
O	 0.926534947	-0.6404797923	 2.090430199	-0.430371
H	 1.1561722914	 1.5741332059	 0.722417782	 0.139278
H	 0.7025209006	 1.7632728859	-0.9870946655	 0.113
H	-0.4919194168	 2.0218202717	 0.2965842184	 0.119196
H	 0.3085096585	-0.1721918726	-2.0864160201	 0.077881
H	-0.3827171359	-2.3294899874	-2.5501214068	 0.09892
H	 0.4982069947	-2.8287028703	-1.1238343959	 0.106338
H	-2.4602518116	-2.0432775885	-1.1702298862	 0.114987
H	-1.8473953587	-3.6818394981	-1.2256179113	 0.098767
H	-2.1336035718	-3.6039424562	 1.0967311935	 0.087051
H	-1.11624879	-2.149146894	 2.5903301993	 0.093893
H	-0.8911232358	 0.1495121603	 1.8656110226	 0.095392
H	 1.4871742997	-1.3045053289	 1.6729823636	 0.276542
51.9817	139.7266	191.419	233.9624	249.6953	291.0753	323.8955	360.6404	388.1602	418.0649	510.5427	582.4664	640.2548	676.4702	746.7658	814.3788	839.1627	880.1429	920.3641	943.0114	1003.1368	1022.0277	1037.1441	1051.131	1066.8965	1080.0579	1120.9596	1169.7065	1196.0385	1245.4829	1266.7205	1288.6855	1347.8535	1370.174	1393.4743	1403.35	1410.8737	1416.1897	1435.4497	1476.7921	1477.2886	1485.8065	1499.76	1738.3932	1744.9442	2991.6655	3003.7163	3012.3795	3019.5372	3053.0295	3060.1406	3079.7173	3118.4509	3126.0199	3128.5037	3150.3562	3796.0319
CC1=CCCC=CC1O	CC1=CCCC=C[C@H]1O	
InChI=1S/C8H12O/c1-7-5-3-2-4-6-8(7)9/h4-6,8-9H,2-3H2,1H3	InChI=1S/C8H12O/c1-7-5-3-2-4-6-8(7)9/h4-6,8-9H,2-3H2,1H3/t8-/m1/s1
