21
gdb 118558	2.8304	0.78592	0.65113	3.4436	77.73	-0.2413	-0.0186	0.2228	1734.4425	0.178092	-461.345995	-461.334702	-461.333758	-461.38406	37.689	
C	 1.2339972156	 0.7866465325	 0.9178724396	-0.232222
O	 0.7989088226	-0.5343804397	 0.6909373001	-0.235968
C	-0.5775708209	-0.6154622151	 0.3938535376	-0.052018
C	-0.9584059551	-2.0727502663	 0.1306053072	 0.078059
C	-2.4851836164	-2.227948545	 0.0611671634	-0.291317
C	-2.9155620268	-3.676679185	-0.0313030276	 0.152449
O	-3.8320725114	-4.1513247946	 0.5903681389	-0.244354
O	-0.4562043738	-2.548671785	-1.1066193983	-0.256624
C	 0.8816335126	-3.0184263658	-1.0876236173	-0.239629
H	 2.300796243	 0.7445848313	 1.1492255166	 0.130653
H	 1.0850706423	 1.423333357	 0.0320370719	 0.109143
H	 0.7032741166	 1.2477975704	 1.7655416311	 0.107825
H	-1.1728510026	-0.2224076453	 1.23584429	 0.087211
H	-0.8222870569	-0.016197346	-0.4990417897	 0.095609
H	-0.5554284573	-2.6807968913	 0.9572747546	 0.084325
H	-2.9837365091	-1.770289222	 0.9193160604	 0.120275
H	-2.8299744794	-1.7199890831	-0.8507375802	 0.133764
H	-2.3141441789	-4.2882876793	-0.7365543886	 0.092951
H	 1.5944291275	-2.2155581816	-0.8779098169	 0.131662
H	 1.0148923855	-3.810499515	-0.3353747907	 0.105576
H	 1.0779749829	-3.4378644112	-2.0776210521	 0.122629
53.0291	57.7454	85.0128	98.7428	111.7956	130.4719	192.6845	229.6818	245.0812	306.8134	329.2743	379.723	433.7779	521.1876	578.3651	799.8124	855.6906	944.9675	977.6677	1013.8707	1085.0678	1108.5745	1117.2473	1144.4245	1169.061	1183.8548	1185.8498	1206.2265	1221.5835	1244.8375	1275.8954	1287.6113	1350.2342	1388.6308	1416.7784	1424.9905	1445.042	1475.8684	1479.8709	1484.5786	1485.8779	1496.8762	1516.3555	1521.6759	1830.1159	2915.3194	2952.3823	2972.7518	2975.3311	2992.4437	2996.2441	3020.7463	3023.8711	3080.9439	3109.9991	3118.3482	3122.6483
COCC(CC=O)OC	COC[C@@H](CC=O)OC	
InChI=1S/C6H12O3/c1-8-5-6(9-2)3-4-7/h4,6H,3,5H2,1-2H3	InChI=1S/C6H12O3/c1-8-5-6(9-2)3-4-7/h4,6H,3,5H2,1-2H3/t6-/m1/s1
