18
gdb 115024	2.15858	1.55209	0.9909	1.8573	77.69	-0.2557	0.0134	0.2691	1208.4342	0.146919	-401.930136	-401.921185	-401.920241	-401.964706	32.686	
C	-0.0836229648	 1.6083054265	-0.0765247287	-0.393409
C	-0.014315393	 0.0797469544	-0.1287930556	-0.187523
C	-1.3682010524	-0.5794647339	 0.0803338471	 0.094788
O	-2.2810115414	-0.1718053021	-0.9806736693	-0.227444
C	-2.8157216437	-1.3076386966	-1.4725104925	 0.123428
N	-2.4627125023	-2.4379403115	-1.0217300197	-0.259124
C	-1.4338329407	-2.1515554935	 0.0117871962	-0.209861
C	-0.1724002294	-2.8169574763	-0.3052628367	 0.378924
C	 0.8641595082	-3.3731706284	-0.5497247141	-0.478271
H	 0.906328206	 2.0474557341	-0.2298269944	 0.11646
H	-0.7516398644	 1.9953428545	-0.8506777128	 0.134728
H	-0.4568338302	 1.9563664691	 0.893231871	 0.114289
H	 0.3947426927	-0.2553336934	-1.0877582258	 0.118518
H	 0.6650557965	-0.2980758461	 0.6438049254	 0.112608
H	-1.815115764	-0.2317022508	 1.0183932359	 0.095487
H	-3.5465833669	-1.1551100135	-2.259562127	 0.144847
H	-1.7932465329	-2.5463268691	 0.9689796379	 0.120094
H	 1.7761399129	-3.8697994634	-0.7724978868	 0.201462
32.5972	105.8859	131.5101	192.8632	215.9964	252.1954	359.6126	405.2033	471.8726	516.1189	593.5469	627.6906	656.6684	748.5847	796.505	808.6929	873.7885	912.837	947.0159	971.4249	992.6705	1046.5025	1086.1927	1118.7902	1143.0253	1161.5502	1256.1343	1291.2536	1306.102	1322.0354	1346.295	1370.6497	1407.8574	1413.0079	1472.2217	1497.7376	1508.4507	1704.7874	2237.9646	3029.1718	3036.9935	3044.7461	3048.513	3083.8259	3106.2374	3122.2137	3211.8891	3502.7441
CCC1OC=NC1C#C	CC[C@H]1OC=N[C@H]1C#C	
InChI=1S/C7H9NO/c1-3-6-7(4-2)9-5-8-6/h1,5-7H,4H2,2H3	InChI=1S/C7H9NO/c1-3-6-7(4-2)9-5-8-6/h1,5-7H,4H2,2H3/t6-,7+/m0/s1
