20
gdb 126957	3.07125	1.05077	0.79597	1.4943	83.48	-0.1868	0.0417	0.2285	1466.372	0.17182	-399.355923	-399.346239	-399.345294	-399.390854	35.083	
C	-0.0152257779	 1.4700339844	 0.075802475	-0.401247
C	-0.0757601082	-0.0448793896	-0.0862245332	-0.094916
N	 0.7858093695	-0.4782218255	-1.1801123062	-0.391204
C	 0.8856357498	-1.8382388586	-1.4421120656	 0.357403
N	 0.4463053423	-2.7531420016	-0.5812152107	-0.319768
N	 0.7861942142	-3.9346280054	-1.1593321896	-0.210305
C	 1.4053656255	-3.7777307716	-2.3516959163	-0.106599
C	 1.4997390575	-2.4233868709	-2.5883840601	 0.127376
C	 2.1111846619	-1.7104482182	-3.7523686123	-0.524534
H	 1.0096405822	 1.8017465735	 0.2671860286	 0.125405
H	-0.3735802845	 1.9820180582	-0.8256691287	 0.108613
H	-0.6461637588	 1.7923132461	 0.9090612525	 0.118497
H	 0.2736954114	-0.5414577705	 0.8240518143	 0.127451
H	-1.1175765199	-0.37421114	-0.2309516284	 0.093529
H	 0.6683113905	 0.0728631265	-2.0198238582	 0.22633
H	 0.5589983296	-4.789339777	-0.6846990998	 0.267374
H	 1.7370737589	-4.6218511655	-2.9371106042	 0.125888
H	 1.3696931855	-1.1372333147	-4.3254017372	 0.117877
H	 2.8827741828	-1.0004667269	-3.430424113	 0.130097
H	 2.5783317777	-2.4143396826	-4.4467932169	 0.122732
70.3745	86.828	125.5205	130.1305	239.7846	255.2213	259.2577	317.9758	346.3292	383.6291	489.3874	571.4381	641.7973	644.8614	739.8047	785.1302	804.7809	836.0524	928.0088	942.9512	1003.1658	1066.2703	1075.5954	1081.8774	1127.9235	1152.3892	1199.5558	1252.559	1285.5968	1322.1334	1354.3198	1400.709	1417.3671	1422.114	1477.0263	1483.0713	1489.3285	1497.3395	1500.068	1504.7245	1525.1112	1563.0897	1635.9078	2971.8788	3009.4024	3029.9179	3055.4157	3073.5608	3099.8962	3105.3738	3118.5703	3249.8162	3570.7165	3699.2062
CCNC1=NNC=C1C	CCNc1n[nH]cc1C	
InChI=1S/C6H11N3/c1-3-7-6-5(2)4-8-9-6/h4H,3H2,1-2H3,(H2,7,8,9)	InChI=1S/C6H11N3/c1-3-7-6-5(2)4-8-9-6/h4H,3H2,1-2H3,(H2,7,8,9)
