19
gdb 82744	2.26899	2.18286	1.55152	2.3303	74.12	-0.2258	0.0598	0.2856	930.4576	0.161735	-419.148045	-419.140642	-419.139698	-419.179303	30.509	
C	-0.031358567	 1.4880100108	 0.0437439422	-0.510194
C	 0.0092792657	-0.0153948122	 0.0490503171	 0.294687
N	 0.8759731123	-0.7205852832	-0.9434415406	-0.348701
C	 0.8186649304	-1.8582316679	-0.0191703274	 0.00219
C	-0.6775434135	-2.1395980628	 0.4769137025	-0.101533
N	-0.2296684444	-1.80547542	 1.8537238268	-0.307897
C	 0.7251592899	-0.9112098059	 1.1874951375	-0.045301
C	-1.3131400424	-0.8163946707	-0.0310830404	 0.103193
O	-2.3003569777	-0.269519317	 0.8260709294	-0.442552
H	 0.972199397	 1.9031558906	 0.1725030328	 0.122957
H	-0.4353797397	 1.8696096136	-0.9015969205	 0.113304
H	-0.6741226518	 1.8519615702	 0.8504178197	 0.133701
H	 0.4352391324	-0.8682822067	-1.8521822485	 0.20401
H	 1.5118389118	-2.6904754837	-0.125027208	 0.083811
H	-1.20857308	-3.0809184164	 0.3268864978	 0.059926
H	-0.953898385	-1.3196911991	 2.3835411581	 0.215022
H	 1.5646630726	-0.4874437951	 1.736268776	 0.079088
H	-1.680260422	-0.8727839498	-1.0660185315	 0.057602
H	-3.0890974987	-0.8192451545	 0.7742896071	 0.286685
186.7887	212.8691	235.9584	291.7781	301.5105	370.3031	486.5866	517.1971	554.622	653.8204	715.7933	742.6076	796.1285	838.9285	842.9536	877.9927	888.0646	942.8493	988.0734	989.5685	1025.8698	1060.5746	1067.5508	1084.6856	1107.8559	1132.1865	1154.7856	1182.7756	1206.6929	1216.28	1252.9556	1282.9307	1288.3024	1309.4909	1329.4363	1357.2307	1369.3377	1411.7076	1423.7766	1485.4731	1491.1798	2996.5894	3031.2703	3095.8715	3101.7173	3121.3548	3130.1267	3141.3418	3435.2251	3453.0213	3811.4488
CC12NC3C(NC13)C2O	C[C@@]12N[C@@H]3[C@@H](N[C@H]13)[C@H]2O	
InChI=1S/C6H10N2O/c1-6-4-2(8-6)3(7-4)5(6)9/h2-5,7-9H,1H3	InChI=1S/C6H10N2O/c1-6-4-2(8-6)3(7-4)5(6)9/h2-5,7-9H,1H3/t2-,3-,4+,5-,6-/m1/s1
