19
gdb 87743	4.93994	0.85221	0.81029	1.7653	83.47	-0.2551	0.0478	0.3029	1455.1078	0.156826	-385.83343	-385.824337	-385.823392	-385.867334	34.455	
C	 0.0683915896	 1.5161869165	-0.2181335014	-0.415603
C	 0.0018880941	 0.0293817395	 0.0088855147	-0.028062
O	 1.2488977428	-0.6916863725	-0.0428168086	-0.295822
C	 0.5621752603	-0.6347442912	 1.1908404582	 0.440224
C	 1.1102520915	-0.0185132492	 2.4794810808	-0.32309
C	 0.1995429714	-1.0251208111	 3.2683327306	-0.169755
C	 0.0291161019	-1.8528536696	 1.9458430598	-0.32437
C	 0.7557293123	-1.6893190654	 4.4273118622	 0.313721
C	 1.2337723891	-2.2467226086	 5.3798949196	-0.446586
H	 0.8904337493	 1.9637834827	 0.3459806812	 0.128552
H	 0.2250674769	 1.7348630931	-1.2795349246	 0.132345
H	-0.8691506801	 1.9939405478	 0.087299414	 0.12081
H	-0.8133932123	-0.4836542308	-0.5061405159	 0.089843
H	 2.1696767488	-0.2498554232	 2.6148875423	 0.127263
H	 0.9459348686	 1.0456178804	 2.6612569254	 0.111611
H	-0.7469152438	-0.5427028144	 3.53122102	 0.105424
H	-0.973579133	-2.2138524679	 1.7077114638	 0.111516
H	 0.7349505743	-2.6864294332	 1.9060826467	 0.126994
H	 1.6517756885	-2.7378662527	 6.223218261	 0.194985
56.3592	121.374	173.78	196.8055	218.1106	249.027	360.1732	439.6299	453.5116	481.1813	535.388	553.8402	624.1595	625.1029	696.756	785.5181	830.3507	850.3027	935.8577	941.6316	991.2126	1014.0809	1037.5454	1071.7683	1105.763	1128.3425	1148.9729	1192.6705	1207.0188	1218.8195	1247.6068	1252.3298	1347.0916	1362.211	1409.9934	1465.8205	1471.4641	1488.4277	1491.284	1527.0038	2235.3629	3036.0639	3056.3594	3065.7606	3070.2185	3083.6404	3099.583	3124.347	3126.2522	3127.6007	3505.1202
CC1OC11CC(C1)C#C	C[C@H]1O[C@]21C[C@@H](C2)C#C	
InChI=1S/C8H10O/c1-3-7-4-8(5-7)6(2)9-8/h1,6-7H,4-5H2,2H3	InChI=1S/C8H10O/c1-3-7-4-8(5-7)6(2)9-8/h1,6-7H,4-5H2,2H3/t6-,7-,8+/m1/s1
