16
gdb 87103	2.45228	1.37542	1.00664	4.4316	71.6	-0.2869	-0.092	0.195	1185.4311	0.120688	-437.892405	-437.882767	-437.881822	-437.92733	33.48	
C	 0.2075588921	 1.0836856555	-0.4912249631	-0.428373
C	 0.4644487445	-0.2735407475	 0.1094774823	 0.020384
O	 1.7660948836	-0.5602436769	 0.6113713837	-0.267299
C	 0.6950994948	-0.5040753763	 1.5649132587	 0.253098
C	 0.708390645	 0.5873942374	 2.6054473867	-0.473064
C	 0.3072337895	-1.8567892362	 2.0940880448	 0.26856
O	-0.2097537523	-2.0384558341	 3.1676774153	-0.272314
C	 0.6023381749	-3.0058567323	 1.2075340292	 0.244345
N	 0.7849169066	-3.9348414067	 0.5440771096	-0.317722
H	 0.6908966775	 1.8830694387	 0.0714926875	 0.137868
H	 0.5943967661	 1.1062616759	-1.5149581238	 0.14662
H	-0.8686474475	 1.278886486	-0.5351178727	 0.13767
H	 0.0321488497	-1.1024649928	-0.4539464451	 0.1182
H	 1.0105057982	 1.5399493882	 2.1714775247	 0.135461
H	-0.2821350116	 0.6921996385	 3.0550604058	 0.148771
H	 1.4093861789	 0.3337093526	 3.4056319265	 0.147794
54.7632	113.9389	132.4945	145.1315	157.4787	246.3608	282.379	298.5916	357.2016	401.3654	457.6116	484.6194	605.7093	666.1379	732.5404	792.04	844.8865	913.0741	1001.0522	1048.1073	1079.2657	1097.2594	1136.7535	1186.9929	1285.3257	1347.4433	1406.8679	1418.4771	1447.3258	1472.0219	1481.9883	1490.6819	1509.0226	1787.1644	2340.5817	3047.8999	3061.31	3097.806	3110.5963	3125.9583	3147.1695	3162.3807
CC1OC1(C)C(=O)C#N	C[C@H]1O[C@]1(C)C(=O)C#N	
InChI=1S/C6H7NO2/c1-4-6(2,9-4)5(8)3-7/h4H,1-2H3	InChI=1S/C6H7NO2/c1-4-6(2,9-4)5(8)3-7/h4H,1-2H3/t4-,6+/m1/s1
