23
gdb 108507	2.61877	1.38954	1.1576	1.7938	84.2	-0.2412	0.076	0.3171	1199.3072	0.207505	-388.299487	-388.29086	-388.289916	-388.332503	33.973	
C	-0.2263835647	 1.5935361994	-0.0705010218	-0.386078
C	-0.0201174976	 0.0747014122	-0.0202917543	-0.278409
C	 0.7966395261	-0.4728314485	-1.1856134231	 0.320332
C	 0.0832281778	-0.5233767114	-2.5594732724	-0.118029
O	 0.2862689207	-1.9454642259	-2.6772005397	-0.30225
C	 0.8908632005	-2.0212856236	-1.363381017	 0.091717
C	 2.3673482015	-2.3934534258	-1.4248935989	-0.223305
C	 3.0453388649	-1.1096913882	-1.9415524672	-0.221153
C	 2.2559002156	 0.0244116845	-1.2539782007	-0.270742
H	 0.7269167534	 2.1296887567	-0.0255753732	 0.120127
H	-0.7330837954	 1.8946603151	-0.9942590136	 0.117922
H	-0.8397075437	 1.9347023718	 0.7689085635	 0.114489
H	 0.4766293153	-0.1960857229	 0.9212308913	 0.093436
H	-0.9982255389	-0.4230095749	-0.0047041895	 0.097387
H	-0.9846110046	-0.2660044241	-2.532405528	 0.091518
H	 0.5596978252	 0.0296364648	-3.3796100414	 0.09385
H	 0.2963267493	-2.6488520415	-0.6887202006	 0.061321
H	 2.7186119694	-2.6360445529	-0.413486534	 0.093384
H	 2.5408252942	-3.2679324205	-2.058580229	 0.107083
H	 4.1165140481	-1.0703242972	-1.7267566666	 0.093714
H	 2.9287849116	-1.0471976806	-3.0286267226	 0.113092
H	 2.3511159289	 0.9823629397	-1.7748242696	 0.096843
H	 2.6326126825	 0.1738365739	-0.2336903515	 0.093749
106.9801	128.7544	175.9216	217.9719	239.1838	306.6119	360.2742	373.2432	434.0417	567.5601	613.6805	644.8255	791.3438	830.0852	843.3194	873.5222	903.7117	914.0547	944.9983	961.8875	981.842	992.037	1022.8362	1044.2627	1052.4201	1074.9791	1112.4577	1140.4291	1162.5761	1185.4045	1227.5969	1229.4593	1268.359	1284.4082	1309.8308	1319.6769	1337.648	1340.0433	1367.7577	1369.9412	1384.6134	1414.2907	1469.7808	1484.0467	1490.0777	1500.5143	1503.484	1507.413	1528.6357	2995.7656	3011.4896	3022.332	3023.1197	3034.4434	3037.9208	3040.03	3046.6828	3051.5453	3079.1052	3092.502	3100.2773	3102.4427	3107.7255
CCC12COC1CCC2	CC[C@]12CO[C@H]1CCC2	
InChI=1S/C8H14O/c1-2-8-5-3-4-7(8)9-6-8/h7H,2-6H2,1H3	InChI=1S/C8H14O/c1-2-8-5-3-4-7(8)9-6-8/h7H,2-6H2,1H3/t7-,8-/m0/s1
