17
gdb 34940	2.87555	1.50472	1.21878	5.3652	76.74	-0.2322	0.035	0.2671	1047.9407	0.136651	-380.814311	-380.806632	-380.805688	-380.84654	29.97	
N	 0.0081101801	-1.164014603	 0.0494860187	-0.350898
C	 0.0443320038	-0.0083971004	 0.0715052572	 0.320557
C	 0.0647647215	 1.430621249	 0.0683899317	-0.195681
C	 0.5515546842	 2.2559748919	 1.2381429924	-0.021162
N	 1.5919975292	 1.5118115585	 1.9727584096	-0.364376
C	 2.4496907906	 1.5879780064	 0.7544820585	 0.371265
C	 3.9001796443	 1.9491717714	 0.7609260573	-0.358423
C	 3.4499573563	 0.5578772045	 0.3466321356	-0.294384
C	 1.3497568742	 2.2510878126	-0.0474664159	-0.190596
H	-0.7711062308	 1.878789559	-0.4613915136	 0.134514
H	-0.0704383851	 3.0086534214	 1.7062658301	 0.111859
H	 1.9806892338	 2.0967576156	 2.7072879849	 0.22831
H	 4.2656804881	 2.62762	-0.0035427712	 0.120252
H	 4.3902823905	 2.0568873678	 1.7238874055	 0.11901
H	 3.6228439333	-0.256190422	 1.0411505523	 0.135407
H	 3.5124816814	 0.2825943623	-0.7003445084	 0.125162
H	 1.4742475947	 2.984189725	-0.8344985148	 0.109183
84.2549	137.7204	207.6695	272.6728	308.3228	392.0498	442.0672	552.8937	608.9621	639.0879	742.3954	756.6007	798.3516	809.699	865.444	898.5452	917.4806	956.6207	965.3351	973.3334	997.7729	1025.4008	1050.7451	1054.4533	1075.7643	1097.7308	1157.7847	1184.7563	1204.0721	1261.6748	1311.7244	1338.5949	1405.4443	1424.7624	1456.3754	1503.054	2356.4512	3121.6694	3140.9512	3157.2382	3184.9422	3198.2458	3204.5778	3231.6211	3507.4063
N#CC1C2NC3(CC3)C12	N#C[C@H]1[C@H]2NC3(CC3)[C@@H]12	
InChI=1S/C7H8N2/c8-3-4-5-6(4)9-7(5)1-2-7/h4-6,9H,1-2H2	InChI=1S/C7H8N2/c8-3-4-5-6(4)9-7(5)1-2-7/h4-6,9H,1-2H2/t4-,5+,6-/m1/s1
