20
gdb 116790	5.49395	0.61032	0.59274	2.9042	80.54	-0.2504	0.0222	0.2726	1926.6648	0.16917	-440.250939	-440.241165	-440.240221	-440.287652	33.986	
C	 0.5197454812	 0.7243157152	 0.6612273089	-0.397163
C	-0.2886625402	 0.2189378895	-0.5385340491	-0.110885
N	 0.3778985333	-0.5893687254	-1.5459197695	-0.225724
C	 1.5995143698	-0.8563219878	-1.4513119512	 0.116212
O	 2.2072955673	-1.586782439	-2.4210937802	-0.207502
C	 3.5413383281	-1.981591815	-2.1970311516	 0.075834
C	 3.7918236601	-3.4712657823	-1.87397447	-0.09523
O	 4.7048978031	-3.5833576746	-2.9849724232	-0.269833
C	 4.3339033997	-2.2795775118	-3.4801618236	-0.098254
H	 0.9336715403	-0.100279095	 1.2517359987	 0.118696
H	 1.3470858534	 1.3731536464	 0.3540560713	 0.119052
H	-0.1305664834	 1.3079627967	 1.3195860752	 0.117945
H	-1.1432159346	-0.367901839	-0.1765440095	 0.115234
H	-0.7331515754	 1.0759388873	-1.0618475635	 0.115457
H	 2.2779022044	-0.5460742283	-0.646344292	 0.079111
H	 4.0421465183	-1.2892513444	-1.5119976199	 0.094438
H	 4.271378454	-3.7096331381	-0.9181657611	 0.10658
H	 2.8929012304	-4.0874549345	-2.0043614869	 0.115821
H	 3.6886767531	-2.3340458052	-4.3658979932	 0.120095
H	 5.2056556372	-1.6523142948	-3.6938145696	 0.110114
24.8944	57.4511	79.4195	135.1167	170.8435	233.2162	268.2435	322.7376	376.9168	402.2164	454.097	593.8085	759.8177	779.6197	875.0115	883.9228	914.0755	979.0637	995.8446	1027.7177	1037.2204	1072.607	1085.136	1122.129	1147.7863	1151.7287	1153.8923	1199.0122	1239.6285	1262.793	1301.5334	1315.5085	1348.3802	1378.9923	1393.7936	1406.3669	1436.7755	1484.6001	1495.4464	1500.2316	1507.0366	1528.1494	1781.9696	3015.2063	3016.5009	3027.7054	3027.8223	3035.5583	3037.1233	3047.8233	3074.5869	3082.1906	3099.4928	3108.1124
CCN=COC1COC1	CCN=COC1COC1	
InChI=1S/C6H11NO2/c1-2-7-5-9-6-3-8-4-6/h5-6H,2-4H2,1H3	InChI=1S/C6H11NO2/c1-2-7-5-9-6-3-8-4-6/h5-6H,2-4H2,1H3
