16
gdb 20979	4.66086	1.61598	1.22724	3.1674	67.86	-0.2103	0.0059	0.2162	963.5201	0.130895	-379.905844	-379.898057	-379.897113	-379.938211	27.887	
C	 0.1952726374	 1.4203360457	 0.0376223191	-0.336647
N	-0.2232824059	 0.0317627966	-0.0132451769	-0.15063
C	-0.0440552336	-0.7370036747	 1.2089413469	-0.329576
C	-0.0887811439	-0.6491400021	-1.2009571829	 0.476944
N	 0.0100565765	-1.9685139856	-1.2230558707	-0.249174
O	 0.0500504856	-2.3184471831	-2.5805724367	-0.178331
C	-0.0006745467	-1.2035855248	-3.3135914729	 0.092235
C	-0.0845061461	-0.1041139853	-2.5287342913	-0.360169
H	 1.290443418	 1.5443109694	 0.0382538821	 0.116593
H	-0.2134272781	 1.974894561	-0.8099978156	 0.133042
H	-0.1988224357	 1.8748135194	 0.9507985487	 0.129085
H	-0.4232709651	-0.1537200952	 2.0524246922	 0.116181
H	-0.6044033949	-1.6700635545	 1.1353048558	 0.159499
H	 1.0101548638	-0.9904417189	 1.399700072	 0.117575
H	 0.0291836277	-1.3401613102	-4.3842074074	 0.146785
H	-0.142239949	 0.9234937023	-2.8418646223	 0.11659
74.3386	145.2601	170.662	183.2995	254.3804	355.0346	387.23	500.2377	589.5395	615.9907	726.2291	768.8058	865.3126	908.9307	935.3349	939.1545	1023.499	1084.0607	1098.874	1128.3535	1172.6912	1177.4394	1235.4191	1279.6592	1360.4508	1443.3928	1448.9882	1466.2605	1480.8882	1491.7476	1500.0616	1507.2469	1559.629	1631.1236	2974.0301	2991.0568	3081.4783	3085.1389	3124.0879	3142.5972	3256.2171	3292.238
CN(C)C1=NOC=C1	CN(C)c1nocc1	
InChI=1S/C5H8N2O/c1-7(2)5-3-4-8-6-5/h3-4H,1-2H3	InChI=1S/C5H8N2O/c1-7(2)5-3-4-8-6-5/h3-4H,1-2H3
