16
gdb 54505	3.2638	1.46076	1.15667	1.8373	69.23	-0.244	-0.0191	0.2249	1048.0449	0.123684	-437.903812	-437.895935	-437.894991	-437.936621	29.372	
C	 0.0429921424	 1.2411489057	-0.69844352	-0.482361
C	-0.0900727354	 0.1127755164	 0.297208039	 0.307373
O	 0.7364249317	-0.1155818102	 1.1559404932	-0.323567
C	-1.3062301718	-0.750006664	 0.1826196842	 0.217281
C	-1.8387164552	-1.43973294	 1.4362993302	-0.339827
C	-1.2584614753	-2.2813234551	 0.361999466	 0.045565
O	-2.155047206	-2.7799390982	-0.6157348228	-0.208477
C	-2.6825061214	-1.6809948325	-1.2183623855	 0.086549
N	-2.2666759497	-0.5291436261	-0.8733103066	-0.316487
H	 0.9658221969	 1.7893014547	-0.5075132851	 0.136629
H	 0.0373953682	 0.8460418381	-1.7196174817	 0.147466
H	-0.8225694089	 1.9078935631	-0.627810123	 0.154815
H	-1.2134889456	-1.3090935587	 2.3118214873	 0.154268
H	-2.912346155	-1.4334038869	 1.5889593162	 0.131581
H	-0.3610963752	-2.873259386	 0.4811737616	 0.137326
H	-3.4305158797	-1.8916584604	-1.972377793	 0.151866
62.2681	136.733	170.5487	196.1734	329.9055	381.2968	430.8825	496.1241	572.6869	600.6178	649.2454	750.2352	765.2793	849.5271	900.2024	934.1962	946.8195	966.6278	992.8222	1041.2171	1047.75	1069.2068	1098.5393	1142.6503	1157.8354	1234.7883	1306.5574	1331.5624	1375.4558	1392.4206	1446.2186	1453.8684	1466.3475	1661.6713	1789.8481	3046.474	3107.5497	3137.9084	3159.6725	3213.4338	3234.9144	3243.1202
CC(=O)C12CC1OC=N2	CC(=O)[C@]12C[C@H]1OC=N2	
InChI=1S/C6H7NO2/c1-4(8)6-2-5(6)9-3-7-6/h3,5H,2H2,1H3	InChI=1S/C6H7NO2/c1-4(8)6-2-5(6)9-3-7-6/h3,5H,2H2,1H3/t5-,6-/m1/s1
