19
gdb 85410	1.97164	1.63502	0.95816	4.3864	79.4	-0.2537	0.0092	0.2629	1253.3792	0.158245	-423.085354	-423.076211	-423.075267	-423.120575	33.377	
C	 0.1714991663	 1.4888398165	-0.1674527334	-0.383646
C	-0.0745277506	 0.0007694522	 0.0987619575	 0.084082
O	 0.2160595252	-0.7114013732	-1.1209908599	-0.239739
C	 1.1597975239	-1.6667031575	-1.2532899457	 0.410311
O	 1.3274431863	-2.1762331135	-2.3283579593	-0.329211
C	 1.9802228615	-2.0696492334	-0.0388355234	-0.448518
C	 1.6023341881	-1.435694513	 1.2693381297	 0.282572
C	 2.3364715393	-1.9168186289	 2.4881848154	-0.473139
C	 0.6611123466	-0.4975325975	 1.3020366775	-0.163574
H	 1.2368983578	 1.6771182045	-0.3285159053	 0.12631
H	-0.381566635	 1.8076773105	-1.054464695	 0.135559
H	-0.161239995	 2.0867112418	 0.6865718555	 0.11973
H	-1.1528966817	-0.1464068502	 0.2533346136	 0.106099
H	 1.9264117618	-3.16418217	 0.0228287569	 0.145809
H	 3.0299487341	-1.8585277636	-0.2854222183	 0.147079
H	 3.4182447859	-1.7655201676	 2.3815999766	 0.12977
H	 2.0058672785	-1.3963847689	 3.3905335045	 0.125983
H	 2.1865817162	-2.9936658165	 2.6375953095	 0.130702
H	 0.3782955008	-0.0261145719	 2.2398958038	 0.09382
21.236	74.9533	142.8165	196.3039	242.8497	291.3627	339.7717	402.3107	434.2106	472.2904	510.3796	555.5066	583.4094	686.2228	809.6129	846.9578	903.4457	918.6867	961.7288	989.3276	1019.1271	1064.8813	1068.5191	1105.0814	1168.7795	1190.2813	1220.5262	1233.2847	1316.363	1349.4363	1387.4858	1400.2936	1404.1708	1416.3183	1448.1322	1477.4991	1485.6732	1490.5405	1494.8535	1769.4162	1838.3956	3003.0918	3017.7853	3023.8634	3043.1992	3048.8726	3066.1616	3116.6992	3118.9078	3129.3459	3161.0484
CC1OC(=O)CC(C)=C1	C[C@H]1OC(=O)CC(=C1)C	
InChI=1S/C7H10O2/c1-5-3-6(2)9-7(8)4-5/h3,6H,4H2,1-2H3	InChI=1S/C7H10O2/c1-5-3-6(2)9-7(8)4-5/h3,6H,4H2,1-2H3/t6-/m1/s1
