19
gdb 115147	2.55054	1.29969	1.00764	3.9536	70.75	-0.2613	0.0159	0.2773	1211.5685	0.159432	-460.207846	-460.19882	-460.197876	-460.241734	33.182	
C	-0.6696530809	 1.3737684934	 0.081284692	-0.411498
C	 0.0059162302	 0.0067507674	-0.004942672	-0.159994
C	 0.6834612741	-0.425681105	-1.3201540885	-0.030005
C	 1.3777173166	 0.7123966939	-2.0678353178	-0.093106
O	 2.0198282917	 0.1375395879	-3.1965246952	-0.421474
C	 1.7059859555	-1.4492374685	-0.7951979358	-0.094431
O	 2.0785876177	-0.9929810333	 0.5204643463	-0.226545
C	 1.1300506478	-0.1595586392	 1.0212629231	 0.444793
O	 1.2139046367	 0.3360529722	 2.108319616	-0.347058
H	 0.0233613539	 2.1865552811	-0.1526554099	 0.127701
H	-1.5207592098	 1.4387357225	-0.6027059719	 0.116803
H	-1.0271096218	 1.5362989421	 1.1008563206	 0.144563
H	-0.7351346199	-0.7632945006	 0.2548968636	 0.113801
H	-0.0173201735	-0.9024538484	-2.0108511847	 0.092171
H	 0.6373499315	 1.4648381025	-2.3744682704	 0.097128
H	 2.1042727884	 1.2113861089	-1.4063870714	 0.102877
H	 2.5175283477	 0.8260570068	-3.6466157576	 0.292241
H	 1.2739158471	-2.4526866042	-0.7080565629	 0.11156
H	 2.6073321469	-1.4979523595	-1.4064339033	 0.140474
74.0136	129.0122	171.0698	199.5805	233.3878	253.7466	262.625	302.5839	418.2121	463.7349	528.9886	612.528	712.9506	740.9055	783.384	850.0143	906.1667	975.4702	1000.077	1029.2796	1058.8218	1076.9102	1103.7024	1133.3716	1165.1095	1189.0603	1211.0806	1242.677	1261.6413	1279.6597	1322.6316	1345.6449	1374.3423	1392.5522	1416.1917	1459.7641	1495.1956	1503.1286	1521.5399	1523.1822	1875.7007	2973.89	3005.5981	3015.2361	3041.5426	3049.4387	3078.2787	3119.0943	3129.3169	3135.4476	3835.1027
CC1C(CO)COC1=O	C[C@H]1[C@@H](CO)COC1=O	
InChI=1S/C6H10O3/c1-4-5(2-7)3-9-6(4)8/h4-5,7H,2-3H2,1H3	InChI=1S/C6H10O3/c1-4-5(2-7)3-9-6(4)8/h4-5,7H,2-3H2,1H3/t4-,5-/m0/s1
