16
gdb 19737	4.02424	2.51946	2.27899	1.8542	62.69	-0.2272	0.0933	0.3205	676.4698	0.13402	-383.716105	-383.710827	-383.709883	-383.745166	22.479	
C	-0.032551415	 1.5768986656	 0.0465415416	-0.254728
C	 1.4985376803	 1.3753695022	 0.0043486566	 0.052477
O	 1.7613490783	 0.7488422087	 1.2715597544	-0.283583
C	 0.885383117	-0.402444556	 1.1776165836	 0.057532
C	 1.7505443283	-1.5061527377	 0.5740699073	-0.073406
O	 2.0690606673	-0.9863073282	-0.7307734911	-0.277806
C	 1.2360606332	 0.1300362333	-0.9201325521	 0.134927
C	-0.0201755031	 0.0307100608	-0.0072668191	-0.108537
H	-0.4308766294	 2.0698510204	 0.9345958241	 0.108923
H	-0.4449756399	 2.0157992045	-0.8648199692	 0.10481
H	 2.2263867029	 2.1615582214	-0.187434211	 0.082707
H	 0.4222367703	-0.617794793	 2.1411523044	 0.082306
H	 2.6724234705	-1.6491692181	 1.1448896868	 0.116785
H	 1.2250046408	-2.4683804795	 0.4809665391	 0.089591
H	 1.0938154055	 0.334172921	-1.9803133548	 0.090159
H	-0.886079117	-0.5866502454	-0.2398940606	 0.077843
269.1172	387.1683	412.8003	490.5788	625.5308	708.7459	755.8829	800.6267	853.2424	861.1022	881.1453	924.6619	935.6277	947.3313	968.9485	998.8223	1023.1156	1039.8697	1069.1972	1096.7501	1110.5811	1120.2688	1185.2912	1198.1007	1225.4371	1240.1422	1255.954	1277.2999	1287.9306	1324.729	1344.9722	1392.0463	1487.4017	1507.8089	2993.9964	3073.4301	3087.3496	3112.9062	3130.5399	3136.6738	3138.8443	3146.1745
C1C2OC3COC2C13	C1[C@H]2O[C@@H]3CO[C@H]2[C@H]13	
InChI=1S/C6H8O2/c1-3-5-2-7-6(3)4(1)8-5/h3-6H,1-2H2	InChI=1S/C6H8O2/c1-3-5-2-7-6(3)4(1)8-5/h3-6H,1-2H2/t3-,4-,5-,6+/m1/s1
