16
gdb 125578	3.21028	1.44695	1.00358	0.7951	79.06	-0.2041	-0.0307	0.1734	1139.1747	0.126391	-430.283915	-430.275623	-430.274679	-430.316521	31.513	
C	-0.2242229999	 1.4853383236	 0.0064730243	-0.451972
C	 0.0021159309	 0.0025991849	-0.0151416056	 0.367866
N	 0.069577171	-0.5788140872	-1.176219715	-0.265988
N	 0.2774192814	-1.9309345527	-1.1353426123	-0.318096
C	 0.4170496819	-2.7091488157	-0.0192844107	 0.356372
N	 0.612915	-3.9784997884	 0.0662907001	-0.585776
C	 0.3158611968	-1.8989979125	 1.2177278728	 0.403766
N	 0.4430468138	-2.5950487023	 2.3553523156	-0.545774
N	 0.1186726915	-0.6103034784	 1.2107321957	-0.38198
H	 0.5997178426	 1.9862429951	 0.5254892614	 0.134027
H	-0.3038160901	 1.8740912809	-1.0091812383	 0.133782
H	-1.1393134632	 1.7202359211	 0.560137221	 0.134025
H	 0.3262938489	-2.3614175211	-2.0462087514	 0.261568
H	 0.6650834259	-4.4292935924	-0.8475023439	 0.204488
H	 0.5948250221	-3.5888189463	 2.2770931449	 0.286245
H	 0.3889274661	-2.1256321588	 3.2420164813	 0.267448
101.0463	150.7193	189.3002	260.5108	299.1043	333.8061	349.874	448.2166	495.7923	529.6416	575.8869	581.0433	635.1721	674.5457	722.2965	784.4465	798.8852	819.2445	967.2683	995.357	1064.1766	1117.48	1128.0471	1210.4155	1328.9244	1373.3904	1412.8889	1429.9502	1474.8547	1478.5717	1483.2915	1561.2707	1629.6157	1659.7121	1700.7868	3042.1417	3096.8461	3151.3383	3470.98	3588.5631	3622.6854	3741.0395
CC1=NNC(=N)C(N)=N1	Cc1n[nH]c([NH])c(N)n1	
InChI=1S/C4H7N5/c1-2-7-3(5)4(6)9-8-2/h1H3,(H2,6,9)(H2,5,7,8)	InChI=1S/C4H12N5/c1-2-7-3(5)4(6)9-8-2/h2-4,6-9H,5H2,1H3
