18
gdb 31810	4.57041	0.96898	0.85669	1.4037	82.87	-0.2256	-0.0191	0.2065	1367.5279	0.14955	-402.030349	-402.02216	-402.021216	-402.063672	31.048	
C	 0.0229479938	 1.5339876242	 0.1322785727	-0.365027
C	-0.0795883851	 0.011111447	-0.060644753	-0.295797
C	 0.6811869021	-0.4863435797	-1.266411829	 0.258716
C	 0.0389576561	-0.7912266886	-2.4623258008	-0.074835
N	 0.6596553082	-1.2100841758	-3.5722951417	-0.364125
C	 1.9777271027	-1.3440167666	-3.525299413	 0.430615
O	 2.6023895121	-1.766745334	-4.6461045901	-0.419618
C	 2.7431798924	-1.0766213457	-2.3846334382	-0.204242
C	 2.0746259904	-0.6449308999	-1.2536438879	-0.139643
H	 1.0652186186	 1.8458555178	 0.2550772714	 0.118793
H	-0.3809362157	 2.0655995441	-0.7350838536	 0.122085
H	-0.5326556029	 1.855233827	 1.0190039001	 0.113768
H	 0.2918627293	-0.4914682244	 0.8408435764	 0.105314
H	-1.1341193931	-0.2710567076	-0.1576219234	 0.105017
H	-1.0431263256	-0.6979174664	-2.5352709486	 0.102517
H	 1.9041054417	-1.8950067566	-5.3031980001	 0.296112
H	 3.8170595801	-1.2141478326	-2.4076949248	 0.10891
H	 2.634109035	-0.4317308823	-0.3468236764	 0.101442
48.0119	103.3679	210.0414	224.8779	321.732	391.6408	432.5669	440.3501	495.2825	525.938	592.3587	659.757	740.7073	785.0657	792.9132	861.0128	875.2761	960.703	972.6599	986.9095	1034.0146	1070.4109	1085.381	1147.8934	1191.6963	1239.8281	1275.7873	1329.6706	1336.7623	1353.9601	1366.6906	1407.5996	1454.1148	1485.2398	1496.037	1506.8668	1529.9804	1629.1948	1654.0347	3027.4259	3034.0094	3063.9538	3105.9708	3109.4652	3142.9449	3167.2043	3211.1045	3766.5453
CCC1=CN=C(O)C=C1	CCc1cnc(O)cc1	
InChI=1S/C7H9NO/c1-2-6-3-4-7(9)8-5-6/h3-5H,2H2,1H3,(H,8,9)	InChI=1S/C7H9NO/c1-2-6-3-4-7(9)8-5-6/h3-5H,2H2,1H3,(H,8,9)
