21
gdb 111751	2.55714	1.16741	0.97003	2.1514	78.62	-0.232	0.069	0.3009	1319.9232	0.181425	-424.181272	-424.171683	-424.170738	-424.216057	35.365	
C	-0.0261041916	 1.5212069066	-0.0587292873	-0.37721
C	-0.0227256301	 0.0019697829	 0.1630659505	-0.286477
C	-1.384482311	-0.5957572635	-0.009618808	 0.46089
O	-2.3932587067	-0.2039209398	 0.9431895865	-0.321556
C	-2.8881935909	-1.5660942363	 1.0019419853	-0.099068
C	-1.9294119856	-2.0107187471	-0.0948333031	-0.241885
C	-2.0188693553	-1.0589269212	-1.2887785596	-0.102241
C	-3.3195610525	-0.5337386099	-1.8490963742	-0.094681
O	-4.020811885	-1.5132216722	-2.6063377476	-0.422952
H	 0.9687010679	 1.9426745981	 0.1119398216	 0.112641
H	-0.3298854879	 1.7697245621	-1.0806696365	 0.118795
H	-0.7248522651	 2.0073186322	 0.6279988035	 0.138702
H	 0.663880038	-0.4841308462	-0.5397311117	 0.103172
H	 0.338355277	-0.2237995118	 1.1738297801	 0.10691
H	-2.6664765863	-2.0138643857	 1.9773064595	 0.112084
H	-3.9672140953	-1.625357856	 0.8127470394	 0.101293
H	-1.4091140614	-2.9586276938	-0.1364269106	 0.09962
H	-1.2824766716	-1.3186977317	-2.0472462367	 0.094396
H	-3.9385761005	-0.1230072334	-1.0405862466	 0.106936
H	-3.1180550107	 0.2860031422	-2.5468199037	 0.109957
H	-4.1287493855	-2.2853828855	-2.0412881209	 0.280674
66.1001	86.9266	117.7242	185.9368	215.2831	243.9104	284.6112	307.6229	334.1173	398.3485	532.4585	544.8711	703.9462	738.3194	787.1542	846.3114	883.672	926.2935	969.0231	975.1194	983.3143	1008.0473	1012.2264	1049.2042	1059.3297	1104.2732	1105.3773	1150.1048	1164.5764	1192.4186	1202.584	1262.4386	1289.337	1324.8725	1338.9076	1354.9905	1377.2553	1407.6685	1419.122	1472.7124	1480.9983	1498.7743	1509.2738	1511.9445	1524.1199	3016.6669	3021.6202	3029.4466	3040.7336	3064.365	3068.5431	3071.4475	3110.6157	3120.0044	3133.9367	3196.854	3810.5181
CCC12OCC1C2CO	CC[C@]12OC[C@H]1[C@H]2CO	
InChI=1S/C7H12O2/c1-2-7-5(3-8)6(7)4-9-7/h5-6,8H,2-4H2,1H3	InChI=1S/C7H12O2/c1-2-7-5(3-8)6(7)4-9-7/h5-6,8H,2-4H2,1H3/t5-,6+,7-/m1/s1
