16
gdb 15245	3.12904	1.53871	1.42222	2.4743	66.83	-0.2505	0.0299	0.2804	945.8734	0.128839	-383.679761	-383.671307	-383.670363	-383.712523	31.311	
O	 0.0735115114	 1.2273706962	-0.524942475	-0.424832
C	-0.0458741931	 0.1152733365	 0.3444622127	-0.091946
C	-1.4188210178	-0.5265060094	 0.244700353	-0.081769
C	-1.8161045379	-1.1411478909	-1.0636296932	 0.09634
O	-0.8799329308	-1.1302903065	-2.1018764287	-0.427181
C	-1.5851957555	-2.0511152142	 0.138166716	-0.267431
C	-0.4576052782	-2.9311306829	 0.0867929133	 0.293859
C	 0.4786428253	-3.6787831966	-0.0413803723	-0.435043
H	-0.0155570142	 0.8684562322	-1.4165929705	 0.294141
H	 0.7332455439	-0.6330432038	 0.1502011281	 0.099748
H	 0.115097331	 0.4936485758	 1.3585876229	 0.110257
H	-2.2105234999	-0.0254274315	 0.7933263737	 0.102289
H	-2.8394438357	-1.0317115734	-1.4133225807	 0.108542
H	-0.3944156731	-1.9661822212	-2.0854592323	 0.296047
H	-2.4727455411	-2.4696754058	 0.6026887294	 0.121692
H	 1.3080559455	-4.3393774943	-0.1041059766	 0.205289
94.9682	126.3967	137.4883	215.4703	260.3563	313.3236	373.9229	386.1327	525.1902	589.3551	606.2058	617.5611	662.3913	664.7182	774.8856	783.2616	874.1222	947.0063	1009.5118	1032.6562	1072.3899	1109.2121	1121.1435	1137.345	1226.1724	1243.2748	1341.9364	1350.9122	1368.2673	1410.5901	1418.7947	1441.8313	1510.3213	2222.9642	3022.5563	3081.9432	3137.6884	3150.9116	3163.4114	3500.3843	3741.776	3784.8906
OCC1C(O)C1C#C	OC[C@H]1[C@@H](O)[C@H]1C#C	
InChI=1S/C6H8O2/c1-2-4-5(3-7)6(4)8/h1,4-8H,3H2	InChI=1S/C6H8O2/c1-2-4-5(3-7)6(4)8/h1,4-8H,3H2/t4-,5+,6-/m0/s1
