19
gdb 93381	2.72141	1.52297	1.15858	3.4693	75.23	-0.2319	-0.0069	0.225	1083.135	0.160784	-423.045879	-423.037917	-423.036973	-423.078316	31.507	
O	 0.0319995098	 1.4531408445	-0.0560466556	-0.430673
C	 0.0252183122	 0.0253341242	-0.0119163995	 0.095527
C	 0.8225831206	-0.493504825	 1.1932379472	-0.234996
C	 0.0888495106	-0.2114240629	 2.5153325295	-0.31262
C	-1.2146863728	-0.998797875	 2.5571643448	 0.400827
O	-1.5369521578	-1.6698462928	 3.5137553347	-0.335532
C	-2.0442484462	-0.950790412	 1.3190935651	-0.121474
C	-2.4486074715	 0.3954491475	 0.7349624193	-0.276446
C	-1.4344120937	-0.4328923709	 0.0164849908	-0.045419
H	 0.9501353599	 1.7398417179	-0.1035038462	 0.282063
H	 0.4820865732	-0.371165767	-0.9302085819	 0.070537
H	 0.9793136969	-1.5733480499	 1.078763041	 0.110241
H	 1.8187391651	-0.0330249945	 1.2003000657	 0.090088
H	 0.6799934858	-0.495696555	 3.3881913691	 0.118092
H	-0.1191795462	 0.8632370059	 2.5830983816	 0.127109
H	-2.7784089955	-1.7464015766	 1.2621101101	 0.102818
H	-3.4487876373	 0.463603468	 0.3234357065	 0.122399
H	-2.0997016619	 1.2962141623	 1.2234581016	 0.141195
H	-1.7726274312	-0.9381761587	-0.8814341335	 0.096264
75.0175	161.1466	218.2038	303.0864	319.8738	373.7549	397.5967	470.8524	475.6771	552.975	636.7017	715.8279	733.8404	778.0625	834.7769	871.6807	889.2945	948.5558	961.6647	981.6171	1021.794	1058.7699	1070.2875	1090.4858	1117.2512	1128.7769	1188.8283	1197.437	1205.7046	1253.3773	1259.0196	1327.2799	1353.3439	1369.3533	1380.9732	1397.0009	1431.1758	1467.1051	1487.7602	1494.0275	1798.2088	2986.8547	3023.1136	3042.2729	3062.7184	3115.1738	3150.9002	3164.0778	3180.4612	3241.8692	3810.4172
OC1CCC(=O)C2CC12	O[C@H]1CCC(=O)[C@H]2C[C@@H]12	
InChI=1S/C7H10O2/c8-6-1-2-7(9)5-3-4(5)6/h4-6,8H,1-3H2	InChI=1S/C7H10O2/c8-6-1-2-7(9)5-3-4(5)6/h4-6,8H,1-3H2/t4-,5+,6+/m1/s1
