23
gdb 85905	2.56073	1.36265	1.18564	1.4367	84.61	-0.2526	0.0749	0.3276	1197.2366	0.205641	-388.301346	-388.292126	-388.291181	-388.334419	37.038	
C	 0.0400417988	 1.6041757771	 0.0124552506	-0.398304
C	 0.0510680078	 0.0738741184	 0.0292036824	 0.029134
C	 0.7421969801	-0.5668254439	-1.1960009296	-0.303677
C	 1.2449172645	-1.9651615912	-0.7387942998	 0.39076
C	 0.1925949119	-3.0552425445	-0.9758686229	-0.437022
O	 2.472371343	-2.3297806374	-1.3736926017	-0.478248
C	 1.4991717276	-1.7918098296	 0.7527807232	-0.037966
C	 2.2858761962	-0.5815350518	 1.1842894438	-0.306754
C	 0.777887562	-0.5487449906	 1.2202857979	-0.035329
H	 1.0610687065	 2.0008972296	 0.0083855694	 0.115431
H	-0.4746301272	 1.9891105324	-0.8746687646	 0.108715
H	-0.4704981002	 2.0063230482	 0.8941154438	 0.109743
H	-0.9904511709	-0.274868419	 0.0633854934	 0.069395
H	 0.0781199983	-0.6272130478	-2.0643777338	 0.085417
H	 1.6123273446	 0.0251279144	-1.4979344112	 0.10422
H	-0.0153967913	-3.1667405982	-2.0472325201	 0.099709
H	 0.5473451244	-4.017444014	-0.5946465117	 0.120815
H	-0.7515325781	-2.8118642035	-0.4781432056	 0.119477
H	 2.2824035488	-2.5047730136	-2.3016313101	 0.270383
H	 1.5473131118	-2.6886031439	 1.361077802	 0.075746
H	 2.7987563284	-0.6494162403	 2.1373375304	 0.106826
H	 2.8257294952	-0.011285354	 0.436614788	 0.116975
H	 0.291091638	-0.5156269568	 2.1896374962	 0.074555
110.8414	162.8136	229.3142	237.7408	258.5444	284.2002	287.252	340.0385	386.5418	428.9164	494.9174	500.142	582.593	600.7314	742.894	791.146	836.1955	868.8827	901.0329	931.3806	940.1764	957.1723	990.9853	1017.0581	1019.2195	1053.9176	1066.9012	1078.3538	1107.745	1130.7812	1143.2873	1191.3031	1198.2486	1210.4257	1234.5368	1290.343	1317.9094	1336.2181	1366.4169	1387.8502	1404.5916	1406.9335	1411.7682	1481.6265	1490.9534	1495.016	1495.5698	1498.4954	1508.5634	3003.7505	3022.5267	3026.6098	3044.3546	3084.9179	3090.2902	3093.9312	3098.3569	3112.4963	3136.4797	3155.1959	3166.6529	3217.7981	3804.3166
CC1CC(C)(O)C2CC12	C[C@H]1C[C@@](C)(O)[C@H]2C[C@@H]12	
InChI=1S/C8H14O/c1-5-4-8(2,9)7-3-6(5)7/h5-7,9H,3-4H2,1-2H3	InChI=1S/C8H14O/c1-5-4-8(2,9)7-3-6(5)7/h5-7,9H,3-4H2,1-2H3/t5-,6-,7-,8+/m0/s1
