18
gdb 53904	2.08615	1.39099	0.92444	2.8986	76.73	-0.2657	-0.0366	0.2291	1284.5281	0.145286	-401.968126	-401.958405	-401.957461	-402.004316	34.006	
C	-0.0791399636	 1.4799331667	-0.2109353823	-0.488435
C	-0.0331319913	 0.0492269214	 0.2766842374	 0.382299
O	 0.9294156678	-0.4406297005	 0.8062679837	-0.268717
C	-1.3342009554	-0.7935455957	 0.084472978	-0.284589
C	-1.7343460585	-0.7797635112	-1.326423791	 0.27955
N	-2.0269597432	-0.7674126132	-2.4448884437	-0.325555
C	-1.1911280979	-2.2057849742	 0.620936692	 0.054271
C	-1.5071656096	-2.4853652969	 2.0649695826	-0.271394
C	-2.4172357067	-3.0039733364	 0.979711772	-0.281948
H	 0.8591407495	 1.9793083727	 0.0310437844	 0.151547
H	-0.2462777866	 1.5040254614	-1.2926728453	 0.174789
H	-0.9161642519	 2.0153961838	 0.2512109367	 0.143409
H	-2.1243141305	-0.2691873326	 0.641950143	 0.135879
H	-0.3548746161	-2.7461348698	 0.1926648873	 0.114533
H	-0.8713803295	-3.18558307	 2.5936167001	 0.126928
H	-1.8642386471	-1.6642241612	 2.6782507863	 0.113186
H	-3.3874912068	-2.5332687046	 0.8597297092	 0.118971
H	-2.4122320727	-4.0651021398	 0.75952119	 0.125276
26.6309	60.5758	116.2231	138.4728	151.7189	180.2354	317.9504	349.9239	392.8471	450.9189	537.9387	545.267	612.3387	754.3929	802.7559	830.8495	866.9916	925.1714	959.5061	974.2874	1016.5174	1058.2207	1066.0184	1084.8343	1127.6094	1156.5743	1193.448	1199.7255	1229.3886	1251.7274	1277.9883	1388.6475	1409.4398	1462.4643	1471.8698	1474.0457	1506.901	1834.3072	2350.7366	3010.8331	3043.0626	3106.4565	3134.6077	3139.1146	3159.7655	3179.7807	3214.7236	3229.3415
CC(=O)C(C#N)C1CC1	CC(=O)[C@@H](C#N)C1CC1	
InChI=1S/C7H9NO/c1-5(9)7(4-8)6-2-3-6/h6-7H,2-3H2,1H3	InChI=1S/C7H9NO/c1-5(9)7(4-8)6-2-3-6/h6-7H,2-3H2,1H3/t7-/m1/s1
