25
gdb 92703	2.1833	1.51694	1.14045	0.1958	94.1	-0.2244	0.0353	0.2598	1249.4952	0.22792	-352.389362	-352.379148	-352.378204	-352.423324	40.054	
C	-0.9151922394	 0.9735209905	-0.0646010617	-0.416887
C	 0.1615611121	-0.1103219838	-0.0994061936	 0.018951
C	 1.3082475167	 0.1547841434	-1.1045013436	-0.276128
C	 2.4554090141	-0.6165657213	-0.5056991149	-0.188766
C	 2.2345999323	-0.9604657835	 0.764550534	 0.327403
C	 3.178145797	-1.7039494529	 1.6603183781	-0.502335
C	 0.8800427214	-0.4368045747	 1.2553589948	 0.197963
C	 1.1077300835	 0.8180123493	 2.1267343989	-0.425103
C	 0.0902918899	-1.477173275	 2.064936486	-0.440675
H	-0.4978605536	 1.954689306	 0.1836595174	 0.114994
H	-1.40102709	 1.0623151958	-1.0423354262	 0.109974
H	-1.6968589915	 0.7462936979	 0.6687831093	 0.110287
H	-0.3162716568	-1.0478147346	-0.4132514688	 0.068757
H	 1.0494651126	-0.1661886125	-2.1205713629	 0.095776
H	 1.5436739353	 1.228124807	-1.1753006222	 0.096177
H	 3.3695311621	-0.8324630962	-1.0503724061	 0.078823
H	 4.1189070024	-1.9248267224	 1.1483380203	 0.120166
H	 3.4150444973	-1.1305597555	 2.5655459203	 0.122597
H	 2.7488086705	-2.6547096692	 1.9996708345	 0.125198
H	 1.615139827	 1.6099583317	 1.5671503054	 0.114176
H	 0.1602840708	 1.2188937518	 2.5018918841	 0.110174
H	 1.7278904379	 0.5781772217	 2.9968609226	 0.108241
H	 0.5788602182	-1.7055701525	 3.0184356794	 0.108663
H	-0.9149117458	-1.1064660302	 2.2960974141	 0.110809
H	-0.017872314	-2.4142468207	 1.5084655109	 0.110768
88.712	169.9295	215.4812	235.2337	248.181	261.6039	266.722	281.921	287.5957	296.0997	351.3475	436.2	486.3455	537.5277	587.5308	656.6925	675.6402	797.9956	827.1626	893.9299	935.398	938.0142	955.4908	977.562	1011.4634	1034.2561	1050.9444	1068.543	1098.7072	1121.2041	1138.9379	1165.5419	1223.5884	1242.1267	1245.9748	1304.9276	1324.9617	1356.1104	1370.8075	1396.3261	1408.5673	1412.0507	1422.9116	1476.9547	1483.7449	1485.8543	1491.7769	1494.2741	1499.4433	1500.9477	1508.7752	1512.7445	1719.9222	2986.4174	3009.4692	3018.3718	3023.5721	3028.0218	3032.1074	3046.6146	3064.0796	3088.2921	3090.0908	3095.1182	3095.9203	3101.0088	3103.7731	3106.7444	3174.8302
CC1CC=C(C)C1(C)C	C[C@H]1CC=C(C)C1(C)C	
InChI=1S/C9H16/c1-7-5-6-8(2)9(7,3)4/h5,8H,6H2,1-4H3	InChI=1S/C9H16/c1-7-5-6-8(2)9(7,3)4/h5,8H,6H2,1-4H3/t8-/m0/s1
