18
gdb 40584	3.69489	1.45179	1.39366	1.7221	74.05	-0.2392	0.0855	0.3246	985.6895	0.14907	-401.848467	-401.841491	-401.840546	-401.880093	27.72	
C	 0.2827894981	 1.4132421495	 0.1255876674	-0.177288
O	 1.0739254781	 0.3614343115	-0.4348490676	-0.23098
C	-0.2485975653	 0.0484680644	 0.0057055375	 0.051766
C	-0.4248334097	-0.8284915818	 1.2177131614	 0.03709
C	-0.0500884458	-2.3279413008	 1.2412520192	-0.117107
C	 1.4654124911	-2.3327759941	 0.8972566213	-0.245111
C	 1.6405728198	-1.5463748442	 2.193010643	-0.021054
C	 0.3585810479	-2.0421389166	 2.7398440543	-0.053149
N	 0.4811538337	-0.5957384057	 2.3908514522	-0.163249
H	 0.6078271706	 1.7623225473	 1.1029170454	 0.136266
H	-0.0362339584	 2.181231442	-0.5771083311	 0.111659
H	-0.9496347063	-0.1585805484	-0.8063952716	 0.089298
H	-1.4511605053	-0.6905072487	 1.5806275962	 0.085712
H	-0.7179737055	-3.1007637439	 0.8653061177	 0.070882
H	 1.8835615228	-3.3368555265	 1.0088374024	 0.101983
H	 1.7879797481	-1.8845490915	-0.0433290337	 0.127562
H	 2.5503153122	-1.2759924704	 2.7117527455	 0.097825
H	 0.0376606939	-2.4087414719	 3.7055871504	 0.097895
83.4443	154.6989	197.5273	339.8631	383.9308	505.1396	617.6933	708.341	762.3041	787.3758	813.9777	830.0167	852.3144	903.7814	914.7573	939.1607	952.4605	976.64	989.782	1020.3765	1026.8372	1067.0899	1099.6946	1121.473	1127.8503	1142.4324	1163.4282	1168.7365	1171.9757	1210.2144	1239.8509	1256.9846	1284.7236	1292.8279	1340.3308	1389.3348	1430.4354	1495.5859	1520.9671	3031.5498	3067.9853	3082.6264	3094.039	3132.4453	3134.1681	3188.8127	3201.4805	3216.4957
C1OC1C1C2CC3C2N13	C1O[C@H]1[C@H]1[C@H]2C[C@@H]3[C@H]2N13	
InChI=1S/C7H9NO/c1-3-6-4(1)8(6)7(3)5-2-9-5/h3-7H,1-2H2	InChI=1S/C7H9NO/c1-3-6-4(1)8(6)7(3)5-2-9-5/h3-7H,1-2H2/t3-,4+,5+,6-,7+,8?/m0/s1
