20
gdb 39232	2.89322	1.59664	1.18447	1.6787	77.5	-0.2286	0.0718	0.3005	1070.9196	0.174068	-403.098475	-403.091083	-403.090139	-403.130098	30.374	
C	-0.027014084	 1.5320958313	 0.0482318392	-0.336239
C	 1.2722594518	 0.7436103953	-0.0533426983	-0.047052
C	 2.2559208527	 0.7355517908	 1.1145104843	-0.26319
C	 2.5588964355	-0.6713039882	 1.5973031823	-0.002893
N	 2.4771309425	-0.9045183877	 3.0515562873	-0.347868
C	 1.44420276	-1.471175356	 2.1598507338	-0.028
C	 0.0658046054	-0.8479249134	 2.2398019082	-0.094003
O	-0.5748497211	-0.8079187933	 0.9746809456	-0.255032
C	-0.0615840788	 0.028079819	-0.027464716	 0.139215
H	-0.2229798879	 1.9879684372	 1.014183979	 0.116447
H	-0.3880491616	 2.1107014747	-0.7957012877	 0.109808
H	 1.7478536545	 0.7299808855	-1.0309952289	 0.086504
H	 3.1772791854	 1.2501722043	 0.8198973089	 0.098806
H	 1.8567274302	 1.3009819895	 1.9603562101	 0.118648
H	 3.319416652	-1.2174537579	 1.0428460227	 0.082037
H	 3.1288865623	-1.6327054832	 3.3311676798	 0.231851
H	 1.4553439141	-2.5441099348	 1.9809079384	 0.085408
H	-0.5966857714	-1.4472104227	 2.8721855722	 0.106486
H	 0.1370358323	 0.145956974	 2.69936117	 0.102283
H	-0.375514264	-0.3830496841	-0.9824719607	 0.096785
102.3339	218.2661	266.8561	340.9852	346.6742	386.7214	439.1159	474.7501	581.3133	656.8801	737.0365	796.8367	800.7819	833.5548	855.8718	906.7733	940.0058	968.943	988.8255	1004.8921	1019.3622	1033.9399	1050.0871	1069.4573	1115.1394	1138.9126	1141.2975	1181.1224	1196.0375	1229.4044	1251.5479	1268.046	1271.0605	1292.7351	1327.2095	1373.8656	1389.2339	1408.6244	1425.9368	1472.3267	1480.5012	1491.0083	1516.3902	3025.4335	3045.2658	3078.2308	3092.1356	3122.1592	3123.1879	3129.3314	3136.2305	3149.0221	3208.4329	3507.1111
C1C2CC3NC3COC12	C1[C@H]2C[C@H]3N[C@H]3CO[C@@H]12	
InChI=1S/C7H11NO/c1-4-2-7(4)9-3-6-5(1)8-6/h4-8H,1-3H2	InChI=1S/C7H11NO/c1-4-2-7(4)9-3-6-5(1)8-6/h4-8H,1-3H2/t4-,5-,6+,7+/m1/s1
