19
gdb 94893	2.94901	1.44095	1.04066	0.1837	77.85	-0.2277	0.0192	0.2469	1160.1352	0.160131	-423.027041	-423.018781	-423.017837	-423.060222	30.502	
C	 0.130765987	 1.5660350439	-0.0863917098	-0.390794
C	-0.0386938347	 0.0575383466	 0.0909930455	 0.014034
O	 0.5255734996	-0.6309101858	-1.0450552792	-0.289494
C	 1.4790747234	-1.6211437159	-0.6410355379	-0.191671
C	 1.5448768531	-1.4723854118	 0.8443889231	 0.189704
C	 0.6946189745	-0.5416124388	 1.2521143371	 0.215613
C	 0.7397813956	-0.4133893262	 2.7405127497	-0.188469
O	 1.7277167923	-1.3727332415	 3.1436668711	-0.275182
C	 2.2618427615	-2.0718095945	 2.0104119889	-0.182382
H	 1.1912960475	 1.8327555905	-0.1103119727	 0.12007
H	-0.3301188218	 1.8853256338	-1.0249940112	 0.12894
H	-0.3506206362	 2.1074975895	 0.7350712963	 0.113197
H	-1.1163478086	-0.173585628	 0.1360448473	 0.083584
H	 1.1386418757	-2.6206794486	-0.9556494027	 0.107272
H	 2.4393830941	-1.433199379	-1.1444178012	 0.109756
H	 1.040148036	 0.588637728	 3.0834503359	 0.110091
H	-0.221948933	-0.6473189805	 3.2236279709	 0.108067
H	 2.0794127977	-3.1521505701	 2.1218646418	 0.108528
H	 3.3528143061	-1.9290909318	 1.970270737	 0.109136
87.3232	119.8028	147.5296	200.3646	235.7022	276.1318	394.9718	423.1277	535.5563	559.933	682.2507	769.7368	838.2707	865.982	906.3001	965.8467	987.0101	1020.328	1036.8367	1056.0656	1069.6999	1088.9486	1105.6261	1119.9937	1160.0137	1198.6911	1219.366	1236.1082	1256.562	1321.4591	1367.9589	1383.2152	1398.6563	1401.9157	1412.213	1485.602	1496.067	1517.1818	1523.5357	1528.9035	1747.9622	2955.045	2971.8061	2975.0476	2980.8344	2992.4588	2995.4186	2997.6282	3037.5222	3111.1362	3123.9195
CC1OCC2=C1COC2	C[C@H]1OCC2=C1COC2	
InChI=1S/C7H10O2/c1-5-7-4-8-2-6(7)3-9-5/h5H,2-4H2,1H3	InChI=1S/C7H10O2/c1-5-7-4-8-2-6(7)3-9-5/h5H,2-4H2,1H3/t5-/m1/s1
