13
gdb 133408	3.25877	1.37462	0.96804	4.9643	67.34	-0.2156	-0.0366	0.179	1088.8605	0.089693	-494.032364	-494.024856	-494.023912	-494.064292	28.462	
O	 0.0404997782	 1.3265554635	 0.0689784388	-0.421991
C	-0.0380495022	-0.0235091253	 0.007052456	 0.480744
C	-1.216377947	-0.6866088873	 0.0124682488	-0.268879
C	-1.2312609018	-2.1330586966	 0.0013580403	 0.197717
N	-2.3080695275	-2.8357179949	 0.0098477919	-0.553945
C	 0.1361100311	-2.6887271648	-0.0354806224	 0.283593
F	 0.2234384362	-4.0127320617	-0.0479236762	-0.059905
N	 1.2445980885	-2.053819901	-0.0421293933	-0.258731
N	 1.1585481004	-0.6956137706	-0.0604377951	-0.329992
H	 0.787504674	 1.6401231233	-0.4549555384	 0.30748
H	-2.1479753975	-0.1387939539	 0.0061991245	 0.131557
H	-2.0744404024	-3.8289144846	-0.0167605078	 0.218702
H	 2.01391154	-0.2367219361	 0.2111482228	 0.273649
115.0805	192.4916	250.4341	327.488	360.2969	367.1693	421.7758	456.579	469.1722	521.4035	611.985	654.0323	727.6758	745.0521	795.4489	850.027	886.4808	1017.8726	1109.1865	1192.7506	1205.5381	1267.2327	1313.9774	1372.8457	1421.5208	1516.9302	1657.4784	1691.7681	1709.4107	3239.8845	3475.9572	3631.9633	3793.9424
OC1=CC(=N)C(F)=NN1	O[C@@H]1C=C([NH])C(=NN1)F	
InChI=1S/C4H4FN3O/c5-4-2(6)1-3(9)7-8-4/h1H,(H3,6,7,9)	InChI=1S/C4H5FN3O/c5-4-2(6)1-3(9)7-8-4/h1,3,6-7,9H/t3-/m1/s1
