17
gdb 17443	3.93149	1.81087	1.7241	3.7107	67.68	-0.2116	0.0674	0.279	839.1147	0.142309	-363.775064	-363.768117	-363.767173	-363.805695	28.203	
C	-0.0669400567	 1.4862801549	 0.0633369202	-0.50873
C	 0.0929532879	 0.0011948785	 0.0151337897	 0.353067
N	-0.8485896314	-0.9207380309	 0.720858621	-0.410004
C	 0.6275598751	-0.9775405729	 0.9807573858	-0.104767
C	 1.3124829066	-1.7911988773	-0.1421858458	-0.137558
C	 0.3829214363	-2.2409401461	-1.243741271	 0.139862
O	-0.863016255	-2.8269191079	-1.1240378452	-0.428906
C	 0.7382234239	-0.7745720251	-1.1702106078	-0.187678
H	 0.8639959149	 1.9876371265	-0.22206839	 0.131814
H	-0.8515778133	 1.8219884216	-0.6251529415	 0.134038
H	-0.3334623759	 1.8214317189	 1.0718570716	 0.117209
H	-1.2692326967	-0.3956668973	 1.4869335176	 0.228464
H	 1.0063599751	-0.8427915732	 1.9860141049	 0.09741
H	 2.3325807285	-2.1439604944	-0.0480714325	 0.088345
H	 0.9394356538	-2.7299703085	-2.0423153401	 0.103165
H	-1.2958800437	-2.3333711741	-0.4043265669	 0.298168
H	 1.2636271106	-0.2539128725	-1.9629311299	 0.086103
159.5888	213.5185	263.6891	313.0294	346.9616	474.3338	555.419	584.6428	677.0698	684.1566	701.4885	715.1749	801.1885	835.0966	864.3042	930.3988	946.5727	960.3165	992.8406	1005.2279	1018.8174	1066.532	1093.4567	1109.1189	1154.5762	1199.4528	1225.656	1286.9343	1301.0377	1320.2567	1383.8518	1412.6872	1457.3878	1480.2131	1499.3402	1501.4161	3022.5836	3086.2435	3096.8578	3121.6342	3169.1038	3180.4102	3195.0666	3469.3145	3589.4851
CC12NC1C1C(O)C21	C[C@]12N[C@H]1[C@H]1[C@@H](O)[C@@H]21	
InChI=1S/C6H9NO/c1-6-3-2(4(3)8)5(6)7-6/h2-5,7-8H,1H3	InChI=1S/C6H9NO/c1-6-3-2(4(3)8)5(6)7-6/h2-5,7-8H,1H3/t2-,3+,4-,5+,6-/m1/s1
