16
gdb 26720	3.18843	1.21652	0.88539	4.5249	75.43	-0.1999	-0.0286	0.1713	1236.3344	0.123554	-437.939116	-437.930072	-437.929128	-437.97315	32.265	
C	 0.0428945714	 1.5062731443	 0.0366700036	-0.517387
C	 0.0386038906	 0.007119463	 0.0266205104	 0.01644
C	 0.0371250493	-0.8062297544	-1.077242986	 0.335057
O	 0.0387155872	-0.5729264581	-2.413324859	-0.433613
N	 0.0332927292	-2.1213788671	-0.6775609324	-0.302258
C	 0.0323213934	-2.1839947343	 0.685602185	-0.146836
C	 0.0355395443	-0.8871901276	 1.1634037143	 0.110142
C	 0.035656175	-0.5310772116	 2.5744437074	 0.071644
O	 0.0331060901	-1.3242151676	 3.495253017	-0.296788
H	 0.9287411698	 1.9148880714	 0.5361296401	 0.13881
H	 0.0385739214	 1.916809434	-0.9804250757	 0.096811
H	-0.8354928702	 1.9195294848	 0.5452948484	 0.138875
H	 0.0397758117	 0.378488337	-2.5581804041	 0.308624
H	 0.0315894572	-2.9004488327	-1.3141858928	 0.274475
H	 0.0294306664	-3.1190457392	 1.2192520745	 0.154205
H	 0.0384562232	 0.564130118	 2.7769289492	 0.051798
67.4296	117.4822	170.4588	170.6454	208.0269	266.2933	286.1559	329.5622	395.5912	501.4361	508.2563	641.3913	647.8941	682.5331	757.7025	759.4163	810.2946	946.2937	1037.8775	1060.6916	1087.3665	1104.4366	1166.6825	1229.8432	1296.8716	1360.0017	1413.216	1426.005	1459.7758	1475.8245	1501.13	1520.8651	1559.4799	1658.0782	1775.7539	2867.3567	3017.9745	3073.821	3075.8969	3286.8785	3672.7993	3838.5025
CC1=C(O)NC=C1C=O	Cc1c(O)[nH]cc1C=O	
InChI=1S/C6H7NO2/c1-4-5(3-8)2-7-6(4)9/h2-3,7,9H,1H3	InChI=1S/C6H7NO2/c1-4-5(3-8)2-7-6(4)9/h2-3,7,9H,1H3
