22
gdb 78262	2.48398	1.44363	1.11876	1.5944	86.65	-0.2072	0.0696	0.2767	1219.5282	0.192822	-367.127829	-367.118503	-367.117559	-367.161187	36.238	
C	-0.5608025195	 1.2474661464	 0.8186272651	-0.420972
C	-0.299548996	-0.221880044	 0.5444334089	-0.035781
C	 1.1562352923	-0.5893451973	 0.4067823469	-0.015902
C	 0.3906949452	-0.9711583311	 1.6542449184	-0.137012
C	 0.7749089319	-2.4327180163	 1.3354285991	 0.291426
C	 1.3834259405	-3.2756850955	 2.4201073956	-0.475945
C	 0.4277776039	-2.9583316472	-0.0090755967	-0.021077
C	-0.8221736972	-2.8316000687	-0.8738179704	-0.439077
N	 1.576330808	-2.0119420032	 0.1145059548	-0.214289
H	 0.2420983627	 1.6898180062	 1.4182034886	 0.117359
H	-0.6317834038	 1.8146917732	-0.115454905	 0.120234
H	-1.4984627879	 1.3838235801	 1.3681321916	 0.119248
H	-1.0665063616	-0.6882828594	-0.0538545384	 0.08152
H	 1.919490466	 0.164925636	 0.258039288	 0.096461
H	 0.4752369799	-0.5700242048	 2.6567524861	 0.085232
H	 0.6139981284	-3.6215039313	 3.1215432603	 0.117149
H	 1.8850604496	-4.1521056976	 2.0007057956	 0.124689
H	 2.1227966717	-2.7015625056	 2.9900404723	 0.122693
H	 0.8824915161	-3.9403027593	-0.1396924571	 0.096182
H	-0.7061747551	-2.0666165375	-1.6458767555	 0.139344
H	-0.9974410922	-3.782146772	-1.3858122132	 0.1148
H	-1.721073243	-2.605869011	-0.2945605551	 0.133719
107.4845	183.4843	197.0497	202.2567	228.7305	250.9936	260.6647	293.5891	342.9658	422.0833	511.1278	558.7041	629.5873	689.1072	765.2839	797.1994	833.9378	858.0319	888.7814	941.3626	965.2879	1016.924	1028.2547	1044.5864	1047.3871	1077.6501	1103.3668	1112.1644	1132.0672	1139.9534	1148.1328	1195.7593	1227.9604	1283.5082	1301.1075	1359.7564	1405.9695	1409.921	1410.7762	1416.1863	1463.0533	1480.578	1493.5122	1496.1715	1500.395	1503.3822	1507.4573	3022.2786	3028.2889	3043.6624	3081.9133	3091.5371	3093.7529	3096.9318	3111.4162	3115.3899	3119.0457	3176.2085	3187.9692	3237.1322
CC1C2C1C1(C)C(C)N21	C[C@H]1[C@H]2[C@@H]1[C@@]1(C)[C@@H](C)N21	
InChI=1S/C8H13N/c1-4-6-7(4)9-5(2)8(6,9)3/h4-7H,1-3H3	InChI=1S/C8H13N/c1-4-6-7(4)9-5(2)8(6,9)3/h4-7H,1-3H3/t4-,5-,6-,7+,8-,9?/m1/s1
