21
gdb 109948	2.32879	1.3818	0.97846	3.1947	79.89	-0.219	0.0671	0.2862	1263.7307	0.182484	-420.343488	-420.33415	-420.333205	-420.377844	34.947	
C	 0.0451653859	 1.5459963883	 0.2809185663	-0.331266
N	 0.1525308649	 0.10193197	 0.1878491197	-0.102037
C	-1.1034317871	-0.6743949542	 0.3300524006	-0.249277
C	-0.3992876973	-1.5830386355	 1.3395418435	 0.317308
C	-0.9785129632	-2.4175073662	 2.4073726643	-0.307167
N	-0.2545275087	-3.0329473879	 1.2741130444	-0.353653
C	 0.7897014347	-0.6152448773	 1.3303726794	-0.043568
C	 2.1676414549	-1.1640277367	 0.9681060083	-0.065101
O	 2.9752503285	-0.143222368	 0.4029401102	-0.424611
H	 1.047008792	 1.9816746793	 0.330863499	 0.130417
H	-0.4582982371	 1.9421277652	-0.6076016041	 0.119023
H	-0.5182945562	 1.8823127124	 1.1716533014	 0.093992
H	-1.9300158264	-0.0941937035	 0.7689277092	 0.094719
H	-1.4559678165	-1.1378390061	-0.6002905926	 0.103164
H	-0.4796887008	-2.5061582075	 3.3692162298	 0.121598
H	-2.0615228016	-2.5102666591	 2.4508804024	 0.111941
H	-0.9129763824	-3.4253684709	 0.6049874562	 0.231426
H	 0.8452833886	 0.0090961864	 2.2349939755	 0.064674
H	 2.6883464703	-1.5282461798	 1.8591755699	 0.10635
H	 2.0493638966	-2.0122201231	 0.2803735738	 0.096366
H	 2.5027607407	 0.1398289244	-0.3895598871	 0.285703
65.8798	81.9636	155.7356	216.1515	233.6078	254.3031	297.6775	337.6216	372.855	483.6387	505.2206	523.196	533.4612	780.8873	812.2687	856.5989	890.208	940.4561	966.976	984.6893	998.9511	1040.5012	1063.9315	1081.841	1097.5471	1126.1807	1150.2519	1163.4496	1183.5728	1213.9242	1224.6246	1258.684	1266.0442	1300.4964	1309.8447	1350.7879	1388.9972	1422.2273	1436.7249	1448.6064	1489.9892	1499.6356	1502.8439	1510.6736	1520.9333	2930.7593	2977.2924	2987.8534	3016.5371	3033.8219	3060.0332	3085.7242	3099.274	3110.4754	3182.6106	3491.4634	3780.9258
CN1CC2(CN2)C1CO	CN1C[C@]2(CN2)[C@H]1CO	
InChI=1S/C6H12N2O/c1-8-4-6(3-7-6)5(8)2-9/h5,7,9H,2-4H2,1H3	InChI=1S/C6H12N2O/c1-8-4-6(3-7-6)5(8)2-9/h5,7,9H,2-4H2,1H3/t5-,6-/m1/s1
