18
gdb 128145	2.35801	1.36544	0.91737	3.7045	77.34	-0.1981	0.0188	0.2169	1291.3402	0.14799	-435.242126	-435.232767	-435.231823	-435.277081	33.001	
C	-0.0212188455	 1.2807852147	-0.4494048494	-0.330866
N	-0.0634594745	-0.0458233026	 0.1451206401	-0.384791
C	-1.2135184107	-0.7697752311	 0.1835347126	 0.508563
C	-1.4049471608	-2.1255278229	 0.3400940385	-0.025101
N	-0.3581971342	-3.076879882	 0.417256585	-0.402733
C	-0.4060803513	-4.1509593343	-0.576900886	-0.321443
C	-2.821427668	-2.2344624143	 0.3690913984	-0.004037
N	-3.4370617086	-1.0860034986	 0.2370041111	-0.179193
O	-2.3823271976	-0.1311071872	 0.1181484558	-0.231614
H	 0.9535246838	 1.7269447923	-0.2414802003	 0.130425
H	-0.1831979304	 1.2742220997	-1.5366973352	 0.125549
H	-0.7906297369	 1.9080011528	 0.0052978953	 0.158629
H	 0.7470233849	-0.636081375	 0.0203755001	 0.253755
H	-0.2796327862	-3.4704695271	 1.3488507143	 0.22975
H	 0.4570370079	-4.8092671304	-0.4371888874	 0.117273
H	-1.3181627311	-4.7673070658	-0.5326553774	 0.10534
H	-0.34623484	-3.7167471531	-1.57925892	 0.128811
H	-3.4241256906	-3.1270456851	 0.4776512445	 0.121683
52.4945	93.3697	130.573	150.7326	178.1518	208.9563	279.3065	308.383	410.8862	522.0963	590.7091	618.6583	645.6535	712.794	748.9201	806.8971	873.4049	917.7137	934.5214	1042.0174	1071.6265	1139.5419	1149.2942	1156.4998	1173.9518	1194.4049	1240.1107	1337.6219	1422.134	1441.4394	1458.994	1468.788	1474.4274	1489.8024	1493.0637	1514.3535	1518.8083	1571.2503	1685.7209	2976.3606	3003.5897	3067.9114	3098.1908	3110.9661	3140.0849	3225.4967	3510.1811	3599.4417
CNC1=C(NC)C=NO1	CNc1c(NC)cno1	
InChI=1S/C5H9N3O/c1-6-4-3-8-9-5(4)7-2/h3,6-7H,1-2H3	InChI=1S/C5H9N3O/c1-6-4-3-8-9-5(4)7-2/h3,6-7H,1-2H3
