14
gdb 15497	3.80812	1.99136	1.31834	6.0463	67.61	-0.2429	-0.0432	0.1997	867.803	0.10855	-378.758684	-378.751808	-378.750864	-378.790024	25.095	
N	 0.0011434017	 1.3478553718	 0.0106574588	-0.502088
C	 0.0648096823	 0.0782304783	 0.0035576917	 0.364507
C	 1.2291339491	-0.8322658284	-0.0084113322	-0.135306
C	 0.8309243766	-2.1044170314	-0.0129515143	-0.093821
C	-0.6665353768	-2.1844057396	-0.0043559138	-0.226544
N	-1.066580934	-0.7764009176	 0.0058359031	-0.111544
C	-2.4032848851	-0.4224741395	 0.0172214608	 0.162437
O	-2.8581626895	 0.689732216	 0.0268184582	-0.27372
H	 0.9455537632	 1.7339491716	 0.0070707921	 0.220173
H	 2.2451963431	-0.4609202176	-0.0125678862	 0.120997
H	 1.4565598919	-2.986911935	-0.0216189672	 0.12694
H	-1.0540337229	-2.7083776717	-0.8892105145	 0.138962
H	-1.0434653719	-2.7181755929	 0.8791921949	 0.138963
H	-3.0377196078	-1.334698794	 0.0164799588	 0.070046
80.5634	210.2408	223.3616	227.0183	357.0288	451.4854	485.9635	657.5806	710.814	775.8902	791.2749	816.3995	864.4938	973.3707	983.4788	1016.1592	1034.4466	1048.6146	1114.1496	1199.0763	1212.9583	1262.1034	1307.209	1371.1193	1419.544	1461.1231	1499.0404	1663.2634	1717.3572	1840.4399	2899.3444	3005.1451	3030.3114	3218.7036	3241.0547	3477.6375
N=C1C=CCN1C=O	[NH]C1=C[CH]CN1C=O	
InChI=1S/C5H6N2O/c6-5-2-1-3-7(5)4-8/h1-2,4,6H,3H2	InChI=1S/C5H6N2O/c6-5-2-1-3-7(5)4-8/h1-2,4,6H,3H2
