19
gdb 126427	4.81228	0.89843	0.79498	3.7506	79.55	-0.2098	0.0418	0.2516	1490.8728	0.160794	-415.424013	-415.414547	-415.413603	-415.458894	33.754	
C	 0.1437843705	 1.4422948449	 0.173293531	-0.372076
C	-0.1027948205	-0.0487754854	-0.1032625484	-0.27953
C	 0.6526989661	-0.5469709238	-1.2935182098	 0.350839
N	 0.049335831	-1.0284239799	-2.364252798	-0.286067
N	 1.114428337	-1.3478814232	-3.1727820961	-0.269065
C	 2.2735790626	-1.0349942447	-2.5502317526	 0.457795
N	 3.5169714223	-1.1847060215	-3.1060774311	-0.381674
C	 3.7292769469	-2.1120937105	-4.2014709099	-0.342388
N	 2.0225668132	-0.5316873008	-1.3540756834	-0.394151
H	 1.2101582234	 1.6340496286	 0.3191654518	 0.134514
H	-0.1978389235	 2.056933683	-0.6654762903	 0.118329
H	-0.391961852	 1.7642738578	 1.0715082031	 0.107028
H	 0.1990856404	-0.6325255349	 0.7749692274	 0.11098
H	-1.1664819339	-0.2398540411	-0.2709385102	 0.115193
H	 0.9521311638	-1.7330983974	-4.0861062	 0.270312
H	 4.2469985489	-1.1358314186	-2.4120265882	 0.259604
H	 4.7910284747	-2.1228178172	-4.4538304829	 0.14202
H	 3.4139944102	-3.1414411814	-3.9730376085	 0.125692
H	 3.190001119	-1.7763048139	-5.0950200339	 0.132644
52.0309	79.4882	135.2567	176.062	190.2783	225.3434	277.7767	347.7967	391.1561	444.3027	479.795	537.4869	667.874	727.4788	753.6825	770.25	803.8558	975.1342	1021.533	1037.5623	1067.3831	1089.9726	1111.321	1129.0346	1157.9159	1189.8111	1275.0374	1327.8397	1344.1735	1378.8169	1401.3766	1423.0118	1466.931	1475.6289	1490.243	1495.8678	1503.0891	1516.4133	1525.0328	1574.7787	1648.432	2989.5077	3034.6361	3040.0687	3057.8859	3091.4004	3108.8762	3124.4892	3130.7396	3627.7847	3688.9321
CCC1=NNC(NC)=N1	CCc1n[nH]c(NC)n1	
InChI=1S/C5H10N4/c1-3-4-7-5(6-2)9-8-4/h3H2,1-2H3,(H2,6,7,8,9)	InChI=1S/C5H10N4/c1-3-4-7-5(6-2)9-8-4/h3H2,1-2H3,(H2,6,7,8,9)
