21
gdb 104891	2.12919	1.49171	1.18914	3.3058	73.89	-0.2443	0.0738	0.3181	1168.4065	0.182027	-461.360994	-461.351538	-461.350593	-461.395295	35.167	
C	-1.2073912024	 0.3006690192	 0.101585011	-0.258917
O	 0.1772537693	 0.0148834309	 0.0369623807	-0.297544
C	 0.6282988897	-0.7334038712	-1.0826673166	 0.443381
C	 2.1472512494	-0.5136046849	-1.0672874681	-0.063402
O	 2.4899487001	 0.8477890387	-1.1364690131	-0.423304
C	 0.233562697	-2.2292022875	-1.0352276216	-0.304489
C	-0.1892043867	-2.5449443887	-2.4765106806	-0.21764
C	-0.7293779374	-1.1898688854	-2.9396995265	-0.07744
O	 0.0815655754	-0.2147411672	-2.2866885149	-0.286383
H	-1.5427476566	 0.8535515203	-0.7816908142	 0.132833
H	-1.8166495224	-0.6086867326	 0.2060102262	 0.102848
H	-1.354359602	 0.9153175656	 0.99245829	 0.127891
H	 2.5473071496	-0.9928205256	-0.1582126428	 0.084472
H	 2.5866136561	-1.0107410506	-1.9378617465	 0.1019
H	 1.9114122217	 1.2892821618	-0.5026001956	 0.286161
H	 1.0607147972	-2.8476955933	-0.6789145848	 0.113033
H	-0.5980973852	-2.3676961687	-0.3387991793	 0.114206
H	 0.6775550536	-2.8317933063	-3.0804136709	 0.113645
H	-0.9297765329	-3.3454138213	-2.5476105146	 0.105329
H	-0.6484128141	-1.0259763683	-4.0178321726	 0.113482
H	-1.7850887096	-1.0655123948	-2.6528213253	 0.089937
71.6564	121.1217	132.9275	180.8756	192.3137	251.013	284.13	358.4926	370.9804	443.6322	463.8616	575.954	602.2089	660.5221	761.0384	859.5422	865.7223	891.3836	935.1971	981.9109	1012.4328	1067.0703	1082.1419	1105.6022	1110.1324	1141.2853	1177.6778	1183.7175	1206.5498	1212.999	1241.7678	1261.4113	1294.5232	1320.2325	1339.1869	1373.541	1395.3684	1442.8288	1472.0659	1480.854	1492.4781	1494.6147	1499.7819	1517.0564	1524.8217	2967.1777	2982.2133	3000.8831	3054.4938	3067.1644	3077.711	3080.3848	3086.5215	3102.5628	3116.3543	3124.5983	3785.9551
COC1(CO)CCCO1	CO[C@@]1(CO)CCCO1	
InChI=1S/C6H12O3/c1-8-6(5-7)3-2-4-9-6/h7H,2-5H2,1H3	InChI=1S/C6H12O3/c1-8-6(5-7)3-2-4-9-6/h7H,2-5H2,1H3/t6-/m0/s1
