20
gdb 104320	2.80843	1.40916	1.3311	2.4914	74.94	-0.2404	0.0749	0.3152	1089.3285	0.170156	-440.255174	-440.246233	-440.245289	-440.288824	33.639	
C	 0.1359126065	 1.3109765816	 0.183994199	-0.249577
O	 0.0442600964	-0.0856020138	-0.0377693169	-0.27212
C	 0.6030938513	-0.56673756	-1.2254866076	 0.512373
C	-0.1466747361	-0.0755997893	-2.469609829	-0.444669
O	 1.9791832865	-0.166898668	-1.3063762792	-0.309369
C	 2.8051603511	-1.2336113169	-1.7601681147	-0.083184
C	 2.0167667192	-2.5036446641	-1.5177454243	-0.051833
N	 1.5470072795	-2.5943081353	-0.1227663495	-0.32403
C	 0.6426903834	-2.0871468747	-1.1685461828	-0.1215
H	 1.1721078992	 1.6577476848	 0.1177312447	 0.131908
H	-0.4823425804	 1.889035624	-0.5172546099	 0.100902
H	-0.2378541417	 1.4835559103	 1.1958410101	 0.124145
H	-0.0082488001	 0.9995754029	-2.6021421906	 0.128867
H	 0.2390646708	-0.5743172499	-3.3638441619	 0.116386
H	-1.2162966657	-0.2887795704	-2.3829703315	 0.120091
H	 3.0309902635	-1.1274787011	-2.8327441917	 0.090758
H	 3.7454605768	-1.1961644858	-1.1995607428	 0.114608
H	 2.2337357032	-3.4006600489	-2.087739104	 0.092556
H	 1.29687827	-3.5579745609	 0.0867930143	 0.231884
H	-0.2397848233	-2.6494565946	-1.4522821916	 0.091806
76.0162	96.7026	173.1046	184.2239	231.1962	294.6372	337.0675	370.4312	395.1437	486.8522	534.6865	628.7775	720.9744	786.7881	826.5614	872.6437	881.8649	915.8389	927.4722	978.8908	1016.5226	1068.1747	1074.7059	1099.9739	1105.2857	1148.8418	1162.6025	1178.6258	1181.2729	1227.9903	1229.7755	1249.3397	1268.1069	1371.9643	1391.9794	1399.3785	1437.4216	1470.899	1483.097	1488.1391	1502.5012	1509.903	1512.1672	2982.8849	3002.2983	3044.4301	3065.0019	3079.5707	3114.3714	3123.1562	3131.866	3168.4142	3180.3482	3498.9405
COC1(C)OCC2NC12	CO[C@@]1(C)OC[C@H]2N[C@@H]12	
InChI=1S/C6H11NO2/c1-6(8-2)5-4(7-5)3-9-6/h4-5,7H,3H2,1-2H3	InChI=1S/C6H11NO2/c1-6(8-2)5-4(7-5)3-9-6/h4-5,7H,3H2,1-2H3/t4-,5-,6+/m1/s1
