16
gdb 67418	2.80346	1.54508	1.29078	0.6891	77.17	-0.2182	0.0272	0.2454	1014.3884	0.123836	-400.638861	-400.631192	-400.630247	-400.670681	30.603	
O	-0.1257175139	 1.3905800629	 0.1204994443	-0.443403
C	 0.0001787125	 0.0402377203	 0.0240397739	 0.33641
C	-1.0507367698	-1.0209133998	-0.069368558	-0.179449
C	-0.4100860119	-1.6365049737	-1.3061417337	-0.240311
C	 0.9103863984	-0.9551213799	-0.8350196747	-0.125512
N	 1.3050699028	-1.6236433064	 0.435700433	-0.352883
C	 0.0887746407	-1.072674088	 1.0433199488	 0.14884
C	-0.2080878258	-1.0863954281	 2.4290559183	 0.136109
C	-0.4550144091	-1.095424364	 3.6074284507	-0.373394
H	 0.6327223479	 1.7380054293	 0.6056803256	 0.301453
H	-2.089459637	-0.9649083358	 0.2267457238	 0.105648
H	-0.3909066466	-2.7272650977	-1.4117426486	 0.092726
H	-0.7979703196	-1.178767716	-2.2200131595	 0.11419
H	 1.7100120621	-0.7079839034	-1.5303382656	 0.08502
H	 1.298484731	-2.6431936572	 0.3631244988	 0.212113
H	-0.6727330817	-1.1019789226	 4.6464425529	 0.182442
110.042	157.2109	247.3703	318.5876	364.8975	408.8682	470.1968	494.8969	547.3366	555.0953	586.1254	669.2524	675.6335	702.8058	794.9512	842.9392	909.9772	944.349	948.8301	965.097	1016.2888	1033.8122	1073.0171	1099.5084	1117.1823	1164.8542	1215.1809	1254.225	1265.4317	1287.742	1340.0325	1358.2546	1479.5464	1504.8014	2230.9002	3036.2106	3104.5061	3139.3016	3217.8844	3421.6508	3502.9031	3780.0029
OC12C3CC1NC23C#C	O[C@@]12[C@H]3C[C@@H]1N[C@@]23C#C	
InChI=1S/C7H7NO/c1-2-6-4-3-5(8-6)7(4,6)9/h1,4-5,8-9H,3H2	InChI=1S/C7H7NO/c1-2-6-4-3-5(8-6)7(4,6)9/h1,4-5,8-9H,3H2/t4-,5-,6+,7-/m0/s1
