19
gdb 106476	2.60172	1.68763	1.27649	3.2844	76.74	-0.2227	0.0313	0.254	1044.8665	0.161189	-419.187541	-419.179658	-419.178714	-419.219697	31.291	
C	-0.02601119	 1.4636015326	 0.1361125238	-0.346034
N	-0.0741632265	 0.0141040742	-0.0625205052	-0.3819
C	 0.6491702791	-0.4850968382	-1.1760807451	 0.242894
C	 2.2361421421	-0.4363860762	-1.4098636305	-0.290571
C	 1.8562464681	-1.5297131079	-2.4225311993	 0.094758
C	 0.7827159168	-2.025761451	-1.4324892375	-0.286919
O	 1.0596732378	-0.7849981823	-3.3949093946	-0.25994
C	 0.2223998671	-0.0630902216	-2.5735828426	 0.44849
N	-0.6701895265	 0.7491676301	-2.9321270629	-0.577221
H	 0.9948773195	 1.8618540165	 0.2637481794	 0.092644
H	-0.4860070161	 1.9538512449	-0.7233044438	 0.169503
H	-0.6041094695	 1.7149693591	 1.0293626614	 0.115847
H	 0.2237403039	-0.4671203732	 0.7782519038	 0.217172
H	 2.6869256191	 0.4750419262	-1.8065978796	 0.114553
H	 2.7851724133	-0.8111099854	-0.5435001905	 0.102236
H	 2.5599564029	-2.1701574661	-2.9470824331	 0.095615
H	 1.2007070994	-2.5532857984	-0.5719799731	 0.10425
H	-0.080754515	-2.5544956422	-1.8405638267	 0.121168
H	-0.7099215456	 0.813872319	-3.9511616038	 0.223455
112.7314	161.9213	199.5465	220.2972	313.5937	414.0034	456.6342	473.7911	514.1068	603.6911	651.2389	700.8912	745.3011	819.249	858.5203	880.7623	901.1988	917.8266	938.0494	975.4715	992.3368	1011.7912	1044.3367	1061.9416	1113.4155	1135.8388	1157.6776	1170.2551	1226.2485	1229.9804	1242.2884	1246.1675	1332.5629	1396.3059	1460.3821	1471.9539	1482.523	1502.5277	1512.0952	1524.2028	1804.4338	2960.3032	3067.8598	3074.6778	3086.106	3137.4218	3142.7659	3143.9113	3162.6837	3466.2694	3533.6703
CNC12CC(C1)OC2=N	CN[C@@]12C[C@@H](C1)O[C]2[NH]	
InChI=1S/C6H10N2O/c1-8-6-2-4(3-6)9-5(6)7/h4,7-8H,2-3H2,1H3	InChI=1S/C6H10N2O/c1-8-6-2-4(3-6)9-5(6)7/h4,7-8H,2-3H2,1H3/t4-,6-
