17
gdb 126412	4.78515	1.04224	0.86491	3.3643	81.29	-0.2188	-0.0729	0.1459	1318.9621	0.137741	-414.203269	-414.194993	-414.194049	-414.236872	30.529	
C	 0.094058324	 1.5686929649	 0.0082888703	-0.372812
C	-0.0231568295	 0.0446314303	 0.002470905	-0.280203
C	-1.4378012691	-0.4753246038	 0.0129730403	 0.301395
N	-2.439151073	 0.3560986586	 0.0239560539	-0.217221
N	-3.6596550646	-0.1736711675	 0.0326592368	-0.236289
C	-3.9868555121	-1.5359213857	 0.0312061507	 0.436775
N	-5.2178926404	-1.8653905898	 0.0403668453	-0.559301
N	-2.8930945813	-2.4127080045	 0.0194186462	-0.289165
C	-1.7104485744	-1.8958476563	 0.0110155576	-0.02708
H	 1.1460529385	 1.8662448184	 0.0001417452	 0.112571
H	-0.3961687434	 2.0047129361	-0.8659407061	 0.131425
H	-0.3802773395	 1.9967701445	 0.8951338873	 0.131364
H	 0.4924921367	-0.3673446182	-0.8765723546	 0.120343
H	 0.5083432638	-0.3753214019	 0.8681759303	 0.120295
H	-4.4255290283	 0.4846459241	 0.0411341635	 0.280907
H	-5.2864218261	-2.8813059637	 0.0378127235	 0.225478
H	-0.8657960312	-2.5875578755	 0.001941235	 0.121518
54.9635	68.8667	185.7173	215.3323	302.729	371.463	383.388	446.1643	495.2096	558.7914	647.254	690.3801	750.5935	763.1662	792.772	838.6722	840.1192	992.0369	993.1416	1015.2467	1055.7059	1092.5374	1107.864	1217.0195	1278.4464	1286.8694	1320.1845	1381.0999	1417.0993	1434.2128	1440.5009	1477.5043	1493.3712	1501.8474	1571.4489	1673.5991	1728.1632	3007.3707	3028.8489	3051.3364	3111.1558	3123.6508	3126.1529	3516.5965	3612.5378
CCC1=NNC(=N)N=C1	CCc1n[nH]c([NH])nc1	
InChI=1S/C5H8N4/c1-2-4-3-7-5(6)9-8-4/h3H,2H2,1H3,(H2,6,7,9)	InChI=1S/C5H13N4/c1-2-4-3-7-5(6)9-8-4/h4-9H,2-3H2,1H3
