17
gdb 20234	4.13384	2.65302	2.26122	1.6613	69.09	-0.2194	0.0838	0.3032	682.8315	0.14611	-326.666831	-326.661418	-326.660474	-326.696026	23.084	
C	-0.0442353908	 1.583055155	-0.006208026	-0.22759
C	 1.4455408345	 2.0425849964	-0.0053786715	-0.22759
C	 2.2157551811	 0.7246755019	 0.0542055344	 0.022106
C	 2.0970226841	-0.0930587889	 1.3368994426	-0.09414
C	 0.6191680436	-0.5489019249	 1.3360855072	-0.094142
C	 1.6540320922	-1.2789876963	 0.536626899	-0.035586
N	 1.3645578474	-0.3383913141	-0.6410882279	-0.188762
C	 0.0617194491	 0.060251747	 0.0530134392	 0.022106
H	-0.610395796	 1.9750498492	 0.8436092329	 0.101642
H	-0.5564795145	 1.904775652	-0.9177344581	 0.105261
H	 1.6884723554	 2.5972492913	-0.9164826332	 0.105261
H	 1.6916474181	 2.685124038	 0.8448930623	 0.101643
H	 3.2240539654	 0.7524428978	-0.3639615182	 0.071881
H	 2.6807833131	-0.0610166674	 2.2487060962	 0.084643
H	 0.1178714481	-0.8515434375	 2.2472959326	 0.084643
H	 1.9718022986	-2.3090832713	 0.4680986311	 0.096743
H	-0.7865985493	-0.4846663081	-0.3661789828	 0.071881
165.0133	352.0459	452.2892	657.3409	687.1398	753.2248	761.2892	761.904	822.6896	826.2965	866.8838	885.1327	891.4019	903.8351	964.2345	980.5234	1014.717	1026.9937	1033.4658	1051.9866	1054.7046	1070.1687	1098.155	1153.9032	1182.4123	1205.1753	1248.5003	1253.3061	1261.6626	1282.1633	1331.8616	1349.9213	1361.0287	1371.3435	1477.4583	1499.2515	3048.6296	3058.4574	3083.5226	3090.153	3091.5445	3106.3891	3182.8162	3189.5554	3224.5378
C1CC2C3C4C3N2C14	C1C[C@H]2[C@H]3[C@@H]4[C@H]3N2[C@H]14	
InChI=1S/C7H9N/c1-2-4-6-5-3(1)8(4)7(5)6/h3-7H,1-2H2	InChI=1S/C7H9N/c1-2-4-6-5-3(1)8(4)7(5)6/h3-7H,1-2H2/t3-,4+,5-,6+,7-
