12
gdb 23663	3.94744	1.96634	1.31298	1.4198	59.6	-0.2338	-0.0258	0.208	830.7513	0.085959	-418.881269	-418.875003	-418.874058	-418.911587	23.849	
N	-0.0018831937	 1.3336461853	-0.0968308974	-0.552034
C	 0.0026260025	-0.0237651397	-0.0400651954	 0.451276
N	-1.1906889479	-0.639521538	-0.0193085234	-0.317919
C	-1.1484117091	-1.9711346093	-0.0054032112	 0.025854
C	 0.0305024452	-2.7052902772	-0.0083075313	-0.2963
C	 1.1862628466	-1.9312902896	-0.020041027	 0.340794
F	 2.3663898395	-2.5354358717	-0.0128435672	-0.064282
N	 1.210483716	-0.6221164106	-0.0345288914	-0.360962
H	 0.8618419671	 1.8158590541	 0.0814636623	 0.268578
H	-0.8713934123	 1.803409824	 0.0867598227	 0.267748
H	-2.1099530309	-2.4792542967	 0.0110492002	 0.120795
H	 0.060276267	-3.7850722406	 0.004926969	 0.116449
188.6932	231.3798	310.1609	341.9225	469.1622	493.0324	532.9749	555.2071	598.2291	720.315	793.6834	811.9526	824.1008	983.7311	1004.4162	1013.8954	1082.0325	1140.5745	1299.6481	1313.0918	1373.258	1492.5705	1499.8255	1599.731	1628.8775	1660.1679	3158.2349	3238.3663	3619.6511	3752.8704
NC1=NC=CC(F)=N1	Nc1nccc(F)n1	
InChI=1S/C4H4FN3/c5-3-1-2-7-4(6)8-3/h1-2H,(H2,6,7,8)	InChI=1S/C4H4FN3/c5-3-1-2-7-4(6)8-3/h1-2H,(H2,6,7,8)
