16
gdb 126271	1.99412	1.62842	0.9504	3.3631	81.56	-0.2429	-0.0427	0.2002	1216.2458	0.123316	-400.719424	-400.710862	-400.709917	-400.753641	31.074	
C	-0.3976099548	 1.5610183285	-0.0980363048	-0.370547
C	 0.0840975992	 0.1074398171	 0.0512022707	-0.323049
C	 0.7600138306	-0.4190593023	-1.1767147183	 0.053507
C	 2.0875871941	-0.7019803484	-1.3665767767	 0.242097
O	 2.2949703333	-1.1457902305	-2.6323910821	-0.214797
N	 1.0872591426	-1.1622316621	-3.3039722249	-0.127505
C	 0.1959421246	-0.7343875474	-2.4438054443	-0.044386
C	 3.1973355387	-0.6125420531	-0.5056756902	 0.238534
C	 4.1333216875	-0.530031373	 0.246920275	-0.402531
H	 0.4422772451	 2.2317353778	-0.3015133322	 0.129388
H	-1.1112750336	 1.6606386571	-0.9219721466	 0.121706
H	-0.8915075916	 1.8983230767	 0.8180418769	 0.119729
H	 0.7795989362	 0.0350790816	 0.8934810055	 0.121155
H	-0.7710905598	-0.5335311743	 0.2982047333	 0.117248
H	-0.8383048068	-0.6654415859	-2.7527485127	 0.133858
H	 4.9638060547	-0.4591295916	 0.9055095615	 0.205593
30.5638	131.0002	155.5967	171.4409	219.0076	319.183	374.035	464.616	531.8546	589.0247	598.361	650.1701	676.247	691.5632	748.4443	791.392	910.3047	948.0384	961.4795	978.7985	1059.2056	1083.831	1160.9037	1205.7209	1232.3958	1296.5512	1358.2733	1404.9345	1418.4409	1484.0518	1491.1504	1498.6882	1506.7161	1637.3652	2235.736	3032.2127	3039.6419	3076.9603	3111.8668	3117.4487	3236.7961	3499.4331
CCC1=C(ON=C1)C#C	CCc1c(onc1)C#C	
InChI=1S/C7H7NO/c1-3-6-5-8-9-7(6)4-2/h2,5H,3H2,1H3	InChI=1S/C7H7NO/c1-3-6-5-8-9-7(6)4-2/h2,5H,3H2,1H3
