19
gdb 100418	3.76532	0.74026	0.65193	7.6191	75.75	-0.2449	0.0072	0.252	1709.562	0.157876	-456.399207	-456.388932	-456.387988	-456.435881	36.189	
C	 0.0386328385	 1.5718683598	-0.1595152995	-0.374777
C	-0.0425500144	 0.0593463163	 0.1074947393	-0.261575
C	-1.4565990744	-0.4725145493	 0.054172719	 0.381879
N	-2.0347135917	-0.4857073298	-1.1877229802	-0.538299
N	-2.0423361127	-0.8219144312	 1.1391405611	-0.307735
H	-2.1645920764	-1.0981952029	 2.9538443106	 0.304114
C	-3.4090814557	-1.3018112235	 1.1051995955	-0.325245
C	-3.8722141527	-1.6628051765	 2.5263180661	 0.415692
O	-2.9378020412	-1.4457872144	 3.4563888992	-0.360888
O	-4.9675520433	-2.0953699446	 2.7660012515	-0.345206
H	 1.0744977719	 1.9157318091	-0.0929444715	 0.126239
H	-0.3384580599	 1.8302477996	-1.1536784543	 0.118011
H	-0.5521652445	 2.1248753281	 0.5763328257	 0.13745
H	 0.5745706644	-0.4806877708	-0.6223951479	 0.10711
H	 0.3485532022	-0.1699740576	 1.1000720785	 0.130958
H	-1.4552666607	-0.3828215797	-2.0029480493	 0.262672
H	-2.9164324328	-0.9490203357	-1.3277337545	 0.267784
H	-4.1155967526	-0.5541141974	 0.7144278465	 0.134121
H	-3.534037414	-2.2064038795	 0.4893605742	 0.127694
34.1072	68.848	70.9149	133.7544	189.7183	229.1776	275.5008	294.1051	311.4396	368.8395	473.0259	509.7077	581.531	597.896	640.1493	717.3481	799.6318	833.4211	847.239	897.2336	990.8718	999.4253	1046.1514	1060.5267	1086.3934	1177.113	1223.8096	1233.3781	1276.6405	1331.5036	1347.1984	1384.95	1416.7902	1451.9828	1457.4946	1481.0442	1497.6489	1508.1252	1646.6491	1737.1057	1875.5839	2980.6347	3017.3366	3029.2739	3043.8407	3105.5504	3120.6642	3127.7958	3428.5166	3613.4821	3728.4065
CCC(N)=[NH+]CC([O-])=O	CCC(=NCC(=O)O)N	
InChI=1S/C5H10N2O2/c1-2-4(6)7-3-5(8)9/h2-3H2,1H3,(H2,6,7)(H,8,9)	InChI=1S/C5H10N2O2/c1-2-4(6)7-3-5(8)9/h2-3H2,1H3,(H2,6,7)(H,8,9)
