17
gdb 31753	3.08737	1.19054	0.86861	1.7411	71.99	-0.1784	0.0563	0.2346	1299.8877	0.135819	-455.167301	-455.158073	-455.157128	-455.20201	32.34	
C	-0.0168440234	 1.371863809	 0.0175378223	-0.234139
O	 0.0169927535	-0.05461733	-0.0275551127	-0.270352
C	 0.6311953385	-0.5700770177	-1.0997520827	 0.501851
N	 1.1918102437	 0.079874595	-2.0935177828	-0.455269
C	 1.6701601026	-0.9124585243	-2.921631735	 0.369716
O	 2.323445305	-0.6486660992	-4.0719547596	-0.275328
C	 2.4927689088	 0.7246790374	-4.3940899277	-0.228966
C	 1.3991724263	-2.1586178798	-2.4300962766	-0.237406
N	 0.7163371099	-1.9107054545	-1.231970144	-0.344129
H	 0.9965235974	 1.7839817934	 0.0317784004	 0.138566
H	-0.5470800869	 1.7752622158	-0.8502257017	 0.138704
H	-0.5438816398	 1.6268348643	 0.9375153873	 0.13051
H	 3.0336556163	 0.7431740319	-5.3420559995	 0.121497
H	 1.5283759039	 1.2319370494	-4.5056544522	 0.124783
H	 3.0708451374	 1.248326422	-3.6251075117	 0.124977
H	 1.6096253455	-3.1498959113	-2.7867818821	 0.127948
H	 0.3522038513	-2.5889993215	-0.5861049019	 0.267036
54.1506	99.26	142.9667	159.8755	161.4269	258.8766	280.1036	313.5646	454.0493	472.4939	549.3529	599.1002	612.4921	688.4137	736.1337	766.3512	986.233	1027.7778	1071.6874	1090.6223	1107.0783	1181.081	1184.0035	1206.1831	1220.9978	1259.1642	1320.2542	1383.8178	1463.5855	1477.5349	1478.5467	1480.2027	1501.4639	1504.8809	1523.6855	1618.6757	1644.1617	3026.8463	3040.8837	3089.8263	3110.8909	3133.983	3150.989	3301.0398	3683.1455
COC1=NC(OC)=CN1	COc1nc(OC)c[nH]1	
InChI=1S/C5H8N2O2/c1-8-4-3-6-5(7-4)9-2/h3H,1-2H3,(H,6,7)	InChI=1S/C5H8N2O2/c1-8-4-3-6-5(7-4)9-2/h3H,1-2H3,(H,6,7)
