19
gdb 94174	2.47465	1.47508	1.19402	5.4241	71.19	-0.2408	0.0187	0.2595	1105.8467	0.160177	-456.356407	-456.347621	-456.346677	-456.389362	33.973	
C	 0.4382694809	 1.6120759875	-0.2592609729	-0.429298
C	-0.0273386165	 0.2220579066	 0.1528311539	 0.002306
N	 0.3846366254	-0.8942050383	-0.7469649988	-0.35585
H	-0.5481394681	-2.1204673953	 0.3132387899	 0.317368
H	 0.5408567851	-0.6559587449	-1.7210940289	 0.227593
C	 1.5883721316	-1.1596204768	 0.0830008707	-0.212083
C	 0.8495090406	-0.4809376005	 1.2776199301	 0.152877
N	 1.63499373	 0.2511033066	 2.221693016	-0.591346
C	-0.0390758365	-1.4888734046	 2.0296450152	 0.43577
O	-0.1324599721	-1.4985874991	 3.2302509139	-0.351062
O	-0.7259004565	-2.3418809444	 1.2586290163	-0.385328
H	 1.5144569467	 1.6493066593	-0.4593100893	 0.12535
H	-0.0843625566	 1.9322083366	-1.1670881975	 0.126693
H	 0.2092909901	 2.3444588808	 0.522280258	 0.131931
H	-1.1076576902	 0.2369257916	 0.3364653026	 0.092717
H	 1.8619155089	-2.2147519677	 0.1732992373	 0.122768
H	 2.4740569582	-0.5783186211	-0.1975166255	 0.110552
H	 1.7921790078	 1.2111386803	 1.9439004582	 0.227932
H	 1.1886499613	 0.2172548435	 3.1329666208	 0.251108
107.0535	162.1065	213.3152	239.0987	247.458	293.8932	305.9717	367.3921	420.3329	443.9037	479.4408	596.1909	694.3013	716.2662	748.6	800.314	843.4743	870.5843	897.7592	930.1188	998.3203	1004.5163	1036.1256	1064.6978	1095.5041	1119.1046	1173.0079	1216.0485	1238.9886	1286.6761	1330.8538	1342.6939	1359.0386	1393.5986	1408.5395	1461.0072	1494.6514	1497.5399	1527.0044	1627.1998	1852.0056	3029.0359	3035.2459	3039.5154	3093.6315	3098.1213	3104.1164	3361.0453	3510.836	3520.7265	3612.5674
CC1[NH2+]CC1(N)C([O-])=O	C[C@H]1NC[C@]1(N)C(=O)O	
InChI=1S/C5H10N2O2/c1-3-5(6,2-7-3)4(8)9/h3,7H,2,6H2,1H3,(H,8,9)	InChI=1S/C5H10N2O2/c1-3-5(6,2-7-3)4(8)9/h3,7H,2,6H2,1H3,(H,8,9)/t3-,5-/m1/s1
