16
gdb 35264	2.97785	1.38248	1.09754	4.9836	69.43	-0.2636	-0.0007	0.2629	1098.9662	0.123963	-437.843891	-437.835742	-437.834798	-437.877548	28.996	
N	-0.1443396594	-1.2166003471	 0.1388663955	-0.329232
C	 0.0381672431	-0.0756956534	 0.1332939215	 0.31666
C	 0.0977854726	 1.3701369974	 0.0895758354	-0.095213
O	 0.7646655093	 2.0516974151	 1.1559373685	-0.230882
C	 1.325339394	 2.1586446089	-0.1491493485	 0.044711
C	 2.6994507124	 1.5729363222	-0.3557925841	 0.094025
C	 3.7917476144	 2.1379242132	 0.5888531093	-0.292238
C	 3.7947931264	 0.7151148023	 1.1836674618	-0.057864
O	 2.8429167313	 0.2572722947	 0.1936956968	-0.273079
H	-0.8521324401	 1.816737912	-0.2033691008	 0.141401
H	 1.1824098504	 3.133882383	-0.6217355741	 0.107685
H	 2.9366743863	 1.5981149722	-1.4280660942	 0.092647
H	 4.7142719676	 2.4321112781	 0.0879944389	 0.120268
H	 3.4655901179	 2.9340429111	 1.2590010877	 0.125937
H	 4.738336083	 0.1639209665	 1.1166988518	 0.112226
H	 3.3910237308	 0.6299364337	 2.1976980644	 0.122948
60.4244	89.145	127.3544	198.6791	234.0281	267.9074	400.685	546.5429	570.6288	684.3082	733.4077	791.8396	828.4904	851.5522	915.0991	955.9343	971.0307	982.0083	1036.0311	1070.6832	1094.3136	1132.6279	1146.8388	1167.2528	1217.9175	1261.2511	1267.5536	1282.3203	1352.1517	1373.1222	1384.9523	1457.6911	1486.9223	1527.1606	2363.4794	3015.5261	3039.7203	3083.0684	3086.5151	3090.1009	3118.9502	3148.3686
N#CC1OC1C1CCO1	N#C[C@H]1O[C@H]1[C@H]1CCO1	
InChI=1S/C6H7NO2/c7-3-5-6(9-5)4-1-2-8-4/h4-6H,1-2H2	InChI=1S/C6H7NO2/c7-3-5-6(9-5)4-1-2-8-4/h4-6H,1-2H2/t4-,5-,6+/m1/s1
