13
gdb 130492	3.9675	1.69937	1.18977	4.012	73.58	-0.2513	-0.088	0.1634	934.1544	0.092823	-415.610744	-415.605018	-415.604073	-415.640779	23.07	
O	-0.0687788374	 1.2432404039	 0.0097483575	-0.130125
N	 1.1586577021	 1.8314825221	 0.0011315736	-0.188165
C	 2.0138843222	 0.8261742624	-0.0130883207	 0.31191
C	 3.436415757	 0.8225367589	-0.0270559151	-0.207615
C	 4.0475644179	-0.3979102962	-0.0401333668	-0.097965
C	 3.3050233412	-1.6299336536	-0.0399970138	-0.097962
C	 1.9404319847	-1.6596046431	-0.0267799826	-0.207616
C	 1.2727664002	-0.403484605	-0.0129512547	 0.311905
N	-0.0155999893	-0.1168382553	 0.0013481455	-0.188166
H	 3.99153223	 1.7522129512	-0.0271046055	 0.130435
H	 5.1307122297	-0.4543137789	-0.0510889571	 0.116465
H	 3.8608154562	-2.5613245026	-0.0508537029	 0.116464
H	 1.3776998455	-2.5846913238	-0.0266217774	 0.130435
221.0466	264.6795	415.2483	453.0519	542.5787	568.565	623.6938	639.1509	775.6714	777.6627	800.7659	885.5375	906.4061	935.3399	940.6827	964.9413	997.0033	998.4067	1061.9474	1163.228	1177.977	1278.9115	1392.4597	1399.6753	1431.3178	1493.5047	1570.2044	1575.5876	1672.5198	3183.8379	3196.6672	3216.8823	3219.2348
O1N=C2C=CC=CC2=N1	o1nc2ccccc2n1	
InChI=1S/C6H4N2O/c1-2-4-6-5(3-1)7-9-8-6/h1-4H	InChI=1S/C6H4N2O/c1-2-4-6-5(3-1)7-9-8-6/h1-4H
