20
gdb 83650	2.3885	1.72112	1.26205	2.3131	77.95	-0.2144	0.0728	0.2872	1069.6097	0.170868	-403.079056	-403.070803	-403.069858	-403.112087	31.888	
C	-0.4955555073	 1.435525062	-0.102398756	-0.422593
C	-0.0286416189	-0.0056942331	-0.007818749	-0.027259
N	 1.0491730761	-0.5046409964	-0.9423781776	-0.149917
C	 2.2271777846	 0.4120561385	-1.1283064404	-0.170922
C	 3.0711958373	-0.3879718965	-0.1012412813	-0.245609
C	 1.7765366724	-1.1570108445	 0.2257505794	-0.071594
C	 0.7954075788	-0.4913165896	 1.1937169566	 0.409944
C	 1.0288307536	 0.109640549	 2.5096644999	-0.268164
O	 0.2551223897	-1.0893617859	 2.3538440193	-0.273064
H	 0.2946933347	 2.153541332	 0.1345823168	 0.118072
H	-0.8678771142	 1.653601155	-1.1087532059	 0.130389
H	-1.3174521248	 1.6039665117	 0.6011060003	 0.128093
H	-0.8926869986	-0.6685878542	-0.1416805904	 0.097108
H	 2.5943077214	 0.3914212608	-2.1581528017	 0.109428
H	 2.044046234	 1.4556027158	-0.8562218166	 0.100491
H	 3.8399591112	-1.0131380295	-0.5599121215	 0.112233
H	 3.520953249	 0.1760061664	 0.7194418746	 0.102178
H	 1.8036370997	-2.2496036486	 0.2669404562	 0.088537
H	 1.9917587083	-0.0179161832	 3.0032874161	 0.11638
H	 0.465951463	 0.9918528403	 2.8123548512	 0.116267
51.358	179.5625	194.2003	201.1668	269.0915	291.3977	403.8787	436.3264	530.3477	562.0056	690.6477	736.2438	769.0295	831.9644	871.3671	892.87	904.8404	935.5357	963.1653	975.2321	999.4677	1050.0971	1109.2682	1123.3652	1129.3146	1139.06	1159.3855	1173.606	1193.8714	1197.8767	1227.0517	1262.3295	1280.1056	1302.2325	1323.6043	1380.1394	1403.8033	1430.5902	1480.6754	1489.7702	1496.6463	1513.8379	1532.8053	3023.4972	3035.9277	3050.7009	3063.2239	3071.497	3078.2615	3088.4673	3104.9619	3110.5723	3121.9669	3164.0331
CC1N2CCC2C11CO1	C[C@H]1N2CC[C@H]2[C@]21CO2	
InChI=1S/C7H11NO/c1-5-7(4-9-7)6-2-3-8(5)6/h5-6H,2-4H2,1H3	InChI=1S/C7H11NO/c1-5-7(4-9-7)6-2-3-8(5)6/h5-6H,2-4H2,1H3/t5-,6+,7-/m1/s1
