25
gdb 123145	5.96208	0.45947	0.43955	1.5916	88.08	-0.2434	0.0709	0.3143	2589.8154	0.225799	-426.627833	-426.615883	-426.614939	-426.666318	41.781	
C	-0.0801538611	 1.4892383106	 0.0645343232	-0.381624
C	 0.0563276425	-0.0338553063	 0.0009221993	-0.181516
C	 0.6968969943	-0.5081491742	-1.2966597363	-0.027733
O	 0.7796586891	-1.9158140077	-1.2776575368	-0.250948
C	 1.3596085899	-2.4569700593	-2.4465502864	-0.056859
C	 1.342430199	-3.9757177419	-2.3292317971	-0.185204
C	 2.0213868536	-4.6745889603	-3.5042577378	 0.130303
C	 2.0224050216	-6.1954896114	-3.3500527828	-0.402817
O	 1.3182012013	-4.2763064892	-4.6817080574	-0.434213
H	 0.8962558005	 1.9815587839	-0.0054725458	 0.114763
H	-0.7009556326	 1.8689704392	-0.7545504789	 0.115628
H	-0.5429212394	 1.8043533592	 1.0042526632	 0.115369
H	 0.6601989801	-0.3973599637	 0.84038769	 0.10394
H	-0.9271296317	-0.5083808151	 0.095924779	 0.105405
H	 0.1017239328	-0.1701018402	-2.1635650003	 0.080844
H	 1.7026207816	-0.0648255477	-1.410661158	 0.077726
H	 0.8043868814	-2.1393379527	-3.3411878543	 0.105596
H	 2.3967775651	-2.093614744	-2.5620473051	 0.074674
H	 1.8450062277	-4.2645160264	-1.3994678072	 0.101199
H	 0.3036417298	-4.3183828846	-2.2579674978	 0.108845
H	 3.0669372568	-4.3243564394	-3.5625606116	 0.062301
H	 0.9969056929	-6.5724840701	-3.2845650554	 0.125408
H	 2.5079885235	-6.6740597218	-4.2086708279	 0.101909
H	 2.565547452	-6.5010628907	-2.4498634935	 0.116613
H	 1.7294919892	-4.7110693561	-5.4351519542	 0.280392
43.1399	54.5604	77.814	111.8367	128.3454	163.1754	192.9903	231.5309	247.5709	255.9117	288.7653	333.7799	418.2638	453.3106	507.1116	519.0292	765.7142	802.6776	855.8226	901.442	909.233	949.1238	984.9433	1010.4769	1049.4092	1062.1286	1085.0572	1130.8037	1156.6936	1162.9565	1169.104	1191.357	1225.9799	1269.4069	1291.26	1300.8244	1313.8913	1315.6265	1334.884	1380.5732	1403.232	1406.3143	1413.8408	1430.3976	1454.9616	1479.93	1492.4451	1493.103	1499.7183	1500.3093	1506.9279	1518.6721	1538.7004	2934.5398	2942.9525	2949.4634	2962.1368	3012.716	3026.6615	3031.4079	3038.3786	3041.1849	3070.7141	3086.6069	3093.3805	3099.291	3106.7656	3113.4298	3819.7365
CCCOCCC(C)O	CCCOCC[C@@H](C)O	
InChI=1S/C7H16O2/c1-3-5-9-6-4-7(2)8/h7-8H,3-6H2,1-2H3	InChI=1S/C7H16O2/c1-3-5-9-6-4-7(2)8/h7-8H,3-6H2,1-2H3/t7-/m1/s1
