15
gdb 51768	2.26745	1.33834	0.91169	7.1367	67.55	-0.2668	-0.0114	0.2553	1224.3739	0.112029	-453.939792	-453.93122	-453.930275	-453.974619	29.457	
O	 0.1262135865	-0.0158501831	-0.2710066492	-0.25413
C	 0.1352842124	 1.1734740441	-0.2872058689	 0.179366
O	 1.1293912924	 1.9012432097	 0.2823011018	-0.180755
C	 1.0472378423	 3.3084794161	 0.2162190987	 0.114179
C	 1.7894955898	 3.9761689149	 1.3937487095	-0.191062
N	 2.9416088041	 4.2410499865	 0.5009280376	-0.296118
C	 2.1277127908	 3.979612085	-0.7019394891	-0.173846
C	 2.7540432702	 3.1576854598	-1.7353391721	 0.318473
N	 3.221505864	 2.5172162001	-2.5754198114	-0.312745
H	-0.6499575575	 1.8076582852	-0.7422421716	 0.084541
H	 0.0198520927	 3.6285690655	 0.02536688	 0.106458
H	 1.2672483658	 4.8673607816	 1.7646029058	 0.110102
H	 2.0170850249	 3.3108364095	 2.2305403914	 0.140706
H	 3.356884669	 5.1635135753	 0.5524145574	 0.236437
H	 1.7101293725	 4.8760180499	-1.1828295996	 0.118394
33.5638	82.6133	126.0661	154.2567	214.9377	271.56	354.8799	399.9826	551.5596	556.9819	608.6793	690.2966	799.1963	912.8658	944.9492	987.66	1010.6471	1037.5676	1045.4888	1096.8907	1131.9209	1153.491	1173.9632	1221.6197	1254.2704	1323.6512	1358.9142	1385.1408	1394.6652	1439.7688	1508.2929	1883.0629	2362.6441	2952.6094	2998.5465	3021.3437	3078.9072	3098.4052	3553.1168
O=COC1CNC1C#N	O=CO[C@H]1CN[C@H]1C#N	
InChI=1S/C5H6N2O2/c6-1-4-5(2-7-4)9-3-8/h3-5,7H,2H2	InChI=1S/C5H6N2O2/c6-1-4-5(2-7-4)9-3-8/h3-5,7H,2H2/t4-,5-/m0/s1
