21
gdb 119413	3.23131	0.93347	0.8432	1.145	79.63	-0.2266	0.0787	0.3053	1457.4821	0.180669	-424.184317	-424.174545	-424.173601	-424.219314	35.912	
C	 0.0452226312	 1.5565046637	-0.0389697754	-0.493712
C	 0.0119588719	 0.0592203346	 0.0459022708	 0.183655
C	 1.1769874981	-0.8481798794	-0.3172889956	-0.382752
C	 0.5634008719	-0.9314163882	 1.0535991741	 0.447516
C	 1.2649573421	-0.8227520226	 2.3694222771	-0.293815
C	 1.906390959	-2.1423825238	 2.794769268	-0.069672
O	 2.5345199829	-1.9264101157	 4.0497697602	-0.423151
O	-0.6150735051	-1.7550497965	 0.9920471737	-0.332703
C	-1.2454190808	-0.8050445075	 0.0930629299	-0.123717
H	 1.0319321905	 1.945043321	 0.2327910391	 0.122438
H	-0.1725577344	 1.9036760131	-1.0564170428	 0.122671
H	-0.6900271796	 2.0128001573	 0.6334438106	 0.120267
H	 1.0491734745	-1.6717416866	-1.0155784112	 0.107882
H	 2.1367765993	-0.3422728762	-0.3728470961	 0.110125
H	 2.0434436745	-0.0541815945	 2.3058265171	 0.109
H	 0.5577645227	-0.5102160592	 3.1460560102	 0.113313
H	 1.1308699682	-2.9196845701	 2.8588744788	 0.107485
H	 2.6330458842	-2.4617243859	 2.0309058154	 0.087911
H	 2.8846390301	-2.7670872475	 4.358028606	 0.285383
H	-2.0931813309	-0.3129630002	 0.5861574358	 0.102557
H	-1.5837770103	-1.2726926758	-0.8400522658	 0.099319
65.8885	96.0691	99.779	187.2391	211.2635	250.039	254.693	327.9003	346.39	375.574	450.9476	499.4082	610.1421	744.9949	792.5927	809.4309	856.3411	922.1796	950.8928	972.6533	987.3964	1004.8785	1020.4318	1038.1655	1059.3486	1084.432	1118.0976	1157.114	1173.0828	1231.5456	1237.7962	1249.8107	1283.4938	1312.4236	1327.3148	1363.8993	1409.6197	1428.9628	1458.8844	1476.6382	1486.0972	1496.718	1503.9309	1523.4647	1529.3988	2974.9483	3010.4714	3013.2162	3021.679	3039.6121	3058.2609	3079.0107	3086.3319	3097.6458	3105.5624	3197.8623	3832.3643
CC12CC1(CCO)OC2	C[C@@]12C[C@]1(CCO)OC2	
InChI=1S/C7H12O2/c1-6-4-7(6,2-3-8)9-5-6/h8H,2-5H2,1H3	InChI=1S/C7H12O2/c1-6-4-7(6,2-3-8)9-5-6/h8H,2-5H2,1H3/t6-,7-/m0/s1
