21
gdb 90868	2.68313	1.71333	1.51946	1.689	80.22	-0.2258	0.0806	0.3064	997.8014	0.185276	-387.064202	-387.056785	-387.055841	-387.095609	30.77	
C	-0.5526700722	 1.4932469952	 0.104827371	-0.393949
C	-0.0504166727	 0.0414855077	 0.0342160331	 0.031306
C	 0.5588479231	-0.3052536962	-1.3545401942	-0.242186
C	 2.0731041627	-0.2230840947	-1.4809917613	-0.044549
C	 2.992489289	 0.8135112661	-0.8852660803	 0.087595
O	 2.4730261073	 1.4067506322	 0.3025495242	-0.297278
C	 2.3519369549	 0.0786787321	 0.914973111	 0.110271
C	 0.9050113134	-0.2952532792	 1.2064727827	-0.235454
C	 2.9745873073	-0.5836511563	-0.3224838576	-0.170333
H	 0.2716960557	 2.2013053493	 0.0073244842	 0.144086
H	-1.2818484475	 1.686992672	-0.6895345628	 0.099891
H	-1.0506070869	 1.6824305382	 1.0626522671	 0.101041
H	-0.9332598893	-0.5984887846	 0.1527643753	 0.067378
H	 0.2874973689	-1.3382892188	-1.6086226034	 0.094847
H	 0.0862987896	 0.3247483099	-2.1180164067	 0.097612
H	 2.4537210565	-0.5868085791	-2.4343414876	 0.08417
H	 3.7381144135	 1.3727331572	-1.4392361111	 0.100351
H	 2.9838791784	 0.0283473034	 1.807054656	 0.079
H	 0.5570751713	 0.2136733115	 2.1128404861	 0.099397
H	 0.8872139002	-1.3713945166	 1.4257668552	 0.09572
H	 3.7133970166	-1.3737272791	-0.3208138108	 0.091083
133.7616	200.5637	239.1979	329.5558	360.7341	371.3308	422.892	509.7757	645.9611	702.9049	719.188	770.1169	793.5956	820.9598	846.7085	890.8129	927.5683	950.58	965.157	982.7292	1009.1667	1044.708	1046.92	1058.4073	1078.0651	1105.4381	1114.7824	1146.8219	1159.7341	1209.8544	1251.6477	1268.5676	1283.9279	1309.3235	1341.4714	1357.7535	1376.7596	1382.1304	1384.1364	1411.2985	1445.1661	1475.1692	1486.5164	1500.8467	1517.4743	3005.5674	3015.5568	3025.599	3033.7699	3049.5901	3055.2764	3063.6606	3087.9243	3122.4063	3143.795	3174.552	3198.7672
CC1CC2C3OC(C1)C23	C[C@H]1C[C@H]2[C@H]3O[C@@H](C1)[C@@H]23	
InChI=1S/C8H12O/c1-4-2-5-7-6(3-4)9-8(5)7/h4-8H,2-3H2,1H3	InChI=1S/C8H12O/c1-4-2-5-7-6(3-4)9-8(5)7/h4-8H,2-3H2,1H3/t4-,5+,6-,7+,8+/m0/s1
