17
gdb 49204	3.37007	1.20991	0.91961	4.1361	84.88	-0.2394	-0.077	0.1624	1226.8348	0.136655	-421.842208	-421.834297	-421.833353	-421.875084	29.492	
O	-0.0867475722	-0.0741522724	 0.0278539583	-0.285824
C	-0.0452264377	 1.1352416844	 0.1035699108	 0.101024
C	 1.1841640267	 1.9383408871	 0.0318656575	 0.174822
C	 1.0751082775	 3.2801139727	 0.1367029653	-0.129615
C	 2.1321523308	 4.26906576	 0.0533812979	-0.07797
C	 3.4614421663	 4.0695822293	 0.0651997501	-0.072502
C	 4.2293904144	 2.7977949346	 0.2743506783	-0.1364
O	 3.5103918108	 1.6822119616	 0.727545068	-0.231601
C	 2.4920609615	 1.2119865597	-0.1453211785	-0.208391
H	-0.9748820332	 1.7345304227	 0.231734864	 0.069883
H	 0.0702299889	 3.6821984321	 0.2630614953	 0.101095
H	 1.7898125917	 5.2956186419	-0.0520569421	 0.099774
H	 4.1024548157	 4.940896637	-0.0628500441	 0.106906
H	 4.789320823	 2.5681637364	-0.6521969146	 0.107376
H	 4.990456621	 2.9812897455	 1.0448784695	 0.130531
H	 2.3362429796	 0.1555447841	 0.0859508202	 0.143104
H	 2.8243658551	 1.2769222033	-1.193419416	 0.107787
70.2207	117.545	210.9041	258.3416	286.3262	349.6229	389.4923	456.2688	535.1475	543.9587	683.6254	721.4077	817.577	843.7148	903.3101	929.2396	972.3968	998.8555	1008.1641	1032.4346	1048.622	1075.7262	1160.1431	1218.3058	1248.0907	1277.5018	1328.0782	1364.3602	1397.8213	1411.3871	1434.6661	1449.78	1465.0311	1485.6623	1658.0569	1701.2987	1776.4344	2873.5493	2926.22	2982.762	3035.0593	3106.0232	3129.9855	3137.7778	3163.6016
O=CC1=CC=CCOC1	O=CC1=CC=CCOC1	
InChI=1S/C7H8O2/c8-5-7-3-1-2-4-9-6-7/h1-3,5H,4,6H2	InChI=1S/C7H8O2/c8-5-7-3-1-2-4-9-6-7/h1-3,5H,4,6H2
