17
gdb 75991	2.18532	1.57125	1.02795	2.6634	74.78	-0.2652	0.0028	0.2679	1162.1139	0.135072	-418.046775	-418.037366	-418.036422	-418.081455	32.646	
C	-0.1505341656	 1.6036814066	 0.1263024245	-0.41184
C	-0.0113161473	 0.0949524372	-0.0068201526	-0.169343
C	 0.7926455584	-0.5000584787	-1.2278654515	-0.149185
C	 1.3864044354	 0.4594741523	-2.1612696636	 0.297797
N	 1.8640803818	 1.2059009672	-2.9032397584	-0.325648
N	 1.7290364223	-1.0637662589	-0.2563206649	-0.070319
C	 2.9271067973	-1.8489226845	-0.4228661235	-0.354523
C	 1.081287734	-0.5790550918	 0.8583633861	 0.425947
O	 1.3204508589	-0.6743665148	 2.03117223	-0.36521
H	 0.8086452967	 2.109919883	-0.0132779854	 0.144081
H	-0.8568247818	 2.00423842	-0.6064470022	 0.133953
H	-0.5191130735	 1.8452351913	 1.1270245696	 0.144878
H	-0.9788040344	-0.4027658617	 0.1018992583	 0.116626
H	 0.2415776695	-1.2539764526	-1.8027411026	 0.128435
H	 3.665415429	-1.3191200557	-1.0347400443	 0.149493
H	 3.3447113486	-2.0177892603	 0.5722024993	 0.169803
H	 2.7123832806	-2.8185005887	-0.8874185988	 0.135055
69.8662	94.1546	136.4672	149.869	198.1343	219.8433	243.1844	267.872	363.7379	453.1707	524.783	606.7299	656.2339	745.2153	789.5162	811.1781	908.8108	1001.7674	1030.9155	1077.7588	1085.5604	1146.8351	1149.9747	1181.1679	1239.0498	1279.6793	1334.2446	1364.0345	1404.4429	1418.203	1449.0936	1481.8309	1494.3413	1495.2741	1515.8973	1889.4782	2355.4573	3024.2	3036.806	3047.1917	3081.0719	3083.1182	3120.7749	3125.8962	3136.7771
CC1C(C#N)N(C)C1=O	C[C@H]1[C@@H](C#N)N(C)C1=O	
InChI=1S/C6H8N2O/c1-4-5(3-7)8(2)6(4)9/h4-5H,1-2H3	InChI=1S/C6H8N2O/c1-4-5(3-7)8(2)6(4)9/h4-5H,1-2H3/t4-,5+/m0/s1
