21
gdb 59884	3.92835	0.84309	0.78996	1.6208	81.3	-0.265	0.0187	0.2837	1566.3279	0.1808	-424.266233	-424.256257	-424.255312	-424.301747	36.231	
C	 0.0742041683	 1.5186046026	-0.0755684307	-0.396219
C	-0.0066491319	-0.0023297604	 0.0034040317	 0.146527
C	 0.6907887299	-0.7079915292	-1.1502427568	-0.392808
O	 0.6534341916	-0.4610856234	 1.2137905305	-0.267823
C	-0.0732849579	-0.4530971804	 2.3489235129	 0.462378
O	-1.2261463848	-0.0903865134	 2.4185997006	-0.390939
C	 0.7271257866	-0.9525625379	 3.4959548089	-0.12864
C	 0.4381775832	-0.3447219769	 4.857906284	-0.250517
C	-0.0137463842	-1.7363607018	 4.566218197	-0.25091
H	 1.1178537974	 1.849224036	-0.0765009503	 0.119425
H	-0.4001197402	 1.8733805861	-0.9960613898	 0.117333
H	-0.4425629087	 1.9731364285	 0.7724097193	 0.140761
H	-1.0545668973	-0.3080527421	 0.0671291516	 0.109333
H	 1.7483382462	-0.429128539	-1.1939181167	 0.123852
H	 0.6253924696	-1.7935822491	-1.0383176066	 0.123811
H	 0.2222995463	-0.4294048126	-2.098865772	 0.119374
H	 1.7457579454	-1.23547001	 3.2648870828	 0.101012
H	 1.284245407	-0.1939662658	 5.5181694317	 0.118449
H	-0.3172368986	 0.431760242	 4.8793495464	 0.138295
H	-1.0717593052	-1.8927448925	 4.3926211681	 0.138667
H	 0.5142698573	-2.5669094405	 5.0199799575	 0.118639
56.3881	65.7206	115.6438	149.2988	216.3747	247.1332	268.6671	289.7194	290.1664	412.2508	425.3621	485.7297	673.5236	760.8018	794.3696	823.7737	836.1058	871.7025	915.257	923.9486	933.4703	951.4614	991.278	1066.2028	1094.4556	1114.6394	1132.3679	1140.6153	1162.7109	1203.3161	1209.9068	1210.0326	1228.9318	1355.623	1380.4052	1401.6978	1415.9245	1424.8288	1457.3322	1481.3014	1486.669	1491.053	1495.1803	1510.6045	1792.5428	3039.3068	3043.7972	3075.4032	3108.5334	3119.5751	3121.3601	3133.3748	3144.2886	3146.5084	3198.1976	3231.5057	3245.8842
CC(C)OC(=O)C1CC1	CC(C)OC(=O)C1CC1	
InChI=1S/C7H12O2/c1-5(2)9-7(8)6-3-4-6/h5-6H,3-4H2,1-2H3	InChI=1S/C7H12O2/c1-5(2)9-7(8)6-3-4-6/h5-6H,3-4H2,1-2H3
