15
gdb 77839	3.37441	1.32998	1.08388	2.6956	72.54	-0.2447	-0.0092	0.2355	1075.2522	0.110964	-420.543792	-420.53598	-420.535036	-420.57582	30.508	
O	 0.3491633069	 1.2920330339	-0.3202886869	-0.442057
C	 0.113950169	-0.0531756282	-0.0927835657	 0.174922
C	 0.0353527327	-0.6493429714	 1.3733169854	-0.238731
C	-1.4374154104	-0.0689434279	 1.4649772237	-0.214489
C	-1.6466386802	 1.3485810484	 1.6842097849	 0.273529
C	-1.8689965559	 2.5096374557	 1.9149674112	-0.399599
C	-1.3556190937	-0.6404061871	-0.0118586527	-0.238734
C	-0.6594897542	-1.8250011856	 0.6724741639	 0.440725
O	-0.6575127627	-3.0151207279	 0.6628074661	-0.308317
H	-0.2168183422	 1.8285455723	 0.2513955693	 0.294697
H	 0.7803921336	-0.596604204	-0.7655202318	 0.110896
H	 0.7915120866	-0.6433567688	 2.1544274064	 0.105995
H	-2.0998813454	-0.6341488494	 2.1265693817	 0.126304
H	-2.0602625422	 3.5358374421	 2.1136411924	 0.208864
H	-2.1398122519	-0.6245343222	-0.7646773279	 0.105995
138.7943	141.0945	195.9513	302.6219	317.6065	407.2563	441.2504	474.1011	549.0866	562.8639	624.503	645.0424	656.57	720.4283	742.9225	761.6333	860.656	912.6122	1013.084	1015.5418	1063.0168	1074.8707	1109.2515	1120.423	1167.4689	1175.7838	1212.625	1248.4042	1324.033	1386.7767	1484.4008	1929.6997	2219.7556	3068.048	3096.6331	3157.0559	3160.0602	3497.2415	3728.313
OC1C2C(C#C)C1C2=O	O[C@H]1[C@H]2[C@@H](C#C)[C@@H]1C2=O	
InChI=1S/C7H6O2/c1-2-3-4-6(8)5(3)7(4)9/h1,3-6,8H	InChI=1S/C7H6O2/c1-2-3-4-6(8)5(3)7(4)9/h1,3-6,8H/t3-,4-,5+,6+
