14
gdb 46294	3.35726	1.38784	1.27184	3.2448	61.69	-0.2673	-0.0173	0.25	987.6982	0.102107	-473.851031	-473.843954	-473.84301	-473.883137	25.773	
O	-0.3277619696	 0.0976975955	 0.3291109551	-0.315073
C	-0.1454065104	 1.2337453047	 0.0426526375	 0.417672
O	-1.0377271674	 2.145534881	-0.4600508979	-0.239553
C	-0.0216172147	 3.1977731713	-0.5428312053	-0.126295
C	 1.0164460988	 2.2507043532	 0.0880386858	 0.186857
C	 1.6745066381	 2.5617031157	 1.4572401295	-0.259251
N	 3.1197166664	 2.4651261913	 1.2085250064	-0.246129
C	 3.2391175572	 2.1043075084	 0.0044295242	 0.115817
O	 2.1206712252	 1.9199107394	-0.7565419312	-0.246634
H	 0.1813757365	 3.4690117175	-1.5799732386	 0.141971
H	-0.3137834356	 4.0675101043	 0.0490972968	 0.131492
H	 1.4137462371	 3.5577194608	 1.8279096504	 0.132182
H	 1.3822389607	 1.8319838909	 2.219080654	 0.150894
H	 4.1676801078	 1.916186966	-0.5208065667	 0.15605
87.2112	129.2078	172.0412	276.1541	342.7831	445.0842	503.1824	623.187	722.1247	763.6984	812.3441	869.9883	894.3214	933.1705	954.4714	966.4066	985.5414	1083.5204	1109.1423	1130.3695	1143.8761	1166.0968	1204.9629	1245.2219	1319.0591	1332.9769	1350.1578	1487.2744	1505.7336	1717.7073	1948.5569	3050.9671	3075.6258	3090.1988	3145.0343	3232.4701
O=C1OCC11CN=CO1	O=C1OC[C@]21CN=CO2	
InChI=1S/C5H5NO3/c7-4-5(2-8-4)1-6-3-9-5/h3H,1-2H2	InChI=1S/C5H5NO3/c7-4-5(2-8-4)1-6-3-9-5/h3H,1-2H2/t5-/m0/s1
