17
gdb 63319	2.58665	1.61194	1.31795	4.451	67.93	-0.2627	-0.0116	0.2511	1020.2419	0.134551	-458.992588	-458.984455	-458.983511	-459.024951	31.144	
C	 0.1454722347	 1.4636485514	-0.0776918298	-0.420655
C	-0.0670857703	-0.0411789838	 0.0454646383	 0.323764
C	-1.5424020329	-0.4354705016	 0.0753926939	-0.422221
O	 0.5403377207	-0.6695162353	-1.1254974265	-0.261573
C	 1.3586420503	-1.7075908645	-0.8059742222	 0.447409
O	 1.8094831749	-2.4629667731	-1.6163402052	-0.340621
C	 1.5554313548	-1.7090165062	 0.6900449245	-0.130711
O	 2.0928961587	-0.4500950133	 1.1404157848	-0.24516
C	 0.6876176419	-0.6567345259	 1.2203133534	 0.007021
H	 1.2132615961	 1.6902178726	-0.0788022362	 0.148029
H	-0.2976642682	 1.8319498856	-1.0063958481	 0.134155
H	-0.3261589809	 1.9836462151	 0.7617344334	 0.120556
H	-2.0334136736	-0.1167563577	-0.847350681	 0.141992
H	-1.6571233117	-1.519587566	 0.1685369382	 0.128038
H	-2.0486456331	 0.0414586247	 0.9205359436	 0.124351
H	 1.8851986174	-2.6021249865	 1.2072756268	 0.131024
H	 0.2500465215	-0.6759957756	 2.2142597322	 0.114602
109.9075	184.7291	215.9879	245.1152	266.4093	321.9404	335.5079	403.6855	482.2845	531.8091	599.1155	640.5247	758.798	835.0198	868.659	874.855	896.2629	940.2019	951.1693	969.3378	1010.7043	1037.0303	1088.2867	1158.8929	1207.4952	1232.9195	1243.8717	1292.5246	1320.9646	1397.779	1409.6671	1422.3796	1476.3332	1483.4594	1495.8032	1506.9759	1883.237	3041.2375	3050.2151	3113.7801	3122.143	3128.929	3143.3286	3162.7241	3199.1201
CC1(C)OC(=O)C2OC12	CC1(C)OC(=O)[C@H]2O[C@@H]12	
InChI=1S/C6H8O3/c1-6(2)4-3(8-4)5(7)9-6/h3-4H,1-2H3	InChI=1S/C6H8O3/c1-6(2)4-3(8-4)5(7)9-6/h3-4H,1-2H3/t3-,4+/m0/s1
