16
gdb 55006	2.58655	1.19411	1.13195	3.8444	66.48	-0.2467	-0.0289	0.2178	1162.5729	0.121203	-475.047447	-475.037877	-475.036932	-475.083068	33.433	
C	 0.6958132426	-2.831056902	 2.0166398469	-0.490827
C	 0.427028841	-1.8650612863	 0.8940743493	 0.349861
O	 1.2829213137	-1.2778608695	 0.2729154338	-0.301606
C	-1.0169623101	-1.6654781838	 0.4619109802	-0.049996
O	-2.0734670574	-2.1985054449	 1.2471910191	-0.218757
C	-1.9835540289	-0.7849984791	 1.1629207789	-0.043263
C	-1.6148126927	-0.0345279942	 2.4262185844	 0.405191
N	-2.0342489148	 1.2613887939	 2.4247587494	-0.526063
O	-1.0105331754	-0.5366459137	 3.3517660653	-0.3546
H	 1.7718395382	-2.9245205451	 2.1672998523	 0.133168
H	 0.2010930464	-2.4725376322	 2.9227353797	 0.192603
H	 0.2606341029	-3.8080906827	 1.7766912115	 0.138956
H	-1.1454361074	-1.7483227089	-0.618736113	 0.123258
H	-2.7591315078	-0.3213579836	 0.5504914714	 0.102727
H	-2.4534578449	 1.6917950324	 1.6189720332	 0.267121
H	-1.7426245151	 1.8523665597	 3.1864611077	 0.272228
30.7446	58.4501	146.2475	157.7155	194.3331	235.6898	274.3474	299.8177	418.6248	471.0454	502.2315	552.1223	599.7574	657.0773	732.8079	764.809	838.8755	925.2765	929.4541	1005.6999	1030.0792	1086.9584	1092.5732	1120.7279	1232.3924	1284.9525	1301.4691	1380.6222	1388.4626	1454.5981	1468.9711	1472.9477	1621.969	1805.8062	1808.5549	3043.05	3089.1185	3106.0489	3118.4316	3161.9102	3602.2065	3735.0889
CC(=O)C1OC1C(N)=O	CC(=O)[C@H]1O[C@H]1C(=O)N	
InChI=1S/C5H7NO3/c1-2(7)3-4(9-3)5(6)8/h3-4H,1H3,(H2,6,8)	InChI=1S/C5H7NO3/c1-2(7)3-4(9-3)5(6)8/h3-4H,1H3,(H2,6,8)/t3-,4-/m1/s1
