16
gdb 52514	3.80727	0.79537	0.70946	7.1925	80.87	-0.2757	-0.0685	0.2072	1587.1738	0.120899	-400.755621	-400.745195	-400.744251	-400.79389	34.377	
C	 0.0934021594	 1.3948835695	 0.1530078191	-0.506337
C	 0.0466829134	-0.0509728275	 0.0288087195	 0.156384
C	-0.0147285943	-1.2522110115	-0.0764661097	-0.012863
C	-0.0892276417	-2.6877987092	-0.2222458168	 0.219446
O	-1.1270366366	-3.2801463671	-0.3993068319	-0.267648
C	 1.2730142901	-3.4056016358	-0.1101931914	-0.252289
C	 1.7887789691	-3.3530937573	 1.3484900809	-0.395582
C	 1.1836916688	-4.7842603374	-0.5914311187	 0.282876
N	 1.1589806568	-5.8780405488	-0.9608177655	-0.314468
H	 1.120566208	 1.769604304	 0.1024015959	 0.162593
H	-0.4856977588	 1.8704979039	-0.6455336951	 0.171352
H	-0.3375612427	 1.711551086	 1.1090266605	 0.170184
H	 1.9832323586	-2.8654617272	-0.7483995332	 0.145179
H	 2.7755814262	-3.8155629807	 1.4161540445	 0.147805
H	 1.8618965732	-2.3135935332	 1.6757473318	 0.139738
H	 1.1067377905	-3.8879021276	 2.0137529699	 0.153628
15.1429	26.7934	76.2677	128.9437	159.7774	218.7604	229.3772	250.533	313.3143	385.7091	396.9505	463.1159	551.2547	574.9226	720.9639	777.7129	844.1175	953.3923	1028.368	1043.0784	1053.7453	1070.5925	1124.255	1190.5321	1279.7693	1343.8025	1406.68	1409.1712	1467.8171	1471.3095	1493.4275	1499.1157	1776.7146	2337.0488	2369.6122	3034.4796	3041.9402	3056.5174	3099.3369	3104.1853	3139.5654	3140.4745
CC#CC(=O)C(C)C#N	CC#CC(=O)[C@@H](C)C#N	
InChI=1S/C7H7NO/c1-3-4-7(9)6(2)5-8/h6H,1-2H3	InChI=1S/C7H7NO/c1-3-4-7(9)6(2)5-8/h6H,1-2H3/t6-/m0/s1
