19
gdb 39198	2.65441	2.15403	1.86417	1.2269	77.83	-0.2197	0.0155	0.2351	854.6673	0.163744	-385.878511	-385.872442	-385.871498	-385.908426	26.854	
C	-0.0051850412	 1.5295989065	 0.1444832879	-0.26987
C	 1.5347793558	 1.413086116	 0.0105372701	 0.11077
O	 2.1437016336	 1.1203012569	 1.2592205278	-0.267611
C	 1.326664824	 0.292703531	 2.0906754601	-0.073275
C	 0.5787880625	-0.7561830341	 1.2416502202	-0.096983
C	 1.628934622	-1.6682530394	 0.6162501969	-0.076114
C	 2.0777799767	-1.1392935507	-0.5223862799	-0.075
C	 1.2840150929	 0.0943978795	-0.8433322679	-0.06218
C	-0.0182313824	-0.0137500362	 0.0010577947	-0.040009
H	-0.4145485189	 2.0061134384	 1.0380942935	 0.099279
H	-0.4371149243	 2.0033293476	-0.7407944473	 0.100031
H	 2.1102042659	 2.226812655	-0.4342806756	 0.075259
H	 2.0009687124	-0.1770666034	 2.8129966353	 0.103971
H	 0.6104685738	 0.9082698151	 2.654753925	 0.089659
H	-0.1673071016	-1.2709175409	 1.8547391331	 0.065758
H	 2.0280498927	-2.5406416336	 1.1214971295	 0.093123
H	 2.8975815026	-1.5152417079	-1.1227607812	 0.095217
H	 1.1454714773	 0.3268733921	-1.9018856711	 0.064374
H	-0.8927532435	-0.518124402	-0.4161369111	 0.063601
272.652	297.3146	392.7776	432.2339	447.2629	563.5904	615.1335	684.3091	743.8167	768.5991	801.9259	832.5545	840.534	871.2927	903.8996	939.2117	953.0729	960.4763	977.5329	997.8873	1037.109	1046.5696	1065.7804	1102.901	1118.8378	1130.3466	1166.737	1201.1973	1229.3633	1248.8053	1252.0315	1283.8285	1290.8821	1318.5138	1329.2788	1341.6613	1372.5492	1404.3728	1486.403	1520.6147	1665.5896	2990.127	3058.488	3063.2364	3076.5672	3078.7107	3085.2246	3097.6982	3115.4223	3186.7639	3213.5926
C1C2OCC3C=CC2C13	C1[C@H]2OC[C@@H]3C=C[C@H]2[C@H]13	
InChI=1S/C8H10O/c1-2-6-7-3-8(6)9-4-5(1)7/h1-2,5-8H,3-4H2	InChI=1S/C8H10O/c1-2-6-7-3-8(6)9-4-5(1)7/h1-2,5-8H,3-4H2/t5-,6-,7+,8+/m0/s1
