16
gdb 17736	6.20537	1.6648	1.59648	1.8417	68.44	-0.2311	0.0873	0.3184	828.0145	0.130523	-346.482096	-346.476052	-346.475108	-346.511981	24.866	
C	 0.0196268207	 1.5676317614	 0.0083256828	-0.345104
C	 1.3444798876	 0.8124527253	-0.0079470955	-0.345104
C	 0.0471255389	 0.076106964	 0.0023612207	 0.407401
C	-0.5288845721	-0.955275257	 0.9697728662	-0.213856
C	-1.7335757905	-1.2522099469	 0.0153169881	 0.112657
O	-1.5327482072	-2.6956953051	 0.0077901443	-0.336127
C	-0.1884153155	-2.1329588544	-0.0036638346	 0.112657
C	-0.548413503	-0.9479267475	-0.9610232496	-0.213858
H	-0.2586836571	 2.0804615476	 0.9238317146	 0.113385
H	-0.27709	 2.0874025553	-0.8974337611	 0.113385
H	 1.9260129485	 0.8316155073	-0.9244919808	 0.113385
H	 1.9444243555	 0.8246654443	 0.8967738778	 0.113385
H	-0.530852593	-0.9822045094	 2.0593119873	 0.084811
H	-2.7495485449	-0.8587032083	 0.027090309	 0.099087
H	 0.6678624832	-2.8066421462	-0.0148884752	 0.099087
H	-0.572421501	-0.9665634804	-2.0504730339	 0.084811
162.474	253.539	260.6421	500.3136	556.9078	570.479	744.4272	772.3312	788.7625	798.3227	815.6908	871.0813	881.8634	904.5522	916.7125	969.1227	969.6151	994.4801	1033.862	1053.4013	1077.6084	1106.3074	1127.0977	1141.3588	1151.3178	1157.7629	1171.8654	1182.5509	1223.7984	1249.2304	1327.8349	1427.2197	1462.6584	1519.8153	3115.4086	3119.7302	3122.1967	3122.2662	3123.4334	3137.8251	3196.3998	3210.5423
C1CC11C2C3OC2C13	C1CC21[C@H]1[C@@H]3O[C@H]1[C@H]23	
InChI=1S/C7H8O/c1-2-7(1)3-5-4(7)6(3)8-5/h3-6H,1-2H2	InChI=1S/C7H8O/c1-2-7(1)3-5-4(7)6(3)8-5/h3-6H,1-2H2/t3-,4+,5-,6+
