21
gdb 78295	2.80473	1.37076	1.11154	2.6565	84.82	-0.1877	0.0758	0.2635	1209.7941	0.180258	-383.167248	-383.158074	-383.15713	-383.200255	35.842	
C	-0.1694909629	 1.3498803672	-0.0562474007	-0.318684
N	 0.0872929931	-0.0836218086	 0.0545340605	-0.071812
C	 1.5105929498	-0.418884284	-0.1148653916	-0.090814
C	 0.8956955299	-0.4246008899	 1.2365240735	-0.09081
C	 1.103053795	-1.9765465867	 1.3252373819	 0.262467
C	 1.4252435276	-2.7160302428	 2.5849589433	-0.512447
N	 0.3838413702	-2.5955419099	 0.1788568408	-0.392666
C	 1.7186491048	-1.9708118407	-0.0277086488	 0.262472
C	 2.8823660386	-2.7025116925	-0.6175514986	-0.512446
H	 0.6490882785	 1.9898486985	 0.3189127879	 0.090171
H	-0.3421499575	 1.598797771	-1.108059272	 0.123961
H	-1.0766881266	 1.5919746854	 0.5063025457	 0.123961
H	 2.2062147451	 0.2850152666	-0.5560684995	 0.086005
H	 1.0178115128	 0.2739647228	 2.055741748	 0.086005
H	 0.5302127908	-2.8548395875	 3.2035367297	 0.131147
H	 1.8384984949	-3.7071663573	 2.368112356	 0.116705
H	 2.1625826487	-2.1707164195	 3.1852843029	 0.122495
H	 0.5593251904	-3.6000115635	 0.2544348295	 0.213943
H	 2.7611374637	-2.8341623829	-1.6996599493	 0.131147
H	 3.8176443588	-2.1553744551	-0.452252386	 0.122494
H	 2.9935227344	-3.6964416706	-0.1704507032	 0.116705
168.7655	194.9434	197.1257	201.7477	212.1585	230.7919	274.5489	334.7457	354.0393	419.8251	523.945	554.1754	565.0129	746.1389	750.7527	793.0048	841.7287	843.6004	858.7416	862.0571	934.0849	990.5627	1042.5314	1059.788	1091.3556	1099.6371	1125.7999	1126.6711	1135.492	1167.0025	1214.0228	1224.8226	1316.2037	1334.5703	1338.033	1411.1862	1415.4843	1448.5747	1467.8024	1478.4956	1490.2623	1491.8502	1493.0585	1499.5696	1508.36	2942.0882	3017.611	3020.1533	3064.2064	3078.2305	3078.8981	3090.1724	3093.0137	3103.5982	3177.0377	3190.0559	3435.921
CN1C2C1C1(C)NC21C	CN1[C@H]2[C@@H]1[C@@]1(C)N[C@@]21C	
InChI=1S/C7H12N2/c1-6-4-5(9(4)3)7(6,2)8-6/h4-5,8H,1-3H3	InChI=1S/C7H12N2/c1-6-4-5(9(4)3)7(6,2)8-6/h4-5,8H,1-3H3/t4-,5+,6-,7+,9?
