18
gdb 72966	2.56109	1.51955	1.197	3.5143	76.97	-0.2535	0.0209	0.2744	1085.0342	0.146342	-401.92568	-401.916819	-401.915875	-401.958781	33.08	
C	-0.0389473503	 1.5954175658	-0.0132541681	-0.505751
C	-0.0229845159	 0.0956865569	 0.0265259433	 0.206148
C	-0.8520730364	-0.815448875	-0.8799123433	-0.148322
O	-1.0370483746	-1.7813432625	 0.194500049	-0.285654
C	-0.3413129429	-0.9255274784	 1.0863794241	 0.040047
C	 1.1131235628	-0.7600489328	 0.6346500708	 0.080816
C	 1.8538888359	-1.8580498854	-0.1119553122	-0.484648
C	 1.9144771634	-0.0284720895	 1.5833342595	 0.236903
N	 2.562565174	 0.5506806013	 2.3482481737	-0.35021
H	 0.47431806	 1.9677614298	-0.9073146854	 0.13175
H	-1.0671804788	 1.9715319041	-0.0343476258	 0.127568
H	 0.4635579828	 2.0220520856	 0.8579970136	 0.157453
H	-1.8133489947	-0.3672364558	-1.1530027865	 0.123362
H	-0.3778417655	-1.251934981	-1.7648834872	 0.116553
H	-0.6654578652	-0.8700047644	 2.1192569144	 0.129942
H	 1.1392089936	-2.5456404563	-0.5672339118	 0.149367
H	 2.5026619145	-1.4446555155	-0.8896833949	 0.132771
H	 2.4761528773	-2.431499897	 0.5801759368	 0.141905
130.1804	151.458	168.5074	182.2751	225.027	283.3008	288.9529	331.6023	420.0968	477.0959	552.226	554.4106	651.8492	688.9329	748.6793	891.9113	914.0076	965.9915	981.7763	996.3463	1016.5721	1048.39	1101.7906	1125.8833	1152.1376	1167.9204	1211.0598	1231.6212	1294.56	1310.9545	1408.3885	1420.6592	1438.452	1488.4166	1490.5552	1495.4867	1499.1805	1515.2553	2340.7819	3032.0516	3037.6721	3050.6131	3089.3428	3092.7753	3116.793	3125.8443	3142.4451	3186.4861
CC12COC1C2(C)C#N	C[C@]12CO[C@H]1[C@]2(C)C#N	
InChI=1S/C7H9NO/c1-6(3-8)5-7(6,2)4-9-5/h5H,4H2,1-2H3	InChI=1S/C7H9NO/c1-6(3-8)5-7(6,2)4-9-5/h5H,4H2,1-2H3/t5-,6-,7-/m0/s1
