21
gdb 68995	2.9093	1.26621	1.16882	1.6684	83.67	-0.219	0.0792	0.2982	1193.6227	0.181842	-387.040887	-387.032095	-387.031151	-387.074393	33.934	
C	 0.5048640366	 1.5141684624	-0.2060083826	-0.492317
C	 0.1044386579	 0.0849047772	 0.0095443816	 0.199002
C	-1.1385634772	-0.3557685008	 0.7690627242	-0.393089
C	 0.2085706113	-0.8555298074	 1.2023793045	 0.453489
O	 0.5904589004	-1.9682978686	 0.3761094697	-0.329156
C	 0.597246175	-1.110862704	-0.7977286641	-0.127324
C	 0.8058447462	-0.7796979847	 2.5549126033	-0.109935
C	 1.0900856332	-2.0596102906	 3.3089861416	-0.26466
C	 2.2298564719	-1.2249072154	 2.7837154278	-0.269139
H	 1.583576227	 1.6069556591	-0.3754713563	 0.119862
H	-0.0079366017	 1.9478561859	-1.0735166145	 0.121338
H	 0.2505241256	 2.1300373588	 0.6626526795	 0.120353
H	-1.5749150345	 0.4177046416	 1.3951870765	 0.108867
H	-1.8533650926	-1.0465044629	 0.3274391232	 0.107641
H	-0.0498517985	-1.4972939991	-1.5950937213	 0.099982
H	 1.6186355156	-0.9886526788	-1.1788282243	 0.102441
H	 0.4503020503	 0.0605511517	 3.1434279892	 0.082952
H	 0.9006459578	-2.0741432291	 4.3764214523	 0.108498
H	 0.8800636443	-2.9907311398	 2.795890618	 0.13266
H	 2.7672280032	-1.6115907558	 1.9256051953	 0.122452
H	 2.8333410083	-0.6643280897	 3.4889423164	 0.106085
66.3836	123.7523	164.0337	185.3024	248.1039	291.6071	346.4038	406.6918	451.0658	532.9664	586.3938	685.654	777.1472	790.9462	815.8929	859.254	896.112	919.606	940.7056	955.7512	983.5272	996.1547	1029.7364	1041.5558	1057.2847	1068.7397	1085.7191	1113.6441	1126.3584	1155.1102	1176.5827	1202.3027	1218.3395	1253.9244	1277.3081	1325.7555	1380.8167	1418.4938	1440.4827	1459.0386	1484.1587	1490.1668	1498.1132	1511.7284	1527.1284	3011.9018	3020.4366	3060.3299	3077.0387	3096.5352	3101.7386	3137.3915	3141.0436	3154.8267	3194.2875	3221.7362	3236.003
CC12CC1(OC2)C1CC1	C[C@]12C[C@]1(OC2)C1CC1	
InChI=1S/C8H12O/c1-7-4-8(7,9-5-7)6-2-3-6/h6H,2-5H2,1H3	InChI=1S/C8H12O/c1-7-4-8(7,9-5-7)6-2-3-6/h6H,2-5H2,1H3/t7-,8+/m1/s1
