17
gdb 37028	3.00728	1.82213	1.49761	1.7082	72.63	-0.2177	0.0016	0.2193	916.212	0.136821	-421.766186	-421.759209	-421.758265	-421.797376	28.152	
C	-0.0443014679	 1.4763628239	 0.2116354264	-0.396785
C	 1.2866498089	 0.8273001897	-0.0806733868	 0.304623
C	 1.7626749109	-0.0024764443	 1.1072633294	-0.141999
O	 0.4775357974	-0.6917609308	 1.179447652	-0.333317
C	 0.0594871505	-0.0229910543	-0.0238786133	 0.346875
C	-0.3365042458	-0.722827393	-1.2469309706	-0.174627
C	 0.2826694335	-0.3580541928	-2.3752816462	-0.079315
C	 1.3422422733	 0.7163578044	-2.4475218414	-0.1452
O	 2.0398653479	 1.0018673871	-1.2234647737	-0.302939
H	-0.2850263595	 1.8340865296	 1.208945154	 0.119246
H	-0.4773042263	 2.0445773007	-0.6045000761	 0.125954
H	 2.5641853532	-0.6950412	 0.8297998984	 0.118642
H	 2.0092012689	 0.5157087186	 2.0402490905	 0.108262
H	-1.0838524622	-1.5100405989	-1.2230185344	 0.10623
H	 0.0188811474	-0.8096329636	-3.327418794	 0.104557
H	 2.1178046386	 0.4294007268	-3.1659652665	 0.125039
H	 0.8944548612	 1.6498533469	-2.8276224075	 0.114753
107.1552	188.9039	310.6075	358.3085	399.1794	447.201	519.187	541.6185	567.5002	693.6997	731.3872	793.2824	860.3928	868.2097	902.9158	919.9767	944.772	975.8565	977.6076	1007.46	1028.5189	1044.7311	1076.5873	1135.9167	1147.0319	1195.9051	1221.2318	1258.0991	1280.2324	1329.0498	1367.3421	1417.6787	1431.6429	1481.1828	1500.5764	1513.502	1681.2018	2962.5566	3033.3283	3061.561	3090.8909	3118.085	3163.0602	3182.7312	3219.6152
C1C23COC12C=CCO3	C1[C@@]23CO[C@@]12C=CCO3	
InChI=1S/C7H8O2/c1-2-6-4-7(6,5-9-6)8-3-1/h1-2H,3-5H2	InChI=1S/C7H8O2/c1-2-6-4-7(6,5-9-6)8-3-1/h1-2H,3-5H2/t6-,7+/m0/s1
