19
gdb 103132	2.22304	1.19661	1.12054	3.7951	74.13	-0.2381	-0.0167	0.2214	1234.6431	0.155302	-460.138806	-460.128582	-460.127638	-460.173842	36.567	
C	 0.067200803	 1.2571075087	-0.3779758964	-0.254485
O	-0.1104086308	 0.0073677236	 0.2784855481	-0.27789
C	-1.3694999522	-0.5678397632	 0.1135561248	 0.389387
C	-2.4917636151	 0.0835386694	 0.8928583244	-0.4562
C	-1.6606659584	-1.2357820744	-1.193824454	 0.009107
O	-0.7188980969	-1.0962886854	-2.2087050032	-0.410132
C	-1.3377755503	-2.0971212117	 0.045374993	-0.248481
C	-0.0423902562	-2.8162163933	 0.115829644	 0.164615
O	 0.0715907562	-3.9230212298	 0.5901678457	-0.281616
H	 1.1119337796	 1.5358869643	-0.2246791012	 0.131347
H	-0.1326084322	 1.1754185107	-1.4511957811	 0.136605
H	-0.5692630876	 2.0407428241	 0.0543279879	 0.108776
H	-2.6565786272	 1.1151223265	 0.5655663383	 0.126968
H	-3.4292662744	-0.4620915673	 0.7562666246	 0.123145
H	-2.2502044029	 0.0939649793	 1.9599854658	 0.136983
H	-2.6997807667	-1.2622896231	-1.5235689841	 0.099383
H	-0.7129817816	-1.9024044224	-2.7359654055	 0.299429
H	-2.1627667127	-2.6342770318	 0.5012279682	 0.104248
H	 0.8238776564	-2.2718588542	-0.3026951092	 0.098811
76.6587	117.356	135.0969	171.9079	198.7872	208.131	244.8156	265.9282	313.8396	322.3196	374.101	440.6369	510.0377	526.3929	639.9709	713.4381	806.575	887.8831	946.9241	1003.0177	1045.858	1064.0997	1091.1378	1117.0229	1128.7006	1164.4804	1179.5401	1218.3518	1230.8079	1265.282	1312.0252	1339.6355	1413.7872	1434.775	1460.4994	1476.1019	1482.3335	1496.2202	1504.0417	1507.48	1801.2829	2965.8921	3010.018	3040.9348	3084.8195	3093.9654	3108.6125	3121.2995	3129.5125	3173.4321	3803.8354
COC1(C)C(O)C1C=O	CO[C@@]1(C)[C@@H](O)[C@H]1C=O	
InChI=1S/C6H10O3/c1-6(9-2)4(3-7)5(6)8/h3-5,8H,1-2H3	InChI=1S/C6H10O3/c1-6(9-2)4(3-7)5(6)8/h3-5,8H,1-2H3/t4-,5+,6-/m1/s1
