16
gdb 124914	2.00438	1.88857	0.9793	1.9077	81.76	-0.1996	0.0088	0.2085	1158.4619	0.124341	-396.93379	-396.924637	-396.923693	-396.967864	33.661	
C	 0.0217097386	 1.5032091462	 0.1144220649	-0.517934
C	 0.0215772084	 0.0187515972	-0.0254829833	 0.277845
C	-0.0315335231	-0.7796394209	-1.1660565448	-0.010685
C	-0.0896755083	-0.3747687483	-2.5136605394	 0.184874
C	-0.1279544621	-0.060092372	-3.6779013208	-0.43601
C	-0.005287176	-2.1208006849	-0.665726283	 0.279266
N	-0.1024835317	-3.2738483223	-1.4246279173	-0.59862
N	 0.0664634228	-2.1519646807	 0.6563524614	-0.304397
N	 0.0758179285	-0.8344104666	 1.0158289989	-0.265593
H	 0.9129475975	 1.8616217612	 0.6417943498	 0.137409
H	 0.0065545803	 1.9607580061	-0.8766238101	 0.156775
H	-0.8563481226	 1.8587660922	 0.6655903599	 0.140011
H	-0.1775817324	 0.2234311058	-4.6994590282	 0.180587
H	 0.2705658653	-3.1770721397	-2.3583221995	 0.25371
H	 0.2500719916	-4.0939560451	-0.9514157202	 0.252455
H	 0.1217404134	-0.6042022982	 1.9930943916	 0.270305
46.7703	120.3473	139.2412	203.744	257.7248	301.9442	348.8138	392.5285	435.012	473.0834	519.434	544.3644	573.1832	631.4432	653.7744	669.0886	671.4989	766.2743	810.1418	998.6774	1049.4359	1058.5394	1098.3607	1194.2072	1256.8007	1325.8954	1412.6262	1441.9529	1482.2314	1484.6983	1522.8536	1555.4949	1615.5912	1645.6053	2220.428	3031.3573	3082.8454	3134.8866	3504.0049	3558.9529	3662.5564	3682.8429
CC1=C(C#C)C(N)=NN1	Cc1c(C#C)c(N)n[nH]1	
InChI=1S/C6H7N3/c1-3-5-4(2)8-9-6(5)7/h1H,2H3,(H3,7,8,9)	InChI=1S/C6H7N3/c1-3-5-4(2)8-9-6(5)7/h1H,2H3,(H3,7,8,9)
