13
gdb 12161	3.66231	1.56578	1.20384	3.3179	61.16	-0.2703	-0.0132	0.2571	949.3747	0.096	-394.774643	-394.767046	-394.766101	-394.806937	26.829	
N	-0.0038213023	 1.3430387678	 0.2263262294	-0.508825
C	 0.0518576666	-0.0561309413	-0.083504122	-0.119106
C	-1.3065607256	-0.8146015566	-0.2784689233	-0.002638
O	-0.8386788547	-1.3249594033	-1.5615736886	-0.255278
C	 0.3175675775	-0.5580881542	-1.5026732919	 0.41645
N	 1.1989252812	-0.3377859411	-2.3600571503	-0.532785
C	-1.6372405595	-1.8749695539	 0.6628452366	 0.279799
N	-1.8865819947	-2.7003799655	 1.4319436603	-0.308714
H	 0.8863450518	 1.6715857657	 0.5802971444	 0.255577
H	-0.2240917907	 1.8960743502	-0.5954531931	 0.246844
H	 0.6807082078	-0.5724414716	 0.6450227695	 0.142904
H	-2.1573412256	-0.1412627478	-0.4133476256	 0.144148
H	 1.0212669683	-0.8290328283	-3.2374669956	 0.241623
82.2863	148.0264	149.1313	236.6187	253.5332	353.8598	437.5495	503.771	570.3378	669.9312	725.0924	776.6844	868.3972	890.7249	940.3867	961.8935	998.0127	1047.521	1168.3073	1175.9769	1210.2914	1230.0849	1282.777	1362.298	1428.5847	1673.4871	1836.7825	2362.0074	3083.5539	3101.977	3483.9918	3520.3369	3604.8196
NC1C(OC1=N)C#N	N[C@H]1[C@@H](O[C]1[NH])C#N	
InChI=1S/C4H5N3O/c5-1-2-3(6)4(7)8-2/h2-3,7H,6H2	InChI=1S/C4H5N3O/c5-1-2-3(6)4(7)8-2/h2-3,7H,6H2/t2-,3-/m0/s1
