17
gdb 79216	2.67883	1.61048	1.30153	3.0029	76.51	-0.2589	0.008	0.2668	1013.4762	0.136872	-380.822321	-380.81476	-380.813816	-380.85423	29.404	
C	-0.0518779459	 1.5799098203	 0.0121430572	-0.429412
C	 0.0882350714	 0.0721017352	 0.0573734356	 0.051231
N	 1.1096747812	-0.5655246447	-0.8378416288	-0.152297
C	 2.3796066223	-0.6290634649	-0.0244432757	-0.047043
C	 2.1552424262	-0.0417076	 1.3667173216	-0.290347
C	 0.732390768	-0.6669683711	 1.2705371898	 0.163908
C	-0.0185901111	-1.0044989786	 2.4483407623	 0.150709
N	-0.6392044593	-1.2792582315	 3.3854773967	-0.341597
C	 1.3162567771	-1.6412703991	 0.1583873295	-0.090555
H	 0.8949652891	 2.0960981146	 0.1859444919	 0.126863
H	-0.4185770749	 1.8816502529	-0.9738040522	 0.138347
H	-0.7749492925	 1.9183176876	 0.7615898759	 0.135242
H	-0.8675111705	-0.4042739797	-0.1810512883	 0.104303
H	 3.3009395423	-0.7012131571	-0.5852597282	 0.114869
H	 2.7603031354	-0.5705729978	 2.106130619	 0.131523
H	 2.2269426371	 1.0360159761	 1.5297873937	 0.115544
H	 1.2226447741	-2.7025174723	-0.02698189	 0.118713
127.5031	154.9167	180.5826	248.4297	301.9783	445.3138	501.1202	532.9182	552.9827	593.8999	696.8097	728.7821	800.5791	842.4876	869.9401	917.0709	945.4467	967.2139	980.1235	1014.7772	1061.7091	1100.5331	1117.6437	1129.5399	1153.1437	1167.3436	1205.4431	1212.8653	1265.8167	1297.3968	1335.0438	1394.4473	1414.2328	1483.9944	1489.9639	1513.7408	2346.9919	3044.1186	3065.6567	3072.313	3111.8462	3124.6371	3132.7851	3210.4984	3225.1403
CC1N2C3CC1(C#N)C23	C[C@H]1N2[C@H]3C[C@]1(C#N)[C@@H]23	
InChI=1S/C7H8N2/c1-4-7(3-8)2-5-6(7)9(4)5/h4-6H,2H2,1H3	InChI=1S/C7H8N2/c1-4-7(3-8)2-5-6(7)9(4)5/h4-6H,2H2,1H3/t4-,5+,6+,7-,9?/m1/s1
