20
gdb 14526	3.74719	1.57704	1.31346	1.7009	74.44	-0.2597	0.0876	0.3473	1012.2182	0.176785	-348.980283	-348.972132	-348.971188	-349.012777	31.019	
C	 0.0248667943	 1.5585681284	-0.4941624985	-0.462378
C	-0.0191818798	 0.1033930805	-0.0795102929	 0.395299
C	 1.1570031591	-0.7505073846	-0.3024649135	-0.230876
O	 0.8666274775	-0.2366493892	 1.0018133321	-0.272656
C	-1.3992504005	-0.5073462183	 0.00971236	-0.018465
C	-1.5710650476	-1.9445297864	 0.5736372283	-0.240434
C	-2.8400876545	-1.4596676577	 1.3242318229	-0.219157
C	-2.3484293563	 0.0001785051	 1.1388537061	-0.227448
H	 1.0509197523	 1.9341525799	-0.4802152548	 0.125131
H	-0.3820316932	 1.6871389513	-1.5031278092	 0.118647
H	-0.5726158074	 2.1722998809	 0.1882545654	 0.128944
H	 1.034974435	-1.8268772548	-0.414861222	 0.110716
H	 2.0435898906	-0.3346709257	-0.7803022806	 0.108089
H	-1.8899236844	-0.4130706273	-0.9662955541	 0.068905
H	-1.6803306197	-2.7631222311	-0.1418521077	 0.090273
H	-0.7612450345	-2.1779192083	 1.2698950888	 0.120377
H	-3.7511785242	-1.655836026	 0.751424373	 0.099204
H	-2.9893355715	-1.8166770664	 2.3456470444	 0.098352
H	-1.7707543083	 0.3418854896	 2.0027545166	 0.114145
H	-3.0884811569	 0.7621535901	 0.8829783956	 0.093335
81.6613	129.7567	184.7314	196.6929	263.7032	334.6113	370.4959	455.8694	530.3696	581.2311	721.3513	785.2465	794.4668	864.701	895.3603	918.4234	936.6937	952.7235	958.6187	1003.2517	1034.6003	1053.224	1098.8113	1136.1262	1143.6258	1171.9229	1202.574	1236.9243	1253.325	1258.6601	1261.5607	1283.4799	1289.1226	1379.0599	1393.8995	1413.5137	1475.5362	1482.9471	1487.1526	1495.7712	1509.0511	1532.5139	3033.1509	3037.8917	3054.8523	3056.2098	3062.4125	3080.4606	3098.4993	3100.0275	3111.7491	3122.1139	3123.9906	3165.018
CC1(CO1)C1CCC1	C[C@]1(CO1)C1CCC1	
InChI=1S/C7H12O/c1-7(5-8-7)6-3-2-4-6/h6H,2-5H2,1H3	InChI=1S/C7H12O/c1-7(5-8-7)6-3-2-4-6/h6H,2-5H2,1H3/t7-/m0/s1
