23
gdb 76169	1.98844	1.39623	1.16682	0.9497	93.56	-0.2312	0.0579	0.2891	1259.6296	0.2016	-351.124815	-351.113622	-351.112678	-351.159955	41.949	
C	-1.7084578758	 0.9681857513	-0.5530203459	-0.422584
C	-0.7967490724	-0.2249020335	-0.3614523917	-0.083136
C	 0.3493949836	-0.5893778421	-1.2771915684	 0.274929
C	 0.5550945764	-2.062144682	-1.5861415328	-0.454128
C	 0.71373656	 0.299211674	-2.454330499	-0.453371
C	 0.6438594606	-0.0979384436	 0.1567481767	 0.065932
C	 1.2681022481	 1.2713692263	 0.4102695304	-0.459213
C	 1.0683242325	-1.0706466025	 1.1318552696	 0.29528
C	 1.4448255912	-1.8472999955	 1.9715535419	-0.469095
H	-1.1973914975	 1.8393435883	-0.967772853	 0.116418
H	-2.5278890233	 0.71566412	-1.2355040396	 0.120434
H	-2.155825519	 1.2715270458	 0.3998391092	 0.122947
H	-1.3183633507	-1.0859929875	 0.0495811922	 0.089871
H	-0.0802106714	-2.3655178786	-2.4267586214	 0.108306
H	 1.5955701824	-2.2640520018	-1.8663813883	 0.11446
H	 0.3154543007	-2.694557234	-0.7293871627	 0.129064
H	 0.5166534963	 1.358129181	-2.284674854	 0.114221
H	 1.7759517115	 0.1941242157	-2.7032292418	 0.119373
H	 0.1406751262	-0.00128876	-3.3393771041	 0.116993
H	 0.9200235455	 2.0322196176	-0.2888914871	 0.112928
H	 1.0283831142	 1.6121719035	 1.4222740611	 0.127156
H	 2.3582451544	 1.2144155475	 0.3304553361	 0.126628
H	 1.7700885065	-2.5399416298	 2.7072687726	 0.186586
115.3291	139.6592	149.3894	156.9422	161.1965	198.7152	220.1574	243.0897	278.3802	305.9422	370.3151	403.7639	414.3083	496.2435	538.2824	568.7901	581.109	637.6444	650.3385	692.8822	777.7497	929.6399	964.6312	974.2112	985.916	1022.3283	1049.3483	1087.105	1118.2915	1131.9448	1153.9514	1188.6733	1213.0897	1289.1454	1337.1615	1405.9319	1407.5557	1416.8997	1425.7202	1443.9159	1474.3181	1486.1381	1487.4546	1493.6908	1499.5366	1500.3739	1506.2991	1523.1811	2223.5177	3024.5486	3030.6194	3034.3667	3044.9859	3079.4568	3083.462	3088.0669	3102.6288	3116.6161	3129.2857	3130.2745	3137.4491	3146.7932	3503.5819
CC1C(C)(C)C1(C)C#C	C[C@H]1C(C)(C)[C@]1(C)C#C	
InChI=1S/C9H14/c1-6-9(5)7(2)8(9,3)4/h1,7H,2-5H3	InChI=1S/C9H14/c1-6-9(5)7(2)8(9,3)4/h1,7H,2-5H3/t7-,9+/m0/s1
