18
gdb 51543	3.16833	1.05283	0.90344	2.4227	74.83	-0.2303	0.0161	0.2464	1316.0666	0.146232	-439.035559	-439.026699	-439.025755	-439.070442	31.63	
N	-0.2505408543	 1.1860668866	-0.0538632089	-0.438991
C	-0.274888545	-0.0622951494	-0.2333511173	 0.12718
O	-1.0231776053	-0.8436245997	 0.5777848401	-0.182106
C	-1.0244530366	-2.2181802804	 0.2722245308	 0.011242
C	-2.1776561984	-3.0167615937	 0.8258412657	-0.390238
C	-2.076507778	-2.7610793284	-0.6468589274	 0.422371
C	-3.0162517131	-2.0101211386	-1.5792940562	-0.352501
C	-2.6569450475	-3.1373694014	-2.5739154734	-0.073578
O	-1.8030408475	-3.7863945912	-1.5968398064	-0.304359
H	 0.3667888116	 1.6222107429	-0.7356409256	 0.23028
H	 0.2699634257	-0.6275888071	-1.0015361619	 0.092501
H	-0.0423451634	-2.68666705	 0.2605034101	 0.113807
H	-1.9575859883	-4.013144351	 1.1934471537	 0.132714
H	-2.9376950931	-2.4712595732	 1.3757850572	 0.137846
H	-4.060073806	-1.981266268	-1.2629437404	 0.122975
H	-2.6968318453	-1.0050847681	-1.8597943352	 0.12747
H	-3.4828246548	-3.787975067	-2.8793799423	 0.113454
H	-2.0922902506	-2.8274827223	-3.4600872125	 0.109934
52.1957	77.3375	91.8511	132.4055	182.4675	302.7025	358.0388	419.2778	480.3089	581.849	634.0806	787.9198	824.0074	838.3273	867.5282	873.7608	892.6637	962.7651	1009.6982	1013.6994	1047.9821	1056.1618	1064.2422	1111.8188	1118.8984	1162.5339	1178.9246	1201.8538	1212.4168	1249.9897	1286.8177	1322.787	1363.9919	1399.2036	1418.8468	1475.8572	1492.7359	1530.7362	1745.8226	3028.3559	3033.5101	3078.9573	3081.6849	3128.3063	3133.0639	3134.819	3227.0981	3517.9345
N=COC1CC11CCO1	[NH][CH]O[C@H]1C[C@]21CCO2	
InChI=1S/C6H9NO2/c7-4-8-5-3-6(5)1-2-9-6/h4-5,7H,1-3H2	InChI=1S/C6H9NO2/c7-4-8-5-3-6(5)1-2-9-6/h4-5,7H,1-3H2/t5-,6-/m0/s1
