13
gdb 15452	3.37366	2.01104	1.36789	3.447	65.15	-0.2262	-0.0109	0.2153	856.7659	0.09524	-361.46543	-361.458289	-361.457345	-361.496941	26.627	
O	-0.0367494572	-0.0056806353	 0.0700505465	-0.352828
C	-0.0360133112	 1.1979121242	 0.0415234373	 0.413133
N	-1.1396658997	 2.0229387356	-0.0575514091	-0.323083
C	-0.7845397682	 3.379385466	-0.0281173901	-0.019148
C	 0.5377058266	 3.5391808332	 0.0510255816	-0.142398
C	 1.1899780042	 2.1689583528	 0.0782950565	-0.327274
C	 2.0664284981	 1.926366035	 1.2138639974	 0.34625
C	 2.7878059532	 1.7431379556	 2.1564526964	-0.468258
H	-2.0788859743	 1.6616528974	-0.0722613111	 0.266749
H	-1.5610598529	 4.1292778537	-0.0763290283	 0.136629
H	 1.0765178879	 4.4718174995	 0.0961404806	 0.121925
H	 1.7476211217	 1.9847067155	-0.8523088226	 0.147397
H	 3.4250676618	 1.5688390969	 2.9877135748	 0.200905
82.0062	136.3216	203.6767	372.4826	396.6049	456.6326	515.95	548.3142	626.3194	638.6195	658.6438	691.4382	724.2287	806.0583	878.2786	913.4686	984.8895	1052.835	1083.3472	1136.8362	1191.2737	1202.6331	1273.9238	1370.7708	1410.7527	1673.7294	1851.8465	2243.4744	3000.7272	3238.8477	3270.9991	3504.8859	3664.5734
O=C1NC=CC1C#C	O=C1NC=C[C@H]1C#C	
InChI=1S/C6H5NO/c1-2-5-3-4-7-6(5)8/h1,3-5H,(H,7,8)	InChI=1S/C6H5NO/c1-2-5-3-4-7-6(5)8/h1,3-5H,(H,7,8)/t5-/m1/s1
