17
gdb 25670	5.5169	0.8244	0.72045	0.4491	98.07	-0.2197	-0.021	0.1986	1558.6659	0.137408	-347.607913	-347.599533	-347.598589	-347.642667	30.455	
C	-0.0182604415	 1.4830796284	 0.0103614691	-0.506129
C	 0.0023948748	 0.0287024693	 0.0024908435	 0.19812
C	 0.0186256967	-1.1780459001	-0.0039980802	-0.108674
C	 0.0377655218	-2.6028514915	-0.0114582744	 0.172744
C	 1.2557031876	-3.3034355555	-0.0222247519	-0.20025
C	 1.2706652012	-4.6928602001	-0.0294991986	-0.087805
C	 0.0752409627	-5.4094771607	-0.0261948817	-0.119581
C	-1.1388795101	-4.7251160957	-0.0155432259	-0.087819
C	-1.1610245533	-3.3357689932	-0.0082279074	-0.200237
H	 0.9967514971	 1.8951112939	 0.0029012312	 0.149937
H	-0.5434191451	 1.8787875752	-0.8664941439	 0.150229
H	-0.5266278711	 1.8694698595	 0.9011631703	 0.150233
H	 2.1842550822	-2.7438430589	-0.0247791424	 0.099389
H	 2.2198438379	-5.2186158119	-0.0377846918	 0.096486
H	 0.0897354307	-6.4941603877	-0.0318860146	 0.097435
H	-2.0736775567	-5.2760903522	-0.012915455	 0.096479
H	-2.1041351047	-2.801140899	 0.0000587137	 0.099444
18.0733	89.6535	94.0628	248.9012	298.2503	400.2184	403.3087	411.7756	522.9717	552.0054	633.0306	711.4416	712.3298	783.6998	862.7687	931.1547	956.1746	988.4908	990.2382	1011.8392	1049.5073	1052.2632	1053.6069	1098.9726	1182.3465	1200.8683	1294.1072	1312.7293	1347.1727	1413.7794	1470.2824	1476.1431	1476.8995	1525.1257	1607.2749	1640.6054	2353.5279	3024.4127	3082.3797	3088.2901	3171.0545	3179.3758	3191.5237	3198.7657	3203.6424
CC#CC1=CC=CC=C1	CC#Cc1ccccc1	
InChI=1S/C9H8/c1-2-6-9-7-4-3-5-8-9/h3-5,7-8H,1H3	InChI=1S/C9H8/c1-2-6-9-7-4-3-5-8-9/h3-5,7-8H,1H3
