19
gdb 106694	2.49642	1.47843	1.17506	2.7831	75.19	-0.2381	0.0773	0.3154	1117.7437	0.159565	-419.126753	-419.11816	-419.117216	-419.160066	32.861	
C	 0.0801739781	 1.4785273862	 0.0631271369	-0.486128
C	-0.0083785599	-0.0160369333	 0.119967302	 0.286884
N	 1.1899261637	-0.8385599846	-0.0921780724	-0.427513
C	 0.4541768653	-1.0030578312	 1.1739252958	 0.293829
C	 1.2072919621	-0.7944706708	 2.4524581535	-0.163277
O	 2.1252829887	-1.8516355522	 2.7006800646	-0.42033
C	-0.8075432736	-1.8182302108	 0.9591354071	-0.147396
N	-1.9546716669	-0.9142484429	 1.2408595479	-0.334059
C	-1.2661543536	-0.8506038067	-0.0760279859	-0.1373
H	 1.0291970293	 1.8288627925	 0.4764477978	 0.131387
H	 0.0178215188	 1.8340440147	-0.9720216205	 0.120463
H	-0.7410174025	 1.9281436289	 0.6292735097	 0.135944
H	 1.0175578307	-1.6091248796	-0.7352032334	 0.223421
H	 1.719445594	 0.1784566732	 2.4237759907	 0.092589
H	 0.5108555849	-0.7838209812	 3.2961832973	 0.122035
H	 2.7280771676	-1.8655098547	 1.9484690923	 0.287355
H	-0.9227695011	-2.8951953348	 0.9875986034	 0.100602
H	-2.810226954	-1.4587596343	 1.1113544052	 0.225742
H	-1.8058589615	-1.0393955285	-0.9971461821	 0.095751
63.3015	136.8642	198.589	205.6607	232.7948	281.1985	372.3451	426.1592	462.0247	548.8272	610.3964	615.7292	762.347	784.2527	818.1771	844.0856	865.5153	890.2873	938.0895	953.689	1036.6263	1046.7916	1065.6051	1093.3582	1104.7895	1111.5231	1140.4521	1165.7608	1184.1155	1232.9071	1274.9549	1297.3272	1345.6636	1361.4985	1376.6986	1407.6319	1425.5714	1467.3496	1488.1081	1491.2455	1496.9039	2997.0447	3033.9616	3089.248	3097.4105	3124.8671	3176.287	3191.6542	3441.0903	3465.9431	3798.1796
CC12NC1(CO)C1NC21	C[C@@]12N[C@]1(CO)[C@H]1N[C@@H]21	
InChI=1S/C6H10N2O/c1-5-3-4(7-3)6(5,2-9)8-5/h3-4,7-9H,2H2,1H3	InChI=1S/C6H10N2O/c1-5-3-4(7-3)6(5,2-9)8-5/h3-4,7-9H,2H2,1H3/t3-,4+,5+,6-/m1/s1
