15
gdb 28510	3.18534	1.36901	0.95833	3.0013	73.67	-0.1905	-0.0073	0.1832	1140.9545	0.114261	-454.011981	-454.004108	-454.003164	-454.043832	31.072	
N	-0.0654976763	 1.4224557734	-0.154574088	-0.597275
C	-0.0510363669	 0.0340579445	-0.0853918404	 0.23062
C	-1.1991505526	-0.7504156335	-0.064958562	-0.311696
C	-1.0889381898	-2.1447505736	-0.0558560206	 0.351202
O	-2.1739868023	-2.974366245	-0.0367723185	-0.446849
C	 0.1763287103	-2.7160319076	-0.0629920294	-0.094448
N	 1.2885293426	-1.9664547683	-0.0770587356	-0.353128
C	 1.1781663373	-0.6585633335	-0.0886005966	 0.373804
O	 2.3131339862	 0.0997392522	-0.097171788	-0.444986
H	 0.8031432413	 1.8503288358	 0.1317159732	 0.264413
H	-0.8720854812	 1.868026671	 0.2572393397	 0.246322
H	-2.1778026623	-0.2757694746	-0.0613131191	 0.079931
H	-2.9774210848	-2.4451648081	-0.0491999048	 0.295679
H	 0.2921315528	-3.794313223	-0.0537360837	 0.110401
H	 3.0483167657	-0.5267639496	-0.0811450562	 0.296011
148.8608	225.6282	285.9577	298.6536	326.827	344.6028	392.853	450.968	485.8662	500.2646	508.0229	582.6792	614.0453	648.5476	740.9178	773.0344	805.993	864.5936	888.6611	1008.9412	1107.9605	1147.373	1202.183	1226.2527	1299.2424	1329.2482	1350.1775	1413.7052	1504.727	1533.5242	1635.3791	1656.2963	1661.5827	3151.1828	3188.2848	3564.9143	3669.824	3786.091	3830.7654
NC1=CC(O)=CN=C1O	Nc1cc(O)cnc1O	
InChI=1S/C5H6N2O2/c6-4-1-3(8)2-7-5(4)9/h1-2,8H,6H2,(H,7,9)	InChI=1S/C5H6N2O2/c6-4-1-3(8)2-7-5(4)9/h1-2,8H,6H2,(H,7,9)
