21
gdb 88362	2.09424	1.50613	1.15801	1.4255	83.94	-0.2536	0.0501	0.3037	1182.1415	0.179712	-387.039652	-387.029689	-387.028745	-387.073598	38.797	
C	 0.0103168358	 1.5267354067	-0.0033559014	-0.41329
C	 0.0596071135	-0.0178796032	 0.0793973782	 0.067229
C	 0.7492758286	-0.4248222678	 1.4016387994	-0.424561
C	-1.3188039991	-0.538260585	 0.0782507787	 0.35906
C	-2.4402353923	-0.9767716666	 0.0652204968	-0.525797
C	 0.7690311177	-0.5562096834	-1.1819809586	-0.05394
C	 2.1188628317	-1.2470063849	-1.1711054948	-0.325347
C	 0.8779812681	-2.0345978507	-1.4712586616	 0.102585
O	 0.4637141801	-2.9579594796	-0.507083142	-0.422915
H	 1.0283459454	 1.9273210037	-0.0382260745	 0.11891
H	-0.5226328229	 1.8559425988	-0.8996562159	 0.121921
H	-0.498877759	 1.9456933922	 0.8691222892	 0.120819
H	 0.1678814759	-0.0559022999	 2.2512966811	 0.117075
H	 0.8383930809	-1.5087538393	 1.4828766597	 0.144127
H	 1.7487248598	 0.017509699	 1.4532617397	 0.114929
H	-3.4380328009	-1.3410364198	 0.0593340012	 0.198861
H	 0.5667610852	 0.0569975921	-2.0559964481	 0.087523
H	 2.8126304272	-1.032242715	-1.9764745414	 0.111063
H	 2.5860845957	-1.4454315892	-0.2142334713	 0.126669
H	 0.7136983507	-2.3537895409	-2.5003895973	 0.084117
H	-0.4813604821	-2.8164140373	-0.3650860572	 0.290962
85.4761	131.3725	182.3004	204.4222	246.6405	278.6954	295.7981	313.5562	367.3157	382.1798	430.0199	482.4807	491.9672	554.0528	624.7186	632.2997	642.0333	685.9527	805.6133	824.7946	866.4616	928.8787	948.8072	995.5462	1016.1945	1034.0638	1068.0004	1080.9861	1134.8404	1175.3729	1177.029	1221.6014	1234.3775	1261.9289	1335.3188	1379.2757	1393.6446	1418.287	1420.9241	1480.3596	1485.3541	1491.3371	1499.1227	1519.7471	2217.025	3037.1482	3045.0435	3096.3584	3111.0379	3115.5503	3118.0239	3137.0224	3143.689	3147.2377	3233.0156	3497.7266	3756.6097
CC(C)(C#C)C1CC1O	CC(C)(C#C)[C@H]1C[C@H]1O	
InChI=1S/C8H12O/c1-4-8(2,3)6-5-7(6)9/h1,6-7,9H,5H2,2-3H3	InChI=1S/C8H12O/c1-4-8(2,3)6-5-7(6)9/h1,6-7,9H,5H2,2-3H3/t6-,7+/m0/s1
