16
gdb 36051	2.34523	1.39881	1.06996	5.3972	74.67	-0.2712	0.0057	0.2769	1152.3191	0.122365	-400.704204	-400.695274	-400.69433	-400.738625	31.996	
C	-0.255508923	-1.3531164837	 0.0506857409	-0.451191
C	-0.1486118147	-0.1565500796	 0.0577719691	 0.338236
C	-0.038014787	 1.2966765525	 0.0812907306	 0.209941
C	-0.9377850209	 1.9487232883	-0.9912086912	-0.390651
C	-0.6020067766	 1.5383172029	-2.3522920587	 0.28325
N	-0.3482336277	 1.2248730211	-3.4344412862	-0.302091
C	-0.1477651733	 1.9526789306	 1.4902334498	-0.338386
C	 1.3210352459	 2.3555132527	 1.2631213279	-0.067185
O	 1.3299308355	 1.7536867294	-0.0520631281	-0.293545
H	-0.3389639253	-2.4121908259	 0.0298451781	 0.210246
H	-1.9837002392	 1.6931699235	-0.7878420201	 0.159687
H	-0.8356029125	 3.0360636063	-0.9154413999	 0.153115
H	-0.861279865	 2.7765605019	 1.547270437	 0.119842
H	-0.3313176297	 1.2518007029	 2.3029667669	 0.134061
H	 1.5273465569	 3.4301510623	 1.2180485582	 0.114358
H	 2.0467850166	 1.8779734748	 1.9299475956	 0.120313
55.9678	75.1063	115.6177	182.2019	190.1449	315.3646	363.5667	394.3763	468.7249	519.3184	539.4316	644.4786	678.5688	711.9655	780.6456	851.6311	875.1983	929.4568	975.9379	981.8974	1017.6783	1041.4142	1132.7989	1156.7809	1189.3803	1219.5881	1259.8529	1285.638	1330.6063	1352.7021	1449.1252	1486.7029	1531.5206	2237.3797	2369.0591	3035.7193	3048.9385	3078.594	3088.3354	3096.3875	3155.4577	3498.5589
C#CC1(CC#N)CCO1	C#C[C@@]1(CC#N)CCO1	
InChI=1S/C7H7NO/c1-2-7(3-5-8)4-6-9-7/h1H,3-4,6H2	InChI=1S/C7H7NO/c1-2-7(3-5-8)4-6-9-7/h1H,3-4,6H2/t7-/m1/s1
