20
gdb 57964	2.87153	0.98393	0.87827	3.5418	76.4	-0.2512	-0.0267	0.2245	1407.9167	0.16857	-440.266704	-440.256875	-440.255931	-440.302302	35.594	
C	 0.3899962482	 0.0169180706	-0.8133844887	-0.408255
C	-0.5590544112	-0.2964136975	 0.3554990987	 0.07064
O	 0.070051317	-0.0663282732	 1.5895581651	-0.444281
C	-1.8339398954	 0.540477837	 0.2701486361	 0.35647
O	-2.0993093297	 1.3192515821	 1.1623382952	-0.329239
C	-2.7374571311	 0.4242216176	-0.9516775306	-0.258585
N	-2.7125521921	-0.9024694505	-1.5483702391	-0.066105
C	-3.7356503444	-1.8402028896	-1.0862221483	-0.222603
C	-3.8218015838	-1.2262760878	-2.4393828741	-0.219014
H	 1.3173586103	-0.5425691297	-0.6687379685	 0.13352
H	-0.0548974889	-0.2775344253	-1.7668414428	 0.132808
H	 0.6376171895	 1.0829867533	-0.8344997754	 0.119058
H	-0.8582377789	-1.3528577109	 0.2773934985	 0.100626
H	-0.4563496627	 0.6264871315	 2.0199058871	 0.289174
H	-3.7423175677	 0.7638190381	-0.6522392512	 0.115277
H	-2.3634397728	 1.1423903523	-1.6950233818	 0.138831
H	-3.4114100634	-2.8693986653	-0.9664973454	 0.126789
H	-4.4425697965	-1.4916260681	-0.3353312633	 0.122009
H	-4.588647008	-0.4690920326	-2.593356876	 0.116828
H	-3.5620259083	-1.7998240421	-3.3240735154	 0.126051
55.0776	62.7541	91.4423	136.5741	218.5065	251.9657	314.3512	347.7589	381.6993	409.8429	443.1593	472.1065	577.8265	675.2875	744.0184	789.8814	844.442	903.6804	922.0074	953.4869	1030.4031	1035.1869	1060.3348	1103.5271	1112.841	1124.323	1139.2467	1172.1579	1183.9876	1207.828	1253.3794	1292.7558	1323.422	1340.9201	1357.8648	1389.2137	1437.5262	1462.8664	1492.6593	1497.3417	1497.8402	1520.4553	1789.755	2974.8793	2993.7175	3034.9714	3043.8429	3099.3742	3103.6257	3120.1554	3136.2201	3184.9903	3198.9976	3681.1437
CC(O)C(=O)CN1CC1	C[C@@H](O)C(=O)CN1CC1	
InChI=1S/C6H11NO2/c1-5(8)6(9)4-7-2-3-7/h5,8H,2-4H2,1H3	InChI=1S/C6H11NO2/c1-5(8)6(9)4-7-2-3-7/h5,8H,2-4H2,1H3/t5-/m1/s1
