21
gdb 79150	4.20928	1.18509	1.10274	1.3004	82.66	-0.2574	0.0805	0.3379	1185.3304	0.184119	-387.054923	-387.04704	-387.046096	-387.086952	31.957	
C	-0.1969683049	 1.5632336128	-0.0007694739	-0.435844
C	 0.0195624725	 0.057574299	 0.0336463717	 0.039588
C	 1.2511272187	-0.5958801189	-0.6546030021	-0.082907
C	 2.1679768499	-0.1380487205	 0.5296834221	-0.007664
C	 3.2439649473	-1.200139726	 0.7489763537	-0.282882
C	 2.3882628387	-2.4866582257	 0.5623325371	 0.0947
O	 2.2506599906	-3.2715760604	 1.7404496602	-0.444114
C	 1.0419076529	-1.8560132891	 0.2430670242	 0.003077
C	 0.8270562785	-0.619235958	 1.1767224554	-0.060723
H	 0.7147287041	 2.1300591795	 0.2066067193	 0.114693
H	-0.5661121699	 1.8779269335	-0.9835400651	 0.113531
H	-0.9478316348	 1.8619709912	 0.7394789936	 0.114995
H	-0.9229598088	-0.4571535625	-0.1906717734	 0.058863
H	 1.5059992052	-0.5897568863	-1.7177233928	 0.058646
H	 2.4625711706	 0.9078255431	 0.6123558282	 0.06042
H	 4.0614799876	-1.1209754431	 0.0240248469	 0.090839
H	 3.6743379321	-1.1666415395	 1.7554573214	 0.094168
H	 2.7545339653	-3.1088834194	-0.267828406	 0.058538
H	 3.1099393425	-3.6521765272	 1.9464321344	 0.280305
H	 0.2016373231	-2.5228201167	 0.0429879869	 0.062817
H	 0.5886689186	-0.6492812956	 2.2412428582	 0.068954
114.033	189.5353	219.9264	251.2219	296.9721	311.	417.4836	479.2039	535.0792	655.4908	725.5057	770.7632	796.6835	808.2783	865.0257	882.1602	894.4059	949.0318	977.9858	992.0744	1009.2912	1029.9178	1045.9542	1060.4457	1091.2043	1112.7862	1126.9937	1128.4691	1145.6312	1168.2613	1215.8333	1221.6266	1223.0218	1257.3098	1262.7102	1273.7327	1293.7705	1333.1136	1374.7222	1410.2603	1419.2622	1431.008	1484.2523	1495.6947	1500.1105	2984.2946	3022.879	3030.9596	3038.6935	3072.9063	3083.7057	3086.5681	3095.5435	3104.0618	3110.4978	3121.197	3820.2751
CC1C2C3CC(O)C2C13	C[C@H]1[C@H]2[C@@H]3C[C@@H](O)[C@H]2[C@H]13	
InChI=1S/C8H12O/c1-3-6-4-2-5(9)8(6)7(3)4/h3-9H,2H2,1H3	InChI=1S/C8H12O/c1-3-6-4-2-5(9)8(6)7(3)4/h3-9H,2H2,1H3/t3-,4-,5-,6-,7+,8+/m1/s1
