19
gdb 77306	2.41523	1.44881	1.11802	1.3648	82.78	-0.2388	0.0203	0.2592	1162.7113	0.157971	-385.873876	-385.864691	-385.863747	-385.907642	34.903	
C	-0.1382092759	 1.5238372877	 0.0554967466	-0.489908
C	-0.030932784	 0.0357964602	-0.025849145	 0.298538
C	-0.0200010684	-0.7385039856	-1.1105826369	-0.163908
C	 0.0518640901	-2.2105120262	-0.7858062931	-0.270054
C	 0.4574708273	-2.2203340626	 0.7204961501	-0.218432
C	 1.896024383	-2.3951525726	 0.8858278648	 0.326028
C	 3.0862515653	-2.5005520164	 1.0311348968	-0.474547
C	 0.0161815519	-0.8030581959	 1.2433768897	 0.043627
O	 0.808716027	-0.2745313974	 2.2833418317	-0.427934
H	 0.6738275379	 1.9366362375	 0.6634075856	 0.134802
H	-0.1107025796	 1.9868147811	-0.9343210598	 0.118951
H	-1.0720761567	 1.8241256057	 0.5486735505	 0.126761
H	-0.0968965184	-0.3773633676	-2.1310387902	 0.089165
H	-0.9239702125	-2.6969200502	-0.9195942256	 0.108818
H	 0.7653638629	-2.7605412242	-1.4065215522	 0.116827
H	-0.0567814017	-3.0126191396	 1.2728849295	 0.106016
H	 4.1340249584	-2.6266253423	 1.1511307992	 0.201831
H	-0.9923683189	-0.8771543741	 1.6732667997	 0.092007
H	 1.7328898123	-0.4401461975	 2.0526520089	 0.281408
59.6763	143.0272	157.6686	202.4919	239.6893	260.8618	349.2933	376.1159	410.4195	447.0528	540.4268	580.0719	619.7805	646.8312	673.024	743.3213	783.2637	840.502	863.0585	923.5258	970.0398	1008.6435	1034.4711	1059.7443	1068.4565	1114.1732	1177.2613	1196.9157	1226.4938	1258.2516	1291.4815	1323.5503	1341.7948	1346.6557	1410.2466	1436.3464	1473.8758	1487.188	1491.7653	1728.6959	2224.085	3009.3935	3014.4248	3022.5424	3062.7014	3076.6157	3077.5466	3117.3893	3183.3349	3500.7524	3746.3819
CC1=CCC(C#C)C1O	CC1=CC[C@@H](C#C)[C@H]1O	
InChI=1S/C8H10O/c1-3-7-5-4-6(2)8(7)9/h1,4,7-9H,5H2,2H3	InChI=1S/C8H10O/c1-3-7-5-4-6(2)8(7)9/h1,4,7-9H,5H2,2H3/t7-,8+/m1/s1
