19
gdb 107979	2.68777	1.45815	1.37767	2.2852	75.81	-0.2242	0.0851	0.3093	1068.8092	0.157042	-422.930954	-422.922355	-422.921411	-422.964149	32.518	
C	-0.0615484731	 1.3592462536	 0.0042591088	-0.261672
O	-0.0009948302	-0.0543367618	-0.0890776755	-0.287006
C	 0.607574075	-0.518625162	-1.2222573338	 0.376469
C	 0.1841460261	-0.3755884458	-2.7070179033	-0.357114
C	 1.4278394027	-1.2873344469	-2.7619208063	-0.138042
C	 2.1411968434	-0.5592408446	-1.5871729526	 0.002314
O	 2.4038994811	-1.7720753533	-0.8299465473	-0.358111
C	 1.077142272	-1.9987085884	-1.4084071594	 0.399408
C	 0.3635256538	-3.2792356239	-1.1232208924	-0.52932
H	 0.9430324519	 1.8040213083	 0.0097891226	 0.115232
H	-0.6360550865	 1.7950916765	-0.8245294159	 0.11568
H	-0.5607021004	 1.5945748917	 0.9461786265	 0.1334
H	-0.769841976	-0.82999647	-2.9884339818	 0.102497
H	 0.2892865866	 0.612454512	-3.1632347336	 0.098667
H	 1.9146626845	-1.7435757965	-3.6202584587	 0.089324
H	 2.8984091312	 0.2235158937	-1.6091490227	 0.091112
H	 0.1768121649	-3.378080337	-0.0498036008	 0.143865
H	-0.5982758949	-3.3029508748	-1.6450792981	 0.128861
H	 0.9603994478	-4.1344108109	-1.4540464357	 0.134436
75.7664	146.8536	165.1976	188.956	243.7745	266.9168	325.9149	409.0574	480.673	557.9831	662.5429	674.115	728.7089	781.4999	822.8758	859.1394	899.3361	923.115	951.4674	998.1004	1035.9015	1066.2941	1075.5213	1112.9899	1119.8761	1128.9483	1157.8057	1180.8581	1196.3261	1214.6736	1231.3559	1269.4132	1326.1653	1378.2015	1419.7873	1472.7672	1484.9338	1489.0232	1492.3019	1504.6933	1516.5426	2997.0354	3040.5151	3050.8399	3054.8112	3110.1991	3114.9314	3116.4122	3126.8841	3128.432	3157.0231
COC12CC3C1OC23C	CO[C@@]12C[C@H]3[C@@H]1O[C@@]23C	
InChI=1S/C7H10O2/c1-6-4-3-7(6,8-2)5(4)9-6/h4-5H,3H2,1-2H3	InChI=1S/C7H10O2/c1-6-4-3-7(6,8-2)5(4)9-6/h4-5H,3H2,1-2H3/t4-,5-,6+,7-/m0/s1
