19
gdb 65610	3.19546	1.30104	1.18849	1.5541	81.17	-0.2414	0.0426	0.2841	1119.1976	0.158053	-385.822847	-385.814268	-385.813323	-385.855869	33.137	
C	 0.1628256204	 1.4552567043	 0.0316499428	-0.449539
C	 0.023089308	-0.0673621762	-0.0230844589	 0.10571
C	 1.0159076092	-0.8360615011	-0.9842231752	-0.290903
C	 1.5370318093	-1.6906847009	 0.2006737949	-0.063165
C	 2.7177105406	-1.0639170181	 0.9562556934	-0.086339
O	 1.8269270867	-0.2217793625	 1.7314204946	-0.289158
C	 0.6638109279	-0.8600358698	 1.1778554582	 0.086593
C	-1.3557847259	-0.479675012	-0.2306043235	 0.295662
C	-2.4931735881	-0.8416028771	-0.3831169384	-0.47153
H	 1.1849873138	 1.7244556066	 0.3069367999	 0.130111
H	-0.0768990036	 1.8956619176	-0.940814513	 0.120656
H	-0.5168350544	 1.8824787496	 0.7747773912	 0.126206
H	 0.5083344418	-1.40114616	-1.7661964858	 0.117588
H	 1.7711916768	-0.1932148276	-1.445466689	 0.102477
H	 1.4976523775	-2.7739560559	 0.1053763012	 0.083115
H	 3.2670436571	-1.7552699686	 1.6077587952	 0.104655
H	 3.4337582617	-0.4813056689	 0.3632640587	 0.102297
H	-0.0130570607	-1.2468126241	 1.9431069523	 0.081927
H	-3.4997630582	-1.1487811954	-0.5241452786	 0.193637
77.0625	140.259	172.7051	214.1658	253.5216	311.9968	373.0365	441.0034	475.4999	544.1952	606.7142	620.095	627.5684	765.4201	793.6483	840.7867	863.8703	911.8655	917.7649	953.1255	980.9446	1012.2034	1020.9256	1054.5103	1130.5232	1139.7276	1156.7604	1185.7227	1205.9203	1217.7981	1246.5104	1266.8903	1301.1053	1321.4177	1359.6013	1402.5793	1477.0034	1485.1616	1496.5297	1522.7307	2226.3118	3010.1223	3042.8697	3055.281	3060.8518	3083.8939	3112.9982	3125.5506	3131.0877	3137.1461	3502.2038
CC1(CC2COC12)C#C	C[C@]1(C[C@H]2CO[C@@H]12)C#C	
InChI=1S/C8H10O/c1-3-8(2)4-6-5-9-7(6)8/h1,6-7H,4-5H2,2H3	InChI=1S/C8H10O/c1-3-8(2)4-6-5-9-7(6)8/h1,6-7H,4-5H2,2H3/t6-,7+,8+/m0/s1
