20
gdb 10301	2.60438	1.48004	1.18843	1.187	76.7	-0.2583	0.0445	0.3028	1133.6703	0.174059	-348.980822	-348.970914	-348.96997	-349.015109	36.354	
C	-0.0522239631	 1.5562628813	 0.0671091896	-0.394396
C	-0.0502707275	 0.0314156427	-0.0450281756	-0.172713
C	 0.7581692042	-0.5108132416	-1.2465829174	-0.153828
C	 2.1625939417	-0.1061373944	-1.1785874546	 0.320782
C	 3.3301335571	 0.1723553522	-1.0848219082	-0.477709
C	 0.6664030729	-2.0631346559	-1.3301167653	 0.129613
C	 1.2265360713	-2.6212351655	-2.6382696357	-0.4117
O	 1.272931776	-2.6690980802	-0.1992493547	-0.433787
H	 0.9629404177	 1.9446011873	 0.1907534168	 0.129522
H	-0.4805836181	 2.0213193848	-0.828208699	 0.110818
H	-0.6457669542	 1.8817546568	 0.9268088598	 0.113961
H	 0.350638764	-0.4219189171	 0.8666137766	 0.118802
H	-1.0791756087	-0.3338828059	-0.1498961672	 0.095118
H	 0.322963669	-0.101802768	-2.1696730555	 0.099235
H	 4.353509893	 0.4499224846	-1.0223947925	 0.19946
H	-0.3953936028	-2.3250349552	-1.2529245229	 0.086312
H	 1.1584495332	-3.7121611893	-2.6333067421	 0.123998
H	 0.6702111123	-2.2414500649	-3.5019572128	 0.111216
H	 2.2776296617	-2.3396346509	-2.7619161675	 0.123324
H	 2.1965825804	-2.3864576107	-0.1906421218	 0.28197
83.305	95.4308	143.3312	183.4052	187.6622	243.3974	258.3094	323.7454	354.1654	390.9101	407.0126	485.2146	553.3516	628.8247	648.6	666.6464	761.209	823.2634	887.3432	940.7105	955.3892	1026.6438	1054.8768	1075.2243	1108.1332	1131.695	1168.8987	1249.8758	1270.4635	1309.2381	1345.5991	1362.5165	1375.4553	1403.3975	1415.4087	1431.2934	1489.4056	1490.8756	1496.9399	1499.2947	1508.1094	2220.3346	3006.5057	3032.0272	3033.5951	3035.0137	3044.3734	3083.2208	3103.4562	3105.0663	3115.1455	3121.327	3500.9009	3767.5039
CCC(C#C)C(C)O	CC[C@@H](C#C)[C@@H](C)O	
InChI=1S/C7H12O/c1-4-7(5-2)6(3)8/h1,6-8H,5H2,2-3H3	InChI=1S/C7H12O/c1-4-7(5-2)6(3)8/h1,6-8H,5H2,2-3H3/t6-,7-/m1/s1
