16
gdb 90800	2.40475	2.06488	1.40743	3.6662	67.82	-0.2273	-0.0088	0.2185	920.793	0.125314	-437.854358	-437.847259	-437.846315	-437.885933	27.866	
O	-0.0450077624	 1.4574950981	-0.0053450614	-0.42229
C	 0.0303449532	 0.0463057938	-0.0080907561	 0.116558
C	 0.6342895577	-0.5679410858	 1.2862153229	-0.207042
N	-0.2170579017	-1.7166414999	 1.6655541144	-0.093371
C	-1.2130107796	-1.944386107	 0.6468401284	-0.068726
C	-1.6234630862	-1.4171917267	 2.0177943424	-0.176594
C	-2.1259716993	-0.1785442498	 1.3239251944	 0.437251
O	-2.975418181	 0.6201091053	 1.5960372062	-0.322568
C	-1.3845826507	-0.541280715	 0.0056068711	-0.200525
H	 0.845241107	 1.8115145939	-0.093173288	 0.290403
H	 0.5749313804	-0.3109514984	-0.8960703058	 0.07471
H	 1.651756192	-0.9411903864	 1.1367359992	 0.110752
H	 0.6483678123	 0.1781752429	 2.0857906971	 0.126375
H	-1.4017139558	-2.921043833	 0.220615119	 0.117757
H	-2.0504344259	-1.9235876572	 2.8761337216	 0.115478
H	-1.9619042501	-0.4080363046	-0.9075315055	 0.10183
105.1196	137.0961	259.3423	353.1446	385.2264	428.614	514.3215	533.8664	641.7434	674.1358	760.8934	827.7616	834.9617	860.0309	891.5599	921.8484	952.3575	976.9875	1018.5321	1027.8811	1066.8399	1099.6482	1133.9329	1142.6368	1207.337	1209.116	1232.2846	1249.6589	1278.7553	1299.7934	1332.2141	1350.6992	1428.531	1498.1736	1880.3618	2973.3809	3054.0553	3106.2655	3143.0216	3182.5804	3205.6928	3825.9189
OC1CN2C3C2C(=O)C13	O[C@H]1CN2[C@H]3[C@@H]2C(=O)[C@@H]13	
InChI=1S/C6H7NO2/c8-2-1-7-4-3(2)6(9)5(4)7/h2-5,8H,1H2	InChI=1S/C6H7NO2/c8-2-1-7-4-3(2)6(9)5(4)7/h2-5,8H,1H2/t2-,3-,4+,5+,7?/m0/s1
