20
gdb 78229	2.35141	1.54171	1.25416	2.0484	75.03	-0.2224	0.0595	0.282	1100.2481	0.169016	-440.226248	-440.217009	-440.216065	-440.259357	35.924	
C	 0.2707121176	 1.6740926932	-0.5801717623	-0.315331
N	 0.440853481	 0.2506312036	-0.3284349698	-0.079267
C	 1.6984186866	-0.4467261189	-0.3943297145	-0.113566
C	 0.9034349453	-0.3615842404	 0.8907482788	-0.079465
C	 2.070909165	 0.3512830356	 1.610433478	 0.339304
C	 1.8453732798	 1.6332739492	 2.3939491154	-0.484513
O	 2.6472223556	-0.6463836294	 2.4586688218	-0.47044
C	 2.8671173806	 0.3571349044	 0.2333518591	 0.071624
O	 4.0948327554	-0.3130938118	 0.2914316011	-0.440259
H	 1.1336374737	 2.3087385363	-0.3403856534	 0.110389
H	 0.0494601844	 1.8057084448	-1.6440798207	 0.126332
H	-0.5914030686	 2.0345393048	-0.0107339015	 0.125148
H	 1.8244741125	-1.2744937412	-1.0855292416	 0.095936
H	 0.2785087234	-1.1032592092	 1.3791100593	 0.097276
H	 1.1949404397	 1.4447613862	 3.2542313522	 0.129315
H	 2.8007335806	 2.0255182236	 2.7674797925	 0.114593
H	 1.3895163356	 2.4151116362	 1.7843313799	 0.128302
H	 3.3446811396	-0.2221947701	 2.9719853677	 0.285529
H	 3.0588003111	 1.3372182513	-0.2131963464	 0.079216
H	 3.9649808909	-1.0251921181	 0.9352207244	 0.279878
135.8281	185.8194	195.6085	210.6343	230.453	256.0531	307.898	326.4616	354.6197	399.3245	469.6759	561.3059	589.5983	620.8371	640.7067	740.331	808.1439	876.3738	911.5436	944.6618	966.4432	979.1288	1041.6408	1077.4451	1117.8488	1126.4511	1143.1713	1154.1024	1168.1322	1184.9196	1228.891	1240.8158	1269.172	1311.9108	1378.5679	1386.0763	1410.2625	1446.1456	1460.7161	1486.6404	1489.3612	1497.7722	1511.9774	3012.1988	3021.7199	3064.1545	3076.8446	3089.9378	3105.3837	3141.026	3153.703	3164.9763	3721.201	3794.8908
CN1C2C1C(C)(O)C2O	CN1[C@@H]2[C@H]1[C@@](C)(O)[C@H]2O	
InChI=1S/C6H11NO2/c1-6(9)4-3(5(6)8)7(4)2/h3-5,8-9H,1-2H3	InChI=1S/C6H11NO2/c1-6(9)4-3(5(6)8)7(4)2/h3-5,8-9H,1-2H3/t3-,4+,5+,6-,7?/m1/s1
