22
gdb 105533	2.34608	1.43754	1.09116	1.5294	81.62	-0.2322	0.0733	0.3054	1217.2574	0.193451	-404.290609	-404.281212	-404.280268	-404.325721	34.972	
C	 0.313062333	 1.4126332477	 0.0775970986	-0.403882
C	-0.0656579051	-0.0708117952	 0.114653011	-0.226109
C	-1.557985336	-0.4110552728	 0.0187790576	 0.260525
C	-2.52755527	 0.3763476926	 0.9535056213	-0.126027
O	-3.2728125938	 0.87762966	-0.1711681898	-0.276606
C	-2.3838830591	 0.245157674	-1.1144357051	-0.101981
N	-1.6543662288	-1.8697718436	-0.0321906888	-0.099363
C	-1.7658522786	-2.6205244159	 1.2115802764	-0.232536
C	-2.913386118	-2.5400918024	 0.2641315674	-0.239129
H	 1.4006587866	 1.5202766785	 0.1315100828	 0.117515
H	-0.0166978525	 1.8994415436	-0.8453191382	 0.123375
H	-0.1103920003	 1.972387597	 0.9170375027	 0.121057
H	 0.435307595	-0.6018129315	-0.7029255876	 0.111903
H	 0.3173694192	-0.5189028517	 1.0411722343	 0.099021
H	-3.1528343322	-0.2167732495	 1.6319448548	 0.094624
H	-2.0664889151	 1.1845787047	 1.5332243112	 0.096703
H	-1.8555668218	 0.9776893648	-1.7358682565	 0.098277
H	-2.9037222781	-0.4686857634	-1.7633837392	 0.105381
H	-1.1628452368	-3.5217506896	 1.2795288794	 0.118314
H	-1.8562927923	-2.0662956432	 2.1447884796	 0.112906
H	-3.7739462239	-1.9450022863	 0.5609536697	 0.128497
H	-3.1505995013	-3.3813973078	-0.3812117116	 0.117532
33.1173	73.3506	110.0364	201.561	222.7199	266.6769	306.1411	347.2811	402.5395	471.7353	498.9459	585.542	771.5357	777.0437	826.4145	846.4938	911.6606	927.7876	950.4492	974.2739	994.6883	1012.2546	1039.285	1043.7262	1063.9148	1113.3502	1119.3515	1149.7663	1159.629	1161.9421	1167.4514	1193.5613	1200.393	1252.7598	1304.371	1312.4249	1327.1375	1362.865	1389.8565	1416.9856	1482.0457	1489.2133	1495.8594	1505.1246	1513.5167	1525.6183	1541.0423	3014.8624	3020.7433	3026.9458	3041.4789	3054.3763	3062.6459	3068.6122	3093.8213	3105.5736	3106.3956	3111.092	3174.7503	3190.2885
CCC1(COC1)N1CC1	CCC1(COC1)N1CC1	
InChI=1S/C7H13NO/c1-2-7(5-9-6-7)8-3-4-8/h2-6H2,1H3	InChI=1S/C7H13NO/c1-2-7(5-9-6-7)8-3-4-8/h2-6H2,1H3
