14
gdb 133025	4.09986	1.13326	0.89278	1.8287	70.68	-0.2327	-0.058	0.1747	1204.6556	0.100181	-478.000826	-477.992942	-477.991998	-478.034288	27.967	
C	-0.0002942396	 1.4622150685	-0.0136257779	-0.323733
N	-0.0126225454	 0.0105354634	 0.0280501711	-0.316525
C	 0.5191245814	-0.6507878629	-0.9021605347	 0.430523
O	 1.1358292013	 0.0224394094	-2.0007247693	-0.227767
C	 1.6996083153	-0.6803038939	-2.9869853179	 0.142375
N	 1.766744432	-1.9533297952	-3.0881437791	-0.320745
C	 1.1876340754	-2.6485112087	-2.0556611613	 0.345019
F	 1.2721611125	-3.959680021	-2.1870091226	-0.051051
C	 0.5812363095	-2.0900642424	-0.992154149	-0.349617
H	 1.0211200877	 1.8652062376	-0.0302565124	 0.123218
H	-0.5157528989	 1.8533021693	-0.9009342564	 0.12321
H	-0.50635129	 1.8467201169	 0.8744075644	 0.126015
H	 2.125417852	-0.0329673257	-3.7480136374	 0.156506
H	 0.1367122668	-2.6731952954	-0.1989519376	 0.142572
43.5722	109.6345	166.8181	199.5623	296.8337	382.4297	427.079	457.022	540.6983	635.3857	692.4097	737.6474	743.3126	864.9943	878.3034	962.6083	969.3074	1013.7414	1109.9528	1131.5035	1160.7637	1227.272	1286.8888	1361.8098	1429.2164	1440.6141	1485.231	1500.7898	1637.1783	1692.5272	1783.5443	3002.5818	3052.9143	3112.0601	3192.2771	3245.9214
CN=C1OC=NC(F)=C1	CN=c1ocnc(F)c1	
InChI=1S/C5H5FN2O/c1-7-5-2-4(6)8-3-9-5/h2-3H,1H3	InChI=1S/C5H5FN2O/c1-7-5-2-4(6)8-3-9-5/h2-3H,1H3
