21
gdb 108561	3.16687	1.36746	1.19156	1.6785	81.04	-0.2525	0.0805	0.333	1120.4694	0.184916	-387.069934	-387.062102	-387.061158	-387.102078	31.73	
O	 0.08040427	 1.3176076065	-0.2663392717	-0.419706
C	-0.0323261119	-0.0384444988	 0.1494567162	-0.164863
C	-1.4555815964	-0.5325328497	 0.1409113859	 0.341935
C	-2.4824406836	 0.1416543206	 1.0580027713	-0.285571
C	-3.4999543236	-0.9847833692	 1.3832033818	-0.208991
C	-3.2709736329	-2.0117470061	 0.2673597513	-0.044475
C	-3.4657254378	-1.3610349786	-1.1436950459	-0.247012
C	-1.9590334459	-1.1041853205	-1.1869030323	-0.107875
C	-1.7352179414	-2.0058326682	 0.0147447128	-0.129946
H	-0.3438397594	 1.3851983826	-1.128302618	 0.279548
H	 0.5978235462	-0.699916855	-0.4679033718	 0.081167
H	 0.3728766591	-0.0612231517	 1.1676120464	 0.10668
H	-1.9965841179	 0.5284421945	 1.9592868288	 0.099576
H	-2.960629953	 0.9971015723	 0.5706313765	 0.100407
H	-3.2741734679	-1.4346259041	 2.3569445056	 0.095459
H	-4.5344456954	-0.6272764226	 1.4175108271	 0.093563
H	-3.7631315546	-2.9725589129	 0.4185802166	 0.066445
H	-3.761737279	-2.1017259913	-1.891153025	 0.100751
H	-4.1439157846	-0.5019628445	-1.2101195242	 0.087396
H	-1.3545175305	-1.0247072503	-2.0855334245	 0.074372
H	-1.0209281695	-2.803595623	 0.1737787331	 0.081141
98.3025	152.53	215.2108	301.1772	339.9765	365.7695	385.0437	435.0122	610.4027	639.5146	697.3639	767.7964	829.7463	845.6233	863.8752	874.3572	887.9572	929.4373	959.0813	992.418	1000.2939	1010.2189	1037.5892	1047.43	1058.1104	1092.3294	1121.1174	1152.3547	1169.7179	1185.5119	1223.6629	1238.1592	1264.4103	1269.6571	1280.0205	1309.7559	1326.6146	1341.8563	1369.5789	1411.8049	1427.2148	1485.6725	1490.5951	1503.3206	1511.5319	2966.5463	3028.9263	3033.0087	3049.5466	3058.7186	3072.0858	3089.0732	3092.1425	3110.8087	3148.3949	3192.5986	3807.8101
OCC12CCC3CC1C23	OC[C@@]12CC[C@H]3C[C@@H]1[C@@H]23	
InChI=1S/C8H12O/c9-4-8-2-1-5-3-6(8)7(5)8/h5-7,9H,1-4H2	InChI=1S/C8H12O/c9-4-8-2-1-5-3-6(8)7(5)8/h5-7,9H,1-4H2/t5-,6+,7-,8-/m0/s1
