21
gdb 92870	2.28271	1.51976	1.115	3.5669	84.78	-0.2324	-0.0464	0.186	1180.7136	0.182985	-387.138694	-387.129714	-387.12877	-387.172032	34.508	
C	-0.0187326187	 1.5768738128	-0.0587891826	-0.414521
C	 0.0477339004	 0.0470600583	-0.0355361292	 0.002881
C	 0.6703742201	-0.5209987641	-1.3219394801	-0.259904
C	 0.8502887787	-2.0099907613	-1.2599599074	-0.053661
C	 0.8558780083	-2.7025378032	-0.1137632737	-0.140157
C	 0.737191344	-2.0491904819	 1.2078542146	 0.361873
O	 0.6907260272	-2.6955546322	 2.2364916168	-0.344291
C	 0.7490908718	-0.5178990938	 1.2213690104	-0.085197
C	 2.2060871585	-0.0498317347	 1.4157137451	-0.410045
H	 0.9751110544	 2.0266127242	-0.1524035271	 0.119039
H	-0.6182906711	 1.9260714725	-0.9062275371	 0.113685
H	-0.4777595115	 1.9653878385	 0.8563661466	 0.117283
H	-0.9851134476	-0.3278864437	-0.0008719585	 0.083235
H	 0.0464240542	-0.2619596183	-2.1866216512	 0.110979
H	 1.6447299844	-0.0482099159	-1.5212979539	 0.119592
H	 0.9793328217	-2.5337799128	-2.2051365009	 0.106023
H	 0.9638968066	-3.7826777781	-0.0952300994	 0.104586
H	 0.1815488862	-0.2189989392	 2.1096227048	 0.091116
H	 2.8441564914	-0.3356460817	 0.573064573	 0.120006
H	 2.2625403731	 1.0358325391	 1.5317086266	 0.119836
H	 2.6211641578	-0.5072290046	 2.3178592932	 0.137643
79.7709	148.0061	214.7456	221.5225	245.5396	272.5889	291.9698	342.3964	432.7146	446.7341	492.558	562.1467	650.8835	691.1797	790.8068	832.5226	839.5775	904.9191	931.6413	983.3297	985.4894	1025.424	1030.0087	1057.2429	1095.2673	1119.3621	1149.0918	1203.1718	1223.5869	1264.3124	1290.9105	1323.3884	1338.2288	1375.4103	1394.2284	1401.9277	1406.5236	1415.0419	1467.5428	1493.9511	1497.2228	1500.9108	1510.0307	1682.3514	1772.5916	2991.2327	3004.4443	3030.0415	3042.0861	3043.0395	3048.1399	3097.0092	3100.6714	3112.0134	3120.1389	3146.8665	3186.7326
CC1CC=CC(=O)C1C	C[C@H]1CC=CC(=O)[C@H]1C	
InChI=1S/C8H12O/c1-6-4-3-5-8(9)7(6)2/h3,5-7H,4H2,1-2H3	InChI=1S/C8H12O/c1-6-4-3-5-8(9)7(6)2/h3,5-7H,4H2,1-2H3/t6-,7-/m0/s1
