18
gdb 98178	2.8468	1.10603	0.97662	4.6638	70.19	-0.2468	-0.0332	0.2136	1278.5057	0.143623	-476.259608	-476.248864	-476.24792	-476.295975	36.941	
C	 0.023630734	 1.4625570848	 0.037198034	-0.335262
N	-0.0617499111	 0.0157031248	 0.0655819694	-0.318882
C	-1.2280226935	-0.6546926546	-0.0896965434	 0.348708
O	-2.3254217836	-0.1385813284	-0.2270946751	-0.381495
C	-1.0896054464	-2.1911968967	-0.0889044568	 0.163294
C	-1.0651803068	-2.7216411064	-1.5161012518	-0.398833
O	 0.1137959423	-2.6243740219	 0.5584604782	-0.465599
C	-2.2809621563	-2.7520750492	 0.7057899003	 0.151106
O	-3.0822958097	-3.5373188541	 0.2857374889	-0.231686
H	 0.4765226123	 1.8501358979	 0.9559009694	 0.128835
H	 0.613677664	 1.810592847	-0.8177495711	 0.132591
H	-0.9928203288	 1.8483537382	-0.0520502966	 0.172856
H	 0.771167037	-0.5460889569	 0.1541750275	 0.25662
H	-0.1654730255	-2.3727102493	-2.0292924169	 0.120568
H	-1.0738833416	-3.8130388385	-1.5065898657	 0.140805
H	-1.9467308864	-2.3680159053	-2.0533533832	 0.154482
H	 0.0365510611	-2.4421499527	 1.5037071192	 0.286459
H	-2.3098219612	-2.3975842089	 1.7642966937	 0.075433
53.5931	74.3819	93.8549	124.755	169.4196	211.5821	248.7679	250.314	293.9458	333.0238	348.7361	384.7115	421.9609	543.8949	632.5611	697.6705	762.4844	809.5808	878.2237	958.061	1000.6877	1053.304	1114.5142	1153.5095	1162.1002	1180.8008	1183.7433	1265.1173	1354.6286	1398.7801	1430.3851	1441.5175	1481.7278	1482.9345	1495.1088	1499.8796	1565.955	1768.9742	1854.8204	2844.5361	3031.6699	3059.936	3085.7927	3138.5443	3151.4408	3153.7794	3624.1555	3773.3316
CNC(=O)C(C)(O)C=O	CNC(=O)[C@@](C)(O)C=O	
InChI=1S/C5H9NO3/c1-5(9,3-7)4(8)6-2/h3,9H,1-2H3,(H,6,8)	InChI=1S/C5H9NO3/c1-5(9,3-7)4(8)6-2/h3,9H,1-2H3,(H,6,8)/t5-/m0/s1
