17
gdb 39590	3.45624	1.62989	1.16117	1.0771	75.52	-0.2092	-0.0028	0.2064	1023.7273	0.139555	-418.016732	-418.009869	-418.008924	-418.047859	27.611	
C	 0.1726171655	 1.3921576048	-0.4119667315	-0.093373
C	 1.2550556751	 2.1496087532	 0.3847830787	-0.159026
N	 2.2934946061	 1.318890644	 0.9984048443	-0.3248
C	 2.1440011693	 0.0691337862	 0.8733768628	 0.373685
N	 2.9091033495	-0.9064889754	 1.5165415786	-0.354955
C	 2.1031504587	-2.0598594488	 1.6231419343	-0.013397
C	 0.9734069623	-1.9724889954	 0.9091108195	-0.21968
C	 1.0083595814	-0.665394378	 0.1631802467	 0.047104
O	-0.1537708531	 0.1374304839	 0.1802045305	-0.259896
H	-0.7532584741	 1.9724867115	-0.4444443005	 0.111074
H	 0.5077650756	 1.2277377034	-1.4496861451	 0.090331
H	 1.7284219785	 2.8912300672	-0.2707778294	 0.107686
H	 0.7896741217	 2.7180951538	 1.2006218578	 0.114782
H	 3.4983692563	-0.6152406701	 2.2839141555	 0.252118
H	 2.4696375862	-2.8950220562	 2.2044097877	 0.12757
H	 0.2512451341	-2.7579052831	 0.7483530735	 0.110025
H	 1.296553257	-0.853685171	-0.8905593934	 0.09075
124.0053	224.5027	281.1737	339.0244	397.1924	474.4618	517.0871	554.0024	632.1194	698.486	716.6847	727.2154	831.0597	866.6518	885.7955	905.1539	922.4695	1001.1462	1055.7268	1075.4823	1084.1494	1115.8063	1132.01	1164.5381	1238.4067	1262.6955	1278.265	1300.9258	1351.64	1372.0336	1375.5853	1406.5321	1414.9451	1484.7712	1496.9227	1659.4203	1784.3315	2894.4161	2964.1723	3017.9189	3047.4137	3094.0347	3229.3836	3259.3839	3598.5774
C1CN=C2NC=CC2O1	C1CN=C2NC=C[C@H]2O1	
InChI=1S/C6H8N2O/c1-2-7-6-5(1)9-4-3-8-6/h1-2,5H,3-4H2,(H,7,8)	InChI=1S/C6H8N2O/c1-2-7-6-5(1)9-4-3-8-6/h1-2,5H,3-4H2,(H,7,8)/t5-/m1/s1
