22
gdb 59140	3.03727	1.23945	1.13003	1.5057	85.34	-0.2134	0.0649	0.2783	1218.9451	0.193815	-367.11532	-367.106473	-367.105529	-367.148619	34.861	
C	-0.0235806933	 1.0240691147	-1.2596907985	-0.40206
C	 0.1094009823	 0.248876709	 0.0625855242	-0.028249
C	 0.292115319	 1.2089116383	 1.2465609829	-0.377677
C	-1.1424418896	-0.614312928	 0.2389093588	 0.047922
C	-1.3670020288	-2.0729876442	 0.1519580316	-0.078869
C	-0.4118899492	-3.0254104347	 0.8978615895	-0.079765
C	 0.6822287227	-2.3500804929	 1.6878220227	-0.300656
C	-0.7393225471	-2.2439852139	 2.1487581642	 0.007009
N	-1.702347179	-1.3227207704	 1.4275728991	-0.192769
H	 0.8763629744	 1.6161808559	-1.4533758945	 0.111845
H	-0.16984056	 0.3446674542	-2.1058029734	 0.116947
H	-0.8768761612	 1.7116074695	-1.2287566518	 0.1164
H	 0.9990475954	-0.3753159023	-0.0369865114	 0.088468
H	 0.4358177389	 0.6672185862	 2.1854826388	 0.12618
H	 1.1583176702	 1.8599533694	 1.0890021161	 0.108072
H	-0.5904776236	 1.8471566661	 1.3657284642	 0.118875
H	-2.0001661213	-0.0832886705	-0.1816897592	 0.096684
H	-2.169109415	-2.4904270119	-0.4520297006	 0.093874
H	-0.4312830368	-4.0947514294	 0.7359030171	 0.094267
H	 1.252862404	-3.0582725088	 2.2840450236	 0.114387
H	 1.2725190153	-1.5185844038	 1.3377694135	 0.117304
H	-1.0663169873	-2.5810537525	 3.1242076531	 0.101811
73.2577	124.2286	191.1367	223.1468	256.7417	299.1342	319.5384	376.1691	421.7289	548.5266	608.295	670.2157	694.6687	740.3838	765.4525	848.871	884.6132	900.8793	927.6706	934.022	953.8586	972.2153	989.4207	1017.9188	1054.8174	1066.2678	1069.6314	1083.8926	1107.3737	1138.5656	1170.4338	1184.7136	1196.9503	1270.2251	1281.3194	1320.8515	1347.7556	1360.6777	1382.2141	1397.7109	1417.3966	1455.9271	1486.8251	1490.4642	1494.3483	1503.5648	1510.3179	3026.4828	3033.5718	3067.2575	3078.0224	3094.7509	3102.7458	3107.8869	3114.5562	3131.5318	3136.3583	3186.9773	3202.5758	3258.1138
CC(C)C1C2C3CC3N12	CC(C)[C@H]1[C@H]2[C@H]3C[C@H]3N12	
InChI=1S/C8H13N/c1-4(2)7-8-5-3-6(5)9(7)8/h4-8H,3H2,1-2H3	InChI=1S/C8H13N/c1-4(2)7-8-5-3-6(5)9(7)8/h4-8H,3H2,1-2H3/t5-,6+,7-,8+,9?/m0/s1
