19
gdb 112776	2.38539	1.26092	0.93295	2.0854	76.3	-0.2338	0.0157	0.2495	1283.0606	0.158448	-419.185292	-419.175615	-419.174671	-419.220182	34.381	
C	-0.0734453725	 1.5100829026	-0.1717198115	-0.332863
N	 0.1503623425	 0.0917043936	 0.0147710003	-0.06396
C	 1.0791317598	-0.6365625882	-0.8719457273	-0.175987
C	 1.4648223254	-1.5343603478	 0.3275494134	 0.019483
C	 2.9179796698	-1.9126576022	 0.51949438	-0.114027
O	 3.2416628647	-2.814313987	-0.5282955697	-0.422904
C	 0.8267569158	-0.4213190688	 1.2238593358	-0.163339
C	 1.80735869	 0.4953120728	 1.8301521962	 0.279126
N	 2.5582547192	 1.2453874411	 2.2905560905	-0.341355
H	 0.8495456596	 2.1128842604	-0.1350274745	 0.117922
H	-0.5484828544	 1.664269023	-1.1456244091	 0.128226
H	-0.7570492482	 1.8825527679	 0.5981562062	 0.129001
H	 0.6047717603	-1.1093985477	-1.7361867798	 0.115637
H	 1.9302098071	-0.0276798381	-1.2180509803	 0.098257
H	 0.8438297662	-2.4314565389	 0.3651381091	 0.107621
H	 3.5502372911	-1.0134976449	 0.4875633272	 0.109265
H	 3.0561938471	-2.375899155	 1.5100620812	 0.096585
H	 4.1817463232	-3.010227712	-0.4775791123	 0.292473
H	 0.142351453	-0.7537732907	 2.0123647546	 0.120839
75.6966	96.4409	117.7062	146.3652	198.9752	236.9183	259.0057	318.0656	330.3444	385.469	438.5528	509.4178	607.6467	717.8615	781.6108	847.693	914.7418	981.2592	989.3582	1022.2716	1081.5948	1087.5358	1119.3205	1144.1767	1173.2019	1198.1341	1225.984	1236.3397	1260.8577	1277.6856	1282.5458	1323.9708	1343.3002	1373.3448	1451.2783	1469.2616	1485.2267	1501.372	1517.102	1527.5862	2337.7128	2966.2356	2970.8457	2975.1995	3015.0876	3042.1166	3066.9118	3080.2195	3101.585	3106.6077	3832.8035
CN1CC(CO)C1C#N	CN1C[C@@H](CO)[C@H]1C#N	
InChI=1S/C6H10N2O/c1-8-3-5(4-9)6(8)2-7/h5-6,9H,3-4H2,1H3	InChI=1S/C6H10N2O/c1-8-3-5(4-9)6(8)2-7/h5-6,9H,3-4H2,1H3/t5-,6+/m0/s1
