17
gdb 110230	2.133	1.53575	1.05325	3.8078	68.81	-0.2647	-0.0039	0.2608	1159.3516	0.134413	-458.959854	-458.95111	-458.950166	-458.993606	32.136	
C	-0.2361922904	 1.4947155329	-0.0125329367	-0.490057
C	 0.0177431172	 0.0288540675	 0.0820443587	 0.428964
O	-0.8084464539	-0.838289102	-0.7646665229	-0.290853
C	-0.997822895	-1.7115071815	 0.3002494437	 0.453734
O	-1.7121381512	-2.6601547821	 0.3331653199	-0.32624
C	-0.0718782687	-0.970005184	 1.2213348145	-0.358241
C	 1.2539704326	-0.7007581593	 0.4651504985	-0.096864
C	 1.9641814798	-1.7454159413	-0.3717179443	-0.105955
O	 2.6177735813	-2.7132739802	 0.4310038093	-0.414398
H	 0.3498927097	 2.0289983623	 0.7401868018	 0.135788
H	 0.0531232517	 1.8713768577	-0.9991485423	 0.145598
H	-1.2961738201	 1.7153287608	 0.1419318757	 0.144215
H	-0.1807513318	-0.8441988547	 2.2888158946	 0.128837
H	 1.9245832625	-0.1086536667	 1.0862901625	 0.113584
H	 1.2652379933	-2.2021425149	-1.0833897188	 0.122744
H	 2.7535524035	-1.2601704552	-0.9555221329	 0.118612
H	 1.9382286895	-3.2161160894	 0.8927378487	 0.290533
61.3064	132.9797	156.1357	204.3581	233.5943	295.8752	304.5983	350.6629	484.1732	499.6073	548.8047	651.1564	692.7012	765.8319	812.2435	884.0307	920.8606	923.2217	973.5076	1008.184	1028.7763	1065.9974	1088.2326	1119.5214	1134.3294	1179.6948	1232.0961	1252.7254	1318.2164	1381.9671	1413.7239	1417.912	1474.9036	1486.1648	1500.5752	1506.1856	1938.4442	3030.319	3042.1357	3078.5736	3109.8386	3125.3029	3134.7796	3226.9892	3809.449
CC12OC(=O)C1C2CO	C[C@]12OC(=O)[C@H]1[C@H]2CO	
InChI=1S/C6H8O3/c1-6-3(2-7)4(6)5(8)9-6/h3-4,7H,2H2,1H3	InChI=1S/C6H8O3/c1-6-3(2-7)4(6)5(8)9-6/h3-4,7H,2H2,1H3/t3-,4-,6-/m1/s1
