20
gdb 87649	2.71542	1.19267	1.02395	2.5795	80.01	-0.2366	-0.0223	0.2143	1259.5282	0.168762	-403.138346	-403.128908	-403.127964	-403.172758	35.098	
C	 0.0072566795	 1.5214335878	-0.2334527746	-0.393898
C	 0.0725225463	 0.026349612	-0.0428571666	-0.06702
N	 1.4218514704	-0.5838531068	-0.027414046	-0.387568
C	 0.6083430204	-0.6084783269	 1.1836244828	 0.325107
C	 1.0210570049	 0.0609646455	 2.5063985472	-0.421995
C	 0.2618965093	-1.0697001259	 3.2222481282	 0.396992
O	-0.1058330559	-1.2470246682	 4.3472407809	-0.298156
C	 0.0481737555	-1.8549422823	 1.9098410038	-0.18486
C	-1.352392896	-2.3786191532	 1.617529424	-0.408672
H	 0.8257565135	 2.0142840337	 0.2976387027	 0.129287
H	 0.0917806606	 1.7805557817	-1.2940569212	 0.123944
H	-0.9421235149	 1.9231787374	 0.1375001024	 0.116979
H	-0.7069190399	-0.5334792829	-0.5594604362	 0.085019
H	 1.4064615717	-1.4938837672	-0.4831108149	 0.228224
H	 2.1001498012	 0.0359308546	 2.692381241	 0.138997
H	 0.6544481246	 1.0719389259	 2.7052466265	 0.132594
H	 0.7788914825	-2.6764836592	 1.8715169394	 0.104726
H	-2.0895884977	-1.570596501	 1.6457132645	 0.124367
H	-1.405798149	-2.853556612	 0.6323208988	 0.1174
H	-1.639645037	-3.1224602032	 2.3665154575	 0.138537
48.9716	134.3063	176.6182	183.5411	195.0253	201.9631	270.0275	379.5544	425.2044	452.4145	481.9332	538.481	565.047	721.466	750.2659	783.3753	845.955	898.9497	909.6918	994.2529	1010.0647	1041.3043	1043.6268	1072.5319	1077.0362	1126.4973	1134.8779	1155.9491	1186.6574	1221.8304	1236.2762	1284.8651	1326.1331	1349.7754	1404.2875	1410.4091	1431.3119	1472.0453	1489.2686	1492.7708	1494.9245	1503.9238	1893.3086	3003.7239	3034.4912	3035.9171	3052.1809	3097.5078	3102.513	3103.8008	3106.3364	3114.8435	3124.9548	3485.0047
CC1NC11CC(=O)C1C	C[C@H]1N[C@]21CC(=O)[C@H]2C	
InChI=1S/C7H11NO/c1-4-6(9)3-7(4)5(2)8-7/h4-5,8H,3H2,1-2H3	InChI=1S/C7H11NO/c1-4-6(9)3-7(4)5(2)8-7/h4-5,8H,3H2,1-2H3/t4-,5-,7-/m1/s1
