17
gdb 67440	2.36013	2.02518	1.86219	1.687	73.77	-0.2309	-0.0237	0.2072	868.0083	0.136376	-421.756053	-421.748951	-421.748007	-421.78717	28.717	
O	-0.2114238822	 1.4880556259	 0.2857436236	-0.490792
C	-0.0174085185	 0.1287152739	 0.0994323259	 0.356403
C	-1.1298445441	-0.9242673361	-0.0585380953	 0.068838
C	-0.866108005	-0.9845168998	-1.6166991882	-0.309213
C	 0.5038541178	-0.4365774589	-1.2281057016	 0.019418
C	 1.657863934	-1.0953368757	-1.0660431235	-0.113476
C	 2.056235623	-1.1240810463	 0.4117322466	-0.277836
C	 0.6959832272	-0.81854158	 1.0708927517	 0.054281
O	-0.3275512441	-1.8322025698	 0.7478152668	-0.321973
H	 0.357306995	 1.9607389699	-0.3308014137	 0.287948
H	-2.1609829774	-0.8474868957	 0.2957312266	 0.088477
H	-0.8911621854	-1.9484514975	-2.1281922701	 0.115214
H	-1.5466053169	-0.2776830229	-2.1040784987	 0.114318
H	 2.0709149451	-1.8021402069	-1.7786329249	 0.100776
H	 2.4236913925	-2.1210953484	 0.6775874739	 0.122404
H	 2.8252536858	-0.4040903569	 0.7239971824	 0.109221
H	 0.710465093	-0.6043770447	 2.1438081385	 0.07599
130.7383	237.9158	265.6308	273.0045	372.5901	416.3239	452.3011	582.0677	643.8606	711.6056	736.7909	800.8262	807.3702	836.8847	878.4116	907.522	930.4531	949.0632	986.1416	1010.4478	1019.7599	1062.9695	1094.0043	1110.4409	1140.1256	1169.6527	1222.4646	1244.9331	1259.0515	1273.0628	1294.7358	1319.5065	1341.8985	1392.8249	1456.7401	1468.6717	1656.5661	3015.6139	3045.8689	3069.5122	3075.676	3082.1774	3123.8319	3179.8478	3812.2716
OC12C3CC1=CCC2O3	O[C@@]12[C@H]3C[C]1[CH]C[C@@H]2O3	
InChI=1S/C7H8O2/c8-7-4-1-2-5(7)9-6(7)3-4/h1,5-6,8H,2-3H2	InChI=1S/C7H8O2/c8-7-4-1-2-5(7)9-6(7)3-4/h1,5-6,8H,2-3H2/t5-,6+,7-/m0/s1
