15
gdb 54078	2.1555	0.87361	0.62372	3.0598	87.84	-0.1528	-0.0143	0.1385	1671.8243	0.106388	-453.921192	-453.909317	-453.908373	-453.961545	37.365	
O	 0.1248560755	 0.199429417	 0.1583415827	-0.298869
C	 0.9393077159	 0.778593133	 0.7576560946	 0.598888
O	 1.7726652362	 1.3278180637	 1.3489149136	-0.288343
C	-2.8017743413	 2.5051885472	 0.2190597744	-0.262297
N	-2.7976983063	 1.300217264	-0.3892036149	-0.081801
C	-3.7263828634	 0.6452903785	-1.0698071503	-0.084341
N	-3.3771063868	-0.6226803504	-1.5798299213	-0.536213
H	-3.4399606144	-0.6698768072	-2.5931717738	 0.242045
H	-3.958985156	-1.3693655084	-1.2097791137	 0.242049
C	-1.6777226911	 2.9861452096	 0.8847203877	 0.229281
C	-0.7235456904	 3.4464002778	 1.4777924478	-0.467225
H	-3.7178717169	 3.0780409719	 0.1644795164	 0.113743
H	-1.9221764241	 0.7810243925	-0.3224888718	 0.301478
H	-4.6946010278	 1.1212288222	-1.1932611922	 0.104299
H	 0.1112349909	 3.8511808985	 1.9920524609	 0.187307
28.2638	37.1538	63.7097	82.0063	96.9297	103.9728	119.3944	149.4456	166.0089	315.5226	328.3445	482.0149	509.4452	594.5597	596.0259	657.1864	666.168	674.3475	684.2789	801.3308	1006.6101	1068.9014	1145.5126	1192.1888	1295.967	1305.6649	1378.901	1398.1812	1464.0569	1641.7471	1683.148	2171.1188	2432.5689	3162.6085	3207.3283	3467.6764	3495.9147	3506.838	3518.0232
[O-]C(=O)C(NC=[NH2+])C#C	O=C=O.C(=[NH]C=[NH2])C#C	
InChI=1S/C5H6N2O2/c1-2-4(5(8)9)7-3-6/h1,3-4H,(H2,6,7)(H,8,9)	InChI=1S/C4H6N2.CO2/c1-2-3-6-4-5;2-1-3/h1,3-4,6H,5H2;
