17
gdb 10912	3.2859	1.93601	1.53539	3.7074	63.75	-0.2326	0.0622	0.2948	872.1845	0.14188	-400.95342	-400.94544	-400.944496	-400.985599	30.25	
C	-0.1005190738	 1.497417894	 0.0665994989	-0.51882
C	 0.1564646971	 0.0271493579	-0.04252226	 0.317433
N	-0.756418791	-0.9829684645	 0.564835403	-0.418755
C	 0.6891027749	-0.9629426785	 0.937404082	-0.150374
C	 1.3481380966	-1.8007333718	-0.1589500646	 0.115622
O	 0.9366175148	-3.1313732762	-0.2718968238	-0.432099
C	 0.7815144634	-0.7423166347	-1.2168577664	 0.056681
O	-0.0831696489	-1.1945884085	-2.2158597535	-0.431287
H	 0.7981343338	 2.0682707465	-0.1894498128	 0.13157
H	-0.8979882378	 1.80823729	-0.6174614064	 0.137967
H	-0.3981336917	 1.7770496502	 1.0834319497	 0.117806
H	-1.2798897919	-0.5260841851	 1.3094054227	 0.233066
H	 0.9860550079	-0.8267954692	 1.9707712075	 0.096171
H	 2.4398398937	-1.7954586765	-0.1239108853	 0.088114
H	-0.0149212411	-3.1307912414	-0.1061733245	 0.28561
H	 1.5891623349	-0.1924733453	-1.7070712388	 0.087286
H	-0.8532579008	-1.5554611967	-1.7586419477	 0.284011
67.6129	194.4717	213.2227	236.2124	254.7377	326.5896	357.058	508.5404	535.3063	568.6277	622.0116	692.7164	743.3577	804.0736	841.0049	912.1948	926.2837	975.5251	1010.1016	1054.539	1093.3996	1103.4006	1130.2251	1158.8009	1187.1784	1227.4589	1252.9436	1294.5102	1313.334	1352.8373	1403.02	1424.2431	1437.4344	1467.1238	1481.559	1497.1918	3026.3166	3079.1602	3092.2686	3094.8539	3097.8427	3184.1546	3489.8482	3767.6504	3777.0878
CC12NC1C(O)C2O	C[C@]12N[C@H]1[C@@H](O)[C@H]2O	
InChI=1S/C5H9NO2/c1-5-3(6-5)2(7)4(5)8/h2-4,6-8H,1H3	InChI=1S/C5H9NO2/c1-5-3(6-5)2(7)4(5)8/h2-4,6-8H,1H3/t2-,3+,4-,5+/m1/s1
