15
gdb 8354	5.87316	1.26278	1.23654	2.4354	62.92	-0.2613	0.0007	0.262	981.44	0.119163	-399.737868	-399.730985	-399.730041	-399.769956	25.145	
O	 0.0531201469	-0.0086338924	 0.0739580287	-0.268626
C	 0.1230595926	 1.1680970019	 0.2568997634	 0.145919
O	 0.8579520218	 1.984411819	-0.5305351068	-0.234696
C	 0.8853377071	 3.3621717654	-0.2437521031	 0.36168
C	 0.1969447969	 4.18635084	 0.867207436	-0.2391
N	 0.9820347981	 5.2372200499	 0.0674095981	-0.133792
C	 2.129759229	 4.2098501498	 0.0590996553	-0.2122
C	 0.4704406415	 4.5020294805	-1.185815705	-0.212204
H	-0.3928959853	 1.708443572	 1.0710236803	 0.09013
H	-0.8855176698	 4.3246760236	 0.8187215139	 0.118386
H	 0.5489484752	 4.0720888974	 1.8949461309	 0.118388
H	 2.6149108969	 4.0905450694	 1.0301803443	 0.114416
H	 2.8513545117	 4.3683858617	-0.7443751519	 0.118643
H	 1.0780136481	 4.68064461	-2.0748357619	 0.118642
H	-0.5937246506	 4.6555221619	-1.3771167421	 0.114414
39.7025	139.1363	179.7852	365.7998	399.5069	457.6531	589.047	597.1617	756.2747	786.5683	798.0183	910.5305	945.1723	973.2091	1020.3975	1022.7453	1027.3382	1042.4874	1138.6143	1168.3479	1169.3414	1179.7262	1196.0937	1196.6669	1213.0403	1223.9926	1293.2124	1425.2216	1509.2701	1510.7503	1565.3329	1867.1391	2977.4073	3061.6701	3066.6148	3074.4034	3133.2509	3141.2468	3144.4549
O=COC12CN(C1)C2	O=CO[C@@]12CN(C1)C2	
InChI=1S/C5H7NO2/c7-4-8-5-1-6(2-5)3-5/h4H,1-3H2	InChI=1S/C5H7NO2/c7-4-8-5-1-6(2-5)3-5/h4H,1-3H2
