16
gdb 133035	4.72359	0.98154	0.86406	1.8129	74.46	-0.2614	-0.0555	0.206	1303.0733	0.124877	-442.093558	-442.085728	-442.084784	-442.126783	28.795	
C	 0.0144176028	 1.5318058325	-0.2253707052	-0.371767
C	-0.0144259109	 0.0266681734	 0.0849558183	-0.271981
C	-1.4109393041	-0.5399339429	 0.0618312185	 0.315995
C	-1.8341297164	-1.4496897944	-0.9074058396	-0.073054
N	-3.0767111297	-1.9448321828	-0.9406696261	-0.284986
C	-3.8823214386	-1.5210419053	 0.0008883073	 0.310156
F	-5.123789771	-1.991446274	-0.000225343	-0.06476
C	-3.499012072	-0.6132788947	 0.9897861777	-0.141578
N	-2.2652879904	-0.1278783567	 1.0140243075	-0.273701
H	 1.0334509757	 1.922662768	-0.1531133637	 0.117051
H	-0.3564021518	 1.7337926293	-1.2354331265	 0.118406
H	-0.6160146897	 2.0765567822	 0.4824141385	 0.139659
H	 0.6103881462	-0.5183434028	-0.6306542073	 0.105435
H	 0.4121066591	-0.1442888345	 1.07988365	 0.122936
H	-1.1544562803	-1.7944688342	-1.6822427261	 0.120689
H	-4.2007654388	-0.2923406931	 1.7540888395	 0.1315
46.1408	100.7629	210.9674	230.341	332.6067	413.2785	439.1627	442.5349	521.9999	591.1126	652.4636	741.9744	787.0635	813.0448	890.431	926.9096	962.0415	981.9824	1043.0315	1074.3007	1087.5204	1240.9525	1255.0884	1275.9416	1310.91	1333.8072	1356.1733	1394.925	1404.5885	1480.755	1496.2586	1506.6191	1517.0079	1596.3475	1620.0603	3039.0184	3041.3217	3078.7055	3111.5406	3125.453	3164.7149	3174.9285
CCC1=CN=C(F)C=N1	CCc1cnc(F)cn1	
InChI=1S/C6H7FN2/c1-2-5-3-9-6(7)4-8-5/h3-4H,2H2,1H3	InChI=1S/C6H7FN2/c1-2-5-3-9-6(7)4-8-5/h3-4H,2H2,1H3
