16
gdb 124784	3.5973	1.2758	1.01617	3.6305	73.21	-0.2487	-0.0839	0.1648	1148.5982	0.12472	-434.076944	-434.068887	-434.067943	-434.110313	29.553	
C	 0.0284412582	 1.5106010217	-0.296457055	-0.393687
C	 0.0390219431	 0.0303072637	 0.1172638961	 0.08452
O	 0.6345646765	-0.1303397143	 1.3818918597	-0.441106
C	-1.3633689369	-0.5449233726	 0.0826456483	 0.373398
N	-1.9925241965	-0.6188402341	-1.1016989184	-0.262881
C	-3.2123185419	-1.1260379239	-1.0528197353	-0.007711
C	-3.7706409422	-1.5383608739	 0.1614595692	 0.016925
N	-3.0981990434	-1.4376494257	 1.3012481928	-0.162489
N	-1.8692127993	-0.9320864548	 1.2532172686	-0.259107
H	 1.0525243449	 1.8908769271	-0.2782070866	 0.131356
H	-0.3815459797	 1.6326579461	-1.3024018041	 0.128739
H	-0.5688956682	 2.095941081	 0.4094275189	 0.120651
H	 0.6243878759	-0.5296595982	-0.6283155054	 0.10105
H	-0.0610280366	-0.4465692278	 1.977596034	 0.295328
H	-3.7627907175	-1.2110706607	-1.9870996382	 0.136986
H	-4.7698145862	-1.9561305136	 0.2261781755	 0.138029
35.3969	127.8038	216.2025	248.6874	285.5191	360.7573	376.2634	400.4719	490.2615	550.6618	640.0151	663.471	810.2656	840.3662	892.1022	921.4662	1013.1419	1033.5781	1041.9462	1085.4048	1097.322	1133.222	1157.8269	1191.4803	1275.6958	1317.8907	1351.6534	1386.991	1396.3141	1433.3758	1460.8358	1491.2778	1499.9253	1575.9028	1592.8859	2989.0967	3044.4428	3123.0287	3134.2492	3157.8187	3195.2218	3705.5689
CC(O)C1=NC=CN=N1	C[C@@H](O)c1nccnn1	
InChI=1S/C5H7N3O/c1-4(9)5-6-2-3-7-8-5/h2-4,9H,1H3	InChI=1S/C5H7N3O/c1-4(9)5-6-2-3-7-8-5/h2-4,9H,1H3/t4-/m1/s1
