16
gdb 38009	3.06403	2.32374	2.01342	3.5338	70.97	-0.2222	-0.0332	0.189	759.6137	0.126638	-400.639533	-400.633999	-400.633055	-400.669023	24.345	
C	-0.0369558712	 1.5047242791	-0.1223474139	-0.199537
C	 1.5309292321	 1.5571575125	-0.0500031733	-0.04714
N	 1.9001162002	 1.3910382392	-1.4770111437	-0.235943
C	 1.8556708639	 0.1362455481	-1.6313523867	 0.289689
O	 0.9072943284	-0.5679814726	-2.3805458891	-0.274074
C	 0.5122605804	-1.0790554613	-1.0307237094	 0.07212
C	-0.0001307804	-0.0350715097	 0.1002650781	-0.074047
C	 1.4688047022	 0.0996949698	 0.62862601	-0.060112
C	 1.9204772597	-0.8482027931	-0.4660713764	-0.135665
H	-0.5017406925	 1.9809544921	 0.7489220404	 0.102965
H	-0.476518302	 1.9004155391	-1.0399089257	 0.125024
H	 2.0125355722	 2.4010985191	 0.4451587834	 0.077537
H	-0.0173414568	-2.0248878434	-1.1365730593	 0.104001
H	-0.7912370522	-0.4737651356	 0.7085325948	 0.081545
H	 1.7403879311	-0.0213625726	 1.6732400296	 0.075812
H	 2.7122898147	-1.5937350407	-0.4434692489	 0.097826
231.3091	421.8044	461.6879	532.3516	615.9921	638.7693	693.3119	701.5024	752.8395	784.7696	806.8637	853.125	863.5122	891.2923	906.9924	929.9678	943.217	970.7069	995.8353	1051.1911	1076.5352	1104.2138	1107.0601	1123.6241	1179.8258	1187.2557	1200.1421	1236.5854	1249.6291	1271.5906	1280.0911	1297.4854	1307.8065	1464.5534	1657.976	3038.5399	3104.3409	3106.8277	3119.9724	3127.3769	3138.2446	3160.8093
C1C2N=C3OC4C1C2C34	C1[C@@H]2[N][C]3O[C@@H]4[C@H]1[C@H]2[C@H]34	
InChI=1S/C7H7NO/c1-2-4-3(1)8-7-5(4)6(2)9-7/h2-6H,1H2	InChI=1S/C7H7NO/c1-2-4-3(1)8-7-5(4)6(2)9-7/h2-6H,1H2/t2-,3+,4-,5+,6-/m1/s1
