19
gdb 30695	3.76716	1.04756	0.86854	2.4101	78.21	-0.216	0.0366	0.2526	1351.5749	0.159704	-419.238056	-419.228914	-419.22797	-419.272686	33.083	
C	 0.0627314981	 1.3930092781	 0.0489933563	-0.230467
O	-0.1004192978	 0.0013614407	-0.0775676191	-0.247561
C	 0.6387330701	-0.5877043374	-1.1407885174	 0.024049
C	 2.1324787988	-0.7189734575	-0.8194189993	-0.398915
C	 0.0119746284	-1.9249409687	-1.4079098808	 0.273667
C	-1.0853801611	-2.4787460428	-0.803655008	-0.175184
N	-1.2494037047	-3.7074488706	-1.4081828175	-0.239766
C	-0.2610019327	-3.8373895046	-2.3358389357	 0.008376
N	 0.5184031378	-2.781220495	-2.3622675572	-0.319155
H	 1.0848916803	 1.6762581516	 0.3390767032	 0.107347
H	-0.1867124775	 1.9189494789	-0.8863573961	 0.103078
H	-0.6225354286	 1.7272237801	 0.8324817404	 0.122519
H	 0.5305198985	 0.0389296935	-2.0436361626	 0.074968
H	 2.6276591828	-1.2689716727	-1.6231899856	 0.142624
H	 2.6111061071	 0.2598084248	-0.7216949823	 0.105207
H	 2.2640649286	-1.2720363136	 0.1153669549	 0.118562
H	-1.7374331943	-2.1208722187	-0.0272512124	 0.138569
H	-1.965177435	-4.3819059953	-1.1971907789	 0.26518
H	-0.1616654887	-4.7155900206	-2.9563146519	 0.126903
50.8969	72.3095	154.0285	167.6371	205.0368	246.3026	325.8795	369.9298	433.9424	480.201	521.3536	659.3042	692.4469	733.5052	766.6108	818.1066	863.9398	948.5838	968.1815	1039.125	1073.37	1093.3797	1109.2851	1136.0769	1159.4267	1183.9727	1219.8736	1239.6647	1266.987	1346.2036	1361.1437	1382.3831	1393.8585	1457.978	1477.5253	1482.3403	1492.6072	1499.7854	1513.2117	1526.9376	1602.9951	2944.8549	2975.8383	3025.1572	3043.952	3106.786	3116.1445	3133.3698	3249.871	3300.4979	3669.0978
COC(C)C1=CNC=N1	CO[C@@H](C)c1c[nH]cn1	
InChI=1S/C6H10N2O/c1-5(9-2)6-3-7-4-8-6/h3-5H,1-2H3,(H,7,8)	InChI=1S/C6H10N2O/c1-5(9-2)6-3-7-4-8-6/h3-5H,1-2H3,(H,7,8)/t5-/m0/s1
