18
gdb 12557	3.38231	1.76698	1.23581	2.0467	69.33	-0.2463	0.0073	0.2536	974.0984	0.154604	-384.930563	-384.922825	-384.921881	-384.963477	29.289	
O	-0.3064690917	 1.5170375162	-0.3820851628	-0.438466
C	-0.0511871118	 0.1576908093	-0.0392291351	 0.077736
C	-1.4206737416	-0.5095754602	 0.0959980288	-0.187875
C	-1.3786801704	-1.9382472969	 0.6356332717	-0.087615
O	-0.9029323032	-2.8922527772	-0.2940259398	-0.232119
C	 0.5003111176	-2.9440308143	-0.4525368041	-0.130661
C	 1.1299517355	-1.7901109731	-1.2025687967	-0.071459
C	 0.8807885781	-0.4918947211	-1.0411618519	-0.080153
H	 0.5360234228	 1.9809915174	-0.4155090712	 0.280771
H	 0.4367755101	 0.1140951529	 0.9533546792	 0.074387
H	-2.0174775176	 0.1072935276	 0.7778651165	 0.104084
H	-1.9222496164	-0.5052582037	-0.8771046279	 0.116224
H	-0.782129498	-1.9806997394	 1.5640662307	 0.081459
H	-2.3951249326	-2.2573973261	 0.8874238921	 0.108277
H	 0.9859070523	-3.0514249595	 0.5355582913	 0.096217
H	 0.692936538	-3.8718486081	-0.9999480952	 0.113125
H	 1.8781759512	-2.077624473	-1.9381733633	 0.092115
H	 1.4219761276	 0.2168145893	-1.6667332924	 0.083952
22.3256	185.8738	266.4695	279.0319	334.094	358.4048	379.1982	430.8791	501.5112	572.7061	685.6331	716.7233	838.6543	876.7756	919.4003	944.9413	985.6543	1027.2537	1042.5586	1074.1258	1080.6444	1108.3726	1164.4808	1202.8199	1247.4387	1279.7257	1284.6493	1329.7285	1349.6204	1363.2298	1399.4306	1407.31	1421.0701	1434.2265	1475.563	1478.5802	1495.1415	1724.5441	2909.7298	2929.7269	2954.279	3041.1265	3072.0062	3075.0648	3094.0664	3126.5692	3154.6384	3817.4644
OC1CCOCC=C1	O[C@H]1CCOCC=C1	
InChI=1S/C6H10O2/c7-6-2-1-4-8-5-3-6/h1-2,6-7H,3-5H2	InChI=1S/C6H10O2/c7-6-2-1-4-8-5-3-6/h1-2,6-7H,3-5H2/t6-/m1/s1
