18
gdb 44634	2.77976	1.81687	1.51476	3.6544	74.53	-0.2364	-0.0003	0.2361	933.2545	0.149684	-401.919281	-401.912344	-401.9114	-401.950655	27.981	
O	-0.185714976	 0.0415760364	 0.388575324	-0.327549
C	-0.1571815482	 1.2045984877	 0.1030079024	 0.38756
C	-1.2139131344	 2.3053762695	-0.1814542692	-0.39763
C	-0.0236430873	 3.282596808	-0.0395056479	 0.018272
C	 0.5196101458	 3.7836775686	 1.3301501783	-0.045187
C	-0.0352625171	 3.1242941599	 2.6292437837	-0.249528
C	 1.11148826	 2.0628014771	 2.6014012742	-0.230628
C	 1.6040675835	 2.647022032	 1.2604740553	-0.002314
N	 0.9222964311	 2.1205667097	 0.0208141983	-0.142786
H	-1.6673927683	 2.2740727849	-1.1751315951	 0.133871
H	-2.0069816948	 2.3535418118	 0.5672952625	 0.138283
H	 0.132913653	 3.9798190399	-0.8666048215	 0.084882
H	 0.7696615126	 4.8428055733	 1.3908490412	 0.075876
H	 0.0039313101	 3.789686466	 3.493771072	 0.111825
H	-1.0510432547	 2.7278020371	 2.5642840226	 0.111674
H	 1.841394893	 2.2059235142	 3.4018468763	 0.104231
H	 0.8167025811	 1.0127307529	 2.5802606814	 0.140894
H	 2.6716501805	 2.8166280711	 1.1148122512	 0.088254
89.7735	171.0584	265.2694	356.4492	419.9992	480.8171	535.615	624.6923	692.5724	717.567	770.5631	820.6713	833.2942	845.1794	914.496	916.7923	952.5946	979.8809	1004.727	1024.7209	1064.1095	1082.9537	1091.0729	1135.6849	1154.5815	1176.7369	1201.4141	1213.7678	1236.8125	1242.0915	1263.4048	1280.8537	1301.8913	1317.3964	1351.0092	1443.2688	1477.7414	1494.9909	1873.6902	3068.9023	3069.5192	3072.875	3079.4576	3096.2979	3108.2206	3118.1494	3133.0901	3136.8928
O=C1CC2C3CCC3N12	O=C1C[C@H]2[C@H]3CC[C@H]3N12	
InChI=1S/C7H9NO/c9-7-3-6-4-1-2-5(4)8(6)7/h4-6H,1-3H2	InChI=1S/C7H9NO/c9-7-3-6-4-1-2-5(4)8(6)7/h4-6H,1-3H2/t4-,5+,6-/m0/s1
