18
gdb 80595	3.48834	1.11542	1.01072	16.3637	77.46	-0.1604	-0.0317	0.1287	1202.7559	0.147882	-438.997483	-438.989119	-438.988174	-439.031035	31.433	
N	 0.0860595324	 1.0435171326	 0.1489550489	-0.404121
H	 0.7423910413	 0.3292366001	 0.5176761862	 0.313587
H	 0.634657708	 1.8450404682	-0.1681051622	 0.32366
H	-0.4258525904	 0.6510713229	-0.6432728588	 0.323564
C	-0.8028972027	 1.4015244355	 1.3140052099	-0.111657
C	-1.5043345139	 0.3139126139	 2.0614114033	-0.056044
C	-0.7038977938	-0.9926712069	 2.0623308877	-0.268715
C	 0.5115343545	-0.234511712	 2.6644544166	-0.174456
C	-0.2913583642	 1.0663393859	 2.6738201735	-0.01118
C	 0.8906890665	-0.6453354771	 4.1831844045	 0.33405
O	 0.3940119287	-1.7107401096	 4.565531467	-0.449798
O	 1.6116770687	 0.2144915725	 4.7048747492	-0.47596
H	-1.3179052991	 2.3364107231	 1.1272308893	 0.132111
H	-2.5601765395	 0.4284494921	 2.2796369709	 0.107598
H	-1.034340945	-1.6989110945	 2.829037399	 0.171941
H	-0.6199334519	-1.5193701535	 1.1011672379	 0.052669
H	 1.4702797509	-0.2258984803	 2.1161019257	 0.058184
H	-0.2351764204	 1.8050878771	 3.4625925013	 0.134569
52.1291	116.8711	158.9557	204.9459	249.3951	306.5135	414.323	456.6685	520.9617	606.2445	694.4055	732.1754	758.1367	786.4641	815.222	841.0467	911.4263	935.6174	966.3144	986.9502	1019.0007	1033.8681	1067.4212	1094.7339	1131.1823	1166.6687	1180.1244	1183.2019	1200.9884	1218.622	1254.705	1307.6542	1336.9787	1403.3575	1453.5548	1494.8441	1627.0209	1633.7841	1818.0948	2929.782	2997.8941	3098.7742	3176.1413	3189.076	3203.1851	3215.4019	3447.6675	3514.3801
[NH3+]C1C2CC(C12)C([O-])=O	[NH3][C@H]1[C@H]2C[C@@H]([C@@H]12)C(=O)[O]	
InChI=1S/C6H9NO2/c7-5-2-1-3(4(2)5)6(8)9/h2-5H,1,7H2,(H,8,9)	InChI=1S/C6H9NO2/c7-5-2-1-3(4(2)5)6(8)9/h2-5H,1H2,7H3/t2-,3-,4-,5-/m0/s1
