21
gdb 114822	2.49908	1.378	1.20141	2.6392	77.9	-0.2387	0.0617	0.3004	1150.8867	0.182124	-424.193725	-424.184618	-424.183674	-424.227651	34.977	
O	 0.4376096605	 0.2299145984	 0.8063254467	-0.430119
C	-0.2319016077	 0.3320860694	-0.4514788476	-0.116555
C	-1.5473091891	-0.3926735196	-0.2797886505	-0.018605
C	-2.4473692998	-0.7730874805	-1.4914235055	-0.284352
C	-2.6641596106	-2.198207615	-0.8864670917	-0.061308
C	-1.7888444637	-3.2923892816	-1.5338118945	-0.220888
C	-0.5806066328	-2.8331008856	-0.6603483088	-0.291914
C	-1.5246903558	-1.8776997374	 0.1435259763	 0.430927
O	-1.6613368734	-2.150453179	 1.507938017	-0.494327
H	 1.3068570995	 0.6333211478	 0.7277652422	 0.289894
H	-0.3956718597	 1.3844712898	-0.7320092357	 0.088715
H	 0.3650589654	-0.1315625943	-1.2519944644	 0.086763
H	-2.1456411301	 0.1372289684	 0.4697287869	 0.083992
H	-3.3443186852	-0.1628882163	-1.6118278101	 0.103733
H	-1.9188778047	-0.7944940846	-2.4501972735	 0.09413
H	-3.6822486829	-2.4417526328	-0.5825534326	 0.068646
H	-2.1204379338	-4.3030412392	-1.2819358001	 0.102881
H	-1.6656236993	-3.2313440567	-2.6191833636	 0.090273
H	-0.1617852518	-3.6145083308	-0.023631334	 0.106946
H	 0.2379521903	-2.3535332175	-1.2041044545	 0.088467
H	-0.9498508853	-1.671171593	 1.9508624679	 0.2827
59.697	93.7359	153.1265	229.7564	266.0019	313.1057	328.3413	375.357	394.7303	442.8051	496.4565	603.3772	640.3064	743.4681	764.5199	832.2713	878.3508	922.1163	944.7893	960.0455	978.6757	1011.9899	1030.58	1047.3717	1078.6261	1120.0944	1128.4252	1170.1575	1181.9462	1202.5021	1225.0489	1235.4185	1245.8062	1259.3901	1272.0357	1278.7008	1296.4368	1314.717	1372.2711	1389.2877	1452.7068	1467.1883	1484.733	1497.0502	1524.2387	2973.259	2999.6208	3046.5297	3049.9107	3051.5715	3061.7588	3095.7656	3103.9623	3116.5613	3123.8582	3781.1555	3831.3517
OCC1CC2CCC12O	OC[C@H]1C[C@H]2CC[C@@]12O	
InChI=1S/C7H12O2/c8-4-6-3-5-1-2-7(5,6)9/h5-6,8-9H,1-4H2	InChI=1S/C7H12O2/c8-4-6-3-5-1-2-7(5,6)9/h5-6,8-9H,1-4H2/t5-,6-,7+/m1/s1
