14
gdb 131546	3.14014	1.63112	1.17293	3.7715	64.17	-0.2254	-0.0462	0.1792	981.3866	0.102032	-469.952877	-469.945588	-469.944644	-469.984902	27.19	
O	-0.1700821459	 1.4733949078	-0.1436510025	-0.419579
C	 0.0351173166	 0.0744100953	 0.0023845799	-0.05266
C	-1.3566112913	-0.6552434945	-0.0611543604	-0.178147
N	-1.4932131859	-1.3692065835	-1.3728521264	-0.408559
C	-0.2170000301	-1.251210786	-1.9304870827	 0.289822
C	 0.6804072383	-0.5594287883	-1.1938766388	 0.335953
O	 1.8600675659	-0.5748550499	-1.7856070359	-0.24693
N	 1.6285648659	-1.3552367847	-3.0276979733	-0.033404
N	 0.4225174467	-1.720795479	-3.0396710927	-0.202291
H	 0.6884797567	 1.9108549441	-0.1327293488	 0.2948
H	 0.5421837384	-0.1462883984	 0.9496382822	 0.099882
H	-1.4158181885	-1.3946690136	 0.7420153807	 0.13226
H	-2.1540278951	 0.0769965367	 0.0768477722	 0.138543
H	-2.2288791516	-0.985736766	-1.9556207635	 0.250309
80.2745	144.533	268.1462	280.978	331.5055	420.8069	430.891	508.8735	621.647	664.499	686.6376	741.5914	767.9333	854.4066	892.0997	959.9479	995.3513	1005.724	1094.7323	1159.7668	1220.9946	1257.4204	1302.3074	1324.2718	1362.0005	1384.4031	1402.59	1431.9221	1477.7594	1492.0821	1651.4755	3027.5893	3068.037	3129.8507	3535.859	3807.7989
OC1CNC2=C1ON=N2	O[C@H]1CNc2c1onn2	
InChI=1S/C4H5N3O2/c8-2-1-5-4-3(2)9-7-6-4/h2,5,8H,1H2	InChI=1S/C4H5N3O2/c8-2-1-5-4-3(2)9-7-6-4/h2,5,8H,1H2/t2-/m0/s1
