19
gdb 128587	2.41267	1.37936	0.89258	2.9035	81.16	-0.2	0.0309	0.2309	1320.8765	0.158552	-419.22215	-419.212365	-419.211421	-419.257446	34.142	
C	 0.0375192119	 1.4011971538	 0.136478508	-0.246142
O	 0.0165213182	-0.0093871962	 0.0557731384	-0.260154
C	 0.6182956058	-0.5363581353	-1.0400636245	 0.196845
C	 1.2673666865	 0.0758827905	-2.0955082322	-0.174082
N	 1.698199403	-0.9361867128	-2.902580382	 0.051516
C	 2.3399951011	-0.8192509439	-4.1910864508	-0.320944
N	 1.3519257603	-2.1483160281	-2.4339493353	-0.323485
C	 0.6975613168	-1.926761123	-1.2939467138	 0.261305
C	 0.1667137467	-3.0421092985	-0.4544724258	-0.493497
H	 1.0673473647	 1.78364707	 0.1730235972	 0.117252
H	-0.4780620702	 1.8576357145	-0.7202421708	 0.117129
H	-0.4812496322	 1.6743415428	 1.0569378583	 0.133373
H	 1.4584200869	 1.109534225	-2.329789713	 0.124002
H	 3.0703265937	-0.0056843427	-4.1723325407	 0.132868
H	 2.8518737853	-1.7597637674	-4.3965866725	 0.157135
H	 1.6150944909	-0.6269555133	-4.9912631067	 0.13484
H	 0.6153374371	-3.0405396385	 0.5452491696	 0.128489
H	-0.9171097924	-2.9587145497	-0.3175653642	 0.128502
H	 0.3849914161	-3.9996834173	-0.9318890591	 0.13505
70.5536	80.0308	100.3193	151.2895	177.9209	212.2974	251.5236	261.816	363.4665	369.9182	545.9179	608.3969	625.8597	642.579	692.2774	740.0459	826.3009	1010.6548	1017.5219	1065.9735	1071.309	1094.2663	1146.0357	1181.7798	1184.2195	1217.7134	1238.6774	1360.7731	1399.1876	1415.2629	1438.5923	1454.0748	1479.4092	1481.9846	1484.951	1490.8192	1495.0254	1507.633	1513.9777	1541.5597	1627.1102	2990.7294	3026.6369	3032.8509	3044.0316	3081.8184	3095.8504	3131.0409	3131.3314	3153.1047	3269.7499
COC1=CN(C)N=C1C	COc1cn(C)nc1C	
InChI=1S/C6H10N2O/c1-5-6(9-3)4-8(2)7-5/h4H,1-3H3	InChI=1S/C6H10N2O/c1-5-6(9-3)4-8(2)7-5/h4H,1-3H3
