15
gdb 26610	2.42851	1.91128	1.07043	3.0334	76.06	-0.1785	-0.0134	0.1652	1043.5485	0.115715	-450.179028	-450.17138	-450.170436	-450.210715	30.329	
N	 0.0106556072	 1.3792812858	 0.153153557	-0.56928
C	-0.0107930949	 0.0030651083	 0.0602478167	 0.25582
C	-1.180685829	-0.7070163507	 0.0433138169	 0.298312
O	-2.3937046383	-0.0966326133	 0.0552739566	-0.461772
C	-1.1798023934	-2.141091111	 0.0036326949	 0.296475
N	-2.3047720509	-2.774373691	-0.0171190976	-0.613186
N	 0.1094893626	-2.6841430231	-0.0123926485	-0.369071
C	 1.2313067897	-1.9069065855	-0.0067476121	 0.078777
N	 1.2209474963	-0.6188925264	 0.0277059946	-0.326268
H	 0.8583188507	 1.8019817193	-0.1938739309	 0.254424
H	-0.8405583744	 1.8409868739	-0.1301918474	 0.264687
H	-3.0318569134	-0.8342178792	 0.0239664105	 0.302841
H	-2.2076387707	-3.7858288507	-0.0513612317	 0.200634
H	 0.2046990678	-3.688523672	-0.0410643157	 0.257679
H	 2.1750977806	-2.4438191344	-0.0344629334	 0.129928
139.3766	200.3767	280.3491	298.2744	323.9807	400.9264	511.3725	521.7976	529.6956	556.4897	563.7114	566.6281	600.9563	679.3299	707.3805	717.7891	762.7968	896.4987	905.7747	1008.9679	1062.255	1150.5755	1185.1154	1294.0273	1340.915	1375.0418	1433.0769	1457.4091	1475.9548	1619.6023	1635.2344	1691.7711	1719.361	3175.584	3515.4448	3573.8267	3608.3988	3616.4268	3690.4736
NC1=C(O)C(=N)NC=N1	N[C@@H]1C(=C([NH])NC=N1)O	
InChI=1S/C4H6N4O/c5-3-2(9)4(6)8-1-7-3/h1,9H,(H4,5,6,7,8)	InChI=1S/C4H7N4O/c5-3-2(9)4(6)8-1-7-3/h1,3,6,9H,5H2,(H,7,8)/t3-/m0/s1
