20
gdb 101925	1.90553	1.49391	0.963	5.0345	75.34	-0.2439	0.0201	0.2639	1280.9534	0.171057	-440.297737	-440.288321	-440.287377	-440.332938	34.351	
C	-0.7912558066	 0.9529737668	 0.0204082106	-0.329769
N	 0.4989411118	 0.269679254	-0.0823616211	-0.314113
H	 0.4260165162	-0.494316186	-0.7485237763	 0.235263
H	 2.1882205809	 0.9177065213	-0.2931226161	 0.299137
C	 1.0287888424	-0.2729894192	 1.1879091533	-0.14955
C	 0.5424698587	-1.6888488345	 1.4565205023	 0.007256
C	 1.2975634489	-2.9144722815	 0.9907201072	-0.277792
C	 1.1503318419	-2.6283202593	 2.4645094411	-0.271241
C	 2.5693786226	-0.0957144269	 1.1959133118	 0.418477
O	 3.0082416662	 0.6922379475	 0.2122790535	-0.365255
O	 3.2990084186	-0.5814902545	 2.0216704335	-0.345396
H	-0.6802398014	 1.8460362665	 0.6427716735	 0.138548
H	-1.1090789071	 1.2746367952	-0.9749793065	 0.131568
H	-1.5902402383	 0.3318513397	 0.4528824326	 0.116115
H	 0.6681989298	 0.3849948591	 1.9903761144	 0.118656
H	-0.5401795902	-1.7518288453	 1.3693231159	 0.085321
H	 0.7302172584	-3.7289845281	 0.5540515661	 0.108098
H	 2.2850736603	-2.7758019061	 0.5643908101	 0.13177
H	 2.0359463487	-2.2903821234	 2.9848373763	 0.157401
H	 0.469136478	-3.2434694653	 3.0424773478	 0.105507
39.4322	75.9758	117.3715	185.8878	201.4913	239.7438	303.1436	337.5814	407.5173	472.2716	530.2775	582.2038	723.0868	769.8142	798.0513	828.1804	849.4975	906.6383	937.6931	948.5928	1011.8098	1023.5659	1062.6552	1096.7093	1118.9793	1143.376	1146.5519	1160.4319	1190.4856	1204.6003	1218.5953	1246.8476	1301.9112	1340.5056	1402.1613	1441.7238	1460.3572	1464.3564	1477.4696	1496.5886	1501.9276	1516.2478	1854.6222	2989.4433	3023.6566	3078.2487	3117.9878	3122.0731	3135.2525	3145.6541	3219.8075	3253.9396	3355.8753	3506.2931
C[NH2+]C(C1CC1)C([O-])=O	CN[C@@H](C1CC1)C(=O)O	
InChI=1S/C6H11NO2/c1-7-5(6(8)9)4-2-3-4/h4-5,7H,2-3H2,1H3,(H,8,9)	InChI=1S/C6H11NO2/c1-7-5(6(8)9)4-2-3-4/h4-5,7H,2-3H2,1H3,(H,8,9)/t5-/m0/s1
