18
gdb 30736	3.15273	1.22217	0.89187	2.7652	76.92	-0.1693	0.0483	0.2176	1287.3951	0.146334	-439.102842	-439.093003	-439.092059	-439.13797	35.016	
C	-0.0600116267	 1.4645933395	 0.1885745906	-0.323798
N	 0.0569925409	 0.027586343	-0.019268518	-0.391864
C	 0.6313251296	-0.7477683319	 0.9734575814	 0.369584
C	 0.7537840885	-2.1049276422	 1.1077645711	-0.001956
C	 0.2606230055	-3.174315536	 0.1844762549	-0.540672
C	 1.4986820499	-2.2782503616	 2.3288541172	 0.25194
O	 1.8811708319	-3.4612712372	 2.8829574059	-0.444536
C	 1.7788916256	-1.0493374837	 2.8299364057	-0.159435
O	 1.2328860908	-0.0932492546	 1.987571193	-0.188213
H	 0.9328525623	 1.8942839968	 0.339204737	 0.147258
H	-0.4940563064	 1.9094478177	-0.7097672655	 0.121782
H	-0.679278125	 1.7374609603	 1.0554618756	 0.119304
H	-0.777663035	-0.3923817174	-0.4010724009	 0.243246
H	 0.9888285441	-3.9907436918	 0.0886402211	 0.119375
H	-0.688363303	-3.6259608281	 0.5049334454	 0.124155
H	 0.1097633834	-2.7795025463	-0.825679833	 0.129605
H	 1.5206491624	-4.1769739054	 2.3511896726	 0.296183
H	 2.3162338311	-0.6857917111	 3.6857117859	 0.128042
38.6044	116.6597	147.3488	181.8899	195.7876	207.8418	241.2996	276.4418	345.8252	382.207	503.9531	546.7332	578.3215	633.6509	653.9623	709.6355	736.7582	774.3468	925.9526	1056.6669	1061.0699	1084.6437	1129.6626	1151.0528	1182.121	1206.7	1212.2318	1311.9405	1372.4072	1418.5664	1446.5931	1459.207	1482.2511	1490.2856	1495.6865	1507.2781	1520.4453	1647.6681	1702.9737	2997.4772	3000.8999	3043.178	3087.3034	3091.0239	3132.7968	3309.3449	3597.8148	3836.7009
CNC1=C(C)C(O)=CO1	CNc1c(C)c(O)co1	
InChI=1S/C6H9NO2/c1-4-5(8)3-9-6(4)7-2/h3,7-8H,1-2H3	InChI=1S/C6H9NO2/c1-4-5(8)3-9-6(4)7-2/h3,7-8H,1-2H3
