21
gdb 69253	2.47501	1.50354	1.1384	3.435	82.9	-0.2292	-0.0047	0.2244	1157.4817	0.18389	-387.124084	-387.115703	-387.114759	-387.156765	33.241	
C	-0.0722961732	 1.5232908812	 0.0428733488	-0.468898
C	-0.0238849712	 0.0082104243	-0.0045854567	 0.343678
C	-0.7939193989	-0.7477400074	 1.0322156384	-0.3281
C	 0.729552194	-0.6942137632	 1.129581275	-0.152524
C	 1.532918358	-1.9202247571	 0.8651923133	 0.399496
O	 2.4017274527	-2.2871760374	 1.6278299555	-0.336003
C	 1.2463648643	-2.6362455128	-0.4477034968	-0.31206
C	 1.2066505918	-1.6114434718	-1.5943142288	-0.20495
C	 0.0653571764	-0.5994200021	-1.4149513106	-0.283145
H	 0.8253252916	 1.961720087	-0.4076722527	 0.121264
H	-0.9408809453	 1.9018939813	-0.5086645756	 0.120129
H	-0.1447856786	 1.8896205095	 1.0716461219	 0.117518
H	-1.3414643939	-0.1933426065	 1.7870095413	 0.118878
H	-1.2514976839	-1.6917694153	 0.7547561311	 0.116096
H	 1.13779422	-0.0805066834	 1.9256867492	 0.098293
H	 2.0234161916	-3.390107059	-0.5923203096	 0.119887
H	 0.2829040111	-3.1601185123	-0.3848299581	 0.112652
H	 2.1668600905	-1.0811005631	-1.6242581484	 0.109949
H	 1.1029416995	-2.1232967015	-2.5568905132	 0.101661
H	-0.8886312442	-1.0818587028	-1.6619587107	 0.103103
H	 0.1913055878	 0.2110452924	-2.1405318934	 0.103076
93.4199	140.3954	211.9494	245.6377	317.704	348.4159	376.2029	415.765	454.3398	494.7068	540.803	646.5141	722.4175	743.3284	844.3245	863.4629	884.6075	891.8751	941.319	944.4995	989.7813	1044.0034	1044.9959	1060.0384	1067.8319	1115.9651	1122.4444	1151.0597	1202.4851	1227.9144	1264.3581	1293.392	1316.5571	1340.9944	1368.2095	1378.0063	1403.442	1418.934	1468.3108	1483.3247	1489.4831	1495.4228	1500.3005	1505.0147	1793.8508	3021.5116	3022.4455	3026.0192	3029.9627	3067.6201	3076.9665	3085.3271	3102.2673	3108.9489	3126.9091	3169.9196	3212.6492
CC12CC1C(=O)CCC2	C[C@]12C[C@H]1C(=O)CCC2	
InChI=1S/C8H12O/c1-8-4-2-3-7(9)6(8)5-8/h6H,2-5H2,1H3	InChI=1S/C8H12O/c1-8-4-2-3-7(9)6(8)5-8/h6H,2-5H2,1H3/t6-,8-/m0/s1
