21
gdb 81863	2.7639	1.4083	1.08346	2.7796	82.29	-0.2376	-0.0149	0.2227	1191.4347	0.181952	-387.125441	-387.116528	-387.115584	-387.158652	34.609	
C	 0.1378795277	 1.6462402942	 0.0121167909	-0.393338
C	 0.1133235219	 0.1181630775	-0.0349430924	-0.101214
C	 0.8081929049	-0.5548962235	-1.2055133438	-0.080592
C	 2.3204882741	-0.5424823895	-1.2121205644	-0.337259
C	 1.5874516055	-1.7697448247	-0.7216275705	 0.34443
C	 1.6492398266	-3.0532362053	-1.5137485156	-0.481739
C	 1.4217962382	-1.8531217173	 0.7878522432	-0.385609
C	 0.7670591632	-0.5293697992	 1.2014825055	 0.37437
O	 0.7662858959	-0.0606356967	 2.3103300859	-0.314602
H	 1.1592915669	 2.0233062185	-0.0992936503	 0.119605
H	-0.4698754854	 2.0755286919	-0.7896013865	 0.110966
H	-0.247814291	 1.9971686307	 0.9728766652	 0.135998
H	-0.9361724896	-0.2171895354	-0.0138863398	 0.100386
H	 0.2964443335	-0.5888567601	-2.1616953093	 0.082572
H	 2.8155110114	-0.6099352317	-2.1749109184	 0.112142
H	 2.8440173575	 0.0833086462	-0.4934834946	 0.114865
H	 1.686855758	-2.8519767568	-2.5893284652	 0.115335
H	 2.5386886507	-3.6402400331	-1.2560578002	 0.120242
H	 0.7714364589	-3.6817206573	-1.3215715791	 0.114776
H	 0.7386497674	-2.6699180378	 1.0611441829	 0.122869
H	 2.3489474538	-2.0113903304	 1.3473704465	 0.125792
85.6939	150.677	193.6994	218.3581	231.122	273.8239	329.53	364.461	464.5121	476.2336	530.696	564.5925	629.0877	713.4097	759.8945	836.6868	867.2933	894.6762	950.1487	958.2787	967.3899	1019.8897	1037.0917	1061.8515	1068.4404	1083.2831	1119.4868	1149.2475	1165.235	1190.63	1231.0454	1280.6085	1300.8512	1326.0148	1336.7748	1397.3216	1407.7036	1422.4319	1455.9985	1488.1011	1491.6196	1495.8043	1497.8172	1503.5716	1843.6227	2982.8089	3017.1548	3020.9882	3042.0778	3078.6722	3083.3851	3095.1586	3110.1774	3115.094	3123.9506	3160.7076	3202.7789
CC1C2CC2(C)CC1=O	C[C@H]1[C@H]2C[C@@]2(C)CC1=O	
InChI=1S/C8H12O/c1-5-6-3-8(6,2)4-7(5)9/h5-6H,3-4H2,1-2H3	InChI=1S/C8H12O/c1-5-6-3-8(6,2)4-7(5)9/h5-6H,3-4H2,1-2H3/t5-,6+,8-/m0/s1
