20
gdb 86265	1.79394	1.65475	1.13781	3.4379	79.87	-0.285	0.0157	0.3007	1192.7377	0.169236	-403.161344	-403.151543	-403.150599	-403.195539	36.55	
C	-0.5971073099	 0.8804000912	-1.6290161089	-0.435394
C	 0.34941015	-0.1837096443	-1.1015431448	 0.00018
C	 1.8742236501	-0.062645274	-1.3684024848	-0.26782
C	 2.1420524126	-0.5931934151	 0.0664148349	 0.00871
C	 3.2804934371	-0.0211114121	 0.8929610074	-0.414132
C	 0.6762189413	-0.1909543755	 0.4368961766	 0.228728
O	 0.6872199669	 1.0983110035	 1.0176320145	-0.457793
C	-0.0931778158	-1.126647905	 1.2655611606	 0.222415
N	-0.7206044286	-1.8630723804	 1.8994051489	-0.341406
H	-0.2878762391	 1.8770519994	-1.2999598701	 0.124753
H	-0.6018622349	 0.8770302181	-2.7237698964	 0.128058
H	-1.6268819944	 0.7075921302	-1.295729895	 0.123035
H	-0.0000631474	-1.1814968499	-1.3846735151	 0.093447
H	 2.2845280258	-0.6365588745	-2.2014140998	 0.103796
H	 2.1806084171	 0.982465814	-1.4709898054	 0.112585
H	 2.1957416406	-1.6859113428	 0.0470416069	 0.095308
H	 3.2036319099	 1.0658021086	 0.9682862576	 0.135931
H	 3.2822340425	-0.4321114764	 1.9075990623	 0.127217
H	 4.2408229281	-0.2686016815	 0.4284217015	 0.117259
H	-0.223777532	 1.3933505164	 1.1276040191	 0.295122
89.0528	118.2058	167.8033	204.3558	210.1828	244.7789	263.9355	300.5493	340.3396	359.8328	470.5616	487.2939	529.4596	581.3591	594.1515	697.5518	833.6949	886.0114	910.9378	923.0047	965.782	990.9182	1048.025	1070.0351	1109.0291	1154.299	1171.643	1181.2944	1201.1894	1255.8325	1267.1822	1311.9486	1328.6585	1363.0176	1389.7592	1406.4964	1412.9453	1487.8706	1490.9999	1494.8518	1499.418	1505.4625	2343.4299	3031.1491	3039.6111	3059.0782	3060.3181	3066.187	3096.5895	3102.6844	3110.8026	3120.8707	3130.9972	3804.6211
CC1CC(C)C1(O)C#N	C[C@H]1C[C@@H](C)[C@]1(O)C#N	
InChI=1S/C7H11NO/c1-5-3-6(2)7(5,9)4-8/h5-6,9H,3H2,1-2H3	InChI=1S/C7H11NO/c1-5-3-6(2)7(5,9)4-8/h5-6,9H,3H2,1-2H3/t5-,6+,7-
