19
gdb 63127	2.27324	1.54851	1.14926	3.0073	77.91	-0.2435	-0.0271	0.2165	1131.4345	0.15718	-422.998398	-422.989422	-422.988477	-423.031673	33.747	
C	 0.0201989609	 1.5531958473	-0.0548925533	-0.465346
C	 0.0211395192	 0.0376264401	 0.0045971766	 0.212944
C	-1.1939464913	-0.618030389	-0.6314403253	-0.464214
C	 1.2838546311	-0.7365810699	-0.1357706777	 0.029506
O	 2.4282106595	-0.0618301374	 0.3493768861	-0.277773
C	 1.880312585	-0.037087864	 1.7007714113	-0.155916
C	 0.5787516242	-0.6892622843	 1.2484727199	 0.140796
C	-0.0925309205	-1.7319806564	 2.0275666543	 0.049463
O	 0.2516570284	-2.0485900598	 3.1458932694	-0.278641
H	 0.9873014968	 1.9690035855	 0.2314416594	 0.142599
H	-0.1902722782	 1.8832527275	-1.0780741012	 0.122235
H	-0.7523483165	 1.9731345272	 0.5976407301	 0.122482
H	-1.3078977935	-0.2610609167	-1.6602179158	 0.127896
H	-1.1105152683	-1.7084271342	-0.6678735329	 0.12318
H	-2.1119651879	-0.3707239367	-0.0881158667	 0.130713
H	 1.4331848394	-1.5680865949	-0.8180438176	 0.115801
H	 2.455381661	-0.6905772661	 2.3613837592	 0.138077
H	 1.8358258518	 0.9749320032	 2.114477445	 0.114844
H	-0.9540117011	-2.2306725313	 1.5361854793	 0.071353
99.9965	172.2886	182.2775	205.2158	255.9788	263.2398	293.5824	315.0872	359.2678	415.386	535.3496	546.7626	632.6513	722.4176	776.9746	872.8833	943.1235	970.4644	973.9589	981.6103	1005.9513	1030.5494	1060.2209	1078.2136	1118.4896	1152.8701	1159.5887	1214.7009	1250.1957	1319.5432	1347.8141	1402.5017	1412.8325	1429.3799	1448.4444	1484.2793	1490.4078	1503.4545	1513.4218	1524.1336	1780.3343	2908.4429	3033.3033	3038.3506	3052.7363	3095.3716	3099.5519	3106.3584	3112.4233	3139.3535	3162.1998
CC1(C)C2OCC12C=O	CC1(C)[C@H]2OC[C@@]12C=O	
InChI=1S/C7H10O2/c1-6(2)5-7(6,3-8)4-9-5/h3,5H,4H2,1-2H3	InChI=1S/C7H10O2/c1-6(2)5-7(6,3-8)4-9-5/h3,5H,4H2,1-2H3/t5-,7-/m1/s1
