16
gdb 19724	4.01139	2.36341	2.15829	2.9111	61.77	-0.2522	0.0888	0.341	698.9445	0.133687	-383.722786	-383.717272	-383.716328	-383.752118	23.088	
C	-0.0250398027	 1.5518359234	 0.0089216848	-0.221311
C	 1.4953674992	 1.9184552113	-0.0037532332	-0.221309
C	 2.1395149755	 0.5060142832	 0.0006748315	 0.020901
O	 1.2098233922	-0.2599345172	-0.7681023913	-0.240396
C	 0.0454543377	 0.0010670738	 0.018118582	 0.020902
C	 0.5058770847	-0.3908149262	 1.4302641017	 0.037094
O	 1.5054067083	-1.4089552865	 1.4548894826	-0.239323
C	 1.9305822142	-0.0472719917	 1.4183940006	 0.037094
H	-0.5527623826	 1.9539003315	 0.8784610001	 0.101729
H	-0.5318622776	 1.9082956355	-0.8899701395	 0.111519
H	 1.7698129903	 2.4632771849	-0.9091752558	 0.111519
H	 1.7954932129	 2.5201643459	 0.8588674772	 0.101729
H	 3.1363541064	 0.4196794117	-0.4299718371	 0.0875
H	-0.8091423004	-0.531711255	-0.3971043244	 0.0875
H	-0.1437967791	-0.3053943261	 2.2956811458	 0.102426
H	 2.4834744111	 0.3281176613	 2.273795285	 0.102427
223.4163	320.4549	375.9992	482.5342	624.1911	632.7827	779.0357	826.7576	829.9812	835.2037	878.8181	900.5377	903.6463	938.0672	951.5243	964.7741	991.5808	1029.299	1033.5746	1053.6492	1107.1798	1147.6021	1217.3534	1226.9766	1241.9451	1247.2287	1274.9234	1295.8531	1318.0159	1327.4695	1342.9254	1416.3152	1483.2903	1504.1262	3060.2928	3069.9796	3104.9221	3122.1566	3129.3875	3133.6583	3160.7217	3173.8174
C1CC2OC1C1OC21	C1C[C@@H]2O[C@H]1[C@H]1O[C@@H]21	
InChI=1S/C6H8O2/c1-2-4-6-5(8-6)3(1)7-4/h3-6H,1-2H2	InChI=1S/C6H8O2/c1-2-4-6-5(8-6)3(1)7-4/h3-6H,1-2H2/t3-,4+,5-,6+
