20
gdb 104798	2.66471	1.34648	1.11626	2.5256	74.67	-0.2319	0.0613	0.2931	1153.3836	0.171216	-440.224793	-440.215932	-440.214988	-440.258071	34.196	
O	-0.0132358675	 1.4009925783	-0.0417287681	-0.431195
C	 0.0123933717	-0.0248449112	 0.1083984306	-0.146861
C	-1.4217495823	-0.5314247134	 0.0678262398	 0.306151
C	-2.2703401365	 0.0494525263	 1.2058680743	-0.111551
O	-2.5750392229	 1.4181206021	 1.0365792181	-0.431887
C	-2.1669563082	-0.43861676	-1.3183324675	-0.27083
C	-2.3015096955	-1.962911424	-1.3040976245	-0.034851
N	-0.9186796078	-2.5040969539	-1.2759503289	-0.34251
C	-1.566328452	-2.0647721176	-0.0152380852	-0.128761
H	 0.8865883137	 1.7343758885	 0.0157788927	 0.293827
H	 0.5891543419	-0.4920162412	-0.6978537851	 0.11822
H	 0.4730581228	-0.3015809796	 1.0705917358	 0.083585
H	-3.2292526751	-0.4812752531	 1.2536495008	 0.095325
H	-1.7526259577	-0.1351134221	 2.1647386558	 0.074387
H	-1.7433969845	 1.8493666522	 0.7956837171	 0.291213
H	-3.1100913503	 0.1017702493	-1.2282030923	 0.122164
H	-1.5894828509	-0.0323775277	-2.1516548408	 0.106405
H	-3.1170335682	-2.5665825147	-1.6829546547	 0.092557
H	-0.9934670095	-3.5209502798	-1.3055746905	 0.227569
H	-1.6901790612	-2.7516754085	 0.8145953925	 0.087043
95.6444	144.9659	167.2401	215.4731	240.999	263.9308	353.044	384.4764	419.7315	466.7475	545.8723	559.5891	685.7079	772.389	814.5181	840.4757	904.3813	939.4699	948.5357	964.2268	979.5326	1012.8909	1037.5386	1054.5824	1091.2685	1094.1211	1117.1952	1145.3588	1171.1442	1207.4782	1221.4943	1240.7695	1278.0184	1302.3746	1317.4863	1326.8977	1373.2707	1386.7051	1451.1602	1471.0145	1482.8189	1507.4242	1525.457	2936.8519	2972.9683	3043.7843	3059.774	3076.2088	3137.4894	3171.6037	3191.8621	3467.7822	3738.4447	3834.9216
OCC1(CO)CC2NC12	OCC1(CO)C[C@H]2N[C@@H]12	
InChI=1S/C6H11NO2/c8-2-6(3-9)1-4-5(6)7-4/h4-5,7-9H,1-3H2	InChI=1S/C6H11NO2/c8-2-6(3-9)1-4-5(6)7-4/h4-5,7-9H,1-3H2/t4-,5-/m1/s1
