17
gdb 51096	4.28148	1.05181	1.01447	2.9995	68.98	-0.2593	-0.001	0.2583	1185.2865	0.136202	-458.955762	-458.948171	-458.947227	-458.98876	28.696	
O	 0.0322291511	 0.0004986654	 0.0539547827	-0.268339
C	 0.0938544665	 1.1761287393	 0.2484218418	 0.14227
O	 1.0082675445	 1.9620595592	-0.361164778	-0.245535
C	 0.9766336283	 3.3486990658	-0.1235838776	 0.366403
C	 0.5637398858	 4.0457101168	 1.2147664207	-0.299769
C	 1.3178769536	 5.2048683638	 0.5134409659	 0.094848
C	 2.3037874577	 4.1442327631	-0.0387196682	-0.27815
O	 0.4848127058	 5.5151485638	-0.6189210177	-0.270742
C	 0.1964728117	 4.2035910076	-1.138947694	-0.119099
H	-0.5645189637	 1.734588912	 0.937342681	 0.090405
H	-0.4961076711	 4.2002870493	 1.4265669984	 0.11415
H	 1.0932989992	 3.64533311	 2.0805083732	 0.119331
H	 1.6234700306	 6.1178870979	 1.0170021123	 0.097934
H	 2.9820109565	 3.7443141079	 0.7158698439	 0.116341
H	 2.8261684216	 4.3754113651	-0.9684923059	 0.115426
H	 0.572337881	 4.0953653575	-2.162038899	 0.11763
H	-0.8827024493	 4.0092353155	-1.1264797395	 0.106896
39.4288	133.4214	167.6573	327.5335	353.6986	409.1962	452.2942	495.7277	528.5149	638.1441	787.8786	825.4603	860.4721	908.6404	922.433	955.6679	967.1659	1005.3611	1022.6288	1031.1674	1043.4689	1116.4721	1123.4717	1146.8961	1170.6649	1207.278	1215.2358	1245.2813	1250.5488	1256.2851	1296.0237	1369.9502	1425.826	1472.627	1505.475	1531.7489	1866.3505	2985.0241	3026.7214	3073.756	3076.2871	3083.7985	3145.093	3153.6351	3165.1734
O=COC12CC(C1)OC2	O=CO[C@@]12C[C@@H](C1)OC2	
InChI=1S/C6H8O3/c7-4-9-6-1-5(2-6)8-3-6/h4-5H,1-3H2	InChI=1S/C6H8O3/c7-4-9-6-1-5(2-6)8-3-6/h4-5H,1-3H2/t5-,6-
