24
gdb 8310	5.7263	0.82071	0.78731	0.1512	86.47	-0.2783	0.0886	0.3669	1589.0682	0.223117	-314.277017	-314.267421	-314.266476	-314.311639	35.638	
C	-0.0385580551	 1.5879879161	 0.0708146325	-0.379068
C	-0.0753397746	 0.0630741761	-0.0607997881	-0.159996
C	 0.8355153999	-0.4704412093	-1.17324191	-0.191453
C	 0.797522457	-1.9859761132	-1.3176588285	 0.055005
C	-0.493972057	-2.6704027328	-1.8525156955	-0.237139
C	 0.4010808092	-3.6631014489	-2.646610904	 0.060221
C	-0.0248109518	-4.0930772595	-4.0416661223	-0.406467
C	 1.5737133441	-2.6548524968	-2.4863462259	-0.258614
H	 0.9742002417	 1.9418158231	 0.2946039079	 0.112155
H	-0.358003029	 2.0732501983	-0.8583721396	 0.11225
H	-0.6975791417	 1.9377950529	 0.871819964	 0.109047
H	 0.21569501	-0.3948431289	 0.8940790458	 0.091893
H	-1.1061786123	-0.2634434446	-0.250360764	 0.098154
H	 0.5484160202	-0.0102170718	-2.1298483636	 0.084295
H	 1.8695745654	-0.1495074102	-0.9813391173	 0.088339
H	 1.0909257279	-2.4513274221	-0.3681340586	 0.063686
H	-1.2030517547	-3.0825766151	-1.1296332381	 0.090035
H	-1.0392804436	-2.0033120807	-2.5314833531	 0.089627
H	 0.5962112448	-4.5487825501	-2.0304730217	 0.06763
H	-0.2235909412	-3.2221655973	-4.6770513001	 0.108188
H	 0.7528902366	-4.6908702793	-4.5307796572	 0.111398
H	-0.9384015403	-4.6979369139	-4.011617307	 0.111271
H	 1.6364041778	-1.9838712954	-3.3515467079	 0.09026
H	 2.5722998668	-3.0515978866	-2.283420298	 0.089283
59.9417	89.9628	101.836	164.	228.3512	245.6127	293.9841	313.8037	387.7092	395.5197	446.7564	606.2357	745.9563	778.7499	810.2977	859.3535	895.8609	899.5035	919.4388	956.3292	962.7119	1006.3162	1038.9989	1055.2318	1082.4118	1127.5137	1142.6292	1155.2628	1199.2658	1231.8114	1237.3904	1260.8296	1267.6379	1281.8983	1295.8531	1317.3524	1332.4519	1367.0881	1383.4091	1401.6889	1410.3044	1413.0914	1475.4615	1482.6147	1492.9871	1494.5152	1496.2051	1499.3787	1504.4303	1510.9838	2996.6026	3014.1476	3017.1968	3019.62	3027.5974	3028.2965	3029.3393	3030.8657	3038.7295	3053.0998	3086.4517	3086.9631	3090.2816	3093.9251	3097.7079	3099.1786
CCCC1CC(C)C1	CCC[C@H]1C[C@@H](C)C1	
InChI=1S/C8H16/c1-3-4-8-5-7(2)6-8/h7-8H,3-6H2,1-2H3	InChI=1S/C8H16/c1-3-4-8-5-7(2)6-8/h7-8H,3-6H2,1-2H3/t7-,8+
