18
gdb 7209	3.94757	1.05213	0.89564	3.4346	78.9	-0.2496	-0.0443	0.2054	1345.3278	0.150267	-347.808305	-347.798166	-347.797222	-347.845235	34.102	
C	 0.0720934861	 1.4160391493	 0.2201659294	-0.504979
C	 0.0472815883	-0.0277774028	 0.0595777902	 0.140663
C	 0.0074135273	-1.2270142872	-0.0742654056	 0.001928
C	-0.0407358086	-2.666819052	-0.2571353417	 0.205816
O	-1.0844697856	-3.2392853365	-0.494170894	-0.30113
C	 1.2971903823	-3.3957600524	-0.1291854229	-0.068643
C	 1.8139161246	-3.2893775563	 1.3198679288	-0.391688
C	 1.1818675579	-4.8474080495	-0.5958677409	-0.391601
H	 1.0854251375	 1.8158645984	 0.1100871399	 0.1566
H	-0.5703062909	 1.9036968697	-0.5207719587	 0.163054
H	-0.2948422558	 1.6988872422	 1.2130535951	 0.163108
H	 2.0049855409	-2.8536320821	-0.7720717751	 0.093956
H	 2.8049027822	-3.7457652147	 1.4008028928	 0.120347
H	 1.8895605212	-2.2477722668	 1.6431536018	 0.126338
H	 1.1430493613	-3.8140587613	 2.0084514455	 0.126852
H	 0.8314328199	-4.9061989932	-1.6294996763	 0.123901
H	 2.1538509457	-5.3456338697	-0.529517133	 0.104857
H	 0.4672181558	-5.3973002549	 0.0224699345	 0.130622
18.8795	40.4108	84.3782	131.7265	199.7151	229.8805	247.0381	303.078	309.706	361.6519	399.0582	448.4025	574.0047	688.3542	748.7499	871.3976	933.1064	964.2916	972.8543	1044.9754	1054.5684	1103.3049	1125.3526	1178.2973	1214.3149	1311.6685	1361.8972	1398.4384	1410.1931	1419.6561	1470.1854	1474.5078	1485.2202	1486.3545	1500.8891	1509.7416	1757.3888	2336.426	3011.675	3031.9027	3037.7651	3045.9052	3095.0383	3099.0456	3107.67	3116.8988	3119.7659	3123.8753
CC#CC(=O)C(C)C	CC#CC(=O)C(C)C	
InChI=1S/C7H10O/c1-4-5-7(8)6(2)3/h6H,1-3H3	InChI=1S/C7H10O/c1-4-5-7(8)6(2)3/h6H,1-3H3
