15
gdb 116988	5.17122	0.592	0.55273	5.3964	84.93	-0.2791	-0.0822	0.1969	1924.5231	0.111582	-416.823356	-416.813665	-416.812721	-416.860269	32.615	
C	-0.2099041841	 1.4088580241	-0.1438611379	-0.373402
C	 0.3502146718	 0.0327292277	 0.2222208466	-0.159222
N	 1.037039136	-0.6133736618	-0.8896879684	-0.313841
C	 0.4819714399	-1.6286174507	-1.601802035	 0.253885
O	-0.6031248732	-2.1335023873	-1.3824273557	-0.344425
C	 1.3249875382	-2.1033564439	-2.700278998	-0.037429
C	 1.960199611	-2.5500118972	-3.6266570916	 0.166665
C	 2.6899650078	-3.0425148114	-4.6699451408	 0.205717
N	 3.3170167773	-3.4556245709	-5.5560312966	-0.323444
H	 0.5842016299	 2.0899900703	-0.4672193693	 0.118396
H	-0.9415626064	 1.3260182009	-0.95216168	 0.14036
H	-0.7039245295	 1.8564270166	 0.7238342081	 0.129203
H	 1.0505114364	 0.113175123	 1.0609036823	 0.117755
H	-0.4532291228	-0.6435224634	 0.5200469434	 0.158141
H	 1.9278685778	-0.2519896161	-1.1937396769	 0.261641
18.1492	56.0641	73.1518	139.2066	203.1703	240.7615	307.1918	314.4238	383.1828	447.7644	485.5623	541.8404	584.3234	594.5773	755.336	759.9557	850.1407	901.333	1024.0979	1097.4873	1139.6729	1173.3368	1254.1424	1323.7632	1392.59	1411.9995	1481.1447	1492.1833	1501.8179	1544.1949	1759.4038	2258.0006	2393.1077	3039.2374	3047.4859	3104.1455	3121.7649	3133.0468	3629.9455	18.1507	56.0641	73.1518	139.2066	203.171	240.7623	307.1908	314.424	383.1827	447.7644	485.5618	541.8402	584.3231	594.5777	755.3357	759.9552	850.1407	901.3329	1024.0978	1097.4872	1139.6728	1173.3369	1254.1424	1323.7634	1392.5901	1411.9993	1481.1448	1492.183	1501.8176	1544.1952	1759.4039	2258.0003	2393.1076	3039.2374	3047.4859	3104.1454	3121.7649	3133.0467	3629.9454
CCNC(=O)C#CC#N	CCNC(=O)C#CC#N	
InChI=1S/C6H6N2O/c1-2-8-6(9)4-3-5-7/h2H2,1H3,(H,8,9)	InChI=1S/C6H6N2O/c1-2-8-6(9)4-3-5-7/h2H2,1H3,(H,8,9)
