20
gdb 83298	2.44703	1.81806	1.43565	3.7223	78.38	-0.227	0.0366	0.2636	1005.1043	0.174436	-403.205168	-403.197452	-403.196508	-403.237206	30.363	
C	-0.0390791543	 1.389321138	-0.1270873225	-0.350648
N	-0.0084013864	-0.0257331	 0.1569229667	-0.051221
C	-1.1724327323	-0.9152777695	 0.0443556863	-0.003931
C	-1.2260616798	-1.4680614715	-1.4057753624	-0.216776
C	 0.0415776212	-2.3812069529	-1.447498183	-0.218081
C	 0.6317443629	-2.2310246069	-0.008476104	-0.134307
C	-0.6558224761	-2.1331170135	 0.8322608335	-0.227134
C	 1.1405098086	-0.784788072	 0.0583550699	 0.407525
O	 2.2758949008	-0.3677846914	-0.0314334658	-0.408404
H	 0.9894034528	 1.7534981349	-0.0880360789	 0.163448
H	-0.449087034	 1.6014541498	-1.1246492093	 0.117838
H	-0.6410101691	 1.9269123038	 0.6138109593	 0.1225
H	-2.0832302981	-0.4344676074	 0.4036152021	 0.073182
H	-2.1450806923	-2.036118548	-1.5772241482	 0.102761
H	-1.1940317175	-0.6626860606	-2.1440336199	 0.106498
H	-0.2244268565	-3.4250938006	-1.6350658465	 0.104198
H	 0.7598526244	-2.0805917791	-2.213479343	 0.119723
H	 1.3842306167	-2.9677008769	 0.2643347708	 0.08419
H	-0.4790917559	-1.9086416042	 1.8864665934	 0.109341
H	-1.3029405251	-3.0099149621	 0.7403506915	 0.099297
129.331	152.1106	164.4204	246.7204	285.6505	421.1229	442.641	478.2504	581.7479	678.7405	715.2309	802.0425	821.5182	833.7491	870.6518	887.7385	928.8129	950.6321	955.235	974.9291	1034.617	1052.3528	1085.4983	1145.2583	1155.6773	1163.4406	1188.7954	1207.1372	1245.7706	1262.3134	1284.4541	1290.8792	1303.8708	1326.8199	1338.2546	1416.6417	1452.0721	1486.4805	1490.3741	1494.0251	1512.7148	1516.3163	1818.8187	3003.6943	3055.0168	3060.8889	3064.6045	3066.2562	3096.025	3108.2094	3115.5445	3121.0115	3137.8491	3145.4022
CN1C2CCC(C2)C1=O	CN1[C@H]2CC[C@H](C2)C1=O	
InChI=1S/C7H11NO/c1-8-6-3-2-5(4-6)7(8)9/h5-6H,2-4H2,1H3	InChI=1S/C7H11NO/c1-8-6-3-2-5(4-6)7(8)9/h5-6H,2-4H2,1H3/t5-,6+/m1/s1
