18
gdb 53834	4.11907	0.89572	0.76779	1.656	74.88	-0.2394	-0.0588	0.1806	1466.1371	0.146743	-435.249066	-435.239699	-435.238755	-435.284087	34.09	
N	-0.2177818508	 1.3286245414	 0.0499122273	-0.511072
C	 0.0154774269	-0.0110683868	 0.0651573625	 0.270638
N	 1.2000445591	-0.5012467192	 0.0654060072	-0.517238
C	-1.288892243	-0.8120789361	 0.0819799368	 0.348706
O	-2.3468648701	-0.2467778512	-0.0703459827	-0.302295
C	-1.1856970906	-2.3225896355	 0.2506362086	-0.288077
N	-2.4835457459	-2.9239190162	 0.4539651637	-0.050036
C	-3.26733338	-3.2042404902	-0.7420772516	-0.204745
C	-2.6320579521	-4.3119804017	 0.0233442296	-0.226952
H	 0.5541200946	 1.9428484677	-0.1458314974	 0.262344
H	-1.1570885897	 1.6297195786	-0.1508963686	 0.270987
H	 1.1819681377	-1.5162750129	 0.1140275575	 0.220172
H	-0.6509040842	-2.7151506723	-0.6378358874	 0.114053
H	-0.5475222066	-2.5409478576	 1.1159492728	 0.140598
H	-4.3315092247	-3.0083796994	-0.6601882444	 0.127367
H	-2.8326936358	-2.954300644	-1.7085461903	 0.111695
H	-1.7724253418	-4.8039284006	-0.4297247447	 0.110154
H	-3.223170053	-4.9436746141	 0.679477931	 0.123701
56.508	60.7736	101.1674	150.6706	263.8872	307.6261	342.7163	388.1349	401.5539	415.7572	507.6204	529.8292	614.6707	695.7455	773.2463	803.075	813.8681	847.0306	915.5846	1002.6231	1029.9789	1040.8874	1086.7219	1116.4817	1121.0207	1128.4906	1158.1399	1170.5758	1183.3679	1265.8327	1335.311	1367.8093	1431.18	1463.5861	1493.4709	1522.0519	1589.7553	1713.3996	1799.8039	2905.052	3049.4974	3095.4915	3103.0616	3183.8963	3199.4124	3527.9876	3602.981	3735.3914
NC(=N)C(=O)CN1CC1	NC(=N)C(=O)CN1CC1	
InChI=1S/C5H9N3O/c6-5(7)4(9)3-8-1-2-8/h1-3H2,(H3,6,7)	InChI=1S/C5H9N3O/c6-5(7)4(9)3-8-1-2-8/h1-3H2,(H3,6,7)
