21
gdb 63070	3.1319	1.39729	1.33101	1.3212	81.59	-0.2306	0.0854	0.316	1089.672	0.182883	-387.054408	-387.046234	-387.04529	-387.086436	33.26	
C	-0.0551468758	 1.5708394715	-0.0143905635	-0.480161
C	 0.0286644233	 0.0543256395	 0.0189034789	 0.289434
C	-1.2057851674	-0.6264893814	-0.555679692	-0.450146
C	 1.3260601823	-0.665129295	-0.2697166023	 0.045084
O	 2.5342685638	 0.0522603843	-0.1371060366	-0.266259
C	 2.9336750544	 0.1021632958	 1.2178062947	 0.098912
C	 2.2798177551	 1.0999610671	 2.1364917798	-0.33213
C	 1.7744224139	-0.3311391319	 2.0771352989	-0.081364
C	 0.708904557	-0.7911780773	 1.1064529205	-0.130111
H	 0.9301601617	 2.0277429187	-0.1141187624	 0.140946
H	-0.6418139085	 1.8797308572	-0.8865909687	 0.10924
H	-0.5499016422	 1.9821173556	 0.8718241569	 0.117977
H	-1.3938227351	-0.2877790451	-1.5809552295	 0.116618
H	-1.0970565293	-1.7156653962	-0.5781859844	 0.111894
H	-2.0948080512	-0.3944001846	 0.0422336593	 0.118453
H	 1.3756388056	-1.4575853552	-1.0128222752	 0.087336
H	 3.9654795539	-0.1981886916	 1.3717075182	 0.096104
H	 2.8445783153	 1.361032891	 3.026635534	 0.109566
H	 1.6923657061	 1.909906365	 1.7338194469	 0.123729
H	 1.9204183503	-0.9585515759	 2.94857198	 0.090222
H	 0.1802022368	-1.6922257314	 1.3970085565	 0.084659
149.723	189.2558	214.1295	260.1683	273.5906	299.9901	372.1858	416.3816	499.0914	557.4563	662.5712	704.3562	743.5236	772.6128	793.8309	834.9392	859.7131	915.6775	969.7338	977.7682	981.3979	1006.166	1031.4753	1052.6322	1067.5956	1069.6196	1093.497	1097.7415	1114.7865	1149.8727	1160.0369	1209.7491	1219.0788	1297.4103	1319.7682	1341.0631	1379.6651	1400.1225	1405.0881	1427.3813	1475.6335	1490.1927	1493.7406	1507.4468	1523.5303	3021.1462	3033.81	3084.475	3087.1051	3095.8235	3128.7375	3134.7114	3142.914	3154.7643	3161.489	3179.7724	3270.4212
CC1(C)C2OC3CC3C12	CC1(C)[C@H]2O[C@H]3C[C@H]3[C@@H]12	
InChI=1S/C8H12O/c1-8(2)6-4-3-5(4)9-7(6)8/h4-7H,3H2,1-2H3	InChI=1S/C8H12O/c1-8(2)6-4-3-5(4)9-7(6)8/h4-7H,3H2,1-2H3/t4-,5+,6-,7+/m1/s1
