23
gdb 77583	2.55864	1.39845	1.19301	0.3853	90.39	-0.2349	0.0891	0.324	1199.6859	0.204986	-351.122689	-351.113492	-351.112548	-351.155882	36.478	
C	-0.1528221012	 1.5528419324	-0.0365432543	-0.413106
C	 0.0341033086	 0.0414917502	 0.0210492432	-0.123531
C	 1.0603645562	-0.630975227	-0.9208947974	 0.365778
C	 0.7101461929	-1.2054807884	-2.2641086467	-0.497504
C	 2.4659241824	-0.2452266961	-0.5388055589	-0.337854
C	 1.7511168617	-1.2878798218	 0.281794726	-0.195587
C	 0.778757579	-0.6032283073	 1.2185717234	 0.400646
C	 1.0695399459	-0.008257233	 2.5672869521	-0.325672
C	 0.1420327236	-1.1988352154	 2.434906356	-0.345442
H	 0.7978689467	 2.0837418988	 0.0718661959	 0.115629
H	-0.6003014806	 1.8556158648	-0.9897417901	 0.112213
H	-0.8186023085	 1.8995723982	 0.7622406398	 0.110767
H	-0.9389122486	-0.4495454046	-0.1047864731	 0.068324
H	 0.511749407	-0.4146503369	-2.9984791831	 0.117308
H	 1.5263396031	-1.819789098	-2.6590554537	 0.115164
H	-0.1854376333	-1.8354816225	-2.2078116264	 0.114045
H	 3.2355463885	-0.6225012286	-1.2061262726	 0.103304
H	 2.6964644871	 0.7245043139	-0.1045363061	 0.104401
H	 2.1189554869	-2.3030666465	 0.3849238134	 0.080101
H	 2.0524462468	-0.1686269039	 2.9991481299	 0.108673
H	 0.6275435645	 0.952797006	 2.8113600991	 0.107637
H	-0.9210625701	-1.0392513514	 2.5898508484	 0.106456
H	 0.4992858615	-2.1641818728	 2.7805548753	 0.10825
100.1055	193.3771	202.6847	211.97	219.7397	230.672	273.9449	336.501	411.0341	474.241	505.622	556.0303	668.0068	720.8955	774.1752	803.3423	852.8646	886.8301	913.9962	920.4761	957.5937	973.6161	980.1002	1013.1633	1044.3631	1052.1329	1065.7588	1073.426	1081.2122	1110.2454	1120.1039	1141.3947	1186.637	1203.3943	1227.6411	1255.8557	1290.291	1345.8619	1395.2978	1401.9768	1408.6714	1423.9141	1464.1387	1485.9858	1490.8757	1494.2716	1497.4042	1500.8249	1508.8998	3015.4245	3022.8542	3028.705	3072.0737	3087.2844	3090.7408	3103.5559	3107.7858	3115.8301	3122.6314	3165.652	3191.2071	3193.4323	3209.8822
CC1C2(C)CC2C11CC1	C[C@H]1[C@@]2(C)C[C@H]2C21CC2	
InChI=1S/C9H14/c1-6-8(2)5-7(8)9(6)3-4-9/h6-7H,3-5H2,1-2H3	InChI=1S/C9H14/c1-6-8(2)5-7(8)9(6)3-4-9/h6-7H,3-5H2,1-2H3/t6-,7+,8+/m0/s1
