20
gdb 99083	4.0981	0.7347	0.72747	5.2831	78.07	-0.2391	-0.0261	0.213	1658.8382	0.16791	-440.331471	-440.320726	-440.319782	-440.369032	36.546	
C	 0.0828660914	 1.5535649555	 0.1912127166	-0.3766
C	 0.1911059972	 0.0400295036	 0.0214027008	-0.280903
C	 0.822340505	-0.3784162311	-1.29782745	 0.375811
O	 1.3083671106	 0.4084155792	-2.0732475691	-0.283627
C	 0.8030806918	-1.8895439765	-1.5928714892	-0.302207
N	 1.5579220191	-2.2767862089	-2.7536056817	-0.006791
C	 3.0100029488	-2.2160079194	-2.696617301	-0.35244
C	 0.9333434585	-2.6109755486	-3.921339113	 0.162494
O	 1.4852922246	-2.9107906933	-4.9567660993	-0.337269
H	 1.0663322741	 2.0232060393	 0.1162609671	 0.137778
H	-0.5461723124	 1.9902153583	-0.5888882416	 0.133373
H	-0.3499789787	 1.802557733	 1.1636996374	 0.114953
H	 0.7944057682	-0.4043382302	 0.8263405458	 0.128163
H	-0.7911348149	-0.4453818778	 0.1053087784	 0.121719
H	 1.1550292043	-2.4296140251	-0.7017200661	 0.125028
H	-0.2455477855	-2.1840326231	-1.7297764862	 0.139825
H	 3.3867879152	-2.8476371215	-1.8829950433	 0.116649
H	 3.39099592	-2.5843895748	-3.6489428977	 0.169729
H	 3.350061325	-1.1879786735	-2.5416843527	 0.147219
H	-0.1698754421	-2.5920505551	-3.8120058853	 0.067096
38.2573	47.58	55.4978	120.3777	150.5403	194.0916	221.0715	288.6316	311.0042	347.6467	372.7096	385.5792	463.1036	638.9368	718.5624	741.447	830.4522	880.4219	916.0728	991.4527	1025.0124	1031.701	1094.948	1104.8339	1130.592	1157.3324	1222.8955	1285.6905	1293.1861	1360.6611	1381.6705	1415.9934	1422.5192	1440.0167	1442.92	1449.3005	1462.5047	1493.5363	1495.6882	1498.5559	1521.7195	1803.3545	1822.7112	2925.4944	3001.7969	3015.8499	3028.1402	3039.2232	3054.2041	3055.2547	3095.7547	3125.0675	3132.1379	3160.4191
CCC(=O)CN(C)C=O	CCC(=O)CN(C)C=O	
InChI=1S/C6H11NO2/c1-3-6(9)4-7(2)5-8/h5H,3-4H2,1-2H3	InChI=1S/C6H11NO2/c1-3-6(9)4-7(2)5-8/h5H,3-4H2,1-2H3
