18
gdb 54759	2.65855	1.45286	1.17308	3.6076	72.98	-0.2422	-0.0191	0.2231	1101.912	0.146002	-439.020345	-439.011622	-439.010677	-439.054049	32.517	
C	-0.1132869341	 1.5411294779	-0.1480298332	-0.48851
C	 0.0685756536	 0.054562877	 0.0994277322	 0.351771
O	 1.1552659817	-0.4541085278	 0.252110946	-0.294721
C	-1.2313048297	-0.7241709165	 0.1537102918	-0.080848
N	-1.2004171817	-2.2389990304	 0.4130917748	-0.139271
C	-0.9102397686	-1.887366034	 1.8859046353	-0.244716
C	-2.0088419545	-0.870722423	 1.4854901338	 0.327247
O	-2.5478242376	 0.2042968783	 2.170390683	-0.464368
C	-2.6840592495	-2.0772051926	 0.7895065265	-0.230903
H	 0.8506504132	 2.0469988426	-0.083765708	 0.142146
H	-0.551064474	 1.7123667695	-1.1382519606	 0.140776
H	-0.8116848833	 1.9576429203	 0.5868330976	 0.157783
H	-1.8521536883	-0.4625229913	-0.71101533	 0.088502
H	-1.1935116225	-2.687115992	 2.574993746	 0.098226
H	 0.1059165986	-1.5399632446	 2.0568929549	 0.140057
H	-2.8920260862	-0.1019203858	 3.0169915211	 0.287607
H	-3.3387783565	-1.8853262111	-0.0640936216	 0.106941
H	-3.0539171505	-2.8943704266	 1.4139595403	 0.102282
55.524	126.497	145.474	193.0407	219.6868	331.6083	347.0728	377.5275	477.9473	565.1557	583.052	637.2646	650.1708	782.9037	812.3018	866.4294	899.8765	952.7431	964.3597	985.2313	1020.911	1036.4324	1076.4933	1098.0622	1109.0353	1163.6103	1173.691	1188.3149	1209.8537	1244.0519	1288.9202	1340.26	1379.0125	1404.534	1465.4154	1475.8153	1510.1773	1551.2208	1810.048	3033.4286	3045.0109	3056.5436	3073.7434	3096.9956	3128.0935	3153.4684	3175.6876	3804.9602
CC(=O)C1N2CC1(O)C2	CC(=O)[C@H]1N2C[C@]1(O)C2	
InChI=1S/C6H9NO2/c1-4(8)5-6(9)2-7(5)3-6/h5,9H,2-3H2,1H3	InChI=1S/C6H9NO2/c1-4(8)5-6(9)2-7(5)3-6/h5,9H,2-3H2,1H3/t5-/m1/s1
