14
gdb 17032	4.48383	1.58956	1.3452	1.2547	63.54	-0.2584	0.0285	0.2868	891.4301	0.106028	-382.427228	-382.420443	-382.419498	-382.458042	26.616	
O	 0.0735233421	 1.5111210472	-0.0229286619	-0.441612
C	 0.085436423	 0.1284771861	-0.04960111	 0.178312
C	 0.0150131407	-0.6341778774	 1.3081772156	-0.011161
O	-1.3806888258	-0.1408820079	 1.4493115993	-0.338524
C	-1.2781718017	-0.6209648053	 0.045654436	-0.011165
C	-0.5486279681	-1.8896012312	 0.5787421747	-0.171118
C	 0.283143349	-2.7015678087	-0.2817393252	 0.295503
C	 0.9692413369	-3.3880935611	-0.9915670337	-0.438217
H	-0.581091312	 1.7492073573	 0.650076602	 0.289325
H	 0.8064970826	-0.2135592167	-0.7917539531	 0.111326
H	 0.6577783096	-0.5858582869	 2.1871366291	 0.107488
H	-2.1717115376	-0.5569486456	-0.5752643738	 0.107488
H	-1.1935647394	-2.4787614698	 1.2331784845	 0.120619
H	 1.5758772706	-3.9936836401	-1.6187760036	 0.201736
135.7816	163.2766	291.4266	358.2952	414.8108	497.3798	545.2382	587.2432	640.0955	654.8009	685.4065	750.3431	809.3837	860.0349	886.0034	904.0531	919.2652	1035.7272	1051.8499	1117.3752	1130.7166	1158.3651	1179.8725	1191.6153	1234.7106	1255.1641	1321.4337	1348.271	1454.6872	2235.1995	3101.8471	3123.1123	3125.6444	3135.8433	3501.1985	3735.301
OC1C2OC1C2C#C	O[C@H]1[C@H]2O[C@@H]1[C@H]2C#C	
InChI=1S/C6H6O2/c1-2-3-5-4(7)6(3)8-5/h1,3-7H	InChI=1S/C6H6O2/c1-2-3-5-4(7)6(3)8-5/h1,3-7H/t3-,4-,5-,6+
