20
gdb 120527	5.00636	0.65081	0.62933	3.5525	80.24	-0.2727	0.0326	0.3053	1766.9228	0.170763	-403.150165	-403.140542	-403.139598	-403.18574	34.455	
O	-0.141195607	 1.5608078327	 0.0705279164	-0.418875
C	 0.005087903	 0.1500342825	 0.0510283865	-0.072682
C	-1.3842540376	-0.4603307334	-0.0942701002	-0.201361
C	-1.3699165445	-1.9811585983	-0.1116679616	 0.045778
C	-1.0497488921	-2.7525004229	 1.2018317742	-0.240124
C	-2.1837482738	-3.7737341506	 0.8520814752	-0.163317
C	-2.7290356241	-2.7302314002	-0.1802839158	-0.254991
C	-1.6971609847	-5.002207457	 0.2428660964	 0.271869
N	-1.3035378395	-5.9728606415	-0.2479185722	-0.328977
H	 0.7317438689	 1.9541692067	 0.1590940716	 0.287323
H	 0.641111077	-0.1758795014	-0.7883757045	 0.08835
H	 0.4788841014	-0.2147275458	 0.9773142692	 0.088253
H	-2.0120693115	-0.1006384682	 0.7311800872	 0.101781
H	-1.8351309633	-0.0800692336	-1.01931016	 0.110875
H	-0.7153525716	-2.3409948508	-0.9139464902	 0.090443
H	-0.0457765589	-3.1583057418	 1.3330674957	 0.123463
H	-1.3218996888	-2.175659608	 2.0904794605	 0.112191
H	-2.860028494	-4.033728843	 1.6696951332	 0.122302
H	-3.5396576377	-2.146431432	 0.2645055199	 0.112896
H	-3.0547077114	-3.1148414834	-1.1476469816	 0.124803
44.6114	82.5399	98.5648	134.1773	203.5844	232.0935	268.2357	334.6487	369.4744	443.0686	504.3882	568.8853	715.2113	785.309	797.4807	820.7135	887.8325	932.6888	959.6536	984.7932	1011.1894	1043.0432	1077.0008	1106.7227	1120.2637	1150.1036	1182.8631	1199.2426	1242.3642	1255.5431	1256.8328	1278.2272	1291.183	1316.0082	1332.0507	1346.4903	1394.9969	1463.9978	1473.0166	1488.7311	1497.9059	1527.7288	2350.606	2958.7125	2983.9894	3023.8605	3039.072	3062.3084	3066.1891	3070.5152	3085.0467	3129.4702	3132.1865	3830.762
OCCC1CC(C1)C#N	OCC[C@H]1C[C@@H](C1)C#N	
InChI=1S/C7H11NO/c8-5-7-3-6(4-7)1-2-9/h6-7,9H,1-4H2	InChI=1S/C7H11NO/c8-5-7-3-6(4-7)1-2-9/h6-7,9H,1-4H2/t6-,7-
