18
gdb 31764	5.32892	1.04929	0.89633	2.1917	81.87	-0.1849	0.0462	0.2312	1296.7943	0.148932	-401.935095	-401.927028	-401.926084	-401.967936	30.289	
C	 0.0762264272	 1.3690989562	-0.1747024118	-0.238574
O	 0.0360585302	-0.0379451958	-0.0657010745	-0.258691
C	 0.5509811796	-0.5514333035	 1.0814772867	 0.368158
C	 1.1707791815	 0.1232019853	 2.1290188441	-0.289506
N	 1.623419185	-0.8748268492	 2.9667264174	 0.000981
C	 1.8128262881	-1.3190344007	 4.3618386178	-0.170392
C	 1.5157209031	-2.7777553702	 3.8486055063	-0.360163
C	 1.2207851653	-2.1001016394	 2.5220055699	 0.335973
C	 0.5438211429	-1.9637369608	 1.3352399163	-0.447245
H	 1.1104064357	 1.741461075	-0.1713663632	 0.115223
H	-0.3966035157	 1.6267914209	-1.1241905799	 0.128137
H	-0.4722829777	 1.8492030038	 0.6478862501	 0.115368
H	 1.412026166	 1.1631888305	 2.2619680962	 0.1134
H	 2.8104159943	-1.1197245445	 4.7637800139	 0.118327
H	 1.0536685083	-0.9343206666	 5.0497712419	 0.125011
H	 2.3708582244	-3.4588099799	 3.8696024085	 0.120635
H	 0.6655006605	-3.259517626	 4.3376278331	 0.124325
H	 0.1009441714	-2.7150857949	 0.7023209374	 0.099033
80.5613	112.1028	208.4031	217.0001	229.74	327.803	398.1274	508.388	607.8832	625.6485	640.6108	686.2027	764.074	799.8759	819.9877	825.5144	921.8527	994.8878	1051.5943	1065.4063	1075.6727	1134.1963	1164.949	1178.881	1181.6003	1187.8364	1224.1012	1239.2583	1275.3067	1359.7909	1409.606	1425.6542	1466.3217	1482.7276	1487.6393	1509.1217	1511.2355	1545.7884	1607.6749	2990.8013	3043.3565	3046.165	3061.0173	3093.7471	3111.6736	3128.2593	3266.482	3279.2081
COC1=CN2CCC2=C1	COc1cn2CCc2c1	
InChI=1S/C7H9NO/c1-9-7-4-6-2-3-8(6)5-7/h4-5H,2-3H2,1H3	InChI=1S/C7H9NO/c1-9-7-4-6-2-3-8(6)5-7/h4-5H,2-3H2,1H3
