15
gdb 42861	2.54529	1.82775	1.57798	1.7761	71.62	-0.2243	-0.0694	0.1548	902.749	0.1139	-420.618369	-420.611572	-420.610628	-420.649499	26.752	
O	 0.0018074776	-0.0137922866	 0.0270098418	-0.288666
C	-0.0144303583	 1.1763615763	 0.0032331463	 0.391473
C	-1.0841432283	 2.2814885678	 0.0687663447	-0.079195
O	-0.0342992631	 3.1752763202	 0.5389760698	-0.283777
C	 1.0266435218	 2.3097519317	 0.041606431	-0.079194
C	 1.4978647894	 2.7240729907	-1.3357710788	-0.075854
C	 0.6657686477	 3.0564848638	-2.3330541622	-0.072245
C	-0.8046290139	 3.036830023	-2.3141201333	-0.072243
C	-1.6015889349	 2.6826110276	-1.2958676976	-0.075854
H	-1.8834114046	 2.1680811238	 0.8061182337	 0.106303
H	 1.8473778874	 2.2180502727	 0.7581004768	 0.106303
H	 2.5702861974	 2.7698290293	-1.4959541082	 0.107801
H	 1.109090995	 3.3687357977	-3.274600273	 0.103674
H	-1.280231813	 3.3368260857	-3.243823696	 0.103674
H	-2.6786194802	 2.6996522663	-1.4283595649	 0.107801
125.7724	169.2245	275.6857	400.8309	412.8858	420.9219	509.8063	602.8339	657.7708	711.5259	783.1732	797.7658	860.0152	867.6858	898.1361	909.9992	974.7106	977.1306	988.3093	995.2596	1059.9998	1078.0502	1171.0288	1225.2872	1241.2085	1266.2384	1294.6278	1341.2693	1397.1832	1435.0194	1662.3796	1697.4926	1925.8447	3080.512	3083.8619	3155.7692	3167.2476	3184.1775	3189.7222
O=C1C2OC1C=CC=C2	O=C1[C@H]2O[C@@H]1C=CC=C2	
InChI=1S/C7H6O2/c8-7-5-3-1-2-4-6(7)9-5/h1-6H	InChI=1S/C7H6O2/c8-7-5-3-1-2-4-6(7)9-5/h1-6H/t5-,6+
