21
gdb 86550	3.95252	0.9447	0.93438	2.6442	78.71	-0.2374	0.0617	0.2991	1354.9242	0.180699	-424.191823	-424.18221	-424.181266	-424.226477	36.361	
O	 0.7689536401	 0.5073070652	-0.6463585263	-0.43734
C	-0.002127384	-0.3405338111	 0.1684242107	 0.180604
C	-0.0214092788	-0.118997713	 1.7059476722	-0.277262
C	-1.5527524469	-0.4219814111	 1.699916046	-0.036636
C	-1.5509857544	-0.2214320936	 0.1518137038	-0.277265
C	-1.936577211	-1.802818451	 2.1686933162	 0.439473
O	-1.1809498759	-2.7768903155	 1.4891144045	-0.472742
C	-2.3012557224	-2.0235022693	 3.6125305523	-0.334604
C	-3.3691024073	-2.0949868572	 2.5276631822	-0.334621
H	 0.5136663074	 1.4161901727	-0.4550999835	 0.271578
H	 0.3129348636	-1.3562857232	-0.0747127031	 0.108479
H	 0.6183239441	-0.7589623565	 2.316891687	 0.106631
H	 0.1789300578	 0.928382336	 1.9572394822	 0.081751
H	-2.1612819942	 0.298629853	 2.2513387646	 0.065773
H	-1.8669490281	 0.7913681466	-0.1214806859	 0.08175
H	-2.1068447355	-0.9414708735	-0.4520322731	 0.10663
H	-1.4384600519	-3.6495088685	 1.7998331691	 0.281766
H	-1.9930546976	-2.9569099545	 4.0742957699	 0.106289
H	-2.3043226646	-1.177116477	 4.2913578374	 0.116729
H	-4.10203093	-1.2974469283	 2.4649662662	 0.11673
H	-3.7629166605	-3.0753819602	 2.2762617474	 0.106286
61.2164	91.2303	107.6326	175.99	233.5984	279.1658	290.4361	346.408	408.0763	419.7317	457.9272	538.4288	669.8829	701.0634	762.8509	801.4891	861.6611	876.4868	915.2547	943.7566	948.5731	976.6298	995.8847	1005.9779	1044.0648	1054.702	1063.7856	1088.7646	1116.9613	1144.5911	1183.4243	1188.5646	1199.4086	1252.055	1267.3422	1286.3482	1288.0621	1331.981	1356.1223	1429.1726	1449.0472	1459.9172	1462.453	1486.5536	1503.8161	3040.7166	3044.1646	3074.3651	3103.0124	3114.0376	3119.9853	3123.5511	3124.601	3199.2242	3214.1507	3798.8226	3834.4507
OC1CC(C1)C1(O)CC1	O[C@H]1C[C@@H](C1)C1(O)CC1	
InChI=1S/C7H12O2/c8-6-3-5(4-6)7(9)1-2-7/h5-6,8-9H,1-4H2	InChI=1S/C7H12O2/c8-6-3-5(4-6)7(9)1-2-7/h5-6,8-9H,1-4H2/t5-,6-
