16
gdb 23601	3.91188	1.22791	1.16386	2.07	71.96	-0.2421	0.0033	0.2454	1073.2548	0.123648	-437.772727	-437.765419	-437.764474	-437.804584	28.737	
O	-0.143874202	 1.3339003579	-0.0312127685	-0.389995
N	 0.023429945	-0.0621338087	 0.0031938955	-0.250092
C	-1.0940839111	-0.6534801451	-0.0461344179	 0.459501
C	-2.5582291747	-0.2364360652	-0.0591554856	-0.342492
C	-2.934438716	-1.7493849949	 0.0454458639	-0.067428
C	-3.0954662067	-2.5188162661	-1.2906255205	 0.016157
O	-2.2128120622	-1.9250856509	-2.2484793406	-0.233598
C	-1.6637138553	-2.8649213903	-1.3218540352	 0.027709
C	-1.4073830591	-2.1348322498	 0.0291989394	-0.183191
H	 0.7653757385	 1.648098124	 0.0167504633	 0.306479
H	-2.8410203581	 0.3598404379	 0.8134111852	 0.124811
H	-2.8854304276	 0.2784255901	-0.9647984484	 0.137377
H	-3.5808732233	-2.0682608568	 0.8607409584	 0.084167
H	-3.9672506175	-3.0333838955	-1.6790176274	 0.107045
H	-1.1308376863	-3.7125269032	-1.7373278007	 0.111758
H	-0.9454019635	-2.7389691136	 0.8095866392	 0.091791
82.1381	194.0158	222.0159	310.5512	355.269	422.0016	473.9198	502.2212	639.9499	707.0974	740.1032	800.5156	806.5269	833.8303	877.7725	894.5008	929.7792	965.9599	985.3214	1002.9789	1018.5053	1057.0147	1088.1115	1124.7165	1155.1424	1199.4093	1219.6996	1231.1254	1246.0891	1266.0984	1290.1951	1379.4552	1404.1977	1443.8427	1780.9068	3062.9008	3118.817	3122.0663	3137.8249	3174.884	3190.2839	3817.5945
ON=C1CC2C3OC3C12	ON=C1C[C@H]2[C@H]3O[C@H]3[C@@H]12	
InChI=1S/C6H7NO2/c8-7-3-1-2-4(3)6-5(2)9-6/h2,4-6,8H,1H2	InChI=1S/C6H7NO2/c8-7-3-1-2-4(3)6-5(2)9-6/h2,4-6,8H,1H2/t2-,4-,5-,6+/m1/s1
