17
gdb 8557	2.97022	2.64941	1.71861	1.1978	67.76	-0.2184	0.0654	0.2838	795.8652	0.142244	-363.782144	-363.775048	-363.774104	-363.812836	28.26	
C	-0.049279951	 1.4699603481	 0.0818181005	-0.505335
C	 0.0549545694	-0.0231155337	 0.0135633897	 0.283036
C	 0.8838591428	-0.9022197736	-0.9053511269	-0.222468
N	 0.0338130279	-2.0913621721	-0.4897298974	-0.165751
C	 0.4394594726	-2.2529554605	 0.9653959996	-0.236295
C	-0.2323568465	-0.9198348098	 1.2382527306	 0.320058
O	-0.5594407838	-0.3184511449	 2.4346845878	-0.458161
C	-1.0340657267	-1.0745176995	-0.0299296375	-0.171002
H	 0.9034713738	 1.9147704286	 0.391579716	 0.123196
H	-0.3177376497	 1.895458912	-0.8913219393	 0.117184
H	-0.8046784761	 1.7735574903	 0.8119310082	 0.13232
H	 0.7152836436	-0.6884779633	-1.9652486243	 0.10459
H	 1.9584896434	-1.0231784747	-0.7218349625	 0.093989
H	-0.101977107	-3.100148167	 1.3991318891	 0.098243
H	 1.5154563817	-2.375938103	 1.1339999281	 0.099475
H	-1.2084615827	-0.8692655899	 2.8863101133	 0.289539
H	-2.0823677515	-1.085825517	-0.294040125	 0.097381
175.2214	217.2097	232.1818	304.0933	365.0196	398.4048	465.3789	482.0239	613.1371	650.7006	709.1804	786.8638	843.165	846.3901	904.2996	916.7687	946.612	990.5782	1035.3013	1070.4584	1106.2763	1131.7744	1134.4741	1158.2924	1180.576	1238.8761	1248.3896	1287.0548	1296.8269	1371.3111	1418.772	1440.3079	1487.329	1496.8839	1502.2935	1525.1806	3022.3429	3028.1624	3033.5384	3082.9649	3085.8695	3086.9516	3112.9617	3212.4927	3794.9501
CC12CN3CC1(O)C23	C[C@@]12CN3C[C@]1(O)[C@@H]23	
InChI=1S/C6H9NO/c1-5-2-7-3-6(5,8)4(5)7/h4,8H,2-3H2,1H3	InChI=1S/C6H9NO/c1-5-2-7-3-6(5,8)4(5)7/h4,8H,2-3H2,1H3/t4-,5+,6+/m1/s1
