12
gdb 131642	2.24163	1.76555	0.99682	2.7556	64.11	-0.2968	-0.0919	0.2049	1066.2701	0.076898	-468.777101	-468.769256	-468.768312	-468.810566	27.153	
O	 0.4794765586	 0.705161246	 0.80823684	-0.39452
C	-0.0627104686	 0.1207670265	-0.3527173599	-0.189935
C	-1.3913425379	-0.5290513902	-0.1050408829	 0.128204
C	-2.1280488977	-0.67486831	 1.0353817796	 0.271778
O	-3.2549674633	-1.345602115	 0.7318334996	-0.205093
N	-3.1923967551	-1.616051434	-0.6485919146	 0.010518
N	-2.1189079142	-1.1368071888	-1.1020483659	-0.155013
C	-1.9332025202	-0.2551336023	 2.3703922244	 0.26185
N	-1.796787078	 0.0993635368	 3.4632982487	-0.325641
H	 0.0155165825	 1.52794977	 0.9951246055	 0.302658
H	-0.1615175562	 0.8326803138	-1.1850355888	 0.1368
H	 0.6494000201	-0.6447092128	-0.6814336658	 0.158394
38.6567	129.3104	176.2101	219.0696	249.0361	338.1587	416.1376	494.2988	530.3766	617.2306	688.3837	698.5268	729.0651	778.4094	983.996	1020.066	1097.9449	1182.9201	1192.4298	1206.9314	1340.7994	1392.6063	1409.8539	1451.9859	1485.5358	1631.6745	2359.0308	3006.5068	3068.2761	3820.8649
OCC1=C(ON=N1)C#N	OCc1c(onn1)C#N	
InChI=1S/C4H3N3O2/c5-1-4-3(2-8)6-7-9-4/h8H,2H2	InChI=1S/C4H3N3O2/c5-1-4-3(2-8)6-7-9-4/h8H,2H2
