12
gdb 123366	4.22682	1.04576	0.93812	1.2788	63.26	-0.2721	-0.0748	0.1973	1186.1991	0.074697	-468.681638	-468.673741	-468.672797	-468.715696	27.488	
C	-0.5789966559	-0.599778496	-1.0137287553	-0.456563
C	-0.1634574028	 0.2902383869	-0.3226334815	 0.328178
C	 0.3441449414	 1.3777768598	 0.5109440773	-0.316569
N	 0.4468754251	 2.6496355313	-0.2186541828	-0.343125
C	 1.4166931093	 2.8181761828	-0.9807300342	 0.592209
O	 2.4738518153	 1.9846802447	-1.2686051469	-0.225729
N	 3.2940335295	 2.6673197929	-2.1693022082	 0.065109
N	 2.8102404491	 3.7741611858	-2.4184074458	 0.07538
O	 1.6263090221	 3.9555363639	-1.7202355983	-0.222215
H	-0.9476764297	-1.3885966562	-1.6216587679	 0.206487
H	-0.339982992	 1.5448233596	 1.3484968612	 0.152208
H	 1.3126155885	 1.0859410145	 0.9412676524	 0.144632
23.1128	97.3677	174.8854	194.8045	287.1275	320.5082	438.3119	607.4202	620.7007	636.3308	668.9247	711.5111	719.249	757.9131	909.2849	941.2561	973.3925	1010.0882	1046.8898	1096.7787	1184.1257	1274.756	1362.47	1487.8086	1571.4011	1841.8266	2242.3165	3007.9446	3073.819	3505.744
C#CCN=C1ON=NO1	C#CCN=c1onno1	
InChI=1S/C4H3N3O2/c1-2-3-5-4-8-6-7-9-4/h1H,3H2	InChI=1S/C4H3N3O2/c1-2-3-5-4-8-6-7-9-4/h1H,3H2
