18
gdb 96897	2.73372	1.30976	1.05932	1.9873	76.74	-0.245	0.0236	0.2685	1206.2935	0.14476	-439.052651	-439.043128	-439.042184	-439.086899	34.518	
C	 0.0202599201	 1.4291772873	-0.112703737	-0.340269
N	-0.0931890813	-0.0227997789	-0.1226110059	-0.35754
C	 0.5413037549	-0.6787556246	-0.9736995227	 0.419067
O	 1.3952253642	-0.2609305114	-2.0070575836	-0.319685
C	 1.4674352555	-1.6301349581	-2.515807795	 0.404586
C	 1.3979890457	-1.8254657463	-3.9903253638	-0.489164
C	 2.1501203602	-2.4641353376	-1.4755956774	-0.394043
C	 0.6550567201	-2.1264187604	-1.3443899382	 0.167261
O	-0.3394736554	-3.0703775737	-1.3086414413	-0.440729
H	 0.60311679	 1.8369468972	-0.9465934154	 0.128352
H	-0.9842788532	 1.8646360792	-0.1347463599	 0.127951
H	 0.4851054024	 1.7456411582	 0.8278132779	 0.127859
H	 2.300600382	-1.4412381905	-4.4771195636	 0.13708
H	 1.311972396	-2.8906675204	-4.2215233337	 0.138177
H	 0.5310320243	-1.3059014385	-4.4083456325	 0.140675
H	 2.3167503347	-3.5009802576	-1.7543941266	 0.125733
H	 2.8918561391	-2.0236526534	-0.8163221115	 0.124455
H	-0.3768745793	-3.4406778202	-0.4193382299	 0.300231
90.9271	107.9808	163.386	169.7335	189.0899	227.4864	235.155	321.536	355.8624	431.203	479.536	566.694	602.4278	668.8854	759.9054	770.2141	846.4495	879.6233	952.2436	976.4525	1008.1901	1032.7385	1065.2073	1115.864	1130.5583	1133.1959	1185.4492	1208.5979	1289.2846	1357.8591	1415.6575	1430.988	1439.6697	1473.3258	1491.7999	1492.8152	1497.7739	1528.5787	1859.3076	3018.6685	3040.2678	3083.7751	3091.0489	3107.2413	3116.7509	3124.8584	3213.6652	3794.4162
CN=C1OC2(C)CC12O	CN=C1O[C@@]2(C)C[C@@]12O	
InChI=1S/C6H9NO2/c1-5-3-6(5,8)4(7-2)9-5/h8H,3H2,1-2H3	InChI=1S/C6H9NO2/c1-5-3-6(5,8)4(7-2)9-5/h8H,3H2,1-2H3/t5-,6+/m0/s1
