17
gdb 95127	2.45302	1.61545	1.2188	2.1369	69.41	-0.2581	-0.0463	0.2119	1051.0403	0.134504	-458.958747	-458.950506	-458.949562	-458.991681	30.432	
C	-0.2091519171	 1.4139447889	-0.2011146521	-0.417388
C	-0.0107009037	-0.0681516356	 0.0676369729	 0.077188
O	 0.6276817688	-0.661990852	-1.0689048319	-0.272222
C	 1.4367546139	-1.7509930839	-0.66141564	-0.107653
C	 1.8339649049	-1.4526832539	 0.7709912083	-0.043743
O	 2.2947731424	-0.1268474517	 0.9761063823	-0.279937
C	 0.904624577	-0.4009677641	 1.2351323714	 0.28419
C	 0.4771584771	-0.28878804	 2.6529552919	 0.083553
O	-0.6623117094	-0.0924419774	 2.9955983062	-0.257109
H	 0.7590617244	 1.9073985678	-0.3177554278	 0.135612
H	-0.7858372668	 1.5522181531	-1.1189474245	 0.130932
H	-0.754978063	 1.8755586421	 0.6264935213	 0.134076
H	-0.979743111	-0.5526785607	 0.2643454016	 0.09305
H	 0.8932127949	-2.7100317962	-0.6877485792	 0.102952
H	 2.2911464044	-1.8151863222	-1.3431140366	 0.127162
H	 2.2520684904	-2.2209029644	 1.4170784698	 0.114823
H	 1.3118984127	-0.3953749396	 3.3791327766	 0.094514
88.4807	145.908	171.0921	227.2464	247.2055	257.4938	368.5868	430.7394	477.7174	544.4003	646.7915	705.3864	772.6019	858.6302	874.9757	893.2011	959.604	985.9766	1038.5612	1054.8794	1094.1791	1111.5289	1122.3319	1144.4839	1235.1013	1255.4461	1273.5537	1335.9847	1367.6031	1381.4576	1396.3478	1406.7333	1448.8489	1489.5259	1498.1776	1504.5889	1814.5204	2905.9655	2973.8279	2991.0256	3050.6962	3075.1856	3128.8135	3133.792	3151.4137
CC1OCC2OC12C=O	C[C@H]1OC[C@H]2O[C@@]12C=O	
InChI=1S/C6H8O3/c1-4-6(3-7)5(9-6)2-8-4/h3-5H,2H2,1H3	InChI=1S/C6H8O3/c1-4-6(3-7)5(9-6)2-8-4/h3-5H,2H2,1H3/t4-,5-,6+/m1/s1
