15
gdb 81725	3.20386	1.3174	1.04079	2.0432	74.61	-0.2364	-0.0263	0.2101	1116.2407	0.110339	-420.575102	-420.566656	-420.565711	-420.608135	31.534	
O	-0.1415791103	 1.4940581093	 0.127586133	-0.427706
C	-0.0322460333	 0.0969143896	 0.0128381322	-0.006461
C	-1.3573666049	-0.6576278851	 0.050690048	-0.112286
C	-2.1837188808	-0.2734691118	-1.1154007132	-0.305102
C	-1.0648336033	-1.3040385012	-1.3558886214	 0.06536
C	-1.3162258155	-2.6109803886	-1.8484473456	 0.170633
C	-1.5046727441	-3.7212532276	-2.2720674554	-0.403512
C	 0.2360201152	-0.5383856621	-1.386749332	 0.317849
O	 1.1841444617	-0.5246803036	-2.1160139108	-0.305397
H	 0.7001235696	 1.8775469881	-0.1433481315	 0.299139
H	 0.6950476636	-0.3224157385	 0.7257575199	 0.101627
H	-1.7493532895	-1.1870002993	 0.9080236855	 0.122719
H	-3.1750544348	-0.7081754018	-1.1740308056	 0.144111
H	-2.0926202712	 0.7204784964	-1.539255883	 0.145591
H	-1.6662455324	-4.7014950237	-2.6468475101	 0.193437
87.4013	126.627	164.3525	214.7886	263.1117	296.9865	391.1855	448.9549	512.0891	560.0266	590.6306	618.4401	638.312	651.3041	772.8685	816.1538	850.5016	893.1649	967.5025	979.6096	1026.1282	1056.5825	1097.0846	1143.2702	1164.2655	1236.9653	1290.5431	1294.3335	1366.7168	1410.0407	1490.9271	1884.7408	2235.5848	2988.4549	3141.1735	3218.9153	3233.1347	3502.0445	3808.4769
OC1C2CC2(C#C)C1=O	O[C@H]1[C@H]2C[C@@]2(C#C)C1=O	
InChI=1S/C7H6O2/c1-2-7-3-4(7)5(8)6(7)9/h1,4-5,8H,3H2	InChI=1S/C7H6O2/c1-2-7-3-4(7)5(8)6(7)9/h1,4-5,8H,3H2/t4-,5+,7-/m1/s1
