20
gdb 36846	4.33929	1.03104	0.98925	1.6945	79.46	-0.2404	0.083	0.3234	1277.6094	0.1715	-403.043823	-403.035872	-403.034928	-403.077284	30.993	
C	-0.3654591907	 1.0342772899	-0.2891349408	-0.28218
C	 1.0402063977	 1.0990974411	 0.2763796968	-0.290174
C	 0.3976080466	-0.2250740921	 0.0294219265	 0.110213
O	 0.0527166377	-0.9652225418	 1.1679873103	-0.293088
C	-0.972452821	-1.8725767919	 0.9707408617	 0.389152
C	-1.058726481	-3.1019629307	 0.0267603868	-0.234635
N	-2.3749368737	-3.1697608262	 0.8154423872	-0.140986
C	-1.5162586538	-2.8187963734	 2.0457715199	-0.222613
C	-2.4601717443	-1.6524318996	 0.5911787845	-0.228198
H	-1.1765489923	 1.2982236487	 0.3798055773	 0.122004
H	-0.52673845	 1.2966652243	-1.32899958	 0.114398
H	 1.8537614359	 1.4083324185	-0.369725781	 0.116158
H	 1.141917283	 1.3976623085	 1.3133634212	 0.128203
H	 0.758792455	-0.8321845862	-0.7994733242	 0.091959
H	-1.2053069528	-2.9336806889	-1.0430915411	 0.101609
H	-0.3921159706	-3.9467152925	 0.2179811823	 0.104018
H	-0.8788741897	-3.640563327	 2.381108422	 0.105059
H	-2.0908500824	-2.3877319302	 2.8692011823	 0.104197
H	-3.105942721	-1.1423703032	 1.3106141307	 0.101657
H	-2.7027926125	-1.3792870573	-0.4382394324	 0.103249
46.9635	71.162	140.214	305.2898	344.0846	389.6868	468.9427	588.1906	593.1503	655.1282	757.7299	786.8182	791.8576	821.1152	832.7843	894.3728	945.5375	961.6053	974.3825	998.412	1004.5668	1023.0809	1032.6151	1053.9679	1074.1255	1126.9352	1153.2521	1166.2501	1173.6872	1178.7979	1188.3636	1193.5308	1195.0647	1208.3159	1234.1014	1256.258	1309.6308	1401.0265	1453.4738	1496.5765	1508.0105	1510.9193	1565.936	3053.1819	3055.0707	3065.0298	3111.3846	3122.7304	3128.6935	3129.979	3136.6851	3143.6109	3221.5122	3236.1569
C1CC1OC12CN(C1)C2	C1CC1O[C@@]12CN(C1)C2	
InChI=1S/C7H11NO/c1-2-6(1)9-7-3-8(4-7)5-7/h6H,1-5H2	InChI=1S/C7H11NO/c1-2-6(1)9-7-3-8(4-7)5-7/h6H,1-5H2
