17
gdb 39862	3.14788	1.88649	1.53251	1.0579	70.52	-0.2378	0.0673	0.3051	887.7865	0.13772	-421.750714	-421.744448	-421.743504	-421.781113	26.343	
C	 0.0428380572	 1.4409308274	-0.0178071014	-0.293026
O	 1.1747543318	 0.5453676763	 0.0076343259	-0.303895
C	-0.1324020492	-0.0030288848	 0.0173871567	 0.553535
C	-0.6008716575	-0.9105164012	 1.1492977707	-0.211136
C	 0.289053061	-2.1568235372	 0.8752028572	-0.248897
C	-0.561326088	-2.2953714633	-0.4035421623	-0.084852
C	-1.7593606854	-1.6297546146	 0.3054968767	 0.116894
O	-2.0944712158	-0.8164092137	-0.8297084084	-0.294793
C	-0.6611909476	-0.8837024558	-1.1119849537	-0.035354
H	-0.1011198053	 2.025895104	 0.8891158594	 0.118379
H	-0.0995293813	 1.9856901006	-0.9500079256	 0.12004
H	-0.7443239312	-0.4911872005	 2.1423964556	 0.076481
H	 1.3649921414	-1.9896898626	 0.7957654295	 0.121116
H	 0.0845253296	-2.97960664	 1.5653365082	 0.102813
H	-0.6325901704	-3.1892677776	-1.0195362795	 0.083036
H	-2.5930097384	-2.1171771285	 0.8079609378	 0.091169
H	-0.3862725509	-0.6795642786	-2.1450846666	 0.088489
160.3114	275.8756	312.9787	416.4041	456.3958	550.1249	597.7536	725.6863	767.9102	792.3415	834.3269	852.92	859.8463	896.085	915.9414	940.9325	946.1985	982.4457	1004.5246	1024.7916	1034.1857	1076.0849	1104.7917	1121.0121	1158.5088	1165.3288	1184.5421	1200.6164	1207.8081	1221.4979	1239.5639	1279.5044	1300.1184	1318.1931	1458.9292	1498.4067	1547.2174	3065.9987	3085.8365	3125.6633	3133.3554	3140.7555	3146.4268	3151.2441	3172.8816
C1OC11C2CC3C2OC13	C1O[C@]21[C@@H]1C[C@H]3[C@@H]1O[C@@H]23	
InChI=1S/C7H8O2/c1-3-5-4(1)7(2-8-7)6(3)9-5/h3-6H,1-2H2	InChI=1S/C7H8O2/c1-3-5-4(1)7(2-8-7)6(3)9-5/h3-6H,1-2H2/t3-,4+,5-,6+,7+/m0/s1
