17
gdb 125950	2.90714	1.62146	1.09654	4.3031	75.01	-0.2459	-0.0354	0.2105	1079.4208	0.136758	-417.999168	-417.991329	-417.990384	-418.031585	29.304	
C	-0.0335061278	 1.6117996055	-0.023155855	-0.399449
C	 0.0164692294	 0.0827263565	 0.0466762926	-0.122845
C	 0.7438152243	-0.5955840055	-1.1720121086	-0.215842
C	 1.5618468767	-1.8310915755	-0.6510803834	-0.351052
C	 1.6409596468	-1.5018388958	 0.8047724835	 0.21887
C	 0.8175622367	-0.4866925639	 1.1772942763	 0.393414
O	 0.8816234603	-0.2563387659	 2.4594801488	-0.269254
N	 1.9164764154	-1.3045493724	 2.9443214856	-0.044104
N	 2.2636120772	-1.9433478554	 1.9371966796	-0.181504
H	 0.9752739531	 2.0328908383	-0.0809849431	 0.127031
H	-0.5887658647	 1.935427962	-0.9087131836	 0.12286
H	-0.5258657538	 2.0301645709	 0.8592179486	 0.135223
H	-1.0119237719	-0.2965936922	 0.1262740227	 0.108188
H	 0.0387999262	-0.8704216852	-1.9597127555	 0.11194
H	 1.4390622928	 0.1333563161	-1.6005704309	 0.118068
H	 1.0298338186	-2.7730955522	-0.8301475481	 0.12273
H	 2.5328581807	-1.9114697052	-1.1476087496	 0.125726
94.7246	158.0034	220.1056	233.4305	243.7923	282.9002	418.8155	487.2887	559.2824	634.6751	669.9915	726.2078	744.2123	824.0318	898.194	941.6113	968.3727	981.2813	1031.4277	1103.3407	1108.1541	1149.2661	1190.3638	1226.2868	1281.1761	1299.2703	1313.0697	1350.5858	1371.0923	1410.9029	1460.2443	1486.9794	1487.3596	1496.8846	1501.8263	1509.3894	1602.5761	3007.6883	3035.0132	3039.2042	3056.1919	3083.9838	3109.8365	3113.0594	3117.8836
CC1CCC2=C1ON=N2	C[C@H]1CCc2c1onn2	
InChI=1S/C6H8N2O/c1-4-2-3-5-6(4)9-8-7-5/h4H,2-3H2,1H3	InChI=1S/C6H8N2O/c1-4-2-3-5-6(4)9-8-7-5/h4H,2-3H2,1H3/t4-/m0/s1
