15
gdb 131145	3.78814	1.33867	1.07684	0.9588	67.94	-0.2556	-0.0301	0.2256	1076.2315	0.112632	-453.928634	-453.920956	-453.920012	-453.961205	28.474	
O	 0.0638854076	 1.3660657064	 0.106868537	-0.46308
C	 0.0169931246	-0.0218753446	 0.0260640167	 0.312705
C	-0.5289857864	-0.8077796167	 1.2141656982	-0.31455
C	-1.354455138	-0.6386190359	-0.0337326158	-0.303794
C	 1.12942016	-0.6037322498	-0.7364389823	 0.405048
N	 2.1914653877	 0.0356449902	-1.1402642419	-0.35798
C	 2.9096461091	-0.9698082742	-1.7381945812	 0.039612
N	 2.3527015024	-2.1476864326	-1.7160540423	-0.113735
O	 1.1423491234	-1.9056939285	-1.0366771514	-0.211607
H	 0.9944822794	 1.6243501504	 0.0887506233	 0.300178
H	-0.1024909085	-1.7812917339	 1.4266144038	 0.135679
H	-0.7852984555	-0.2029075427	 2.0758454352	 0.136689
H	-2.1707001333	 0.0738109247	-0.0074575869	 0.141451
H	-1.5000284205	-1.4946622778	-0.6816738773	 0.141106
H	 3.8727509681	-0.818052225	-2.2036295252	 0.152276
69.285	154.3784	165.2513	231.1862	327.6445	347.5342	458.2008	488.609	549.395	649.1849	764.9262	778.277	858.9964	893.8253	898.3512	932.4669	941.5919	980.8625	995.2561	1024.8311	1059.1527	1086.0867	1164.6247	1199.6335	1210.2321	1254.7035	1278.2044	1369.0767	1408.605	1448.0017	1489.6338	1536.1818	1613.1256	3143.2278	3147.1776	3234.9132	3248.6365	3261.6701	3776.8366
OC1(CC1)C1=NC=NO1	OC1(CC1)c1ncno1	
InChI=1S/C5H6N2O2/c8-5(1-2-5)4-6-3-7-9-4/h3,8H,1-2H2	InChI=1S/C5H6N2O2/c8-5(1-2-5)4-6-3-7-9-4/h3,8H,1-2H2
