17
gdb 41303	3.7575	1.75941	1.65488	1.2829	71.21	-0.2431	0.0503	0.2933	860.3275	0.137926	-421.714477	-421.708567	-421.707623	-421.744354	25.697	
C	-0.0202496527	 1.5952786079	 0.0941519451	-0.242573
C	 1.4944709811	 1.3757393497	-0.0572121481	 0.0517
O	 1.8403689944	 0.8016909821	 1.2412758353	-0.332615
C	 1.1627107063	-0.404499786	 0.9895146845	 0.396576
C	 1.0066035836	-1.7938997264	 1.5807263099	-0.193403
O	 1.1197232082	-2.296500557	 0.2059354526	-0.309093
C	 1.8203308837	-1.0664678777	-0.2138385024	 0.087564
C	 1.1388850964	 0.0456586377	-0.9762528668	-0.133707
C	-0.0451295174	 0.0682971756	 0.0404608087	-0.096697
H	-0.3477086589	 2.1233142589	 0.9930644891	 0.105186
H	-0.4740505577	 2.0279171859	-0.8017359609	 0.10466
H	 2.2137682809	 2.1415376807	-0.3401745338	 0.089962
H	 1.8453766402	-2.1348629196	 2.2007155427	 0.115845
H	 0.0517391097	-2.0643658771	 2.0406667338	 0.115044
H	 2.8972500643	-1.2355735553	-0.2856330855	 0.079775
H	 1.057776556	 0.2020977622	-2.052727156	 0.075735
H	-0.9329412082	-0.5532044717	-0.0282158581	 0.086042
266.1029	299.8251	359.8979	457.4841	518.4033	565.4133	654.5084	693.9127	741.0408	762.6027	843.4243	863.1153	865.5636	906.1298	924.3566	942.761	959.7866	988.9042	998.9351	1035.5308	1074.877	1084.9961	1096.1039	1114.4578	1149.7623	1151.424	1180.8025	1209.8665	1232.0693	1256.1866	1268.3242	1292.2032	1301.4251	1334.3603	1361.1163	1481.5248	1511.1426	3022.9741	3059.2552	3080.7113	3093.745	3106.8926	3120.6227	3147.1045	3162.7911
C1C2OC34COC3C2C14	C1[C@H]2O[C@]34CO[C@H]3[C@H]2[C@H]14	
InChI=1S/C7H8O2/c1-3-5-4(1)9-7(3)2-8-6(5)7/h3-6H,1-2H2	InChI=1S/C7H8O2/c1-3-5-4(1)9-7(3)2-8-6(5)7/h3-6H,1-2H2/t3-,4+,5-,6-,7-/m0/s1
