21
gdb 106734	2.46976	1.58875	1.17237	0.9911	83.98	-0.2253	0.0219	0.2471	1143.0425	0.181547	-387.081716	-387.072675	-387.07173	-387.115001	34.823	
C	 0.0263462749	 1.2746114657	-0.3169472001	-0.251989
O	-0.04299971	-0.0237955427	 0.2420117349	-0.291139
C	-1.314083255	-0.5880525577	 0.1965315984	 0.406659
C	-1.8007254752	-1.1661317054	-1.110944542	-0.384635
C	-1.4402353038	-2.0921370647	 0.0523733835	 0.234366
C	-0.2529915658	-3.0179310452	-0.0572632825	-0.481332
C	-2.6077315667	-2.4473973008	 0.9192417742	-0.131613
C	-3.1222345333	-1.3810682016	 1.5359059314	-0.083484
C	-2.358963137	-0.1145768172	 1.2123202262	-0.33833
H	 1.0718458051	 1.5881931523	-0.2682449299	 0.124645
H	-0.3039593389	 1.2814948701	-1.3653912919	 0.108348
H	-0.5850435683	 1.9957001545	 0.2444071679	 0.109168
H	-2.8427222779	-1.0634246277	-1.3972494772	 0.105688
H	-1.0890737788	-1.1325588964	-1.930708206	 0.109723
H	 0.5754122038	-2.5193764237	-0.5667880133	 0.127373
H	 0.101131031	-3.3232799515	 0.9333128236	 0.119107
H	-0.5054267725	-3.9248495677	-0.6184498562	 0.112519
H	-2.9792572769	-3.4633610797	 1.0016365528	 0.092366
H	-3.9899490037	-1.3875772606	 2.1856184768	 0.093075
H	-1.8591417835	 0.2978506225	 2.099702724	 0.113331
H	-3.0122948076	 0.6747152173	 0.8197546254	 0.106151
99.8789	161.0148	173.2786	180.0804	210.8036	265.9777	305.8225	383.3045	436.4858	467.4853	494.2678	578.2038	691.1149	728.7687	753.4336	801.229	897.5451	923.6791	949.3263	953.2823	962.2765	966.2864	1000.8486	1047.0704	1065.6855	1104.5641	1111.9956	1162.4398	1182.035	1191.2614	1208.7666	1247.5688	1262.5934	1316.6718	1363.0778	1390.4236	1416.0028	1465.3076	1474.3515	1485.4071	1487.9387	1491.9664	1501.1116	1508.2822	1669.5772	2988.8926	3013.3189	3029.4427	3040.3767	3047.1877	3087.7228	3114.9767	3116.3907	3119.0103	3179.8041	3206.4511	3207.9754
COC12CC1(C)C=CC2	CO[C@@]12C[C@]1(C)C=CC2	
InChI=1S/C8H12O/c1-7-4-3-5-8(7,6-7)9-2/h3-4H,5-6H2,1-2H3	InChI=1S/C8H12O/c1-7-4-3-5-8(7,6-7)9-2/h3-4H,5-6H2,1-2H3/t7-,8-/m0/s1
