21
gdb 70760	2.41136	1.60933	1.19464	1.4104	78.44	-0.2315	0.0784	0.3099	1113.6173	0.183696	-424.216286	-424.208038	-424.207093	-424.248479	33.49	
O	-0.0913867415	 1.3707867353	 0.0593997005	-0.469518
C	 0.0322772019	-0.0285577734	 0.0118018781	 0.362758
C	-0.4641044785	-0.7448179475	-1.2323097289	-0.394122
C	-1.2821913547	-0.7466625316	 0.0334618625	 0.075423
O	-1.3984914433	-1.9441748835	 0.7336913599	-0.250003
C	-1.4175068467	-1.7589198401	 2.1498298946	-0.068462
C	-0.0194700679	-1.739986675	 2.7745946863	-0.185862
C	 0.9035239053	-0.5944252835	 2.327712619	-0.192025
C	 1.188723022	-0.5960899683	 0.8159669732	-0.252841
H	 0.622147336	 1.7481824947	-0.4677012707	 0.279835
H	-0.8317918424	-0.1415650863	-2.0549149648	 0.112476
H	 0.0214547146	-1.673506708	-1.5111973272	 0.120147
H	-2.1711116254	-0.1144100419	 0.0497546997	 0.091824
H	-1.9659877603	-0.8381122879	 2.3991103161	 0.093806
H	-1.9862436521	-2.6030511295	 2.5547889918	 0.102178
H	-0.1450671167	-1.7032579049	 3.864909848	 0.091754
H	 0.4645670074	-2.699424946	 2.5491966885	 0.100955
H	 0.4702775477	 0.3750823053	 2.6035363977	 0.108601
H	 1.8485937496	-0.6798481341	 2.8770599292	 0.087953
H	 1.4108031514	-1.6155619476	 0.483640377	 0.103005
H	 2.0821870636	 0.0040122937	 0.5988892597	 0.082117
143.1744	163.579	239.8999	300.8025	333.6382	338.2763	365.0867	392.358	448.7726	456.5372	524.6834	573.4908	723.8767	785.9473	824.4112	858.8645	897.6164	909.6626	930.7471	955.5988	967.4552	1021.3068	1046.3343	1073.1332	1083.8872	1093.8908	1120.0376	1182.1053	1189.2246	1229.2625	1253.3083	1277.7282	1292.5631	1318.8666	1349.4956	1375.6266	1384.6591	1392.2539	1409.8855	1422.1621	1465.5897	1474.6153	1487.2246	1491.4279	1502.0299	2994.0215	3013.1855	3017.3286	3028.2793	3052.9694	3063.5278	3069.9564	3077.7173	3095.272	3134.8001	3229.5607	3785.4873
OC12CC1OCCCC2	O[C@]12C[C@H]1OCCCC2	
InChI=1S/C7H12O2/c8-7-3-1-2-4-9-6(7)5-7/h6,8H,1-5H2	InChI=1S/C7H12O2/c8-7-3-1-2-4-9-6(7)5-7/h6,8H,1-5H2/t6-,7-/m1/s1
