20
gdb 75479	2.64305	1.17952	0.91337	3.6602	83.59	-0.2372	0.0152	0.2524	1322.3639	0.171507	-403.198499	-403.18922	-403.188276	-403.233614	33.668	
C	-0.2799527065	 1.5371424948	-0.3165449696	-0.492134
C	-0.0678858289	 0.0633122897	-0.1706921591	 0.312426
C	 0.2079953273	-0.8250612739	-1.1278994268	-0.164732
C	 0.3674985464	-2.2330804374	-0.6116664139	-0.257495
C	-0.1022704132	-2.1213251329	 0.8610528497	-0.231002
C	-0.1047511211	-0.6042484654	 1.1959510148	-0.051236
N	 1.0318700274	-0.1743000432	 2.0127444233	-0.278847
C	 0.9127412581	 0.3048913063	 3.2798744176	 0.150654
O	-0.1272667256	 0.4285457039	 3.8921337624	-0.32439
H	 0.4150356526	 2.1007969737	 0.3171951902	 0.128328
H	-0.1445505508	 1.864599064	-1.3506958868	 0.122205
H	-1.289905133	 1.8227239616	 0.0035601009	 0.133922
H	 0.3193068139	-0.5756445999	-2.178661562	 0.089423
H	-0.2305423299	-2.9558075197	-1.178352365	 0.108588
H	 1.4090541615	-2.5731201116	-0.6991576039	 0.103129
H	-1.1219031579	-2.5058334101	 0.9529456302	 0.114801
H	 0.5193452209	-2.6843059766	 1.5609946732	 0.103887
H	-0.9821395934	-0.3205274175	 1.7827666291	 0.117989
H	 1.9539392829	-0.2184099837	 1.6059993443	 0.243438
H	 1.8988707691	 0.5798931779	 3.7061789712	 0.071044
34.4557	69.3995	167.2983	177.1744	206.6768	236.4466	268.6221	318.4337	427.5847	548.4628	568.7677	607.0378	709.9544	721.349	806.5747	850.2187	910.841	935.5222	950.5174	980.4196	1029.5489	1035.0927	1053.5105	1062.769	1085.0834	1166.8972	1175.2925	1205.304	1245.2884	1282.7104	1299.9671	1323.1381	1359.0544	1364.1089	1413.8287	1430.1423	1477.8978	1482.0051	1490.0561	1501.2427	1517.6687	1725.3325	1802.3044	2925.8005	3008.5647	3023.117	3049.9277	3065.7694	3071.4555	3089.4433	3112.1093	3113.463	3179.8234	3619.4151
CC1=CCCC1NC=O	CC1=CCC[C@H]1NC=O	
InChI=1S/C7H11NO/c1-6-3-2-4-7(6)8-5-9/h3,5,7H,2,4H2,1H3,(H,8,9)	InChI=1S/C7H11NO/c1-6-3-2-4-7(6)8-5-9/h3,5,7H,2,4H2,1H3,(H,8,9)/t7-/m1/s1
