18
gdb 76529	2.65142	1.21065	1.18713	3.047	74.43	-0.2532	0.0266	0.2799	1161.6496	0.14667	-439.06373	-439.054752	-439.053808	-439.097419	33.046	
C	-0.100533638	 1.5078289896	-0.0665113886	-0.422975
C	 0.0520316662	 0.0039895254	-0.0273285416	-0.127882
C	 1.4124778363	-0.644271479	-0.1353457647	 0.014017
O	 2.5640408593	 0.1475690255	-0.1385517503	-0.417818
C	 0.6797958067	-0.6685743387	 1.1727241475	 0.170806
C	 1.1349983044	-0.1121255251	 2.5144951097	-0.14754
O	 0.6453780723	-1.3392761187	 3.1562260981	-0.270608
C	 0.2170150682	-1.8529166093	 1.9437453181	 0.386599
N	-0.3528382316	-2.9332766886	 1.657968358	-0.568084
H	 0.796255777	 2.0033954923	 0.313896789	 0.130615
H	-0.2656572902	 1.8537203498	-1.0927834457	 0.121336
H	-0.955350053	 1.835643686	 0.5334945297	 0.127712
H	-0.7619995519	-0.5656856209	-0.4689090241	 0.112988
H	 1.4899613651	-1.590570803	-0.6693551523	 0.112304
H	 2.6842648458	 0.5007984756	-1.026712293	 0.295404
H	 2.212511961	 0.0026065372	 2.6478822844	 0.135241
H	 0.6006256047	 0.7627925408	 2.8934816987	 0.119951
H	-0.5062214924	-3.5082047789	 2.4872839072	 0.227934
101.7461	128.5655	150.273	173.386	218.1636	222.9047	293.6976	318.0813	438.6122	558.0588	579.8657	602.1848	664.5161	778.2039	809.2342	848.5273	875.63	937.4248	973.7473	1001.9846	1022.536	1056.2578	1077.5076	1104.0602	1140.7702	1145.4481	1165.9458	1192.5264	1243.9259	1274.6155	1310.09	1360.0147	1381.3195	1415.153	1479.7882	1497.7426	1506.4038	1517.9053	1824.4277	3036.1031	3062.879	3094.9938	3113.8433	3119.1363	3125.4226	3147.2193	3486.2063	3803.7364
CC1C(O)C11COC1=N	C[C@H]1[C@@H](O)[C@]21CO[C]2[NH]	
InChI=1S/C6H9NO2/c1-3-4(8)6(3)2-9-5(6)7/h3-4,7-8H,2H2,1H3	InChI=1S/C6H9NO2/c1-3-4(8)6(3)2-9-5(6)7/h3-4,7-8H,2H2,1H3/t3-,4+,6+/m0/s1
