15
gdb 27382	2.04673	1.80793	0.96175	6.1621	73.65	-0.2113	-0.0015	0.2098	1144.8219	0.114031	-454.001471	-453.993441	-453.992497	-454.0337	31.134	
N	 0.1599517136	 1.3405019439	 0.1458625782	-0.570092
C	-0.0258729702	-0.0211891484	 0.0322774834	 0.435942
C	-1.1937587214	-0.694967559	 0.0197243309	-0.36762
C	-1.2240130969	-2.1566872408	-0.0043390569	 0.407053
O	-2.2630455485	-2.8076733538	-0.00229776	-0.404195
C	 0.1044253077	-2.7671440547	-0.0310153313	-0.367621
C	 1.220134701	-2.0101784832	-0.0480001894	 0.435942
N	 2.5261784466	-2.4371699897	-0.1644635588	-0.570092
O	 1.1843335984	-0.6477836126	-0.0090014173	-0.250719
H	 0.9990447989	 1.6853338538	-0.2991922524	 0.259865
H	-0.6571227555	 1.8905203493	-0.071931376	 0.266667
H	-2.1333959546	-0.1574300118	 0.0388386797	 0.099169
H	 0.1781808183	-3.8471842434	-0.0484337824	 0.099169
H	 2.6652838466	-3.4119526149	 0.0546567331	 0.266667
H	 3.2037354362	-1.8317690648	 0.2776527092	 0.259864
164.8103	177.7823	182.7259	290.0898	298.319	336.4218	364.1042	505.8645	507.4133	558.8167	583.4657	583.9469	634.3697	680.9805	693.8609	724.3917	820.7023	850.8211	923.469	944.6722	1030.412	1113.0798	1141.6102	1233.3102	1261.9515	1284.5873	1425.3903	1428.8266	1615.3514	1633.7151	1666.7502	1730.9786	1742.602	3211.8354	3212.7195	3568.1476	3568.604	3678.4858	3678.5206
NC1=CC(=O)C=C(N)O1	Nc1cc(=O)cc(N)o1	
InChI=1S/C5H6N2O2/c6-4-1-3(8)2-5(7)9-4/h1-2H,6-7H2	InChI=1S/C5H6N2O2/c6-4-1-3(8)2-5(7)9-4/h1-2H,6-7H2
