16
gdb 23571	3.0849	1.53003	1.33928	3.131	71.95	-0.2418	0.017	0.2588	979.2499	0.126063	-433.931244	-433.92429	-433.923346	-433.962508	28.111	
O	-0.1003703212	 1.3612350028	-0.0182541566	-0.396757
N	 0.0522619785	-0.0406323579	 0.0045867308	-0.315473
C	-1.0590640094	-0.6190343627	 0.0975589123	 0.563926
C	-2.5546067104	-0.3325813768	 0.0477569663	-0.124203
N	-2.5690501159	-1.5162712081	-0.9075369263	-0.322359
C	-1.4998604277	-2.0665836875	 0.0241095798	-0.115077
C	-2.2605188886	-2.2277899423	 1.3698148263	-0.055476
N	-1.9406369072	-1.1798523926	 2.3663241518	-0.316651
C	-3.0297637473	-0.9579832759	 1.3868043446	-0.05088
H	 0.8125646872	 1.6582407446	-0.0947214743	 0.30654
H	-2.9808109075	 0.6074235278	-0.2925013098	 0.09688
H	-3.4406799605	-2.0463846158	-0.821188637	 0.206784
H	-0.869642911	-2.8753608794	-0.3389034569	 0.089974
H	-2.6537622141	-3.1876584743	 1.6835711461	 0.100657
H	-2.3477460938	-1.4380681008	 3.2647993642	 0.231588
H	-4.0582111211	-0.868170621	 1.7164360785	 0.100528
116.6894	194.0604	300.8282	357.8301	370.9335	435.4951	510.2786	576.8251	675.6344	714.9281	778.8358	797.6945	812.6135	845.779	864.712	891.7043	905.4099	907.9879	965.4673	1039.0686	1048.5619	1085.822	1093.7146	1130.8048	1139.0704	1159.6916	1191.0561	1209.6657	1261.4141	1293.6113	1311.2746	1331.9785	1384.3777	1417.1136	1840.6156	3151.5128	3161.9873	3178.3223	3188.6408	3402.0094	3471.2171	3820.071
ON=C1C2NC1C1NC21	ON=C1[C@H]2N[C@@H]1[C@H]1N[C@@H]21	
InChI=1S/C5H7N3O/c9-8-5-3-1-2(6-1)4(5)7-3/h1-4,6-7,9H	InChI=1S/C5H7N3O/c9-8-5-3-1-2(6-1)4(5)7-3/h1-4,6-7,9H/t1-,2+,3+,4-
