18
gdb 88122	2.61029	1.54704	1.16744	1.8705	74.01	-0.2473	0.0192	0.2664	1097.3295	0.147717	-439.088805	-439.080452	-439.079508	-439.121848	31.261	
C	-0.0499252358	 1.5118710957	 0.0729943082	-0.408892
C	 0.0272700062	 0.0036345328	 0.0234630223	-0.064123
C	 1.346793456	-0.6902728444	-0.2410247112	-0.349595
C	 0.7457846809	-0.7569390224	 1.1232196446	 0.325994
O	 1.3725607081	-0.0789489175	 2.1909943705	-0.280828
C	 0.7213754146	-0.5312571112	 3.3495702801	 0.007839
O	 0.2541640142	-1.8541329688	 3.0760575176	-0.248715
C	 0.1738727332	-1.9943581449	 1.7170064986	 0.351966
N	-0.2976267378	-2.9815190057	 1.0906007192	-0.556053
H	 0.8237001355	 1.9323306219	 0.5781789572	 0.130792
H	-0.096921224	 1.9321655792	-0.9370676856	 0.123469
H	-0.9412955938	 1.8452878315	 0.6150734997	 0.119345
H	-0.850664002	-0.5075366071	-0.3617310581	 0.112289
H	 1.3516913799	-1.6095212591	-0.8157927119	 0.143336
H	 2.2272982355	-0.0637874912	-0.3407783917	 0.126182
H	 1.4342577348	-0.565476837	 4.1770899857	 0.131587
H	-0.1434460832	 0.1005826312	 3.6063932178	 0.107133
H	-0.6550754324	-3.6908264429	 1.7302758369	 0.228274
92.015	146.0988	174.3835	179.8636	212.6281	274.1156	378.2314	450.1983	531.2747	556.8094	676.5098	718.6388	755.9639	819.0706	859.0382	894.0667	896.5353	935.7664	996.0802	1009.1117	1014.7957	1070.9888	1107.1585	1121.9382	1133.8198	1168.8461	1187.0913	1200.4795	1235.1117	1298.941	1329.3209	1400.666	1422.3762	1444.4035	1476.8677	1492.7733	1503.3902	1543.8193	1793.2674	2980.392	3035.2384	3095.055	3100.6265	3115.8526	3132.7692	3153.7673	3229.2441	3494.8398
CC1CC11OCOC1=N	C[C@H]1C[C@]21OCO[C]2[NH]	
InChI=1S/C6H9NO2/c1-4-2-6(4)5(7)8-3-9-6/h4,7H,2-3H2,1H3	InChI=1S/C6H9NO2/c1-4-2-6(4)5(7)8-3-9-6/h4,7H,2-3H2,1H3/t4-,6+/m0/s1
