25
gdb 83636	2.07078	1.61685	1.2968	0.0853	91.6	-0.2567	0.0769	0.3336	1181.9016	0.228712	-352.340439	-352.330866	-352.329922	-352.37431	38.07	
C	-0.5569378875	 1.3903645104	-0.114695909	-0.418457
C	-0.0358553428	-0.0412799743	-0.0767184392	-0.008449
C	 1.1226187238	-0.4739044939	-1.0138473376	-0.031596
C	 2.31806344	 0.5105441329	-1.1846724765	-0.229883
C	 3.1124899791	-0.2567709172	-0.0861011127	-0.237177
C	 1.8708231458	-1.1362438692	 0.1969896215	-0.048958
C	 0.7713552283	-0.5796137224	 1.1733289597	 0.321593
C	 1.2302283327	 0.4671738778	 2.1882429687	-0.449537
C	 0.0322030111	-1.7066849149	 1.898292468	-0.439772
H	 0.2284517778	 2.1324162104	 0.055705051	 0.11481
H	-1.0086824111	 1.6093693925	-1.0890371004	 0.111353
H	-1.3279092245	 1.5494749719	 0.6475139866	 0.111729
H	-0.8872814738	-0.7107398019	-0.2473579084	 0.063148
H	 0.8402676617	-1.0260644804	-1.9122101328	 0.055047
H	 2.7799998554	 0.4843650279	-2.1745417602	 0.09714
H	 2.0933689376	 1.5552628571	-0.9546068872	 0.094412
H	 3.9351366078	-0.8423517722	-0.5058679467	 0.095277
H	 3.5129766744	 0.3298466111	 0.744736311	 0.09343
H	 2.0391635273	-2.2124511159	 0.2764822871	 0.051921
H	 1.7287098765	 1.3226540049	 1.7247793272	 0.11314
H	 0.3772367957	 0.8554929628	 2.7564981388	 0.108583
H	 1.9309070864	 0.027520931	 2.9076717107	 0.109755
H	 0.6662651311	-2.1664877703	 2.6660200505	 0.107247
H	-0.8725985058	-1.3319946523	 2.392115143	 0.106517
H	-0.2709803668	-2.4958013457	 1.2016652472	 0.108729
45.5148	198.7953	210.2346	234.7638	245.3301	256.761	271.1071	315.146	336.7357	416.205	439.2749	519.7325	583.475	669.3227	746.2784	754.5436	819.6152	844.4357	848.9639	942.8066	947.6247	956.2417	965.692	994.679	1010.6021	1023.4832	1041.1034	1080.9535	1123.7654	1138.7784	1147.7459	1197.6176	1206.0482	1217.5956	1232.3977	1255.983	1261.3298	1281.9602	1298.8018	1309.3487	1335.6907	1376.5651	1398.8594	1405.4437	1421.0439	1473.2007	1482.1311	1484.3186	1492.4098	1496.5933	1498.4909	1506.4113	1515.3655	3013.4847	3023.2317	3024.4115	3030.5342	3052.8772	3061.3058	3070.9423	3078.6205	3084.0891	3084.5509	3088.1303	3089.0387	3093.1163	3100.3487	3105.8324	3114.958
CC1C2CCC2C1(C)C	C[C@H]1[C@H]2CC[C@H]2C1(C)C	
InChI=1S/C9H16/c1-6-7-4-5-8(7)9(6,2)3/h6-8H,4-5H2,1-3H3	InChI=1S/C9H16/c1-6-7-4-5-8(7)9(6,2)3/h6-8H,4-5H2,1-3H3/t6-,7+,8+/m0/s1
