16
gdb 5110	3.45181	2.06769	1.31439	2.5525	67.1	-0.1925	0.0531	0.2456	908.799	0.131175	-379.971533	-379.963403	-379.962459	-380.004027	29.167	
C	 0.0306602109	 1.4621404678	-0.0191064693	-0.347948
N	 0.035301991	 0.0142643171	-0.0216875497	-0.103055
C	 0.0112697124	-0.8366747706	-1.1346136715	 0.264999
C	-0.0240347148	-0.3287879309	-2.533757101	-0.503109
C	 0.0280025445	-2.0973542577	-0.6118090849	-0.174963
N	 0.0613029939	-2.0713193601	 0.7747539549	-0.379122
C	 0.0641701063	-0.8006982703	 1.0662930053	 0.429888
O	 0.0921433816	-0.2611426278	 2.3013777132	-0.432312
H	 0.906320959	 1.8592832579	-0.5428637514	 0.138157
H	-0.8713493264	 1.8534658565	-0.5008323743	 0.138159
H	 0.053976042	 1.8066032173	 1.0146928858	 0.164342
H	 0.8515116324	 0.2851858361	-2.781962757	 0.12537
H	-0.0382552456	-1.1748188205	-3.2250596415	 0.139077
H	-0.9141448989	 0.2799865489	-2.73928913	 0.125363
H	 0.0180424325	-3.0320128192	-1.1519909617	 0.102409
H	 0.1092811493	-1.0074252644	 2.9132789931	 0.312744
80.3214	136.6666	169.8988	216.363	253.3168	306.1258	340.5304	401.6294	515.047	595.5399	635.3048	717.9522	731.7773	770.9619	815.142	980.4204	1009.3537	1064.4646	1128.6629	1153.5989	1184.784	1227.1222	1283.3759	1302.5069	1377.0104	1420.2433	1456.1512	1475.1185	1488.6313	1493.528	1511.5496	1582.943	1601.5921	1627.8288	3010.7132	3036.6647	3051.8916	3091.5942	3119.4325	3157.2217	3247.1465	3809.024
CN1C(C)=CN=C1O	Cn1c(C)cnc1O	
InChI=1S/C5H8N2O/c1-4-3-6-5(8)7(4)2/h3H,1-2H3,(H,6,8)	InChI=1S/C5H8N2O/c1-4-3-6-5(8)7(4)2/h3H,1-2H3,(H,6,8)
