14
gdb 49002	2.56693	1.64544	1.16014	2.5784	64.58	-0.2743	-0.0602	0.2141	1017.5377	0.099705	-473.784079	-473.776562	-473.775618	-473.816586	27.358	
N	 0.0386662153	 1.0912422386	-0.5221270004	-0.537267
C	-0.0082610738	-0.0711965221	-0.0703481369	 0.443141
O	 0.9930079794	-0.9071667659	 0.4189998997	-0.275106
C	 0.0658826682	-1.99486624	 0.6333808516	 0.274883
C	-0.6378608307	-1.9211190945	 2.0020604941	-0.132008
O	-1.6591726523	-1.0322179449	 1.4895491205	-0.27312
C	-1.116272175	-1.0864555555	 0.1619892495	-0.069381
C	 0.4708560882	-3.3007697585	 0.024396	 0.080225
O	 1.432838895	-3.4530723048	-0.6786010543	-0.231932
H	 0.9849808999	 1.4754830215	-0.5013005222	 0.242083
H	-1.0761520639	-2.8690049919	 2.3358144199	 0.123601
H	-0.0379426137	-1.4747992144	 2.800098378	 0.13755
H	-1.8537236499	-1.2817013475	-0.616119785	 0.126036
H	-0.2219524867	-4.1360551502	 0.2725576654	 0.091295
84.2177	117.7666	205.9635	241.7494	281.4643	375.5368	436.31	481.5552	627.6111	701.8413	789.8493	816.6282	859.5852	873.1232	961.0726	962.3137	982.9361	1004.8373	1031.2744	1091.8569	1128.9544	1146.4694	1180.5145	1228.1926	1275.2243	1301.6833	1350.0998	1425.953	1499.5018	1833.2519	1839.4821	2882.7141	3033.8742	3102.3473	3129.1389	3480.3737
N=C1OC2(COC12)C=O	[NH][C]1O[C@]2(CO[C@@H]12)C=O	
InChI=1S/C5H5NO3/c6-4-3-5(1-7,9-4)2-8-3/h1,3,6H,2H2	InChI=1S/C5H5NO3/c6-4-3-5(1-7,9-4)2-8-3/h1,3,6H,2H2/t3-,5-/m0/s1
