18
gdb 7508	3.02573	1.32282	1.03241	2.0105	77.9	-0.2419	0.0363	0.2782	1209.3101	0.150186	-347.774016	-347.764336	-347.763391	-347.809142	33.739	
C	 0.0889946707	 1.4919699782	 0.0293807379	-0.504073
C	 0.0330313429	 0.0380639636	-0.0034215346	 0.119777
C	-0.0213457727	-1.1654786884	-0.0184172361	 0.028392
C	-0.0269208117	-2.6094463592	-0.069399144	 0.189126
C	 1.1980728037	-3.2374316134	-0.7044681215	-0.471528
O	-0.4969311954	-3.2785907691	 1.1232856712	-0.286791
C	-1.3118558828	-3.3508070557	-0.0469994074	 0.044942
C	-2.6619892868	-2.6884208785	 0.0112396717	-0.430517
H	 1.0880230971	 1.8569701084	-0.2327938078	 0.150904
H	-0.6231318776	 1.935335073	-0.6753720396	 0.149818
H	-0.1516760611	 1.8723253097	 1.028184202	 0.154298
H	 2.0976229997	-2.9600843275	-0.1469827661	 0.134193
H	 1.1086355743	-4.326608303	-0.7014650823	 0.125655
H	 1.3178058135	-2.8909919037	-1.7355113749	 0.12751
H	-1.2983089957	-4.332414275	-0.5274883828	 0.083782
H	-2.5823586868	-1.68043344	 0.4229461266	 0.137553
H	-3.0995554453	-2.6266155764	-0.9910434378	 0.119734
H	-3.3420749161	-3.272442903	 0.6401241557	 0.127227
32.7115	90.6735	119.4717	182.6144	198.5757	233.1392	245.8393	306.0413	339.9872	405.0457	470.0773	534.6756	582.9698	607.4858	752.5791	854.9671	916.3708	996.5237	1050.9217	1051.6826	1057.9113	1064.6729	1104.8144	1139.7237	1164.1084	1272.9491	1346.0819	1405.7092	1409.7787	1413.8876	1447.5193	1476.3949	1477.7017	1479.3861	1487.121	1492.7311	1500.8026	2366.3814	3028.0413	3038.5613	3042.6489	3074.8718	3088.9194	3091.1118	3100.8647	3113.6892	3127.0527	3138.3991
CC#CC1(C)OC1C	CC#C[C@@]1(C)O[C@H]1C	
InChI=1S/C7H10O/c1-4-5-7(3)6(2)8-7/h6H,1-3H3	InChI=1S/C7H10O/c1-4-5-7(3)6(2)8-7/h6H,1-3H3/t6-,7+/m0/s1
