23
gdb 92327	1.98216	1.89864	1.21283	1.3805	84.26	-0.2533	0.0661	0.3194	1133.6111	0.207682	-388.294813	-388.286159	-388.285215	-388.327688	34.748	
C	-0.7955994075	 1.3965675026	-0.0814019789	-0.395898
C	-0.0299806419	 0.0788875466	-0.0989387592	 0.054033
C	 1.257968294	-0.0095519619	-0.9670820636	-0.25242
C	 2.0139307699	-0.7000942344	 0.2040976047	 0.006062
C	 3.1942906353	 0.0912037872	 0.7936183646	-0.221607
C	 2.5230328826	 1.223318051	 1.590961996	-0.260378
C	 1.2938545859	 0.5323989287	 2.2135971449	 0.135184
O	 0.2700104851	 1.4027194486	 2.6673046107	-0.437695
C	 0.7792234617	-0.4433929526	 1.1401725801	-0.051212
H	-0.1544448375	 2.2412926692	 0.1825403496	 0.114433
H	-1.2210815227	 1.5897426894	-1.073804016	 0.096805
H	-1.6135903794	 1.3756917815	 0.6438362379	 0.120436
H	-0.7241732713	-0.7154651779	-0.3948501085	 0.068349
H	 1.174444587	-0.5882218791	-1.8907438806	 0.090923
H	 1.6730923725	 0.9715195792	-1.2233106346	 0.089937
H	 2.2608840414	-1.7459297524	 0.0111681112	 0.058991
H	 3.7763174907	-0.5468832537	 1.4697987111	 0.093667
H	 3.8819404896	 0.457269406	 0.0241570003	 0.095303
H	 3.1822091762	 1.6714430725	 2.3421742309	 0.083405
H	 2.1885705646	 2.0282933496	 0.9267932467	 0.108447
H	 1.6514078392	-0.0858970636	 3.0554593538	 0.061978
H	 0.6411811735	 1.9621741783	 3.35653887	 0.280149
H	 0.3210400511	-1.3156241349	 1.6112347688	 0.061106
74.9059	193.5023	216.0506	237.6277	271.171	301.0905	351.1491	361.4133	421.2291	501.6913	577.9923	625.1024	697.1601	743.6064	818.9334	845.6291	889.5187	904.4134	915.801	933.35	961.256	999.0034	1017.4961	1063.1475	1074.0406	1101.1362	1127.9815	1150.9313	1162.8552	1181.6693	1194.5307	1227.7683	1250.9013	1264.0953	1269.5944	1294.5058	1302.9234	1322.4317	1341.9523	1350.1188	1369.1594	1385.6718	1415.5463	1431.0757	1485.039	1486.9577	1489.5999	1491.2074	1509.6029	2937.5232	3026.682	3028.0693	3032.241	3039.6624	3042.2814	3071.2276	3073.7514	3081.9403	3086.1241	3098.1992	3099.9654	3121.4653	3818.9884
CC1CC2CCC(O)C12	C[C@H]1C[C@H]2CC[C@@H](O)[C@@H]12	
InChI=1S/C8H14O/c1-5-4-6-2-3-7(9)8(5)6/h5-9H,2-4H2,1H3	InChI=1S/C8H14O/c1-5-4-6-2-3-7(9)8(5)6/h5-9H,2-4H2,1H3/t5-,6+,7+,8-/m0/s1
