15
gdb 55437	2.82098	1.52695	1.02392	7.2681	62.79	-0.263	0.0093	0.2722	1093.2937	0.114192	-491.162262	-491.154149	-491.153205	-491.195649	29.094	
N	 1.1626828216	-0.7507711265	 0.0330715436	-0.567145
C	 0.0256063537	 0.0355534712	 0.1251949366	 0.457143
O	 0.0454145903	 1.1983567933	 0.4389398753	-0.338966
N	-1.1577629769	-0.6920887291	-0.1122834219	-0.228579
C	-1.2479664958	-2.1424514431	-0.2072630548	-0.207697
C	-2.7613110123	-2.3490079322	-0.0391352709	-0.096482
O	-3.3425911693	-1.0939433936	-0.3946758407	-0.245062
C	-2.4127755923	-0.0927803352	-0.321594712	 0.510979
O	-2.6806698698	 1.0587351081	-0.453087022	-0.341504
H	 2.0092554837	-0.2028208573	 0.0700392622	 0.270036
H	 1.1841996472	-1.5130285084	-0.6267008166	 0.256717
H	-0.898606973	-2.5075303111	-1.1834099108	 0.120033
H	-0.6682901941	-2.632546511	 0.5778220519	 0.144708
H	-3.1658204608	-3.1205918986	-0.6959217614	 0.134716
H	-3.0239173221	-2.5846918265	 0.9981055213	 0.131102
64.1888	102.3018	171.5024	194.445	214.6205	380.286	419.5744	464.7295	558.3678	567.2514	672.3664	700.0615	750.7655	771.0326	782.4181	898.6369	982.096	1026.5458	1087.2734	1111.0834	1142.565	1191.3936	1228.1479	1248.5837	1261.6628	1366.4696	1393.2017	1409.0943	1520.3911	1531.7371	1623.9317	1821.0088	1927.7971	2999.4214	3046.6811	3100.8585	3122.7093	3576.9204	3692.3726
NC(=O)N1CCOC1=O	NC(=O)N1CCOC1=O	
InChI=1S/C4H6N2O3/c5-3(7)6-1-2-9-4(6)8/h1-2H2,(H2,5,7)	InChI=1S/C4H6N2O3/c5-3(7)6-1-2-9-4(6)8/h1-2H2,(H2,5,7)
