15
gdb 44180	4.89457	1.05587	0.94799	1.6932	70.69	-0.2629	-0.0258	0.2371	1176.9652	0.113593	-416.806917	-416.799471	-416.798526	-416.839316	27.625	
O	-0.1409551	 0.0658620414	 0.5593232959	-0.301565
C	-0.1264625246	 1.1936402011	 0.1699029293	 0.383742
C	-1.1795016139	 2.2970300496	-0.1021036177	-0.389442
C	 0.0349814945	 3.2480790788	-0.1152859312	 0.009224
C	 0.6223044363	 3.7288632269	 1.2595495885	-0.183731
C	 1.7005541964	 2.5956959763	 1.1019024413	-0.200703
N	 0.9699512835	 2.0714078196	-0.0901245466	-0.129976
C	 1.1003318623	 5.0970645233	 1.330829698	 0.273288
N	 1.4918732213	 6.184274711	 1.3644567501	-0.311303
H	-1.700542625	 2.2144714987	-1.0589108315	 0.151249
H	-1.9141194959	 2.420512034	 0.6961072124	 0.146361
H	 0.1402415836	 3.9509972519	-0.9414477956	 0.116843
H	-0.0617560549	 3.5391989354	 2.0916319668	 0.139518
H	 2.6903278806	 2.971189621	 0.8377492566	 0.147615
H	 1.7784525157	 1.8809680111	 1.9231554038	 0.148879
74.9242	130.3446	177.8121	258.5417	326.0913	460.3833	492.1073	529.8644	541.9607	638.0232	744.737	779.8006	837.4722	897.2497	949.6783	959.5642	1012.6146	1030.5535	1060.5036	1066.3298	1102.2119	1136.9939	1191.3166	1206.6188	1221.4074	1241.449	1294.8577	1299.9089	1363.2454	1443.0535	1501.0962	1900.6587	2357.8746	3074.2508	3079.0077	3079.896	3118.8844	3137.6077	3142.7012
O=C1CC2C(CN12)C#N	O=C1C[C@H]2[C@@H](CN12)C#N	
InChI=1S/C6H6N2O/c7-2-4-3-8-5(4)1-6(8)9/h4-5H,1,3H2	InChI=1S/C6H6N2O/c7-2-4-3-8-5(4)1-6(8)9/h4-5H,1,3H2/t4-,5+/m1/s1
