17
gdb 73519	3.05804	1.78785	1.3841	2.9874	72.99	-0.2272	-0.0068	0.2204	945.6014	0.137022	-417.939166	-417.931863	-417.930919	-417.970435	29.299	
O	-0.1415403357	 1.4694556308	-0.2179344367	-0.477262
C	-0.0400658456	 0.0611669201	-0.1043374254	 0.329325
C	 1.12068235	-0.5432298034	-0.9157544985	-0.325607
C	 2.1985005586	-0.7247420192	 0.2083135619	-0.174599
N	 1.4214362655	-1.0953945658	 1.4311293255	-0.295844
C	 0.2742306101	-0.6011714685	 1.2281841306	 0.307924
N	-1.0370669088	-1.0580363581	 1.5916867971	-0.190631
C	-1.9974396408	 0.0462813879	 1.3438058599	-0.225782
C	-1.4257487358	-0.5618884569	 0.1337043095	-0.089543
H	 0.7447905117	 1.8403192029	-0.1499091152	 0.287649
H	 0.8597265475	-1.5279750236	-1.3148781318	 0.122071
H	 1.4251879801	 0.0961605015	-1.7489188524	 0.105393
H	 2.895140381	-1.5349806365	-0.0189862154	 0.121793
H	 2.8021783738	 0.1791525916	 0.3721307779	 0.100547
H	-3.0069428267	-0.2386768575	 1.622042867	 0.134621
H	-1.718101879	 1.0625101126	 1.5989635646	 0.148062
H	-1.9576075559	-1.2445938479	-0.5170214688	 0.121882
170.1361	196.2462	258.7041	280.7112	305.8821	385.4623	471.8847	531.7068	603.0451	634.9301	693.1773	701.6951	791.0912	849.1733	869.117	913.9805	930.4683	969.8176	996.9345	1002.0938	1049.7123	1091.5672	1121.1214	1132.9342	1141.2468	1186.5293	1195.7391	1237.6103	1271.1586	1282.0075	1306.4314	1317.0082	1386.2182	1476.86	1498.8676	1502.9649	1742.0315	3009.0735	3057.4046	3097.2719	3111.6614	3134.2731	3201.4878	3226.0781	3812.3545
OC12CCN=C1N1CC21	O[C@@]12CC[N][C]1N1C[C@@H]21	
InChI=1S/C6H8N2O/c9-6-1-2-7-5(6)8-3-4(6)8/h4,9H,1-3H2	InChI=1S/C6H8N2O/c9-6-1-2-7-5(6)8-3-4(6)8/h4,9H,1-3H2/t4-,6+,8?/m0/s1
