14
gdb 127042	6.61748	0.85201	0.76205	5.1896	60.88	-0.271	0.0122	0.2832	1423.5425	0.099757	-510.976747	-510.968673	-510.967728	-511.010388	28.184	
C	 0.0563855688	 1.521511349	 0.1444650761	-0.395984
C	 0.0049691474	 0.0166452818	-0.0050050638	-0.05729
O	 0.6813025355	-0.5564940874	 1.1495828084	-0.248222
C	 0.731276876	-1.8614793169	 1.1854606483	 0.538118
N	 0.2597734979	-2.7030019398	 0.3316251275	-0.2518
O	 0.6162823342	-3.9685984035	 0.9026573113	-0.236247
C	 1.2782238773	-3.7706015359	 2.0630797665	 0.519347
O	 1.7182684839	-4.5885825154	 2.7968611679	-0.351796
O	 1.3565508482	-2.3929280305	 2.2532533506	-0.225703
H	 1.0898947381	 1.8759088802	 0.1747948087	 0.142823
H	-0.4443752351	 1.9865857668	-0.7093647072	 0.136898
H	-0.4501352226	 1.8407670981	 1.0588850876	 0.142817
H	-1.0195096986	-0.3674945582	-0.0239777736	 0.143526
H	 0.5173738792	-0.3322795083	-0.9067688282	 0.143514
55.304	95.7042	141.3419	205.6292	254.0403	344.2364	357.5231	391.5818	586.6364	707.728	721.1201	778.7834	782.8012	814.5334	875.5971	914.5572	985.6139	1003.916	1068.5771	1128.0713	1170.7962	1181.6406	1296.6638	1386.5642	1418.0708	1481.9238	1483.9221	1497.2008	1520.1728	1701.8271	1960.2923	3052.9997	3056.1977	3100.5353	3129.3851	3136.7986
CCOC1=NOC(=O)O1	CCOc1noc(=O)o1	
InChI=1S/C4H5NO4/c1-2-7-3-5-9-4(6)8-3/h2H2,1H3	InChI=1S/C4H5NO4/c1-2-7-3-5-9-4(6)8-3/h2H2,1H3
