17
gdb 106882	2.42793	1.38543	1.04724	2.7807	70.94	-0.2525	-0.0364	0.2161	1154.499	0.133974	-458.922721	-458.913918	-458.912973	-458.956967	31.781	
O	 0.1432835417	 1.1878775632	 0.3905038051	-0.404962
C	-0.0048227836	-0.161404011	-0.021906286	-0.169509
C	-1.4389155063	-0.5905325011	 0.0091629447	 0.411028
C	-2.2160185144	-1.0478241208	 1.1806790015	-0.369852
C	-2.1103356467	-1.9936742732	-0.0107465738	 0.095736
C	-2.9138847941	-1.418235929	-1.171123368	-0.14916
O	-2.2934920682	-0.1110841907	-1.0290564122	-0.322919
C	-1.4394159219	-3.2949908294	 0.0620371355	 0.064542
O	-0.7311382651	-3.6508494054	 0.9777079886	-0.278878
H	-0.322696376	 1.7377696154	-0.2488598452	 0.296125
H	 0.403252834	-0.3212788363	-1.0304167272	 0.101782
H	 0.5679661786	-0.7744994641	 0.6796692518	 0.139142
H	-1.6323601396	-1.3815107147	 2.0319668075	 0.154446
H	-3.1765426089	-0.5918401475	 1.4022338181	 0.125241
H	-2.6565365199	-1.8594605106	-2.1411481679	 0.118365
H	-4.0027163094	-1.3724966972	-1.0588453056	 0.116591
H	-1.6067283302	-3.9503400476	-0.8228686369	 0.072282
45.9477	93.6429	145.5391	206.9295	226.3472	288.4085	349.9309	386.4058	406.8585	465.9999	537.0047	697.6352	729.687	818.927	838.2246	930.9225	944.4012	979.9469	988.8908	1027.0554	1041.6227	1059.783	1072.5989	1128.8158	1154.4245	1194.4468	1252.8913	1293.9806	1345.2128	1385.4463	1387.9867	1426.4732	1438.2338	1485.9483	1488.0774	1516.6616	1788.5442	2870.4638	3002.87	3026.5325	3078.5261	3098.7535	3123.6546	3227.5264	3809.7439
OCC12CC1(CO2)C=O	OC[C@]12C[C@]1(CO2)C=O	
InChI=1S/C6H8O3/c7-2-5-1-6(5,3-8)9-4-5/h2,8H,1,3-4H2	InChI=1S/C6H8O3/c7-2-5-1-6(5,3-8)9-4-5/h2,8H,1,3-4H2/t5-,6-/m1/s1
