15
gdb 28260	4.82269	1.26126	1.01588	3.0501	67.5	-0.1779	0.0434	0.2212	1100.7187	0.115688	-453.971819	-453.964646	-453.963702	-454.00337	27.472	
O	 0.1924836467	 1.273711439	 0.1267438587	-0.418991
C	 0.128298047	-0.0630363972	 0.0287500176	 0.425569
N	 0.1412368557	-0.7567328208	-1.092541676	-0.452756
C	-0.0337974091	-2.0314251537	-0.6337727139	 0.393009
C	-0.177940853	-2.1270674509	 0.7092200545	 0.124059
C	-0.0134953581	-3.5472795545	 1.140015792	-0.35272
C	-0.2139802276	-4.2050251973	-0.2736992533	-0.082222
O	 0.0629025015	-3.2096548313	-1.2992069989	-0.275715
N	-0.0003662477	-0.8107481121	 1.1601426881	-0.404562
H	 0.2541015624	 1.6077759715	-0.7771388028	 0.31715
H	 0.9805163607	-3.7633111508	 1.559383599	 0.110511
H	-0.7579617497	-3.9357617547	 1.8435100441	 0.109094
H	 0.4433726519	-5.0566223615	-0.455466492	 0.120585
H	-1.2566838544	-4.5213844846	-0.3887418209	 0.117079
H	-0.1921596064	-0.4298955411	 2.0711059841	 0.269911
127.9807	165.6173	266.1146	308.3289	323.3137	404.0079	464.2311	533.2234	556.0962	687.389	714.2898	734.6701	748.5136	843.3886	864.4905	921.5646	995.594	1038.8525	1075.6701	1141.1936	1180.6539	1190.9658	1229.7343	1256.7821	1297.8564	1353.3014	1400.6483	1464.5136	1497.811	1515.7941	1536.7877	1608.1015	1659.9712	2985.6039	3037.0542	3054.279	3122.0858	3670.2086	3804.4094
OC1=NC2=C(CCO2)N1	Oc1nc2c(CCO2)[nH]1	
InChI=1S/C5H6N2O2/c8-5-6-3-1-2-9-4(3)7-5/h1-2H2,(H2,6,7,8)	InChI=1S/C5H6N2O2/c8-5-6-3-1-2-9-4(3)7-5/h1-2H2,(H2,6,7,8)
