21
gdb 82096	2.69798	1.46429	1.23563	2.259	82.22	-0.2134	0.0779	0.2913	1117.4086	0.183442	-383.186436	-383.177962	-383.177017	-383.219554	32.967	
C	-0.2456546485	 1.7223291204	 0.1399410667	-0.403796
C	-0.2501309235	 0.2011253713	 0.0961349952	-0.013059
C	 0.6744355853	-0.4963388823	-0.9132721931	-0.054169
N	 2.0555944808	-0.07636902	-0.5934540395	-0.32499
C	 1.4331547888	-1.1979180935	 0.1615037158	-0.106822
C	 0.498692132	-0.600634053	 1.2378459215	 0.050899
N	 0.9413269573	 0.1265482335	 2.4086139848	-0.088135
C	 1.9461160756	-0.5082188487	 3.2564855521	-0.230545
C	 2.2832643034	 0.7025734596	 2.4585697679	-0.213305
H	 0.775648826	 2.1076538656	 0.1086106619	 0.136821
H	-0.7952152019	 2.1358746356	-0.7130622393	 0.102285
H	-0.720908849	 2.0808350073	 1.057590551	 0.122796
H	-1.2746855842	-0.1722540054	 0.0068847407	 0.07126
H	 0.4237128877	-0.8458660171	-1.9074542739	 0.089917
H	 2.6682034645	-0.4977226157	-1.2909105077	 0.22809
H	 1.8856082119	-2.182845297	 0.1474668339	 0.086754
H	-0.1620788019	-1.3970590262	 1.5965108035	 0.082084
H	 1.7731926361	-0.4403856056	 4.3273738555	 0.110604
H	 2.3734253364	-1.4536092173	 2.9251593773	 0.103798
H	 2.925661136	 0.5793226673	 1.5944057552	 0.140345
H	 2.344846567	 1.671567811	 2.9471850305	 0.109167
68.3898	152.925	160.0396	211.5758	244.2434	283.2594	340.0936	454.1261	523.6866	610.8284	685.6515	758.2312	798.5246	819.8528	836.6815	857.2126	889.2155	901.3243	918.7453	961.9997	1014.0391	1035.1007	1044.2467	1072.321	1093.7954	1114.5148	1118.3662	1122.4879	1138.6474	1151.6337	1178.2867	1191.7312	1195.6594	1265.5622	1284.3302	1323.003	1337.763	1361.9632	1376.1225	1387.4104	1406.5125	1488.7079	1495.146	1506.3884	1522.1618	3037.3849	3042.6405	3063.6315	3091.3745	3103.4055	3117.8844	3132.8849	3171.2805	3175.1811	3189.8542	3220.2877	3473.2401
CC1C2NC2C1N1CC1	C[C@H]1[C@H]2N[C@H]2[C@H]1N1CC1	
InChI=1S/C7H12N2/c1-4-5-6(8-5)7(4)9-2-3-9/h4-8H,2-3H2,1H3	InChI=1S/C7H12N2/c1-4-5-6(8-5)7(4)9-2-3-9/h4-8H,2-3H2,1H3/t4-,5+,6+,7-/m0/s1
