21
gdb 75487	2.48217	1.4857	1.10948	1.2827	84.74	-0.2169	0.0257	0.2426	1180.3972	0.183007	-387.100579	-387.091924	-387.09098	-387.133175	34.639	
C	 0.0979025431	 1.4838804889	 0.0875743428	-0.487652
C	-0.0158166652	-0.0125616233	-0.0168193304	 0.355313
C	-0.0444977945	-0.6581648956	-1.1875178844	-0.175081
C	-0.1505958602	-2.1585201954	-1.3037078862	-0.27798
C	-0.8711249205	-2.7968756656	-0.1023412182	-0.271517
C	-0.4574913131	-2.2159323191	 1.235583765	 0.407627
O	-1.2629940678	-2.6175525699	 2.3145850291	-0.473551
C	 0.9687536796	-1.8576605695	 1.5508885848	-0.356446
C	-0.0709786737	-0.7653610884	 1.2684356731	-0.161178
H	 0.9915256515	 1.7745427099	 0.65465369	 0.124166
H	 0.1500467665	 1.954238275	-0.8979460853	 0.117577
H	-0.7610628584	 1.9082960624	 0.6233824032	 0.12401
H	 0.0363818868	-0.0922148288	-2.1122805643	 0.075251
H	-0.6855766896	-2.4263475977	-2.2219692798	 0.102999
H	 0.8515358652	-2.5971566346	-1.4176509998	 0.108089
H	-1.9507766801	-2.6284360656	-0.1942671829	 0.111602
H	-0.7184093819	-3.8840795271	-0.1080922088	 0.084518
H	-1.0686821916	-3.5441409191	 2.495687953	 0.27825
H	 1.2818204492	-1.9819771421	 2.5816323069	 0.110509
H	 1.7434027109	-2.0131050816	 0.8079109892	 0.114072
H	-0.4075364463	-0.2124157028	 2.139620023	 0.089422
126.7708	176.3993	204.1164	269.9621	281.9016	294.0754	334.4708	404.7743	415.9066	461.3995	496.1292	574.9215	637.7428	702.025	780.0981	824.715	874.3654	898.5836	922.7055	924.8223	979.2485	997.9901	1034.8436	1049.6701	1060.0794	1075.0848	1080.8528	1120.1698	1170.0544	1183.3791	1237.0511	1240.7553	1291.0612	1318.0416	1348.8253	1377.846	1388.6738	1412.1887	1422.5721	1476.6839	1478.4217	1483.708	1492.2083	1502.7687	1728.4429	2995.7452	3014.8267	3017.0731	3049.765	3061.0497	3062.7928	3110.5277	3132.1986	3153.4474	3162.2996	3225.3831	3789.3192
CC1=CCCC2(O)CC12	CC1=CCC[C@@]2(O)C[C@@H]12	
InChI=1S/C8H12O/c1-6-3-2-4-8(9)5-7(6)8/h3,7,9H,2,4-5H2,1H3	InChI=1S/C8H12O/c1-6-3-2-4-8(9)5-7(6)8/h3,7,9H,2,4-5H2,1H3/t7-,8+/m0/s1
