20
gdb 77241	2.42672	1.14268	0.98419	3.5092	77.9	-0.242	0.0124	0.2544	1312.3681	0.167834	-440.2634	-440.253028	-440.252084	-440.298903	37.217	
C	 0.0195647744	 1.4629987267	 0.4525176817	-0.450297
C	 0.0594439592	-0.018725314	 0.1440046815	 0.234803
C	-1.2254649733	-0.6058920381	-0.40740806	-0.452625
C	 1.3660600438	-0.6145697643	-0.36272951	 0.064623
O	 2.4986225954	 0.1834335283	-0.4935587406	-0.430111
C	 0.8870564447	-0.9469704376	 1.0251100517	-0.021717
O	 1.723618618	-0.4160432621	 2.0263474542	-0.203947
C	 1.1473743465	-0.1147881026	 3.215003152	 0.133371
N	 1.857059003	 0.3413139544	 4.1504391921	-0.435825
H	 0.9977575386	 1.8418843118	 0.7504602695	 0.136916
H	-0.2929895503	 2.0198575814	-0.4373750106	 0.12282
H	-0.6979736644	 1.6843697573	 1.2510550605	 0.109253
H	-1.5048637699	-0.1121651975	-1.3449868566	 0.12533
H	-1.1260778315	-1.6764930962	-0.6151944915	 0.115326
H	-2.0551780211	-0.4802877346	 0.2982955709	 0.116329
H	 1.3071484194	-1.3916215575	-1.122032238	 0.096893
H	 2.9379257886	 0.2076067031	 0.3660673007	 0.305682
H	 0.5165673044	-1.9443679745	 1.2516817303	 0.10222
H	 0.0694139075	-0.3171929731	 3.2336684483	 0.097071
H	 1.283443197	 0.5129113688	 4.9734341741	 0.233884
66.4704	97.505	113.6961	158.2	184.6368	198.2776	242.5396	276.5541	324.7603	338.9342	351.1424	469.1988	511.868	587.3735	683.6155	734.178	815.3136	825.9398	875.884	975.4049	986.8269	1023.0264	1032.4168	1045.9593	1056.5549	1111.6771	1147.0397	1177.6523	1200.7699	1253.5861	1282.6897	1326.6299	1340.6359	1376.1376	1408.6885	1411.0685	1421.1738	1450.1424	1480.9366	1490.76	1500.0517	1510.7435	1746.902	3021.3676	3033.076	3046.2253	3084.5999	3088.5875	3094.3384	3119.8957	3130.2089	3143.6433	3522.4102	3772.8433
CC1(C)C(O)C1OC=N	CC1(C)[C@@H](O)[C@H]1O[CH][NH]	
InChI=1S/C6H11NO2/c1-6(2)4(8)5(6)9-3-7/h3-5,7-8H,1-2H3	InChI=1S/C6H11NO2/c1-6(2)4(8)5(6)9-3-7/h3-5,7-8H,1-2H3/t4-,5+/m0/s1
