17
gdb 44368	3.43717	1.60429	1.3433	4.5991	70.47	-0.2544	0.0159	0.2704	958.8421	0.138572	-421.841191	-421.83454	-421.833596	-421.872363	26.96	
O	 0.0085166829	 0.1747749656	-0.9242695462	-0.330546
C	 0.0062635441	 1.109822548	-0.1711448642	 0.414215
C	-1.286471323	 1.7263945535	 0.3636849228	-0.385537
C	-1.1759108525	 3.1422813899	 0.9142700906	-0.041266
C	-0.5341164023	 3.4708500922	 2.2389464671	-0.067723
C	 0.5437094903	 2.4384109672	 2.5683322466	-0.269067
C	 1.1848856472	 2.7230832639	 1.170213401	 0.102674
O	 1.1861464065	 1.6487458637	 0.2235275801	-0.229438
C	 0.1600006209	 3.8266229749	 0.9199100669	-0.100361
H	-1.986612549	 1.692543731	-0.4744744088	 0.144482
H	-1.6871041611	 1.0314386779	 1.1122653015	 0.141834
H	-2.008872411	 3.7927366854	 0.6664125514	 0.100419
H	-1.007397544	 4.1404994445	 2.9456018931	 0.095277
H	 1.2067730718	 2.7518005178	 3.3774852533	 0.115739
H	 0.2216638318	 1.4097594725	 2.7583873165	 0.108744
H	 2.223105983	 3.0465693789	 1.2237346019	 0.105003
H	 0.3518670844	 4.7840054231	 0.4535675864	 0.09555
81.477	207.1703	361.9662	394.6717	448.9614	473.4897	550.3871	595.7457	701.6266	739.283	773.1937	799.2509	846.2423	875.8372	925.5659	959.3604	973.5876	985.0465	1021.4754	1027.6625	1068.2037	1089.9951	1103.0804	1146.1305	1166.4608	1189.0156	1232.1145	1241.7213	1259.7052	1305.398	1325.9712	1339.0325	1399.6097	1429.6909	1458.7616	1492.7358	1845.8108	3040.2962	3053.4467	3102.9804	3109.2833	3128.9275	3160.3596	3191.7132	3203.6427
O=C1CC2C3CC(O1)C23	O=C1C[C@H]2[C@H]3C[C@@H](O1)[C@@H]23	
InChI=1S/C7H8O2/c8-6-2-4-3-1-5(9-6)7(3)4/h3-5,7H,1-2H2	InChI=1S/C7H8O2/c8-6-2-4-3-1-5(9-6)7(3)4/h3-5,7H,1-2H2/t3-,4+,5-,7-/m1/s1
