21
gdb 90726	3.9073	1.11797	1.02493	1.503	82.44	-0.2494	0.079	0.3285	1237.3004	0.182799	-387.044766	-387.036465	-387.035521	-387.077753	33.172	
O	 0.8352985164	 0.6496680496	-0.3870815837	-0.436765
C	 0.1025941744	-0.3578076434	 0.2691026557	 0.167255
C	-0.1442216092	-0.1884636238	 1.7984102068	-0.272696
C	-1.654589826	-0.4455109264	 1.5826309907	-0.122952
C	-1.4395234159	-0.4170806225	 0.0235198458	-0.063452
C	-2.0162907728	-1.8498734218	-0.0988235955	-0.322041
C	-2.0781399623	-1.9183922071	 1.4385895987	 0.394729
C	-1.6628278336	-3.0651719886	 2.3158451087	-0.32143
C	-3.1102770784	-2.6346410208	 2.2576088716	-0.331672
H	 0.4457599538	 1.5000894646	-0.1572212304	 0.274851
H	 0.6047563212	-1.2935144812	 0.0045839857	 0.087267
H	 0.3957096044	-0.8562391066	 2.4757648337	 0.098814
H	 0.0531619544	 0.8453818638	 2.1043643392	 0.088719
H	-2.358525906	 0.2040149327	 2.1068104758	 0.062246
H	-1.8345483274	 0.3620618731	-0.630904353	 0.060217
H	-3.0063147944	-1.877004644	-0.5648819859	 0.099492
H	-1.3749573603	-2.5803686233	-0.6042216522	 0.095646
H	-1.3863218031	-3.9996123861	 1.8373977852	 0.110892
H	-1.1010249442	-2.8447646992	 3.2184375738	 0.111328
H	-3.5239604644	-2.1211050871	 3.120235079	 0.109813
H	-3.8169457665	-3.2764189319	 1.7401467803	 0.109738
48.1623	163.8192	222.8588	267.2397	301.3481	340.7596	352.8013	399.6465	483.7237	556.6925	672.2358	769.7903	783.7227	819.2009	843.6309	869.0308	884.8849	900.4425	919.9187	973.6164	981.8545	1010.1734	1020.0925	1047.5189	1057.0919	1074.6698	1101.3121	1127.115	1129.6857	1156.5506	1187.8359	1209.8933	1233.4477	1248.2954	1254.8221	1263.6066	1277.2328	1296.9296	1330.1581	1377.9587	1434.943	1462.7999	1470.6826	1482.4143	1500.3851	3032.6496	3035.9446	3060.0677	3078.4778	3082.0412	3094.4209	3097.0843	3117.5486	3122.3283	3195.0694	3210.4417	3802.4499
OC1CC2C1CC21CC1	O[C@H]1C[C@H]2[C@@H]1CC12CC1	
InChI=1S/C8H12O/c9-7-3-6-5(7)4-8(6)1-2-8/h5-7,9H,1-4H2	InChI=1S/C8H12O/c9-7-3-6-5(7)4-8(6)1-2-8/h5-7,9H,1-4H2/t5-,6-,7-/m0/s1
