22
gdb 86557	4.31865	0.86899	0.81826	2.559	83.25	-0.218	0.0734	0.2914	1494.1632	0.194336	-404.298139	-404.288984	-404.28804	-404.333142	33.454	
C	-0.0914136313	 1.5613820384	-0.0011883182	-0.392274
C	-0.0531522083	 0.0383157297	-0.0102852393	 0.011302
C	 1.0917752023	-0.5783104993	-0.8589694168	-0.178245
N	 1.8923559672	-0.7203423904	 0.3759659777	-0.06906
C	 0.673278872	-0.6011451045	 1.2041034842	-0.178245
C	 2.7260263902	-1.8806084676	 0.5322358029	-0.006507
C	 4.0548464152	-1.8498282204	-0.2551039548	-0.079245
O	 4.8310868556	-1.8962068523	 0.9590965001	-0.273035
C	 3.6429029532	-1.8723136928	 1.7755707598	-0.079245
H	 0.9020931355	 1.9725321388	 0.2048917338	 0.129873
H	-0.426515646	 1.9534576651	-0.967622978	 0.113808
H	-0.7782592057	 1.9342643249	 0.7664147262	 0.113808
H	-1.0446182518	-0.3705771244	-0.2159309761	 0.073719
H	 0.8064073694	-1.5456345632	-1.3049416323	 0.081267
H	 1.5473020423	 0.0481090042	-1.6344161479	 0.099079
H	 0.7879713037	 0.0066779636	 2.1088799659	 0.099079
H	 0.2408756539	-1.5764913784	 1.4829738724	 0.081267
H	 2.1631637663	-2.823728427	 0.4076094476	 0.053338
H	 4.2559853861	-2.7114100495	-0.9028996996	 0.096937
H	 4.2170761813	-0.921208269	-0.8158158847	 0.102721
H	 3.5698282514	-0.956537221	 2.3747911331	 0.102721
H	 3.5794546674	-2.748337105	 2.4320589539	 0.096937
49.025	72.857	95.5426	144.4433	240.3802	265.3393	328.9744	332.0071	418.0283	458.1871	637.9584	797.3385	832.704	882.5696	884.8497	886.2919	917.7244	928.0567	974.6917	1014.1515	1024.4545	1045.7453	1081.244	1108.4174	1110.2633	1134.333	1144.4912	1157.9836	1167.581	1170.5386	1224.8091	1258.7839	1273.188	1276.3709	1292.7009	1312.425	1337.039	1358.0692	1372.8113	1405.0531	1412.5715	1494.8483	1496.826	1500.2275	1505.6719	1525.7359	1528.4117	2923.1244	2957.5548	2966.6012	3010.8238	3021.9355	3028.9694	3050.1708	3051.5163	3062.7392	3065.5934	3079.5483	3094.365	3108.94
CC1CN(C1)C1COC1	C[C@H]1CN(C1)C1COC1	
InChI=1S/C7H13NO/c1-6-2-8(3-6)7-4-9-5-7/h6-7H,2-5H2,1H3	InChI=1S/C7H13NO/c1-6-2-8(3-6)7-4-9-5-7/h6-7H,2-5H2,1H3
