17
gdb 34797	4.06376	1.3157	1.24129	1.8958	77.11	-0.2511	0.0461	0.2971	1032.6922	0.136815	-384.603612	-384.59671	-384.595766	-384.634651	28.669	
C	-0.0559509605	-1.2113273778	-0.0848317479	-0.416789
C	-0.0307616275	-0.0096690955	-0.0346783908	 0.283252
C	-0.024663616	 1.4373933961	 0.0003613187	-0.167471
C	-0.0947148376	 2.0788723298	 1.4311670343	-0.082015
C	 1.4386679129	 1.7662099138	 1.5395281095	-0.236652
C	 1.3948845604	 2.1070325182	 0.0089447249	-0.082015
C	 1.0371601041	 3.6081404538	 0.0966472448	 0.024214
O	-0.3129036654	 3.9580746581	-0.2516236514	-0.246709
C	-0.0203318256	 3.5881493844	 1.1063060528	 0.024215
H	-0.0816182999	-2.2716206322	-0.1326753178	 0.188038
H	-0.7262513268	 1.8466144008	-0.7263609903	 0.123357
H	-0.8192862025	 1.738937203	 2.1690186277	 0.077741
H	 2.0400323497	 2.4154679558	 2.1822372341	 0.094494
H	 1.6526244772	 0.716083325	 1.7428280064	 0.122946
H	 2.1719031919	 1.7954842961	-0.686874382	 0.077741
H	 1.7824565551	 4.3859360747	-0.0280827927	 0.107826
H	-0.1946133594	 4.348559716	 1.8595607896	 0.107826
150.2042	152.178	345.89	394.1085	429.8553	500.5777	513.8796	590.8533	621.2984	629.0642	681.2615	798.8154	818.6472	851.9587	872.5836	886.0726	901.7778	939.7672	947.6141	978.5193	1014.5509	1051.209	1072.2001	1084.9563	1087.0708	1116.0147	1208.6898	1215.8677	1230.2696	1238.3894	1255.4757	1270.539	1292.7261	1337.2654	1402.5514	1497.7364	2233.4287	3062.1158	3112.4951	3132.4772	3133.4515	3138.9032	3172.4995	3184.385	3504.8132
C#CC1C2CC1C1OC21	C#C[C@H]1[C@H]2C[C@@H]1[C@H]1O[C@@H]21	
InChI=1S/C8H8O/c1-2-4-5-3-6(4)8-7(5)9-8/h1,4-8H,3H2	InChI=1S/C8H8O/c1-2-4-5-3-6(4)8-7(5)9-8/h1,4-8H,3H2/t4-,5+,6-,7-,8+
