19
gdb 108024	3.9021	1.44249	1.32739	1.082	76.66	-0.2295	0.0872	0.3167	1031.7597	0.160099	-385.839319	-385.832068	-385.831124	-385.870997	29.539	
C	-0.0096844104	 1.464627991	-0.2690572628	-0.375329
C	-0.107946956	 0.0150631222	 0.2218441547	-0.291572
C	-1.4946177088	-0.551058268	 0.1125727465	 0.465041
O	-2.4742483433	 0.1287094828	 0.8593317961	-0.273272
C	-3.6225051762	-0.6071547655	 0.5591295393	 0.060474
C	-3.5921741853	-1.1626627115	-0.8521040684	-0.130298
C	-3.3166105518	-2.0764133408	 0.341464248	-0.135258
C	-1.809545958	-2.035388417	 0.0254026573	-0.179237
C	-2.0858783243	-1.1215027738	-1.1693115611	-0.17058
H	 1.0095624983	 1.8461195638	-0.1569646829	 0.108086
H	-0.2873353765	 1.5417877551	-1.325117306	 0.115299
H	-0.6830326887	 2.1096837903	 0.3012108678	 0.135856
H	 0.5693296134	-0.6270188441	-0.352937389	 0.102928
H	 0.2157247386	-0.047187357	 1.2680020192	 0.110228
H	-4.5249406188	-0.2528626327	 1.0383317103	 0.104845
H	-4.41606973	-1.1398790406	-1.5514411016	 0.089641
H	-3.8839264863	-2.9015553856	 0.7484595619	 0.090207
H	-1.0866529444	-2.8293540284	 0.1536978812	 0.086434
H	-1.6181504213	-1.07316397	-2.1430938105	 0.086509
88.1032	154.132	203.1724	309.7618	362.6641	570.6215	590.7759	642.8871	710.0301	748.5881	762.7973	771.9553	783.7114	809.6989	850.2494	861.1419	907.9384	929.8313	946.4769	973.7026	993.3338	1000.8115	1020.9428	1030.2259	1046.7505	1087.9286	1100.1199	1124.0176	1171.7458	1195.0381	1196.2463	1253.81	1284.4358	1321.4475	1355.8986	1377.9269	1407.8779	1421.6346	1474.3295	1495.3019	1509.0685	3031.0299	3041.6064	3067.7103	3109.0649	3124.5498	3198.2766	3207.3095	3209.5509	3214.1508	3224.9053
CCC12OC3C4C3C1C24	CC[C@]12O[C@H]3[C@@H]4[C@H]3[C@H]1[C@H]24	
InChI=1S/C8H10O/c1-2-8-5-3-4(6(5)8)7(3)9-8/h3-7H,2H2,1H3	InChI=1S/C8H10O/c1-2-8-5-3-4(6(5)8)7(3)9-8/h3-7H,2H2,1H3/t3-,4+,5-,6+,7+,8-
