20
gdb 63066	3.1609	1.44236	1.36093	0.7432	78.35	-0.2177	0.0634	0.2811	1052.895	0.170792	-403.108212	-403.100055	-403.099111	-403.140324	32.493	
C	-0.2710562704	 1.5991532025	-0.0009972658	-0.476972
C	-0.0422885044	 0.1007872984	-0.0632811297	 0.318197
C	-1.1302838247	-0.6739517428	 0.6660427317	-0.432262
C	 0.6237639926	-0.6285937705	-1.1925756187	-0.11201
C	 1.5194904462	 0.0163820935	-2.2190230052	 0.030086
O	 1.7526109149	 1.4277635996	-2.1064855612	-0.24842
C	 2.7086079163	 0.5350575087	-1.5230422167	 0.031742
C	 2.5137359963	 0.2764218962	-0.0321961807	-0.207573
N	 1.2815316383	-0.5289885404	 0.140181548	-0.15236
H	 0.4836413698	 2.1764573291	-0.5246551906	 0.154184
H	-1.2441603142	 1.8382726706	-0.4434728707	 0.118257
H	-0.3083511901	 1.9130290635	 1.0495360024	 0.110977
H	-2.1066689945	-0.5054554157	 0.1981963945	 0.11171
H	-0.9182283822	-1.7455500594	 0.6622970776	 0.121518
H	-1.1945081064	-0.3453327972	 1.7093127615	 0.116554
H	 0.2494928054	-1.6117513673	-1.4748111082	 0.081441
H	 1.53713841	-0.3760523305	-3.2318597944	 0.101753
H	 3.7052084075	 0.5728152319	-1.957747738	 0.100707
H	 3.3550012051	-0.3147816037	 0.3470273594	 0.113135
H	 2.4775628643	 1.2066556134	 0.5454866049	 0.119339
145.5689	174.271	195.885	245.7071	276.7741	339.3996	375.2661	388.786	464.4457	571.5634	662.5121	718.7053	723.9888	762.9141	823.4379	863.9376	879.9664	925.7676	952.621	966.8273	984.5466	1020.6772	1047.2333	1058.8726	1085.9633	1111.2684	1131.3147	1148.5249	1221.7552	1248.1208	1258.5268	1316.8158	1325.9965	1334.2019	1396.41	1405.0617	1416.1951	1438.9666	1481.0445	1481.6418	1489.755	1504.5027	1518.5996	3027.732	3033.3906	3037.6247	3075.32	3083.6182	3094.7317	3110.8377	3123.1318	3136.7841	3159.3806	3202.0309
CC1(C)C2C3OC3CN12	CC1(C)[C@H]2[C@H]3O[C@H]3CN12	
InChI=1S/C7H11NO/c1-7(2)6-5-4(9-5)3-8(6)7/h4-6H,3H2,1-2H3	InChI=1S/C7H11NO/c1-7(2)6-5-4(9-5)3-8(6)7/h4-6H,3H2,1-2H3/t4-,5-,6+,8?/m0/s1
