14
gdb 123708	4.17934	1.74786	1.35579	4.0539	65.15	-0.2391	0.018	0.2571	884.2625	0.104787	-432.858642	-432.852743	-432.851799	-432.888964	23.462	
C	-0.035952419	 1.4587924255	 0.1423274981	-0.336634
C	 1.2788008783	 0.7334006518	 0.0343181329	 0.064582
O	 1.9892350696	 0.4078382189	 1.2328583017	-0.260632
C	 1.1822041518	-0.4285791305	 1.9157955289	 0.487683
N	 1.2198149732	-0.9756703732	 3.1023650493	-0.384809
C	 0.0274889897	-1.6652948679	 3.0925094302	 0.029325
N	-0.7238717479	-1.5519259526	 2.0045034655	-0.278603
N	 0.0689183234	-0.7498663603	 1.2367440495	 0.010546
C	-0.0277353899	-0.0508294349	-0.0031205383	-0.027333
H	-0.3351540044	 1.8748746547	 1.0977574322	 0.152064
H	-0.3251598016	 2.0352801619	-0.7294247632	 0.139651
H	 1.9437914684	 0.8683028934	-0.8070662157	 0.135374
H	-0.2883335456	-2.2741333613	 3.9264513017	 0.130879
H	-0.4225826961	-0.5774232157	-0.8619512328	 0.137907
127.2211	266.9441	368.7974	464.7899	479.377	656.0838	667.2773	729.6331	748.6155	785.004	803.7179	828.1081	893.3494	959.0596	971.1337	985.115	1040.3466	1070.2132	1084.2723	1126.5572	1164.2471	1185.14	1204.6259	1263.6097	1275.9099	1360.6564	1395.4122	1431.1254	1461.0636	1518.9551	1615.2015	3140.9068	3203.7296	3220.7438	3237.0878	3262.0101
C1C2OC3=NC=NN3C12	C1[C@H]2Oc3ncnn3[C@@H]12	
InChI=1S/C5H5N3O/c1-3-4(1)9-5-6-2-7-8(3)5/h2-4H,1H2	InChI=1S/C5H5N3O/c1-3-4(1)9-5-6-2-7-8(3)5/h2-4H,1H2/t3-,4+/m0/s1
