17
gdb 39845	2.92741	1.76378	1.38994	2.0182	71.46	-0.2375	0.0603	0.2978	948.5854	0.138028	-417.924756	-417.917986	-417.917042	-417.955758	27.708	
C	-0.1089363697	 1.4710915818	-0.0164669178	-0.271959
N	 1.194716375	 0.787162947	 0.0624007885	-0.368367
C	-0.0438158238	-0.0087055758	 0.0107619556	 0.371311
C	-0.3345796698	-0.8636810672	 1.2253192089	-0.139508
N	-1.7420137727	-1.2795407777	 1.376083204	-0.323084
C	-0.7728127284	-2.2089018554	 0.7577710303	-0.081503
C	-0.7869221719	-2.1849947638	-0.7625828406	 0.047093
O	-1.7157209216	-1.2633443212	-1.3343613561	-0.231201
C	-0.3530806473	-0.8480754608	-1.2083625539	-0.089199
H	-0.3966641385	 2.0122151104	 0.880128691	 0.124938
H	-0.3970446318	 1.950270861	-0.9485522109	 0.118424
H	 1.6503821723	 0.7908542157	-0.8480756847	 0.231438
H	 0.2848734203	-0.7131302256	 2.1032388083	 0.098765
H	-1.893756722	-1.5637791529	 2.341864944	 0.233194
H	-0.4968705518	-3.1248292728	 1.2676919128	 0.09054
H	-0.6086533913	-3.0966220567	-1.3258344972	 0.098321
H	 0.165292763	-0.6460988062	-2.1457112621	 0.090796
129.9695	214.2574	312.2245	317.9564	391.0252	470.6408	562.7478	592.595	713.308	796.9336	804.0453	844.4305	869.0202	873.989	895.6115	915.5804	932.8924	941.0916	970.3255	987.3847	1027.449	1057.7049	1083.1684	1098.7781	1129.0376	1146.412	1162.9865	1226.6044	1253.8103	1259.0234	1290.4365	1320.6493	1342.5286	1378.3612	1416.4005	1449.2327	1514.4232	3110.3096	3110.6659	3153.7241	3167.8319	3181.5195	3197.1948	3483.683	3489.4216
C1NC11C2NC2C2OC12	C1N[C@]21[C@H]1N[C@H]1[C@H]1O[C@@H]21	
InChI=1S/C6H8N2O/c1-6(7-1)4-2(8-4)3-5(6)9-3/h2-5,7-8H,1H2	InChI=1S/C6H8N2O/c1-6(7-1)4-2(8-4)3-5(6)9-3/h2-5,7-8H,1H2/t2-,3+,4-,5+,6+/m0/s1
