20
gdb 60850	3.15819	1.07837	0.93605	2.0882	76.22	-0.2437	-0.0449	0.1989	1316.0735	0.16839	-440.273214	-440.26323	-440.262286	-440.308319	36.47	
C	-0.0172927981	 1.4262038565	-0.2752300119	-0.409052
C	 0.13902822	-0.0440751501	 0.0299390499	-0.026057
N	 1.5118902125	-0.594201216	 0.0641534488	-0.375157
C	 0.7062742442	-0.5956176779	 1.2939226528	 0.277374
C	 1.1858044772	 0.2959148228	 2.4224142202	-0.46802
C	 0.145992264	-1.958553432	 1.7537177416	-0.034402
O	-0.3290575002	-2.7190189226	 0.6768110086	-0.430109
C	 1.1938786979	-2.7697736014	 2.5018937488	 0.143749
O	 1.5089262852	-3.8755019064	 2.1295045054	-0.264906
H	 0.8030565602	 2.0182444831	 0.1355583035	 0.125868
H	-0.0221671765	 1.5830869614	-1.3592254766	 0.124202
H	-0.9626069983	 1.8124816138	 0.1218558709	 0.115391
H	-0.605762774	-0.681625049	-0.4390020286	 0.107166
H	 1.4919197934	-1.5291399972	-0.3406042406	 0.229157
H	 1.4251377444	 1.2944287458	 2.0559012219	 0.135985
H	 0.4172944224	 0.3959543062	 3.198028925	 0.115476
H	 2.0936815402	-0.097881367	 2.8907668666	 0.123063
H	-0.6660721909	-1.7575409971	 2.4773685393	 0.09989
H	 0.1342618764	-3.571249581	 0.7383260688	 0.299021
H	 1.6428857601	-2.314756242	 3.4035928154	 0.111361
47.6415	103.6722	147.4159	155.283	195.0343	223.7068	299.8803	318.2649	349.2098	361.4661	442.0109	468.5483	530.1052	582.7797	686.049	773.3507	787.66	836.8404	892.2585	955.0213	992.8164	1007.7914	1037.4354	1081.9788	1097.6261	1117.2981	1150.5666	1163.6871	1245.9881	1263.0394	1281.2905	1318.1008	1363.9242	1392.0919	1410.3975	1425.5218	1437.2215	1456.4865	1480.7639	1490.504	1500.4582	1513.0354	1805.4572	2934.4242	2972.7175	3034.4401	3037.3682	3093.1808	3094.8164	3124.0053	3142.9201	3153.093	3477.737	3660.1785
CC1NC1(C)C(O)C=O	C[C@H]1N[C@]1(C)[C@@H](O)C=O	
InChI=1S/C6H11NO2/c1-4-6(2,7-4)5(9)3-8/h3-5,7,9H,1-2H3	InChI=1S/C6H11NO2/c1-4-6(2,7-4)5(9)3-8/h3-5,7,9H,1-2H3/t4-,5+,6+/m1/s1
