17
gdb 34436	2.99865	1.73296	1.2701	5.627	76.64	-0.2491	0.0255	0.2746	982.4593	0.139145	-380.829061	-380.82224	-380.821296	-380.860184	27.404	
N	-0.0119479649	-1.1265858332	 0.0348699104	-0.340688
C	 0.0107895314	 0.0289987905	 0.0145743671	 0.203945
C	-0.0118613525	 1.4752136158	 0.0463166216	 0.246767
C	-0.9258139045	 2.1593328216	 1.0693138981	-0.303334
C	-0.6306447417	 3.6532271061	 0.7466140472	-0.257516
C	 0.3798962072	 3.4828595007	-0.3819097947	-0.040592
C	 1.3290196005	 2.2788706494	-0.0807210728	-0.071203
N	 1.404629342	 1.8821317761	-1.5326461147	-0.320212
C	-0.0285588927	 2.2843011966	-1.2972057194	-0.071204
H	-1.9730684954	 1.8864555462	 0.9154863588	 0.123191
H	-0.6597248051	 1.8811755512	 2.0923923869	 0.123192
H	-1.524211142	 4.1953033915	 0.4239649069	 0.112597
H	-0.2098257093	 4.1900022038	 1.6017141915	 0.112598
H	 0.8121361093	 4.3633403552	-0.8603563052	 0.07732
H	 2.1867462334	 2.2251890891	 0.5915969938	 0.095936
H	 1.8803250455	 2.6199716127	-2.0602220422	 0.213269
H	-0.7908224012	 2.2371030268	-2.0765100433	 0.095935
152.1502	155.3816	245.4854	351.6921	417.6708	515.958	543.1679	595.2402	680.5848	716.5946	736.5144	819.264	842.2698	901.3379	908.4311	918.6863	946.3908	1009.581	1043.0914	1044.5309	1062.7145	1129.9343	1141.4613	1149.6493	1180.5695	1191.1227	1219.1109	1245.3138	1250.6998	1274.0193	1291.9612	1292.25	1331.2473	1364.7652	1489.4052	1510.5541	2357.6468	3055.3196	3068.135	3092.3959	3103.9188	3105.7056	3114.041	3116.1105	3395.615
N#CC12CCC3C1NC23	N#C[C@@]12CC[C@H]3[C@@H]1N[C@@H]23	
InChI=1S/C7H8N2/c8-3-7-2-1-4-5(7)9-6(4)7/h4-6,9H,1-2H2	InChI=1S/C7H8N2/c8-3-7-2-1-4-5(7)9-6(4)7/h4-6,9H,1-2H2/t4-,5-,6+,7-
