15
gdb 44299	3.89519	1.78441	1.56825	4.5978	66.94	-0.239	0.0068	0.2458	838.2793	0.116113	-416.7737	-416.767918	-416.766973	-416.803676	24.318	
O	-0.0085029034	-0.0594652738	-0.0042809833	-0.372231
C	-0.0152965724	 1.1472268443	 0.0519954141	 0.430568
N	-1.1271531124	 1.973237758	 0.0989648017	-0.318986
C	-0.7237867679	 3.3542279768	-0.0477072548	-0.02049
C	 0.0389090857	 3.6882255489	-1.3500470157	-0.067002
C	 1.2311545259	 4.1683760148	-0.6186969328	-0.059448
C	 0.6724726424	 3.4512297361	 0.6477216805	-0.095572
C	 1.1612590418	 2.1225764735	 0.0461541883	-0.105745
N	 1.2829187774	 2.8450984812	-1.3072592632	-0.146976
H	-2.0312697594	 1.6184370244	-0.1736164926	 0.252596
H	-1.4800685918	 4.0746641217	 0.2593402572	 0.096598
H	-0.3434808106	 3.9447199518	-2.3292165339	 0.106893
H	 1.9350083661	 4.9698218963	-0.7913846968	 0.110093
H	 0.764454152	 3.7192668996	 1.6974784731	 0.088418
H	 2.1205801567	 1.7037769863	 0.3387791682	 0.101283
156.5069	348.5751	428.7685	488.2632	516.1435	616.7592	685.202	711.2715	763.3033	808.8397	826.714	849.7727	887.5698	899.7079	922.0376	939.5326	959.8249	981.9116	999.2418	1035.9199	1052.3462	1136.1597	1145.2085	1189.9103	1207.9533	1226.3745	1242.5197	1254.8058	1278.2161	1318.1507	1348.8927	1401.4563	1844.0824	3133.2833	3146.9333	3160.0333	3203.0595	3224.3827	3628.08
O=C1NC2C3C4C2C1N34	O=C1N[C@@H]2[C@H]3[C@H]4[C@@H]2[C@@H]1N34	
InChI=1S/C6H6N2O/c9-6-4-1-2(7-6)5-3(1)8(4)5/h1-5H,(H,7,9)	InChI=1S/C6H6N2O/c9-6-4-1-2(7-6)5-3(1)8(4)5/h1-5H,(H,7,9)/t1-,2+,3-,4+,5+,8?/m1/s1
