21
gdb 56159	3.53862	0.74858	0.7204	1.9436	79.4	-0.2446	-0.0097	0.235	1674.8926	0.178546	-424.237066	-424.226455	-424.225511	-424.274541	37.289	
C	 0.0178951269	 1.412415727	 0.4648178392	-0.4734
C	 0.0985634639	-0.0398030606	 0.0261851512	 0.376645
O	 1.1355479808	-0.5363726213	-0.3509001627	-0.290767
C	-1.200246551	-0.8334042891	 0.0900490793	-0.299135
C	-1.0413193142	-2.2943759399	-0.338426253	-0.25971
C	-2.3136052012	-3.1014921356	-0.1498566094	 0.42159
C	-3.4737296555	-2.7913960163	-1.0726155363	-0.462964
C	-2.2334414601	-4.4298214048	 0.4766885103	-0.230396
O	-2.681335753	-3.2981175324	 1.228180291	-0.280913
H	 0.998527716	 1.8813784238	 0.3767438624	 0.142427
H	-0.708079395	 1.9581071395	-0.1484306336	 0.136578
H	-0.3308904552	 1.4782479455	 1.5014989501	 0.140273
H	-1.5866154424	-0.7850778741	 1.1169643048	 0.138663
H	-1.9437059123	-0.3060935925	-0.5230900606	 0.117348
H	-0.7227694635	-2.3426415777	-1.3856231627	 0.110524
H	-0.2352970024	-2.7428415341	 0.2484608182	 0.118096
H	-3.1982111034	-2.9763972349	-2.1165296704	 0.122546
H	-4.3370438804	-3.4132571833	-0.8242798108	 0.128252
H	-3.7801198639	-1.7435432233	-0.9876686696	 0.123941
H	-2.9964311688	-5.1774187542	 0.2609600969	 0.108277
H	-1.2644324253	-4.8325958519	 0.7692089558	 0.112127
24.9388	57.9977	78.2696	116.5122	125.5415	193.8298	224.7635	325.966	351.8839	380.0649	429.2496	479.7381	507.3935	585.0877	726.6346	738.1451	817.7751	863.592	901.3517	922.4199	926.6054	959.0631	1005.212	1064.5588	1081.7422	1111.4972	1135.4699	1164.7609	1177.7007	1190.3511	1274.7533	1299.3208	1324.9452	1378.7866	1385.7753	1407.3342	1424.0698	1449.3825	1465.2916	1474.0015	1477.179	1487.5772	1498.5278	1532.2606	1810.4515	3020.9707	3036.5167	3038.0972	3049.5159	3056.6595	3076.7292	3097.4299	3099.1522	3101.9875	3123.8682	3152.2151	3161.8573
CC(=O)CCC1(C)CO1	CC(=O)CC[C@@]1(C)CO1	
InChI=1S/C7H12O2/c1-6(8)3-4-7(2)5-9-7/h3-5H2,1-2H3	InChI=1S/C7H12O2/c1-6(8)3-4-7(2)5-9-7/h3-5H2,1-2H3/t7-/m0/s1
