16
gdb 55546	4.65449	0.87235	0.77251	1.3354	70.79	-0.2367	-0.0231	0.2136	1429.3191	0.124528	-471.221821	-471.213027	-471.212083	-471.256182	31.906	
N	 0.2341784753	 1.0649479267	-0.4342885849	-0.55143
C	 0.2860051564	-0.0908491108	 0.2897737626	 0.433474
N	 1.28765186	-0.6972521923	 0.8030582228	-0.561498
N	-0.9724458889	-0.6825392388	 0.5518714339	-0.368176
C	-2.2030427151	-0.3529021716	 0.0578014452	 0.463974
O	-2.422499172	 0.5595518421	-0.7228056664	-0.387993
C	-3.319339472	-1.2232332539	 0.5851192616	-0.047693
C	-4.6700419928	-0.6428509564	 0.685260486	-0.161381
O	-4.3328913267	-1.5408496163	-0.3619927449	-0.207441
H	 1.0966459147	 1.3950479155	-0.8315315931	 0.253197
H	-0.6359393057	 1.2735148871	-0.9101875093	 0.284816
H	 2.1594217549	-0.2162075057	 0.5918700643	 0.209768
H	-0.8809625629	-1.493635607	 1.1457462015	 0.27005
H	-3.0418794992	-2.0403834353	 1.2513056481	 0.102114
H	-5.3532389957	-1.0283865619	 1.4401238416	 0.124357
H	-4.8056069102	 0.3913773686	 0.3787866611	 0.143862
47.159	87.1744	129.649	165.9873	305.7958	326.5145	330.7846	380.9285	438.2305	543.2214	587.2629	634.6688	716.0017	727.8491	766.3257	797.5864	864.0231	896.8019	937.0157	970.5138	1040.9159	1098.1589	1126.112	1140.525	1160.7547	1167.221	1210.3846	1294.4756	1419.1928	1444.7228	1504.1144	1511.783	1620.4149	1742.9606	1774.5002	3094.9839	3110.2057	3198.286	3508.6745	3512.9651	3625.5603	3700.9602
NC(=N)NC(=O)C1CO1	NC(=N)NC(=O)[C@H]1CO1	
InChI=1S/C4H7N3O2/c5-4(6)7-3(8)2-1-9-2/h2H,1H2,(H4,5,6,7,8)	InChI=1S/C4H7N3O2/c5-4(6)7-3(8)2-1-9-2/h2H,1H2,(H4,5,6,7,8)/t2-/m1/s1
