17
gdb 75297	2.3285	1.8796	1.18487	3.9741	73.75	-0.2446	-0.001	0.2436	1043.495	0.136905	-421.87667	-421.869074	-421.86813	-421.908833	28.975	
C	-0.1971601017	 1.5381044307	 0.0822374659	-0.498284
C	-0.0670351145	 0.0502487553	 0.012690005	 0.320014
C	 0.0664019823	-0.718891685	-1.0731399041	-0.161934
C	 0.1979508567	-2.1914080291	-0.7631324847	-0.281935
C	 0.2553736669	-2.2241255508	 0.7664067487	 0.11061
O	 1.6303575032	-2.1525196138	 1.288375859	-0.257663
C	 1.4214041892	-0.9065553764	 1.8277625899	 0.458334
O	 2.1809533701	-0.2493127645	 2.462424185	-0.327779
C	-0.0074544963	-0.7882193716	 1.2719070946	-0.319689
H	 0.6188567382	 1.9713351454	 0.6730012932	 0.151329
H	-0.1797815479	 1.9883005991	-0.9134262784	 0.128368
H	-1.1322782012	 1.8317672725	 0.575534581	 0.128476
H	 0.0883206449	-0.3375987827	-2.088555097	 0.097158
H	-0.6514197887	-2.7721649595	-1.1450581271	 0.114852
H	 1.1039163773	-2.6418336171	-1.1866014197	 0.13212
H	-0.2700237818	-3.0520030313	 1.2421409671	 0.099462
H	-0.7861530564	-0.5885028511	 2.0109574918	 0.10656
121.1219	130.6099	185.9591	244.7981	306.9656	363.6693	463.6474	505.0098	579.3649	704.3782	717.8643	778.635	831.803	850.1933	878.7057	932.6925	953.4153	990.0837	1006.3311	1023.6192	1041.1691	1069.208	1120.3372	1168.7282	1179.2813	1196.3371	1252.5872	1279.889	1326.2244	1331.5819	1357.6164	1416.3753	1468.4273	1477.6503	1490.2223	1712.2771	1931.2948	3023.0122	3025.4759	3061.4086	3073.5059	3095.4846	3118.5198	3118.8539	3190.1359
CC1=CCC2OC(=O)C12	CC1=CC[C@H]2OC(=O)[C@@H]12	
InChI=1S/C7H8O2/c1-4-2-3-5-6(4)7(8)9-5/h2,5-6H,3H2,1H3	InChI=1S/C7H8O2/c1-4-2-3-5-6(4)7(8)9-5/h2,5-6H,3H2,1H3/t5-,6+/m1/s1
