16
gdb 80152	2.3828	1.73912	1.53573	2.5994	64.66	-0.2377	0.0028	0.2404	932.1142	0.12462	-474.997413	-474.9896	-474.988656	-475.029229	30.399	
O	-0.00180075	 1.4124544925	 0.1897057413	-0.419314
C	-0.076623396	 0.0314156921	 0.0887501863	 0.045485
C	-0.5390995047	-0.886784153	 1.2437334312	-0.092741
N	-1.0223751948	-0.2992487207	 2.4482383818	-0.215973
C	-1.9618208587	 0.5405912774	 2.371781198	 0.080004
O	-2.6404179944	 0.9303940146	 1.2431586393	-0.247198
C	-2.6872720085	-0.0467410303	 0.1864924165	-0.16241
C	-1.3542644203	-0.7455922798	-0.0250736424	 0.25009
O	-1.4290284138	-1.8547666456	-0.8715237153	-0.452194
H	-0.8493282369	 1.7528766135	 0.499225012	 0.304956
H	 0.7624642598	-0.3576286284	-0.4803113134	 0.119052
H	 0.0281386663	-1.8004311445	 1.3821345418	 0.111159
H	-2.3192838434	 1.0841502221	 3.242108517	 0.135209
H	-3.4407099573	-0.8058205488	 0.4290095145	 0.133311
H	-3.0142578982	 0.4993518236	-0.703776878	 0.12094
H	-1.335771399	-1.5493346447	-1.7814255806	 0.289623
165.621	185.0312	226.7502	257.123	330.5331	338.6172	377.6769	457.2713	459.2336	513.7809	548.9584	667.1489	722.9249	803.9537	858.7835	912.1088	931.2445	957.6674	970.8895	1044.7465	1088.896	1105.7005	1126.0818	1143.7812	1212.5897	1253.1108	1303.7273	1327.9784	1334.21	1354.5496	1394.0936	1413.8665	1469.912	1511.5699	1720.7329	3032.7239	3084.8954	3161.1832	3175.4511	3181.7063	3786.6118	3788.6041
OC1C2N=COCC12O	O[C@H]1[C@H]2N=COC[C@@]12O	
InChI=1S/C5H7NO3/c7-4-3-5(4,8)1-9-2-6-3/h2-4,7-8H,1H2	InChI=1S/C5H7NO3/c7-4-3-5(4,8)1-9-2-6-3/h2-4,7-8H,1H2/t3-,4+,5+/m1/s1
