21
gdb 75331	2.62295	1.41128	1.0658	1.4818	84.45	-0.2296	0.0297	0.2594	1204.1709	0.182782	-387.100845	-387.092169	-387.091225	-387.133569	34.6	
C	 0.6373631782	 1.3525546434	 0.1013416392	-0.474728
C	 0.0044551858	-0.0065786904	-0.0298465937	 0.318532
C	 0.1172855777	-0.7405558299	-1.1397925425	-0.157458
C	-0.5098398826	-2.0923359994	-1.3525882237	-0.276146
C	-0.9461225163	-2.7685011112	-0.0662521564	-0.097915
C	 0.0439438987	-2.9421155418	 1.0739714321	-0.316707
C	-1.0804861221	-1.9625469742	 1.2022335266	 0.411199
O	-2.0624508393	-2.3422666926	 2.1325142407	-0.472072
C	-0.7986554341	-0.4719871334	 1.1639194346	-0.372955
H	 1.3535969282	 1.3772391588	 0.9329552351	 0.122638
H	 1.1635783308	 1.6439283352	-0.8115727339	 0.118663
H	-0.1153917521	 2.121412492	 0.3202453977	 0.120251
H	 0.688199074	-0.3415260936	-1.9759016328	 0.07542
H	-1.3786936063	-1.9830219407	-2.0198022845	 0.106221
H	 0.1907111396	-2.7398772537	-1.8991525336	 0.104648
H	-1.6624320722	-3.5768581502	-0.1789575979	 0.082273
H	-0.033840945	-3.845068983	 1.6679638678	 0.117403
H	 1.0491929723	-2.5558167983	 0.9419413861	 0.112931
H	-2.907411354	-1.9935477917	 1.8265050684	 0.27478
H	-0.3018198874	-0.1690189891	 2.0961706014	 0.107673
H	-1.7632977341	 0.0621590639	 1.1672041095	 0.095348
101.0906	178.9677	215.4673	268.3451	283.4229	313.684	341.899	408.5237	414.7561	454.4151	471.512	512.8057	663.5801	739.7823	783.1516	819.642	871.7763	912.4778	931.8944	941.2253	969.2287	990.7703	1037.0429	1055.9957	1064.4989	1076.3195	1101.7245	1120.7361	1169.7209	1206.4163	1237.9658	1241.969	1287.3405	1309.6428	1358.8657	1370.0497	1389.0838	1413.5319	1417.7633	1471.3375	1479.0685	1482.4601	1492.5107	1499.9671	1742.258	2971.8906	2987.6296	3011.9795	3012.3398	3020.8191	3057.4237	3109.7776	3134.749	3142.871	3151.932	3228.1648	3787.9548
CC1=CCC2CC2(O)C1	CC1=CC[C@H]2C[C@@]2(O)C1	
InChI=1S/C8H12O/c1-6-2-3-7-5-8(7,9)4-6/h2,7,9H,3-5H2,1H3	InChI=1S/C8H12O/c1-6-2-3-7-5-8(7,9)4-6/h2,7,9H,3-5H2,1H3/t7-,8-/m0/s1
