20
gdb 15422	4.81696	0.86069	0.81063	0.8016	72.33	-0.2593	0.0784	0.3378	1473.0992	0.175237	-386.119802	-386.110201	-386.109257	-386.154973	33.686	
C	 0.5588347291	 1.3690266331	 0.2672880014	-0.374543
C	-0.2887013994	 0.1604366521	-0.1502167587	-0.213091
C	 0.2670770678	-0.5113546582	-1.3830168064	 0.076748
O	 1.4593499525	-1.2933891983	-1.2278114505	-0.269008
C	 0.2594097557	-1.9594089513	-1.6512752845	 0.048805
C	-0.3082469116	-3.0159940573	-0.7364089123	-0.216426
C	 0.5448016367	-4.2814453472	-0.7410366259	-0.064537
O	-0.0881550373	-5.2293522888	 0.1045530794	-0.422601
H	 1.5841385515	 1.0591596685	 0.489952621	 0.134166
H	 0.6009942006	 2.1189939869	-0.5301318642	 0.114681
H	 0.145770824	 1.8507641407	 1.1582627586	 0.113422
H	-0.3406459082	-0.5550939126	 0.6749249818	 0.107867
H	-1.3174099284	 0.4794871576	-0.3633412221	 0.100602
H	 0.2961559651	 0.1400589078	-2.2614132106	 0.082203
H	 0.2855614579	-2.2540042819	-2.7042285658	 0.083883
H	-0.3821335246	-2.6506015298	 0.2908118033	 0.114222
H	-1.3224762281	-3.2735162836	-1.0663150178	 0.109165
H	 0.638687533	-4.6642898792	-1.7709212298	 0.082755
H	 1.5572471398	-4.0348294631	-0.3883138807	 0.105453
H	 0.4709743238	-6.0101150354	 0.1516718138	 0.286237
57.2949	84.8173	92.5741	127.4678	196.8148	229.372	260.5993	289.8196	349.8123	456.6737	503.9977	557.4653	743.6786	794.1319	824.9604	834.4564	941.0645	969.8142	1016.5321	1037.7299	1061.3636	1077.649	1114.4344	1129.9986	1177.2106	1187.1833	1231.559	1246.6389	1289.9346	1303.4597	1317.0609	1326.9944	1348.5893	1407.3563	1419.5182	1462.5043	1470.8904	1481.8034	1497.3952	1498.5336	1510.3887	1529.4998	2963.8308	3008.1098	3028.4395	3036.4079	3041.2767	3057.0653	3071.2847	3087.138	3105.6437	3112.712	3117.347	3831.7659
CCC1OC1CCO	CC[C@H]1O[C@H]1CCO	
InChI=1S/C6H12O2/c1-2-5-6(8-5)3-4-7/h5-7H,2-4H2,1H3	InChI=1S/C6H12O2/c1-2-5-6(8-5)3-4-7/h5-7H,2-4H2,1H3/t5-,6+/m1/s1
