23
gdb 116302	2.08504	1.28391	0.88238	1.4152	82.07	-0.247	0.081	0.328	1396.7404	0.205734	-425.426325	-425.416214	-425.41527	-425.462301	36.7	
C	 0.311709079	 1.1966539114	 0.4168269176	-0.233801
O	 0.2061581514	-0.1824185183	 0.1626394901	-0.249551
C	 0.5179551691	-0.5532965266	-1.1781843559	 0.106221
C	 2.0522755667	-0.6153738902	-1.4231688602	-0.22615
C	 2.4372532228	-2.1215056377	-1.401872721	-0.212641
C	 1.1954702853	-2.8457129884	-0.8519460467	-0.19867
C	 0.03234614	-1.9978007458	-1.3898692601	 0.025119
C	-1.3340354413	-2.3010747287	-0.7951321288	-0.104271
O	-1.6903055074	-3.6209326617	-1.1948696403	-0.42916
H	 1.3374379661	 1.5738718562	 0.286867513	 0.103848
H	-0.3511553115	 1.7820253754	-0.2406515022	 0.101852
H	 0.0124823132	 1.3601231256	 1.4554262869	 0.124315
H	 0.0194816229	 0.1512362831	-1.861253843	 0.053596
H	 2.3252101743	-0.1428249336	-2.3712755986	 0.095344
H	 2.5641205109	-0.0599742659	-0.632514863	 0.106188
H	 2.6472102824	-2.4684411101	-2.4197703154	 0.097648
H	 3.3369609348	-2.3141982122	-0.8114907789	 0.094097
H	 1.1310562904	-3.8921036804	-1.1562489266	 0.104342
H	 1.1870178759	-2.8140347671	 0.2442805907	 0.101838
H	-0.0358013262	-2.1599196706	-2.474722872	 0.077699
H	-1.289742651	-2.2096655573	 0.2976508919	 0.101097
H	-2.0717941702	-1.5661006521	-1.1571464434	 0.076916
H	-2.5048384176	-3.8583893452	-0.7429545243	 0.284125
32.0381	95.4776	117.2791	152.0972	175.0035	213.5008	246.3095	271.4073	346.2122	362.2713	452.4542	513.2761	599.428	715.0773	795.8748	814.8892	885.1358	895.199	917.6539	971.8851	995.3627	1026.1033	1031.6978	1075.1997	1092.5249	1121.8743	1165.2734	1170.0342	1185.5757	1198.1765	1221.6211	1245.5989	1252.6848	1260.2294	1285.4251	1312.7547	1324.6221	1340.6906	1347.2861	1382.0532	1397.4566	1456.5844	1474.801	1480.04	1489.2092	1490.8874	1507.8929	1512.1197	1521.3827	2965.1271	2969.5605	2981.1375	3012.903	3017.1574	3035.4361	3040.035	3044.4031	3059.2957	3084.2286	3104.4697	3108.3289	3114.3216	3832.6775
COC1CCCC1CO	CO[C@H]1CCC[C@H]1CO	
InChI=1S/C7H14O2/c1-9-7-4-2-3-6(7)5-8/h6-8H,2-5H2,1H3	InChI=1S/C7H14O2/c1-9-7-4-2-3-6(7)5-8/h6-8H,2-5H2,1H3/t6-,7-/m0/s1
