16
gdb 26866	3.10199	1.4154	0.9784	7.8177	77.21	-0.2108	-0.0311	0.1797	1152.0234	0.125954	-434.145337	-434.137082	-434.136138	-434.177947	31.238	
C	-0.0028551085	 1.5519579046	 0.0341766098	-0.528573
C	-0.0135233959	 0.0481434053	 0.0136565718	 0.173976
C	-1.1890817005	-0.6852763036	 0.0436673631	 0.387926
N	-2.435287291	-0.1251793775	 0.1373259895	-0.57989
N	-1.1009096389	-2.0362581847	 0.0260487038	-0.408094
C	 0.1198608234	-2.7825893251	-0.0150559796	 0.43568
O	 0.0437301056	-3.9925729246	-0.0158737139	-0.395074
N	 1.2706623772	-2.0340996089	-0.0517099064	-0.352876
C	 1.1652298839	-0.7254807426	-0.0340798315	-0.023192
H	 1.0253556198	 1.9207905432	-0.0106247116	 0.139308
H	-0.5341850287	 1.9915437181	-0.8218405779	 0.120332
H	-0.454465433	 1.9644598992	 0.9457418976	 0.130959
H	-2.5038382713	 0.8542421373	-0.0884946547	 0.272969
H	-3.2273929982	-0.6746784369	-0.158537941	 0.263822
H	-1.9303717795	-2.6120748872	 0.0757523326	 0.255777
H	 2.1117703556	-0.1804546466	-0.0638144017	 0.106949
105.4056	148.8132	192.7053	265.4415	282.6387	354.8116	367.0767	445.3529	460.2721	473.1693	563.2801	588.2912	632.7148	731.3429	761.4596	804.4327	806.4897	931.706	999.6829	1000.5945	1070.2834	1093.1452	1111.4736	1245.0453	1315.1546	1347.8797	1417.0147	1421.0971	1485.9878	1493.2103	1502.6619	1590.2685	1658.9099	1672.5746	1810.6516	3000.3622	3045.1291	3098.5855	3109.0498	3588.1356	3597.4058	3697.8678
CC1=C(N)NC(=O)N=C1	Cc1c(N)[nH]c(=O)nc1	
InChI=1S/C5H7N3O/c1-3-2-7-5(9)8-4(3)6/h2H,1H3,(H3,6,7,8,9)	InChI=1S/C5H7N3O/c1-3-2-7-5(9)8-4(3)6/h2H,1H3,(H3,6,7,8,9)
