19
gdb 109429	2.31379	1.31651	1.0416	4.1349	71.82	-0.2483	-0.0295	0.2188	1211.1099	0.156476	-460.166416	-460.156885	-460.155941	-460.200567	35.841	
C	-0.2592591552	 1.5786147617	-0.1008531691	-0.450007
C	-0.017788851	 0.0739242468	-0.038928412	 0.35827
O	-1.1994236004	-0.6523435199	-0.3083938066	-0.474474
C	 1.2598200564	-0.3871986169	-0.8399256204	-0.399219
C	 1.9518573212	-0.5551958107	 0.5114723443	 0.401068
O	 3.0985724891	-0.5824129393	 0.8767295275	-0.324186
C	 0.6393132173	-0.4567611612	 1.2807894055	-0.14259
C	 0.7067044198	 0.3254375398	 2.5926345999	-0.094756
O	 1.5908866271	-0.3148308734	 3.4916548808	-0.422203
H	 0.647091021	 2.1478934615	 0.1265229051	 0.129524
H	-0.5789105964	 1.8674728806	-1.109786807	 0.112515
H	-1.0419444501	 1.874398574	 0.6034547797	 0.134996
H	-1.5906714516	-0.3067820364	-1.1184132914	 0.279482
H	 1.083443807	-1.3545419427	-1.32081398	 0.138804
H	 1.7194560584	 0.3011014343	-1.5539031536	 0.124085
H	 0.2481061839	-1.4628314477	 1.472487476	 0.128115
H	 1.015309587	 1.3645712083	 2.3984743486	 0.086961
H	-0.2739538397	 0.3606858235	 3.0781794364	 0.116477
H	 2.4362298463	-0.4047358724	 3.0310708463	 0.29714
71.1934	114.9918	156.3739	202.4662	268.1935	291.0736	310.8908	328.1022	362.6342	401.9686	435.9088	494.0854	519.4276	603.2921	630.9894	761.9931	803.0272	834.4104	889.774	961.7652	976.995	1034.2749	1062.9022	1085.3862	1099.1862	1134.7745	1145.2454	1188.06	1209.7015	1213.7917	1283.1798	1323.3807	1368.1308	1388.0793	1411.9041	1430.9614	1446.2125	1491.8181	1495.1434	1514.6337	1861.5701	2979.7334	3026.7927	3053.0327	3058.3572	3073.2043	3093.2915	3117.8053	3120.7796	3754.248	3799.8841
CC1(O)CC(=O)C1CO	C[C@@]1(O)CC(=O)[C@H]1CO	
InChI=1S/C6H10O3/c1-6(9)2-5(8)4(6)3-7/h4,7,9H,2-3H2,1H3	InChI=1S/C6H10O3/c1-6(9)2-5(8)4(6)3-7/h4,7,9H,2-3H2,1H3/t4-,6-/m1/s1
