20
gdb 18264	4.09234	1.56098	1.29033	1.1251	74.59	-0.2423	0.0834	0.3257	1012.5586	0.178593	-348.996268	-348.988559	-348.987614	-349.028266	29.691	
C	 0.085730593	 1.3386329978	 0.1086380505	-0.234312
O	-0.1624931758	-0.0303831558	-0.1047216432	-0.245853
C	 0.5548484018	-0.5808411587	-1.1948921223	 0.154491
C	 2.0703788571	-0.7777917059	-0.921549472	-0.260806
C	 2.4814380325	-2.0042994367	-1.7640541128	-0.220988
C	 1.2141555833	-2.8441068086	-1.8725558208	-0.027222
C	 0.4323725323	-3.0917263749	-0.6081812413	-0.282284
C	 0.0322549082	-1.96456228	-1.5288076223	-0.054287
H	 1.1263447092	 1.5369553237	 0.4069942859	 0.103063
H	-0.1313763084	 1.9372365894	-0.7911940839	 0.099299
H	-0.5749388611	 1.6670047504	 0.9152040419	 0.123879
H	 0.4193757774	 0.0714573771	-2.075447452	 0.057446
H	 2.6637154426	 0.1082244013	-1.1599483601	 0.096015
H	 2.1997177557	-0.973057687	 0.1478431732	 0.112521
H	 2.7927948774	-1.6905875211	-2.7675554815	 0.098825
H	 3.3249393506	-2.5472938903	-1.3231769611	 0.097885
H	 1.1476622567	-3.577573791	-2.6686626946	 0.078588
H	-0.2180972707	-3.9591452248	-0.5918097036	 0.107975
H	 0.8745400532	-2.8567738282	 0.3539938768	 0.11492
H	-0.9088082949	-2.0368063169	-2.0614368469	 0.080845
97.4864	124.5301	200.8247	238.9623	290.4169	371.9366	423.1901	496.384	607.8273	638.1447	776.6164	826.6043	838.8518	865.3484	924.8683	955.5176	982.2517	1000.1982	1007.4784	1055.0458	1062.4823	1093.158	1110.6277	1133.3205	1153.6216	1182.704	1194.6993	1208.0912	1224.9253	1231.0797	1300.0267	1328.841	1339.1127	1352.8286	1393.4691	1400.4106	1479.4138	1485.5523	1492.3091	1493.5095	1510.6839	1514.2316	2943.778	2968.5157	3015.1108	3030.3594	3054.4851	3067.6901	3102.8682	3108.1867	3135.006	3164.7874	3177.9854	3216.9591
COC1CCC2CC12	CO[C@H]1CC[C@H]2C[C@@H]12	
InChI=1S/C7H12O/c1-8-7-3-2-5-4-6(5)7/h5-7H,2-4H2,1H3	InChI=1S/C7H12O/c1-8-7-3-2-5-4-6(5)7/h5-7H,2-4H2,1H3/t5-,6+,7-/m0/s1
