16
gdb 132573	3.09517	1.33744	0.94011	2.9195	77.72	-0.2108	-0.015	0.1958	1187.2351	0.124496	-442.099103	-442.09087	-442.089926	-442.131908	31.104	
C	-0.0504462597	 1.5202884539	 0.0007388713	-0.485531
C	-0.0033492357	 0.0170595941	-0.0027772147	 0.18449
N	-0.0270202114	-0.6346265685	-1.1690621297	-0.30423
C	 0.0132063907	-1.9640652906	-1.1850125582	-0.06837
C	 0.0830995241	-2.7615229364	-0.0332499424	 0.290474
N	 0.1871899816	-4.1476374746	-0.1143583387	-0.593077
C	 0.1056726948	-2.0929213797	 1.1957144992	-0.287142
C	 0.0618208283	-0.7130870908	 1.1847683445	 0.241443
F	 0.0801051941	-0.0521478135	 2.350212977	-0.078937
H	 0.8360799499	 1.9492178992	 0.4810592855	 0.131487
H	-0.1022465401	 1.8769272835	-1.0288382869	 0.137679
H	-0.9209840507	 1.8945739679	 0.5509370083	 0.130492
H	-0.0084859696	-2.4380883351	-2.165084173	 0.092432
H	-0.1560665467	-4.5467215238	-0.9760272067	 0.252453
H	-0.1549168767	-4.6527102821	 0.6899734856	 0.250941
H	 0.160514447	-2.6247555035	 2.1394376689	 0.105397
82.6869	134.6797	233.4151	269.4624	291.5536	317.4791	345.3098	473.4536	481.2381	501.9829	569.1581	588.6653	656.0006	741.0943	749.7683	777.2553	890.1498	904.8932	973.1097	1019.236	1059.4166	1106.5284	1178.5317	1222.8578	1297.4928	1316.8753	1359.6775	1406.5407	1468.9153	1481.5792	1490.3982	1520.9856	1608.1682	1647.9409	1663.2422	3034.5669	3084.8389	3134.1077	3144.6306	3191.1075	3565.1175	3663.4523
CC1=NC=C(N)C=C1F	Cc1ncc(N)cc1F	
InChI=1S/C6H7FN2/c1-4-6(7)2-5(8)3-9-4/h2-3H,8H2,1H3	InChI=1S/C6H7FN2/c1-4-6(7)2-5(8)3-9-4/h2-3H,8H2,1H3
