18
gdb 128178	3.91672	1.20684	0.94111	3.1202	81.62	-0.1829	0.037	0.2199	1247.2308	0.15022	-398.097913	-398.089719	-398.088775	-398.131407	30.12	
C	 0.0018202272	 1.4581288342	-0.1296651645	-0.323547
N	 0.0651535008	 0.0437285383	 0.19863155	-0.391326
C	-1.1318543433	-0.6800515215	 0.1361642958	 0.024143
C	-1.341647791	-2.0519810896	 0.1903649208	 0.316129
C	-1.0765382127	-3.5486429518	 0.3078989592	-0.387671
C	-2.6540553541	-3.6965057173	 0.2728232084	-0.163476
N	-2.6741712259	-2.2341425482	 0.1471552516	 0.090672
N	-3.417066129	-1.1361234582	 0.0851817955	-0.314698
C	-2.4665917832	-0.1754357745	 0.0645199005	-0.061299
H	 1.0105615761	 1.8770251624	-0.0959763917	 0.118539
H	-0.4333149194	 1.6687024448	-1.1207931212	 0.108202
H	-0.6009054876	 1.9843351667	 0.6183216855	 0.133853
H	 0.8187734574	-0.4240131086	-0.2852870069	 0.230261
H	-0.5624819296	-4.0197374734	-0.5340379475	 0.123555
H	-0.6162002155	-3.8827127708	 1.2411148676	 0.128766
H	-3.0656235304	-4.2257406365	-0.5907040662	 0.131278
H	-3.1096490077	-4.0697088181	 1.1937405295	 0.134019
H	-2.7694752722	 0.858706092	 0.0012593836	 0.102599
50.4109	94.644	183.5327	204.8831	237.946	330.3155	364.6046	536.2674	564.5011	645.1758	664.6939	701.0333	754.5209	814.0359	820.6334	851.4414	895.5608	1047.4609	1056.6591	1093.4335	1107.0045	1133.7797	1154.2839	1171.735	1192.9492	1214.8583	1234.4503	1277.214	1331.2274	1386.9524	1409.9133	1457.6803	1464.9264	1485.4524	1488.5212	1499.3757	1521.8342	1535.306	1641.5296	2965.6831	3058.4401	3063.5186	3063.9434	3104.2935	3115.1286	3119.4483	3252.7611	3574.934
CNC1=C2CCN2N=C1	CNc1c2CCn2nc1	
InChI=1S/C6H9N3/c1-7-5-4-8-9-3-2-6(5)9/h4,7H,2-3H2,1H3	InChI=1S/C6H9N3/c1-7-5-4-8-9-3-2-6(5)9/h4,7H,2-3H2,1H3
