14
gdb 20391	4.94626	2.07388	1.49008	2.5939	62.42	-0.2026	0.0394	0.242	791.2009	0.111218	-378.727796	-378.721655	-378.720711	-378.758415	23.018	
C	 0.0321972061	 1.3605581495	-0.1584940492	-0.091859
C	 1.4823849259	 1.8835577533	 0.1450192968	-0.384783
C	 2.139160867	 0.611427723	 0.6059405901	 0.125368
C	 1.1662776741	-0.3437401561	 0.6914364844	 0.487288
N	 1.7038966979	-1.4871632002	 1.1418150452	-0.339412
N	 3.0494832101	-1.3256932269	 1.3686512512	-0.242955
C	 3.3008915842	-0.055277123	 1.046399261	-0.147789
O	-0.0917417341	-0.0113564316	 0.3544861858	-0.285332
H	-0.7502866606	 1.9509857115	 0.3214705987	 0.127505
H	-0.1633762986	 1.3167253855	-1.2336942105	 0.1262
H	 1.9249860093	 2.3242215434	-0.7539843557	 0.120276
H	 1.4692048035	 2.6644699212	 0.9145461743	 0.120029
H	 1.2745593424	-2.3796385613	 1.3101694934	 0.276323
H	 4.3112971828	 0.3143963717	 1.1456292045	 0.109141
69.7031	218.4473	292.2486	440.8942	443.6701	624.0863	663.6077	702.5328	731.4203	776.5532	836.7626	884.4186	931.193	966.9883	975.3841	1054.6191	1074.7593	1153.1367	1204.7998	1232.1448	1242.5325	1276.1831	1325.174	1372.1861	1414.3353	1456.4344	1499.1873	1516.454	1595.9478	1637.731	3027.9917	3057.2568	3068.9981	3121.7435	3239.2679	3690.3429
C1CC2=C(NN=C2)O1	C1Cc2c([nH]nc2)O1	
InChI=1S/C5H6N2O/c1-2-8-5-4(1)3-6-7-5/h3H,1-2H2,(H,6,7)	InChI=1S/C5H6N2O/c1-2-8-5-4(1)3-6-7-5/h3H,1-2H2,(H,6,7)
