15
gdb 13835	4.29911	1.60694	1.39575	3.212	61.49	-0.2464	-0.0241	0.2223	904.1636	0.118503	-399.827702	-399.820024	-399.81908	-399.86072	26.612	
C	-0.1134156497	 1.5315744812	-0.1002046939	-0.490067
C	-0.0811652118	 0.026123425	 0.08116256	 0.366757
O	-0.1157356455	-0.5118195135	 1.1590330419	-0.282765
C	 0.0399311758	-0.7824668854	-1.2133781927	-0.011426
C	 1.5347627585	-0.9453059607	-1.658095312	-0.200716
N	 1.8037666697	-2.3819123237	-1.5124279926	-0.25563
C	 0.7097761058	-2.9066839692	-1.1534409108	 0.130236
O	-0.3927207856	-2.1345542133	-0.9932341382	-0.203972
H	 0.6735524624	 1.8672837973	-0.7847413276	 0.141223
H	-1.0703796243	 1.824348956	-0.5488075552	 0.149257
H	-0.0027981714	 2.0241869768	 0.8661034855	 0.151858
H	-0.5849325037	-0.3442059096	-1.9972545437	 0.104623
H	 1.6958194147	-0.6343082516	-2.6951228731	 0.124842
H	 2.2232947699	-0.3704344418	-1.0297795619	 0.1268
H	 0.5476659852	-3.9606653974	-0.9605936759	 0.148979
58.4992	72.7954	122.1772	202.0208	283.3539	356.9781	490.7931	572.1754	600.9814	750.1566	786.3072	876.9428	931.3614	957.5371	973.5174	977.211	988.4504	1044.0138	1081.6002	1128.3937	1188.3213	1203.5547	1282.6148	1315.4294	1332.1662	1371.7969	1384.7248	1462.4495	1474.8898	1499.8224	1712.8657	1831.4231	3034.2803	3043.1924	3063.8288	3082.1645	3094.4435	3156.2593	3227.4116
CC(=O)C1CN=CO1	CC(=O)[C@H]1CN=CO1	
InChI=1S/C5H7NO2/c1-4(7)5-2-6-3-8-5/h3,5H,2H2,1H3	InChI=1S/C5H7NO2/c1-4(7)5-2-6-3-8-5/h3,5H,2H2,1H3/t5-/m1/s1
