16
gdb 66746	2.6743	2.01091	1.52237	3.45	71.17	-0.2322	-0.0238	0.2083	895.4523	0.124591	-400.673566	-400.666729	-400.665784	-400.704655	27.337	
C	 0.0395430699	 1.5787594988	-0.0366189565	-0.53544
C	 0.0239862284	 0.0811972259	-0.0579259964	 0.35782
C	 0.5450022606	-0.9296965459	-1.1272988702	-0.128289
C	 0.8448760037	-1.8681243438	-0.02557624	-0.038182
C	 0.6366695585	-0.845772341	 1.0984428714	-0.267071
C	-0.8092476385	-1.0775552327	 1.5691701234	 0.461891
O	-1.3658808497	-1.1510722226	 2.6233750648	-0.316022
C	-1.2368424404	-0.8521884395	 0.1104783584	-0.195095
N	-0.5156034475	-1.8946927788	-0.7153266798	-0.145497
H	 1.0629680235	 1.9664101667	-0.085285404	 0.129873
H	-0.5175325413	 1.991517187	-0.8848076359	 0.131565
H	-0.4192858023	 1.9580858748	 0.8833609724	 0.137019
H	 0.9105610107	-0.8453237459	-2.1434903451	 0.105471
H	 1.4088103848	-2.7912982502	-0.0126865215	 0.112445
H	 1.4569217043	-0.5630337936	 1.7526098036	 0.094937
H	-2.2548232147	-0.6435100092	-0.2091824145	 0.094574
112.4523	221.6889	261.529	281.7583	387.7818	557.5923	570.4013	606.8023	703.411	719.5738	764.0547	786.0672	802.3468	849.4527	885.4301	937.4876	940.6211	987.0676	1009.718	1030.9481	1038.2245	1086.501	1116.411	1142.2725	1163.9428	1177.5498	1200.7929	1213.4815	1244.725	1328.8902	1346.8732	1416.7848	1482.7074	1493.9557	1893.3855	3026.1126	3093.5053	3095.6716	3154.797	3164.0506	3185.4236	3206.9825
CC12C3C4C1C(=O)C2N34	C[C@@]12[C@H]3[C@H]4[C@@H]1C(=O)[C@@H]2N34	
InChI=1S/C7H7NO/c1-7-2-3-5(7)8(3)6(7)4(2)9/h2-3,5-6H,1H3	InChI=1S/C7H7NO/c1-7-2-3-5(7)8(3)6(7)4(2)9/h2-3,5-6H,1H3/t2-,3-,5-,6+,7+,8?/m1/s1
