18
gdb 92260	2.74932	1.66255	1.34124	2.9488	71.33	-0.2203	0.0507	0.271	996.0831	0.148192	-438.999549	-438.99199	-438.991046	-439.031575	29.588	
O	-0.0401952387	 1.4730260462	 0.3238603677	-0.432321
C	 0.0001370257	 0.0948698536	 0.0463161909	-0.011678
C	 0.3022202083	-0.9105914969	 1.2003203331	-0.22059
N	-0.9196178706	-1.7127833195	 0.8505821348	-0.161567
C	-2.0798209948	-1.4653640851	 1.7789173901	-0.201283
C	-2.5924654574	-0.3131625795	 0.8835644274	 0.051423
O	-3.4708759526	-0.7500295811	-0.1773786773	-0.295024
C	-2.3768516731	-0.842315539	-1.129372188	-0.165504
C	-1.368089247	-0.5586269234	-0.0261289511	 0.332312
H	 0.8554891332	 1.8219653649	 0.2792519468	 0.289427
H	 0.599235879	-0.1212210214	-0.8495799199	 0.079998
H	 1.2286027631	-1.4874189867	 1.1301859431	 0.103643
H	 0.2482989724	-0.4248516574	 2.1820018296	 0.103184
H	-2.7611569892	-2.3181771614	 1.8427783538	 0.11551
H	-1.7724090435	-1.1683456634	 2.7880940275	 0.103307
H	-2.9066332582	 0.634308839	 1.3266292116	 0.090621
H	-2.3083529497	-1.8289448858	-1.6007469317	 0.111856
H	-2.451458927	-0.0613300331	-1.8978202386	 0.106688
96.5111	143.7061	244.4208	262.9085	327.4656	394.6649	447.5939	488.9039	541.9252	666.6842	706.008	786.1619	832.0708	871.9383	889.3124	896.2026	984.8355	1004.6126	1008.133	1048.5311	1074.3237	1102.0815	1114.7047	1139.0912	1149.9383	1170.5101	1186.2225	1209.1136	1244.0618	1256.6996	1285.3214	1298.4374	1306.6432	1322.098	1374.1996	1450.6678	1476.1989	1500.5202	1503.7795	3000.7971	3010.4251	3026.7497	3034.5181	3072.1939	3086.2024	3089.7476	3099.5519	3821.5352
OC1CN2CC3OCC123	O[C@H]1CN2C[C@@H]3OC[C@]123	
InChI=1S/C6H9NO2/c8-4-1-7-2-5-6(4,7)3-9-5/h4-5,8H,1-3H2	InChI=1S/C6H9NO2/c8-4-1-7-2-5-6(4,7)3-9-5/h4-5,8H,1-3H2/t4-,5-,6+/m0/s1
