13
gdb 128086	4.66875	1.13157	0.9161	5.3803	62.14	-0.2974	-0.0799	0.2175	1183.2898	0.089257	-482.216873	-482.208833	-482.207889	-482.250794	26.895	
C	-0.0132979979	 1.4506579274	-0.0927410677	-0.338317
N	 0.1331317107	 0.0098907551	 0.032525693	-0.358021
C	 0.5002161526	-0.5624303256	 1.1913567896	 0.560823
O	 0.7549719342	-0.0539178324	 2.2464461302	-0.331183
N	 0.5733278438	-2.02809947	 1.0476255639	 0.036622
N	 0.3118891902	-2.6949013107	-0.0754426759	-0.11925
N	 0.4886688887	-3.9385771496	 0.2144862539	-0.072378
N	 0.8590491004	-4.0340052473	 1.5173713323	-0.069557
N	 0.9112945663	-2.8506175382	 2.0327417474	-0.073298
H	 0.6731923	 1.8443522335	-0.8482245538	 0.147841
H	-1.0386360323	 1.7119297008	-0.3710899516	 0.147834
H	 0.2212034877	 1.8984977988	 0.8727901642	 0.181915
H	-0.0419407244	-0.5894798218	-0.7602183754	 0.286969
64.1643	69.9361	112.1148	175.8982	212.6753	313.0149	395.9898	492.2714	551.0801	704.9647	756.7093	761.2588	814.9951	931.9136	1020.8979	1093.9545	1125.1948	1155.4763	1160.6805	1187.9825	1236.0914	1255.5494	1343.5938	1407.039	1451.0197	1494.4773	1496.2548	1570.8065	1886.9084	3045.2888	3105.989	3164.5213	3620.7819
CNC(=O)N1N=NN=N1	CNC(=O)n1nnnn1	
InChI=1S/C2H4N6O/c1-3-2(9)8-6-4-5-7-8/h1H3,(H,3,9)	InChI=1S/C2H4N6O/c1-3-2(9)8-6-4-5-7-8/h1H3,(H,3,9)
