18
gdb 41182	3.0877	1.76772	1.5764	1.2879	77.69	-0.223	-0.0053	0.2178	918.6937	0.149492	-401.811419	-401.804774	-401.803829	-401.841946	28.29	
C	-0.0424872783	 1.5711319157	 0.1315398762	-0.279649
N	 1.492199387	 1.5259813996	-0.0449590366	-0.365415
C	 1.2011130717	 0.3531102253	-0.9504659223	 0.037269
C	 1.1953715107	-1.2025378745	-1.2348638416	-0.004188
C	 1.7690759954	-2.126695438	-0.1693970547	-0.256763
C	 1.2394955872	-1.7037181353	 1.1756454438	-0.070031
C	 0.4236347202	-0.6544678314	 1.2190012138	-0.049664
C	 0.0564219235	 0.0224275318	-0.0814934968	 0.32305
O	-0.2870554951	-1.0809006261	-1.047181313	-0.364787
H	-0.3657684509	 1.9354092029	 1.1112968403	 0.1111
H	-0.5512455101	 2.1058566211	-0.6775545907	 0.113397
H	 1.8508002634	 2.3338847515	-0.551296692	 0.22009
H	 0.8074411749	 0.750319178	-1.8961610722	 0.086494
H	 1.4293898117	-1.5137892361	-2.2558816011	 0.084085
H	 1.4860438524	-3.1646689067	-0.3904107396	 0.118601
H	 2.8666654347	-2.0933472081	-0.19701505	 0.114972
H	 1.5319404656	-2.2574828425	 2.0623499409	 0.094506
H	 0.0158224361	-0.2628772474	 2.1454425156	 0.086933
193.2567	237.2311	333.3158	398.6286	432.6852	488.6135	534.803	575.8874	631.5328	715.7232	722.0997	772.471	788.7008	841.9768	878.7808	922.0992	929.5195	953.0593	970.8937	985.5734	1004.4158	1033.3523	1077.3128	1100.9746	1146.5554	1157.3605	1174.3207	1217.0704	1228.7801	1252.0658	1284.3263	1306.8359	1337.5025	1362.0841	1405.999	1462.0709	1473.2003	1495.667	1704.3217	2984.0234	3013.6296	3035.2998	3041.8174	3083.793	3104.515	3165.3205	3188.9397	3471.1531
C1NC2C3CC=CC12O3	C1N[C@H]2[C@H]3CC=C[C@@]12O3	
InChI=1S/C7H9NO/c1-2-5-6-7(3-1,9-5)4-8-6/h1,3,5-6,8H,2,4H2	InChI=1S/C7H9NO/c1-2-5-6-7(3-1,9-5)4-8-6/h1,3,5-6,8H,2,4H2/t5-,6+,7-/m1/s1
