20
gdb 37972	2.53813	1.94408	1.39541	1.5298	76.79	-0.2326	0.0724	0.3049	980.9731	0.174859	-403.100777	-403.093866	-403.092921	-403.131671	29.042	
C	-0.0700043717	 1.4315081678	-0.1477343873	-0.224158
C	 1.4720262696	 1.5192007532	 0.0549033899	 0.120924
O	 2.0812365934	 2.347517454	 1.0122902635	-0.258397
C	 1.4388068911	 2.4920641527	 2.2682137223	-0.069956
C	 1.2473979673	 1.2015932096	 3.0699614452	-0.202439
C	 0.1514705415	 0.2562148595	 2.5496756378	-0.246244
C	 0.4718836134	-0.4554930883	 1.2381327107	 0.001039
C	 1.4558445936	 0.0006781133	 0.2339912932	-0.090978
N	-0.036890113	-0.0695616334	-0.0994609858	-0.149608
H	-0.7141831805	 1.8941810735	 0.6039846641	 0.104117
H	-0.3958429825	 1.7661093487	-1.1338323472	 0.113609
H	 1.960219754	 1.7801411226	-0.8871429999	 0.097825
H	 2.0867531437	 3.1739880137	 2.8277339746	 0.108498
H	 0.4674085703	 2.9981400528	 2.1478164285	 0.088686
H	 2.2046173399	 0.6689125846	 3.1179376398	 0.108527
H	 0.9957539548	 1.4959764575	 4.0973167145	 0.096415
H	-0.0249461362	-0.5160378156	 3.3056979593	 0.10484
H	-0.7978914298	 0.8003963295	 2.4656647774	 0.110113
H	 0.4290777433	-1.5396998166	 1.3162256625	 0.098453
H	 2.1732217078	-0.6762288591	-0.2206314631	 0.088732
180.366	235.9115	282.7995	365.3314	377.8202	427.6319	485.2173	544.0571	626.6654	701.7911	750.3482	790.5512	795.4565	846.1904	886.0734	926.5558	957.5309	976.693	997.2534	1017.9575	1045.4147	1069.6005	1077.9831	1119.0175	1132.4098	1161.3577	1204.1538	1224.3237	1247.7139	1258.992	1280.1217	1292.393	1315.0011	1363.7292	1377.2408	1386.9377	1398.8884	1424.5732	1433.9921	1472.8278	1482.8132	1498.4606	1518.9035	2976.6134	3020.6697	3029.4415	3064.5683	3069.398	3072.4109	3077.2289	3080.5149	3121.6943	3127.94	3154.4957
C1C2OCCCC3C2N13	C1[C@H]2OCCC[C@@H]3[C@H]2N13	
InChI=1S/C7H11NO/c1-2-5-7-6(9-3-1)4-8(5)7/h5-7H,1-4H2	InChI=1S/C7H11NO/c1-2-5-7-6(9-3-1)4-8(5)7/h5-7H,1-4H2/t5-,6-,7-,8?/m1/s1
