17
gdb 83627	3.05907	1.53661	1.14481	3.2446	76.76	-0.2354	-0.049	0.1864	1055.0145	0.137102	-421.827642	-421.820074	-421.81913	-421.859915	29.358	
O	 0.2131570056	 1.3289434755	 0.2955460984	-0.431315
C	 0.059580522	-0.0669119905	 0.1062668652	-0.00522
C	-1.4120194555	-0.4666390194	-0.0128505543	-0.060045
C	-2.6367941949	 0.4860162556	-0.242578496	-0.237439
C	-3.0370039838	-0.4020067625	-1.4886556564	-0.315159
C	-1.5948718155	-0.8279098909	-1.4614428497	 0.296827
C	-0.4724919405	-0.8189699528	-2.1927993357	-0.341054
C	 0.6444888508	-0.4306837899	-1.3025349648	 0.355573
O	 1.8013185864	-0.2194802032	-1.5938677137	-0.347005
H	 1.1097915568	 1.5393026603	 0.001603807	 0.293601
H	 0.5876582303	-0.6293173852	 0.8895782392	 0.078846
H	-1.6859086575	-1.2716087067	 0.6754835111	 0.092955
H	-3.3677428714	 0.5585620954	 0.5644879203	 0.112455
H	-2.3070194084	 1.4797822522	-0.5454410776	 0.139656
H	-3.7280246857	-1.1965933443	-1.1902397527	 0.1266
H	-3.4097588963	 0.08152722	-2.3934567358	 0.124601
H	-0.3660402525	-0.8786244237	-3.2680669244	 0.116124
64.1003	170.3147	223.5485	265.1617	335.8505	427.4725	432.9955	510.7462	585.6803	686.1304	708.8709	725.783	778.4017	815.6196	840.4998	891.8557	898.3245	933.2063	1002.6842	1032.5397	1084.3616	1097.3852	1136.307	1165.5438	1175.9419	1204.8558	1223.418	1239.6267	1248.5318	1286.4767	1326.818	1344.8964	1416.9718	1471.3302	1487.0545	1678.8492	1799.7771	2996.6269	3057.9811	3065.3722	3083.3155	3121.0633	3157.0447	3222.0251	3759.6024
OC1C2CCC2=CC1=O	O[C@H]1[C@H]2CC[C]2[CH]C1=O	
InChI=1S/C7H8O2/c8-6-3-4-1-2-5(4)7(6)9/h3,5,7,9H,1-2H2	InChI=1S/C7H8O2/c8-6-3-4-1-2-5(4)7(6)9/h3,5,7,9H,1-2H2/t5-,7-/m0/s1
