15
gdb 28636	5.8702	1.02605	0.87813	0.7305	87.75	-0.2476	-0.0594	0.1882	1271.9648	0.112624	-379.69383	-379.685771	-379.684827	-379.726924	29.536	
C	-0.0459862744	 1.5127845077	 0.027255431	-0.475107
C	-0.0085181028	 0.0116638525	-0.0112460618	 0.324717
C	 0.2800631239	-0.6983379794	-1.1829604233	-0.068076
N	 0.3182698262	-2.0254871561	-1.2394736004	-0.297892
C	 0.061842192	-2.6805992268	-0.0953294212	 0.152042
C	-0.2281837543	-1.9734289043	 1.0830380171	-0.062024
N	-0.2636362006	-0.6473405442	 1.1278368889	-0.291867
C	 0.0885801513	-4.1070618131	-0.0950329382	 0.230665
C	 0.1015923935	-5.309682746	-0.0542075898	-0.371342
H	 0.1772816682	 1.9456725322	-0.9507329121	 0.127035
H	-1.0328315925	 1.8616018259	 0.3479632025	 0.14746
H	 0.6791953851	 1.8939635808	 0.7533053348	 0.147463
H	 0.4877234549	-0.1674427153	-2.1093163008	 0.11242
H	-0.4344645123	-2.510947669	 2.004562673	 0.123503
H	 0.1166694815	-6.3715286349	-0.0334300996	 0.201001
61.254	91.3484	145.0138	239.7721	340.3805	410.3563	435.559	450.6729	541.5289	572.3803	622.5901	657.8793	664.5062	712.3285	796.9707	868.9521	930.5138	974.6834	1006.5884	1046.0965	1061.2846	1228.9401	1248.2115	1277.8986	1329.1822	1349.7974	1411.3502	1474.3238	1483.7302	1508.8931	1557.4184	1608.9093	2231.2449	3042.0215	3102.5549	3127.7659	3153.2155	3168.525	3501.7017
CC1=CN=C(C=N1)C#C	Cc1cnc(cn1)C#C	
InChI=1S/C7H6N2/c1-3-7-5-8-6(2)4-9-7/h1,4-5H,2H3	InChI=1S/C7H6N2/c1-3-7-5-8-6(2)4-9-7/h1,4-5H,2H3
