19
gdb 72300	3.11757	1.82983	1.36991	0.7282	86.69	-0.1881	-0.0129	0.1752	977.1488	0.160287	-348.695478	-348.688259	-348.687314	-348.726439	30.16	
C	-0.0016326794	 1.5303717796	-0.0268736296	-0.479569
C	-0.0675639821	 0.0226639387	-0.1000560781	 0.321795
C	 0.7664747468	-0.6579889253	-1.1995721441	-0.311077
C	 0.159755647	-2.0517109675	-1.2501508646	-0.099189
C	-0.911268183	-2.1239661877	-0.439132824	 0.061364
C	-0.8531319092	-2.9803350506	 0.7945011526	-0.1602
C	-0.4679176186	-2.1148290742	 1.7491849442	-0.079301
C	-0.5660599936	-0.6785935769	 1.2774252173	-0.119283
C	-1.3457575304	-0.7294961216	 0.0042955014	-0.149827
H	 0.9931175829	 1.8714346022	 0.2822343506	 0.120319
H	-0.2079108062	 1.9710671194	-1.0102178075	 0.117061
H	-0.7295857431	 1.9390895057	 0.6801904915	 0.116856
H	 0.7273376575	-0.0628571941	-2.1272274235	 0.097024
H	 1.8320909136	-0.7545366983	-0.9482974165	 0.109793
H	 0.7668228071	-2.9123989771	-1.514197823	 0.091238
H	-0.8501512107	-4.0604859704	 0.8452527639	 0.106706
H	-0.163098245	-2.3785506319	 2.75550474	 0.096754
H	-0.7855688998	 0.0740108499	 2.0289871358	 0.080619
H	-2.3532992238	-0.3489648398	-0.1447973065	 0.078917
205.1163	218.7106	237.2801	312.8718	323.5733	419.0291	503.5059	552.4865	606.7583	651.8321	725.355	750.7274	782.0494	828.4058	851.2419	861.8297	904.4649	909.7019	927.6862	954.494	971.0478	1016.2882	1060.404	1078.4811	1096.7816	1102.7091	1122.2891	1177.2697	1185.2231	1239.0419	1296.1835	1299.5556	1314.621	1333.3718	1384.5001	1416.5042	1477.6832	1490.9597	1498.459	1588.7197	1618.8738	2960.4745	3020.5102	3021.5634	3077.749	3101.6054	3128.4696	3152.906	3171.514	3194.1126	3233.086
CC12CC=C3C=CC1C23	C[C@@]12C[CH][C]3C=C[C@@H]1[C@@H]23	
InChI=1S/C9H10/c1-9-5-4-6-2-3-7(9)8(6)9/h2-4,7-8H,5H2,1H3	InChI=1S/C9H10/c1-9-5-4-6-2-3-7(9)8(6)9/h2-4,7-8H,5H2,1H3/t7-,8+,9-/m1/s1
