20
gdb 62669	3.31096	1.31475	1.18593	1.5219	79.66	-0.2156	0.0621	0.2777	1142.4445	0.168844	-403.060181	-403.051334	-403.05039	-403.092815	35.108	
C	 0.0301784762	 1.4694715385	 0.0315640097	-0.439386
C	-0.0557026676	-0.0488509157	-0.0224608881	 0.368739
O	-1.2733074481	-0.4782677924	-0.5848498922	-0.457203
C	 1.2946170007	-0.705881118	-0.1910412023	-0.087098
C	 0.5571217497	-0.7257802058	 1.1600641992	-0.184231
C	 0.6976502069	-2.2630684426	 1.0882372678	 0.319504
C	 1.2284557422	-3.0180800538	 2.2706384297	-0.475909
C	 0.1323301617	-2.8942229748	-0.1225543478	-0.297028
N	 1.4524426614	-2.2045554483	-0.2136257901	-0.19738
H	 0.9574951157	 1.8100145986	 0.4997967616	 0.124337
H	-0.0095529521	 1.8908863569	-0.9799718859	 0.110903
H	-0.8156685127	 1.8685829479	 0.5992090447	 0.130805
H	-1.2785963263	-0.1992653454	-1.5081782679	 0.280716
H	 2.1637660323	-0.1382316016	-0.5054911748	 0.093692
H	 0.7799368142	-0.185161913	 2.0730896076	 0.085827
H	 0.4562540421	-3.1240099739	 3.0422429062	 0.120339
H	 1.555650128	-4.0178825687	 1.9721209374	 0.127452
H	 2.0838574774	-2.4992969778	 2.7180127545	 0.120524
H	 0.2635245593	-3.9711355561	-0.1968787261	 0.10963
H	-0.7368979212	-2.4903558738	-0.6166227731	 0.145768
133.3249	193.5824	210.9764	232.728	236.0161	292.5566	311.7574	386.8254	398.2527	425.9275	546.415	565.495	632.5738	660.2628	729.0126	777.4351	829.3818	869.8308	895.4303	947.9334	977.3321	989.9021	1028.6112	1035.7816	1061.4455	1087.3657	1098.391	1122.9848	1137.2953	1147.0654	1216.8362	1268.2871	1291.8912	1310.7878	1370.8832	1406.5497	1413.5558	1431.5879	1479.9875	1487.3164	1492.0495	1496.4695	1501.7327	3024.1419	3029.5331	3084.1054	3095.8092	3113.3086	3121.1132	3126.0285	3161.219	3173.4861	3270.1891	3785.3661
CC1(O)C2C1C1(C)CN21	C[C@@]1(O)[C@H]2[C@@H]1[C@@]1(C)CN21	
InChI=1S/C7H11NO/c1-6-3-8(6)5-4(6)7(5,2)9/h4-5,9H,3H2,1-2H3	InChI=1S/C7H11NO/c1-6-3-8(6)5-4(6)7(5,2)9/h4-5,9H,3H2,1-2H3/t4-,5-,6-,7+,8?/m1/s1
