20
gdb 99198	4.05548	0.57918	0.54482	3.6356	86.61	-0.239	0.0306	0.2696	2110.2368	0.168181	-403.165039	-403.153632	-403.152688	-403.205484	37.917	
C	 0.6324180909	 1.1297582412	 0.4692703679	-0.366895
C	-0.1931850393	 0.0748301285	-0.2683757431	-0.29779
C	 0.5076335193	-0.4189675871	-1.5331106456	 0.430939
O	 1.2569365837	 0.2861800475	-2.187101977	-0.378001
N	 0.2037783865	-1.7003096468	-1.8938993224	-0.319472
C	 0.7917355585	-2.3337793316	-3.0685048816	-0.287959
C	 1.2701359856	-3.6837013069	-2.7877709142	 0.044252
C	 1.6415877847	-4.804578445	-2.5534168653	 0.065645
C	 2.1083469407	-6.1554960645	-2.2769803308	-0.49646
H	 1.5527745912	 0.6979527723	 0.8737212141	 0.122341
H	 0.9166457843	 1.9283425351	-0.2186639125	 0.145978
H	 0.0632437502	 1.5585928883	 1.2986500284	 0.107763
H	-0.4352347998	-0.7690861593	 0.3883265686	 0.098279
H	-1.1531843556	 0.5051821265	-0.583137335	 0.129341
H	-0.3751122755	-2.2646376995	-1.2944768939	 0.247058
H	 0.0671595673	-2.3608661109	-3.8949789677	 0.132388
H	 1.6069933265	-1.6762640198	-3.3873982402	 0.171436
H	 3.0787571323	-6.3426624654	-2.7495891602	 0.152937
H	 2.229047952	-6.3196716826	-1.2005567919	 0.149875
H	 1.4054166766	-6.9078145098	-2.6511672176	 0.148345
17.1539	19.7671	35.5759	65.3024	146.3047	188.6721	207.4512	216.1981	298.6728	307.133	374.5857	394.3078	437.7371	543.5777	597.7036	683.5583	766.6449	809.3322	899.2555	989.412	1038.6326	1046.0981	1053.984	1057.346	1097.1947	1113.306	1172.4447	1219.9972	1254.9171	1286.9767	1362.8571	1389.4227	1407.508	1415.0331	1465.5417	1477.1908	1479.1011	1491.1206	1493.1606	1505.0815	1525.025	1772.905	2375.5965	2999.5965	3023.7709	3027.9135	3048.2892	3060.5052	3080.1799	3088.8994	3089.8814	3114.5521	3139.447	3651.2338
CCC(=O)NCC#CC	CCC(=O)NCC#CC	
InChI=1S/C7H11NO/c1-3-5-6-8-7(9)4-2/h4,6H2,1-2H3,(H,8,9)	InChI=1S/C7H11NO/c1-3-5-6-8-7(9)4-2/h4,6H2,1-2H3,(H,8,9)
