20
gdb 106472	2.55682	1.62481	1.25312	2.7202	79.59	-0.2546	0.0315	0.2861	1081.6425	0.172478	-403.152095	-403.144069	-403.143125	-403.184497	31.852	
C	 0.0874545189	 1.5362908572	 0.1927281723	-0.390607
C	-0.0880116473	 0.0299807577	-0.0376090995	-0.288933
C	 0.6648858912	-0.4894005236	-1.2407831751	 0.219331
C	 2.2285488245	-0.3769288184	-1.433592687	-0.27126
C	 1.9314088696	-1.4441661093	-2.5052840427	 0.088526
C	 0.8648632544	-2.0234577572	-1.5553198718	-0.283333
O	 1.1179613945	-0.7013229287	-3.4651718799	-0.264195
C	 0.2401354705	-0.0469299085	-2.6275030494	 0.434755
N	-0.6969076031	 0.7242979285	-2.96595732	-0.584177
H	 1.1406383673	 1.7940975223	 0.3500540798	 0.109088
H	-0.2807844457	 2.1003815529	-0.6670514755	 0.152876
H	-0.4678610345	 1.8571510273	 1.0790364106	 0.110354
H	 0.2439029984	-0.5242019762	 0.8492531753	 0.090258
H	-1.1522320032	-0.1974976456	-0.1717813132	 0.115607
H	 2.6447499717	 0.5730623648	-1.7750606748	 0.115116
H	 2.7791605082	-0.7638509519	-0.5738001174	 0.108383
H	 2.6798901037	-2.0231631267	-3.0408480565	 0.09256
H	 1.2833469407	-2.56596053	-0.7053048883	 0.108147
H	 0.0355519316	-2.5728236352	-2.0064213994	 0.114447
H	-0.7404214613	 0.8175014907	-3.9826250275	 0.223059
94.5584	157.7503	199.0818	215.1987	285.2147	394.5661	451.2355	472.5321	507.2918	607.9435	661.7734	711.8633	760.216	816.6383	862.2811	881.0455	907.9839	911.4945	921.5816	958.567	989.4193	1002.3079	1009.0632	1050.672	1070.3087	1105.1985	1123.4835	1182.3539	1211.094	1226.2445	1237.8494	1243.6182	1304.7884	1324.1297	1367.0821	1391.4349	1409.3306	1475.1644	1478.1399	1499.2059	1512.4144	1514.5931	1800.1379	3024.7994	3038.5027	3063.3536	3067.8874	3073.9852	3102.4791	3134.5994	3135.5591	3140.3651	3154.2588	3466.377
CCC12CC(C1)OC2=N	CC[C@@]12C[C@@H](C1)O[C]2[NH]	
InChI=1S/C7H11NO/c1-2-7-3-5(4-7)9-6(7)8/h5,8H,2-4H2,1H3	InChI=1S/C7H11NO/c1-2-7-3-5(4-7)9-6(7)8/h5,8H,2-4H2,1H3/t5-,7+
