16
gdb 12002	3.37277	2.07102	1.82068	1.8866	64.52	-0.2485	-0.0075	0.2409	794.2784	0.129457	-383.721976	-383.71463	-383.713685	-383.753023	28.544	
C	-0.0634141182	 1.5627590849	 0.0350682301	-0.44047
C	 0.0056153564	 0.0345627176	-0.0120584228	 0.317405
O	-1.3015998891	-0.5432446895	 0.0385958402	-0.469353
C	 0.8146375223	-0.4868745128	-1.1958188696	-0.130315
C	 1.8135460533	-1.2894652446	-0.8229869888	-0.09248
C	 1.8609203623	-1.3929298016	 0.6667751685	-0.004489
O	 2.0994526196	-0.1178478362	 1.3197799163	-0.260559
C	 0.7575928483	-0.5721693452	 1.1793416399	 0.019509
H	 0.9381555029	 1.9863625114	 0.1394696819	 0.144005
H	-0.5113351624	 1.9586905404	-0.8841338131	 0.103508
H	-0.6788901468	 1.8826648516	 0.8809463049	 0.124968
H	-1.8062532225	-0.2045078962	-0.7084875266	 0.279068
H	 0.5939746551	-0.1802525672	-2.2137659639	 0.097342
H	 2.5238085159	-1.7759551838	-1.4801941306	 0.107842
H	 2.2702682095	-2.2555963244	 1.182371047	 0.100872
H	 0.2060405131	-0.7808780646	 2.0919800466	 0.10315
155.0066	196.0432	226.6663	247.8968	351.0525	393.3273	401.0017	460.3305	610.5006	619.2648	753.7433	770.9489	822.0432	860.3239	871.0461	938.3037	951.7214	955.7338	989.8181	1035.5136	1094.6368	1103.7922	1135.3978	1148.5827	1196.3606	1246.5297	1286.0108	1360.4827	1385.898	1395.1417	1419.1705	1490.2944	1496.2609	1660.6216	3031.2431	3100.5705	3133.5444	3155.381	3172.4134	3176.1647	3214.842	3811.6097
CC1(O)C=CC2OC12	C[C@@]1(O)C=C[C@H]2O[C@@H]12	
InChI=1S/C6H8O2/c1-6(7)3-2-4-5(6)8-4/h2-5,7H,1H3	InChI=1S/C6H8O2/c1-6(7)3-2-4-5(6)8-4/h2-5,7H,1H3/t4-,5-,6-/m1/s1
