13
gdb 132324	2.05775	1.81765	0.96513	5.1898	65.8	-0.215	-0.03	0.1851	1089.7924	0.090565	-494.085871	-494.078689	-494.077745	-494.11764	27.599	
O	-0.1320076307	 1.3174275599	 0.010748937	-0.403553
C	 0.0465237684	-0.0097419808	 0.0025668565	 0.543273
C	 1.2496201064	-0.6655907885	-0.0075540844	-0.490889
C	 1.1371040713	-2.0795626247	-0.0146029679	 0.359151
F	 2.2876224452	-2.7428924603	-0.0244450028	-0.065239
N	 0.0616615848	-2.7839247318	-0.012551289	-0.378294
C	-1.1568496278	-2.1254116092	-0.0023912307	 0.427783
N	-2.3190730955	-2.6491271873	 0.0013209077	-0.569397
N	-1.102208808	-0.7078942154	 0.0050206628	-0.367095
H	 0.7263470381	 1.756534065	 0.0084593986	 0.322355
H	 2.20282714	-0.1594981986	-0.009997124	 0.113623
H	-2.2215378888	-3.6625677185	-0.0045727477	 0.227524
H	-1.9883517933	-0.2230336898	 0.0125164439	 0.280761
125.2865	189.9263	236.9007	346.072	364.4992	413.0246	517.7789	524.0059	593.3938	598.7379	648.5598	671.7804	695.7695	734.7633	762.4046	843.4868	948.5811	1009.0647	1075.1053	1148.1718	1187.0171	1214.206	1318.7993	1335.1481	1443.8475	1548.0991	1614.6386	1697.6929	1741.5917	3243.5317	3519.7935	3621.7275	3819.9213
OC1=CC(F)=NC(=N)N1	O[C@@H]1C=C(F)N=C([NH])N1	
InChI=1S/C4H4FN3O/c5-2-1-3(9)8-4(6)7-2/h1H,(H3,6,7,8,9)	InChI=1S/C4H5FN3O/c5-2-1-3(9)8-4(6)7-2/h1,3,6,9H,(H,7,8)/t3-/m1/s1
