18
gdb 124948	2.8743	1.36574	0.97945	3.5563	78.04	-0.2334	0.0178	0.2512	1194.1349	0.150008	-398.125874	-398.11742	-398.116476	-398.159992	30.753	
C	 0.2097927466	 1.4748544124	 0.0437901178	-0.506994
C	 0.0944330939	-0.0107490737	-0.0561868048	 0.278238
C	-0.0202033254	-0.856952853	-1.1506709553	 0.103145
C	-0.1285540413	-2.1516583699	-0.583206143	-0.081826
N	-0.0739531719	-2.1279795795	 0.7425586385	-0.228159
N	 0.0565289451	-0.817746838	 1.0355440618	-0.245114
C	-0.0630747428	-0.4981885799	-2.5893566323	-0.135297
C	 1.075216375	 0.2080425313	-3.2403788615	-0.233393
N	 0.8067193332	-1.2042595897	-3.5538769784	-0.316417
H	 0.9873924671	 1.7744664645	 0.7550782698	 0.1315
H	 0.4635347427	 1.8949270684	-0.9313864754	 0.149547
H	-0.7305145915	 1.9360188981	 0.368659857	 0.141483
H	-0.2377586115	-3.094400238	-1.1003872707	 0.115074
H	 0.1274053871	-0.5412525317	 2.000684332	 0.268973
H	-1.054534993	-0.3124044439	-3.0002174714	 0.101886
H	 0.8903007909	 0.9009687995	-4.0564234422	 0.116779
H	 1.9391844384	 0.4461861871	-2.625976674	 0.109325
H	 1.4606399974	-1.7866715041	-3.0348992977	 0.23125
42.3287	82.042	151.986	160.7775	245.5555	301.2341	398.3613	481.905	520.0114	609.7084	685.7189	693.2738	725.3977	843.9282	877.7073	893.5396	950.5808	962.666	996.0022	1011.8798	1060.5082	1098.0413	1134.1075	1144.9114	1169.3881	1185.4144	1236.9547	1267.2073	1303.1311	1308.4094	1350.2284	1406.5587	1420.0304	1455.7124	1484.949	1487.7662	1504.7171	1523.3119	1623.9039	3029.4923	3080.7078	3106.0709	3109.1781	3131.3832	3194.4191	3239.1292	3491.5084	3663.9561
CC1=C(C=NN1)C1CN1	Cc1c(cn[nH]1)[C@H]1CN1	
InChI=1S/C6H9N3/c1-4-5(2-8-9-4)6-3-7-6/h2,6-7H,3H2,1H3,(H,8,9)	InChI=1S/C6H9N3/c1-4-5(2-8-9-4)6-3-7-6/h2,6-7H,3H2,1H3,(H,8,9)/t6-/m1/s1
