19
gdb 38975	3.01929	1.73428	1.2742	1.59	74.77	-0.2322	0.096	0.3282	1004.5169	0.162049	-422.993527	-422.986599	-422.985655	-423.024646	28.592	
C	 0.0369353712	 1.4385363685	 0.0585463482	-0.347027
C	 1.3571879584	 0.7021628093	-0.0851664591	-0.143344
C	 1.7413045284	 0.1097382261	 1.2773329697	-0.255209
C	 0.4175632489	-0.7299229483	 1.2808211099	-0.088587
C	 0.6333672511	-2.2186690955	 0.9834616829	-0.107952
O	-0.4130785605	-2.7166977178	 0.1523290939	-0.228365
C	-0.4260503284	-2.054921178	-1.0774788216	 1.*^-6
O	-0.7739412781	-0.6857835055	-0.960518359	-0.279164
C	 0.0041537502	-0.0408981001	-0.0198013028	 0.460783
H	-0.2125792923	 1.9662432428	 0.9780181848	 0.103026
H	-0.3029758682	 1.927105907	-0.8496122702	 0.120931
H	 2.0280167555	 0.901725933	-0.9111325326	 0.091022
H	 2.6381738365	-0.514720136	 1.2619917265	 0.102563
H	 1.8386618905	 0.8375223737	 2.0893033364	 0.10022
H	-0.2633550594	-0.5973633149	 2.1284486317	 0.071308
H	 1.5982184918	-2.3654649332	 0.4707053622	 0.08895
H	 0.6307529206	-2.8279582285	 1.8903678932	 0.113442
H	 0.5634675057	-2.1391281458	-1.5633553856	 0.079019
H	-1.1986878419	-2.5174594167	-1.6936293585	 0.118383
148.3449	166.5498	354.5096	375.6741	412.173	424.834	475.7162	509.0677	611.9334	698.3129	737.6975	829.2716	858.0522	863.9184	936.394	942.6151	957.9133	981.8102	1004.8241	1024.6345	1045.3939	1052.29	1098.7299	1101.2698	1143.9056	1176.2605	1189.6257	1227.7834	1244.7587	1260.7553	1272.323	1293.9611	1331.0384	1355.0638	1372.3663	1405.2007	1448.416	1486.8303	1490.8552	1505.6196	1515.2942	2934.5675	2970.8425	3042.2197	3050.1775	3093.2223	3096.5515	3100.8663	3121.3505	3190.3779	3199.1426
C1C2CC3COCOC123	C1[C@H]2C[C@@H]3COCO[C@]123	
InChI=1S/C7H10O2/c1-5-2-7(5)6(1)3-8-4-9-7/h5-6H,1-4H2	InChI=1S/C7H10O2/c1-5-2-7(5)6(1)3-8-4-9-7/h5-6H,1-4H2/t5-,6-,7-/m1/s1
