17
gdb 85696	2.16278	1.53729	1.16201	4.8226	72.71	-0.2683	-0.0019	0.2664	1113.2956	0.135282	-417.970441	-417.961862	-417.960918	-418.004112	31.436	
C	-0.6193692177	 1.4018557079	-0.0083470169	-0.40402
C	-0.0031067704	 0.0192781251	-0.0304740247	 0.077826
O	 1.2264734694	-0.0302660893	-0.8139130237	-0.304558
C	 1.9887329727	-0.5809535383	 0.2779784996	-0.052458
C	 3.153508404	 0.2336103168	 0.6310519363	 0.284218
N	 4.0649444773	 0.8734417944	 0.9397178816	-0.324546
C	 0.7645473241	-0.4777636013	 1.1984780044	 0.245274
C	 0.6567271118	-0.0849735979	 2.6143732116	-0.297605
N	 0.4017065403	-1.4762441196	 2.1797033621	-0.356886
H	 0.0862542924	 2.1369010855	 0.3876000735	 0.137698
H	-0.9035113372	 1.7015394197	-1.0215773593	 0.139141
H	-1.5232153227	 1.4080210595	 0.6108228319	 0.119609
H	-0.7186208117	-0.7221687756	-0.4139513324	 0.089582
H	 2.3088127231	-1.6118913908	 0.0840062761	 0.135499
H	 1.5557991957	 0.0509566721	 3.2085229111	 0.146212
H	-0.1839693096	 0.5392801952	 2.9061681331	 0.125174
H	-0.5969718515	-1.6697117234	 2.1442025758	 0.239841
50.5305	120.8669	195.7725	208.249	218.5965	288.1762	338.1581	385.845	496.3205	519.2126	536.9321	611.1546	778.6534	844.5128	884.5095	915.6762	941.7953	955.186	988.1797	1020.8276	1038.5942	1084.1623	1097.7099	1126.2296	1150.2531	1211.7526	1256.3875	1284.727	1294.6278	1341.4933	1387.3698	1408.0087	1430.243	1483.4144	1491.8855	1518.29	2357.1504	3002.6879	3037.7902	3039.8575	3108.2526	3112.4379	3126.9922	3200.4197	3491.9211
CC1OC(C#N)C11CN1	C[C@H]1O[C@@H](C#N)[C@]21CN2	
InChI=1S/C6H8N2O/c1-4-6(3-8-6)5(2-7)9-4/h4-5,8H,3H2,1H3	InChI=1S/C6H8N2O/c1-4-6(3-8-6)5(2-7)9-4/h4-5,8H,3H2,1H3/t4-,5+,6-/m1/s1
