19
gdb 39026	3.00371	1.75175	1.30469	1.3257	81.39	-0.2121	0.0159	0.228	1008.7462	0.161638	-385.885408	-385.878373	-385.877429	-385.916545	29.065	
C	 0.0341648037	 1.6268543249	 0.1972699338	-0.345453
C	 1.2529654102	 0.7410713074	-0.0388734102	-0.144988
C	 2.0089975021	 0.2437304143	 1.2012936069	-0.265805
C	 1.0107605565	-0.6467618547	 1.9302199635	-0.249238
C	-0.1455226174	-0.7028708423	 1.2712277166	 0.266752
C	-1.3692470607	-1.5574864865	 1.1818553862	-0.353992
C	-1.4736632245	-1.6665121448	-0.3649039621	-0.082207
O	-0.9881189181	-0.4264442996	-0.9052155694	-0.307793
C	-0.1435024871	 0.1504405678	 0.0537396312	 0.413949
H	-0.1198518835	 2.0951674096	 1.1664048316	 0.105356
H	-0.2685487943	 2.2274627483	-0.6552099927	 0.115557
H	 1.7819788926	 0.8618151637	-0.9764274726	 0.092941
H	 2.9004728058	-0.3355647544	 0.9259969704	 0.108777
H	 2.36649077	 1.0774987611	 1.8207785892	 0.109989
H	 1.2628444671	-1.1845030371	 2.8368750497	 0.09231
H	-1.2845225847	-2.5314324979	 1.6682428136	 0.113754
H	-2.2527786162	-1.0440506071	 1.5807338312	 0.1186
H	-0.8543416837	-2.5006046437	-0.7245493401	 0.101394
H	-2.4956657177	-1.8090462392	-0.7255840666	 0.110096
140.4572	196.2573	274.8094	313.1885	391.6161	422.0579	561.3974	607.5415	626.9809	693.3427	767.1068	812.1479	815.8092	833.055	869.4727	905.7092	923.663	947.5465	961.8825	998.0697	1009.619	1051.8766	1068.0489	1080.9732	1086.5448	1116.4917	1183.2294	1187.0447	1216.6985	1247.0324	1253.1965	1289.4268	1308.0284	1355.7564	1377.1219	1395.4597	1468.7487	1476.9361	1480.8364	1519.312	1735.6934	3001.2393	3013.0486	3032.615	3039.1242	3092.6813	3105.9261	3112.5041	3184.3838	3197.9468	3201.4111
C1C2CC=C3CCOC123	C1[C@H]2C[CH][C]3CCO[C@]123	
InChI=1S/C8H10O/c1-2-7-5-8(7)6(1)3-4-9-8/h1,7H,2-5H2	InChI=1S/C8H10O/c1-2-7-5-8(7)6(1)3-4-9-8/h1,7H,2-5H2/t7-,8+/m1/s1
