17
gdb 70655	2.4785	1.59459	1.18805	3.4346	72.18	-0.2486	0.0214	0.2699	1055.8534	0.137311	-418.000611	-417.992653	-417.991709	-418.032929	30.875	
O	 0.1461443789	 1.2796731675	-0.2288846119	-0.471175
C	-0.0478072791	-0.08538695	-0.0894946894	 0.414389
C	-0.5882267355	-0.9298139847	-1.2107917013	-0.347738
C	-1.4250656811	-0.6734618329	 0.0304835667	-0.089486
C	-1.3725022517	-1.7204960067	 1.1274280253	-0.180212
N	 0.0612343818	-2.0414844699	 1.2145907468	-0.315442
C	 0.8061151106	-0.8072022151	 0.9638601804	-0.183392
C	 2.1784452602	-1.0835935568	 0.5147426901	 0.273793
N	 3.262701627	-1.2587814969	 0.1554900585	-0.325284
H	 0.8880384149	 1.4204288265	-0.8285122578	 0.296746
H	-0.8845737346	-0.3854912319	-2.1004678568	 0.120478
H	-0.1767792743	-1.9190655329	-1.3777520232	 0.140019
H	-2.2946251808	-0.0336424974	-0.0509183468	 0.106071
H	-1.7855391239	-1.2910238185	 2.055613134	 0.095901
H	-1.9376590207	-2.6302557853	 0.8962255164	 0.114359
H	 0.3238539064	-2.4876369607	 2.0840258175	 0.237132
H	 0.8738233818	-0.1240962442	 1.8285895415	 0.113844
108.3021	128.0682	245.2318	276.6891	333.3247	347.2242	383.7472	441.6218	510.5138	537.401	566.1944	634.849	714.5623	796.8882	855.0904	901.8533	940.8057	972.5196	986.802	1018.3818	1047.6879	1060.6634	1084.7586	1106.3363	1123.9338	1202.8522	1221.2334	1267.6896	1293.0455	1333.4884	1354.7602	1366.6754	1409.8552	1442.0152	1483.9735	1520.067	2357.7606	2950.9179	2960.9212	3055.8448	3137.9747	3198.4903	3232.4129	3568.5935	3790.6438
OC12CC1CNC2C#N	O[C@]12C[C@H]1CN[C@H]2C#N	
InChI=1S/C6H8N2O/c7-2-5-6(9)1-4(6)3-8-5/h4-5,8-9H,1,3H2	InChI=1S/C6H8N2O/c7-2-5-6(9)1-4(6)3-8-5/h4-5,8-9H,1,3H2/t4-,5-,6+/m0/s1
