20
gdb 112891	2.2603	1.49936	1.15548	2.0647	77.03	-0.2512	0.0185	0.2697	1166.5803	0.170964	-440.30317	-440.294019	-440.293075	-440.337115	33.868	
C	-0.5771513452	 0.6514109323	 0.2036015537	-0.244031
O	 0.1395136704	-0.542927692	-0.0670271567	-0.252991
C	 0.8928281312	-0.5062752055	-1.2701255796	 0.037619
C	 1.7600793987	-1.7615789463	-1.3373677541	-0.27157
C	 0.8439184481	-2.7877431063	-2.0332574903	 0.119733
C	 0.009884775	-3.6415338464	-1.0866792066	-0.39746
O	-0.0327202398	-1.9822002158	-2.864234689	-0.251599
C	-0.0139727228	-0.6766719001	-2.4848657841	 0.406037
N	-0.6701419696	 0.2526096309	-3.0383402994	-0.543878
H	 0.1089627712	 1.5054208773	 0.3088567116	 0.106233
H	-1.3006036882	 0.8826273763	-0.5857815854	 0.143864
H	-1.0985133842	 0.4935273184	 1.1504451822	 0.123117
H	 1.4595640955	 0.4303071794	-1.3366405003	 0.090028
H	 2.6445721413	-1.5656398391	-1.9498360145	 0.114573
H	 2.0820417854	-2.0797240152	-0.3446559878	 0.122353
H	 1.4034564073	-3.4268114232	-2.7226507383	 0.090046
H	-0.5237108084	-3.0064770669	-0.3754476608	 0.146273
H	-0.7138938767	-4.2373527146	-1.6494638108	 0.125206
H	 0.6581398395	-4.3244062772	-0.5277700449	 0.116194
H	-1.2392691288	-0.1182032559	-3.8027364749	 0.220252
86.2663	110.6257	130.7615	185.0302	245.5395	249.0755	299.4978	349.7827	399.3525	429.1977	462.8706	666.9704	693.2719	751.6426	796.7185	858.8394	902.7373	909.4967	930.6734	975.4687	1022.0972	1040.4012	1108.6502	1120.4907	1129.5251	1144.7898	1186.9402	1217.1963	1229.9849	1270.9078	1303.8813	1328.6159	1364.6611	1383.7817	1399.693	1409.6563	1474.2811	1478.4427	1482.637	1489.4869	1502.1576	1515.4728	1763.6969	2992.3916	3035.4731	3042.9027	3059.2756	3072.9195	3074.9687	3114.1895	3125.3921	3131.6115	3137.9387	3456.1808
COC1CC(C)OC1=N	CO[C@H]1C[C@@H](C)O[C]1[NH]	
InChI=1S/C6H11NO2/c1-4-3-5(8-2)6(7)9-4/h4-5,7H,3H2,1-2H3	InChI=1S/C6H11NO2/c1-4-3-5(8-2)6(7)9-4/h4-5,7H,3H2,1-2H3/t4-,5+/m1/s1
