21
gdb 106284	2.7212	1.30817	1.05749	2.1059	79.36	-0.2394	0.0758	0.3152	1222.8127	0.180697	-424.170354	-424.160823	-424.159879	-424.204397	36.105	
C	-0.7191294639	 1.5788348037	-0.3139147323	-0.261331
O	-0.5321745122	 0.1769685237	-0.2921414975	-0.291753
C	-1.6844847112	-0.5460980256	-0.1016127477	 0.450965
C	-2.6317298628	-0.5546548672	 1.1447215917	-0.368778
C	-3.1676530197	-1.6283585048	 0.144250853	 0.396499
O	-4.2140032062	-2.5115026377	 0.3181616571	-0.474917
C	-2.9686712157	-0.581126163	-0.9989015435	-0.382951
C	-1.6979867851	-2.0996950594	-0.0488422188	-0.049444
C	-1.2691458562	-2.9521773313	-1.2318239798	-0.447689
H	 0.2629081499	 2.0288521357	-0.4739891227	 0.129103
H	-1.3901472885	 1.8848600526	-1.1289006242	 0.113039
H	-1.1310347825	 1.9472951883	 0.6361456761	 0.113007
H	-2.2069444347	-0.9263156503	 2.0804865352	 0.094981
H	-3.2608005537	 0.3271246934	 1.2959274833	 0.081252
H	-5.0303868843	-2.0074671832	 0.4022573107	 0.283554
H	-3.6165542437	 0.2994924947	-0.9597131826	 0.082765
H	-2.8681998072	-0.9545592564	-2.0177616032	 0.099248
H	-1.2575458992	-2.4919075285	 0.8751575574	 0.066984
H	-1.6719241307	-2.608586518	-2.1873237374	 0.116973
H	-0.17749722	-2.9573093425	-1.3156931178	 0.123986
H	-1.5964517922	-3.9870206942	-1.087551917	 0.124506
76.7614	143.7414	162.2408	175.4995	200.3563	237.3649	285.9466	326.9372	383.3655	450.9219	508.0528	550.1581	590.0634	623.3995	654.0451	756.7094	771.3444	828.0615	983.5208	985.389	987.8711	1043.9796	1075.3184	1081.0077	1107.8033	1119.1512	1127.8012	1141.557	1157.7268	1163.902	1181.8587	1189.1782	1234.9389	1294.2609	1332.8596	1376.4799	1410.327	1433.4249	1483.2327	1486.1876	1486.8477	1493.822	1506.3065	1510.7275	1555.7946	2992.3912	3036.1627	3041.8227	3043.732	3050.0045	3062.5014	3100.7088	3118.0622	3121.6105	3123.3594	3140.5706	3809.7012
COC12CC(O)(C1)C2C	CO[C@@]12C[C@@](O)(C1)[C@H]2C	
InChI=1S/C7H12O2/c1-5-6(8)3-7(5,4-6)9-2/h5,8H,3-4H2,1-2H3	InChI=1S/C7H12O2/c1-5-6(8)3-7(5,4-6)9-2/h5,8H,3-4H2,1-2H3/t5-,6-,7+/m1/s1
