18
gdb 75428	3.20236	1.29585	0.99653	4.6059	76.6	-0.2492	-0.0148	0.2344	1198.4263	0.147803	-439.08595	-439.077435	-439.076491	-439.119536	31.65	
C	 0.0313331743	 1.5251959873	 0.0452883483	-0.489782
C	-0.0142559821	 0.0275566047	-0.0258820475	 0.330118
C	-0.0302874395	-0.6738144848	-1.1594981378	-0.16877
C	-0.0473181989	-2.1758074012	-1.1324415959	-0.137732
O	 1.112036334	-2.7793504363	-0.5240209313	-0.265503
C	 1.4005322907	-2.6893588984	 0.8056317489	 0.440344
N	 2.0072097604	-3.6120665807	 1.4187227483	-0.511786
O	 1.1778732425	-1.5310784633	 1.4686658285	-0.235006
C	-0.0038752356	-0.7430835819	 1.2766184769	-0.179281
H	 0.9436686763	 1.8637161881	 0.5522157357	 0.142883
H	 0.0021291778	 1.977585942	-0.9490447904	 0.128913
H	-0.8127749585	 1.9190136337	 0.6257477497	 0.13161
H	-0.0041326977	-0.1793539136	-2.1263579047	 0.099052
H	-0.9485231968	-2.552895672	-0.6275489165	 0.117944
H	-0.0466490691	-2.5852921018	-2.1438730282	 0.126348
H	 2.1778315963	-4.3832877776	 0.7754496634	 0.224968
H	-0.0076535715	-0.0659546297	 2.1332143415	 0.12532
H	-0.8935238823	-1.3828006347	 1.3605856512	 0.120359
49.5243	129.0601	168.6239	204.2022	274.7439	307.7682	344.4867	389.8762	482.5914	513.7662	638.3613	672.2568	746.9682	774.7176	832.8996	856.8573	861.7576	929.1848	984.7747	995.6494	1049.777	1069.7744	1096.4434	1112.8843	1140.8519	1218.068	1282.8473	1288.5832	1294.8676	1357.0131	1400.5455	1413.833	1426.5076	1478.3423	1486.259	1493.6498	1507.5285	1740.0933	1745.1741	2997.8065	3007.2094	3019.3602	3068.0899	3107.2759	3113.7178	3118.8491	3169.3255	3515.2749
CC1=CCOC(=N)OC1	CC1=CCO[C]([NH])OC1	
InChI=1S/C6H9NO2/c1-5-2-3-8-6(7)9-4-5/h2,7H,3-4H2,1H3	InChI=1S/C6H9NO2/c1-5-2-3-8-6(7)9-4-5/h2,7H,3-4H2,1H3
