17
gdb 85469	3.09669	1.21022	0.96432	3.0342	72.96	-0.2582	0.0113	0.2695	1194.8734	0.137219	-418.075452	-418.067003	-418.066059	-418.108748	31.343	
C	 0.5224077359	 1.5431156796	-0.2746698176	-0.396347
C	 0.0476985795	 0.124067837	 0.0491333684	 0.010087
N	 0.2797987289	-0.8174900103	-1.0358429577	-0.305036
C	 1.3904219088	-1.6134526154	-0.9114936923	 0.404451
O	 1.8300627285	-2.3643859923	-1.7497295457	-0.366644
C	 1.9630036656	-1.3523281491	 0.4865156255	-0.347807
C	 0.8317015273	-0.5861750583	 1.2074647757	-0.166607
C	 1.2828646565	 0.3124908835	 2.2623309249	 0.282146
N	 1.6430305537	 1.0218115164	 3.1007960417	-0.326285
H	 1.5947834308	 1.5643236426	-0.4920225892	 0.132892
H	-0.0078060246	 1.9228504357	-1.1534145172	 0.121954
H	 0.3261397932	 2.2200323443	 0.56104771	 0.14873
H	-1.0176826159	 0.1508561675	 0.3014582056	 0.105921
H	-0.168272702	-0.7243307853	-1.9346837588	 0.256592
H	 2.2384879831	-2.2848216037	 0.979463967	 0.150287
H	 2.8693895516	-0.7476591491	 0.386307888	 0.153174
H	 0.1542232491	-1.316666353	 1.6619947817	 0.142492
90.6629	103.2255	145.5076	221.1523	248.6742	346.096	413.0466	453.4887	483.1994	492.5607	562.7561	599.0729	656.0243	698.6464	772.5921	857.4828	939.7749	983.2416	991.3043	1054.254	1085.426	1098.4648	1138.7163	1172.8324	1248.8308	1265.9448	1291.022	1331.3826	1350.8763	1393.3559	1415.5826	1431.7427	1472.8471	1491.3035	1495.7711	1842.0203	2359.7049	3041.7332	3043.5721	3059.8473	3076.6154	3114.0854	3126.5077	3139.3712	3631.7197
CC1NC(=O)CC1C#N	C[C@H]1NC(=O)C[C@H]1C#N	
InChI=1S/C6H8N2O/c1-4-5(3-7)2-6(9)8-4/h4-5H,2H2,1H3,(H,8,9)	InChI=1S/C6H8N2O/c1-4-5(3-7)2-6(9)8-4/h4-5H,2H2,1H3,(H,8,9)/t4-,5+/m1/s1
