20
gdb 126717	4.91879	0.84881	0.79359	4.215	83.02	-0.2418	0.0068	0.2486	1542.3823	0.171396	-399.346105	-399.336657	-399.335713	-399.382048	33.5	
C	 0.3583202179	 1.3720659302	 0.3247239048	-0.376617
C	-0.1789815576	 0.0060038876	-0.1044971008	-0.145316
N	 0.5637786059	-0.5664430028	-1.2175676254	 0.082596
C	 1.7454902688	-1.2313506357	-1.2142290637	-0.202619
C	 2.0149427069	-1.478379761	-2.5416823172	 0.309693
C	 3.1589265569	-2.2023934652	-3.1804799494	-0.282527
C	 2.7452434563	-3.5511779273	-3.7917228077	-0.367496
N	 0.9915067241	-0.9516845065	-3.2766074504	-0.255099
N	 0.121261619	-0.4011004781	-2.4783347736	-0.152726
H	 1.3957291109	 1.3015704109	 0.6646332949	 0.126894
H	 0.3155932518	 2.0773122142	-0.5092400395	 0.147512
H	-0.2446101274	 1.7685949824	 1.1470032087	 0.126083
H	-0.1493997831	-0.7061896247	 0.7258019832	 0.123826
H	-1.2137992509	 0.0858439488	-0.4440471269	 0.146794
H	 2.2735641774	-1.4674332905	-0.3052778609	 0.136938
H	 3.5835453923	-1.5667791536	-3.9660842156	 0.12039
H	 3.9493272473	-2.3539209976	-2.4371910954	 0.098279
H	 2.3623051336	-4.2299607507	-3.022937533	 0.113186
H	 1.9561387384	-3.4060801612	-4.5342840721	 0.141217
H	 3.5961890817	-4.0349940992	-4.2811145602	 0.10899
30.3139	42.1267	98.7988	169.3637	194.7917	228.7858	297.4442	368.8957	408.2154	435.1757	609.0029	681.9857	724.1378	741.0949	781.6522	792.6689	799.1035	967.3556	971.6893	1036.964	1058.338	1068.3462	1089.7671	1092.955	1104.4009	1163.0459	1246.9203	1269.9976	1295.9305	1343.0495	1359.9962	1383.8937	1391.5975	1408.2231	1411.1824	1470.7525	1479.4733	1490.1871	1493.6687	1496.9462	1505.2238	1508.2924	1589.1977	3036.3935	3038.7485	3045.781	3062.5562	3072.8828	3107.914	3110.7026	3123.8531	3124.0354	3135.9636	3274.4001
CCN1C=C(CC)N=N1	CCn1cc(CC)nn1	
InChI=1S/C6H11N3/c1-3-6-5-9(4-2)8-7-6/h5H,3-4H2,1-2H3	InChI=1S/C6H11N3/c1-3-6-5-9(4-2)8-7-6/h5H,3-4H2,1-2H3
