20
gdb 36359	2.31771	1.27312	0.89493	1.1865	85.3	-0.2297	0.0511	0.2808	1331.8092	0.169213	-365.926787	-365.917536	-365.916592	-365.961554	34.873	
C	-0.4199605207	-1.1442471562	-0.6370241014	-0.452857
C	-0.2811540161	 0.0152915132	-0.3534677029	 0.319099
C	-0.0954341896	 1.4264384	-0.0280988364	-0.386151
C	 1.3717968661	 1.8267498782	 0.0826362632	 0.024874
C	 1.7741491685	 2.9813807165	 0.9367695156	-0.270562
N	 2.1690678998	 1.6220381103	 1.2903245555	-0.080173
C	 1.5879300452	 1.023842663	 2.4598051049	 0.0759
C	 1.9524815449	-0.4054880669	 2.7480857401	-0.265858
C	 2.5295695629	 0.706203736	 3.5917681249	-0.280073
H	-0.5477248587	-2.1698515505	-0.8797945607	 0.196177
H	-0.5584135896	 2.0416543463	-0.8111382428	 0.134858
H	-0.6302769715	 1.6670175492	 0.8970600346	 0.129928
H	 1.9321137727	 1.6398859669	-0.8317447482	 0.100063
H	 2.5719264873	 3.6545272034	 0.6332845127	 0.114261
H	 0.9885180607	 3.4509095407	 1.5293534454	 0.105048
H	 0.5842187135	 1.3446463908	 2.7444390781	 0.071549
H	 1.1944545932	-1.0501943218	 3.1776501989	 0.111951
H	 2.6127113797	-0.8875660046	 2.0371691079	 0.123268
H	 3.5718529936	 0.9593563975	 3.4375931651	 0.120588
H	 2.1713613881	 0.830266888	 4.6077116556	 0.108107
50.9243	57.3631	134.634	181.0924	239.6092	315.8878	344.4786	366.5143	417.2826	501.4238	563.1187	618.635	639.9048	703.8886	780.2036	791.4895	835.9396	876.7453	918.6556	958.6135	972.0559	972.9111	1035.8398	1059.3474	1074.7203	1076.8693	1102.0526	1123.3282	1124.9924	1154.9316	1194.3983	1196.8843	1227.0879	1242.2696	1313.3241	1335.7114	1399.4336	1417.083	1456.5925	1465.0665	1496.3693	1512.8241	2239.5458	3023.0575	3059.9605	3073.9798	3083.3377	3120.3323	3138.5551	3145.7089	3170.2341	3224.557	3238.761	3507.4621
C#CCC1CN1C1CC1	C#CC[C@H]1CN1C1CC1	
InChI=1S/C8H11N/c1-2-3-8-6-9(8)7-4-5-7/h1,7-8H,3-6H2	InChI=1S/C8H11N/c1-2-3-8-6-9(8)7-4-5-7/h1,7-8H,3-6H2/t8-,9?/m0/s1
