18
gdb 37258	3.21486	2.14183	1.72433	1.55	76.52	-0.202	0.0748	0.2768	836.8649	0.151166	-364.722711	-364.716851	-364.715907	-364.752435	26.163	
C	 0.0202378174	 1.5202500111	-0.1231073799	-0.254714
C	 1.2675001468	 0.7137231196	-0.0172483581	-0.026438
C	 2.0536954161	 0.6744387475	 1.2531633634	-0.041745
C	 1.4185443804	 0.7742572993	 2.6165794543	-0.111921
C	 2.0142289335	-0.5419118942	 2.1585327165	-0.089498
C	 0.6060853992	-1.1946242549	 2.1833020388	-0.091525
C	 0.0035847516	 0.1315793917	 2.6502181321	-0.108704
C	-0.3834930326	-0.4636810223	 1.316466447	-0.003568
N	-0.04314652	 0.059575682	 0.0154911161	-0.116349
H	-0.2571420041	 2.1232037403	 0.7382464751	 0.115149
H	-0.3051782307	 1.9036068669	-1.0857207562	 0.111477
H	 1.842222893	 0.5159754479	-0.9214053717	 0.08517
H	 3.0357794529	 1.1368834699	 1.1985311296	 0.088586
H	 1.7815686815	 1.4544386128	 3.3761621696	 0.087519
H	 2.9085725063	-1.0428176106	 2.5048189061	 0.088073
H	 0.4247893851	-2.1947045678	 2.5555673902	 0.087497
H	-0.7111017013	 0.3091765465	 3.4438875691	 0.085175
H	-1.3725236451	-0.9153099157	 1.321859748	 0.095815
258.644	272.6191	476.3043	503.4986	582.4697	605.9949	661.9276	724.3036	729.1508	736.082	752.7391	835.6596	866.2307	888.9124	890.4779	940.8527	945.0576	981.5444	993.6318	1015.3335	1016.3429	1054.72	1071.0555	1082.6334	1094.4111	1103.2903	1113.7406	1141.9774	1163.0227	1178.8976	1243.6399	1287.5836	1303.1918	1313.1642	1324.9149	1395.55	1410.4838	1446.9092	1499.1317	3100.5597	3105.6294	3137.1614	3144.7932	3179.8956	3190.7129	3191.3007	3195.5801	3202.6956
C1C2C3C4C3C3C4C3N12	C1[C@H]2[C@H]3[C@@H]4[C@H]3[C@H]3[C@@H]4[C@H]3N12	
InChI=1S/C8H9N/c1-2-3-4-5(3)7-6(4)8(7)9(1)2/h2-8H,1H2	InChI=1S/C8H9N/c1-2-3-4-5(3)7-6(4)8(7)9(1)2/h2-8H,1H2/t2-,3-,4+,5-,6+,7-,8+,9?/m0/s1
