16
gdb 54052	1.97359	1.44849	0.95341	2.0974	72.85	-0.2706	-0.0372	0.2334	1235.8426	0.121464	-437.902066	-437.892496	-437.891551	-437.937401	33.599	
C	-0.0586146519	 1.5279024206	 0.056991326	-0.507627
C	-0.0507444728	 0.0110296189	 0.0485398744	 0.431749
O	-0.080554816	-0.6370913161	 1.0688677824	-0.325486
N	-0.0039017498	-0.6439994109	-1.1958030417	-0.133808
C	-0.0312867124	-2.1188437304	-1.1924199786	-0.325711
C	-1.3861150408	-2.6576957855	-1.141741164	 0.340673
C	-2.4969513109	-3.111660615	-1.1059611473	-0.46299
C	 0.0631262461	-0.0023395662	-2.4246009036	 0.171761
O	 0.1161580841	-0.5794322743	-3.4827191033	-0.302675
H	 0.8463218724	 1.9417455149	-0.3975220168	 0.153152
H	-0.9218098276	 1.9297798671	-0.4816045545	 0.155297
H	-0.1092504695	 1.8403896711	 1.0994063695	 0.160157
H	 0.4687729364	-2.4414616296	-2.10798765	 0.16822
H	 0.5392188285	-2.4534536942	-0.3241236895	 0.166042
H	-3.4787572762	-3.5149986992	-1.0714129808	 0.205695
H	 0.0712596104	 1.0944119887	-2.3426317521	 0.105551
36.3464	80.4478	111.7255	180.4559	213.2976	260.376	296.8135	332.8866	352.5384	407.6046	513.2003	559.5497	614.628	617.5514	652.1973	671.5485	823.9033	929.5948	977.5802	984.7376	1031.7312	1057.6373	1097.0142	1230.3994	1327.1391	1365.3647	1386.9233	1399.9561	1447.8143	1452.1555	1478.3677	1487.3525	1780.073	1823.1986	2246.9424	3031.0129	3052.9096	3082.1787	3118.9532	3132.6446	3164.6351	3505.047
CC(=O)N(CC#C)C=O	CC(=O)N(CC#C)C=O	
InChI=1S/C6H7NO2/c1-3-4-7(5-8)6(2)9/h1,5H,4H2,2H3	InChI=1S/C6H7NO2/c1-3-4-7(5-8)6(2)9/h1,5H,4H2,2H3
