18
gdb 113686	2.77428	1.02186	0.8655	1.1121	69.82	-0.2555	0.0005	0.2561	1373.8012	0.146685	-476.214667	-476.204937	-476.203993	-476.250461	33.766	
C	 0.6345971442	 1.5465964584	-0.3021234959	-0.241012
O	 1.195401876	 0.2460585353	-0.52922501	-0.217842
C	 0.350637775	-0.6513910438	-1.0641398813	 0.455649
O	-0.7991695815	-0.4113225651	-1.3428104589	-0.371684
C	 0.9628929439	-2.0008079361	-1.2883089168	-0.158652
N	 2.4251815599	-2.1517040014	-1.3560498721	-0.334434
C	 1.7054836127	-2.8030687078	-0.2599198127	-0.023061
C	 2.0602401093	-2.3238388864	 1.1294187017	-0.082505
O	 3.3269751699	-2.8330696758	 1.5172867209	-0.420146
H	 0.2810858946	 1.9798707516	-1.2407536274	 0.143954
H	-0.2045291618	 1.4891377711	 0.3956425125	 0.14167
H	 1.4421865451	 2.1463298234	 0.1169421556	 0.135837
H	 0.3476851409	-2.5762159491	-1.9741539968	 0.113751
H	 2.6654107936	-2.8159827877	-2.0867299473	 0.243058
H	 1.557725168	-3.8800079402	-0.3310625246	 0.101782
H	 2.0359379752	-1.2295618834	 1.1662108477	 0.112062
H	 1.3375067141	-2.7116343023	 1.8548531417	 0.111222
H	 3.9650507209	-2.4725739706	 0.8909029838	 0.290353
52.8316	65.0624	109.5619	128.9737	156.9462	219.9228	249.2768	327.5936	396.1554	434.9308	441.5156	532.0429	648.5424	781.974	830.9008	844.0977	894.4584	954.7387	980.2955	1010.8779	1041.0814	1068.2984	1117.9317	1176.7194	1179.8806	1183.8869	1210.7497	1247.9689	1271.533	1321.4579	1374.3327	1398.1423	1427.2054	1467.422	1478.6967	1482.0548	1497.5372	1501.7499	1808.1998	3046.1109	3054.1359	3091.457	3120.8448	3129.6117	3157.7794	3162.886	3509.4599	3799.5337
COC(=O)C1NC1CO	COC(=O)[C@H]1N[C@H]1CO	
InChI=1S/C5H9NO3/c1-9-5(8)4-3(2-7)6-4/h3-4,6-7H,2H2,1H3	InChI=1S/C5H9NO3/c1-9-5(8)4-3(2-7)6-4/h3-4,6-7H,2H2,1H3/t3-,4-/m0/s1
