18
gdb 107716	3.6685	1.35813	1.13411	3.5604	71.94	-0.2369	0.0657	0.3025	1076.505	0.147723	-438.982706	-438.974678	-438.973733	-439.015465	31.348	
O	 0.4507864812	 0.2912186395	 0.9019522683	-0.440579
C	-0.2075965397	 0.3076919635	-0.3508604217	-0.159376
C	-1.5486150165	-0.3674874903	-0.3028853355	 0.311698
C	-2.6227065601	-0.5662081008	-1.3978605213	-0.396088
C	-3.2179928915	-1.2541523381	-0.1480701812	 0.381356
O	-4.3809162634	-1.9794350695	-0.0051214333	-0.467978
C	-1.8325098749	-1.770609051	 0.336620049	-0.096507
N	-1.9073484122	-1.1758482965	 1.7145507795	-0.372452
C	-2.6080094668	-0.1803223116	 0.8328932108	-0.130881
H	-0.1012682155	-0.2153224683	 1.5187369283	 0.300679
H	-0.3376836598	 1.3503825402	-0.6815159759	 0.091514
H	 0.4193087368	-0.1857245876	-1.1114123977	 0.090679
H	-3.1251409982	 0.3386344424	-1.754923583	 0.096128
H	-2.353606694	-1.2179595025	-2.2342123306	 0.105955
H	-5.1293330565	-1.4155982185	-0.2299830474	 0.288893
H	-1.3442255389	-2.720210433	 0.1152561053	 0.090373
H	-2.576860549	-1.6861803894	 2.2946912619	 0.221686
H	-3.037557501	 0.7520656716	 1.2024727844	 0.084902
45.7207	183.7891	220.0873	262.8583	330.5521	384.9947	401.213	419.1112	474.7324	534.0383	635.7181	699.3363	716.4061	799.6602	880.1174	896.4279	908.9206	959.8706	1000.4274	1025.1054	1039.6522	1055.7836	1088.2225	1093.7939	1146.3144	1147.1116	1161.9952	1168.5335	1185.9357	1266.6906	1273.0859	1277.1085	1295.0297	1340.6105	1366.011	1411.4142	1493.1413	1518.7183	1523.3886	2969.1387	2988.688	3043.5712	3104.5105	3106.7904	3116.9979	3422.2014	3655.9216	3803.6344
OCC12CC3(O)C1NC23	OC[C@@]12C[C@@]3(O)[C@@H]1N[C@@H]23	
InChI=1S/C6H9NO2/c8-2-5-1-6(9)3(5)7-4(5)6/h3-4,7-9H,1-2H2	InChI=1S/C6H9NO2/c8-2-5-1-6(9)3(5)7-4(5)6/h3-4,7-9H,1-2H2/t3-,4+,5+,6-
