16
gdb 26590	2.37252	1.88089	1.05663	2.8206	77.99	-0.2005	-0.0323	0.1681	1079.1647	0.125404	-434.117716	-434.109342	-434.108398	-434.150916	31.292	
C	-0.0053266581	 1.5523593853	 0.0395543232	-0.525223
C	 0.0058870788	 0.0480235987	 0.0207451021	 0.160928
C	-1.14259496	-0.6930891813	 0.0578480207	 0.287988
N	-2.3955364726	-0.1463589597	 0.1438367276	-0.565707
N	-1.1545042348	-2.0872186737	 0.0522435195	-0.335034
C	-0.0130054194	-2.6527495959	 0.0080159996	 0.134038
O	 1.1810765852	-2.0574288812	-0.0328865803	-0.218872
C	 1.2698925028	-0.6406319046	-0.0316060533	 0.318898
N	 2.4179318904	-0.0994796737	-0.0759003816	-0.554627
H	 1.0165296668	 1.9265394338	 0.1026291178	 0.169534
H	-0.4595342425	 1.9709441728	-0.8695037053	 0.117594
H	-0.571156507	 1.9385069195	 0.896699358	 0.123942
H	-2.5190013088	 0.810887285	-0.1407862564	 0.261738
H	-3.1536450404	-0.7744262792	-0.0700107904	 0.262915
H	 0.0797278014	-3.7352163636	-0.0020460106	 0.142659
H	 3.1538614383	-0.8026529522	-0.1053526208	 0.21923
57.4584	121.312	166.1317	259.8468	289.4997	353.9629	416.4259	464.1228	497.906	513.9515	525.9186	539.3439	679.2913	684.7604	769.0308	807.1102	887.3278	891.7338	963.4239	987.0513	1032.6073	1059.3926	1166.7673	1196.4322	1244.8797	1322.7473	1387.8458	1408.7605	1435.8563	1493.8889	1497.6666	1617.1077	1649.4715	1695.1286	1738.9914	3004.7306	3052.3805	3149.6521	3184.2564	3513.4007	3599.0719	3719.3599
CC1=C(N)N=COC1=N	CC1=C(OC=N[C@H]1N)[NH]	
InChI=1S/C5H7N3O/c1-3-4(6)8-2-9-5(3)7/h2,7H,6H2,1H3	InChI=1S/C5H8N3O/c1-3-4(6)8-2-9-5(3)7/h2,4,7H,6H2,1H3/t4-/m1/s1
