19
gdb 32219	2.53469	1.51245	1.03056	0.7956	85.35	-0.2389	-0.0391	0.1997	1195.1509	0.160304	-382.136367	-382.127676	-382.126732	-382.170178	32.039	
C	-0.1165896014	 1.6047937939	-0.0386813481	-0.376179
C	-0.0113193676	 0.0691903642	-0.0108811081	-0.268705
C	 0.7318670362	-0.4690496084	-1.2099920631	 0.270442
N	 0.0103160052	-0.6373913281	-2.3221048801	-0.290892
C	 0.6443352943	-1.08572277	-3.4061348245	-0.029713
C	 2.002298157	-1.3723937151	-3.3867519551	-0.02542
N	 2.7360856109	-1.2092403861	-2.2846950064	-0.289308
C	 2.1145022301	-0.756381966	-1.1913265129	 0.274809
C	 2.9618141874	-0.5796412929	 0.0429460147	-0.493097
H	 0.8717040397	 2.0758471583	-0.0127072509	 0.118348
H	-0.6214112909	 1.9326019201	-0.9517942896	 0.135407
H	-0.6870335026	 1.9702022096	 0.8203994759	 0.11685
H	 0.4707622215	-0.2529231824	 0.9167169883	 0.102328
H	-1.0181464593	-0.3587105445	-0.0251646935	 0.120157
H	 0.0517433667	-1.2210927913	-4.3074054053	 0.111307
H	 2.5139384107	-1.7415953879	-4.2719802316	 0.111295
H	 2.8971799603	 0.4390626619	 0.4394042212	 0.134219
H	 2.6485394751	-1.2570435487	 0.8458469311	 0.136159
H	 4.0017105668	-0.7959420266	-0.2055167616	 0.141994
55.7054	110.8315	134.7169	199.6241	221.7378	315.2992	339.9313	428.0006	480.2064	528.6814	582.9818	608.2027	719.3009	793.4655	816.4562	882.2416	883.2898	978.196	985.4604	995.2987	1052.5262	1054.1583	1082.1047	1108.7631	1182.5343	1236.5257	1269.8433	1288.2281	1301.2144	1353.2388	1402.2727	1405.0831	1434.3486	1465.7474	1483.7338	1487.1537	1496.3709	1497.7466	1508.5622	1587.1271	1603.1658	3034.1129	3037.1449	3055.1704	3088.1264	3092.8457	3109.433	3121.6641	3143.9239	3151.533	3171.1499
CCC1=NC=CN=C1C	CCc1nccnc1C	
InChI=1S/C7H10N2/c1-3-7-6(2)8-4-5-9-7/h4-5H,3H2,1-2H3	InChI=1S/C7H10N2/c1-3-7-6(2)8-4-5-9-7/h4-5H,3H2,1-2H3
