18
gdb 63118	2.21304	1.68052	1.19421	5.7066	78.	-0.2621	0.0198	0.2819	1086.549	0.146761	-401.934876	-401.926117	-401.925172	-401.967747	33.482	
C	-0.0455898669	 1.5692754051	 0.050816924	-0.462725
C	 0.0618064998	 0.0610560539	 0.0472039379	 0.350919
O	-1.1050486047	-0.576541091	-0.3989279011	-0.453791
C	 1.3124342706	-0.7192774237	-0.2521217702	-0.165221
C	 2.5751995381	-0.0579228753	 0.3061455422	-0.244535
C	 1.946647302	-0.0632506174	 1.736674652	-0.30061
C	 0.6838001504	-0.7417583136	 1.1750331317	 0.158032
C	-0.0274624683	-1.7827215153	 1.840514983	 0.217841
N	-0.5691759927	-2.6240651647	 2.4225737268	-0.361448
H	 0.8430290895	 2.0592529027	 0.4526464437	 0.127933
H	-0.1900947076	 1.9353650958	-0.9727976881	 0.117101
H	-0.9111627874	 1.8756737882	 0.6448399451	 0.141925
H	-1.1901687591	-0.4178964148	-1.3456021275	 0.28936
H	 1.2797643606	-1.5196804566	-0.9816893251	 0.109693
H	 3.4485774432	-0.7092155937	 0.2444000077	 0.121019
H	 2.8382273931	 0.9141855328	-0.1202938703	 0.108308
H	 2.4852109047	-0.7187423304	 2.4217835892	 0.132917
H	 1.7910920047	 0.9012631779	 2.2264933688	 0.11328
125.1659	149.6972	191.9721	236.5723	247.2489	262.6326	322.6905	379.4854	412.5583	465.5086	537.8385	577.8703	616.6301	691.9626	701.877	799.3878	899.2857	943.3857	951.9265	963.9867	997.0121	1035.5949	1083.3121	1100.8363	1133.6978	1186.7988	1217.3032	1223.1831	1251.6841	1273.8271	1299.3099	1316.2292	1414.3606	1438.9151	1474.6546	1496.9538	1498.7507	1506.6918	2346.0004	3035.44	3060.9656	3072.1519	3102.7521	3113.5388	3134.0197	3138.0989	3189.9927	3800.9714
CC1(O)C2CCC12C#N	C[C@@]1(O)[C@H]2CC[C@@]12C#N	
InChI=1S/C7H9NO/c1-6(9)5-2-3-7(5,6)4-8/h5,9H,2-3H2,1H3	InChI=1S/C7H9NO/c1-6(9)5-2-3-7(5,6)4-8/h5,9H,2-3H2,1H3/t5-,6-,7+/m1/s1
