21
gdb 61877	2.29426	0.95581	0.74373	3.9921	80.49	-0.2738	0.0113	0.2851	1578.1042	0.180441	-424.244019	-424.233929	-424.232985	-424.280621	35.838	
C	-0.0770221966	 1.6082852083	-0.0622071445	-0.39473
C	-0.0977874454	 0.0844333703	-0.031907743	 0.115808
C	-1.4973820785	-0.5074080432	-0.2079751311	-0.214942
C	-1.5291671463	-2.0183127649	-0.1305241188	 0.021462
C	-1.5772959773	-2.7116792838	 1.2105837064	-0.262073
C	-2.7820488269	-2.7333917546	 0.3016747743	-0.276014
O	 0.7237843642	-0.4095769331	-1.1153880222	-0.18998
C	 1.9400186703	-0.90128462	-0.8267806583	 0.170174
O	 2.6962816271	-1.297262352	-1.6630512466	-0.280671
H	 0.9414798849	 1.9871701936	 0.0624764521	 0.124776
H	-0.4642196572	 1.9773391115	-1.0165428241	 0.135867
H	-0.6955313155	 2.0144405777	 0.7440266028	 0.121893
H	 0.3282016596	-0.277660464	 0.9140869502	 0.089704
H	-2.1429719368	-0.0829219053	 0.5710105902	 0.097324
H	-1.8991184059	-0.1673484523	-1.1709528709	 0.113119
H	-0.9432752555	-2.5122707672	-0.899497762	 0.104122
H	-1.0123715093	-3.6276739362	 1.3425967779	 0.116109
H	-1.6310414614	-2.0932351403	 2.1013802882	 0.106668
H	-3.639271734	-2.1307566057	 0.5845762175	 0.110457
H	-3.0399379914	-3.6642074192	-0.1908913192	 0.116401
H	 2.1565660416	-0.9037476295	 0.2601437711	 0.074525
32.1372	59.2685	95.6708	146.5278	166.5016	212.3124	255.6135	311.1007	315.7225	385.5854	485.7377	516.23	611.2359	775.1207	807.1021	835.1523	880.9335	897.0822	936.6142	948.8485	991.3614	1039.58	1049.1055	1060.1186	1079.3187	1124.0266	1145.4089	1153.7519	1166.6655	1200.6298	1213.0884	1229.2881	1281.9453	1308.3108	1374.059	1384.0282	1411.9328	1420.6629	1441.7182	1466.3856	1472.3324	1487.748	1496.5624	1507.3787	1861.4153	2938.3619	3012.1051	3024.0107	3041.987	3065.0432	3116.1333	3120.1705	3126.7243	3132.8055	3158.692	3205.8792	3221.3762
CC(CC1CC1)OC=O	C[C@@H](CC1CC1)OC=O	
InChI=1S/C7H12O2/c1-6(9-5-8)4-7-2-3-7/h5-7H,2-4H2,1H3	InChI=1S/C7H12O2/c1-6(9-5-8)4-7-2-3-7/h5-7H,2-4H2,1H3/t6-/m0/s1
