19
gdb 60929	2.65597	1.13378	0.91731	3.6078	72.75	-0.2537	-0.0289	0.2248	1303.7742	0.156392	-460.148776	-460.138819	-460.137875	-460.184277	35.816	
C	 0.1162757764	 1.6099521271	-0.3469004158	-0.420907
C	 0.0585347836	 0.1142387957	-0.1240592231	-0.06713
C	 1.3161076808	-0.7259587106	-0.0717068479	 0.056851
O	 2.5736939737	-0.1042836725	-0.0807733627	-0.418136
C	 0.5029626805	-0.5324023573	 1.1798429945	-0.07623
C	 1.0318885779	 0.298524459	 2.3394287214	 0.044077
O	-0.0155012965	 0.74045964	 3.1642240786	-0.443801
C	 2.0239069748	-0.5236144577	 3.1418564447	 0.129717
O	 1.8589914641	-0.7462465696	 4.3180759164	-0.267971
H	 1.0905214633	 2.0230424786	-0.0749994116	 0.126431
H	-0.0568522893	 1.8455132315	-1.4025855872	 0.113019
H	-0.6474438844	 2.126954267	 0.2420475921	 0.139806
H	-0.7952074402	-0.3715213255	-0.5895159236	 0.090796
H	 1.3006147916	-1.7097269437	-0.5401626628	 0.090769
H	 2.7710377208	 0.1668756012	-0.9837242604	 0.293868
H	-0.080871259	-1.3851332958	 1.5150468725	 0.097444
H	 1.6005702125	 1.1528947865	 1.9427007157	 0.103489
H	 0.1881053231	 0.3898376324	 4.0462052124	 0.291469
H	 2.9001787662	-0.9043869564	 2.5832105069	 0.116441
39.9901	87.8273	132.689	151.1973	192.4117	247.8798	285.9552	305.2419	318.2923	377.504	457.6882	485.2373	548.7683	612.0174	763.2847	778.6716	795.8298	842.2643	918.2464	981.8099	1000.6452	1027.664	1066.5956	1114.6883	1144.8704	1151.2435	1161.086	1176.598	1246.9092	1271.1123	1283.7395	1308.1831	1376.484	1384.9213	1387.7202	1416.831	1435.7204	1458.3331	1499.054	1506.4795	1808.9143	2961.572	3003.0823	3039.0229	3098.0402	3098.7608	3120.6065	3138.2581	3151.0244	3684.4201	3802.6338
CC1C(O)C1C(O)C=O	C[C@H]1[C@@H](O)[C@H]1[C@@H](O)C=O	
InChI=1S/C6H10O3/c1-3-5(6(3)9)4(8)2-7/h2-6,8-9H,1H3	InChI=1S/C6H10O3/c1-3-5(6(3)9)4(8)2-7/h2-6,8-9H,1H3/t3-,4+,5-,6-/m1/s1
