15
gdb 128239	2.17475	1.60003	0.92993	4.2142	77.39	-0.2126	-0.0321	0.1804	1197.9816	0.111911	-416.755702	-416.747253	-416.746308	-416.788988	30.979	
C	 0.0204455881	 1.3494711255	 0.1050628316	-0.333723
N	-0.1668170292	-0.0728431269	-0.1142557955	-0.405004
C	 0.556169345	-0.6831805834	-1.1178140409	 0.115458
C	 1.2121902153	-0.1636881838	-2.1938223116	-0.033105
O	 1.7312105631	-1.1672189507	-2.945032528	-0.162794
N	 1.4412456233	-2.3752772946	-2.3708084454	-0.208254
C	 0.7411578834	-2.0989799918	-1.2831824552	 0.206255
C	 0.2635894261	-3.102213257	-0.407121485	 0.250736
C	-0.1669786251	-3.8974574615	 0.3871879497	-0.411628
H	 1.0701712392	 1.6274963678	 0.2901675327	 0.117969
H	-0.3283824585	 1.9082179637	-0.770768951	 0.136039
H	-0.5821760771	 1.6632249662	 0.9596985368	 0.132919
H	-0.2255802912	-0.6295788847	 0.7261235975	 0.246361
H	 1.3859511862	 0.8355246645	-2.5550644218	 0.145787
H	-0.5413766586	-4.6216131132	 1.0682975361	 0.202983
92.1253	117.871	163.5921	188.1558	219.3928	336.5139	386.8323	487.9296	511.5662	573.8744	600.0137	603.7149	608.3842	681.7053	727.5229	757.9085	765.8738	929.9808	991.8087	1076.7192	1124.6133	1150.9981	1171.2534	1228.2289	1314.59	1390.4996	1457.9465	1467.0991	1483.858	1515.1941	1539.5051	1670.6625	2237.1313	2979.5852	3061.8567	3126.8863	3286.6438	3499.489	3595.8618
CNC1=CON=C1C#C	CNc1conc1C#C	
InChI=1S/C6H6N2O/c1-3-5-6(7-2)4-9-8-5/h1,4,7H,2H3	InChI=1S/C6H6N2O/c1-3-5-6(7-2)4-9-8-5/h1,4,7H,2H3
