18
gdb 19845	3.25749	2.44088	1.74028	2.3682	70.46	-0.2261	0.0664	0.2925	798.8534	0.15809	-343.941713	-343.935434	-343.93449	-343.971751	26.096	
C	-0.024045467	 1.510460265	-0.0104866902	-0.210946
C	 1.4021277448	 2.0970734635	 0.0492294664	-0.210644
C	 2.1940709707	 1.5614983146	 1.227492575	-0.017222
N	 1.4255745657	 1.3239496823	 2.4578331003	-0.323857
C	 1.9371955324	 0.1690473066	 1.7008182406	-0.028799
C	 0.9569667086	-0.6825964254	 0.94042517	-0.017255
N	-0.4712718217	-0.643412965	 1.2958479031	-0.321715
C	-0.019088222	-0.012410292	 0.0386804078	-0.039233
H	-0.5970449943	 1.8811009077	 0.8421830779	 0.136508
H	-0.5205382484	 1.8568440578	-0.9223424262	 0.087324
H	 1.9505404237	 1.858584367	-0.8724378652	 0.092823
H	 1.3452818146	 3.1907425799	 0.1066543203	 0.098614
H	 3.2094340663	 1.9418882166	 1.3237990461	 0.07514
H	 2.0013224178	 1.4777060513	 3.2802785825	 0.229655
H	 2.7761130692	-0.3734376424	 2.1307281651	 0.074342
H	 1.3691367998	-1.6356721391	 0.6148442291	 0.07329
H	-0.889915274	-1.5485309919	 1.0960429476	 0.225438
H	-0.2620608563	-0.5249216864	-0.8894415704	 0.076536
181.9366	229.5041	344.8275	392.6669	466.2953	493.6579	599.5346	673.8501	759.429	778.348	806.9478	855.3295	878.898	909.5254	921.967	934.1881	979.7919	995.6086	1031.711	1045.5087	1108.6089	1117.7881	1147.0792	1167.9458	1178.7776	1205.746	1229.7073	1251.4969	1267.8336	1282.3614	1347.8195	1366.0518	1398.646	1416.8541	1457.4088	1463.4521	1476.9342	1488.0262	3014.7618	3050.7742	3057.9661	3110.7184	3113.6456	3119.1631	3127.8216	3135.6752	3495.9321	3514.7925
C1CC2NC2C2NC12	C1C[C@H]2N[C@H]2[C@H]2N[C@@H]12	
InChI=1S/C6H10N2/c1-2-4-6(8-4)5-3(1)7-5/h3-8H,1-2H2	InChI=1S/C6H10N2/c1-2-4-6(8-4)5-3(1)7-5/h3-8H,1-2H2/t3-,4+,5-,6+
