21
gdb 87390	2.08152	1.48259	1.05293	1.2751	78.6	-0.2419	0.0653	0.3072	1219.4348	0.180895	-424.19592	-424.18634	-424.185396	-424.230039	36.621	
C	-0.8135348874	 1.2535431377	 0.1609056376	-0.410625
C	 0.0041549121	-0.0071625617	-0.0749687494	-0.031995
C	 1.3528818888	 0.1092567147	-0.8512115192	-0.281286
C	 2.0124354954	-0.8535517831	 0.1774313839	 0.076115
O	 3.2996710349	-0.5694601528	 0.6661684838	-0.430736
C	 0.7955193007	-0.6292751382	 1.0893826385	 0.27392
C	 0.8692555902	-0.1114362286	 2.5070942937	-0.372334
C	 0.2779421993	-1.4597881305	 2.2228198577	 0.020612
O	-1.1086223235	-1.5648625394	 2.3990549662	-0.421646
H	-0.1994790074	 2.0459209042	 0.6026925138	 0.109771
H	-1.226317923	 1.6347660892	-0.7795419768	 0.112363
H	-1.6478457896	 1.0546744658	 0.8414005352	 0.127865
H	-0.6339134301	-0.7702339524	-0.5394502995	 0.061026
H	 1.3688975202	-0.181872544	-1.9041014256	 0.09945
H	 1.7749106431	 1.1166877964	-0.7599522484	 0.092388
H	 2.0654234621	-1.882289488	-0.1948545106	 0.086813
H	 3.2886054709	 0.332071844	 1.0064511176	 0.277993
H	 1.8435338621	-0.0783275417	 2.9852554743	 0.113494
H	 0.1783809809	 0.6703034448	 2.8042908527	 0.1246
H	 0.8510208341	-2.3386812023	 2.5220477303	 0.08576
H	-1.4472337037	-2.1613286039	 1.7227957542	 0.286452
69.0392	123.0658	165.8695	208.9499	237.6595	265.0936	313.0426	325.0308	354.8241	409.3741	470.7999	487.0825	534.0773	598.7946	683.5895	823.9149	837.0304	883.2209	889.3542	929.3718	966.3864	990.9584	1036.9121	1064.4437	1069.8057	1079.1482	1126.082	1147.0242	1168.5933	1180.6276	1188.5262	1230.3888	1262.2543	1282.9779	1298.4895	1313.1466	1335.5493	1372.4648	1404.7086	1418.234	1436.1397	1476.6917	1484.3968	1495.2516	1502.385	3011.7366	3026.902	3040.9119	3051.9773	3086.9383	3094.3315	3101.6898	3107.0729	3124.5159	3216.3587	3799.8702	3800.703
CC1CC(O)C11CC1O	C[C@H]1C[C@@H](O)[C@]21C[C@H]2O	
InChI=1S/C7H12O2/c1-4-2-5(8)7(4)3-6(7)9/h4-6,8-9H,2-3H2,1H3	InChI=1S/C7H12O2/c1-4-2-5(8)7(4)3-6(7)9/h4-6,8-9H,2-3H2,1H3/t4-,5+,6+,7+/m0/s1
