23
gdb 70876	2.38733	1.55044	1.35855	0.4444	90.46	-0.2262	0.0862	0.3124	1135.9321	0.204829	-351.128867	-351.119571	-351.118627	-351.161921	36.574	
C	-0.1261188671	 1.4496440923	 0.0052893152	-0.507535
C	 0.0116369279	-0.0439376258	-0.0197202599	 0.306142
C	 0.9493556399	-0.8737208488	-0.8939395232	-0.324544
C	 0.1044300792	-2.1105677415	-0.4738965803	 0.280253
C	-0.00274232	-3.3231184053	-1.360895349	-0.50426
C	 0.4121904504	-2.2449602301	 1.046076652	-0.276368
C	-0.31831099	-0.9176681105	 1.2094953235	-0.159702
C	-1.0734306544	-1.0973890152	-0.0909756064	 0.265311
C	-2.5254492062	-1.0468544414	-0.4369355056	-0.531073
H	 0.7673036472	 1.9265131245	 0.4264516964	 0.11781
H	-0.2738296459	 1.8554624536	-1.002496662	 0.113392
H	-0.9808738104	 1.7615314023	 0.6157592335	 0.114206
H	 0.8140181837	-0.6344614824	-1.9546261206	 0.08517
H	 2.0221153234	-0.8928792502	-0.6600176418	 0.078001
H	 0.9672559716	-3.8284324744	-1.4471446056	 0.11722
H	-0.7193053536	-4.0504904551	-0.9629790311	 0.113214
H	-0.3252158034	-3.0547540274	-2.3733780273	 0.112818
H	-0.1480263729	-3.0698624001	 1.498634956	 0.089317
H	 1.4667481441	-2.3158776274	 1.3410806066	 0.080831
H	-0.6840955655	-0.4608835161	 2.1218783359	 0.073618
H	-3.0016453116	-0.1680185166	 0.0125139205	 0.120855
H	-2.6850191221	-0.9870831445	-1.520526778	 0.116856
H	-3.0629933842	-1.93100159	-0.0733517091	 0.118467
169.4924	179.3714	188.5466	198.4425	201.9232	206.114	279.0379	342.4828	357.6491	450.5473	508.2767	556.3867	623.3435	643.1585	730.6054	751.29	822.9103	884.2972	904.1243	929.634	953.4203	975.0791	988.9135	1028.457	1052.4094	1089.8823	1106.5548	1132.3879	1144.5274	1157.9118	1193.2154	1203.8676	1222.8546	1248.0546	1257.0741	1338.9373	1341.7026	1410.4312	1413.2479	1417.1552	1459.9211	1482.0312	1488.1776	1490.5504	1491.8322	1493.7135	1498.0589	1503.2643	1517.5771	3007.5994	3013.6629	3016.0382	3017.149	3022.0394	3067.9854	3069.0326	3074.5862	3075.9787	3080.0516	3082.9306	3086.9785	3087.5995	3179.1202
CC12CC3(C)CC1C23C	C[C@@]12C[C@@]3(C)C[C@@H]1[C@@]23C	
InChI=1S/C9H14/c1-7-4-6-8(2,5-7)9(6,7)3/h6H,4-5H2,1-3H3	InChI=1S/C9H14/c1-7-4-6-8(2,5-7)9(6,7)3/h6H,4-5H2,1-3H3/t6-,7+,8+,9+/m0/s1
