17
gdb 115258	4.97148	0.89861	0.81795	0.5258	81.7	-0.2452	-0.0323	0.2128	1403.8026	0.134229	-421.792737	-421.783811	-421.782867	-421.826746	32.299	
C	 0.0444023661	 1.2759197138	-0.3038115311	-0.240156
O	-0.059078371	-0.1275076177	-0.1360438326	-0.237583
C	-1.3543920114	-0.55760395	 0.1868922808	 0.187307
O	-2.2717579944	-0.3968499754	-0.885785848	-0.267374
C	-2.5520654943	-1.654012623	-1.484126439	-0.177628
C	-1.9757089189	-2.6793900094	-0.5277128499	 0.183068
C	-1.3164232762	-2.0382819773	 0.4420796573	-0.247277
C	-2.1362297448	-4.0686784159	-0.7225604531	 0.217871
C	-2.30618561	-5.2425030413	-0.9332920189	-0.415564
H	 1.0961126936	 1.4976126272	-0.4966665939	 0.127605
H	-0.561864418	 1.6243736886	-1.1483133819	 0.126823
H	-0.2737287958	 1.8121715042	 0.6033814803	 0.105165
H	-1.7348173607	 0.0460747452	 1.0276131182	 0.072118
H	-3.6375512664	-1.7582344451	-1.6014669244	 0.123625
H	-2.0943636856	-1.7388561648	-2.480432157	 0.122231
H	-0.7719811621	-2.4820044121	 1.2629606807	 0.121066
H	-2.4439211001	-6.2813365272	-1.1055064175	 0.198704
75.6272	104.1525	133.716	161.5914	188.6995	259.0912	341.6386	438.1611	508.9457	532.2253	545.5979	582.2814	616.5446	642.9269	805.0668	863.372	908.1424	937.1271	988.3361	1013.2363	1035.9725	1073.9149	1130.3699	1178.1779	1196.1662	1200.4786	1215.4375	1271.4346	1347.8005	1384.2106	1397.7075	1475.8196	1484.357	1511.5771	1512.727	1685.5629	2227.8332	2966.3211	2989.8697	3002.5075	3049.4745	3062.1956	3125.7164	3245.3097	3502.2813
COC1OCC(=C1)C#C	CO[C@H]1OCC(=C1)C#C	
InChI=1S/C7H8O2/c1-3-6-4-7(8-2)9-5-6/h1,4,7H,5H2,2H3	InChI=1S/C7H8O2/c1-3-6-4-7(8-2)9-5-6/h1,4,7H,5H2,2H3/t7-/m0/s1
