21
gdb 53233	2.44614	1.02091	0.99117	1.6962	87.28	-0.2397	0.0445	0.2842	1395.7223	0.180803	-387.062491	-387.052158	-387.051214	-387.098846	37.195	
C	-0.42519772	 1.1882835546	 0.6445840296	-0.500381
C	-0.2358052343	-0.2240919937	 0.34061121	 0.0595
C	-0.0359065553	-1.3866856961	 0.0841317335	 0.076079
C	 0.1326560801	-2.7931846263	-0.2301137166	-0.23405
C	 0.5665155352	-3.701457867	 0.9715770409	-0.242975
C	-0.9053080199	-4.1719526603	 1.1599996794	-0.014764
C	-1.6509737167	-3.5085674269	 2.3143908834	-0.403972
C	-1.2311463482	-3.5846485977	-0.2529210733	 0.144184
O	-2.4157163464	-2.8745858644	-0.4601202892	-0.425793
H	 0.5367753587	 1.6901113531	 0.7967895097	 0.152043
H	-0.9428638761	 1.7060117448	-0.1703599966	 0.151166
H	-1.0176160095	 1.3271270091	 1.5555881281	 0.148845
H	 0.73514808	-2.9019705886	-1.1368495902	 0.096233
H	 1.2377182961	-4.5004581055	 0.6484383832	 0.101732
H	 1.0202177516	-3.1786455357	 1.8155897472	 0.1064
H	-1.0320809619	-5.2571576455	 1.2218429699	 0.067048
H	-1.4955313254	-2.425023751	 2.3276778136	 0.11759
H	-2.7269149707	-3.6921354307	 2.2373263329	 0.124113
H	-1.3029267551	-3.9036744303	 3.2746080458	 0.110374
H	-1.1952501212	-4.3672372621	-1.0166863197	 0.085416
H	-2.2921521911	-1.9933151398	-0.0826886115	 0.281212
29.93	67.712	90.3547	139.5357	214.3553	239.418	254.0863	295.5319	348.8029	365.5459	405.5789	464.2385	531.4937	592.3238	689.2601	747.2276	800.6487	846.7569	903.6578	933.2316	959.5702	1039.9277	1051.7361	1055.1219	1075.7239	1087.7332	1141.6167	1156.3431	1184.6277	1212.884	1248.6864	1254.6896	1274.8571	1325.1434	1346.4537	1370.8627	1408.8486	1415.3069	1440.5828	1477.9272	1479.2446	1483.8277	1494.3974	1505.0684	2351.1081	3027.5291	3034.2959	3046.2566	3053.8152	3063.9045	3074.4113	3088.4562	3089.144	3101.7429	3109.9741	3124.9546	3746.8758
CC#CC1CC(C)C1O	CC#C[C@H]1C[C@@H](C)[C@H]1O	
InChI=1S/C8H12O/c1-3-4-7-5-6(2)8(7)9/h6-9H,5H2,1-2H3	InChI=1S/C8H12O/c1-3-4-7-5-6(2)8(7)9/h6-9H,5H2,1-2H3/t6-,7+,8-/m1/s1
