20
gdb 114776	3.506	1.32428	1.2527	0.6109	77.37	-0.2297	0.0796	0.3093	1102.9345	0.17252	-403.102237	-403.094569	-403.093625	-403.134459	30.44	
C	 0.0946740994	 1.6995687105	 0.1499931619	-0.381818
C	-0.0187215647	 0.1755287546	 0.0601186868	-0.189264
C	 0.8449234358	-0.4124995699	-1.058847659	 0.112932
O	 2.2423093288	-0.0859427513	-0.9074024999	-0.282087
C	 2.9445222975	-1.3013237339	-0.7024921479	 0.06802
C	 2.4629369432	-2.0172121934	 0.5776522759	-0.175576
N	 1.4651979989	-2.8301150103	-0.2070871492	-0.164909
C	 2.1818709548	-2.4086286763	-1.4712420687	-0.070754
C	 0.8194557236	-1.9273820985	-1.2111219814	-0.058587
H	 1.1296854941	 1.9960701503	 0.3394124533	 0.134186
H	-0.2231868259	 2.1747365458	-0.7849197114	 0.112485
H	-0.5309429072	 2.0951477785	 0.9555276414	 0.110569
H	 0.2482680654	-0.2804868276	 1.0185346798	 0.105707
H	-1.0588357394	-0.1138081575	-0.1402749666	 0.097136
H	 0.5107077193	 0.02936956	-2.0108968005	 0.079612
H	 4.0082772535	-1.1275026673	-0.8601651108	 0.086079
H	 3.2040750151	-2.7097986877	 0.9862665324	 0.111045
H	 2.0605021275	-1.3930268014	 1.3802300856	 0.105382
H	 2.5169367496	-3.0978142425	-2.236129411	 0.097599
H	-0.0393158995	-2.3885621721	-1.6863177606	 0.102246
82.6783	153.9212	189.0328	248.8822	326.6403	414.1713	470.8819	503.6961	657.3336	684.5342	752.0432	774.9195	814.1083	848.8655	855.9879	892.4129	907.014	956.149	967.0809	979.5359	1018.5905	1039.0869	1050.8974	1083.1914	1116.2069	1121.9142	1151.2752	1181.3492	1191.2311	1231.4699	1270.1897	1288.6846	1297.6966	1317.2121	1329.6145	1362.0386	1392.1746	1402.0327	1410.4604	1475.6315	1497.4037	1501.3086	1510.5991	2976.7089	3027.8154	3036.4921	3053.0521	3078.1511	3103.6863	3110.3223	3122.7725	3126.2286	3177.2453	3194.7951
CCC1OC2CN3C2C13	CC[C@H]1O[C@H]2CN3[C@H]2[C@H]13	
InChI=1S/C7H11NO/c1-2-4-6-7-5(9-4)3-8(6)7/h4-7H,2-3H2,1H3	InChI=1S/C7H11NO/c1-2-4-6-7-5(9-4)3-8(6)7/h4-7H,2-3H2,1H3/t4-,5+,6+,7-,8?/m1/s1
