16
gdb 25586	3.93858	0.89144	0.86766	3.1351	73.08	-0.2185	0.0043	0.2228	1354.5383	0.125216	-437.940387	-437.932094	-437.93115	-437.975161	29.397	
O	 0.0985645799	 0.9940414267	 1.8016380919	-0.274259
C	 0.4647462878	 1.5833188215	 0.8297632886	 0.178532
O	 0.2347598441	 2.898735122	 0.649643381	-0.186477
C	 0.8067585772	 3.5044835949	-0.5374987903	-0.231168
C	 2.2355190121	 3.8682569497	-0.3519688691	 0.298874
C	 3.3477909282	 3.5851416521	-1.1162841951	-0.2247
C	 4.4660086769	 4.2069630484	-0.4974062183	-0.136132
C	 4.0050374552	 4.8443153967	 0.6314715068	-0.087098
N	 2.6519131631	 4.645057487	 0.7044184879	-0.276304
H	 1.0092114886	 1.1203681831	-0.0154538704	 0.083171
H	 0.7065932896	 2.8324410677	-1.3965125804	 0.130455
H	 0.1665596327	 4.3741792206	-0.7139283161	 0.133257
H	 3.3506603714	 3.00377101	-2.0262247721	 0.09661
H	 5.4891228852	 4.1857431447	-0.8388131423	 0.100482
H	 4.5237657079	 5.4118963484	 1.3872755779	 0.12333
H	 2.0596643999	 4.9342324865	 1.4644325702	 0.271426
36.701	45.4721	116.0735	186.8531	261.0685	358.91	403.3087	509.584	628.4345	637.3937	662.5398	731.0635	749.7629	805.2161	860.5524	896.4923	970.3338	976.0402	1015.9713	1044.2672	1058.9473	1113.2701	1133.5881	1154.8663	1265.1658	1282.1368	1314.2179	1390.018	1430.302	1446.1971	1460.6783	1493.0929	1502.3117	1615.53	1866.4643	2958.5818	3047.3805	3091.3663	3241.4706	3255.338	3273.8883	3672.6819
O=COCC1=CC=CN1	O=COCc1ccc[nH]1	
InChI=1S/C6H7NO2/c8-5-9-4-6-2-1-3-7-6/h1-3,5,7H,4H2	InChI=1S/C6H7NO2/c8-5-9-4-6-2-1-3-7-6/h1-3,5,7H,4H2
