17
gdb 74720	2.53763	1.98297	1.5212	2.517	72.38	-0.2135	-0.0013	0.2123	914.1323	0.138089	-418.008238	-418.000877	-417.999933	-418.039292	30.675	
N	-0.0138694721	 1.3196894089	 0.0746820039	-0.606487
C	-0.0647424738	-0.0367880568	 0.0003386949	 0.391437
N	-1.1050434235	-0.7854698014	-0.0314401443	-0.301652
C	-0.5211312213	-2.1799038073	-0.0024481528	-0.045764
C	 0.7361469602	-2.0017939039	-0.897082342	-0.258933
C	 1.2415346732	-0.8554154035	 0.0311090297	 0.288488
O	 2.3617668743	-0.0862296839	-0.3096454026	-0.51788
C	 1.2239846635	-1.5882232901	 1.379932923	-0.166092
C	 0.1660347896	-2.4005833246	 1.3530833616	-0.061094
H	 0.8519354388	 1.7456648653	-0.2167350515	 0.267762
H	-0.8599045813	 1.8208581612	-0.1486981277	 0.258809
H	-1.2605468386	-2.9207961455	-0.2988023503	 0.068061
H	 1.4079797192	-2.8640439022	-0.9150117692	 0.088871
H	 0.4951472906	-1.6671289508	-1.909376686	 0.102998
H	 3.1556624683	-0.601455561	-0.1374093926	 0.285173
H	 1.9073537417	-1.369799831	 2.1902280459	 0.102778
H	-0.2138411687	-3.0291839835	 2.1474280601	 0.103524
183.7519	227.2815	262.5803	370.3463	387.8591	447.7055	454.6706	480.9305	518.0521	558.1811	629.2968	655.5942	686.6926	742.8067	771.7328	817.2682	882.3175	904.3981	917.0101	929.5804	943.5588	1046.37	1067.2316	1074.7098	1113.7946	1146.9595	1212.5232	1246.9816	1265.3049	1271.6679	1325.4566	1335.6732	1419.9269	1490.6335	1613.0107	1634.4093	1714.5186	3057.5736	3122.4341	3137.394	3206.0427	3232.3327	3580.691	3699.5771	3827.4396
NC1=NC2CC1(O)C=C2	N[C]1[N][C@H]2C[C@]1(O)C=C2	
InChI=1S/C6H8N2O/c7-5-6(9)2-1-4(3-6)8-5/h1-2,4,9H,3H2,(H2,7,8)	InChI=1S/C6H8N2O/c7-5-6(9)2-1-4(3-6)8-5/h1-2,4,9H,3H2,(H2,7,8)/t4-,6-/m1/s1
