13
gdb 5494	3.45129	1.92646	1.24587	3.8433	65.91	-0.2495	-0.0294	0.2201	899.4936	0.096504	-361.513523	-361.506483	-361.505539	-361.545031	25.265	
C	-0.0345588177	 1.5014343017	 0.0596783527	-0.508508
C	-0.0114014764	 0.0075504069	 0.0233990573	 0.138134
C	-0.0282372997	-0.8110564777	-1.0579065408	-0.082442
O	 0.0034814703	-2.1258166428	-0.6852364294	-0.133892
C	 0.0413776476	-2.1581048753	 0.6575266761	-0.089305
C	 0.0351479144	-0.8874376474	 1.1617135989	 0.06785
C	 0.0673808826	-0.5196261024	 2.5286392043	 0.202083
N	 0.0933429196	-0.1943614169	 3.6399775476	-0.343639
H	 0.8556539635	 1.8999332788	 0.5576778787	 0.14856
H	-0.0730817026	 1.9166013672	-0.9503224202	 0.132337
H	-0.9041465795	 1.8712622631	 0.6131016312	 0.148591
H	-0.0609549222	-0.6273395107	-2.1188204272	 0.152187
H	 0.0699487001	-3.1293941046	 1.1222841308	 0.168046
113.6163	133.896	179.1704	266.7136	317.2354	518.6049	535.2244	585.3427	617.5921	675.3493	690.9551	766.1962	805.138	894.918	1018.1046	1067.8319	1085.6553	1169.5948	1195.985	1252.4061	1319.4726	1371.3044	1424.0792	1480.5056	1491.1962	1571.8706	1637.9983	2348.4571	3039.1639	3094.3067	3123.0973	3281.9489	3287.428
CC1=COC=C1C#N	Cc1cocc1C#N	
InChI=1S/C6H5NO/c1-5-3-8-4-6(5)2-7/h3-4H,1H3	InChI=1S/C6H5NO/c1-5-3-8-4-6(5)2-7/h3-4H,1H3
