18
gdb 45363	2.95926	1.59423	1.39696	3.9169	71.04	-0.2384	0.0285	0.2669	976.3988	0.151394	-439.137565	-439.130524	-439.12958	-439.169121	28.284	
O	-0.009089439	-0.1219756381	 0.016095246	-0.373776
C	-0.0322788653	 1.0926885046	 0.0107229708	 0.393829
C	-1.3422360502	 1.8883119892	 0.0341397215	-0.320865
C	-1.1418353374	 3.3941760302	 0.23577229	 0.091289
C	-0.0193656061	 3.8956521375	-0.6776004136	-0.236856
C	 1.157478091	 3.2955910356	 0.1049622781	-0.028986
C	 0.7754843098	 3.7264311986	 1.5315884884	-0.066102
O	-0.6529663427	 3.6452373815	 1.5660781223	-0.277516
N	 1.1163772337	 1.8441598532	-0.0498543093	-0.297394
H	-1.867052223	 1.6848719271	-0.9070072494	 0.125559
H	-1.9592100939	 1.4763495553	 0.8371798588	 0.14048
H	-2.0850788718	 3.9358322707	 0.1267934279	 0.084767
H	-0.0821449464	 3.5252529476	-1.7021577447	 0.114587
H	 0.0302191275	 4.9875198162	-0.6844323473	 0.112014
H	 2.1387302555	 3.658774467	-0.2046252008	 0.086405
H	 1.1998968502	 3.0648960695	 2.2938088562	 0.108787
H	 1.0998909263	 4.756797272	 1.7372193893	 0.097407
H	 1.9708644119	 1.3123031923	 0.0288855459	 0.246371
88.6762	150.5314	340.3396	385.9728	412.11	449.8535	489.5056	530.5156	590.7933	630.3545	751.1322	776.5671	840.1371	868.8363	874.841	910.9782	937.4845	971.6384	1022.111	1037.7067	1053.9388	1083.1364	1119.0239	1146.3469	1195.0224	1212.6795	1242.786	1295.0721	1302.2573	1324.5565	1330.1731	1370.7212	1386.8146	1396.489	1445.4131	1463.7622	1488.0341	1519.1789	1797.5916	2999.1835	3047.6729	3067.7787	3071.8093	3080.2028	3104.8094	3105.2555	3131.6512	3612.7421
O=C1CC2CC(CO2)N1	O=C1C[C@@H]2C[C@@H](CO2)N1	
InChI=1S/C6H9NO2/c8-6-2-5-1-4(7-6)3-9-5/h4-5H,1-3H2,(H,7,8)	InChI=1S/C6H9NO2/c8-6-2-5-1-4(7-6)3-9-5/h4-5H,1-3H2,(H,7,8)/t4-,5-/m0/s1
