16
gdb 54084	1.99809	1.38448	0.86381	4.3782	68.83	-0.2593	-0.0478	0.2115	1285.9298	0.121318	-475.083067	-475.073606	-475.072662	-475.11822	32.511	
C	 0.1243421471	 1.4292127244	 0.0038398739	-0.50919
C	-0.0356461394	-0.0718593987	 0.1325725362	 0.421469
O	 0.9038473832	-0.808280559	 0.336342967	-0.323049
N	-1.3209757568	-0.6270110614	 0.0091619023	-0.146844
C	-1.4162961655	-2.0842629975	 0.0844420776	-0.263102
C	-0.9883733439	-2.6311328637	 1.4406613097	 0.177442
O	-0.6987292908	-3.7812585243	 1.6179729644	-0.234126
C	-2.4826656264	 0.1129409865	-0.1822578187	 0.169369
O	-3.5817233776	-0.3722291549	-0.2888192708	-0.297585
H	 1.186301968	 1.6481124076	 0.1092017802	 0.164466
H	-0.2250016219	 1.7931931016	-0.9667442096	 0.156014
H	-0.4289724176	 1.9615259724	 0.7832970852	 0.156601
H	-2.4679256616	-2.3352485387	-0.0800846134	 0.176208
H	-0.8083686376	-2.5541620535	-0.6912140934	 0.159725
H	-1.0093619171	-1.8875704638	 2.2690300671	 0.083635
H	-2.3032742021	 1.1968034131	-0.2258800177	 0.108967
58.3348	86.7439	116.0481	159.8596	187.623	226.444	259.6223	315.8767	386.599	422.6343	504.048	548.6456	608.5399	656.1533	719.3516	875.9833	977.6597	1030.5203	1034.5559	1053.5001	1058.5505	1124.2838	1220.1339	1314.7103	1357.1544	1361.9116	1396.165	1415.9529	1445.3916	1452.6415	1477.8206	1487.2005	1773.9996	1820.8654	1850.3731	2881.1186	3035.3478	3053.536	3076.8885	3119.1062	3134.2958	3166.1199
CC(=O)N(CC=O)C=O	CC(=O)N(CC=O)C=O	
InChI=1S/C5H7NO3/c1-5(9)6(4-8)2-3-7/h3-4H,2H2,1H3	InChI=1S/C5H7NO3/c1-5(9)6(4-8)2-3-7/h3-4H,2H2,1H3
