18
gdb 30249	2.58923	1.57067	1.03152	2.688	81.94	-0.1979	0.041	0.2389	1157.6676	0.148161	-401.94753	-401.938988	-401.938044	-401.981186	31.558	
C	-0.0505544903	 1.5326611968	-0.0053777933	-0.501654
C	 0.0400436149	 0.0368666619	 0.0173122048	 0.077204
C	 0.246434817	-0.8336738397	-1.0336889243	 0.293936
C	 0.2602723823	-1.2719021334	-2.483557958	-0.079787
O	 1.3886432961	-0.8615491672	-3.2165600206	-0.418667
C	 0.283278292	-2.7498092835	-1.8921079969	-0.199832
N	 0.2772999829	-2.1152387531	-0.5661332765	 0.010916
C	 0.0668201753	-2.1481878126	 0.7784631029	-0.156113
C	-0.0533059828	-0.8187116632	 1.1642579911	-0.209596
H	 0.8146013117	 2.0029913381	 0.4775592725	 0.126155
H	-0.0932197667	 1.908963542	-1.031427236	 0.120012
H	-0.9437023014	 1.8905601384	 0.5191339448	 0.120724
H	-0.665998466	-1.0599875863	-3.0348264852	 0.08558
H	 1.241706383	-1.0757754251	-4.1435667238	 0.285721
H	-0.5993542239	-3.3629670892	-2.1009214411	 0.116818
H	 1.1988472368	-3.3038293552	-2.117376469	 0.122097
H	 0.0525731129	-3.0583290867	 1.3557817413	 0.117555
H	-0.1795930841	-0.4820920619	 2.1840092575	 0.088933
71.5988	89.5847	122.6736	202.335	265.6204	292.0904	357.0864	456.0396	522.9195	609.6788	623.7175	667.5315	708.9139	755.552	789.7298	796.8372	847.0684	981.908	1008.558	1041.5152	1060.6178	1084.7592	1113.3043	1150.6557	1167.4042	1186.1658	1237.5786	1252.2686	1287.4919	1331.7898	1401.8968	1411.7993	1419.4643	1454.6714	1479.5692	1484.6867	1497.2734	1512.646	1629.3886	3006.0812	3023.746	3042.8947	3071.8129	3103.9662	3106.099	3226.8972	3266.58	3812.5057
CC1=C2C(O)CN2C=C1	Cc1c2[C@@H](O)Cn2cc1	
InChI=1S/C7H9NO/c1-5-2-3-8-4-6(9)7(5)8/h2-3,6,9H,4H2,1H3	InChI=1S/C7H9NO/c1-5-2-3-8-4-6(9)7(5)8/h2-3,6,9H,4H2,1H3/t6-/m0/s1
