15
gdb 50283	2.75163	1.24977	0.99427	3.433	67.91	-0.2566	-0.0571	0.1995	1164.9959	0.109672	-457.73068	-457.722372	-457.721428	-457.764531	29.271	
O	-0.0954610523	-0.0457643706	-0.4367855533	-0.249592
C	-0.0492180896	 1.1002085612	-0.0679105014	 0.156336
C	 1.217229214	 1.9184705106	-0.0135029132	-0.170946
C	 1.2413163526	 3.267386239	-0.8326092154	-0.274739
C	 1.4557078745	 4.024598464	 0.4809908993	-0.01117
O	 0.374583157	 3.7218695038	 1.342025875	-0.252183
C	 1.4260375405	 2.7595811983	 1.2734406551	 0.292539
C	 2.1868077362	 2.4133819747	 2.5000525123	 0.05365
O	 2.1877122405	 3.0741741693	 3.5060726852	-0.243481
H	-0.9601404026	 1.6446548996	 0.2605460071	 0.100905
H	 2.0744307901	 1.2834903057	-0.2463786324	 0.109126
H	 2.0913767281	 3.3080422562	-1.5151954301	 0.132384
H	 0.3269891694	 3.5357222809	-1.3673206351	 0.13212
H	 2.0076831082	 4.9360434592	 0.6785610714	 0.135734
H	 2.7888533534	 1.4832259481	 2.4017492556	 0.089318
58.9995	95.8887	136.0639	200.755	207.4672	299.3195	411.1356	432.8798	441.3365	575.9315	747.6242	772.4812	832.6488	861.5979	895.3357	929.8695	982.2293	1036.1628	1042.2813	1075.3687	1099.8756	1121.7891	1165.9673	1210.8288	1251.2962	1263.3696	1297.0393	1400.519	1426.3247	1432.5954	1471.2431	1819.2434	1825.6628	2891.5821	2912.3565	3075.6955	3102.5715	3139.3902	3197.8643
O=CC1CC2OC12C=O	O=C[C@H]1C[C@H]2O[C@@]12C=O	
InChI=1S/C6H6O3/c7-2-4-1-5-6(4,3-8)9-5/h2-5H,1H2	InChI=1S/C6H6O3/c7-2-4-1-5-6(4,3-8)9-5/h2-5H,1H2/t4-,5-,6+/m1/s1
