17
gdb 34158	3.77409	1.57324	1.37511	0.8391	82.1	-0.2361	0.0413	0.2774	957.5213	0.136624	-347.44702	-347.440331	-347.439387	-347.47776	28.311	
C	 0.0256627747	-1.1578698941	-0.0132980166	-0.363506
C	-0.0149240625	 0.0451780124	-0.0015368388	 0.058359
C	-0.0725038847	 1.477155694	 0.0144049458	 0.281475
C	-1.067428315	 2.2788455048	 0.9044042059	-0.292893
C	-0.8259850506	 3.4242765559	-0.1038873616	-0.080459
C	 0.6923150809	 3.7212314605	-0.1035655118	-0.07792
C	 0.9660032632	 2.9316035265	-1.3652560859	-0.095182
C	 1.2494571789	 2.3002887498	-0.0235993125	-0.126251
C	-0.4828866551	 2.3813599893	-1.2331111649	-0.10608
H	 0.0634112057	-2.2187182589	-0.023964587	 0.176996
H	-2.0786887208	 1.8689175832	 0.8253790816	 0.107664
H	-0.8033124984	 2.4334048658	 1.9545408033	 0.098541
H	-1.5246133876	 4.2481891408	-0.2376977591	 0.070199
H	 1.2199442338	 4.576015131	 0.2982926612	 0.088237
H	 1.6131404726	 3.1272129574	-2.2090465903	 0.088743
H	 2.1966276272	 2.0509292091	 0.4347091691	 0.091893
H	-1.1614337222	 2.0512593826	-2.0145805683	 0.080183
144.9353	155.6018	390.8966	445.2915	507.4858	516.0787	564.6011	613.7587	625.4929	733.4757	745.6365	787.6675	792.3934	829.8935	851.8471	866.4989	903.0643	905.1618	950.4118	994.4638	1003.4908	1010.632	1035.5488	1041.7151	1065.909	1100.2143	1134.398	1176.8684	1181.7527	1214.3361	1219.8697	1236.2893	1277.1395	1303.8513	1355.3441	1486.2467	2229.5771	3050.0285	3110.7593	3131.2843	3159.2148	3198.2057	3202.8715	3217.3554	3503.5358
C#CC12CC3C4C(C14)C23	C#C[C@@]12C[C@H]3[C@@H]4[C@@H]([C@H]14)[C@@H]23	
InChI=1S/C9H8/c1-2-9-3-4-5-6(7(4)9)8(5)9/h1,4-8H,3H2	InChI=1S/C9H8/c1-2-9-3-4-5-6(7(4)9)8(5)9/h1,4-8H,3H2/t4-,5+,6+,7-,8+,9-/m0/s1
