21
gdb 115733	2.67662	1.15817	0.88013	2.0874	80.14	-0.2441	0.0737	0.3178	1381.6742	0.18154	-424.177738	-424.168326	-424.167382	-424.213023	33.949	
C	 0.1859173233	 1.4523347136	 0.0162862366	-0.237532
O	-0.2976504816	 0.1770199678	-0.3429096277	-0.2349
C	 0.550006796	-0.50865563	-1.2238408947	 0.062714
C	 1.7587868408	-1.2346564309	-0.5903262667	-0.100627
O	 1.1837779738	-2.524148737	-0.8719178158	-0.294468
C	 0.0436669007	-1.9359501303	-1.5542116917	 0.084
C	-1.2754507118	-2.37016734	-0.9977292405	 0.038941
C	-2.4925810161	-2.3741189307	-1.8916137034	-0.269018
C	-1.8727358152	-3.6764556003	-1.4612551466	-0.274906
H	 1.1463750783	 1.395911173	 0.5504921442	 0.109278
H	 0.3203381911	 2.0962288784	-0.8669844566	 0.107225
H	-0.5562343542	 1.9060773253	 0.6769935377	 0.131252
H	 0.7865049863	 0.1177276822	-2.0957782713	 0.068621
H	 2.7221928641	-1.091006286	-1.0963020355	 0.095274
H	 1.8822346835	-1.0609442099	 0.4860352759	 0.103004
H	 0.0877721854	-2.1625935999	-2.6297937841	 0.065252
H	-1.4336673892	-2.0957733183	 0.0386818103	 0.094485
H	-3.4398336609	-2.0780361581	-1.4559448144	 0.114055
H	-2.3665776715	-2.0679275461	-2.9252096644	 0.108703
H	-1.3245477167	-4.2503280642	-2.2010600746	 0.115317
H	-2.3946065662	-4.2817630286	-0.7288325268	 0.113328
53.9144	69.7801	108.534	130.2866	199.9788	218.8165	294.7755	327.6638	426.3018	442.3138	547.4641	762.1254	812.9542	826.7411	837.0702	879.9639	925.5203	933.9066	977.3675	1005.6082	1025.4908	1059.7599	1064.2892	1078.2543	1085.1546	1133.9225	1159.9177	1178.5678	1182.7351	1196.447	1204.9368	1226.485	1235.4944	1269.0326	1282.1809	1320.7105	1342.1367	1397.3607	1440.1969	1471.8162	1482.115	1488.9934	1505.5113	1507.7422	1510.7067	2974.7271	2985.8866	2999.0818	3012.1212	3023.9379	3055.8654	3118.855	3131.8924	3136.8907	3180.4904	3210.3183	3225.7947
COC1COC1C1CC1	CO[C@H]1CO[C@H]1C1CC1	
InChI=1S/C7H12O2/c1-8-6-4-9-7(6)5-2-3-5/h5-7H,2-4H2,1H3	InChI=1S/C7H12O2/c1-8-6-4-9-7(6)5-2-3-5/h5-7H,2-4H2,1H3/t6-,7-/m0/s1
