20
gdb 122848	4.46254	0.63532	0.57711	2.6731	74.9	-0.2478	0.0673	0.3151	1960.9581	0.168492	-477.450817	-477.439697	-477.438753	-477.489627	36.63	
C	-0.1441754799	 1.3725291222	 0.0687736748	-0.328517
N	-0.0507306136	-0.058144281	-0.1198379081	-0.356775
C	 0.6980653351	-0.614008619	-1.1090366399	 0.525444
O	 1.3872355464	-0.0135151821	-1.9049652377	-0.415651
O	 0.5693284459	-1.9664743244	-1.070981603	-0.275136
C	 1.2842775935	-2.670306641	-2.0918531374	-0.065201
C	 1.1211071764	-4.1524971051	-1.8413990935	-0.068797
O	-0.211659913	-4.5242172295	-2.1011557448	-0.226379
C	-0.4557388669	-5.8884289818	-1.8598185255	-0.225061
H	 0.5364911632	 1.8413026904	-0.6428434114	 0.169481
H	-1.1594640331	 1.7418633963	-0.1190012108	 0.124472
H	 0.1496082612	 1.6610262529	 1.0842891677	 0.124003
H	-0.6081644979	-0.68183755	 0.4388800643	 0.25308
H	 0.8858521409	-2.4027633691	-3.0755189282	 0.126748
H	 2.3421488108	-2.39156186	-2.0646545804	 0.119957
H	 1.8169791676	-4.6990290365	-2.5015533137	 0.088694
H	 1.3992107501	-4.3875981801	-0.8004162821	 0.093925
H	 0.169172555	-6.5360018088	-2.4960005826	 0.102981
H	-0.2667682602	-6.158602951	-0.8085670465	 0.104136
H	-1.5069273016	-6.0783486024	-2.0893947014	 0.128595
22.4422	54.299	65.0892	88.4508	119.1412	153.7078	177.3692	230.5451	279.2179	310.815	321.8759	466.1091	500.4491	526.6033	722.3542	778.4529	860.0348	894.1547	971.1473	1059.8509	1071.5149	1126.55	1159.312	1165.2576	1176.226	1184.3873	1187.7498	1228.6307	1252.8261	1262.7921	1300.1618	1391.6392	1433.7331	1446.4936	1479.5496	1485.8825	1492.6665	1498.4724	1498.7281	1506.0291	1521.793	1570.6415	1816.2011	2952.6393	2969.2942	2987.7196	3010.1823	3022.7241	3055.5326	3072.273	3102.4869	3115.4393	3152.147	3659.7838
CNC(=O)OCCOC	CNC(=O)OCCOC	
InChI=1S/C5H11NO3/c1-6-5(7)9-4-3-8-2/h3-4H2,1-2H3,(H,6,7)	InChI=1S/C5H11NO3/c1-6-5(7)9-4-3-8-2/h3-4H2,1-2H3,(H,6,7)
