15
gdb 117027	4.44202	0.82117	0.69911	0.6959	71.22	-0.2555	-0.1057	0.1498	1543.57	0.107558	-457.726035	-457.716063	-457.715119	-457.762222	33.373	
C	 0.0141253225	 1.4062550206	-0.0453444684	-0.228936
O	-0.0017481563	-0.0032823709	 0.0091512968	-0.219873
C	 0.6232396081	-0.5916243833	-1.0878721895	-0.160879
C	 0.564537197	-2.1018246877	-0.9552758165	 0.264772
O	 0.0555174115	-2.6941323336	-0.0416112961	-0.251893
C	 1.2313243087	-2.8650618283	-2.1232166674	 0.117233
O	 1.7435929601	-2.2627331705	-3.0427476064	-0.275328
C	 1.1954285315	-4.3052840553	-2.0325880665	 0.287327
C	 1.1724796997	-5.5068665171	-1.9692728014	-0.366485
H	 1.0413363251	 1.8023748928	-0.0578265281	 0.109839
H	-0.5127247401	 1.7859891793	-0.9344228567	 0.109838
H	-0.4950502404	 1.7672657903	 0.8505888642	 0.136836
H	 0.1525793835	-0.3107716696	-2.0470774904	 0.127223
H	 1.6829320882	-0.2944798215	-1.1839523025	 0.127222
H	 1.1521061308	-6.5685761751	-1.9123905012	 0.223104
37.6437	89.9057	91.1549	104.6674	171.0293	228.0994	238.617	269.0712	361.0933	393.6642	408.2399	501.9529	652.4327	677.7143	708.3729	726.1185	809.1664	932.372	1005.9095	1040.3474	1174.22	1183.0161	1222.9675	1240.0985	1244.1293	1408.8462	1458.2385	1487.5857	1489.1858	1511.6827	1754.1884	1831.6145	2215.7345	2953.4819	2971.7157	2976.9663	3023.3597	3125.0893	3492.6107
COCC(=O)C(=O)C#C	COCC(=O)C(=O)C#C	
InChI=1S/C6H6O3/c1-3-5(7)6(8)4-9-2/h1H,4H2,2H3	InChI=1S/C6H6O3/c1-3-5(7)6(8)4-9-2/h1H,4H2,2H3
