20
gdb 93032	2.8539	1.47438	1.06541	2.3528	80.78	-0.2232	0.0299	0.2532	1162.9662	0.172455	-403.146511	-403.138361	-403.137416	-403.179155	31.936	
C	-0.6963226486	 1.2739538094	-0.0645211732	-0.401832
C	 0.2768531219	 0.1095301662	 0.0612365543	 0.146633
C	 0.9562069573	-0.262352908	-1.2587487368	-0.245341
C	 1.5146791088	-1.6725061645	-1.2374779605	-0.051997
C	 2.9897059156	-1.9371006693	-1.4401848368	-0.301127
C	 2.3735797054	-2.1209360299	-0.0736524195	 0.03136
N	 2.805480211	-1.3090296435	 1.0172077143	-0.263418
C	 2.298876637	-0.2275583872	 1.4252412451	 0.12126
O	 1.2436018712	 0.5328456996	 1.0481364596	-0.238151
H	-0.1978923952	 2.1474473574	-0.4965490495	 0.126157
H	-1.5351982185	 0.9978779086	-0.7099229162	 0.117813
H	-1.0880575767	 1.552635126	 0.9169258534	 0.127694
H	-0.2468653015	-0.7694572722	 0.4614090431	 0.089255
H	 0.2279303183	-0.1673651412	-2.0714480622	 0.105398
H	 1.7375099435	 0.4806470111	-1.4566566609	 0.111299
H	 0.8340303982	-2.4279832361	-1.6222249383	 0.083193
H	 3.3014575898	-2.8170926366	-1.9915922216	 0.110989
H	 3.6295479557	-1.0702217132	-1.5710230256	 0.116772
H	 2.259280575	-3.1573102024	 0.2345128145	 0.097435
H	 2.7751426018	 0.2791187557	 2.2657029868	 0.11661
84.9801	127.6975	229.5658	265.4846	311.7404	346.7036	373.4814	399.0787	472.6767	557.8126	610.8117	751.4079	791.5671	802.0554	837.0756	872.2981	889.9208	924.758	963.2585	999.0847	1010.0885	1048.4371	1060.3029	1116.3872	1127.7857	1143.2994	1154.4512	1166.6784	1183.5494	1244.4088	1253.0186	1310.2171	1372.6463	1382.2598	1398.3749	1407.7244	1410.5419	1445.3642	1470.853	1483.9798	1488.2631	1499.2275	1757.6809	3012.8823	3036.2154	3044.5245	3075.8509	3117.3016	3125.2994	3126.2197	3128.5233	3130.1975	3136.7612	3218.3924
CC1CC2CC2N=CO1	C[C@H]1C[C@H]2C[C@H]2N=CO1	
InChI=1S/C7H11NO/c1-5-2-6-3-7(6)8-4-9-5/h4-7H,2-3H2,1H3	InChI=1S/C7H11NO/c1-5-2-6-3-7(6)8-4-9-5/h4-7H,2-3H2,1H3/t5-,6-,7+/m0/s1
