19
gdb 103164	1.89036	1.65128	1.26133	1.3011	71.95	-0.2339	-0.0346	0.1993	1115.3419	0.155689	-460.156148	-460.1462	-460.145256	-460.190923	36.048	
C	-0.0812927569	 1.2807535843	 0.0104746496	-0.259484
O	 0.1731479665	-0.1163652064	-0.0440380514	-0.303368
C	 0.8154297795	-0.6008372422	-1.2213123016	 0.253062
C	 2.2047761873	-0.038103961	-1.4429985114	-0.478609
C	 0.6059007459	-2.1619041068	-1.1811025355	 0.111208
O	 0.4124800401	-2.728191772	 0.0783415713	-0.439662
C	-0.6216836378	-2.0310760137	-2.1430733398	-0.394194
C	-0.2035343519	-0.5804918136	-2.3978748261	 0.365738
O	-0.4986235034	 0.2561992526	-3.2042070582	-0.304175
H	 0.845720237	 1.8573292297	 0.1166244715	 0.121279
H	-0.6179465227	 1.6295131263	-0.8795129643	 0.140779
H	-0.7014839178	 1.446297063	 0.8941441372	 0.133519
H	 2.8187980012	-0.1798055599	-0.547778967	 0.133555
H	 2.6895814955	-0.5503787376	-2.2794279326	 0.127397
H	 2.1724857205	 1.0277408016	-1.6871431022	 0.135179
H	 1.4373926167	-2.6837648701	-1.6635123196	 0.094537
H	 0.0267104459	-2.030484273	 0.625851907	 0.293384
H	-0.6729521933	-2.6861988501	-3.015513662	 0.130919
H	-1.5706053424	-2.0901701512	-1.5990844949	 0.138935
69.6166	102.8763	128.6905	176.7282	192.987	223.6475	271.309	292.9262	343.5261	418.9042	434.1116	478.1142	502.0825	579.247	671.4663	700.0661	781.5855	861.1683	908.6459	950.1325	1048.6046	1087.7418	1094.6689	1135.3701	1142.9766	1155.7351	1184.2207	1213.742	1223.8027	1230.2188	1298.942	1339.8399	1400.3221	1426.0106	1443.5209	1476.0216	1481.7385	1485.5311	1499.6294	1514.0755	1878.7919	3016.0747	3038.257	3057.504	3070.8191	3080.7011	3112.6921	3114.6627	3121.8221	3126.0443	3751.5651
COC1(C)C(O)CC1=O	CO[C@@]1(C)[C@@H](O)CC1=O	
InChI=1S/C6H10O3/c1-6(9-2)4(7)3-5(6)8/h4,7H,3H2,1-2H3	InChI=1S/C6H10O3/c1-6(9-2)4(7)3-5(6)8/h4,7H,3H2,1-2H3/t4-,6-/m0/s1
