14
gdb 129075	2.54913	1.81741	1.17712	5.0819	76.46	-0.2457	-0.0715	0.1742	995.8197	0.103708	-429.023718	-429.016362	-429.015417	-429.056197	27.212	
N	-0.14436658	 1.3415905325	 0.429732541	-0.443827
C	-0.0477735974	 0.125553727	 0.0563079014	 0.237461
C	 1.2476327172	-0.5096256793	-0.2727668114	-0.032008
N	 1.5590941181	-1.469492669	-1.0659015026	-0.173346
N	 0.6468093351	-2.1113207231	-1.8339768892	-0.222378
C	-0.7200703298	-1.9862844495	-1.9390178412	 0.110439
N	-1.573134675	-1.4031724258	-1.1942154049	-0.294678
C	-1.288123722	-0.7276906835	-0.003053283	 0.281753
N	-2.0444052052	-0.7734968833	 1.0172248537	-0.457189
H	 0.7770695181	 1.7906650473	 0.4336485839	 0.224098
H	 2.1073917762	-0.0758349117	 0.2371826351	 0.133587
H	 1.0913321985	-2.733379061	-2.4914033006	 0.277354
H	-1.0861355031	-2.5251957597	-2.8152491555	 0.134122
H	-2.8424752005	-1.3810413409	 0.8106642033	 0.224611
65.317	83.7387	272.6037	328.0892	351.3909	424.8365	476.6677	489.1219	573.481	655.2133	680.4494	771.479	819.2566	885.8517	899.6379	929.7628	950.5932	957.9699	975.1193	1035.4153	1115.8335	1218.3272	1316.428	1367.7456	1400.0832	1452.6544	1509.5277	1676.3559	1683.0825	1705.1017	1723.5446	3114.3867	3136.3392	3412.3039	3439.0745	3625.5634
N=C1C=NNC=NC1=N	[NH][C]1C=NNC=N[C]1[NH]	
InChI=1S/C4H5N5/c5-3-1-8-9-2-7-4(3)6/h1-2H,(H3,5,6,7,9)	InChI=1S/C4H5N5/c5-3-1-8-9-2-7-4(3)6/h1-2H,(H3,5,6,7,9)
