17
gdb 36380	4.75359	0.79044	0.71917	3.4378	74.3	-0.2569	0.0154	0.2722	1510.1071	0.135024	-417.950633	-417.941905	-417.94096	-417.985359	30.996	
N	 0.2274360687	-1.2175517658	-0.5012423045	-0.295463
C	 0.1449897436	-0.1301043848	-0.1218149435	 0.285545
C	 0.0133337757	 1.2544666515	 0.3480561401	-0.290501
N	 1.2816259842	 1.9595319566	 0.1974226171	-0.088026
C	 1.5068663319	 2.6987269504	-1.0408902914	-0.258501
C	 1.2876154659	 3.4266601838	 0.2424901066	-0.019142
C	 0.0490818491	 4.2389460888	 0.4638191262	 0.066049
C	-0.2028024188	 4.8980904137	 1.7551080456	-0.185383
O	 0.2717456804	 5.6391666467	 0.6312592631	-0.230094
H	-0.8323752341	 1.7072453334	-0.1936306645	 0.136521
H	-0.2561537663	 1.2348127087	 1.4101870645	 0.160758
H	 2.5001300411	 2.6108261619	-1.4701340515	 0.135378
H	 0.6965562682	 2.7326909618	-1.7688035944	 0.120737
H	 2.1497283075	 3.8352869621	 0.766219105	 0.112866
H	-0.8104370482	 4.0036857654	-0.1638250279	 0.102347
H	-1.2252302376	 5.1134956862	 2.0613836622	 0.123646
H	 0.5126964585	 4.7734791297	 2.5667998874	 0.123264
45.9133	62.9957	114.2014	177.86	243.0728	316.8828	354.8527	387.5055	427.8237	498.2912	594.3449	765.8165	826.873	869.6455	900.9513	940.2489	940.6363	967.6212	999.9459	1060.2654	1093.7162	1104.1061	1124.9142	1157.203	1159.6537	1173.4859	1198.3545	1266.0337	1295.0025	1315.4679	1335.4637	1373.8796	1466.8779	1472.3056	1510.2987	1527.9274	2369.6777	2978.2596	3065.9131	3085.3544	3093.3878	3108.1149	3131.6706	3175.0762	3190.9204
N#CCN1CC1C1CO1	N#CCN1C[C@H]1[C@H]1CO1	
InChI=1S/C6H8N2O/c7-1-2-8-3-5(8)6-4-9-6/h5-6H,2-4H2	InChI=1S/C6H8N2O/c7-1-2-8-3-5(8)6-4-9-6/h5-6H,2-4H2/t5-,6+,8?/m0/s1
