18
gdb 63501	2.0868	1.56538	1.07057	3.3272	80.63	-0.2439	-0.0305	0.2134	1173.9454	0.143581	-401.904302	-401.894406	-401.893462	-401.938706	36.344	
C	-0.0611640022	 1.5439812557	 0.0553012679	-0.441506
C	-0.0343711609	 0.025695187	 0.0336080272	 0.286203
C	-1.3441926983	-0.5976351182	-0.4064818362	-0.464826
N	 1.2208180609	-0.5778698173	-0.3908167127	-0.392709
C	 0.826213569	-0.7465296408	 1.0405293051	-0.038517
C	 1.7068823545	 0.0208915913	 1.9935801154	 0.118432
O	 1.7518687828	-0.1691543495	 3.1792923899	-0.244016
C	 0.3757956304	-2.0262225854	 1.5137383372	 0.280391
C	 0.0380419591	-3.1084378742	 1.9144652311	-0.428508
H	 0.9262412704	 1.9707498787	 0.2321308897	 0.133184
H	-0.414521957	 1.9149281972	-0.9131253606	 0.126131
H	-0.7481643482	 1.9099074806	 0.8248748259	 0.131532
H	-1.5618640759	-0.2980179174	-1.4379860778	 0.126217
H	-1.3165657593	-1.6873263602	-0.354125824	 0.135412
H	-2.1700714058	-0.2495209037	 0.2220617635	 0.134554
H	 1.0576833457	-1.4564241085	-0.8785767638	 0.24331
H	 2.3309400497	 0.7869858852	 1.4893503102	 0.094041
H	-0.262967125	-4.0592128405	 2.2798063521	 0.200675
80.7726	130.862	145.5957	165.7284	176.851	223.8378	296.607	341.7159	368.6227	386.9866	422.7221	492.0037	564.1329	578.2514	611.7145	664.2059	687.7101	759.373	809.4063	947.7297	960.7491	994.8127	1034.2298	1055.7358	1088.769	1132.6012	1149.5427	1280.8896	1336.9108	1365.6269	1402.4377	1416.6916	1426.4288	1478.719	1484.5158	1500.8092	1508.0257	1828.1961	2235.0378	2925.8976	3036.0786	3042.2156	3098.1446	3103.0744	3137.5885	3147.4131	3497.7206	3501.1328
CC1(C)NC1(C=O)C#C	CC1(C)N[C@]1(C=O)C#C	
InChI=1S/C7H9NO/c1-4-7(5-9)6(2,3)8-7/h1,5,8H,2-3H3	InChI=1S/C7H9NO/c1-4-7(5-9)6(2,3)8-7/h1,5,8H,2-3H3/t7-/m0/s1
