14
gdb 131352	6.10227	0.93142	0.81209	3.2299	68.26	-0.234	0.0118	0.2458	1309.9901	0.101627	-432.864404	-432.85636	-432.855416	-432.897719	29.493	
O	-0.7300726873	 0.9974304291	-0.8865109803	-0.40776
C	-0.1824289241	-0.0537859373	-0.2639894947	 0.41593
N	 0.9015273596	-0.6435505331	-0.7348664184	-0.288833
N	 1.0816589433	-1.6254508395	 0.1962745536	-0.234687
C	 0.1314980706	-1.5733831067	 1.1402625157	 0.401621
C	 0.0415508488	-2.5131709749	 2.308610584	-0.478434
C	 1.1058992174	-3.5105471222	 2.3246227481	 0.284854
C	 1.9925568408	-4.321260177	 2.3148167334	-0.424788
N	-0.7017720195	-0.5759675157	 0.8808078418	-0.414314
H	-1.5005944883	 1.2544012915	-0.3663603604	 0.311071
H	 1.8507432085	-2.2714291032	 0.1224408681	 0.284486
H	 0.0601357657	-1.9250362176	 3.2346328525	 0.170073
H	-0.9385193793	-3.005937274	 2.2883145411	 0.170073
H	 2.7672180339	-5.0482078794	 2.3271421455	 0.210708
36.8304	116.1508	196.8105	279.9015	323.1119	368.3466	401.6561	423.1287	521.3265	553.7583	631.718	672.0129	688.8404	709.5045	767.8186	786.7534	950.9739	966.5125	1028.4708	1075.9827	1154.8993	1212.4158	1218.3502	1300.8691	1309.1848	1426.7543	1456.7186	1498.681	1576.6883	1637.4691	2244.1927	3031.436	3058.2311	3501.638	3664.1508	3817.7409
OC1=NNC(CC#C)=N1	Oc1n[nH]c(CC#C)n1	
InChI=1S/C5H5N3O/c1-2-3-4-6-5(9)8-7-4/h1H,3H2,(H2,6,7,8,9)	InChI=1S/C5H5N3O/c1-2-3-4-6-5(9)8-7-4/h1H,3H2,(H2,6,7,8,9)
