22
gdb 64085	2.99916	1.182	1.08006	2.7027	81.98	-0.2099	-0.0137	0.1962	1237.2133	0.194529	-404.379513	-404.370315	-404.36937	-404.413001	36.083	
C	 0.0335737513	 1.5288963296	 0.0352289732	-0.423356
C	-0.0804582824	-0.0005325238	-0.0122735815	 0.266669
C	-1.5694214905	-0.3888918463	 0.0160490812	-0.400165
C	 0.619135343	-0.531171573	-1.2886165772	-0.217399
C	 0.7770675835	-2.0645371404	-1.2973759216	-0.318721
C	 1.3540462964	-2.5910463087	 0.0086417929	 0.387914
O	 2.2245035063	-3.4295945623	 0.0542312854	-0.309281
C	 0.7367988614	-1.975182759	 1.264914754	-0.274079
N	 0.579214018	-0.5174926183	 1.2065295978	-0.306716
H	 1.083440339	 1.8449472683	 0.0392311667	 0.107068
H	-0.4462027308	 1.982765281	-0.836996883	 0.115657
H	-0.4421838016	 1.9199655617	 0.9388529766	 0.124774
H	-2.0962377916	 0.0660546256	-0.8283847919	 0.113632
H	-1.7286838219	-1.4691933357	-0.044395617	 0.110531
H	-2.0282048004	-0.0359605693	 0.9435830485	 0.125917
H	 0.0799369876	-0.2069395758	-2.1870262115	 0.097404
H	 1.6163351296	-0.0752421175	-1.3441852026	 0.09596
H	-0.2063717198	-2.537901766	-1.4267972792	 0.122543
H	 1.4079788232	-2.4049064559	-2.1224923252	 0.118836
H	-0.2482228658	-2.4369126722	 1.4216176972	 0.123189
H	 1.355146386	-2.2426125612	 2.1254141422	 0.12395
H	 1.4996655096	-0.0927149708	 1.2764082449	 0.215674
65.5181	163.5249	206.8949	226.4302	257.3392	290.63	325.304	390.2217	417.8951	435.2684	454.0463	498.1431	507.8397	691.2884	704.9354	759.0895	777.4956	835.461	890.1433	932.284	943.9922	974.8928	1007.6242	1014.2707	1040.2223	1102.0193	1160.6357	1167.6893	1190.2812	1222.7807	1247.9979	1277.3846	1302.791	1331.4	1349.5271	1369.5642	1399.0599	1417.8325	1457.2102	1464.7197	1478.0676	1484.2086	1488.37	1498.2537	1506.1271	1517.4136	1816.994	3013.5868	3015.135	3020.0898	3029.861	3043.9448	3056.9382	3096.9455	3098.9243	3103.188	3109.3474	3116.7312	3122.3859	3500.0359
CC1(C)CCC(=O)CN1	CC1(C)CCC(=O)CN1	
InChI=1S/C7H13NO/c1-7(2)4-3-6(9)5-8-7/h8H,3-5H2,1-2H3	InChI=1S/C7H13NO/c1-7(2)4-3-6(9)5-8-7/h8H,3-5H2,1-2H3
