18
gdb 81183	3.18984	1.23572	1.06088	2.1778	73.1	-0.2524	0.0225	0.2749	1154.8793	0.147815	-439.056829	-439.048454	-439.04751	-439.090368	31.719	
O	 1.1538781339	 0.8264952113	-0.2568833681	-0.450697
C	 0.3435885901	-0.2835055124	 0.0047451434	 0.117038
C	-0.1740813985	-0.6301977079	 1.4363302674	-0.100334
C	-1.1831543609	 0.5508202245	 1.3040487663	-0.292896
C	-1.2077622438	-0.1858045125	-0.0756661044	 0.400606
C	-1.2377003605	-1.5175159628	 0.7263316848	-0.251454
N	-1.9451380105	 0.1560733197	-1.2455238424	-0.437354
C	-3.3066322432	 0.1554858448	-1.2986477337	 0.128296
O	-4.0342018478	-0.1709119587	-0.3859766321	-0.319955
H	 0.8975631066	 1.5524151	 0.3213770624	 0.286518
H	 0.7846035974	-1.1152942407	-0.5520760521	 0.087493
H	 0.4218558151	-0.8927562472	 2.3078689978	 0.084512
H	-2.0981239002	 0.4826463873	 1.89344086	 0.123998
H	-0.7918928614	 1.57313431	 1.3272130495	 0.075998
H	-0.8726366664	-2.409174886	 0.2089705304	 0.093771
H	-2.1573326736	-1.7078840534	 1.2776039548	 0.125456
H	-1.430929475	 0.5029294478	-2.0412501659	 0.253094
H	-3.6821918714	 0.4860521163	-2.2879238481	 0.07591
40.6243	127.2768	189.2083	219.4149	271.841	331.4456	387.7611	442.6619	513.8268	542.5404	604.7414	622.1105	744.4532	810.5476	844.6091	890.0666	942.7244	950.6862	955.5736	1022.1339	1031.8267	1038.9752	1071.6259	1131.2071	1135.343	1147.9867	1154.1628	1185.7345	1207.0212	1233.0626	1246.8376	1284.0561	1320.6366	1431.6827	1452.3815	1504.0605	1510.4105	1551.2405	1804.0007	2931.834	3049.3324	3064.4774	3079.1193	3132.2439	3141.8569	3156.746	3616.3629	3814.8503
OC1C2CC1(C2)NC=O	O[C@H]1[C@H]2C[C@@]1(C2)NC=O	
InChI=1S/C6H9NO2/c8-3-7-6-1-4(2-6)5(6)9/h3-5,9H,1-2H2,(H,7,8)	InChI=1S/C6H9NO2/c8-3-7-6-1-4(2-6)5(6)9/h3-5,9H,1-2H2,(H,7,8)/t4-,5-,6-/m0/s1
