18
gdb 124789	3.55839	1.06934	0.924	1.8725	75.12	-0.2529	-0.0074	0.2455	1309.0721	0.147796	-435.27526	-435.265877	-435.264933	-435.311367	32.686	
C	-0.4800600578	 1.4124912422	 0.0744960945	-0.386157
C	 0.1482978611	 0.0230803165	-0.1163901017	 0.024722
O	 1.1021122111	 0.0375524634	-1.1650593727	-0.433682
C	 0.7564210128	-0.4852514854	 1.1642381769	 0.315568
N	 2.0630939902	-0.3345910128	 1.3966088701	-0.343114
N	 2.240966774	-0.8467268865	 2.6096867095	 0.169083
C	 3.5494261568	-0.9406924858	 3.2238175144	-0.314096
N	 1.1497542972	-1.3270629744	 3.1898132006	-0.225041
C	 0.1898320078	-1.1050852523	 2.2886710014	-0.150469
H	 0.2796433497	 2.1291699812	 0.4023434747	 0.119074
H	-0.8996428246	 1.7570830371	-0.8743680151	 0.124766
H	-1.2768650626	 1.3879263516	 0.8252961411	 0.112093
H	-0.6396119809	-0.6750122525	-0.427071239	 0.093882
H	 1.9583843234	 0.2305695947	-0.7647095447	 0.293462
H	 4.0654360701	 0.0157762601	 3.1245579258	 0.155894
H	 3.4028468846	-1.1842685072	 4.2749608161	 0.165664
H	 4.1444046606	-1.7224656672	 2.7426713419	 0.152923
H	-0.8310869434	-1.3917809627	 2.4843864562	 0.125427
22.7173	36.3224	129.4234	168.0997	213.942	257.4341	274.0261	345.2801	382.0501	457.7697	502.0906	657.1439	675.6059	743.0756	766.5406	871.374	906.3022	1016.3061	1024.044	1050.7107	1090.2566	1096.2425	1129.698	1148.0097	1189.1104	1278.1755	1343.8833	1351.3702	1359.8984	1396.97	1419.7523	1427.6853	1448.7435	1457.4351	1480.8551	1488.8452	1494.1258	1508.2008	1550.1842	3026.3923	3035.1672	3057.	3109.5103	3123.0848	3130.2733	3177.8936	3268.3613	3787.5577
CC(O)C1=NN(C)N=C1	C[C@@H](O)c1nn(C)nc1	
InChI=1S/C5H9N3O/c1-4(9)5-3-6-8(2)7-5/h3-4,9H,1-2H3	InChI=1S/C5H9N3O/c1-4(9)5-3-6-8(2)7-5/h3-4,9H,1-2H3/t4-/m1/s1
