20
gdb 57659	2.29981	1.22974	1.03612	3.9932	77.47	-0.2589	0.0237	0.2826	1267.9297	0.167917	-440.260143	-440.250158	-440.249214	-440.295153	36.268	
C	-0.0794374246	 1.4699065777	-0.2395632747	-0.421992
C	 0.0188323483	-0.0281158036	 0.0794006239	 0.304126
C	 0.7919267593	-0.3078399648	 1.3747955595	-0.423918
O	-1.2919354851	-0.6322032238	 0.1343915899	-0.22715
C	-2.1906406391	-0.2092230724	 1.0398052698	 0.123739
N	-3.3101082992	-0.7898792299	 1.1230898122	-0.445431
C	 0.7283742365	-0.7236311961	-1.0791309895	 0.080156
C	 0.2567970548	-1.9677981535	-1.6955015284	-0.180895
O	 0.0855888079	-0.7006654513	-2.3449837545	-0.245898
H	 0.9211720536	 1.883203148	-0.399266951	 0.122978
H	-0.66238256	 1.6112384702	-1.152354526	 0.154605
H	-0.5432769226	 2.0343763132	 0.5737065376	 0.115371
H	 0.3332655388	 0.1949493085	 2.2305861929	 0.12058
H	 0.8180896727	-1.3820478824	 1.5775196053	 0.137157
H	 1.8205403892	 0.0557617586	 1.2912446527	 0.125237
H	-1.861818663	 0.6385530882	 1.6508193116	 0.088487
H	-3.8742547913	-0.3471646645	 1.8455967113	 0.226342
H	 1.796235748	-0.4979904301	-1.1139801748	 0.089701
H	 0.9775444577	-2.6355059475	-2.1653876325	 0.111412
H	-0.6590366119	-2.4232077145	-1.3325141353	 0.145392
77.6243	88.2217	127.8882	148.4903	206.2289	245.0284	255.8175	293.3167	322.8306	379.6899	400.3319	508.2059	560.1704	575.0487	765.8014	818.3284	845.3908	886.9466	927.9059	942.3838	962.485	1009.1832	1031.9081	1044.7676	1101.4165	1116.2765	1167.2343	1173.8976	1197.6772	1212.5557	1261.7626	1296.5423	1307.0108	1395.6262	1407.8669	1426.2026	1437.7375	1481.2951	1485.0676	1500.4162	1505.616	1522.1936	1736.1089	3043.3976	3046.1086	3058.7412	3086.9566	3099.8217	3112.5792	3118.5807	3124.4501	3138.4737	3206.6433	3514.799
CC(C)(OC=N)C1CO1	CC(C)(O[CH][NH])[C@H]1CO1	
InChI=1S/C6H11NO2/c1-6(2,9-4-7)5-3-8-5/h4-5,7H,3H2,1-2H3	InChI=1S/C6H11NO2/c1-6(2,9-4-7)5-3-8-5/h4-5,7H,3H2,1-2H3/t5-/m1/s1
