15
gdb 25853	4.16951	1.10699	0.87955	5.072	74.89	-0.2139	-0.0524	0.1615	1252.3474	0.112006	-453.991813	-453.983294	-453.982349	-454.025961	30.425	
C	 0.0445876288	 1.5033365082	 0.0069671029	-0.498986
C	 0.0453619959	-0.0194258023	 0.0023930117	 0.285654
O	 1.0724173225	-0.6676219023	-0.0089534647	-0.313199
C	-1.2653068002	-0.6647494058	 0.010341379	 0.250192
C	-2.5243477378	-0.1728135795	 0.0219653783	-0.155818
N	-3.3823807733	-1.2431950045	 0.0249831157	-0.32228
C	-2.6560420597	-2.429473483	 0.0149745628	 0.468804
N	-3.1462605385	-3.593237106	 0.0146838627	-0.597667
O	-1.3340080139	-2.0531865735	 0.0058872034	-0.230576
H	 1.0789587061	 1.8476761751	-0.0015268387	 0.151037
H	-0.4752216358	 1.8998125808	-0.8716084702	 0.137483
H	-0.4588032698	 1.8942837233	 0.8974994367	 0.13749
H	-2.8697059007	 0.847037383	 0.0283188954	 0.165839
H	-4.3869012542	-1.2275855704	 0.0329388777	 0.285244
H	-2.4138944092	-4.297866973	 0.0063604473	 0.236782
41.7984	96.4462	130.0122	159.8472	235.0431	338.4921	424.0391	439.6155	534.4871	552.7401	611.1095	651.7546	721.4694	757.8688	761.0581	815.1655	924.5275	943.7412	974.1009	1038.4469	1043.4004	1082.6227	1140.7661	1221.8541	1346.5541	1361.7833	1385.4565	1429.452	1471.6286	1477.6237	1655.8955	1765.9203	1799.1404	3040.4081	3103.938	3156.433	3287.558	3547.4826	3695.1629
CC(=O)C1=CNC(=N)O1	CC(=O)C1=CN[C@H]([NH])O1	
InChI=1S/C5H6N2O2/c1-3(8)4-2-7-5(6)9-4/h2H,1H3,(H2,6,7)	InChI=1S/C5H7N2O2/c1-3(8)4-2-7-5(6)9-4/h2,5-7H,1H3/t5-/m0/s1
