25
gdb 122016	2.19059	0.70595	0.55879	1.2834	87.23	-0.2466	0.0822	0.3288	2062.0264	0.225698	-426.625306	-426.613259	-426.612315	-426.664192	41.922	
C	-0.0762043792	 1.5058005128	 0.1034622989	-0.383121
C	 0.1336088079	 0.0088543185	-0.0582069402	-0.034815
O	 0.6209669661	-0.5049413129	 1.1649411685	-0.25604
C	 0.752793325	-1.9203589945	 1.2271485269	 0.143718
C	 2.0086781828	-2.403554492	 0.4953038607	-0.40399
C	 0.7761625778	-2.2975606238	 2.7102844575	-0.194731
C	-0.5154571247	-1.9385421251	 3.448858392	-0.168434
C	-0.4581793632	-2.2705347051	 4.9332768832	-0.075536
O	-1.7056795735	-1.9145169003	 5.5121136744	-0.421953
H	 0.8660654907	 1.9989853324	 0.3589578179	 0.125019
H	-0.4548335843	 1.9413579576	-0.8262484041	 0.111942
H	-0.7953283091	 1.7085010836	 0.9021808918	 0.126739
H	-0.8148618201	-0.487032864	-0.3254016401	 0.084576
H	 0.8403423293	-0.1851571704	-0.8807245308	 0.085757
H	-0.1345453282	-2.3814479556	 0.7584136279	 0.060368
H	 2.092326157	-3.4936033692	 0.5529570575	 0.11232
H	 1.9897997514	-2.1289354797	-0.5631569804	 0.115167
H	 2.9032926925	-1.9627828562	 0.9469371093	 0.120715
H	 0.9712554903	-3.3745649112	 2.790729559	 0.089669
H	 1.6295015623	-1.786700329	 3.1759678341	 0.100521
H	-0.7189411292	-0.8703657847	 3.3303225827	 0.120707
H	-1.3644929043	-2.4754939756	 3.007039668	 0.096917
H	-0.2501916331	-3.3453711077	 5.0694601534	 0.078244
H	 0.3716374597	-1.7188255403	 5.4054825599	 0.082898
H	-1.6664991238	-2.1100333279	 6.4526613721	 0.283343
47.0848	58.161	61.3957	87.4172	144.096	148.8415	200.4897	222.2216	253.9166	263.3661	292.5878	303.832	392.4782	465.9941	506.2265	523.9293	755.0983	818.7089	823.2947	871.0802	908.4246	957.4324	1003.1013	1011.5115	1052.2679	1072.5409	1098.9204	1115.2567	1138.7105	1162.6057	1182.9612	1191.3514	1226.3581	1239.3434	1297.2257	1298.2785	1304.8064	1316.4045	1356.5256	1370.6512	1400.13	1403.4842	1405.5596	1438.1991	1461.7113	1474.8394	1483.8216	1491.3	1497.4201	1500.0318	1503.0283	1528.9972	1530.7138	2945.2624	2952.3895	2960.8658	2977.5966	2988.4834	3017.1456	3034.5619	3038.3401	3043.8334	3056.6423	3099.7916	3108.9994	3112.9897	3117.5602	3120.9639	3830.3758
CCOC(C)CCCO	CCO[C@@H](C)CCCO	
InChI=1S/C7H16O2/c1-3-9-7(2)5-4-6-8/h7-8H,3-6H2,1-2H3	InChI=1S/C7H16O2/c1-3-9-7(2)5-4-6-8/h7-8H,3-6H2,1-2H3/t7-/m0/s1
