19
gdb 126897	3.08731	1.05716	0.80212	4.1092	81.15	-0.1981	0.0195	0.2176	1446.0978	0.158736	-419.210005	-419.200382	-419.199438	-419.245744	33.857	
C	 0.0779204783	 1.4723802546	 0.0407975948	-0.400719
C	-0.0186117278	-0.0319915347	-0.1857624415	-0.119343
N	-1.3720438775	-0.5025722802	 0.1048676749	-0.406481
C	-1.6724528407	-1.8363458097	 0.0925606286	 0.472467
C	-2.8747074621	-2.5036819495	 0.0422285648	 0.029191
C	-4.2523771663	-1.9286304565	-0.0620154319	-0.525531
C	-2.4629170197	-3.8557827419	 0.1309495243	-0.019539
N	-1.1650941107	-4.01712986	 0.2211546602	-0.179617
O	-0.6514611696	-2.6973356479	 0.1918918403	-0.226002
H	 1.093606606	 1.8217100933	-0.1627281899	 0.129275
H	-0.5990863068	 2.0188804518	-0.6262355195	 0.116382
H	-0.1783963769	 1.7296086824	 1.0725043213	 0.132918
H	 0.2821406802	-0.28287564	-1.2143925563	 0.109333
H	 0.6672909952	-0.5624186361	 0.4800079322	 0.140619
H	-2.112971441	 0.0824348905	-0.2537664141	 0.244917
H	-4.3520022112	-1.2414794645	-0.912572121	 0.118184
H	-4.9905114497	-2.7220238135	-0.2071615071	 0.133388
H	-4.5448559429	-1.3735169988	 0.8382030164	 0.129925
H	-3.0921739166	-4.7368904695	 0.1308552536	 0.120635
47.4195	57.9072	91.5823	122.8922	237.1744	252.088	262.2979	308.1868	341.6491	459.5635	537.7949	626.5429	642.0841	724.1917	782.3731	812.6537	900.4329	916.069	926.2909	952.5319	1000.0519	1065.834	1072.3595	1133.7686	1151.0257	1206.5758	1219.7755	1295.3773	1338.6148	1375.0252	1407.0961	1415.4155	1433.7093	1466.8324	1486.8879	1494.5134	1499.5475	1507.2613	1524.7681	1562.2533	1678.0714	2989.4105	3011.0206	3035.2848	3053.3302	3086.2063	3108.0494	3108.9475	3125.6086	3223.7983	3598.8622
CCNC1=C(C)C=NO1	CCNc1c(C)cno1	
InChI=1S/C6H10N2O/c1-3-7-6-5(2)4-8-9-6/h4,7H,3H2,1-2H3	InChI=1S/C6H10N2O/c1-3-7-6-5(2)4-8-9-6/h4,7H,3H2,1-2H3
