14
gdb 28073	6.57809	0.8179	0.7483	4.7443	67.46	-0.2037	-0.0011	0.2026	1416.6338	0.100358	-473.859152	-473.85094	-473.849996	-473.892559	29.542	
N	 0.019369277	 1.3057469971	 0.3900308948	-0.592296
C	-0.0624476384	-0.038001556	 0.0786495675	 0.430993
C	-1.1033500885	-0.9133658238	-0.0363603854	-0.41033
C	-0.4836403748	-2.181434833	-0.2803745209	 0.337277
O	-1.1790622467	-3.3473678876	-0.4883157832	-0.2177
C	-0.8408507177	-4.430452794	 0.2673320207	 0.152756
O	-1.3273189497	-5.502173041	 0.0889023754	-0.258655
C	 0.8612870815	-2.0012586647	-0.3016672853	-0.151942
O	 1.1249126417	-0.668802976	-0.0733111151	-0.172999
H	 0.837442756	 1.755352551	 0.0000988115	 0.261651
H	-0.8228441895	 1.8200891908	 0.1756058311	 0.26252
H	-2.1574225039	-0.7072350918	 0.0401173399	 0.117708
H	-0.0863405658	-4.176974004	 1.0331603813	 0.095174
H	 1.7085716288	-2.6359300271	-0.4876366924	 0.145843
56.3461	126.4107	163.3807	192.0716	255.8596	325.7728	420.1678	447.7983	502.2826	612.8676	641.609	674.8983	695.7611	725.268	759.4033	823.6735	959.5427	1021.795	1047.9649	1083.5034	1117.7792	1156.8569	1204.9417	1252.9571	1346.3518	1405.7014	1465.3261	1604.5802	1631.9206	1674.0244	1875.2565	2987.1303	3277.6528	3301.3684	3555.4607	3658.546
NC1=CC(OC=O)=CO1	Nc1cc(OC=O)co1	
InChI=1S/C5H5NO3/c6-5-1-4(2-8-5)9-3-7/h1-3H,6H2	InChI=1S/C5H5NO3/c6-5-1-4(2-8-5)9-3-7/h1-3H,6H2
