17
gdb 11109	4.60509	1.19316	1.01417	0.8615	68.	-0.2528	0.0256	0.2784	1160.0712	0.141311	-400.991004	-400.982448	-400.981503	-401.024814	30.032	
C	-0.0478801452	 1.5230142252	-0.3489648067	-0.338884
N	-0.0444295514	 0.0687874232	-0.4217239927	-0.320514
C	-1.000381122	-0.5724527139	 0.0602898503	 0.470362
C	-1.3599341367	-2.0380879857	 0.1730306271	-0.409935
C	-2.623260624	-1.5126409241	 0.8846098842	 0.113705
C	-2.7869835003	-1.804572969	 2.362474953	-0.066862
O	-3.7493381897	-0.9534750303	 2.9487276935	-0.417241
O	-2.1580939448	-0.1292413324	 0.6984969113	-0.292976
H	 0.8458525979	 1.8559856277	 0.1899876625	 0.128872
H	 0.0213022682	 1.9310326965	-1.3632018257	 0.12983
H	-0.9326719956	 1.9466390506	 0.1404002511	 0.122918
H	-1.5207005588	-2.5451911405	-0.7792551588	 0.139514
H	-0.6813166777	-2.6305209158	 0.7911052126	 0.135482
H	-3.5669668952	-1.6530264542	 0.3502752419	 0.101805
H	-3.1411840928	-2.8324890762	 2.499334139	 0.117019
H	-1.8065871879	-1.7171885984	 2.8590463324	 0.092058
H	-3.465787504	-0.0503214427	 2.7632079251	 0.294846
69.6255	75.3837	114.4799	179.8299	224.5319	260.0199	376.0834	432.1339	470.2818	540.5942	563.795	703.9977	827.2219	886.331	937.6029	989.4651	1017.5259	1062.7695	1077.1478	1098.1355	1114.8186	1134.4694	1160.7427	1182.2949	1226.4805	1244.6863	1300.8676	1346.9198	1398.9727	1434.2415	1440.2188	1467.6817	1493.9817	1494.742	1497.3599	1852.8304	2974.4431	3017.9407	3067.6178	3080.9066	3084.0298	3084.8497	3087.7494	3138.0308	3794.7426
CN=C1CC(CO)O1	CN=C1C[C@@H](CO)O1	
InChI=1S/C5H9NO2/c1-6-5-2-4(3-7)8-5/h4,7H,2-3H2,1H3	InChI=1S/C5H9NO2/c1-6-5-2-4(3-7)8-5/h4,7H,2-3H2,1H3/t4-/m0/s1
