23
gdb 65261	3.23686	1.0357	1.00753	1.6902	85.	-0.2382	0.0766	0.3148	1333.9993	0.206571	-388.285091	-388.275796	-388.274851	-388.320332	35.045	
C	 0.7104327364	 0.4295035271	-1.331357462	-0.477065
C	 0.0312092474	 0.026745186	-0.0333544513	 0.371917
C	 0.9246368391	-0.4254377888	 1.1022952991	-0.308835
C	 0.2576675045	 0.9275284417	 1.1603238369	-0.309831
C	-1.3302562091	-0.6479506437	-0.1335060031	-0.062666
C	-2.4289108896	 0.1054282289	-0.9078704841	-0.248461
C	-3.4215648226	-1.0208728817	-1.1922675454	-0.067355
O	-2.6314369772	-2.1818199294	-1.4340990365	-0.263009
C	-1.3437376879	-2.023134682	-0.8387603014	-0.078007
H	 1.6981998762	 0.8546555621	-1.1289763256	 0.113889
H	 0.8547347339	-0.4231741457	-2.0034676354	 0.120561
H	 0.1356533935	 1.1877899952	-1.8738790602	 0.119415
H	 0.5593110767	-1.2013867985	 1.7670925546	 0.108971
H	 1.9946725145	-0.4619018668	 0.9274024325	 0.108979
H	 0.8760880002	 1.8083336792	 1.0235606897	 0.108589
H	-0.5570579878	 1.065387586	 1.8635765241	 0.107613
H	-1.696117095	-0.7982489067	 0.8906388122	 0.069653
H	-2.8644753156	 0.9315601687	-0.3399888262	 0.100106
H	-2.0371094088	 0.505805758	-1.8485303107	 0.106663
H	-4.0877492709	-1.1826001792	-0.3288697756	 0.085217
H	-4.0485021402	-0.8445246075	-2.0723478306	 0.102283
H	-0.5820862438	-2.0851925643	-1.6274164511	 0.095025
H	-1.1595279537	-2.8441847483	-0.13469503	 0.09635
25.3802	61.2798	162.3999	188.3021	212.8893	286.3864	303.1764	344.124	445.5783	472.2497	535.46	669.164	764.7539	786.9267	855.5523	866.0203	888.4278	919.3601	932.6703	953.9305	972.0498	979.8488	1010.2684	1034.9427	1062.2123	1079.9877	1092.9681	1111.6886	1125.8523	1141.0234	1187.653	1190.4468	1230.3578	1244.5573	1279.517	1308.5458	1326.5872	1342.8275	1364.5287	1392.2516	1416.8241	1424.4742	1470.1735	1488.8932	1493.052	1500.1983	1509.7371	1521.8009	1533.5985	2966.3097	3008.6543	3011.1129	3031.1359	3044.1844	3052.7993	3070.2971	3092.1012	3100.8908	3108.1368	3125.9244	3130.7072	3203.2475	3217.6362
CC1(CC1)C1CCOC1	CC1(CC1)[C@H]1CCOC1	
InChI=1S/C8H14O/c1-8(3-4-8)7-2-5-9-6-7/h7H,2-6H2,1H3	InChI=1S/C8H14O/c1-8(3-4-8)7-2-5-9-6-7/h7H,2-6H2,1H3/t7-/m0/s1
