16
gdb 70649	2.44976	1.6863	1.21431	5.5858	68.72	-0.2789	0.0115	0.2904	1032.7605	0.123678	-437.880046	-437.871966	-437.871022	-437.912814	29.766	
C	-0.2561363468	 1.3541337857	-0.0636578533	-0.497707
C	 0.1013664652	-0.0983563392	 0.0554354866	 0.373903
O	-0.6004028864	-0.8927190716	 1.0135316356	-0.273932
C	 0.8198189142	-0.7607594639	 1.149244685	-0.046445
C	 1.5678084165	-1.9373753053	 0.5716835012	-0.110062
O	 1.0287681661	-2.1289648473	-0.7380752966	-0.265599
C	 0.4391907413	-0.9209410822	-1.1947429459	-0.061434
C	-0.7377986761	-1.2331860641	-2.0166746399	 0.290022
N	-1.6667711985	-1.4213739419	-2.6759846914	-0.317615
H	 0.5407258912	 1.9143692418	-0.5632442548	 0.131726
H	-1.1746572309	 1.4747128975	-0.6470994599	 0.155839
H	-0.4213140918	 1.782962375	 0.9269107259	 0.144007
H	 1.1812884911	-0.2388126481	 2.0308987156	 0.113349
H	 2.6454829335	-1.7169257047	 0.5317600778	 0.107867
H	 1.4162754598	-2.8674508325	 1.1272682073	 0.135793
H	 1.1434992917	-0.3441654193	-1.8167990031	 0.120289
88.8532	131.3125	184.0294	229.9555	253.6317	307.4515	379.5992	441.0351	515.7216	551.584	613.447	709.8732	800.6234	863.408	889.5075	938.1426	957.7415	996.3867	1013.3735	1050.6161	1100.5338	1117.6219	1119.2948	1223.6645	1239.1779	1289.9585	1306.1217	1354.9784	1373.6386	1415.2244	1465.4221	1488.2925	1499.4946	1504.9205	2368.788	2973.2162	2996.4224	3043.3152	3088.3661	3108.5658	3134.9581	3160.2898
CC12OC1COC2C#N	C[C@]12O[C@H]1CO[C@H]2C#N	
InChI=1S/C6H7NO2/c1-6-4(2-7)8-3-5(6)9-6/h4-5H,3H2,1H3	InChI=1S/C6H7NO2/c1-6-4(2-7)8-3-5(6)9-6/h4-5H,3H2,1H3/t4-,5-,6+/m0/s1
