19
gdb 18157	3.63378	1.456	1.29137	2.7684	71.07	-0.2238	0.0688	0.2927	1019.4667	0.165715	-365.003599	-364.995354	-364.99441	-365.036333	30.777	
C	-0.0886276267	 1.5384278116	 0.3344577347	-0.427861
C	 0.0550379732	 0.0727706479	-0.0082916996	 0.03871
C	 0.5467798301	-0.5526761074	-1.2580021088	-0.107551
C	 1.7360145302	 0.1344057319	-1.9275960065	 0.04548
C	 1.5491571828	 1.3993189011	-2.7464794118	-0.112073
O	 2.8312287503	 1.7699029536	-3.2369580317	-0.421774
C	 2.4088197616	 0.137694672	-0.531582383	-0.189145
N	 1.306932022	-0.7057761306	 0.0672992318	-0.153468
H	-1.0454004299	 1.9164315095	-0.0416858375	 0.121748
H	-0.0857698725	 1.6675238044	 1.4226063844	 0.12553
H	 0.7005497128	 2.1686481823	-0.0752420269	 0.124993
H	-0.7401814703	-0.5204556076	 0.4440295125	 0.094365
H	 0.0199346415	-1.3953659313	-1.6985285166	 0.08895
H	 2.2540757472	-0.585103978	-2.5688058673	 0.095385
H	 0.8469850845	 1.192234309	-3.5717097787	 0.085747
H	 1.1098719529	 2.2067268734	-2.1443124089	 0.087073
H	 2.7399769749	 2.5867608321	-3.7359449762	 0.287452
H	 3.3508158838	-0.4103592195	-0.4917275651	 0.113955
H	 2.5523868218	 1.1084290656	-0.0482514248	 0.102483
74.1638	121.6574	179.5542	228.9621	265.5304	301.531	341.0315	429.4029	459.0707	578.5851	694.3143	746.1943	768.972	861.6619	902.3557	913.1473	954.2889	1009.1024	1029.7078	1071.7113	1079.501	1103.875	1119.0676	1128.1265	1167.2254	1192.9323	1229.5586	1263.5254	1263.8211	1282.5914	1298.9728	1361.4387	1385.9504	1411.5052	1445.9747	1460.9841	1492.5583	1498.8761	1518.0178	1525.7234	2961.7926	3015.733	3038.5606	3062.8299	3064.9005	3092.7136	3101.3387	3121.7284	3138.7987	3150.1938	3830.6457
CC1C2C(CO)CN12	C[C@H]1[C@H]2[C@@H](CO)CN12	
InChI=1S/C6H11NO/c1-4-6-5(3-8)2-7(4)6/h4-6,8H,2-3H2,1H3	InChI=1S/C6H11NO/c1-4-6-5(3-8)2-7(4)6/h4-6,8H,2-3H2,1H3/t4-,5+,6-,7?/m0/s1
