22
gdb 111507	1.99449	1.84918	1.12333	1.5052	81.58	-0.2233	0.0747	0.298	1169.5312	0.194876	-404.319918	-404.310963	-404.310019	-404.353412	34.266	
C	 0.4348478765	 0.9158205304	 0.6876239733	-0.237634
O	-0.3603798386	 0.257201365	-0.2717007937	-0.239732
C	 0.3923016247	-0.3526641649	-1.3078170214	 0.085495
C	 1.1518970477	-1.6130921924	-0.8736014569	-0.060062
C	 0.5156925499	-2.4791548591	 0.150163054	-0.235394
N	 0.3812653517	-2.8203950919	-1.2679725099	-0.098823
C	-0.8741485319	-2.3330986288	-1.8896384487	-0.182636
C	-0.5804144947	-0.8992818932	-2.378190363	 0.014802
C	-1.8083107824	-0.0379362	-2.6608666291	-0.407717
H	 1.097849961	 0.2196154844	 1.2213817456	 0.111588
H	 1.0563107795	 1.699022408	 0.2253064105	 0.1044
H	-0.2427559202	 1.3815302021	 1.407466647	 0.125625
H	 1.0845493631	 0.3910470276	-1.7311064702	 0.05939
H	 2.2243973781	-1.6574178499	-1.0422428209	 0.086043
H	 1.1242065258	-3.1649766538	 0.7340254352	 0.109581
H	-0.3529160817	-2.077847558	 0.6666178951	 0.122323
H	-1.1421552161	-2.9978137274	-2.7160210275	 0.104075
H	-1.7059375153	-2.3429415927	-1.1734298738	 0.101892
H	 0.0138143561	-0.9928979976	-3.296223655	 0.082031
H	-2.4011152224	 0.1040940005	-1.7546493198	 0.132777
H	-1.5216770513	 0.9517169438	-3.031114897	 0.111911
H	-2.4419433696	-0.5068713021	-3.4208938039	 0.110067
87.1396	122.6214	191.4861	202.572	210.3088	266.273	294.741	357.577	427.9013	487.8205	558.3708	618.1451	701.0903	777.4005	813.8789	868.0971	901.7812	928.9646	956.8763	963.7923	1012.7684	1033.4576	1085.5646	1097.8727	1122.8042	1133.6898	1140.7258	1169.3279	1184.833	1188.7351	1212.3277	1236.8329	1266.7943	1291.368	1316.5474	1348.0694	1360.8448	1388.3269	1392.1456	1408.2278	1478.947	1486.225	1493.3996	1495.5411	1499.576	1510.5582	1521.4244	2975.6915	2984.7505	3020.2134	3028.3806	3029.1928	3039.1995	3079.8945	3099.2727	3100.6192	3113.362	3128.6279	3139.7063	3187.8857
COC1C2CN2CC1C	CO[C@H]1[C@H]2CN2C[C@H]1C	
InChI=1S/C7H13NO/c1-5-3-8-4-6(8)7(5)9-2/h5-7H,3-4H2,1-2H3	InChI=1S/C7H13NO/c1-5-3-8-4-6(8)7(5)9-2/h5-7H,3-4H2,1-2H3/t5-,6-,7-,8?/m1/s1
