20
gdb 68856	2.42957	1.79409	1.40042	1.3376	77.9	-0.2229	0.0724	0.2953	1013.7982	0.171288	-403.116056	-403.107794	-403.10685	-403.148171	33.164	
C	-0.0772984243	 1.5376030205	-0.0511156842	-0.475284
C	-0.041486689	 0.0295795759	 0.0011685402	 0.290345
C	 1.2691334001	-0.708747391	-0.2284627919	-0.405707
C	 0.6100666029	-0.7319717636	 1.1307022971	 0.34982
O	 1.1828245349	-0.030525109	 2.1929326065	-0.471277
C	-0.2490624471	-1.9584114942	 1.4460083627	-0.239211
N	-1.3676200076	-1.9823233989	 0.4729200847	-0.09843
C	-2.3188291942	-0.8773731388	 0.6658547317	-0.252891
C	-1.262608838	-0.7666895056	-0.3697744217	-0.092428
H	 0.8036029616	 1.9580067131	 0.4414175612	 0.127788
H	-0.1000915983	 1.9004283597	-1.084639783	 0.115479
H	-0.9643531959	 1.926478728	 0.4601395442	 0.118529
H	 1.2739432083	-1.6150413044	-0.8274284494	 0.114845
H	 2.1548432716	-0.0886707851	-0.3247046536	 0.108979
H	 2.0215168984	-0.4491838105	 2.413005316	 0.285455
H	 0.3114726324	-2.8959647764	 1.3481472508	 0.097925
H	-0.6248134051	-1.8963918142	 2.4731590563	 0.109411
H	-3.3436330648	-1.1038192062	 0.3857343216	 0.114068
H	-2.2127854042	-0.261306216	 1.5573372396	 0.114794
H	-1.5087286018	-0.8957490233	-1.4217532188	 0.087789
147.6322	188.0515	208.9315	217.8705	274.5302	358.5961	389.4557	430.1256	458.2445	498.9874	548.2281	644.4971	715.5316	751.1958	780.4829	845.959	901.2931	922.2017	947.7366	961.6759	1001.2378	1031.897	1037.2713	1053.293	1083.1341	1111.0648	1129.0054	1154.8203	1172.9772	1203.0194	1258.4231	1276.333	1278.8289	1303.9331	1342.9858	1384.9987	1406.5619	1415.2292	1480.4743	1488.9483	1499.2156	1503.3651	1508.9447	3023.9134	3031.4265	3071.1564	3091.4493	3095.7363	3114.7481	3116.9735	3125.6419	3185.3626	3207.8036	3805.16
CC12CC1(O)CN1CC21	C[C@@]12C[C@]1(O)CN1C[C@@H]21	
InChI=1S/C7H11NO/c1-6-3-7(6,9)4-8-2-5(6)8/h5,9H,2-4H2,1H3	InChI=1S/C7H11NO/c1-6-3-7(6,9)4-8-2-5(6)8/h5,9H,2-4H2,1H3/t5-,6-,7-,8?/m0/s1
