17
gdb 32240	2.65067	1.59956	1.00744	2.2739	81.92	-0.1993	-0.0184	0.1809	1147.9226	0.139253	-414.246599	-414.238504	-414.23756	-414.279098	30.834	
C	-0.0229103127	 1.4547732649	-0.0004759047	-0.312526
N	-0.0082976595	 0.0015494028	 0.0770379902	-0.372505
C	-1.2069831065	-0.688423442	 0.0455343631	 0.357388
N	-2.3523635552	-0.0333439414	 0.1186297911	-0.329004
C	-3.4800678448	-0.769852776	 0.0875825942	-0.043225
C	-3.4510713646	-2.1419293443	-0.0372642893	-0.048449
N	-2.2874829795	-2.8226731644	-0.0834954716	-0.306933
C	-1.1781648912	-2.1154203995	-0.0291911383	 0.292342
N	 0.0536222456	-2.7669420506	-0.0977924793	-0.582398
H	 1.0065855265	 1.8163384813	 0.0527267598	 0.117087
H	-0.4924997395	 1.8301079517	-0.9196246828	 0.125522
H	-0.5848858723	 1.8596467033	 0.8432988187	 0.14926
H	 0.7148763741	-0.4448958555	-0.4707736396	 0.245262
H	-4.4183992216	-0.2272612983	 0.1532470153	 0.102427
H	-4.3632334829	-2.7280637439	-0.0878059512	 0.10267
H	-0.0585745433	-3.7706065484	-0.0235670035	 0.252937
H	 0.7327856875	-2.4169967798	 0.5679258977	 0.250145
117.8986	152.0616	185.0481	209.3064	322.7559	330.5822	379.8128	485.3104	522.6926	543.936	596.8106	602.7574	664.9287	752.8929	802.7896	843.3247	857.2779	917.2978	948.9075	1057.8104	1093.8005	1110.0361	1149.7669	1159.9319	1241.9705	1269.1686	1322.9979	1383.0692	1447.2691	1460.5557	1478.7193	1489.2714	1506.7701	1535.5867	1589.012	1624.8246	1644.2391	3014.8275	3097.2495	3138.3957	3164.3464	3185.0398	3520.2282	3578.4592	3625.2837
CNC1=NC=CN=C1N	CNc1nccnc1N	
InChI=1S/C5H8N4/c1-7-5-4(6)8-2-3-9-5/h2-3H,1H3,(H2,6,8)(H,7,9)	InChI=1S/C5H8N4/c1-7-5-4(6)8-2-3-9-5/h2-3H,1H3,(H2,6,8)(H,7,9)
