15
gdb 46027	3.15364	1.27968	0.95019	4.2419	72.11	-0.2365	-0.0948	0.1417	1171.8927	0.110797	-420.625912	-420.617617	-420.616673	-420.659261	30.569	
O	-0.0763469643	-0.0387259583	-0.1033695324	-0.271324
C	-0.0922990082	 1.1580808322	-0.0222824102	 0.326145
C	-1.2878128619	 2.0966503191	-0.0559333824	-0.344241
C	-0.777664103	 3.4098462669	 0.5696418135	-0.240041
C	 0.716335426	 3.504792368	 0.1459818697	-0.315257
C	 1.5325274134	 4.4187421026	 0.917946398	 0.320976
C	 2.1985600245	 5.1704562914	 1.5767119031	-0.415082
C	 1.1861099167	 2.0364073773	 0.1602643936	 0.308682
O	 2.2970655948	 1.6121704258	 0.2891407441	-0.263739
H	-1.5675131538	 2.2461647574	-1.1079204602	 0.142494
H	-2.1514519274	 1.6592555302	 0.4488384531	 0.144026
H	-1.3437020947	 4.2864473931	 0.2517786391	 0.127746
H	-0.8330771779	 3.3585031742	 1.6613051421	 0.134036
H	 0.7462806714	 3.7953903412	-0.9177338015	 0.142047
H	 2.7970107244	 5.8305429886	 2.1547107506	 0.203532
56.1395	127.5686	140.4921	215.7543	314.2332	352.4553	414.1184	466.1674	498.4506	557.7156	584.5749	638.3631	648.4365	675.5686	737.6918	854.449	912.0029	970.2142	973.0567	1021.9903	1066.4539	1122.3503	1148.0153	1210.3112	1261.3752	1290.7138	1302.7314	1348.514	1445.9433	1504.3707	1847.5052	1868.7069	2245.2878	2973.275	3027.9895	3066.9607	3115.5443	3125.0803	3503.8921
O=C1CCC(C#C)C1=O	O=C1CC[C@@H](C#C)C1=O	
InChI=1S/C7H6O2/c1-2-5-3-4-6(8)7(5)9/h1,5H,3-4H2	InChI=1S/C7H6O2/c1-2-5-3-4-6(8)7(5)9/h1,5H,3-4H2/t5-/m1/s1
