19
gdb 52655	3.39117	0.83042	0.69063	5.0073	85.48	-0.2558	0.0187	0.2746	1623.3014	0.157267	-382.058884	-382.047933	-382.046989	-382.096296	37.75	
C	 0.0206006036	 1.4784943775	 0.0302800099	-0.500364
C	 0.0230585076	 0.0220346812	 0.0125894525	 0.096015
C	 0.0137750708	-1.1831919291	 0.01909638	 0.031469
C	-0.0083663396	-2.6443251066	-0.0119150109	-0.167462
C	-1.4466345968	-3.1917243477	 0.0507049383	-0.40377
C	 0.7552793595	-3.1374583106	-1.2924964906	-0.110116
N	 2.1116926604	-2.6232556882	-1.4648401968	-0.508939
C	 0.7981644988	-4.6076581874	-1.3118000881	 0.295653
N	 0.8228769623	-5.7625867455	-1.2904761583	-0.326752
H	 0.9131399448	 1.8733253022	 0.5276012951	 0.15195
H	-0.0036328584	 1.8887782023	-0.9850452822	 0.152564
H	-0.8549149253	 1.8640973675	 0.5637615435	 0.155047
H	 0.5497814407	-3.0264292509	 0.8541364732	 0.111961
H	-2.0275034383	-2.8489825038	-0.8111912565	 0.127798
H	-1.4433318507	-4.2847821105	 0.0579860956	 0.146081
H	-1.9473197448	-2.8390628006	 0.9552928608	 0.131252
H	 0.1677596966	-2.816582193	-2.162370867	 0.137414
H	 2.0709927959	-1.6087609432	-1.4089900741	 0.242201
H	 2.6989235428	-2.9354019936	-0.6958112943	 0.237997
25.9912	53.4212	82.2856	145.5462	164.1826	225.7364	240.5021	259.6233	297.7899	304.2878	333.5766	407.0355	476.4089	518.7381	547.7343	600.7237	750.9235	831.344	890.2157	945.2994	998.8533	1051.5836	1053.8028	1072.9088	1095.4675	1141.9961	1180.7318	1216.9181	1267.4409	1326.2742	1351.3412	1409.9173	1410.9864	1415.4054	1477.6086	1478.0675	1494.1921	1498.9506	1659.4805	2360.6007	2364.2759	3008.1475	3029.5993	3036.5233	3046.1612	3091.4495	3092.2641	3120.1696	3130.8351	3482.8529	3565.9459
CC#CC(C)C(N)C#N	CC#C[C@@H](C)[C@@H](N)C#N	
InChI=1S/C7H10N2/c1-3-4-6(2)7(9)5-8/h6-7H,9H2,1-2H3	InChI=1S/C7H10N2/c1-3-4-6(2)7(9)5-8/h6-7H,9H2,1-2H3/t6-,7+/m1/s1
