19
gdb 72353	2.26971	1.49808	1.17621	3.4567	81.84	-0.2271	-0.018	0.2092	1131.7491	0.158948	-385.902671	-385.894323	-385.893379	-385.935481	32.092	
C	-0.0031538106	 1.4903482863	-0.0138646701	-0.479022
C	-0.0445311788	-0.0181455535	 0.056794987	 0.305801
C	-1.394931412	-0.71405155	-0.1834831897	-0.336156
C	-1.3659418815	-1.9081415526	 0.7449511569	-0.076242
C	-0.2403493184	-1.9497500355	 1.4618370039	-0.078552
C	 0.6664887823	-0.8148225511	 1.1201719903	-0.135401
C	 1.2372235541	-0.7764202181	-0.3111530069	-0.151279
C	 1.28894227	-1.9577883856	-1.200884768	 0.143943
O	 2.1288931143	-2.1009913951	-2.0604902337	-0.278285
H	 0.9781316767	 1.8779083521	 0.2757653735	 0.121955
H	-0.2145926435	 1.8463346233	-1.028516877	 0.127497
H	-0.7501272376	 1.9306653059	 0.6566373465	 0.121721
H	-2.2211760807	-0.0333373441	 0.0647313202	 0.112021
H	-1.5470036799	-1.0014977498	-1.2312593266	 0.120646
H	-2.1651168257	-2.6393974689	 0.7820639655	 0.102155
H	 0.0185889098	-2.709624866	 2.1898766893	 0.103119
H	 1.2754893103	-0.349980184	 1.8887862081	 0.096168
H	 2.101804926	-0.1327454226	-0.4440904806	 0.102143
H	 0.5075635852	-2.7266764408	-1.0362036586	 0.077767
91.5165	167.9854	196.5719	210.121	230.7985	312.3303	372.2326	429.7364	474.2344	529.038	590.656	705.2527	761.7684	780.4392	859.3748	883.0481	917.8554	957.9157	960.7438	975.475	1017.5291	1036.4364	1057.9987	1063.9245	1104.796	1115.8763	1153.0056	1190.7828	1218.5554	1268.0449	1306.7239	1319.6795	1371.7612	1404.4187	1418.8533	1451.6195	1477.7208	1489.2649	1498.4592	1667.2809	1797.8555	2927.7507	3011.9585	3026.0656	3047.1111	3086.8256	3104.7871	3156.1323	3165.4695	3191.0945	3215.298
CC12CC=CC1C2C=O	C[C@]12CC=C[C@H]1[C@H]2C=O	
InChI=1S/C8H10O/c1-8-4-2-3-6(8)7(8)5-9/h2-3,5-7H,4H2,1H3	InChI=1S/C8H10O/c1-8-4-2-3-6(8)7(8)5-9/h2-3,5-7H,4H2,1H3/t6-,7+,8-/m0/s1
