15
gdb 69068	2.62884	1.70382	1.28034	3.001	70.48	-0.2738	-0.0143	0.2595	984.1019	0.112694	-416.819002	-416.811319	-416.810375	-416.851075	28.975	
C	-0.0758953938	 1.5384187959	-0.0914091945	-0.466365
C	 0.0252665312	 0.0400919771	-0.0202635087	 0.266653
C	-0.8073906349	-0.7824848316	 0.9304911112	-0.364535
C	 0.6921355276	-0.7737390401	 1.1212657696	 0.236454
O	 1.408331633	-1.8118378816	 0.4709690402	-0.238439
C	 1.1535758158	-1.6357658598	-0.8558191793	 0.087734
N	 0.4359455934	-0.6540031094	-1.2199028891	-0.283215
C	 1.3238101698	-0.2472540761	 2.2904318921	 0.237764
N	 1.8040351049	 0.216206395	 3.2353271235	-0.342345
H	 0.8451965322	 1.968914376	-0.4931975216	 0.141238
H	-0.9028630231	 1.8250359059	-0.7480001868	 0.143107
H	-0.2563119715	 1.9647186531	 0.8987784478	 0.135314
H	-1.3729268538	-0.2386488648	 1.6787096492	 0.146991
H	-1.2579011599	-1.7043730997	 0.5780911386	 0.139948
H	 1.6062612991	-2.37757123	-1.5013534623	 0.159697
122.8584	147.2382	178.4657	253.1627	318.0507	381.2382	422.1145	504.8481	554.5546	587.3501	606.365	680.4658	753.3535	800.3996	919.04	926.2645	944.0985	967.2317	975.1267	1057.9234	1098.353	1127.0056	1133.1422	1227.3404	1292.3708	1338.2282	1359.9611	1422.8714	1464.7631	1478.9323	1496.0645	1671.5328	2353.488	3047.3376	3118.8687	3128.7299	3135.1932	3232.7394	3239.693
CC12CC1(OC=N2)C#N	C[C@]12C[C@]1(OC=N2)C#N	
InChI=1S/C6H6N2O/c1-5-2-6(5,3-7)9-4-8-5/h4H,2H2,1H3	InChI=1S/C6H6N2O/c1-5-2-6(5,3-7)9-4-8-5/h4H,2H2,1H3/t5-,6-/m0/s1
