23
gdb 109785	2.80178	1.00202	0.85578	0.547	87.39	-0.2138	0.0775	0.2913	1476.6347	0.205319	-384.408088	-384.397974	-384.39703	-384.443631	37.114	
C	-0.1522126664	 1.5508220117	 1.4567825237	-0.380826
C	-0.0454572563	 0.4347783211	 0.409266079	-0.201509
C	-1.3293878352	-0.363277849	 0.2823795232	-0.008217
C	-1.3819564952	-1.7596762811	-0.2602881973	-0.052765
C	-0.1629742531	-2.5020203583	-0.7149756192	 0.017191
C	-0.3170195646	-3.8760560467	-1.2606723789	-0.249563
N	 0.0182558033	-2.7568785811	-2.1568243745	-0.325117
N	-1.6906732309	-1.4930529703	 1.1459318323	-0.109656
C	-0.8003148514	-1.9619851905	 2.1974858546	-0.313448
H	 0.7666258885	 2.1437960773	 1.4957188797	 0.113524
H	-0.9793719959	 2.2302044945	 1.2242415782	 0.118315
H	-0.3322893477	 1.1431848766	 2.4566578139	 0.1221
H	 0.1766999702	 0.8740778085	-0.5717083203	 0.107745
H	 0.8049339867	-0.2104717993	 0.6458048302	 0.100439
H	-2.1890469716	 0.2739403396	 0.0649441873	 0.083048
H	-2.2640539428	-2.0409257175	-0.8425010927	 0.075132
H	 0.7692826223	-2.2634789492	-0.2137638333	 0.091734
H	 0.473136614	-4.6097769934	-1.1285138889	 0.118401
H	-1.320979654	-4.2921995085	-1.2974340013	 0.113206
H	-0.8152485031	-2.4603231997	-2.6611298392	 0.229961
H	 0.2757495798	-1.8415584	 2.0096762245	 0.102187
H	-1.0405688337	-1.4276244535	 3.1224638026	 0.122956
H	-0.9911967932	-3.0263666712	 2.3677597867	 0.125161
54.9282	78.9295	125.563	143.5846	194.751	210.0712	261.7886	285.3009	318.721	341.6089	497.1814	522.302	582.8798	724.1001	747.4514	811.8345	836.5468	869.3257	894.7687	951.7973	967.3087	996.8375	1041.5522	1077.8505	1080.7903	1109.2512	1135.106	1137.3122	1151.0896	1162.4626	1167.6319	1196.644	1236.8116	1253.2705	1287.6677	1297.7735	1330.1695	1340.9269	1351.3986	1409.6003	1421.9461	1448.2305	1472.7059	1477.3828	1496.8098	1499.8528	1505.8544	1508.0788	1511.7531	2997.434	3031.1591	3034.6006	3054.2534	3066.1901	3073.0983	3085.5771	3098.1719	3105.4301	3107.1091	3108.5779	3159.7991	3191.9237	3483.6394
CCC1C(C2CN2)N1C	CC[C@H]1[C@@H]([C@H]2CN2)N1C	
InChI=1S/C7H14N2/c1-3-6-7(9(6)2)5-4-8-5/h5-8H,3-4H2,1-2H3	InChI=1S/C7H14N2/c1-3-6-7(9(6)2)5-4-8-5/h5-8H,3-4H2,1-2H3/t5-,6+,7-,9?/m1/s1
