18
gdb 29507	3.11265	1.51945	1.04238	0.4414	78.79	-0.1684	0.0654	0.2337	1136.1468	0.149592	-401.979899	-401.971698	-401.970754	-402.012691	30.837	
C	-0.0063765974	 1.5457622375	-0.0376037589	-0.503156
C	-0.0022057556	 0.0485764859	 0.0144897795	 0.098458
C	 0.0315906489	-0.7995904518	-1.0730082088	-0.171425
N	 0.0302173549	-2.1254009125	-0.6238031649	-0.401156
C	-0.0116039548	-2.0766191335	 0.7286931743	 0.436205
C	-0.0350865002	-0.7923982775	 1.1730453383	 0.11904
C	 0.0062586666	-0.8408883583	 2.6772003387	-0.379777
C	-0.1883772832	-2.3796643478	 2.9111902555	-0.088418
O	 0.0120216256	-3.076965223	 1.6388925469	-0.291886
H	 0.8631282133	 1.9740596571	 0.4760195837	 0.119864
H	 0.0121907666	 1.9038654057	-1.0711997477	 0.11723
H	-0.8975139779	 1.9673644536	 0.4432074952	 0.119739
H	 0.0407785461	-0.5821954005	-2.1286496684	 0.110894
H	 0.0296486904	-2.9484557587	-1.1987254644	 0.263446
H	 0.9596216189	-0.4899409275	 3.0946626676	 0.107902
H	-0.7876636845	-0.2785916916	 3.1810727641	 0.108614
H	 0.518209716	-2.8063814929	 3.6255983175	 0.118301
H	-1.2079961139	-2.6008347341	 3.2435951617	 0.116126
96.2952	130.122	186.2724	198.4128	234.3481	304.6769	396.3483	492.6365	581.5812	611.0405	629.467	633.3801	693.2837	764.0879	783.001	846.7937	930.1723	976.3405	1001.1432	1058.3727	1067.4331	1076.0666	1094.4058	1175.5608	1202.6836	1240.3897	1257.3603	1291.3516	1341.83	1373.4353	1416.7806	1437.4522	1481.7351	1496.3345	1498.9112	1515.1645	1567.2024	1572.6237	1651.5963	3005.4852	3018.2499	3040.3388	3055.6856	3063.1715	3101.3816	3114.5522	3263.7036	3694.6167
CC1=CNC2=C1CCO2	Cc1c[nH]c2c1CCO2	
InChI=1S/C7H9NO/c1-5-4-8-7-6(5)2-3-9-7/h4,8H,2-3H2,1H3	InChI=1S/C7H9NO/c1-5-4-8-7-6(5)2-3-9-7/h4,8H,2-3H2,1H3
