15
gdb 23516	4.74255	1.33229	1.26624	1.8984	72.03	-0.2387	-0.0021	0.2366	982.0991	0.113637	-416.659308	-416.652848	-416.651904	-416.690159	26.115	
O	-0.1232236991	 1.3446712109	-0.0357833756	-0.392085
N	 0.0246495998	-0.0554555073	-0.0644003761	-0.288274
C	-1.0969835053	-0.6378547117	-0.0573248586	 0.496153
C	-1.4792948674	-2.0954197796	 0.0614819685	-0.182706
C	-2.533730524	-2.3089346585	-1.0495117004	-0.03807
C	-3.7006734429	-2.1432626855	-0.1532933033	-0.063938
C	-2.7274869538	-1.6324826742	 0.9393936896	-0.063294
C	-2.5627871724	-0.3058773527	 0.118201105	-0.120883
N	-3.2960614531	-1.001671337	-1.0296574478	-0.149108
H	 0.7927540661	 1.642909366	-0.0425237081	 0.307786
H	-0.7892226936	-2.8903298654	 0.3279422919	 0.09244
H	-2.4318707831	-2.8111021282	-2.0025414973	 0.108447
H	-4.695219443	-2.570903467	-0.152145073	 0.103604
H	-2.7638263359	-1.715497874	 2.0212933471	 0.089902
H	-2.9500652624	 0.6770423842	 0.366651278	 0.100028
117.0699	188.9071	306.4543	412.7035	447.0097	572.5019	664.5362	707.3129	737.954	757.8286	782.6101	807.4773	845.3971	874.5465	895.5428	912.4485	946.5965	968.0537	1001.825	1028.7821	1035.7973	1047.0366	1130.8347	1142.0999	1169.8439	1189.7187	1212.9141	1219.8883	1234.9753	1262.4572	1326.0333	1410.9124	1797.2503	3162.3063	3171.4709	3177.1177	3191.745	3206.7164	3816.0245
ON=C1C2C3C4C2C1N34	ON=C1[C@@H]2[C@H]3[C@H]4[C@@H]2[C@@H]1N34	
InChI=1S/C6H6N2O/c9-7-3-1-2-4(3)8-5(1)6(2)8/h1-2,4-6,9H	InChI=1S/C6H6N2O/c9-7-3-1-2-4(3)8-5(1)6(2)8/h1-2,4-6,9H/t1-,2+,4+,5+,6-,8?/m1/s1
