19
gdb 90548	4.17067	1.04713	0.96427	1.8491	76.47	-0.2432	-0.0262	0.217	1259.3702	0.15828	-423.005505	-422.997022	-422.996078	-423.039273	31.49	
C	 0.4942478964	 1.4844911908	-0.3485315262	-0.408324
C	 0.0383554969	 0.1338038621	 0.1597883297	 0.153237
O	 0.5346093319	-0.9786782469	-0.6457421421	-0.310911
C	 0.9932384133	-1.675788077	 0.5180534081	 0.10303
C	 2.5163967668	-1.4270614587	 0.8092859378	-0.099885
C	 2.1245339389	-0.2486991406	 1.7428539422	-0.270943
C	 0.6220988142	-0.49266028	 1.4502213757	-0.096782
C	 3.1956546918	-2.5965249003	 1.4675388767	 0.127908
O	 3.455601346	-2.6795515851	 2.6422522849	-0.239753
H	 1.5841919777	 1.5593647116	-0.3851659467	 0.123296
H	 0.1107366368	 1.6484798363	-1.3604647215	 0.131458
H	 0.1087574887	 2.2834960546	 0.2941056068	 0.120879
H	-1.0601856154	 0.0993562415	 0.1758098715	 0.080724
H	 0.6084866552	-2.6976062462	 0.584681086	 0.083253
H	 3.045507156	-1.1791732284	-0.1160581501	 0.100673
H	 2.3915210207	-0.4746935802	 2.7769950572	 0.134747
H	 2.5251680832	 0.7325759897	 1.4825885762	 0.105121
H	-0.0500180348	-0.5721112928	 2.3033256791	 0.081826
H	 3.4208429857	-3.4392869803	 0.7740616247	 0.080446
55.8314	83.7459	153.3889	217.7098	254.5329	305.2579	353.5894	374.7088	508.304	633.1894	666.6198	764.4743	808.7315	831.2016	878.57	882.973	895.4572	955.4968	996.3888	1023.2132	1024.0871	1071.6108	1095.3496	1095.5461	1136.6753	1161.854	1175.4256	1203.2573	1223.9091	1265.5528	1293.9786	1311.0256	1328.9368	1351.4488	1389.1713	1409.5327	1420.5978	1477.2962	1480.5	1503.0224	1818.3127	2868.8845	2998.1608	3039.2918	3063.6871	3068.6799	3077.2076	3107.5369	3118.921	3121.7182	3132.4244
CC1OC2C(CC12)C=O	C[C@H]1O[C@H]2[C@@H](C[C@@H]12)C=O	
InChI=1S/C7H10O2/c1-4-6-2-5(3-8)7(6)9-4/h3-7H,2H2,1H3	InChI=1S/C7H10O2/c1-4-6-2-5(3-8)7(6)9-4/h3-7H,2H2,1H3/t4-,5+,6+,7+/m1/s1
