19
gdb 105548	2.51567	1.37411	1.07743	4.5202	70.8	-0.2384	0.0625	0.3009	1161.3996	0.158062	-460.100435	-460.091375	-460.090431	-460.134629	32.814	
O	 0.0608554065	 1.4881909292	-0.2006711005	-0.414515
C	 0.130020886	 0.0753537523	-0.1210766494	-0.150026
C	-1.2817087471	-0.47859151	 0.045440127	 0.236719
C	-2.1383460349	 0.1881320771	 1.1510127995	-0.112942
O	-3.0761517161	 0.6970217535	 0.1856037661	-0.270645
C	-2.3496280051	 0.1184199529	-0.9118073516	-0.101774
C	-1.2268652365	-1.9889919349	 0.0545560965	 0.003779
C	-1.1047301705	-2.785789722	 1.2825465674	-0.188243
O	-2.3486250477	-2.6920223506	 0.5849607376	-0.230895
H	 0.9529447019	 1.8317204904	-0.3014798742	 0.293031
H	 0.5844673657	-0.3520873284	-1.0308588457	 0.089333
H	 0.7469955954	-0.2467202244	 0.7338214337	 0.092433
H	-2.6161831122	-0.5050291152	 1.8520549677	 0.107519
H	-1.6330601537	 0.993228494	 1.6951604812	 0.105448
H	-1.9745676797	 0.8798981829	-1.6038718374	 0.108908
H	-2.9486894186	-0.6220777981	-1.456664289	 0.101449
H	-0.8343466211	-2.4284901476	-0.8659895555	 0.093936
H	-0.6228354943	-3.7615669587	 1.2513013608	 0.120066
H	-1.0763780679	-2.2846799024	 2.2493742058	 0.116419
83.5884	95.2875	115.628	183.5708	227.6111	245.0711	289.1553	315.6129	396.6953	469.6322	575.0903	624.0705	832.2022	863.9789	878.5191	902.7904	936.4762	956.9132	998.719	1040.2391	1053.6674	1083.6556	1097.7884	1141.1952	1160.0447	1164.4107	1173.2441	1182.0768	1186.7135	1247.4645	1279.5668	1281.6255	1319.8448	1324.6523	1389.7104	1434.8766	1459.3094	1493.975	1513.2202	1520.893	1531.2254	2954.4655	2984.1869	3015.2403	3031.8077	3073.3225	3075.7983	3080.7517	3085.9459	3171.5823	3837.9387
OCC1(COC1)C1CO1	OCC1(COC1)[C@H]1CO1	
InChI=1S/C6H10O3/c7-2-6(3-8-4-6)5-1-9-5/h5,7H,1-4H2	InChI=1S/C6H10O3/c7-2-6(3-8-4-6)5-1-9-5/h5,7H,1-4H2/t5-/m1/s1
