19
gdb 99857	1.81394	1.44328	1.2034	1.256	72.97	-0.2481	0.0266	0.2747	1177.0964	0.155277	-460.118963	-460.108436	-460.107492	-460.153875	39.327	
C	 0.0751327808	 1.5301371055	-0.0502455037	-0.41442
C	-0.0043067394	 0.0175104853	 0.1274391787	 0.093641
O	 0.6590748858	-0.4278761008	 1.3022410725	-0.437273
C	-1.4704646199	-0.5203459657	 0.0837118043	 0.125437
O	-2.0970756615	-0.1104463505	-1.1236782802	-0.463983
C	-1.4825582855	-2.070827362	 0.1458920347	-0.121832
O	-1.024525523	-2.6106397165	-1.0894221432	-0.431631
C	-2.2154248339	 0.0019667999	 1.2320694876	 0.335364
C	-2.7734143764	 0.3982606544	 2.2210136018	-0.460078
H	 1.1211151895	 1.8469009775	-0.068547071	 0.117972
H	-0.4113275855	 1.8315353388	-0.9802160903	 0.137714
H	-0.4288546245	 2.0413479422	 0.7771767395	 0.120191
H	 0.5266036798	-0.4667026902	-0.7020519412	 0.07029
H	 0.2111979518	-0.0170040606	 2.052484482	 0.283579
H	-1.8664538906	-0.8008202814	-1.76325767	 0.290595
H	-0.885216531	-2.4152401078	 0.9941665097	 0.124885
H	-2.5149094741	-2.4080536756	 0.2656275241	 0.12582
H	-0.063097252	-2.6461046398	-1.0667906791	 0.300463
H	-3.2938964004	 0.7561495672	 3.0754154639	 0.203267
75.0957	116.8152	138.7608	157.0115	228.627	233.625	283.0852	332.3222	347.1241	357.5283	380.7162	434.7211	470.7744	502.0083	522.0153	586.1126	633.6197	642.2411	677.7954	713.4499	889.1503	924.5699	972.0496	1033.9578	1071.7416	1085.5619	1113.1908	1138.1018	1161.905	1246.9482	1285.6597	1341.6579	1375.7189	1395.8936	1398.0147	1419.1782	1427.7389	1485.7501	1488.1809	1498.5186	2228.8275	3029.7376	3043.5913	3064.3775	3114.4785	3124.5824	3139.7907	3497.7519	3724.7545	3776.2039	3827.6316
CC(O)C(O)(CO)C#C	C[C@@H](O)[C@@](O)(CO)C#C	
InChI=1S/C6H10O3/c1-3-6(9,4-7)5(2)8/h1,5,7-9H,4H2,2H3	InChI=1S/C6H10O3/c1-3-6(9,4-7)5(2)8/h1,5,7-9H,4H2,2H3/t5-,6+/m1/s1
