21
gdb 106164	2.66217	1.46093	1.43647	1.4906	81.86	-0.2473	0.0707	0.3181	1061.7855	0.184018	-387.046928	-387.038907	-387.037962	-387.079349	31.897	
O	-0.0614070395	 1.4469898537	 0.038208581	-0.423552
C	 0.015116989	 0.0247688439	 0.0228703014	-0.249591
C	-1.3790224589	-0.5098056131	 0.0133022601	 0.434343
C	-2.4727436459	-0.2342945105	-1.0871517085	-0.08145
C	-2.6131196229	-1.762832337	-1.2979865888	-0.226157
C	-1.7997850356	-2.0285452577	-0.0053125976	-0.112596
C	-2.6197149862	-1.7926639688	 1.2889914225	-0.22615
C	-2.4783351243	-0.2596721202	 1.1142118559	-0.081486
C	-3.4054501484	 0.3214785059	 0.0177253884	-0.224637
H	 0.834837761	 1.7956343123	 0.0472994831	 0.287084
H	 0.5605127045	-0.3336976356	-0.8671328023	 0.083153
H	 0.5558134568	-0.3531235946	 0.9076610581	 0.083163
H	-2.3080727526	 0.3874597456	-1.9676972784	 0.064901
H	-3.6247440069	-2.1799809431	-1.3543880004	 0.086374
H	-2.0558095364	-2.087927764	-2.1822526669	 0.094401
H	-1.095380451	-2.8625302712	-0.0131251995	 0.057831
H	-3.6315957468	-2.210925398	 1.3305880956	 0.086377
H	-2.0669033842	-2.1381253921	 2.1683459866	 0.094388
H	-2.3182109005	 0.3415715344	 2.0097188592	 0.064844
H	-3.3735218132	 1.4144231261	 0.0304004037	 0.107097
H	-4.4520000379	-0.0034166359	 0.0113250367	 0.081664
89.2932	133.8564	212.0799	264.4291	295.5735	349.9074	369.9241	435.0801	604.5555	610.2474	644.7997	812.2598	821.6607	826.4729	865.5329	920.6455	937.5747	942.6839	944.8776	1014.7091	1029.2958	1037.2289	1062.8411	1064.6575	1111.5945	1121.5036	1127.7441	1134.0216	1159.7081	1205.0662	1206.156	1236.5181	1244.7322	1257.1182	1281.7594	1290.4351	1296.6004	1329.8017	1331.7884	1348.9999	1461.9034	1473.298	1477.9392	1493.495	1509.7995	2944.8105	2968.9971	3032.0304	3032.4313	3036.0892	3077.7215	3081.678	3087.8515	3091.5385	3098.3249	3104.9773	3827.8369
OCC12C3CC1CC2C3	OC[C@@]12[C@H]3C[C@@H]1C[C@@H]2C3	
InChI=1S/C8H12O/c9-4-8-5-1-6(8)3-7(8)2-5/h5-7,9H,1-4H2	InChI=1S/C8H12O/c9-4-8-5-1-6(8)3-7(8)2-5/h5-7,9H,1-4H2/t5-,6+,7-,8+
