18
gdb 68135	3.99799	1.20498	1.09392	3.4243	77.16	-0.2596	0.022	0.2816	1134.1273	0.148404	-401.953041	-401.945189	-401.944244	-401.985048	30.96	
C	-0.0985770273	 1.5151085687	 0.0102825761	-0.491483
C	 0.0815502704	 0.0249960345	 0.0347576509	 0.416292
C	 1.0346139368	-0.7685985237	-0.9021810597	-0.295223
C	 0.7030572003	-1.9025056204	 0.1271252936	 0.154257
C	 0.7040391177	-0.7737936316	 1.2139237306	-0.295181
C	-0.8167949376	-2.0360546659	-0.1105600482	-0.113372
O	-1.181738828	-0.6474189775	-0.1642314701	-0.302745
C	 1.4830973369	-3.1101643326	 0.2460449727	 0.16042
N	 2.1089227665	-4.0778093254	 0.3424750111	-0.340465
H	 0.8590611687	 2.0204580544	 0.1609748358	 0.123841
H	-0.5144729941	 1.8326539034	-0.9504930925	 0.13573
H	-0.7876898581	 1.8283711031	 0.8001448704	 0.135727
H	 0.7181365752	-0.9170144408	-1.9364238857	 0.116431
H	 2.0751998505	-0.4484932048	-0.8438621453	 0.120546
H	 1.7126020478	-0.4542160901	 1.4772794593	 0.120548
H	 0.0873126353	-0.9269037127	 2.1016472613	 0.11644
H	-1.0565174897	-2.5384479163	-1.0537495511	 0.119112
H	-1.3323639514	-2.5426882025	 0.7122334307	 0.119125
142.0282	147.0463	205.7651	269.1874	313.8505	362.2805	480.4917	494.8018	507.1383	553.5332	555.3979	619.2707	679.2249	811.2151	869.0034	893.8248	918.2324	958.5649	981.1558	1012.5784	1014.7571	1035.7548	1118.7512	1131.2716	1177.5625	1182.381	1184.1127	1205.9854	1215.1967	1255.6611	1341.3511	1369.4927	1424.1611	1473.2532	1480.8856	1493.4283	1505.6491	1533.1341	2354.3921	3036.2139	3045.6688	3076.0503	3082.8807	3082.9826	3117.165	3124.6215	3149.1726	3155.2163
CC12CC(C1)(CO2)C#N	C[C@@]12C[C@@](C1)(CO2)C#N	
InChI=1S/C7H9NO/c1-6-2-7(3-6,4-8)5-9-6/h2-3,5H2,1H3	InChI=1S/C7H9NO/c1-6-2-7(3-6,4-8)5-9-6/h2-3,5H2,1H3/t6-,7+
