17
gdb 95931	2.35521	1.45634	1.27491	2.1367	68.88	-0.2494	0.0021	0.2515	1059.7761	0.136589	-455.141441	-455.132692	-455.131748	-455.175183	32.546	
N	 0.0858756597	 1.5150323638	 0.1690301409	-0.495328
C	 0.0427012161	 0.079898399	-0.010479889	-0.035587
C	 0.620985265	-0.6246404333	 1.2204772541	-0.093808
O	-0.466177337	-0.6739464343	 2.1382291969	-0.244286
C	-1.567672115	-1.1497651013	 1.3912623775	-0.133042
C	-1.4307638158	-0.5336533407	-0.0406238938	 0.199421
O	-2.3395767182	 0.5230428436	-0.2970326442	-0.453177
C	-1.557479765	-1.5683695288	-1.0767861649	 0.232748
N	-1.6723189106	-2.3825220368	-1.890285165	-0.338197
H	-0.46184042	 1.9713166766	-0.5538762572	 0.244877
H	-0.3605776186	 1.7562575629	 1.0501498882	 0.238928
H	 0.5726533281	-0.1817563609	-0.929101472	 0.105971
H	 0.9700411024	-1.6393382277	 0.9732232533	 0.105972
H	 1.4343775571	-0.0587345462	 1.6761602229	 0.132937
H	-1.5583571696	-2.2486610799	 1.3389891402	 0.113939
H	-2.4910396782	-0.8174882483	 1.8720785825	 0.120769
H	-3.2141175304	 0.1464936222	-0.4460284604	 0.297862
39.438	146.5518	179.5266	228.1191	285.3081	311.3098	323.5859	395.1251	407.632	463.3273	515.9427	561.7125	629.6367	706.7327	789.7405	878.8907	920.304	932.9761	950.2846	970.1899	1034.81	1083.586	1112.5839	1136.0949	1171.4328	1211.8151	1263.3249	1291.3988	1304.9089	1328.6052	1360.4442	1397.8626	1423.9494	1490.9035	1508.6774	1667.9467	2342.8369	2988.2585	2996.5037	3089.7499	3101.405	3130.8824	3497.4573	3574.6566	3809.4255
NC1COCC1(O)C#N	N[C@H]1COC[C@]1(O)C#N	
InChI=1S/C5H8N2O2/c6-2-5(8)3-9-1-4(5)7/h4,8H,1,3,7H2	InChI=1S/C5H8N2O2/c6-2-5(8)3-9-1-4(5)7/h4,8H,1,3,7H2/t4-,5+/m0/s1
