17
gdb 104552	2.56148	1.23708	0.99814	2.8634	73.81	-0.2518	-0.0435	0.2083	1212.0555	0.134051	-418.011233	-418.002159	-418.001215	-418.045545	33.168	
C	-0.0449886186	 1.5774579441	 0.0423501399	-0.342414
N	-0.1931036279	 0.1318248195	-0.1047875018	-0.319216
C	 0.6356970764	-0.4790334069	-1.1294368596	 0.131637
C	 2.205500913	-0.4744094279	-0.8915187158	-0.387235
C	 2.0969135766	-1.9651930813	-0.5370971308	 0.402189
O	 2.8489887736	-2.7561949533	-0.0534394677	-0.275303
C	 0.6351881622	-2.0420315046	-1.0047177593	-0.389491
C	 0.2466740117	 0.0214979244	-2.4506005968	 0.290743
N	-0.0287256424	 0.4095726695	-3.503815588	-0.343951
H	 0.9855193338	 1.9105535357	 0.2495886609	 0.106294
H	-0.3808068863	 2.071384933	-0.8741533877	 0.156494
H	-0.6859015751	 1.9142831387	 0.860622425	 0.13361
H	-0.0208486848	-0.3338470995	 0.7800233674	 0.229331
H	 2.803778625	-0.3073641226	-1.7923107259	 0.154604
H	 2.5638489872	 0.1915072757	-0.1025370255	 0.143228
H	-0.0998948836	-2.4530269972	-0.3080261212	 0.147459
H	 0.5380167693	-2.5577971773	-1.9638204129	 0.16202
42.5894	113.6159	170.6616	177.2692	214.1493	264.4349	363.4606	407.0208	419.806	456.6682	515.2244	584.2836	620.3016	670.2947	719.7321	727.5077	873.2332	906.5901	946.2598	1014.3148	1045.6893	1088.5765	1105.2508	1133.6846	1160.978	1183.8969	1205.4002	1238.6999	1303.9596	1418.9948	1436.692	1460.2663	1484.5434	1495.0119	1520.5934	1906.0177	2357.3477	2967.0236	3063.6561	3071.4644	3081.5648	3122.6345	3125.9984	3129.0341	3527.0833
CNC1(CC(=O)C1)C#N	CNC1(CC(=O)C1)C#N	
InChI=1S/C6H8N2O/c1-8-6(4-7)2-5(9)3-6/h8H,2-3H2,1H3	InChI=1S/C6H8N2O/c1-8-6(4-7)2-5(9)3-6/h8H,2-3H2,1H3
