18
gdb 72310	2.25214	1.93981	1.53405	4.0894	76.7	-0.2128	-0.0508	0.162	969.2382	0.144957	-401.820508	-401.812178	-401.811234	-401.852761	32.195	
C	 0.0609297208	 1.4639208092	 0.093247024	-0.495182
C	-0.0436960253	-0.0304610522	-0.0751859367	 0.20941
C	 0.8361167847	-0.7615998972	-1.1266886924	-0.21342
N	 0.5163652251	-2.2151657635	-0.9089141676	-0.237761
C	-0.5276617729	-2.1133115437	-0.1992052651	 0.225916
O	-0.5160503437	-2.3646664442	 1.1810086734	-0.267258
C	-0.6555314844	-0.8691778557	 1.1894919877	-0.019104
C	-1.3414380076	-0.7749872229	-0.0972791806	 0.173481
C	-2.7353102194	-0.451636544	-0.5367428287	-0.520951
H	 1.0622752798	 1.7510551592	 0.4320703721	 0.132975
H	-0.1274485729	 1.9769056707	-0.8574344941	 0.128738
H	-0.6614093367	 1.8460940788	 0.8217423318	 0.122633
H	 0.6439808946	-0.3743509881	-2.1400065963	 0.105544
H	 1.9102550125	-0.6745726986	-0.9304010188	 0.129552
H	-0.8387291	-0.4394825925	 2.1681685184	 0.123577
H	-3.0189082402	 0.5554475186	-0.2140334755	 0.128652
H	-2.8243726	-0.4907267534	-1.6273665656	 0.134988
H	-3.4568641346	-1.1574822808	-0.1129244361	 0.138211
171.7702	176.2867	190.3288	199.2885	247.5006	281.3647	303.9727	445.1556	508.9856	564.9021	595.1575	600.1654	686.1301	729.9742	785.3155	882.5837	906.7077	920.8826	932.8098	973.2986	993.4025	1032.9808	1084.0216	1120.2418	1137.7054	1174.575	1188.823	1220.5264	1230.0526	1322.8642	1407.9597	1414.126	1459.103	1482.3267	1487.1806	1487.457	1492.8363	1501.8492	1619.5228	2976.3274	3024.8223	3032.5539	3065.4426	3085.8806	3098.3535	3100.2408	3102.4653	3182.6119
CC12CN=C3OC1C23C	C[C@@]12C[N][C]3O[C@@H]1[C@@]23C	
InChI=1S/C7H9NO/c1-6-3-8-5-7(6,2)4(6)9-5/h4H,3H2,1-2H3	InChI=1S/C7H9NO/c1-6-3-8-5-7(6,2)4(6)9-5/h4H,3H2,1-2H3/t4-,6+,7+/m0/s1
