15
gdb 116823	19.1731	0.39687	0.39073	1.7846	112.3	-0.2351	-0.0551	0.1801	2653.6171	0.109294	-383.399637	-383.389726	-383.388782	-383.435347	33.859	
C	-0.0004654854	 1.4295434474	-0.0121493458	-0.219283
O	-0.0214574017	 0.020235001	 0.0479089071	-0.229581
C	 0.6157641178	-0.5664898696	-1.067119568	-0.228119
C	 0.5725323046	-2.0163247367	-0.9655561269	 0.043653
C	 0.5569088226	-3.2273606	-0.9168271824	-0.212655
C	 0.5356871486	-4.5769526577	-0.8558352939	 0.589421
C	 0.5177329327	-5.7940059384	-0.8028967667	-0.014556
C	 0.4978171412	-7.1454223866	-0.7441632507	 0.171499
C	 0.4802583312	-8.3538317524	-0.692039253	-0.700437
H	 1.0281869263	 1.8229039164	-0.023716657	 0.108824
H	-0.5246366222	 1.8085594642	-0.9035469219	 0.108818
H	-0.5101421275	 1.7951967279	 0.8813990831	 0.13687
H	 0.1281772571	-0.2504361241	-2.0069845651	 0.125558
H	 1.6677396159	-0.2352827391	-1.1351268485	 0.125552
H	 0.4643933389	-9.414544842	-0.6455557703	 0.194435
48.6426	58.609	97.2885	133.2396	204.3987	233.4636	263.3805	336.3972	352.195	421.9374	478.0012	492.5305	556.48	567.5146	636.4145	659.3231	670.8898	955.9072	986.6257	1018.9574	1145.5187	1182.0589	1219.1986	1249.8693	1310.838	1412.4435	1477.0646	1485.6576	1490.4671	1514.0269	2155.6984	2298.4535	2342.6408	2939.4683	2956.1375	2973.6836	3019.2628	3127.007	3502.6732
COCC#CC#CC#C	COCC#CC#CC#C	
InChI=1S/C8H6O/c1-3-4-5-6-7-8-9-2/h1H,8H2,2H3	InChI=1S/C8H6O/c1-3-4-5-6-7-8-9-2/h1H,8H2,2H3
