21
gdb 120146	2.7406	1.18264	1.02202	1.2683	79.3	-0.2263	0.078	0.3043	1294.1051	0.180807	-424.175719	-424.166343	-424.165399	-424.210384	34.658	
C	 0.0485104547	 1.4228630163	 0.0697425795	-0.389339
C	 0.5471673726	-0.0108451012	 0.1031271645	-0.035803
O	 0.0807933551	-0.6192133366	 1.3031781929	-0.24801
C	 0.4479434958	-1.9524341331	 1.4154057597	 0.114541
C	 1.8576108799	-2.4049574063	 1.64020204	 0.031738
O	 2.5986625911	-1.4489649188	 2.3908413498	-0.302688
C	 1.7335999552	-1.6608029588	 3.5509474041	 0.161529
C	 1.2401565282	-0.3870195307	 4.203702701	-0.416389
C	 0.8032184337	-2.5695126378	 2.7390227027	-0.22812
H	 0.4344465867	 1.9845030396	 0.9252695591	 0.129933
H	 0.3809206707	 1.9190157302	-0.847078138	 0.115149
H	-1.0443444157	 1.4523569241	 0.1040309137	 0.124793
H	 0.1725317565	-0.5704852112	-0.7692204908	 0.084244
H	 1.6449938773	-0.0474632297	 0.0758889638	 0.109954
H	-0.1180797974	-2.6332586698	 0.7727484179	 0.087
H	 2.4095920967	-3.1142910615	 1.0324793552	 0.099901
H	 2.291665767	-2.2695066498	 4.2751728776	 0.081488
H	 0.6698670249	 0.2150131597	 3.4971967906	 0.149565
H	 0.602476884	-0.634419623	 5.0597163901	 0.113319
H	 2.0895006085	 0.1956282939	 4.5758781117	 0.119683
H	 0.3044669346	-3.4478980855	 3.1272932949	 0.097511
61.3863	77.1564	123.1301	205.511	218.4347	242.1666	265.3247	317.0933	397.1332	426.2395	575.4855	693.951	729.2251	742.9379	807.6937	822.298	864.3411	889.2847	933.0839	972.569	1013.0167	1034.0454	1052.7128	1067.3504	1083.2007	1103.3416	1132.4711	1155.9657	1161.3414	1184.1888	1229.999	1266.2175	1296.5293	1302.7301	1341.4282	1386.7123	1393.3108	1406.7036	1414.2408	1457.266	1482.6078	1484.4575	1499.2293	1503.7886	1523.5454	2973.4134	3009.0873	3027.1887	3040.3939	3044.457	3063.5013	3099.7486	3118.4349	3121.1973	3164.4987	3165.8134	3196.6183
CCOC1C2OC(C)C12	CCO[C@H]1[C@H]2O[C@@H](C)[C@@H]12	
InChI=1S/C7H12O2/c1-3-8-6-5-4(2)9-7(5)6/h4-7H,3H2,1-2H3	InChI=1S/C7H12O2/c1-3-8-6-5-4(2)9-7(5)6/h4-7H,3H2,1-2H3/t4-,5-,6+,7-/m0/s1
