22
gdb 104803	2.15981	1.56758	1.18062	1.9298	80.78	-0.244	0.0286	0.2725	1182.095	0.19384	-404.379297	-404.369644	-404.3687	-404.413874	35.788	
C	-0.0252585774	 1.4901556175	 0.3540257377	-0.401811
C	-0.1160122816	 0.0062461354	-0.0120312848	-0.217931
C	 0.6233902144	-0.4012554939	-1.2949900061	 0.367782
C	 0.6360718162	-1.9291979182	-1.4499442182	-0.21794
C	 1.5125073318	-2.465998737	-2.5848155301	-0.401804
C	 0.1308252643	 0.3533095972	-2.5684006708	-0.231389
N	 1.2761533112	 1.1469658423	-3.0375931943	-0.264866
C	 2.2130227233	 0.903506506	-2.2198165908	 0.113263
O	 2.0152986954	 0.0576659847	-1.18460106	-0.255137
H	 1.0140142067	 1.7848621003	 0.520194004	 0.130167
H	-0.4382295549	 2.1373573274	-0.4259034396	 0.125208
H	-0.5829606626	 1.6875793231	 1.2741403601	 0.114781
H	 0.2773813491	-0.5929137755	 0.8178926352	 0.103693
H	-1.1665734273	-0.2882874177	-0.133270969	 0.101484
H	 0.9671980806	-2.3693763142	-0.5017226664	 0.10368
H	-0.4036693656	-2.2513902869	-1.5922752527	 0.10149
H	 1.2044063091	-2.0864097173	-3.563943982	 0.125217
H	 2.5583219731	-2.1885195186	-2.4304548898	 0.130165
H	 1.4553910979	-3.5577430577	-2.6228721229	 0.114777
H	-0.1928024193	-0.334271917	-3.3569847524	 0.11217
H	-0.7166213935	 1.0135852343	-2.3557146478	 0.112171
H	 3.210963099	 1.3268911357	-2.2676726491	 0.13483
77.259	98.9889	99.304	180.7852	203.4203	227.4715	298.6069	312.467	382.7282	395.7032	486.0369	579.9135	584.3709	758.38	775.2199	791.2769	872.9539	895.4872	936.4977	962.5045	976.2674	990.6879	996.5693	1049.2721	1075.334	1092.8506	1128.1301	1145.6186	1187.5621	1227.9815	1229.9794	1286.3161	1312.4868	1326.1197	1350.4741	1376.1707	1383.9266	1409.3869	1414.9163	1469.3909	1482.1044	1485.3141	1496.1124	1507.059	1507.8403	1515.2582	1706.1052	3020.0361	3027.3717	3039.9087	3044.0627	3045.3901	3055.4939	3064.9232	3068.6536	3108.5315	3109.1947	3122.9442	3123.6614	3207.2358
CCC1(CC)CN=CO1	CCC1(CC)CN=CO1	
InChI=1S/C7H13NO/c1-3-7(4-2)5-8-6-9-7/h6H,3-5H2,1-2H3	InChI=1S/C7H13NO/c1-3-7(4-2)5-8-6-9-7/h6H,3-5H2,1-2H3
