18
gdb 74124	2.25629	1.60662	0.98276	5.9851	84.12	-0.2142	-0.0417	0.1726	1193.5138	0.149208	-401.982788	-401.974386	-401.973442	-402.015779	31.821	
C	 0.0203781952	 1.5037358981	 0.0080529901	-0.479366
C	-0.0709793384	 0.0044990623	-0.0572284973	 0.302343
C	-0.0826199406	-0.6579729181	-1.2195176242	-0.221385
C	-0.1151753706	-2.1286198584	-1.4571595946	 0.329488
O	 0.2858856674	-2.5445135297	-2.5399656706	-0.369396
C	-0.7186482179	-3.0485509477	-0.4919180458	-0.208508
C	-1.2813462151	-2.7810923504	 0.7110565138	 0.004643
N	-1.203146906	-1.6292834114	 1.434891009	-0.275198
C	-0.0795783496	-0.7162975164	 1.2785396508	-0.279111
H	 0.910373757	 1.8208590326	 0.5679518892	 0.130197
H	 0.0658476591	 1.9507271247	-0.9873239159	 0.134003
H	-0.8450401638	 1.9242500922	 0.5369577418	 0.130148
H	-0.0008199271	-0.0988220661	-2.1483421408	 0.100572
H	-0.8316261282	-4.0558107307	-0.8766384228	 0.099866
H	-1.8776037326	-3.5551918207	 1.1888439355	 0.115222
H	-1.6101890377	-1.6606918603	 2.3543798455	 0.251144
H	 0.8675724195	-1.2682751073	 1.3998058127	 0.124804
H	-0.1384157105	 0.0132349872	 2.0900823137	 0.110534
79.9863	153.2242	184.0856	222.7419	295.9108	347.9272	355.7246	381.4723	474.4968	494.398	528.1109	595.3647	716.1019	785.5277	820.2068	863.288	896.0673	920.8836	938.7466	981.9178	1022.7322	1063.0034	1077.1735	1123.882	1187.8035	1289.3245	1295.8517	1318.316	1346.6176	1392.3808	1409.4273	1442.1407	1476.638	1482.8407	1486.1026	1534.8718	1675.117	1698.3681	1721.9851	2963.4292	3012.1452	3057.593	3092.6882	3123.9907	3154.9657	3163.8036	3198.3662	3646.9783
CC1=CC(=O)C=CNC1	CC1=CC(=O)C=CNC1	
InChI=1S/C7H9NO/c1-6-4-7(9)2-3-8-5-6/h2-4,8H,5H2,1H3	InChI=1S/C7H9NO/c1-6-4-7(9)2-3-8-5-6/h2-4,8H,5H2,1H3
