22
gdb 120048	4.09935	0.94299	0.9135	1.5386	85.49	-0.2334	0.0943	0.3277	1414.6883	0.195222	-367.150597	-367.142144	-367.1412	-367.184203	32.78	
C	-0.0765635276	 1.5548846687	-0.0272892174	-0.383145
C	-0.0220332097	 0.0288386279	 0.0751461422	-0.159642
C	 0.8645873437	-0.4663469379	 1.2261374682	-0.20794
C	 0.8753525087	-1.983010657	 1.3362721074	 0.089779
C	 1.6115292988	-2.7419508082	 2.4625013303	-0.11836
C	 0.9817634031	-2.1803086883	 3.7654238082	-0.247646
C	-0.3271975409	-2.7780960872	 3.2526258651	-0.034993
C	 0.3901045434	-3.740390172	 2.3848685242	-0.048701
N	-0.4085154502	-2.6598979108	 1.7480167761	-0.157328
H	 0.9211794777	 1.979119063	-0.1884173308	 0.109969
H	-0.7125563041	 1.8765036674	-0.8580602749	 0.110961
H	-0.4787506455	 1.9996687577	 0.8899281576	 0.112844
H	-1.0323099759	-0.3738230641	 0.2116272674	 0.11922
H	 0.347091413	-0.3898369638	-0.8704597378	 0.091732
H	 1.8969002769	-0.1180585479	 1.0776257171	 0.090983
H	 0.5177857399	-0.0185109537	 2.1643841801	 0.097362
H	 1.1403477105	-2.4188020306	 0.3651843801	 0.074634
H	 2.6738263765	-2.9749638511	 2.4099764133	 0.068449
H	 1.330389922	-2.7362516142	 4.6398929551	 0.105017
H	 1.0530829466	-1.1066811475	 3.9631122171	 0.096205
H	-1.2735852015	-2.8892624415	 3.7649672191	 0.095462
H	 0.2734723045	-4.795643559	 2.1766065922	 0.095138
71.9688	81.1009	133.4972	231.004	248.4101	328.1317	347.3364	491.6382	584.1492	694.6042	715.8855	753.8315	783.6948	828.2192	847.2333	870.1365	903.1007	912.4543	940.4758	964.654	986.41	990.119	1015.7802	1050.3345	1058.745	1093.9721	1119.0896	1126.5053	1138.7238	1167.8722	1171.7444	1210.9953	1237.5006	1250.4294	1271.0563	1288.2609	1305.0852	1329.0608	1342.8833	1383.4823	1410.4735	1418.1544	1478.4443	1493.7097	1500.0866	1504.8768	1511.0509	3009.924	3020.6687	3027.2566	3029.6983	3050.5479	3058.1528	3072.5181	3095.5197	3099.9794	3105.0818	3127.5203	3197.3593	3211.8671
CCCC1C2CC3C2N13	CCC[C@H]1[C@H]2C[C@@H]3[C@H]2N13	
InChI=1S/C8H13N/c1-2-3-6-5-4-7-8(5)9(6)7/h5-8H,2-4H2,1H3	InChI=1S/C8H13N/c1-2-3-6-5-4-7-8(5)9(6)7/h5-8H,2-4H2,1H3/t5-,6+,7-,8+,9?/m1/s1
