18
gdb 83470	3.17404	1.11722	0.97329	3.5125	74.74	-0.2517	0.0228	0.2746	1253.1706	0.146754	-439.041322	-439.032571	-439.031627	-439.075229	32.369	
O	-0.3667019989	 1.3913229911	-0.1486920956	-0.421688
C	-0.3152463589	-0.004416517	-0.0854812872	 0.029804
C	-0.5008654281	-0.7961876897	 1.1898447651	-0.196316
C	-1.4733458188	-0.0668526401	 2.1266750741	-0.218605
C	-2.5675408657	-0.0938535437	 1.0113251901	-0.292144
C	-1.5688868279	-0.7885110514	 0.084295906	 0.391842
O	-1.9233135803	-1.8296465909	-0.7708693007	-0.225128
C	-2.1801733632	-1.4908754765	-2.0589100367	 0.097578
N	-2.5639755021	-2.3755157993	-2.8708213179	-0.4408
H	 0.4369981038	 1.7407063924	 0.2513726353	 0.291109
H	 0.3879517224	-0.4717192694	-0.776485604	 0.10053
H	 0.1983600432	-1.5742013482	 1.4717542082	 0.101436
H	-1.7480672137	-0.6590705242	 3.0006581356	 0.111653
H	-1.1523278693	 0.9254996302	 2.4519158827	 0.101263
H	-3.3952597406	-0.7580180614	 1.2663304129	 0.120094
H	-2.9574588164	 0.8670957205	 0.6680547698	 0.112552
H	-2.0099344908	-0.4274185961	-2.2674725678	 0.106436
H	-2.7034329646	-1.9620790362	-3.7906472101	 0.230385
60.2575	115.8872	125.3808	213.9553	230.0075	293.826	344.1855	374.7323	424.9638	515.6473	595.4155	738.1617	768.9665	794.5296	824.421	830.7126	931.69	944.8266	962.0724	1000.8127	1034.5926	1051.2685	1052.0308	1104.5295	1136.9004	1144.7561	1218.4995	1223.0191	1235.5942	1249.0735	1281.9065	1294.3474	1311.7646	1333.6746	1414.3915	1463.8396	1472.1723	1507.7851	1744.5026	3047.1513	3068.4999	3074.2315	3100.6061	3118.8997	3136.2017	3188.2345	3516.097	3802.3821
OC1C2CCC12OC=N	O[C@H]1[C@H]2CC[C@@]12O[CH][NH]	
InChI=1S/C6H9NO2/c7-3-9-6-2-1-4(6)5(6)8/h3-5,7-8H,1-2H2	InChI=1S/C6H9NO2/c7-3-9-6-2-1-4(6)5(6)8/h3-5,7-8H,1-2H2/t4-,5+,6+/m1/s1
