19
gdb 105894	2.26865	1.73491	1.19554	1.1362	74.61	-0.232	0.0601	0.2922	1079.3194	0.157955	-422.925992	-422.917551	-422.916606	-422.958998	32.266	
C	-0.1975110305	 1.6022995867	-0.0140067504	-0.413263
C	-0.0607254521	 0.0864766616	-0.0100149757	-0.064777
C	 1.1884900738	-0.5604473608	-0.6561202327	-0.104592
C	 2.0724403326	-0.311149409	 0.6054667685	 0.031924
O	 2.5253747513	-1.692040536	 0.7231520505	-0.33284
C	 1.1309567062	-1.7887684948	 0.300452454	 0.028663
C	 0.63919255	-0.6000822288	 1.1906421469	 0.291368
C	 0.2541081122	-0.6580224987	 2.6412405927	-0.219818
O	 0.1650747426	 0.6328575597	 3.2349696619	-0.410753
H	 0.7499390203	 2.0930209949	 0.2349325008	 0.106235
H	-0.50994164	 1.9670105689	-0.9985945573	 0.113436
H	-0.9392875935	 1.9289544532	 0.7205668499	 0.133691
H	-1.0052893913	-0.3912541896	-0.2981362698	 0.068299
H	 1.5243703438	-0.5596283836	-1.6933987373	 0.081748
H	 2.7852656402	 0.4845526976	 0.8221065492	 0.091892
H	 0.6933200287	-2.7759057169	 0.1510123497	 0.095435
H	-0.7418252221	-1.1016522949	 2.7504328766	 0.113536
H	 0.9657337132	-1.3059144937	 3.1761015406	 0.105926
H	 1.0468075645	 1.0188113242	 3.2232970415	 0.28389
87.5407	136.9201	186.9452	210.8257	240.6361	293.0238	317.9698	387.5581	521.373	592.1902	675.7401	730.1229	777.1892	810.205	825.4918	859.7296	907.0775	909.7273	927.997	1016.1236	1034.3026	1055.3732	1061.0294	1097.6523	1106.2984	1118.541	1148.0016	1163.3978	1172.8962	1208.5386	1233.5125	1272.6393	1309.4003	1337.8533	1383.8654	1408.2738	1414.7656	1420.8276	1491.7331	1494.8891	1496.0305	2989.4707	3029.0862	3031.0437	3066.8587	3093.0323	3108.767	3111.1131	3115.3919	3127.8881	3817.4921
CC1C2C3OC2C13CO	C[C@H]1[C@H]2[C@@H]3O[C@H]2[C@]13CO	
InChI=1S/C7H10O2/c1-3-4-5-7(3,2-8)6(4)9-5/h3-6,8H,2H2,1H3	InChI=1S/C7H10O2/c1-3-4-5-7(3,2-8)6(4)9-5/h3-6,8H,2H2,1H3/t3-,4-,5-,6+,7+/m0/s1
