15
gdb 17885	4.05197	2.08291	1.8677	2.4472	59.77	-0.244	0.0133	0.2572	741.5895	0.121192	-399.78125	-399.775078	-399.774134	-399.811154	24.69	
O	-0.0584495641	 1.3718398287	-0.056506779	-0.435165
C	 0.0163402245	-0.0343527631	-0.0309318528	 0.111151
C	 0.1585736982	-0.6180962588	 1.4085996115	 0.067455
C	-1.3677320325	-0.4105272755	 1.5602444914	-0.25192
C	-1.4113390791	-0.6482652971	 0.0196573642	-0.006443
N	-1.3011897934	-2.0902261349	-0.2389579371	-0.262559
C	-0.3811367844	-2.6482361165	 0.4303578672	 0.109845
O	 0.4534559275	-2.0269857428	 1.3044148759	-0.239604
H	 0.8196348802	 1.7250908988	 0.1220134526	 0.288264
H	 0.6934299395	-0.4369471132	-0.7943936036	 0.079831
H	 0.8715809832	-0.1969447478	 2.1181646399	 0.084142
H	-1.9171402361	-1.1067719835	 2.1955805698	 0.110123
H	-1.5907002562	 0.6239546303	 1.8170996286	 0.126765
H	-2.1957492743	-0.1974960857	-0.5864747649	 0.086049
H	-0.1734079931	-3.713063489	 0.3695900562	 0.132067
246.28	289.8405	305.7413	318.3976	403.7767	488.9486	501.3701	603.153	766.1277	853.6213	867.1926	922.0093	922.7432	947.8177	950.9401	973.6898	1017.9519	1107.3195	1110.5011	1140.4966	1154.3905	1157.0398	1204.7755	1244.417	1275.6095	1296.4235	1310.985	1343.6326	1379.3182	1411.4247	1473.495	1702.0614	3029.9458	3088.9608	3111.4452	3123.7492	3162.2947	3183.4749	3805.7613
OC1C2CC1N=CO2	O[C@H]1[C@H]2C[C@@H]1[N][CH]O2	
InChI=1S/C5H7NO2/c7-5-3-1-4(5)8-2-6-3/h2-5,7H,1H2	InChI=1S/C5H7NO2/c7-5-3-1-4(5)8-2-6-3/h2-5,7H,1H2/t3-,4+,5+/m0/s1
