14
gdb 21017	5.73351	1.65052	1.29203	4.7907	70.83	-0.2239	-0.0447	0.1791	899.9101	0.109531	-374.907634	-374.900655	-374.899711	-374.939278	25.036	
C	 0.0441481014	 1.4355632218	 0.0277753334	-0.317228
N	-0.0083226038	-0.015548434	 0.0091095161	-0.008441
C	-1.1473503958	-0.7290560681	-0.1954988122	 0.119456
N	-1.2363298467	-2.0138187807	-0.2194472704	-0.343411
C	-0.0486313271	-2.7380296654	-0.0155890544	 0.308902
N	 0.0376103423	-4.0148062919	-0.0086826457	-0.531657
C	 1.1573527994	-1.9316940952	 0.2013455619	 0.023758
N	 1.1883629503	-0.6440200772	 0.2151305966	-0.1999
H	 0.7152098934	 1.800278368	-0.7547434586	 0.154259
H	-0.9586028519	 1.8293851377	-0.1456741886	 0.143604
H	 0.4077946233	 1.7888738372	 0.9965959121	 0.15426
H	-2.0404580765	-0.124223343	-0.3483996371	 0.132864
H	-0.8911403822	-4.4098020371	-0.1742911397	 0.217837
H	 2.1010406641	-2.442937152	 0.3637052966	 0.145697
76.7525	97.9889	205.8655	336.3246	442.6394	442.9579	453.7581	509.1004	675.6759	760.4073	786.8161	841.3891	904.394	960.0918	971.9851	981.1432	1069.787	1120.1345	1155.4466	1249.0527	1315.373	1347.0791	1387.5617	1450.6302	1468.7748	1471.9846	1518.5319	1618.6835	1665.395	1701.5316	3047.3357	3114.0617	3136.0583	3148.126	3190.7173	3455.0962
CN1C=NC(=N)C=N1	CN1CN=C([NH])C=N1	
InChI=1S/C4H6N4/c1-8-3-6-4(5)2-7-8/h2-3,5H,1H3	InChI=1S/C4H7N4/c1-8-3-6-4(5)2-7-8/h2,5H,3H2,1H3
