20
gdb 63998	3.28218	1.03725	0.95494	5.4148	86.98	-0.2061	-0.0264	0.1796	1321.4891	0.170353	-403.188913	-403.179758	-403.178814	-403.222589	34.86	
C	 0.1328032154	 1.4312000927	 0.0415752941	-0.417451
C	-0.0822689676	-0.0888690301	-0.0189611803	 0.291377
C	-1.5722007079	-0.4335732664	-0.0161508266	-0.421292
C	 0.6890553077	-0.7143489933	-1.2263199381	-0.357795
C	 1.9564629972	-1.2562829063	-0.5983153755	 0.171539
C	 3.0966355253	-1.7670866532	-1.3090329835	 0.054313
O	 3.2062424095	-1.801068773	-2.5227823574	-0.314471
C	 1.8116936192	-1.2198470384	 0.7494734317	-0.07503
N	 0.5986346492	-0.7314984555	 1.1416093177	-0.300993
H	 1.2003677354	 1.6708780981	 0.0253407387	 0.128497
H	-0.3391989971	 1.9191340216	-0.8170535706	 0.125867
H	-0.305320459	 1.8575124699	 0.9515776336	 0.107063
H	-2.0611067187	-0.0182380154	-0.9030742928	 0.123871
H	-1.7176230457	-1.5169792163	-0.0162330258	 0.125006
H	-2.074184675	-0.0206834295	 0.8661298973	 0.108563
H	 0.1064804219	-1.5201844865	-1.6897274165	 0.114861
H	 0.886042535	 0.0221879401	-2.0105446228	 0.121788
H	 3.917451661	-2.1401163606	-0.6515991637	 0.041676
H	 2.5236660043	-1.5575862943	 1.4939897774	 0.130893
H	 0.49655608	-0.3128153538	 2.0546499233	 0.241718
70.6858	140.7169	158.3415	240.8175	275.9625	299.0049	323.3205	344.2172	392.3881	414.0805	487.3999	507.6593	538.3278	627.216	750.9955	809.0667	882.9154	908.5698	921.3874	933.3452	952.9942	979.3287	1026.727	1032.5511	1125.0351	1146.6339	1195.5484	1228.8709	1253.6077	1298.8515	1315.1703	1369.5506	1398.2707	1416.5095	1428.4995	1445.6678	1481.6263	1483.1627	1494.1516	1502.2217	1506.9465	1658.7512	1756.337	2842.8515	3025.9279	3028.9103	3034.8766	3081.5563	3095.1934	3101.5842	3111.8329	3120.3747	3206.1015	3603.5558
CC1(C)CC(C=O)=CN1	CC1(C)CC(=CN1)C=O	
InChI=1S/C7H11NO/c1-7(2)3-6(5-9)4-8-7/h4-5,8H,3H2,1-2H3	InChI=1S/C7H11NO/c1-7(2)3-6(5-9)4-8-7/h4-5,8H,3H2,1-2H3
