19
gdb 64014	2.59878	1.44453	1.14627	4.8608	78.12	-0.2336	-0.0447	0.1889	1128.5767	0.158411	-423.068604	-423.059898	-423.058954	-423.101498	33.881	
C	 0.0117137217	 1.5648937731	 0.0030058812	-0.428437
C	-0.0259940305	 0.0338494939	-0.0195451633	 0.313764
O	-1.3822620279	-0.4201666969	-0.0186489553	-0.457353
C	 0.7157171769	-0.5194335042	-1.2564972277	-0.279598
C	 0.9387115256	-2.0044536193	-1.2020425517	-0.053091
C	 0.8899792859	-2.7170410689	-0.0717187384	-0.129341
C	 0.6301183737	-2.088423691	 1.2402283677	 0.379107
O	 0.517561689	-2.7425525836	 2.2564636094	-0.333261
C	 0.579163853	-0.5631967381	 1.2566971446	-0.314977
H	 1.0363147026	 1.9434290048	 0.0718961115	 0.116296
H	-0.4338986952	 1.9755890057	-0.911493694	 0.104685
H	-0.5581712455	 1.9402195444	 0.8573666808	 0.129948
H	-1.8231089903	-0.0529289437	-0.7923188927	 0.276574
H	 0.1501778808	-0.2609883086	-2.1622667047	 0.100016
H	 1.6852199968	-0.0113326332	-1.3671382786	 0.118895
H	 1.1500687626	-2.5027078377	-2.1458733169	 0.105449
H	 1.0359908907	-3.7923916233	-0.0606301036	 0.10567
H	 1.6095498417	-0.2018373228	 1.372771705	 0.117449
H	 0.0141611285	-0.2456942908	 2.1361495366	 0.128203
93.6222	138.5497	247.6111	256.9202	283.1085	307.5888	337.6694	377.2413	404.6632	486.6044	513.0297	517.0834	589.9563	680.9105	745.3192	810.6828	875.225	904.5193	927.0506	948.5175	985.7828	994.7258	1023.4725	1104.9343	1113.4245	1125.1068	1185.1359	1206.3042	1258.5295	1282.1146	1312.0024	1354.0005	1396.7984	1405.3368	1409.7851	1445.0051	1463.3732	1491.7631	1495.1112	1690.1986	1783.0315	3000.9779	3025.4285	3031.4011	3033.9464	3093.4639	3111.0285	3120.6277	3148.9113	3191.2727	3805.3193
CC1(O)CC=CC(=O)C1	C[C@@]1(O)CC=CC(=O)C1	
InChI=1S/C7H10O2/c1-7(9)4-2-3-6(8)5-7/h2-3,9H,4-5H2,1H3	InChI=1S/C7H10O2/c1-7(9)4-2-3-6(8)5-7/h2-3,9H,4-5H2,1H3/t7-/m1/s1
