13
gdb 48220	1.58791	1.58789	1.3705	0.0037	60.71	-0.2827	-0.0881	0.1946	1053.8258	0.083058	-493.711758	-493.702034	-493.70109	-493.748858	30.849	
O	-0.6964989304	 0.7340962348	 0.9306277061	-0.23515
C	-0.0550586422	 0.9734932305	-0.0563897935	 0.135929
C	 1.2628642603	 1.762697942	-0.0027738231	-0.133489
C	 2.4377542181	 0.7730606119	 0.0466217683	 0.135743
O	 3.0304826663	 0.4361047955	-0.9424221621	-0.235313
C	 1.3856112531	 2.6505377319	-1.2514614178	 0.135827
O	 0.4238315005	 3.0195723838	-1.8693501795	-0.235197
C	 1.2825141365	 2.6537548532	 1.2493963163	 0.135844
O	 2.2901673538	 2.8612657894	 1.8695659979	-0.235264
H	-0.3537422782	 0.6330454781	-1.0647526202	 0.132765
H	 2.6805218727	 0.3874048044	 1.0536990943	 0.132771
H	 2.4192801908	 2.9328929766	-1.5229331462	 0.132754
H	 0.3071979988	 3.0973344479	 1.5212183897	 0.13278
32.9805	33.0015	74.8006	87.9704	176.7013	237.6759	237.6794	277.078	305.074	378.0805	623.9044	631.9102	631.9169	774.3914	906.2664	906.2717	925.543	1033.7853	1114.4854	1114.4897	1174.098	1396.8762	1408.2246	1408.227	1415.11	1799.0427	1799.0486	1821.8045	1843.318	2971.105	2971.1074	2972.7545	2973.544
O=CC(C=O)(C=O)C=O	O=CC(C=O)(C=O)C=O	
InChI=1S/C5H4O4/c6-1-5(2-7,3-8)4-9/h1-4H	InChI=1S/C5H4O4/c6-1-5(2-7,3-8)4-9/h1-4H
