19
gdb 119961	2.71733	0.88321	0.77467	2.0542	74.97	-0.2448	-0.0222	0.2226	1526.2865	0.156387	-460.133937	-460.123887	-460.122942	-460.169889	35.111	
C	 0.1036599251	 1.3643631736	 0.1887357255	-0.228073
O	 0.0239900278	-0.0410142122	 0.1720212165	-0.233955
C	-1.2838159071	-0.5094783235	-0.0819177858	-0.084642
C	-1.2228530197	-2.0184306991	-0.0544972988	-0.066553
C	-1.598931487	-2.7974115947	 1.1498800628	 0.077478
O	-2.042015168	-2.069745339	 2.251451622	-0.407568
C	-2.4873626573	-2.8925281499	-0.1030466043	-0.190243
C	-3.8391039178	-2.2922108019	-0.0977676553	 0.155741
O	-4.7731128495	-2.7436002855	-0.7190668564	-0.275862
H	 1.1456652108	 1.6296072134	 0.3824061026	 0.128588
H	-0.2019884372	 1.8032823854	-0.7746359757	 0.104018
H	-0.5274524262	 1.8002571595	 0.9791103887	 0.107775
H	-1.9831810114	-0.1268964004	 0.6744085732	 0.109869
H	-1.6312950348	-0.1596820555	-1.0690737226	 0.092926
H	-0.3950940164	-2.4097880014	-0.6378009637	 0.11533
H	-1.0184552382	-3.6883016138	 1.3859573278	 0.105609
H	-2.6495083812	-2.6199702798	 2.7570737905	 0.298476
H	-2.425487897	-3.8032327074	-0.6895482175	 0.108897
H	-3.9607271647	-1.3896328176	 0.5367716503	 0.08219
56.2783	82.3483	87.8452	134.0679	195.9206	220.2007	251.2757	259.6157	351.6662	390.9111	424.3395	451.404	573.3659	606.5419	776.3433	855.2763	917.6338	970.1828	989.3279	1015.8907	1041.2542	1054.4303	1135.6929	1155.6407	1163.7344	1182.1818	1189.0618	1225.7507	1241.2744	1266.3442	1293.1176	1324.6048	1363.1347	1427.9554	1445.1837	1475.2949	1481.2726	1484.9174	1502.1228	1528.3368	1803.7948	2911.0832	2957.7904	2971.3364	3013.6912	3024.8657	3110.4968	3116.2181	3161.1883	3174.0084	3809.9294
COCC1C(O)C1C=O	COC[C@H]1[C@@H](O)[C@H]1C=O	
InChI=1S/C6H10O3/c1-9-3-5-4(2-7)6(5)8/h2,4-6,8H,3H2,1H3	InChI=1S/C6H10O3/c1-9-3-5-4(2-7)6(5)8/h2,4-6,8H,3H2,1H3/t4-,5+,6-/m0/s1
