19
gdb 95125	2.55752	1.49961	1.13995	1.5953	76.29	-0.2506	-0.0288	0.2218	1116.0038	0.158846	-423.037857	-423.029396	-423.028452	-423.070861	31.924	
C	 0.025498243	 1.5842087475	-0.2942065646	-0.405395
C	 0.029940274	 0.0881201613	-0.0211919921	 0.052793
O	 0.7213873829	-0.5639292442	-1.0889888329	-0.267628
C	 1.1942882456	-1.8228315048	-0.6268327742	-0.100308
C	 1.5319011005	-1.6223359858	 0.8400604367	-0.08713
C	 2.2624114781	-0.3755174559	 1.2011348227	-0.327844
C	 0.7458294168	-0.3677012394	 1.2476127269	 0.228742
C	 0.0613864543	-0.3419076987	 2.5576841499	 0.064443
O	 0.5907057935	-0.5859862893	 3.6170628391	-0.273189
H	 1.0437890553	 1.9824135472	-0.294647152	 0.125753
H	-0.4267908901	 1.7880225079	-1.2684994491	 0.130752
H	-0.5543969393	 2.1103094793	 0.4704990681	 0.118903
H	-1.0129971519	-0.274807578	 0.0265923412	 0.069148
H	 0.4255874506	-2.6051265109	-0.7320314514	 0.098128
H	 2.0530844265	-2.0974986047	-1.2482723444	 0.116513
H	 1.5595647142	-2.4736095318	 1.5098755144	 0.113786
H	 2.7483254708	-0.3496219917	 2.1694287628	 0.142467
H	 2.7348751534	 0.1963864709	 0.4097643888	 0.130223
H	-1.0232081983	-0.090434449	 2.5097765901	 0.069844
94.9769	147.7029	194.1114	215.7666	225.2821	257.4046	328.8103	392.4418	479.7427	531.4488	635.7277	706.8619	733.007	826.8977	860.4476	890.1223	915.9854	936.3204	1005.8484	1042.8248	1069.2493	1079.2956	1084.7948	1090.6715	1121.57	1131.1576	1152.02	1233.638	1245.7376	1282.2698	1337.0674	1370.7988	1386.4711	1402.9094	1413.3588	1438.3515	1464.0277	1485.3115	1496.1988	1514.6995	1803.4333	2863.5495	2934.7107	2978.566	3044.8368	3070.2817	3117.3277	3125.8019	3138.794	3189.9814	3236.6767
CC1OCC2CC12C=O	C[C@H]1OC[C@H]2C[C@@]12C=O	
InChI=1S/C7H10O2/c1-5-7(4-8)2-6(7)3-9-5/h4-6H,2-3H2,1H3	InChI=1S/C7H10O2/c1-5-7(4-8)2-6(7)3-9-5/h4-6H,2-3H2,1H3/t5-,6-,7-/m1/s1
