19
gdb 56216	2.9079	1.24039	1.04647	5.9006	71.75	-0.2188	0.0234	0.2422	1182.4376	0.161678	-456.336103	-456.327802	-456.326858	-456.369367	31.527	
O	-1.6519379555	-0.1816633881	-1.0328278845	-0.382141
C	-0.8971655095	 0.6218341824	-0.2697048068	 0.373777
O	 0.0911336918	 0.2141635195	 0.2868097512	-0.330082
C	-1.3517699421	 2.0917161395	-0.1437399826	-0.277828
N	-2.4004010396	 2.3939351178	 0.8307825542	-0.296029
C	-3.7949613455	 2.0907935316	 0.5850486179	 0.034022
C	-4.2788903841	 2.3686295823	-0.863932936	-0.180946
N	-4.1698471659	 0.9121346035	-1.1464491504	-0.326894
H	-4.8957854129	 0.5105392513	-1.7309648979	 0.234403
H	-2.4920491192	 0.2706779853	-1.3102271924	 0.314117
C	-4.2555268071	 0.6170511377	 0.3122274959	-0.201702
H	-0.4591142236	 2.6457324996	 0.1574199963	 0.131939
H	-1.6583099684	 2.4681671326	-1.1239928593	 0.118843
H	-2.1217074006	 2.090391347	 1.7563309477	 0.233137
H	-4.3721677438	 2.590744559	 1.3661478206	 0.090924
H	-5.3116265304	 2.7377756999	-0.8745753745	 0.107995
H	-3.6686520947	 3.0135748978	-1.5010065816	 0.121464
H	-3.612012125	-0.2013882602	 0.6431727387	 0.132399
H	-5.2810358042	 0.4467255915	 0.6631737335	 0.102602
63.6507	126.8485	200.465	220.9992	238.6839	313.1759	388.8222	444.7288	490.5165	571.4464	661.655	727.9102	752.449	815.0356	837.4703	885.8603	936.574	958.0816	974.2929	982.2388	1009.0039	1017.8219	1064.4072	1107.0518	1123.3075	1184.4758	1201.4064	1237.8542	1247.091	1275.905	1313.7657	1340.7473	1363.6125	1365.0218	1401.3841	1460.8644	1474.0215	1503.1252	1510.4455	1530.062	1845.7279	3023.5092	3029.8064	3059.6618	3080.1594	3097.1805	3108.0136	3110.8198	3220.224	3522.8411	3548.3569
[O-]C(=O)CNC1C[NH2+]C1	OC(=O)CNC1CNC1	
InChI=1S/C5H10N2O2/c8-5(9)3-7-4-1-6-2-4/h4,6-7H,1-3H2,(H,8,9)	InChI=1S/C5H10N2O2/c8-5(9)3-7-4-1-6-2-4/h4,6-7H,1-3H2,(H,8,9)
