20
gdb 26369	2.51804	1.35934	1.09385	1.2507	81.44	-0.1772	0.0635	0.2408	1206.4396	0.170461	-403.187567	-403.178045	-403.1771	-403.222261	35.639	
C	 0.0003108342	 1.5595724184	 0.0198639369	-0.3806
C	-0.0184785966	 0.0259983213	 0.0359502591	 0.027683
C	 0.7767164011	-0.5508905481	 1.2138167195	-0.380563
N	-1.3913154713	-0.483526614	 0.0280916434	-0.039
C	-2.3533488244	-0.2823381692	 1.008507784	-0.116912
C	-3.5008736245	-0.9231877313	 0.6236229006	-0.150268
C	-3.2524933122	-1.5460477676	-0.6372505848	-0.319043
C	-1.9495937821	-1.2487260842	-0.9593933559	 0.370804
O	-1.1736038722	-1.5701388874	-2.0317292209	-0.444466
H	 1.0299913237	 1.9242193847	-0.0472273594	 0.115488
H	-0.560427856	 1.9458300799	-0.8354357303	 0.128014
H	-0.4437354347	 1.970773357	 0.9319721835	 0.120257
H	 0.4277472425	-0.3355218627	-0.8932898344	 0.116012
H	 0.3620997573	-0.2202819842	 2.1714174775	 0.120262
H	 0.7602573153	-1.6438442389	 1.1952494691	 0.127981
H	 1.818405106	-0.2188565762	 1.1653505476	 0.115479
H	-2.1280307551	 0.2985495561	 1.8870942382	 0.110499
H	-4.4259751016	-0.9493335517	 1.1787915177	 0.089764
H	-3.9381527961	-2.13339224	-1.228551372	 0.082094
H	-1.7021276134	-2.1079189419	-2.6281544393	 0.306515
32.6218	101.5829	190.6765	201.9196	227.8958	257.8358	277.4786	297.826	412.9547	421.6854	538.0619	614.9426	617.3154	633.3462	689.3924	710.4276	725.9073	807.6921	879.7194	912.7884	932.7246	948.6701	1035.5949	1074.6268	1100.4669	1140.989	1146.0032	1186.3496	1230.2685	1274.5718	1308.1275	1355.9428	1363.0696	1400.1907	1419.6159	1445.2978	1484.2798	1487.6716	1498.4266	1508.0745	1527.9999	1545.9326	1603.9977	3037.8583	3042.2044	3086.5989	3106.5612	3117.7973	3119.9188	3123.8087	3237.4687	3250.9386	3275.3785	3854.2674
CC(C)N1C=CC=C1O	CC(C)n1cccc1O	
InChI=1S/C7H11NO/c1-6(2)8-5-3-4-7(8)9/h3-6,9H,1-2H3	InChI=1S/C7H11NO/c1-6(2)8-5-3-4-7(8)9/h3-6,9H,1-2H3
