16
gdb 36392	6.26025	0.65737	0.63618	3.467	74.54	-0.2861	0.0181	0.3042	1664.3485	0.124515	-396.92964	-396.920656	-396.919712	-396.964885	31.227	
N	 0.1490669774	-1.0376258582	-0.919659909	-0.294911
C	 0.0555240944	 0.012131576	-0.44681799	 0.26277
C	-0.036048043	 1.3382869481	 0.1650592519	-0.347488
C	 1.3271817816	 2.0127293735	 0.2407360399	-0.02419
N	 1.7400696852	 2.7996108038	-0.9220962712	-0.312014
C	 1.5211481013	 3.4845096952	 0.3525895177	-0.024196
C	 0.3794139591	 4.4908558735	 0.4046646449	-0.347482
C	 0.8215524796	 5.8244410453	-0.0046353512	 0.262754
N	 1.191733494	 6.8729464401	-0.3175608578	-0.294908
H	-0.7286108172	 1.9444232591	-0.4251986135	 0.160592
H	-0.4619853169	 1.2281817178	 1.1694270877	 0.15709
H	 2.080947794	 1.4032474589	 0.7353899421	 0.11627
H	 2.7267752629	 2.6855067832	-1.1319370594	 0.251749
H	 2.3966444307	 3.7987364587	 0.9174636771	 0.116273
H	-0.4340557295	 4.1784037237	-0.2557060461	 0.1606
H	-0.0236043637	 4.5562250712	 1.4223113469	 0.157091
36.1649	68.3845	89.9404	156.2044	200.8343	326.172	382.6315	384.1992	416.2592	472.8576	515.7368	583.4563	812.4651	850.4071	860.6194	940.1648	944.6842	957.3434	972.0501	1029.5364	1032.9643	1123.7111	1188.707	1226.1174	1261.6514	1264.9009	1279.7315	1314.9996	1327.1502	1416.2231	1448.7711	1458.538	1484.7928	2366.2828	2366.5121	3045.9708	3049.0885	3098.6949	3106.7157	3127.3067	3137.2397	3529.7775
N#CCC1NC1CC#N	N#CC[C@H]1N[C@H]1CC#N	
InChI=1S/C6H7N3/c7-3-1-5-6(9-5)2-4-8/h5-6,9H,1-2H2	InChI=1S/C6H7N3/c7-3-1-5-6(9-5)2-4-8/h5-6,9H,1-2H2/t5-,6+
