14
gdb 132189	1.94859	1.84334	0.95288	7.5417	67.21	-0.2414	-0.0292	0.2122	1134.1496	0.101105	-478.042739	-478.035017	-478.034073	-478.075216	28.493	
C	-0.0197057213	 1.5175317531	 0.0788565914	-0.496362
C	-0.0009875065	 0.0250977471	-0.037029316	 0.382893
C	-0.0223417656	-0.6842896605	-1.1825455103	-0.298657
C	-0.0009547976	-2.1550843384	-1.1852681004	 0.391723
O	-0.019139922	-2.8160040948	-2.2003033177	-0.353646
N	 0.043374932	-2.7791920561	 0.0927381973	-0.389825
C	 0.0609722024	-2.0400592278	 1.1185071216	 0.408273
F	 0.1023137463	-2.5637839144	 2.3366150512	-0.066358
N	 0.0423256269	-0.6799358285	 1.1587834809	-0.425252
H	 0.8734067731	 1.8837098486	 0.5988031067	 0.147013
H	-0.0523164315	 1.9738514135	-0.9107818154	 0.158215
H	-0.894673311	 1.8578877552	 0.6451416364	 0.147105
H	-0.0561164817	-0.1838422016	-2.1413171156	 0.119008
H	 0.0603413267	-0.2101860252	 2.0504652297	 0.275869
118.6047	153.9512	176.3792	229.6503	287.7694	378.9736	468.2084	490.809	531.4678	569.0218	600.8216	625.3339	717.999	776.1207	882.5266	912.6382	999.1052	1016.2168	1067.2978	1099.4922	1147.159	1235.2275	1288.1543	1379.5607	1420.1478	1478.8493	1479.5135	1519.3562	1668.3903	1735.467	1795.0418	3031.4764	3084.2949	3150.213	3224.9354	3639.7707
CC1=CC(=O)N=C(F)N1	Cc1cc(=O)nc(F)[nH]1	
InChI=1S/C5H5FN2O/c1-3-2-4(9)8-5(6)7-3/h2H,1H3,(H,7,8,9)	InChI=1S/C5H5FN2O/c1-3-2-4(9)8-5(6)7-3/h2H,1H3,(H,7,8,9)
