17
gdb 49763	3.62365	1.3251	1.07362	3.7063	75.54	-0.2414	-0.0234	0.218	1108.0995	0.138236	-418.034806	-418.027363	-418.026419	-418.067352	27.857	
O	 0.0333711468	-0.0515058963	-0.2335356178	-0.313359
C	 0.0529709694	 1.1573718638	-0.1850632994	 0.144965
N	 1.1789113504	 1.9112447834	 0.0348539961	-0.065908
C	 2.4606076475	 1.3921218044	 0.2724576818	 0.077675
N	 3.3804039609	 2.2333714231	 0.5311950401	-0.254523
C	 2.775406747	 3.5696781164	 0.4884434587	 0.008671
C	 3.0137379525	 4.3412437473	-0.8409125175	-0.220964
C	 1.5225344085	 4.1104534967	-1.2413080091	-0.237043
C	 1.2681526073	 3.3698897135	 0.1019061083	-0.036737
H	-0.8460407758	 1.7891139676	-0.3153355975	 0.08508
H	 2.5881044665	 0.3178825985	 0.2246817881	 0.16785
H	 3.0075733711	 4.1166895082	 1.404875629	 0.090629
H	 3.2869923107	 5.3902132211	-0.7078595076	 0.110286
H	 3.7532681953	 3.8653914019	-1.4871340562	 0.120512
H	 0.9365683376	 5.0255519011	-1.3534540217	 0.112896
H	 1.3665676654	 3.4888134584	-2.1258139741	 0.113756
H	 0.4909525888	 3.7855179111	 0.7457172589	 0.096214
64.3914	113.4635	212.7375	237.9926	320.6457	382.562	493.6612	591.9905	693.883	737.4319	771.4762	795.7119	857.6989	881.683	902.7583	957.7563	969.1615	996.0498	1029.4752	1038.9802	1085.6844	1127.1435	1189.9909	1218.0965	1234.6177	1248.5427	1270.3486	1277.1998	1300.155	1312.9337	1322.4677	1408.6852	1436.564	1471.4273	1488.5695	1681.8589	1797.492	2954.6037	3066.6677	3073.8352	3081.119	3093.676	3116.6331	3136.7032	3234.0725
O=CN1C=NC2CCC12	O=CN1C=N[C@H]2CC[C@@H]12	
InChI=1S/C6H8N2O/c9-4-8-3-7-5-1-2-6(5)8/h3-6H,1-2H2	InChI=1S/C6H8N2O/c9-4-8-3-7-5-1-2-6(5)8/h3-6H,1-2H2/t5-,6+/m0/s1
