20
gdb 94996	2.81625	1.69653	1.32239	1.1002	77.74	-0.2302	0.0786	0.3088	1012.5234	0.173797	-403.108295	-403.100933	-403.099989	-403.139713	30.378	
O	-0.0687595322	 1.4404490952	 0.0071533125	-0.446443
C	 0.0297110669	 0.0203297366	 0.0040960324	 0.14107
C	 0.857524108	-0.4909914204	 1.1890065243	-0.261428
C	 0.714433094	-2.0168256432	 1.3957829293	-0.153576
N	-0.5828047666	-2.6192565429	 1.0911341027	-0.07371
C	-1.8890699766	-2.1233621626	 1.4826469992	-0.043839
C	-2.0417926446	-0.5923398358	 1.4986014706	-0.262694
C	-1.3858778369	-0.5377813711	 0.0790273829	-0.031305
C	-1.4188928299	-2.0875538426	 0.0470639111	-0.081649
H	 0.8231693197	 1.8003424939	 0.0554989607	 0.27702
H	 0.4842788619	-0.3252217731	-0.9412235933	 0.060109
H	 1.9187683099	-0.2508983463	 1.0448208598	 0.08367
H	 0.532498583	 0.0538592514	 2.0802032367	 0.112254
H	 1.4325690649	-2.5348107853	 0.7479728571	 0.107522
H	 0.978203132	-2.2805044002	 2.4254992686	 0.10808
H	-2.5578786517	-2.8263148552	 1.9683113925	 0.091135
H	-3.0977243951	-0.3150765673	 1.4458745911	 0.105346
H	-1.5809509739	-0.0318770886	 2.3144935117	 0.101863
H	-2.0196766387	-0.0585011964	-0.6687272383	 0.080915
H	-1.6837402242	-2.709845976	-0.8017876616	 0.08566
140.137	186.3369	282.1681	299.3551	362.0036	385.4889	469.1211	497.4995	556.5651	675.5301	695.5392	772.856	834.0364	846.7632	884.5019	892.1628	924.074	940.5776	988.2178	1000.5679	1009.4899	1058.5032	1069.8482	1083.998	1106.1784	1119.8477	1156.7025	1191.5952	1216.7781	1239.3777	1252.0843	1273.1489	1276.6173	1279.2908	1332.4111	1341.9444	1367.4743	1392.2436	1405.1603	1434.9687	1481.588	1487.9003	1516.2446	2940.7945	3021.1325	3031.6245	3065.1943	3067.7307	3088.7033	3098.9833	3116.862	3155.5117	3168.2653	3806.421
OC1CCN2C3CC1C23	O[C@H]1CCN2[C@H]3C[C@@H]1[C@@H]23	
InChI=1S/C7H11NO/c9-6-1-2-8-5-3-4(6)7(5)8/h4-7,9H,1-3H2	InChI=1S/C7H11NO/c9-6-1-2-8-5-3-4(6)7(5)8/h4-7,9H,1-3H2/t4-,5-,6-,7+,8?/m0/s1
