23
gdb 74330	3.93774	0.90806	0.77597	0.3269	93.64	-0.2246	0.0338	0.2584	1554.1558	0.206474	-351.166272	-351.157083	-351.156138	-351.200526	35.21	
C	 0.0519364549	 1.5726984333	-0.0656992506	-0.489554
C	 0.0195981698	 0.0794911379	 0.0214145013	 0.323646
C	-0.3804497678	-0.7809396514	-0.9169957026	-0.176406
C	-0.2343033838	-2.2292662924	-0.4997966101	-0.018774
C	 0.0294578186	-2.1048451537	 1.0277468898	-0.22784
C	 0.5207535735	-0.655846925	 1.2495852888	-0.300143
C	-1.4199276108	-3.1070674416	-0.8482218143	 0.036792
C	-1.5173708946	-3.7698767655	-2.1994079256	-0.277128
C	-1.259056058	-4.6021236582	-0.9669385828	-0.273449
H	 1.0732086163	 1.9556383882	 0.0605050587	 0.122292
H	-0.3278610739	 1.9317955928	-1.0261999042	 0.120746
H	-0.5486645988	 2.0292663288	 0.7317361702	 0.122014
H	-0.7468341562	-0.4999519039	-1.8996202115	 0.080869
H	 0.6494549783	-2.661772203	-0.9977957894	 0.063784
H	-0.9170600885	-2.2536649314	 1.5594161632	 0.098643
H	 0.7278203801	-2.8592432784	 1.3993004312	 0.093012
H	 1.6180595763	-0.5975527652	 1.3049732987	 0.099354
H	 0.1483192674	-0.2199010348	 2.1849114059	 0.095275
H	-2.359488554	-2.7628117276	-0.4210288068	 0.076343
H	-2.4897357587	-3.8398004041	-2.6744460373	 0.107835
H	-0.6952407543	-3.6275426585	-2.8937612815	 0.10802
H	-0.263662054	-5.0144844499	-0.8356649067	 0.107309
H	-2.0543680517	-5.2413025663	-0.5997520247	 0.107358
72.8131	81.4104	142.0822	181.307	207.2503	287.6318	311.8188	369.0162	443.1299	470.345	583.8298	641.3141	776.3036	826.9476	832.4657	845.5278	866.9252	887.4835	907.8425	925.1666	981.7285	992.0291	1004.7401	1031.6941	1051.2541	1056.3354	1075.0525	1093.9426	1139.4032	1144.704	1183.8293	1196.8569	1201.7612	1227.2208	1246.0877	1278.2499	1293.5304	1303.0638	1328.563	1361.2942	1412.6058	1419.109	1469.9678	1479.6771	1482.9743	1489.0215	1499.1423	1505.7304	1721.8618	2957.8595	2996.8632	3013.7341	3034.5648	3049.5489	3057.6713	3095.4054	3107.8879	3125.8428	3126.4475	3132.236	3178.4004	3204.0224	3219.1603
CC1=CC(CC1)C1CC1	CC1=C[C@@H](CC1)C1CC1	
InChI=1S/C9H14/c1-7-2-3-9(6-7)8-4-5-8/h6,8-9H,2-5H2,1H3	InChI=1S/C9H14/c1-7-2-3-9(6-7)8-4-5-8/h6,8-9H,2-5H2,1H3/t9-/m1/s1
