19
gdb 109594	2.11519	1.63822	1.18326	2.1548	67.1	-0.239	0.0439	0.2829	1106.9484	0.15848	-497.266769	-497.25769	-497.256746	-497.300521	34.367	
C	 0.4221790127	 0.7269849228	-0.4597807826	-0.247815
O	-0.0156196341	-0.5120322749	 0.0781793405	-0.26547
C	-1.4138529096	-0.6446718909	 0.163050652	 0.019318
C	-2.0916025929	-1.1676107356	-1.157633044	 0.117566
O	-1.3676149258	-1.0380678843	-2.343252255	-0.432566
C	-2.1147532272	-2.611562273	-0.5566540101	 0.0434
O	-1.0641224057	-3.3797421155	-1.0974855773	-0.445519
C	-1.7186232804	-2.0177767229	 0.836445939	 0.081451
O	-0.6031860158	-2.6460387565	 1.4247288795	-0.442947
H	 1.5143545162	 0.7115136964	-0.4447055842	 0.128883
H	 0.0690373178	 0.8503555235	-1.4877616572	 0.145835
H	 0.0674075866	 1.5670853971	 0.1551356424	 0.110009
H	-1.8616921584	 0.2450298616	 0.6268134097	 0.062352
H	-3.0899799923	-0.7417713038	-1.2996892755	 0.078883
H	-0.7572016049	-1.7925607109	-2.3374787577	 0.292555
H	-3.0607174641	-3.1599763807	-0.6165475511	 0.072301
H	-0.470856122	-3.5561112359	-0.3480414117	 0.292429
H	-2.5471842338	-1.9848740069	 1.5493057332	 0.084103
H	 0.1389748737	-2.0400242895	 1.2704018401	 0.305233
61.6343	137.1613	185.891	216.9371	247.0625	275.6146	295.238	357.2363	397.8779	508.5839	525.3767	560.2125	592.2724	663.7234	672.4519	788.1744	825.382	857.7877	898.0923	962.0507	1058.1822	1111.7664	1118.3783	1143.3778	1149.6962	1181.0051	1184.7921	1218.9633	1245.757	1257.245	1275.5222	1309.6975	1342.8235	1353.5279	1373.059	1405.6663	1427.8232	1451.2205	1481.2091	1485.2363	1516.8578	2997.1855	3004.6264	3042.5016	3060.3432	3073.6331	3088.0783	3130.5564	3657.0365	3694.1424	3696.0662
COC1C(O)C(O)C1O	CO[C@H]1[C@@H](O)[C@@H](O)[C@H]1O	
InChI=1S/C5H10O4/c1-9-5-3(7)2(6)4(5)8/h2-8H,1H3	InChI=1S/C5H10O4/c1-9-5-3(7)2(6)4(5)8/h2-8H,1H3/t2-,3+,4-,5+
