23
gdb 87974	3.81189	0.97776	0.88105	1.6858	86.2	-0.25	0.0831	0.3331	1440.8913	0.205336	-388.304052	-388.294613	-388.293669	-388.338372	36.174	
C	 0.2720111625	 1.4975562	-0.3971786125	-0.420993
C	 0.0860967123	 0.0427606171	-0.0486887307	-0.007217
O	 1.2717386158	-0.7440281316	 0.1273264125	-0.301296
C	 0.4125906566	-0.535673306	 1.2621720688	 0.425216
C	 1.0099103639	 0.2398017082	 2.4463595475	-0.301247
C	 0.6054494863	-0.5702697004	 3.6967049837	-0.214496
C	 0.3877577258	-2.008153793	 3.1821999868	 0.03992
C	-0.3842300402	-2.9153934456	 4.1360726355	-0.40844
C	-0.2941037238	-1.7664544209	 1.8227813707	-0.285759
H	 1.0524551697	 1.9555853278	 0.2146941288	 0.1266
H	 0.5571221482	 1.6046456507	-1.4491165946	 0.127218
H	-0.6616673754	 2.0510642602	-0.2464133326	 0.117937
H	-0.6880707083	-0.4650473822	-0.6306677863	 0.077757
H	 2.0972060091	 0.2655425283	 2.3237770808	 0.118043
H	 0.6656321058	 1.2770674603	 2.4907939862	 0.101321
H	 1.3477144296	-0.5123466216	 4.4980466975	 0.096038
H	-0.3398454911	-0.1899350299	 4.1057625889	 0.093516
H	 1.3743556572	-2.4529283044	 2.9896419207	 0.079355
H	-1.3806217236	-2.5068639269	 4.3435007971	 0.110005
H	-0.5170444424	-3.9181454465	 3.7161868536	 0.113423
H	 0.1368621465	-3.0230978643	 5.0935339717	 0.111771
H	-1.3585953047	-1.5449349198	 1.9850044007	 0.093668
H	-0.2287837599	-2.6102120899	 1.1312279753	 0.107659
44.8015	135.7691	172.5447	190.4927	231.4099	247.5652	274.9511	387.645	400.0471	442.1441	471.2698	533.3266	558.4348	739.8844	754.2855	824.0567	857.6894	888.1422	925.0152	932.7855	971.1711	977.4767	1007.3769	1025.8579	1055.7771	1100.2921	1121.7202	1148.7407	1152.3482	1191.5887	1215.1732	1235.1861	1262.4371	1281.0802	1303.9193	1317.1986	1349.4423	1361.8666	1389.0279	1406.4676	1411.7112	1466.8682	1474.4979	1483.4825	1490.6224	1496.4613	1498.9084	1503.166	1512.7597	3001.544	3013.2588	3021.7659	3027.9294	3035.2189	3052.3649	3066.5417	3081.5082	3088.7863	3095.0448	3096.5288	3097.3522	3100.4991	3128.7556
CC1OC11CCC(C)C1	C[C@H]1O[C@]21CC[C@@H](C)C2	
InChI=1S/C8H14O/c1-6-3-4-8(5-6)7(2)9-8/h6-7H,3-5H2,1-2H3	InChI=1S/C8H14O/c1-6-3-4-8(5-6)7(2)9-8/h6-7H,3-5H2,1-2H3/t6-,7-,8-/m1/s1
