19
gdb 109257	3.55222	1.11571	0.92846	2.2045	77.28	-0.2311	0.0317	0.2628	1271.7612	0.159647	-423.018637	-423.010165	-423.009221	-423.052061	31.833	
O	-0.0059704772	 1.3608664335	-0.5426147411	-0.414498
C	-0.0140018498	-0.0084111948	-0.1896185613	-0.14571
C	-1.3976014911	-0.4551623701	 0.2022628793	 0.271844
C	-2.4532082751	 0.3535878539	 0.1300246033	-0.132178
C	-3.8570207899	-0.0336641829	 0.5025451249	-0.296744
C	-4.0445157525	-1.5148294144	 0.7309282509	 0.054204
O	-3.6965809999	-2.3766146019	-0.3592928565	-0.259793
C	-2.8863519563	-2.4136597541	 0.8184812428	 0.055873
C	-1.4776688441	-1.8834892752	 0.6851649708	-0.335655
H	 0.8742618481	 1.5825368786	-0.857555218	 0.289743
H	 0.3349531452	-0.6390228234	-1.027239409	 0.095688
H	 0.6779557573	-0.2068141609	 0.6495054832	 0.08872
H	-2.3031830672	 1.3698080544	-0.218117559	 0.106967
H	-4.1646441854	 0.499298308	 1.4150091704	 0.110925
H	-4.5567376514	 0.3004896104	-0.2765367288	 0.118268
H	-4.9647932423	-1.800983305	 1.2417501478	 0.085004
H	-2.9824245586	-3.3360684932	 1.3929574374	 0.084318
H	-0.9116559574	-2.5434344366	 0.0105523836	 0.112253
H	-0.9821217023	-1.9750109063	 1.6638327495	 0.110771
68.784	102.325	203.751	218.287	234.2326	325.4059	336.1162	417.2568	446.5553	545.0912	586.1952	729.2965	786.2054	810.2013	824.0824	908.9917	937.8102	953.2297	966.8105	1030.9164	1055.0165	1070.9932	1080.1042	1091.2963	1151.0452	1157.919	1225.713	1236.939	1240.1522	1266.6611	1296.7362	1325.9668	1371.8466	1382.5509	1404.7333	1461.2436	1465.2016	1467.8673	1488.9853	1509.5496	1757.043	2931.6376	2945.9326	2991.2847	2997.3984	3013.4361	3023.3771	3092.5355	3105.9058	3191.8998	3844.5709
OCC1=CCC2OC2C1	OCC1=CC[C@H]2O[C@H]2C1	
InChI=1S/C7H10O2/c8-4-5-1-2-6-7(3-5)9-6/h1,6-8H,2-4H2	InChI=1S/C7H10O2/c8-4-5-1-2-6-7(3-5)9-6/h1,6-8H,2-4H2/t6-,7+/m1/s1
