20
gdb 91857	3.87399	1.08314	0.9617	2.6011	80.68	-0.2503	-0.0324	0.2179	1277.2996	0.171656	-403.156637	-403.148147	-403.147203	-403.189813	32.531	
C	 0.0462846681	 1.5789290979	-0.1255739234	-0.407387
C	 0.0487623213	 0.0560122286	-0.0226138288	 0.055364
C	 0.8364491756	-0.6641288046	-1.1524113581	-0.227173
C	 1.293018248	-1.9855573865	-0.54933428	-0.068087
N	 2.4834775563	-1.882696057	 0.2817759249	-0.358858
C	 1.1697341167	-1.879978832	 0.9595513571	 0.247174
C	 0.6401120231	-0.4976801152	 1.3038774599	-0.316177
C	 0.7980547716	-3.0994163285	 1.7083614489	 0.064869
O	 1.380949089	-4.155522979	 1.5983831352	-0.284056
H	 1.0665539178	 1.9752962508	-0.0687081743	 0.120966
H	-0.3900159454	 1.9135921507	-1.0726639242	 0.115234
H	-0.5342944569	 2.0320899901	 0.6850743233	 0.114632
H	-0.9891516242	-0.2985651272	-0.0812190555	 0.074058
H	 0.2184827693	-0.8141055037	-2.0421055724	 0.102438
H	 1.7148358856	-0.0800147683	-1.4481243295	 0.116139
H	 1.0830923389	-2.9306485998	-1.0409037448	 0.108451
H	 2.8722320543	-2.8190044274	 0.4143717153	 0.246661
H	 1.4619468444	 0.131463658	 1.6617599704	 0.116907
H	-0.1156995934	-0.5376974608	 2.095776981	 0.100263
H	-0.0747487603	-2.9913945562	 2.388194855	 0.078582
66.7731	131.9074	214.5186	233.8097	247.8686	310.6536	357.2368	408.4578	450.8087	459.0825	594.8497	722.4824	750.2945	801.6546	839.7653	871.0661	902.0599	931.1084	962.3204	982.1354	1019.7648	1038.9812	1080.309	1100.2747	1129.3854	1144.2346	1160.2162	1224.4467	1247.7695	1278.4209	1290.1298	1314.7847	1339.567	1355.4637	1376.0725	1411.4914	1416.4724	1430.6928	1477.8922	1486.5025	1498.3777	1498.9853	1788.207	2898.618	3007.2713	3026.861	3041.02	3046.9048	3084.9522	3093.6649	3097.1944	3099.3481	3162.6443	3442.6911
CC1CC2NC2(C1)C=O	C[C@H]1C[C@H]2N[C@]2(C1)C=O	
InChI=1S/C7H11NO/c1-5-2-6-7(3-5,4-9)8-6/h4-6,8H,2-3H2,1H3	InChI=1S/C7H11NO/c1-5-2-6-7(3-5,4-9)8-6/h4-6,8H,2-3H2,1H3/t5-,6+,7+/m0/s1
