19
gdb 99349	6.96989	0.54581	0.51255	2.0957	78.92	-0.2612	0.0142	0.2755	2086.9154	0.155838	-423.031709	-423.020999	-423.020055	-423.069524	36.413	
C	 0.1491498948	 1.3516878759	 0.0066163639	-0.23994
O	-0.0118145122	-0.0723123402	 0.0001729595	-0.234072
C	-1.2884592446	-0.5085237287	 0.011993188	 0.445503
O	-2.2442131105	 0.2253797943	 0.0268391617	-0.35334
C	-1.3357258908	-2.023257058	 0.0041212377	-0.334998
C	-2.7620200561	-2.5709608121	 0.0145616879	-0.165534
C	-2.7844917928	-4.1120532778	 0.0068593985	-0.364435
C	-4.1356614919	-4.6591917551	 0.0164733282	 0.29025
C	-5.2587055536	-5.0871758815	 0.024537386	-0.427336
H	 1.2246260669	 1.5291020934	-0.0034062894	 0.132866
H	-0.3203618867	 1.7975730681	-0.8739472242	 0.140668
H	-0.3022233637	 1.7875158006	 0.9015689189	 0.140704
H	-0.7800988275	-2.3719578004	-0.8754936659	 0.132146
H	-0.7638793746	-2.3813534992	 0.8694816907	 0.132176
H	-3.294516804	-2.2005501838	 0.8952221219	 0.127042
H	-3.310770127	-2.1916404651	-0.8522338035	 0.126963
H	-2.247544657	-4.483495304	-0.876451891	 0.128699
H	-2.2314235721	-4.4924796584	 0.8762922951	 0.128698
H	-6.2476494765	-5.473181078	 0.031562856	 0.193942
20.3793	72.3185	80.5383	101.7424	117.3915	175.4307	185.1075	288.0647	309.4089	348.0504	413.9618	547.3223	585.8969	617.0912	636.8141	698.8684	741.9688	856.2459	891.2804	966.4473	1012.9574	1039.7035	1083.6649	1084.2347	1168.8792	1179.4201	1195.7947	1214.4513	1282.2304	1291.6722	1318.5647	1363.5233	1400.3449	1459.0004	1473.5513	1474.323	1481.6265	1497.6174	1499.0233	1821.3588	2240.575	3011.772	3033.215	3039.7164	3051.3428	3062.9485	3067.3827	3110.7165	3125.372	3158.3544	3507.3402
COC(=O)CCCC#C	COC(=O)CCCC#C	
InChI=1S/C7H10O2/c1-3-4-5-6-7(8)9-2/h1H,4-6H2,2H3	InChI=1S/C7H10O2/c1-3-4-5-6-7(8)9-2/h1H,4-6H2,2H3
