18
gdb 12271	3.94057	1.41988	1.14665	2.1258	69.28	-0.2237	-0.0234	0.2003	1082.4131	0.151701	-384.938619	-384.929789	-384.928845	-384.97226	31.211	
C	 0.3042288841	 1.8216814132	-0.5666570807	-0.249266
O	 0.5945117566	 0.5656450772	 0.0248769032	-0.241599
C	 0.6755000629	-0.4729138937	-0.9013964963	 0.051132
C	 0.9611934074	-1.8809924255	-0.313638942	-0.291711
C	-0.1158102627	-2.5102666517	-1.2558788667	-0.091734
C	-1.0959856543	-3.5474824545	-0.7264809269	-0.403056
C	-0.636116691	-1.0759742516	-1.467682985	 0.35746
O	-1.7077645082	-0.6178450302	-1.7467757367	-0.305479
H	 1.0846138327	 2.1115292774	-1.2877871669	 0.103523
H	-0.6649211504	 1.8102219234	-1.0783814023	 0.140379
H	 0.2797655174	 2.5552487685	 0.2421616964	 0.128559
H	 1.3696589935	-0.2309065633	-1.7258710879	 0.082299
H	 1.9829517608	-2.249971488	-0.4027533577	 0.110189
H	 0.6466563768	-1.9150789371	 0.7325520165	 0.125804
H	 0.3519123411	-2.8623039144	-2.1842454608	 0.102685
H	-1.5660970957	-3.2035782529	 0.2002236611	 0.12554
H	-1.8913385456	-3.7299949657	-1.4550987614	 0.134948
H	-0.5945587255	-4.4984651209	-0.521679306	 0.120326
65.84	105.3942	166.764	182.1702	202.5037	235.6367	271.759	334.7918	413.2822	525.8827	581.9005	681.6723	771.7196	832.8482	916.0561	928.4277	964.6832	1042.5116	1051.1727	1094.2633	1132.8524	1146.7057	1176.8711	1186.0476	1217.9962	1246.6595	1261.0044	1261.8235	1336.6143	1377.3102	1408.5961	1479.3614	1484.7787	1488.9882	1494.2284	1495.5964	1513.5988	1877.8307	2945.684	2984.0344	3031.3853	3038.2034	3066.6242	3077.3732	3108.2612	3113.8326	3125.2973	3142.0926
COC1CC(C)C1=O	CO[C@H]1C[C@@H](C)C1=O	
InChI=1S/C6H10O2/c1-4-3-5(8-2)6(4)7/h4-5H,3H2,1-2H3	InChI=1S/C6H10O2/c1-4-3-5(8-2)6(4)7/h4-5H,3H2,1-2H3/t4-,5+/m1/s1
