16
gdb 132143	3.1622	1.31289	0.93312	6.0157	78.91	-0.1926	-0.0062	0.1864	1190.0156	0.125008	-442.073451	-442.065308	-442.064364	-442.106054	30.854	
C	 0.0121071855	 1.4970087951	-0.0903831661	-0.493623
C	-0.0286106838	 0.000551605	 0.0124811264	 0.391106
C	-1.1496171279	-0.7485638923	-0.1208656555	-0.245121
C	-1.1604752787	-2.2011917186	-0.0156403517	 0.208116
N	-2.2450313301	-2.8875445041	-0.1474903304	-0.569685
C	 0.1674207477	-2.7478820665	 0.2479569293	 0.154879
F	 0.268023499	-4.0783286433	 0.3629018893	-0.083711
C	 1.2694749045	-1.9856013945	 0.3771026739	-0.10428
N	 1.1792531563	-0.6165591771	 0.2610220684	-0.395898
H	 0.6772770965	 1.8217972163	-0.8996737089	 0.136265
H	-0.9839344821	 1.8931748483	-0.2904175552	 0.151146
H	 0.3788454131	 1.9494289282	 0.8389840875	 0.136462
H	-2.09955443	-0.2664870095	-0.316156068	 0.108122
H	-2.0333562607	-3.8810918761	-0.0386961347	 0.207549
H	 2.2469744792	-2.4061521771	 0.5724255004	 0.13803
H	 2.0108653116	-0.0606145136	 0.3599921855	 0.260643
119.0375	124.3772	195.2583	299.8777	312.9708	314.1809	386.5624	425.4275	437.3395	508.7707	588.6448	593.6975	730.5618	745.1953	764.7665	849.1839	867.3256	895.1898	952.2403	1032.7648	1065.9616	1109.9756	1185.1196	1212.3054	1283.4391	1309.5079	1373.5418	1414.0205	1428.6288	1479.8111	1484.0125	1541.2794	1635.9727	1675.2094	1722.6163	3026.1665	3075.9726	3144.9692	3210.5582	3222.414	3457.8773	3669.4764
CC1=CC(=N)C(F)=CN1	C[C@@H]1C=C([NH])C(=CN1)F	
InChI=1S/C6H7FN2/c1-4-2-6(8)5(7)3-9-4/h2-3H,1H3,(H2,8,9)	InChI=1S/C6H8FN2/c1-4-2-6(8)5(7)3-9-4/h2-4,8-9H,1H3/t4-/m1/s1
