18
gdb 110723	2.68356	1.51866	1.24134	2.5313	70.83	-0.247	0.0051	0.2521	1062.9309	0.148027	-439.078275	-439.069969	-439.069024	-439.111298	31.385	
C	-0.1771815301	 1.5278415182	-0.0756598214	-0.478106
C	-0.018813588	 0.0428835751	 0.0530611702	 0.370069
O	-0.6440805472	-0.6833163534	-1.0137725553	-0.232367
C	-1.1030906075	-1.8308014822	-0.4587464219	 0.079188
N	-0.9464131362	-2.0172875198	 0.7914368543	-0.264498
C	-0.22696953	-0.8527713529	 1.2665250092	-0.095492
C	 1.1665567901	-0.6478275966	 0.6877287089	-0.120374
C	 1.9271846876	-1.8036033889	 0.0614065407	-0.092195
O	 2.0750086697	-2.8975574565	 0.9488690397	-0.425446
H	 0.341534558	 1.9037994231	-0.9635965453	 0.136147
H	-1.2336067909	 1.8030126325	-0.1511074435	 0.133395
H	 0.2486023552	 2.0247576386	 0.8000682879	 0.130116
H	-1.5819101987	-2.5131646375	-1.1506595873	 0.147325
H	-0.4611907236	-0.5119947337	 2.2679877214	 0.104815
H	 1.7702246803	 0.0239172251	 1.2917976644	 0.100789
H	 1.4561737054	-2.1118694012	-0.882370191	 0.099804
H	 2.9403468735	-1.4741160098	-0.1888918467	 0.111493
H	 1.1830751423	-3.1897228402	 1.1744920557	 0.295336
64.6922	150.1082	192.3765	222.2071	244.8123	311.3159	350.541	445.9055	479.2366	571.2597	649.1195	693.3562	723.1277	778.9924	881.1521	906.9108	923.0749	938.7347	958.6524	1023.3416	1041.9831	1067.4119	1104.9495	1119.1964	1136.0338	1141.1841	1202.7733	1226.1516	1262.3067	1319.9181	1336.3476	1383.8745	1413.0955	1428.1283	1449.2529	1478.6588	1498.9568	1508.8816	1659.5141	3004.1007	3039.5115	3076.8913	3105.9188	3122.8991	3149.8644	3181.9753	3228.7358	3778.8357
CC12OC=NC1C2CO	C[C@]12OC=N[C@H]1[C@H]2CO	
InChI=1S/C6H9NO2/c1-6-4(2-8)5(6)7-3-9-6/h3-5,8H,2H2,1H3	InChI=1S/C6H9NO2/c1-6-4(2-8)5(6)7-3-9-6/h3-5,8H,2H2,1H3/t4-,5+,6-/m1/s1
