20
gdb 88088	3.21845	1.31168	1.21895	0.7291	78.73	-0.2284	0.0819	0.3103	1121.446	0.171389	-403.096285	-403.088193	-403.087249	-403.128713	31.881	
C	-0.1666587853	 1.4547510893	 0.0099803365	-0.318977
N	-0.0029607692	 0.0097042192	 0.0906434902	-0.122873
C	 1.3207107159	-0.531123016	-0.2185227861	-0.313051
C	 0.7942209626	-0.5527074462	 1.1746100555	 0.344851
C	 1.4090169539	 0.3079331208	 2.293957339	-0.173631
O	 1.7454707968	-0.5817688515	 3.353827147	-0.261337
C	 0.989914987	-1.7607231879	 3.2132665434	 0.120632
C	-0.5059854816	-1.6528034745	 3.1009331479	-0.337482
C	 0.3560186054	-1.8191074122	 1.8561396502	-0.152116
H	 0.7307802977	 2.0314349819	 0.2881999523	 0.10137
H	-0.4312175367	 1.7211552083	-1.0181107014	 0.12585
H	-0.9902186614	 1.767228617	 0.6599594394	 0.125048
H	 1.3367813746	-1.434552454	-0.8242177247	 0.113086
H	 2.1233362224	 0.1741800128	-0.4360054571	 0.103823
H	 2.3189867514	 0.8360386267	 1.996784407	 0.115107
H	 0.6832842199	 1.0579578383	 2.6430355444	 0.101645
H	 1.459168193	-2.6025280857	 3.7079421277	 0.102891
H	-1.0903352446	-2.5129016603	 3.4096966182	 0.114788
H	-0.9848253965	-0.6968866522	 3.2852656572	 0.118105
H	 0.2901717149	-2.7288947038	 1.2726431935	 0.092272
99.7831	154.4943	207.5397	226.916	273.0102	382.7191	393.9061	426.5163	495.8893	540.0134	689.7134	733.5726	786.5539	814.4871	845.5917	911.5764	921.0452	955.7111	984.0721	998.2399	1035.3937	1042.2539	1058.9248	1075.4486	1097.1557	1115.5695	1149.5417	1158.1625	1165.9295	1199.486	1201.7989	1238.2109	1264.6104	1306.5865	1340.9399	1392.3548	1427.6789	1450.6031	1478.2601	1491.3301	1498.038	1509.864	1524.1987	2966.5697	2987.7977	3066.7253	3076.0966	3080.8497	3102.1345	3131.7992	3163.9664	3182.3434	3190.1314	3219.0871
CN1CC11COC2CC12	CN1C[C@]21CO[C@H]1C[C@@H]21	
InChI=1S/C7H11NO/c1-8-3-7(8)4-9-6-2-5(6)7/h5-6H,2-4H2,1H3	InChI=1S/C7H11NO/c1-8-3-7(8)4-9-6-2-5(6)7/h5-6H,2-4H2,1H3/t5-,6+,7+,8?/m1/s1
