17
gdb 13274	8.90097	0.80009	0.77585	4.4854	70.7	-0.2404	0.0107	0.2511	1459.333	0.140861	-400.962049	-400.953381	-400.952436	-400.996739	29.036	
C	 0.0771243146	 1.4472402003	-0.0226813442	-0.250956
O	-0.0858931744	 0.0329761348	-0.0145730406	-0.189998
C	 0.5291933081	-0.630870103	-1.0076234383	 0.126984
N	 0.4479591136	-1.8857879307	-1.0890349029	-0.214557
C	 1.130595098	-2.5274694109	-2.1769207693	-0.003803
C	 2.0013717454	-3.7536105818	-1.8093936308	-0.079517
O	 1.3029776338	-4.58937669	-2.7536232495	-0.273345
C	 0.3115772908	-3.567642484	-2.9794461183	-0.079518
H	 1.1310988002	 1.7299710556	 0.0854361017	 0.129932
H	-0.3257577863	 1.8922294829	-0.9403618355	 0.129844
H	-0.4834174125	 1.8245656307	 0.8330177633	 0.150215
H	 1.0866375102	 0.0081739574	-1.711409147	 0.076129
H	 1.662163578	-1.8205641408	-2.8322678466	 0.063718
H	 3.0730236925	-3.6868133245	-2.0295229541	 0.098585
H	 1.854976585	-4.0814129644	-0.7726898467	 0.10885
H	-0.6494353784	-3.8057919794	-2.5068146595	 0.10885
H	 0.1605268615	-3.366256402	-4.0462115615	 0.098586
46.9524	74.5078	78.5144	151.3101	174.4739	238.1305	343.1595	416.9849	434.4215	576.6122	774.6913	884.8551	891.5027	980.0809	991.3569	1032.5455	1037.0249	1054.8315	1106.5208	1153.5856	1157.843	1177.0062	1177.9656	1206.4398	1257.024	1282.0666	1302.157	1349.4935	1382.5651	1434.2741	1486.7612	1495.6224	1500.2948	1501.4856	1529.1404	1765.037	2974.7897	2986.7016	3012.1381	3018.0382	3023.5453	3067.7895	3070.927	3081.1866	3148.5965
COC=NC1COC1	COC=NC1COC1	
InChI=1S/C5H9NO2/c1-7-4-6-5-2-8-3-5/h4-5H,2-3H2,1H3	InChI=1S/C5H9NO2/c1-7-4-6-5-2-8-3-5/h4-5H,2-3H2,1H3
