18
gdb 66496	2.9486	1.75625	1.40197	1.3652	80.32	-0.2317	-0.0071	0.2246	972.7343	0.147639	-364.735743	-364.728066	-364.727122	-364.767643	30.083	
C	 0.224238985	 1.5661384576	 0.3324435291	-0.502447
C	 0.001071682	 0.1051261746	 0.5105257221	 0.336158
C	-0.1307485146	-1.1938421997	-2.1765059992	-0.205199
N	 0.8258403797	-0.7656767023	 0.9859609865	-0.247931
C	-0.1859447706	-1.8583350975	 0.8402984062	 0.024036
C	 0.1908632465	-2.95404076	-0.20849774	-0.311724
C	-0.259456655	-2.2553277199	-1.4378941212	 0.139679
C	-1.3447293611	-1.2340859948	-1.2731047234	-0.099705
C	-1.1768578261	-0.7963889829	 0.19384337	-0.169114
H	 1.2465425604	 1.8313578988	 0.6121671578	 0.144213
H	 0.0417746413	 1.8626350891	-0.706486786	 0.138813
H	-0.4749567209	 2.1399363068	 0.9526137499	 0.136414
H	 0.5501135521	-0.5480672025	-2.7084620766	 0.13615
H	-0.4669664053	-2.2915083077	 1.8036730832	 0.085174
H	 1.2602965062	-3.1788187322	-0.1807982325	 0.130328
H	-0.3744728358	-3.8711176827	-0.0172831681	 0.115071
H	-2.3521847358	-1.3758234118	-1.6580997435	 0.079853
H	-2.120089458	-0.5909050529	 0.7073345258	 0.070232
121.0565	144.0376	169.9269	279.3191	302.126	386.6126	419.3925	554.3905	629.9091	672.1932	687.6866	745.0252	765.662	813.9068	850.8701	895.0868	959.4236	962.134	983.7807	1005.9525	1018.2074	1033.0301	1043.1472	1062.908	1117.135	1136.5702	1173.6466	1203.8558	1240.1481	1248.7391	1277.7939	1300.8829	1360.845	1405.2849	1470.7888	1472.2187	1473.1178	1678.4672	1806.8482	3030.9038	3054.3092	3072.2913	3082.6456	3086.2697	3110.8554	3116.0475	3131.4465	3249.0137
CC12C3N1C1CC3=CC21	C[C]1[N][C@@H]2C[C]3[CH][C@@H]3[C@H]12	
InChI=1S/C8H9N/c1-8-5-2-4-3-6(5)9(8)7(4)8/h2,5-7H,3H2,1H3	InChI=1S/C8H9N/c1-4-8-6-2-5(6)3-7(8)9-4/h2,6-8H,3H2,1H3/t6-,7+,8-/m0/s1
