14
gdb 124174	6.82191	0.76368	0.69003	2.3175	77.37	-0.2365	-0.0224	0.2141	1574.6398	0.100699	-432.854675	-432.84599	-432.845046	-432.890307	30.229	
C	-0.0431045686	 1.4393875279	 0.0480569836	-0.512751
C	-0.0164048441	-0.011839151	-0.0100389372	 0.321442
C	 0.0074166607	-1.2149594382	-0.0578288398	-0.112822
C	 0.0280616481	-2.6306086275	-0.1117901178	 0.199075
N	 1.1020811765	-3.286982625	-0.4962442381	-0.204129
O	 0.690242694	-4.6381113074	-0.400618498	-0.19921
C	-0.5769037562	-4.6111610687	 0.028438896	 0.463525
N	-1.1908904714	-5.8002413224	 0.2518439101	-0.610172
N	-1.0566735276	-3.4153838098	 0.2258054577	-0.379874
H	 0.7246134935	 1.8193678854	 0.7308590197	 0.159249
H	 0.1432526191	 1.8758582344	-0.9392597537	 0.158748
H	-1.0151553265	 1.8016342565	 0.3987073685	 0.158343
H	-0.8162372087	-6.602636593	-0.2285164859	 0.276866
H	-2.1945968589	-5.7578959911	 0.3252288449	 0.28171
9.8262	85.3749	93.9062	238.8888	293.8494	344.9562	364.3377	408.0817	458.9341	471.3512	483.8188	558.6434	733.1099	758.7591	787.7637	909.2646	966.9206	1020.7551	1049.6772	1053.1585	1073.7367	1141.2406	1356.1206	1410.8987	1441.1427	1472.9833	1473.1615	1539.3457	1599.8474	1687.7671	2375.819	3030.4356	3092.6659	3097.3411	3601.0967	3716.8526
CC#CC1=NOC(N)=N1	CC#Cc1noc(N)n1	
InChI=1S/C5H5N3O/c1-2-3-4-7-5(6)9-8-4/h1H3,(H2,6,7,8)	InChI=1S/C5H5N3O/c1-2-3-4-7-5(6)9-8-4/h1H3,(H2,6,7,8)
