19
gdb 38072	3.15706	1.76971	1.29532	0.3227	89.86	-0.2039	-0.0177	0.1862	1002.8893	0.162457	-348.766031	-348.759215	-348.758271	-348.796851	28.759	
C	-0.0095498434	 1.4994771327	 0.0790005417	-0.331974
C	 1.3341256424	 0.7876088079	-0.0266453361	-0.17967
C	 1.9522832449	 0.4557566109	 1.2967122016	-0.072892
C	 1.1904598592	-0.3913000258	 2.021287542	-0.231771
C	 0.0435164019	-0.8026879851	 1.226018584	 0.3452
C	-0.8738410995	-1.7769202454	 1.1849459322	-0.251826
C	-1.6155012836	-1.7522271038	-0.1399385307	-0.246108
C	-0.7191058406	-0.8510657402	-1.0531964862	-0.340433
C	 0.0358051644	-0.0041467599	-0.0404179093	 0.308359
H	-0.2716479125	 1.9677890103	 1.0229488668	 0.109803
H	-0.3457008359	 2.0312921842	-0.8067903786	 0.106993
H	 1.9559348464	 0.9650514872	-0.8975376427	 0.08684
H	 2.8937938438	 0.8820575681	 1.6250091493	 0.098621
H	 1.4136068448	-0.7442912678	 3.0201630174	 0.098213
H	-1.072027549	-2.5093926414	 1.9587660575	 0.08996
H	-1.7656066277	-2.7544765811	-0.5569681578	 0.100414
H	-2.6176915159	-1.3126314464	-0.0283414754	 0.107829
H	-0.0294061186	-1.4845856876	-1.6227547251	 0.106453
H	-1.3014399411	-0.2641411266	-1.7682947804	 0.095988
141.9624	239.3971	295.786	352.8976	399.8065	460.6336	605.3054	632.3425	690.4744	704.7212	767.2542	804.3092	825.7801	844.4911	859.0484	868.4457	905.5746	925.0486	950.4828	980.6071	989.0467	1022.7446	1051.9905	1065.1239	1071.8764	1105.1431	1136.6358	1170.286	1214.4874	1232.0332	1256.5454	1290.7801	1312.1488	1350.8722	1372.3143	1381.2797	1475.3797	1482.196	1497.1342	1598.5648	1706.078	2998.0653	3036.2312	3056.5117	3094.4871	3111.7815	3165.4291	3190.9718	3198.3299	3202.8455	3218.8285
C1C2C=CC3=CCCC123	C1[C@H]2C=CC3=CCC[C@]123	
InChI=1S/C9H10/c1-2-7-3-4-8-6-9(7,8)5-1/h2-4,8H,1,5-6H2	InChI=1S/C9H10/c1-2-7-3-4-8-6-9(7,8)5-1/h2-4,8H,1,5-6H2/t8-,9-/m1/s1
