14
gdb 27461	2.51239	1.66195	1.05895	4.5315	74.9	-0.2449	-0.0834	0.1615	1061.4827	0.102093	-436.723497	-436.716257	-436.715313	-436.755309	27.677	
O	-0.1235546464	 1.3464027073	-0.1991684501	-0.423286
C	 0.0430513703	 0.0029138171	-0.0608302645	 0.382587
C	 1.2600766878	-0.5908090309	-0.1450764889	-0.318455
C	 1.5478937919	-1.9901954676	 0.2037821304	 0.33421
O	 2.5335479685	-2.2909686153	 0.843264891	-0.326738
N	 0.7239044772	-2.9953022363	-0.3266488586	-0.232062
C	-0.5570698267	-3.0004373986	-0.2861288416	 0.002618
C	-1.4717482434	-1.9772165932	 0.1778553776	-0.099423
C	-1.2095542002	-0.6529734074	 0.239433303	-0.107958
H	 0.7327641811	 1.7619755085	-0.3520839949	 0.307522
H	 2.1422994133	 0.0245062698	-0.3083820534	 0.111986
H	-1.0412257261	-3.895322143	-0.6884811505	 0.122579
H	-2.4898764472	-2.3029923282	 0.3710931953	 0.117007
H	-2.0195037901	 0.0300707579	 0.4784236553	 0.129413
98.714	164.2712	273.6012	345.4876	372.3371	433.6358	443.5491	476.2673	533.2735	587.1271	686.6379	712.2959	806.9975	837.0877	860.9429	865.8544	960.1913	980.5651	1009.3731	1021.7982	1196.83	1220.9125	1231.6014	1260.6459	1391.019	1439.7332	1487.6598	1589.5041	1658.32	1701.1869	1768.1231	3081.061	3152.3005	3167.7609	3186.5078	3810.3709
OC1=CC(=O)N=CC=C1	Oc1cc(=O)nccc1	
InChI=1S/C6H5NO2/c8-5-2-1-3-7-6(9)4-5/h1-4,8H	InChI=1S/C6H5NO2/c8-5-2-1-3-7-6(9)4-5/h1-4,8H
