22
gdb 59600	2.65611	1.20711	1.07924	3.213	82.86	-0.2515	0.0316	0.2831	1265.4182	0.194751	-404.386756	-404.377364	-404.37642	-404.421083	35.463	
C	 0.0496173214	 1.4895082877	-0.1273531793	-0.393794
C	 0.1292063002	-0.0405588061	-0.0288234802	 0.026171
C	 0.9605009938	-0.6215404064	-1.1806945091	-0.404018
C	 0.6295150972	-0.4637746282	 1.3629080447	 0.117648
C	 0.7137981894	-1.9857285805	 1.6261998597	-0.263816
C	 2.2111720242	-2.3021923522	 1.501764424	-0.298815
C	 2.8834953627	-0.9642009128	 1.7173939133	 0.416129
N	 4.1091047977	-0.7864631808	 1.9651369214	-0.543544
O	 1.9655473929	 0.0389126108	 1.5946091198	-0.24918
H	 1.0436488173	 1.9343229738	-0.0217700516	 0.132913
H	-0.3602235745	 1.7970288054	-1.0942831707	 0.110909
H	-0.5896150406	 1.90759656	 0.6576279032	 0.109959
H	-0.8920499451	-0.4418489486	-0.103622866	 0.075485
H	 1.9987935446	-0.2792591168	-1.126831807	 0.133488
H	 0.9606004116	-1.715882652	-1.1820263492	 0.112755
H	 0.5546107571	-0.2949758332	-2.1429827954	 0.116735
H	-0.0077379913	 0.0222079487	 2.1101497532	 0.084976
H	 0.3593244839	-2.2055805523	 2.636740127	 0.11495
H	 0.0933111223	-2.5547605659	 0.9305685565	 0.111999
H	 2.5746248755	-3.0363218878	 2.2215281106	 0.135528
H	 2.472803558	-2.6679513234	 0.5041382939	 0.135293
H	 4.3135863918	 0.2106502007	 2.0528032912	 0.21823
74.3829	81.9012	130.8789	218.5277	226.7106	245.7333	274.7056	350.2111	417.1535	457.1533	513.5461	561.1077	652.0644	746.0113	762.9535	816.6105	877.2585	893.3855	917.5927	929.085	963.7788	965.8565	994.2808	1035.578	1061.6966	1095.9472	1121.4834	1136.2853	1180.0672	1203.7243	1232.7219	1280.2166	1303.8958	1324.5829	1334.7419	1349.4418	1380.2513	1399.3813	1406.44	1427.717	1469.4288	1488.1502	1495.286	1500.5368	1510.3941	1515.4538	1772.8286	3001.5506	3033.6294	3037.134	3040.3566	3067.8198	3067.9606	3100.6305	3104.276	3109.0078	3110.9134	3115.5969	3130.6135	3469.3043
CC(C)C1CCC(=N)O1	CC(C)[C@H]1CC[C]([NH])O1	
InChI=1S/C7H13NO/c1-5(2)6-3-4-7(8)9-6/h5-6,8H,3-4H2,1-2H3	InChI=1S/C7H13NO/c1-5(2)6-3-4-7(8)9-6/h5-6,8H,3-4H2,1-2H3/t6-/m1/s1
