22
gdb 10207	3.09892	1.05472	0.83937	2.631	79.47	-0.2449	-0.0184	0.2265	1447.8613	0.197424	-350.229825	-350.219383	-350.218438	-350.266242	36.151	
C	-0.0447460606	 1.5893729986	 0.0155164399	-0.381483
C	-0.021780489	 0.0587999836	 0.0102558709	-0.177504
C	 0.7160541905	-0.520872954	-1.2029166889	-0.192624
C	 0.7468970307	-2.0621091932	-1.2443105161	-0.052466
C	 1.3542577992	-2.5811118095	-2.5660610553	-0.197532
C	 1.2374295725	-4.0975717218	-2.7478439838	-0.391264
C	 1.5717746581	-2.5827342852	-0.0841742271	 0.17342
O	 1.1926510808	-3.3344471824	 0.7761655714	-0.257547
H	 0.9701734626	 2.0015865651	 0.0401742033	 0.11482
H	-0.5379621862	 1.9817327044	-0.8809527075	 0.114326
H	-0.5818408123	 1.9761315213	 0.886855597	 0.115936
H	 0.4434592243	-0.3043263652	 0.9354607939	 0.109274
H	-1.0496101511	-0.326041471	 0.0223867526	 0.102813
H	 0.2434753337	-0.1592191987	-2.1250344744	 0.098951
H	 1.7472662175	-0.1390933037	-1.2242046272	 0.09665
H	-0.2689912744	-2.4580758817	-1.1267919114	 0.088297
H	 0.8534627771	-2.0692197396	-3.3963763372	 0.10287
H	 2.4093076036	-2.2785546682	-2.6178257023	 0.100242
H	 1.6837711119	-4.4129372496	-3.6956983407	 0.11548
H	 1.7407244916	-4.6432383749	-1.9431746801	 0.130317
H	 0.1888075429	-4.4132886627	-2.7494259232	 0.122191
H	 2.6241930466	-2.2021130515	-0.0880262738	 0.064833
46.7721	74.5278	79.472	108.4296	131.8023	220.68	245.5401	272.2572	304.9169	340.1701	368.0714	460.6108	554.1725	736.0666	770.9256	842.6879	883.451	909.6586	953.8474	988.2458	1020.7704	1041.6307	1059.1443	1077.416	1134.8047	1154.4286	1179.7502	1248.1433	1266.4195	1289.4417	1324.5952	1340.1487	1359.0956	1369.4347	1393.8629	1415.0481	1417.2645	1425.3429	1478.4121	1488.722	1493.6917	1499.4163	1500.6868	1504.8737	1510.0126	1832.8713	2818.7731	3003.4714	3015.5656	3022.765	3030.2421	3036.1648	3037.3087	3044.0366	3055.6805	3063.2877	3096.1723	3104.5772	3104.7323	3108.7977
CCCC(CC)C=O	CCC[C@@H](CC)C=O	
InChI=1S/C7H14O/c1-3-5-7(4-2)6-8/h6-7H,3-5H2,1-2H3	InChI=1S/C7H14O/c1-3-5-7(4-2)6-8/h6-7H,3-5H2,1-2H3/t7-/m1/s1
