17
gdb 71524	2.51691	1.59249	1.45604	4.6093	77.9	-0.2531	0.0016	0.2547	996.0342	0.136125	-380.792863	-380.785171	-380.784227	-380.824832	29.818	
C	 0.0015568457	 1.5267700153	-0.0125402479	-0.523895
C	 0.032477633	 0.0236170058	-0.0430846057	 0.270881
C	 0.5219515805	-0.9419481877	-1.1211271528	-0.233325
N	 0.0268027796	-1.9410042901	-0.0797027878	-0.172419
C	 0.5250493774	-0.990238488	 1.0454633056	-0.057961
C	-0.8210276428	-1.0632860241	 1.769939459	-0.307043
C	-1.1468917225	-0.9793408756	 0.2730401226	 0.22418
C	-2.420991378	-1.0595303704	-0.3926081512	 0.17179
N	-3.4467966382	-1.0893246044	-0.926268999	-0.346486
H	 1.0131154652	 1.93441538	-0.1134518626	 0.131626
H	-0.6041269473	 1.9201641201	-0.8355099608	 0.140581
H	-0.420440714	 1.9000212587	 0.9265216241	 0.128791
H	-0.0268942069	-0.9873516028	-2.0668101797	 0.120983
H	 1.6006520661	-1.0058012788	-1.2954080991	 0.10819
H	 1.5361416648	-1.0988200059	 1.4370523935	 0.097964
H	-1.0599719147	-2.014828198	 2.2492716837	 0.129009
H	-1.1107781679	-0.208269904	 2.3833570782	 0.117134
123.242	146.7725	201.3419	253.7516	300.1174	404.7968	436.8718	525.6995	535.5048	570.7016	639.7002	711.1312	784.7175	875.8149	880.7516	894.2845	926.0647	940.5364	997.9418	1020.905	1043.5167	1092.467	1135.7041	1151.7456	1160.2778	1187.2633	1225.2934	1233.014	1259.3244	1281.5035	1335.8916	1411.2988	1484.1284	1486.8692	1493.2827	1520.4308	2346.6891	3031.6524	3045.3972	3073.7483	3101.4397	3104.2107	3107.1076	3125.8396	3143.2527
CC12CN3C1CC23C#N	C[C@@]12CN3[C@@H]1C[C@@]23C#N	
InChI=1S/C7H8N2/c1-6-4-9-5(6)2-7(6,9)3-8/h5H,2,4H2,1H3	InChI=1S/C7H8N2/c1-6-4-9-5(6)2-7(6,9)3-8/h5H,2,4H2,1H3/t5-,6-,7-/m1/s1
