18
gdb 68426	2.63559	1.60873	1.25316	2.7411	75.27	-0.2643	0.0285	0.2928	1037.0722	0.148592	-401.955718	-401.947882	-401.946938	-401.987897	30.571	
C	-0.0768056884	 1.5097655041	-0.0037339215	-0.50495
C	 0.0302283386	 0.0138025745	-0.0380273671	 0.40781
C	 0.7236636807	-0.8056875676	-1.1529630913	-0.281654
C	-0.3097130337	-1.8235653823	-0.6334729698	 0.076668
C	 0.2054224008	-2.202847954	 0.7690111697	-0.244419
C	 0.4688623189	-0.7393229162	 1.2726801867	-0.181889
C	 1.8375168768	-0.4676263168	 1.6845942527	 0.272714
N	 2.9289303396	-0.2341631169	 1.9884944208	-0.33946
O	-1.2045893937	-0.7062636028	-0.3347614094	-0.324625
H	 0.897471501	 1.9530933987	 0.2235540308	 0.146877
H	-0.4206919265	 1.8929556505	-0.9677225061	 0.134579
H	-0.7870992954	 1.8264091637	 0.767125007	 0.133903
H	 0.4627821957	-0.4252790185	-2.1407756277	 0.117836
H	 1.7903291972	-1.0274603098	-1.0732175601	 0.118775
H	-0.7559127367	-2.600578645	-1.2523284545	 0.09031
H	-0.5591040685	-2.7030443398	 1.3650032572	 0.123041
H	 1.1064782689	-2.8191825268	 0.7501133758	 0.126033
H	-0.2075590253	-0.466508185	 2.0864709467	 0.128452
115.2859	136.8327	200.2489	271.9473	301.9715	364.8052	422.6584	502.1982	529.7347	574.453	627.6428	710.6727	802.1815	828.7988	855.5305	884.5645	903.4746	945.0359	980.9986	1006.3405	1024.085	1051.2209	1077.7747	1128.1595	1144.5833	1179.1585	1213.6691	1227.5772	1281.1568	1284.4619	1305.3963	1327.1672	1348.0062	1418.2241	1480.1184	1482.3064	1490.7461	1497.285	2350.0815	3042.1686	3075.4348	3081.1287	3085.1438	3112.9686	3125.8953	3136.2698	3138.6263	3150.3691
CC12CC(CC1C#N)O2	C[C@@]12C[C@@H](C[C@H]1C#N)O2	
InChI=1S/C7H9NO/c1-7-3-6(9-7)2-5(7)4-8/h5-6H,2-3H2,1H3	InChI=1S/C7H9NO/c1-7-3-6(9-7)2-5(7)4-8/h5-6H,2-3H2,1H3/t5-,6+,7+/m0/s1
