17
gdb 34745	4.01134	1.33114	1.19203	3.778	75.69	-0.2581	0.0276	0.2857	1042.9421	0.139033	-380.849439	-380.842605	-380.841661	-380.880724	27.16	
N	-0.0107191472	-1.126440188	-0.0622565839	-0.323349
C	-0.023065367	 0.0294909591	-0.0288359758	 0.264678
C	-0.0356883399	 1.4810110989	 0.0242415388	-0.193019
C	-0.2006077946	 2.0165558665	 1.4698258209	-0.03827
C	 1.2510566713	 2.3538933143	 1.5554995689	-0.050478
C	 1.4060844411	 2.1225385319	 0.0250471142	-0.057206
C	 1.3270624545	 3.5285377514	-0.5722252402	-0.235349
C	 0.2952819703	 4.2148941608	 0.3628329676	-0.165589
N	 0.2459344893	 3.4040427402	 1.6023719056	-0.097839
H	-0.7336005322	 1.8617668868	-0.7297184605	 0.11637
H	-0.8909839561	 1.6198882159	 2.2046453376	 0.115716
H	 1.9813317051	 2.2303540951	 2.3447654845	 0.105564
H	 2.2056641385	 1.482798445	-0.3419488686	 0.102161
H	 2.3030575578	 4.0214490663	-0.5126247053	 0.112596
H	 1.0151901151	 3.5254826831	-1.6208508546	 0.111431
H	 0.5930979607	 5.2316555765	 0.6300293776	 0.117907
H	-0.703580647	 4.2711394363	-0.0802737366	 0.114675
125.1211	152.842	238.7778	337.395	419.0539	495.8003	540.8176	647.1245	709.3988	776.0202	815.9411	843.2553	866.0591	876.262	916.8605	925.025	967.2963	971.4661	1007.2845	1034.2304	1044.2624	1074.6614	1102.9785	1162.4914	1185.6891	1210.4296	1222.9308	1236.8574	1252.4397	1267.8265	1318.0161	1325.7301	1350.0826	1363.7059	1489.7129	1512.7065	2353.2315	3046.9115	3048.5884	3060.9979	3091.3349	3109.2569	3145.484	3184.2146	3201.8698
N#CC1C2C3C1CCN23	N#C[C@H]1[C@H]2[C@H]3[C@@H]1CCN23	
InChI=1S/C7H8N2/c8-3-5-4-1-2-9-6(4)7(5)9/h4-7H,1-2H2	InChI=1S/C7H8N2/c8-3-5-4-1-2-9-6(4)7(5)9/h4-7H,1-2H2/t4-,5-,6-,7+,9?/m1/s1
