20
gdb 74693	2.81008	1.63577	1.24785	1.7914	79.59	-0.2394	0.0267	0.2661	1079.1594	0.171417	-403.168237	-403.160072	-403.159128	-403.200383	32.554	
C	-0.0175952272	 1.4127538057	 0.1238035481	-0.466176
C	-0.0132732559	-0.0741421392	-0.0429573456	 0.384469
N	-0.0077028377	-0.6576112773	-1.1734099794	-0.301679
C	-0.0042988553	-2.1187554215	-1.0758072523	 0.00278
C	-1.0761655342	-2.562841638	-0.036135789	-0.269688
C	-0.0117143363	-2.1759441671	 1.0255908366	 0.42046
C	-0.0152632745	-2.747125247	 2.4193894748	-0.47492
C	 1.062324293	-2.5573485568	-0.0284397921	-0.26969
O	-0.015900487	-0.7293246901	 1.1539396552	-0.303517
H	 0.8609354358	 1.7353796562	 0.6919023122	 0.1371
H	-0.0158159497	 1.8882675947	-0.8563325372	 0.146205
H	-0.9011729974	 1.7308633633	 0.6865835913	 0.13709
H	 0.0004251472	-2.5663143091	-2.0690403092	 0.072525
H	-2.0277108184	-2.0269049483	-0.025745053	 0.104536
H	-1.242953409	-3.642401096	-0.0457294648	 0.101397
H	-0.0122899654	-3.8398782673	 2.3786191023	 0.117773
H	 0.868152723	-2.4156942073	 2.9741374774	 0.1277
H	-0.9043599912	-2.4202790478	 2.967745636	 0.1277
H	 1.2347194573	-3.6360371032	-0.0368091487	 0.101399
H	 2.0110060329	-2.0165334638	-0.0112128626	 0.104535
140.6016	168.1432	210.1919	251.4788	252.7578	374.09	399.6036	453.575	463.5496	473.6031	620.9892	653.7919	659.4108	835.8246	860.926	862.9699	866.0208	899.8092	950.8336	985.357	1001.9333	1009.8383	1046.4027	1055.4319	1070.8373	1133.2277	1163.0086	1198.6519	1219.4731	1231.4951	1261.9847	1287.4004	1315.1385	1351.6562	1407.3996	1415.7083	1465.5973	1475.9758	1476.0235	1479.0862	1491.2242	1496.1297	1722.7875	3038.9983	3046.5672	3062.0587	3068.5613	3102.7835	3109.8894	3111.8691	3119.4692	3127.4039	3131.1076	3164.7594
CC1=NC2CC(C)(C2)O1	C[C]1[N][C@@H]2C[C@@](C)(C2)O1	
InChI=1S/C7H11NO/c1-5-8-6-3-7(2,4-6)9-5/h6H,3-4H2,1-2H3	InChI=1S/C7H11NO/c1-5-8-6-3-7(2,4-6)9-5/h6H,3-4H2,1-2H3/t6-,7+
