18
gdb 121669	3.8612	0.82223	0.7673	0.521	70.22	-0.264	-0.0071	0.2569	1513.0612	0.147215	-476.220537	-476.211153	-476.210209	-476.256585	32.828	
O	 0.2266780344	 1.0017190187	-0.5338013395	-0.417864
C	-0.3086137078	-0.1958931799	-0.0064581205	-0.063705
C	-1.7585815764	-0.0375123971	 0.4253881873	-0.096327
O	-2.5627296336	 0.3454666303	-0.7159652472	-0.262662
C	-3.178470735	-0.6476580605	-1.3886759	 0.466984
O	-3.1176973107	-1.8190181474	-1.0951947612	-0.384135
C	-3.9585415205	-0.1152903288	-2.541178537	-0.130615
C	-3.8389857139	-0.8745878565	-3.8261138694	-0.220034
N	-5.0616563473	-0.9508355492	-3.0383761237	-0.301607
H	-0.3593441027	 1.2816566543	-1.2454693489	 0.288665
H	-0.23414888	-1.0291473359	-0.7219235076	 0.107848
H	 0.2966292803	-0.4553179119	 0.8687264803	 0.118409
H	-2.151734163	-0.9619336623	 0.8529220707	 0.139069
H	-1.860831458	 0.7887525894	 1.1323279713	 0.125651
H	-4.1242493208	 0.9557603301	-2.5541634034	 0.11332
H	-3.9176320661	-0.3272543908	-4.760702694	 0.130694
H	-3.1681818663	-1.7287090599	-3.8322252018	 0.135208
H	-5.0505800726	-1.8170960524	-2.5000731154	 0.251103
28.7543	56.1261	96.1135	129.7704	211.2874	265.8189	309.7649	355.2949	370.5031	434.4681	532.1436	679.7947	770.2629	818.3617	847.144	864.5435	900.1688	939.7859	981.7274	1017.8008	1028.9963	1089.6742	1117.177	1131.9157	1139.6002	1177.2055	1209.4702	1229.0018	1284.7746	1299.5017	1316.934	1383.8769	1391.6812	1421.8436	1427.4903	1473.6828	1498.1969	1500.5138	1799.0396	2995.1201	3071.9578	3084.9549	3116.709	3141.6495	3182.3698	3210.7942	3476.8137	3809.2258
OCCOC(=O)C1CN1	OCCOC(=O)[C@H]1CN1	
InChI=1S/C5H9NO3/c7-1-2-9-5(8)4-3-6-4/h4,6-7H,1-3H2	InChI=1S/C5H9NO3/c7-1-2-9-5(8)4-3-6-4/h4,6-7H,1-3H2/t4-/m1/s1
