21
gdb 95163	2.70682	1.39801	1.07999	1.0706	78.48	-0.2405	0.0828	0.3233	1186.7227	0.182878	-424.222392	-424.213761	-424.212817	-424.255209	34.328	
C	 0.0843113908	 1.5417909136	 0.0937418178	-0.404494
C	 0.0101863144	 0.0243941671	 0.0220573884	 0.149425
C	 0.6135608004	-0.541954252	-1.2760648965	-0.303029
C	 0.941059865	-2.0315183028	-1.1735383595	 0.397283
O	 0.5086471534	-2.820582812	-2.252679737	-0.470607
C	 2.2053346848	-2.460173282	-0.4660475921	-0.344103
C	 0.8504979611	-2.7021081811	 0.1676413703	-0.072284
C	 0.4284039155	-1.8676870621	 1.3591260727	-0.111619
O	 0.6906986664	-0.4891210823	 1.1634176695	-0.258759
H	 1.1288803854	 1.8688868432	 0.0913377211	 0.123142
H	-0.4217386447	 1.9926958647	-0.7654423666	 0.114004
H	-0.3873984359	 1.9073263494	 1.00964197	 0.121711
H	-1.0455324362	-0.2931407714	 0.0795682963	 0.065911
H	-0.1092992561	-0.4118796342	-2.0880052113	 0.105469
H	 1.5112780975	 0.0311649054	-1.5416963983	 0.094818
H	 1.0666552466	-2.6123387931	-3.0106103219	 0.278351
H	 2.7272900408	-3.322495009	-0.8656085428	 0.107003
H	 2.8330009209	-1.6866530969	-0.0344206741	 0.116623
H	 0.4866077995	-3.7245419743	 0.1580838264	 0.096159
H	-0.6466025813	-2.0197895652	 1.5580160847	 0.088351
H	 0.9815598016	-2.157393235	 2.2591128429	 0.106643
84.2471	181.4394	232.6404	261.9576	289.175	320.4645	360.1772	385.9881	407.8765	450.158	489.4333	528.1549	663.2252	739.906	787.65	838.7129	897.61	919.304	933.0958	945.6474	951.991	1030.7345	1036.9591	1062.4091	1106.5196	1109.23	1133.3494	1151.7767	1165.2951	1201.9616	1260.637	1274.5412	1295.0625	1331.2306	1340.0537	1381.329	1388.8634	1404.8122	1413.1068	1418.4259	1475.0367	1483.1252	1491.9647	1497.8873	1503.0043	2947.8361	2956.8871	3020.3562	3041.3017	3063.4583	3080.177	3114.1849	3121.6095	3126.6423	3165.9477	3221.6025	3787.9866
CC1CC2(O)CC2CO1	C[C@H]1C[C@@]2(O)C[C@H]2CO1	
InChI=1S/C7H12O2/c1-5-2-7(8)3-6(7)4-9-5/h5-6,8H,2-4H2,1H3	InChI=1S/C7H12O2/c1-5-2-7(8)3-6(7)4-9-5/h5-6,8H,2-4H2,1H3/t5-,6-,7+/m0/s1
