21
gdb 102296	2.10473	1.17153	0.83824	2.4227	81.54	-0.2566	0.0356	0.2922	1444.7794	0.178346	-424.182408	-424.171439	-424.170495	-424.21936	39.533	
C	 0.6085442667	 1.4040197204	 0.4067591569	-0.39104
C	-0.0146723799	 0.0665642533	 0.0041187949	 0.151489
C	 0.4908872928	-0.4220884698	-1.3488524023	-0.390768
O	 0.2844832286	-0.9775160245	 0.9365519873	-0.26945
C	-0.448433158	-0.9996074555	 2.1562731892	-0.114242
C	-0.5567850924	-2.490623213	 2.528740869	-0.055806
O	 0.7089487829	-3.0994103139	 2.6031596549	-0.415546
C	 0.1907809849	-0.2183895481	 3.2218425204	 0.37705
C	 0.6909986865	 0.4017073878	 4.121769677	-0.478798
H	 1.6964839657	 1.3080183434	 0.4784206127	 0.124183
H	 0.3752797741	 2.166367608	-0.3438749177	 0.110709
H	 0.2345078424	 1.7482800659	 1.3731125481	 0.130877
H	-1.1103373068	 0.1804941905	-0.0420793931	 0.069765
H	 1.5760000174	-0.563630918	-1.319849115	 0.125129
H	 0.0262830609	-1.3757726443	-1.612656963	 0.119678
H	 0.260562138	 0.3079082496	-2.1302702579	 0.116799
H	-1.4656825914	-0.6109823735	 1.9881658591	 0.094151
H	-1.0320921516	-2.5967038823	 3.5082333509	 0.115487
H	-1.1992749961	-2.9711877456	 1.7737477937	 0.087086
H	 1.1690065595	-2.8528534238	 1.7915223518	 0.29318
H	 1.1432125159	 0.9499301733	 4.9110953934	 0.200066
23.5488	82.826	99.8968	140.9198	184.365	217.585	246.3801	271.5037	292.1188	349.1399	382.8585	436.6724	445.3264	482.5699	593.0594	626.8456	668.6848	681.7422	825.4549	878.7729	903.6884	929.9704	944.159	973.3549	1051.0415	1081.3847	1116.0312	1147.8735	1165.3321	1198.6782	1238.7433	1292.433	1338.085	1366.5764	1387.8158	1398.1604	1403.1108	1417.3843	1435.0275	1479.7174	1485.9873	1493.9613	1495.8188	1510.1701	2231.6902	2964.7476	2971.3552	2984.784	3039.1828	3044.1023	3090.9169	3108.7357	3117.3246	3123.3056	3132.4895	3501.9281	3789.3723
CC(C)OC(CO)C#C	CC(C)O[C@@H](CO)C#C	
InChI=1S/C7H12O2/c1-4-7(5-8)9-6(2)3/h1,6-8H,5H2,2-3H3	InChI=1S/C7H12O2/c1-4-7(5-8)9-6(2)3/h1,6-8H,5H2,2-3H3/t7-/m1/s1
