16
gdb 20162	3.73111	2.82311	2.1168	1.0296	69.92	-0.222	-0.0098	0.2122	687.4937	0.132609	-346.537608	-346.532061	-346.531117	-346.566799	23.478	
C	-0.1249711192	 1.3722730885	 0.1132334684	-0.302019
C	 1.4523200197	 1.338118639	-0.002144375	 0.12969
O	 2.1403158001	 0.4034004158	 0.876915929	-0.323276
C	 2.2109072509	-0.6506503515	-0.1534584403	 0.121252
C	 1.3195912417	-1.8703793321	 0.1688901071	-0.265771
C	-0.0513862538	-1.1972005904	 0.2076199677	-0.120937
C	-0.0138578242	-0.0359213935	-0.4549623181	 0.126036
C	 1.3656490961	 0.2338127914	-1.0689492066	-0.134074
H	-0.5923646212	 1.484817673	 1.0936775102	 0.113808
H	-0.4953614984	 2.1428211727	-0.573503453	 0.107359
H	 1.9830135627	 2.2909337787	-0.0856285864	 0.080918
H	 3.2539806086	-0.8754015696	-0.3999423321	 0.068595
H	 1.4533682144	-2.6619129572	-0.5824802099	 0.105559
H	 1.5597333768	-2.3076388082	 1.1441246856	 0.117549
H	-0.7911071514	-1.4522703077	 0.9589018572	 0.095334
H	 1.5036605573	 0.357625911	-2.1409191638	 0.079978
272.5895	327.231	377.4654	407.0099	601.4828	693.3464	729.4145	797.9412	806.2326	823.0801	860.5669	875.8333	904.0281	927.8926	940.1615	965.2203	970.3436	1010.3157	1024.1933	1053.605	1102.7063	1145.2001	1162.4216	1195.5618	1220.574	1249.4343	1261.007	1275.8097	1297.6407	1319.8741	1342.5818	1459.8634	1471.47	1662.5139	3006.3792	3034.5249	3054.8046	3067.6133	3073.859	3116.8287	3134.9358	3184.9626
C1C2OC3CC=C1C23	C1[C@H]2O[C@H]3C[CH][C]1[C@@H]23	
InChI=1S/C7H8O/c1-2-5-7-4(1)3-6(7)8-5/h1,5-7H,2-3H2	InChI=1S/C7H8O/c1-2-5-7-4(1)3-6(7)8-5/h1,5-7H,2-3H2/t5-,6+,7+/m0/s1
