21
gdb 47920	1.94648	1.71502	1.15842	3.4682	78.1	-0.2289	-0.0229	0.2061	1150.0083	0.183851	-424.238961	-424.230371	-424.229427	-424.272215	33.058	
O	 0.052322646	-0.0359789347	 0.2922094206	-0.30449
C	 0.0035547943	 1.1585634405	 0.114171389	 0.367777
C	-1.3251103909	 1.9017144936	 0.0491359221	-0.288742
C	-1.4175784777	 3.0605889078	-0.9547739287	-0.214581
C	-1.2949762583	 2.6639273019	-2.4343510211	-0.189337
C	-0.0246966449	 1.8965328014	-2.8508292332	-0.21844
C	 1.3260786104	 2.4783593214	-2.3802090668	-0.069644
O	 1.9178419765	 1.7860840773	-1.2896322606	-0.238655
C	 1.3177122783	 1.9632555246	-0.0216904368	-0.151685
H	-2.1077430305	 1.1549228832	-0.1194995919	 0.12288
H	-1.4901619892	 2.3045584488	 1.0600832916	 0.124163
H	-2.3832907443	 3.5585927666	-0.8117942292	 0.104626
H	-0.6637501039	 3.8180742666	-0.7115542196	 0.102365
H	-2.166060565	 2.0586478502	-2.7159088703	 0.102751
H	-1.3635579628	 3.5827557369	-3.0306441329	 0.098643
H	-0.0643672425	 0.8555840672	-2.5121101917	 0.13422
H	-0.0181541797	 1.8462802821	-3.945667046	 0.099922
H	 2.0650728431	 2.3843374416	-3.1807751757	 0.113666
H	 1.2352640747	 3.5520531342	-2.146844531	 0.087976
H	 1.1711853659	 3.0309165606	 0.2007142455	 0.087825
H	 2.0210465906	 1.5442295382	 0.7030803167	 0.128761
71.958	129.8631	190.6539	241.3324	245.2385	322.1109	357.5239	398.0552	480.2073	491.4389	519.0668	605.6376	743.4282	766.6125	794.7232	851.6912	906.2571	923.5224	963.6601	991.0298	1016.7778	1047.2038	1102.4044	1110.9006	1130.4391	1161.4414	1199.1233	1226.1739	1245.7241	1290.3185	1307.6926	1329.6129	1356.038	1366.8489	1384.8512	1390.9256	1398.378	1414.9615	1452.5741	1474.6257	1481.9307	1488.1303	1493.5938	1503.5971	1807.9976	2970.9238	2992.0464	3004.4846	3017.2147	3034.2927	3040.1453	3051.0847	3065.8521	3080.1934	3085.7771	3086.7743	3096.2505
O=C1CCCCCOC1	O=C1CCCCCOC1	
InChI=1S/C7H12O2/c8-7-4-2-1-3-5-9-6-7/h1-6H2	InChI=1S/C7H12O2/c8-7-4-2-1-3-5-9-6-7/h1-6H2
