20
gdb 75943	2.24661	1.54233	1.15269	3.1447	82.71	-0.2442	0.0111	0.2553	1163.0636	0.170991	-403.177014	-403.167775	-403.166831	-403.211318	34.11	
C	 0.2678635892	 1.5719337644	-0.0489323915	-0.398013
C	 0.0808226169	 0.0365782128	 0.0258209848	-0.158092
C	 0.6141795752	-0.6110323315	-1.2367883916	 0.3841
N	-0.1342992031	-0.7384961263	-2.2519415703	-0.521122
O	 1.9115871558	-1.0172710137	-1.2636293768	-0.254108
C	 2.7345725343	-0.9726411092	-0.091097032	-0.122964
C	 1.9725795407	-0.9833925978	 1.1974738726	-0.183427
C	 0.7209648732	-0.5372827794	 1.2716439862	 0.311759
C	-0.094615414	-0.5421793254	 2.5318834398	-0.486205
H	 1.3272215979	 1.8379337885	-0.119843731	 0.121245
H	-0.2490703663	 1.9675397089	-0.9264832878	 0.141379
H	-0.1403132044	 2.0546873561	 0.8440437665	 0.117649
H	-0.9938663786	-0.1660701987	 0.0292723062	 0.108004
H	 0.3860704513	-1.1697482288	-3.0189048961	 0.213978
H	 3.3880016844	-1.8490241987	-0.1625756319	 0.125352
H	 3.3847753722	-0.0866735453	-0.1614142757	 0.119539
H	 2.493672065	-1.3686559176	 2.0693620271	 0.092882
H	 0.4802293136	-0.9161273665	 3.3830803274	 0.123926
H	-0.4535871672	 0.4648511602	 2.7779792414	 0.129771
H	-0.9867288762	-1.170584952	 2.4168916428	 0.134348
54.9784	82.3107	177.068	214.0013	220.1585	243.716	270.6674	305.2271	439.5794	482.2442	536.9951	572.6682	687.0776	716.1553	785.5291	811.8412	875.8148	902.1341	909.611	992.1133	1026.1144	1044.3083	1055.3089	1069.0163	1091.1423	1115.8828	1171.2901	1192.4262	1253.9784	1310.1242	1320.7852	1322.4919	1370.993	1403.009	1413.4321	1435.2309	1476.8018	1488.5559	1492.7775	1498.6684	1507.8945	1739.8811	1754.0467	2981.5609	3020.8597	3039.9613	3058.9851	3068.7065	3070.875	3110.5364	3114.7649	3127.6731	3167.9972	3460.2838
CC1C(=N)OCC=C1C	C[C@H]1[C]([NH])OCC=C1C	
InChI=1S/C7H11NO/c1-5-3-4-9-7(8)6(5)2/h3,6,8H,4H2,1-2H3	InChI=1S/C7H11NO/c1-5-3-4-9-7(8)6(5)2/h3,6,8H,4H2,1-2H3/t6-/m1/s1
