20
gdb 52439	5.90193	0.47533	0.46357	3.6041	83.64	-0.252	0.0303	0.2824	2298.3401	0.168973	-403.146338	-403.135671	-403.134726	-403.184695	36.811	
O	 0.3702991371	 0.8060795125	-1.541484607	-0.322242
C	 0.1831007154	 1.4994417299	-0.5642273602	 0.153655
N	 1.068481142	 1.6793600763	 0.4525981843	-0.272422
C	 2.394556218	 1.0815545421	 0.4618116497	-0.172066
C	 3.5054116607	 2.0657008078	 0.0742067085	-0.183516
C	 4.8921392909	 1.4178792922	 0.10547687	-0.17179
C	 6.0107723131	 2.4017346992	-0.29293529	-0.357291
C	 7.3381644716	 1.8004028132	-0.2555667998	 0.290368
C	 8.4208927032	 1.2799551517	-0.2154057163	-0.432917
H	-0.7565017403	 2.0622781398	-0.3931610134	 0.072924
H	 0.8157689819	 2.3162028917	 1.1914281366	 0.245917
H	 2.58997684	 0.6634951897	 1.4567784188	 0.10786
H	 2.3614708446	 0.2520131585	-0.2487389124	 0.150657
H	 3.2931018783	 2.4546499424	-0.9290905554	 0.11767
H	 3.4839318018	 2.9277949065	 0.7553793089	 0.089241
H	 5.1034252453	 1.027655254	 1.1083286809	 0.109241
H	 4.9178587197	 0.5570304037	-0.5725872064	 0.119065
H	 5.8127432075	 2.7889176756	-1.3010488828	 0.133393
H	 5.9858762718	 3.2728165434	 0.3753833113	 0.127993
H	 9.3822404376	 0.8305080098	-0.1856161553	 0.194259
15.4922	42.6136	88.047	103.8895	126.9896	172.2477	260.0209	271.3697	349.1983	357.1824	431.0106	526.0217	550.6784	617.7787	637.9427	725.5381	745.3565	810.7636	920.4385	945.1811	980.2666	1029.5623	1031.2282	1055.3376	1074.4386	1126.7911	1189.7832	1220.4881	1257.467	1289.5715	1325.3081	1338.3611	1339.2835	1388.6658	1408.0145	1431.364	1472.5592	1477.5719	1488.2249	1506.6562	1534.7469	1806.8471	2239.4203	2931.6095	3010.7188	3014.2579	3030.9277	3035.3224	3042.0941	3056.7596	3082.5633	3115.4197	3507.6499	3633.6909
O=CNCCCCC#C	O=CNCCCCC#C	
InChI=1S/C7H11NO/c1-2-3-4-5-6-8-7-9/h1,7H,3-6H2,(H,8,9)	InChI=1S/C7H11NO/c1-2-3-4-5-6-8-7-9/h1,7H,3-6H2,(H,8,9)
