18
gdb 26943	3.00019	1.34375	1.00689	1.2802	80.39	-0.2065	0.024	0.2305	1193.2905	0.147797	-401.945684	-401.937401	-401.936457	-401.979086	30.985	
C	 0.0509938976	 1.4720566693	-0.1470413833	-0.495846
C	-0.0188586578	-0.0035000226	-0.0136890898	 0.300884
C	-1.0662455077	-0.8613440406	 0.1555955866	 0.160275
C	-0.5020747323	-2.1888487923	 0.2179521649	-0.26639
C	 0.8363094932	-2.0257316963	 0.0821664538	-0.016995
O	 1.1489434528	-0.7096804368	-0.0595023739	-0.181667
N	-2.4132967879	-0.4323543663	 0.2417490847	-0.180232
C	-3.4482115619	-1.2948440518	-0.3407442962	-0.225132
C	-3.314957491	-1.1717719607	 1.1329479883	-0.225129
H	 0.4900291056	 1.7727728889	-1.1054160741	 0.132164
H	-0.9623394702	 1.873612642	-0.085168841	 0.150913
H	 0.6569404287	 1.9229887841	 0.6473524998	 0.132172
H	-1.0202816122	-3.1266292492	 0.345649451	 0.106672
H	 1.6696806889	-2.7086293219	 0.0650556196	 0.130568
H	-4.2415827396	-0.7723701697	-0.8678301073	 0.119847
H	-3.13022954	-2.2271925013	-0.8009325815	 0.11903
H	-2.9064284272	-2.0203493725	 1.6762415993	 0.119024
H	-4.0094523591	-0.5579336324	 1.6996243591	 0.11984
50.7016	147.9582	170.2666	180.2508	236.4758	277.3658	443.2226	474.4993	561.1109	622.3925	698.0167	707.5791	741.5419	814.188	820.6172	857.0696	896.5746	921.016	963.2457	1034.6808	1064.9027	1068.0763	1107.949	1122.0235	1130.1484	1159.8586	1177.9991	1181.9482	1233.8839	1253.8789	1344.2841	1401.7674	1444.5661	1479.0899	1486.0458	1490.8051	1515.738	1553.1846	1671.4165	3027.6654	3076.2771	3104.4753	3107.9065	3138.2578	3184.803	3199.9368	3248.8695	3280.8928
CC1=C(C=CO1)N1CC1	Cc1c(cco1)N1CC1	
InChI=1S/C7H9NO/c1-6-7(2-5-9-6)8-3-4-8/h2,5H,3-4H2,1H3	InChI=1S/C7H9NO/c1-6-7(2-5-9-6)8-3-4-8/h2,5H,3-4H2,1H3
