21
gdb 83922	2.34424	1.41393	1.17334	3.2442	83.73	-0.2419	-0.0111	0.2308	1170.8172	0.183233	-387.113304	-387.104418	-387.103474	-387.146887	33.459	
C	 0.00789378	 1.5884365258	 0.124806539	-0.426087
C	 0.1186923066	 0.0792817004	 0.0872239063	-0.061546
C	 1.3107272382	-0.7131885013	-0.342964633	-0.098789
C	 2.7025695615	-0.0962331941	-0.3960781324	-0.221898
C	 2.9776264328	 0.5274518954	 0.9985140514	-0.228982
C	 1.9538078528	-0.0990429923	 1.9811105458	-0.290683
C	 0.8688601072	-0.7477452951	 1.1340929696	 0.242396
C	 0.1893471372	-1.9493270447	 1.6541642304	 0.083297
O	 0.3954275601	-2.4534559659	 2.7330282019	-0.275387
H	 0.9397451426	 2.0808235369	 0.4037086877	 0.127333
H	-0.2837387522	 1.9675579136	-0.8608206467	 0.124733
H	-0.7609207265	 1.9008157558	 0.8392477178	 0.127012
H	-0.819485996	-0.3920212492	-0.2052588457	 0.090255
H	 1.1260844504	-1.5787071755	-0.9720315079	 0.090567
H	 3.4230900735	-0.8921248955	-0.6118463977	 0.109334
H	 2.8004831111	 0.6411392163	-1.2004866688	 0.104834
H	 4.0059755053	 0.3416524492	 1.320231149	 0.104584
H	 2.8655571844	 1.614023971	 0.9622513345	 0.109336
H	 2.406733343	-0.8849840368	 2.5922094484	 0.126024
H	 1.5529289518	 0.6428606371	 2.6794044904	 0.104881
H	-0.5588712839	-2.3888727809	 0.9514075001	 0.058787
96.7075	131.9993	141.8946	165.2744	219.0359	244.1124	282.1665	412.3819	476.3545	511.8516	643.7259	659.3293	736.8787	743.3519	815.2377	838.246	890.8559	914.4849	965.5857	1000.187	1014.7561	1043.4028	1057.7732	1071.4572	1090.6824	1130.1841	1135.3527	1186.2257	1223.5875	1244.6782	1268.7125	1288.2519	1319.4815	1329.8574	1353.2381	1374.2117	1418.3853	1431.2906	1452.3816	1487.9068	1490.7436	1498.0388	1507.7593	1520.7304	1804.151	2840.2444	3039.3179	3040.5349	3050.7907	3064.7816	3070.2333	3086.192	3093.9879	3103.1976	3106.2245	3147.735	3154.0033
CC1C2CCCC12C=O	C[C@H]1[C@H]2CCC[C@@]12C=O	
InChI=1S/C8H12O/c1-6-7-3-2-4-8(6,7)5-9/h5-7H,2-4H2,1H3	InChI=1S/C8H12O/c1-6-7-3-2-4-8(6,7)5-9/h5-7H,2-4H2,1H3/t6-,7+,8+/m0/s1
