17
gdb 23261	2.83243	1.50359	1.05933	1.4562	80.25	-0.2228	-0.0335	0.1893	1118.2093	0.136438	-417.950477	-417.94245	-417.941506	-417.982774	31.192	
C	 0.0491067474	 1.5398147965	-0.0579282511	-0.489027
C	-0.0260662732	 0.0442308584	-0.0136534755	 0.220628
C	-0.1157959165	-0.774599598	-1.0803470586	-0.13245
C	-0.0650246872	-2.2123073354	-0.6901474875	-0.097718
N	 1.2369379119	-2.568307132	-0.0518969475	-0.334932
C	 0.0538446082	-2.2228158495	 0.7872592786	-0.138686
C	 0.0298398255	-0.7882921312	 1.215243402	 0.38156
N	 0.0172518441	-0.5101196059	 2.4639601337	-0.25453
O	-0.0184651673	 0.8666269333	 2.7206681092	-0.389767
H	 0.979317329	 1.9008323236	 0.3915017969	 0.141888
H	 0.0023464777	 1.8932062122	-1.0919232834	 0.112151
H	-0.7648059213	 1.9966146068	 0.5115087014	 0.140505
H	-0.1609680111	-0.4383197006	-2.1098029099	 0.10389
H	-0.6051706317	-2.9714246867	-1.2445729374	 0.094871
H	 1.3233434213	-3.5850459654	-0.0428440706	 0.230118
H	-0.3823457139	-2.9802000117	 1.4259985509	 0.10311
H	-0.021754993	 0.8909935456	 3.6832611489	 0.308388
107.308	189.5076	208.4995	240.0844	305.474	342.0568	404.0107	431.9313	475.2486	486.3143	644.1116	718.8736	743.832	760.8156	816.0864	845.9717	873.5843	904.1756	962.7881	988.5779	1024.4249	1052.4754	1070.7474	1111.1912	1126.5875	1172.4252	1233.1034	1272.4204	1337.7483	1351.2237	1385.3888	1415.5354	1423.563	1474.5134	1483.3853	1661.6491	1723.6225	3042.4352	3105.9454	3118.9579	3174.2444	3198.0899	3200.8631	3460.4431	3819.0088
CC1=CC2NC2C1=NO	CC1=C[C@H]2N[C@H]2C1=NO	
InChI=1S/C6H8N2O/c1-3-2-4-6(7-4)5(3)8-9/h2,4,6-7,9H,1H3	InChI=1S/C6H8N2O/c1-3-2-4-6(7-4)5(3)8-9/h2,4,6-7,9H,1H3/t4-,6-/m1/s1
