20
gdb 102993	1.94643	1.38441	1.11688	4.7389	80.38	-0.2707	0.0331	0.3038	1232.3646	0.168908	-403.154964	-403.144624	-403.143679	-403.190107	37.299	
C	-0.347414407	 1.5369506638	-0.1137945065	-0.392716
C	 0.1620920269	 0.1049168424	 0.084398406	-0.252052
C	 0.754357275	-0.4926513447	-1.190280393	 0.112145
C	 1.8844658049	 0.2317599771	-1.7189010736	 0.25583
N	 2.7962173358	 0.8087446107	-2.1381610374	-0.358344
C	 0.7753961889	-2.0119631071	-1.4417198645	-0.103884
C	 0.2699340091	-2.9990091628	-0.4130253565	-0.4308
C	-0.161783691	-1.1306900912	-2.2269545757	 0.056564
O	-1.5190438018	-1.0964668283	-1.9091180768	-0.415259
H	 0.452199908	 2.2009406095	-0.4561707899	 0.138618
H	-1.1516144935	 1.5596174803	-0.8548053177	 0.134925
H	-0.7382822183	 1.9376421718	 0.8261213695	 0.114234
H	 0.9275163685	 0.0808994996	 0.8686053519	 0.110778
H	-0.6609120857	-0.5284272313	 0.4177075566	 0.119418
H	 1.6479900572	-2.3481528373	-1.9944011644	 0.110135
H	-0.7109830719	-2.71836346	-0.0249451396	 0.134076
H	 0.1767729372	-3.9919720866	-0.8660246998	 0.123843
H	 0.9615826965	-3.0861244166	 0.4304952368	 0.133621
H	 0.0705654636	-0.939757032	-3.2734525467	 0.111259
H	-1.9364952423	-1.8806440773	-2.2819156786	 0.297609
69.6299	119.2806	146.0704	157.3251	185.7653	194.3253	230.0042	268.5966	293.2218	309.878	435.3665	451.3346	565.416	575.0281	604.0042	677.0004	776.8241	812.9868	859.1564	950.5328	998.6244	1013.4949	1048.5858	1064.3184	1100.814	1124.5019	1158.9919	1176.8996	1241.6435	1263.2321	1305.9287	1319.3552	1363.6089	1382.7847	1411.3728	1418.3615	1447.0594	1480.6328	1498.6318	1499.1935	1504.5019	1507.4535	2343.3866	3040.8862	3041.96	3045.5285	3098.6148	3107.6014	3115.1924	3116.2389	3127.3535	3134.8844	3154.9088	3803.619
CCC1(C#N)C(C)C1O	CC[C@@]1(C#N)[C@@H](C)[C@H]1O	
InChI=1S/C7H11NO/c1-3-7(4-8)5(2)6(7)9/h5-6,9H,3H2,1-2H3	InChI=1S/C7H11NO/c1-3-7(4-8)5(2)6(7)9/h5-6,9H,3H2,1-2H3/t5-,6+,7+/m0/s1
