18
gdb 62782	2.83696	1.322	1.1165	4.2644	75.93	-0.2608	0.0254	0.2862	1127.7466	0.146886	-401.929643	-401.921027	-401.920083	-401.962527	33.078	
C	-0.0861655586	 1.5641235589	-0.1226903812	-0.471117
C	 0.0453341806	 0.0651783197	 0.018322015	 0.409066
O	-1.1150147105	-0.6292022572	-0.3812763114	-0.46957
C	 1.3015314349	-0.7333338361	-0.2333061568	-0.123533
C	 2.5553944745	-0.0241249804	 0.2869251439	-0.275711
C	 1.9316276297	-0.0297128352	 1.7339938118	-0.163059
C	 1.8336049699	 1.2255953434	 2.470625658	 0.279672
N	 1.7670824612	 2.2234733265	 3.0514034094	-0.339178
C	 0.6582616393	-0.679615669	 1.1691123765	-0.102845
H	 0.7845497402	 2.1114420599	 0.2410248501	 0.141048
H	-0.228954813	 1.8286310087	-1.1780579925	 0.106568
H	-0.9589924713	 1.9133931395	 0.4362439442	 0.139825
H	-1.238152332	-0.4745135266	-1.324514521	 0.284016
H	 1.2940902791	-1.5577181605	-0.9354475222	 0.096336
H	 3.4567966693	-0.6370163425	 0.2435034135	 0.122838
H	 2.7787447869	 0.9569304508	-0.1390205776	 0.120793
H	 2.4690454707	-0.7450458549	 2.3616758678	 0.13409
H	 0.078799599	-1.4323212951	 1.6879691324	 0.11076
107.0803	133.0317	201.9869	248.1547	262.9344	288.6819	336.8915	407.6944	432.4806	457.1421	529.5161	601.6478	658.4937	703.9583	801.9453	848.8646	873.5684	954.5919	980.0105	997.5777	1007.8473	1017.395	1054.1934	1077.9742	1094.511	1124.6975	1175.6628	1223.9126	1244.4152	1264.5009	1273.9193	1316.9013	1341.2865	1421.9456	1443.8089	1483.3921	1494.1046	1502.1767	2349.9133	3029.4909	3070.8451	3078.5986	3100.4384	3126.9488	3142.7042	3189.779	3202.0247	3796.0696
CC1(O)C2CC(C#N)C12	C[C@@]1(O)[C@H]2C[C@@H](C#N)[C@@H]12	
InChI=1S/C7H9NO/c1-7(9)5-2-4(3-8)6(5)7/h4-6,9H,2H2,1H3	InChI=1S/C7H9NO/c1-7(9)5-2-4(3-8)6(5)7/h4-6,9H,2H2,1H3/t4-,5-,6+,7+/m0/s1
