23
gdb 104655	2.06847	1.21946	1.11166	2.4299	81.89	-0.2492	0.0596	0.3087	1298.2797	0.204403	-425.410591	-425.399873	-425.398929	-425.445939	39.636	
C	-0.3347904308	 1.0406856346	-1.6464750755	-0.406421
C	-0.0866680557	-0.1658393181	-0.7646448671	-0.058858
C	 1.2940154897	-0.629541379	-0.3441450662	-0.079923
C	 2.5744162767	 0.0482729525	-0.7887355632	-0.416687
C	 0.3441143977	-0.0496232834	 0.6900144026	 0.259737
C	 0.5838725147	 1.3197105636	 1.3081099009	-0.125609
O	-0.6228147779	 2.0140762537	 1.5823079955	-0.435682
C	-0.2843845177	-1.0327213448	 1.6588133268	-0.142876
O	-1.5700274657	-0.6033403981	 2.1294395167	-0.419798
H	 0.4063032837	 1.8292788604	-1.5026389765	 0.120584
H	-0.3110358641	 0.7567656877	-2.7043255016	 0.112437
H	-1.3138358599	 1.4810416404	-1.4340173775	 0.126941
H	-0.7861488037	-0.9779789512	-0.9625671246	 0.070401
H	 1.403288179	-1.7112288116	-0.2831095553	 0.078125
H	 2.4694679468	 1.1287189416	-0.9065685199	 0.122085
H	 3.3821363038	-0.1273839707	-0.069777482	 0.120273
H	 2.9002352741	-0.3531886565	-1.7546018061	 0.119819
H	 1.1838755085	 1.1918424358	 2.2260078781	 0.081264
H	 1.1627654059	 1.9658952059	 0.6446982034	 0.097594
H	-1.1748544042	 1.3946823212	 2.0793627039	 0.282389
H	-0.3598277194	-2.0291811835	 1.1993816824	 0.091002
H	 0.3269449546	-1.1307669788	 2.5631970378	 0.113797
H	-2.1466310959	-0.5460813214	 1.3587119572	 0.289405
94.2742	101.6745	123.7083	153.7803	181.1235	220.8436	221.9258	274.1146	308.918	326.467	366.1149	393.6514	484.3763	530.9455	562.2421	631.1251	723.2237	784.6441	887.1099	929.2714	939.0289	965.4413	1016.0094	1030.9482	1038.9248	1059.1982	1075.166	1106.4275	1131.9066	1140.4744	1186.144	1204.9915	1229.8075	1288.3468	1330.4115	1360.5848	1379.6981	1396.577	1414.1596	1418.1837	1425.6004	1454.9047	1469.3768	1487.3154	1489.5193	1497.1362	1502.4795	1509.8949	1517.7797	2949.9992	2992.2595	3034.6734	3039.5417	3065.9555	3089.3412	3092.0641	3093.7455	3098.6498	3108.4629	3123.5622	3134.4015	3736.2333	3797.8605
CC1C(C)C1(CO)CO	C[C@H]1[C@@H](C)C1(CO)CO	
InChI=1S/C7H14O2/c1-5-6(2)7(5,3-8)4-9/h5-6,8-9H,3-4H2,1-2H3	InChI=1S/C7H14O2/c1-5-6(2)7(5,3-8)4-9/h5-6,8-9H,3-4H2,1-2H3/t5-,6+
