18
gdb 30831	2.32203	1.36362	0.91048	0.9182	76.81	-0.2016	0.0118	0.2134	1305.5599	0.146702	-439.140569	-439.131166	-439.130221	-439.175312	33.571	
C	 0.3303728968	 1.5459223164	-0.1898840251	-0.370513
C	-0.0314799171	 0.068548126	 0.0452777256	-0.305345
C	 0.5554231519	-0.5047959108	 1.2823064309	 0.232232
C	 0.0647855183	-0.9988795584	 2.4470305222	 0.233467
O	-1.2292697774	-1.1164244938	 2.814794779	-0.436217
N	 1.090501574	-1.4004550883	 3.2790749779	-0.382182
C	 2.1712672721	-1.1403698708	 2.603765317	 0.381609
C	 3.5827082086	-1.3677356676	 3.0077881318	-0.488652
O	 1.9364717481	-0.5992319	 1.3910658119	-0.214312
H	 1.4144697919	 1.6736129049	-0.2605191988	 0.126244
H	-0.1158534456	 1.910513507	-1.1201842511	 0.112417
H	-0.0296848015	 2.1715624799	 0.6323072411	 0.122231
H	-1.1177041476	-0.0446759224	 0.1232613733	 0.127093
H	 0.2810484627	-0.5229275588	-0.8260912358	 0.113235
H	-1.2291670975	-1.5096747201	 3.6953142003	 0.3037
H	 4.0891971485	-2.0422456349	 2.309382227	 0.145568
H	 4.1453236356	-0.4282980629	 3.0230097836	 0.145367
H	 3.6010744384	-1.8090146353	 4.0045390891	 0.15406
57.9958	90.9097	122.0328	184.2788	217.7471	272.7307	277.9516	303.4938	338.4849	423.2158	524.3567	612.6043	645.0701	682.6231	731.3343	779.2681	812.2039	965.15	982.907	1034.8819	1063.7302	1066.7586	1084.1976	1126.359	1193.7438	1280.1533	1307.9952	1343.7309	1372.8713	1403.9611	1412.3037	1426.0187	1473.0851	1475.2587	1481.8264	1496.469	1507.6169	1614.5571	1735.7818	3014.1913	3039.6031	3042.1369	3078.8676	3095.1599	3111.8205	3118.3607	3155.9941	3812.8775
CCC1=C(O)N=C(C)O1	CCc1c(O)nc(C)o1	
InChI=1S/C6H9NO2/c1-3-5-6(8)7-4(2)9-5/h8H,3H2,1-2H3	InChI=1S/C6H9NO2/c1-3-5-6(8)7-4(2)9-5/h8H,3H2,1-2H3
