15
gdb 28177	5.20198	1.28124	1.03375	2.2889	74.63	-0.184	0.0333	0.2173	1090.2444	0.115297	-416.839001	-416.831643	-416.830699	-416.870581	28.669	
N	-0.0105218372	 1.3611366796	 0.0157002789	-0.595526
C	-0.1081256776	-0.0257876809	 0.0134869162	 0.288691
C	-1.186124502	-0.8542538039	 0.0808251556	-0.389869
C	-0.6862343484	-2.2048859801	 0.0382919261	 0.282341
C	 0.6780688059	-2.0468829281	-0.052542191	 0.400151
N	 1.3150038954	-3.2454728065	-0.1031490468	-0.411339
C	 0.3168088856	-4.2213801966	-0.0422975078	-0.070425
C	-0.916940937	-3.6181376727	 0.0446815304	-0.333017
O	 1.0976562738	-0.773426196	-0.0724591918	-0.249504
H	 0.5207396447	 1.7160198166	 0.8050433026	 0.243684
H	 0.4092876114	 1.7265195563	-0.8337159321	 0.243689
H	-2.2046222801	-0.5063074584	 0.1517353473	 0.109518
H	 2.3026502688	-3.4115022884	-0.1706788775	 0.266919
H	 0.5859664822	-5.2645401862	-0.0672055253	 0.118516
H	-1.8594401355	-4.1395646647	 0.1047657052	 0.096172
123.8798	144.029	295.4511	308.7897	313.1275	369.0374	517.6755	574.0414	595.1245	605.9573	659.0366	749.6609	750.4049	770.6472	807.0923	821.7307	830.1926	878.9368	948.4265	1061.2387	1094.7799	1141.7711	1184.5855	1211.7645	1221.0081	1294.3065	1351.4544	1472.3161	1507.8153	1566.7884	1578.8034	1651.2497	1685.0851	3250.3239	3260.799	3275.146	3488.1772	3551.2167	3697.7995
NC1=CC2=C(NC=C2)O1	Nc1cc2c([nH]cc2)o1	
InChI=1S/C6H6N2O/c7-5-3-4-1-2-8-6(4)9-5/h1-3,8H,7H2	InChI=1S/C6H6N2O/c7-5-3-4-1-2-8-6(4)9-5/h1-3,8H,7H2
