20
gdb 14460	3.63216	2.07051	2.04275	0.0443	77.25	-0.2496	0.0943	0.3439	812.7215	0.18061	-311.893299	-311.886819	-311.885874	-311.923318	27.506	
C	-0.0253842796	 1.4906901907	 0.0307959452	-0.502892
C	 0.0148923843	-0.0118684905	-0.030444206	 0.36616
C	 0.2382294789	-0.7677433812	-1.3418058375	-0.264746
C	 0.1758268469	-2.2005003242	-0.7646251927	-0.045295
C	 1.2086269872	-2.1169876855	 0.3857135239	-0.220106
C	 0.6301064052	-0.8759863264	 1.0583745342	-0.094119
C	-0.8721370219	-0.9065281847	 0.8201295093	-0.094117
C	-1.1645662943	-2.1652431124	 0.00934699	-0.220105
H	 0.9166136786	 1.9304875808	-0.3183289828	 0.112942
H	-0.8300451231	 1.8949459794	-0.5951184625	 0.112943
H	-0.1946411679	 1.8432459339	 1.0536115271	 0.112981
H	-0.5484098455	-0.5738080321	-2.0803481069	 0.086631
H	 1.2063768355	-0.538127854	-1.8020501429	 0.086631
H	 0.3049751283	-3.0176838205	-1.4742164304	 0.057732
H	 1.1934238765	-3.0020066476	 1.0312094514	 0.090003
H	 2.2317874548	-1.9706104592	 0.0228055683	 0.089806
H	 1.0552348636	-0.43871777	 1.9531132361	 0.07287
H	-1.5701345058	-0.4920959865	 1.5367471526	 0.07287
H	-2.0302834015	-2.0572754978	-0.653119825	 0.089806
H	-1.3146611804	-3.0530041221	 0.6334519384	 0.090003
202.6116	234.7233	291.3388	419.3253	423.7906	464.6409	560.2871	652.7608	692.4117	792.3718	862.367	867.6621	904.5862	907.2425	908.0715	919.3765	944.8948	953.0703	990.2046	1002.3825	1026.4869	1057.404	1077.2702	1107.0599	1131.8971	1150.5159	1172.9287	1187.4584	1245.9192	1252.7787	1280.049	1281.7096	1300.7569	1331.0352	1332.6404	1416.208	1431.7801	1487.4984	1489.2182	1490.7347	1499.4061	1517.0349	3017.7477	3028.884	3035.086	3040.2598	3070.179	3074.4686	3078.736	3081.4349	3091.4587	3117.3619	3185.6257	3195.4855
CC12CC3CC1C2C3	C[C@@]12C[C@H]3C[C@@H]1[C@@H]2C3	
InChI=1S/C8H12/c1-8-4-5-2-6(8)7(8)3-5/h5-7H,2-4H2,1H3	InChI=1S/C8H12/c1-8-4-5-2-6(8)7(8)3-5/h5-7H,2-4H2,1H3/t5-,6+,7-,8+
