15
gdb 18786	3.96063	2.31442	1.9225	1.6036	63.92	-0.2288	-0.0252	0.2036	720.0683	0.120809	-362.610542	-362.60474	-362.603796	-362.640324	23.235	
O	 0.0156296542	 0.0245411417	 0.0633838904	-0.310989
C	-0.0110750305	 1.2212465323	 0.0341304759	 0.420143
C	-1.1494101244	 2.249782638	-0.0589860534	-0.180445
C	-1.2616820698	 3.0690301534	 1.2580010921	-0.180683
N	-0.0560086169	 3.8970928547	 0.9320874789	-0.14059
C	 1.1942387189	 3.1229159684	 1.2203392238	-0.180684
C	 1.0776828204	 2.2986421018	-0.0931316336	-0.180443
C	-0.0644891139	 3.3021037566	-0.4722501853	 0.000462
H	-2.0527693959	 1.9800180309	-0.6056231379	 0.095601
H	-2.1515975765	 3.7049022574	 1.2537226444	 0.121722
H	-1.2183628723	 2.5291151914	 2.2095395837	 0.115276
H	 2.0548645162	 3.7971976481	 1.1892103808	 0.121722
H	 1.2038227305	 2.5822674103	 2.1723986372	 0.115275
H	 1.974818302	 2.0683668872	-0.6673832236	 0.095601
H	-0.092058082	 3.9474118278	-1.3471025935	 0.088034
142.8898	247.4343	408.4173	442.4431	503.4987	630.2378	722.2904	745.531	824.8209	833.7431	894.8019	900.3267	901.8656	948.8969	980.4341	990.6959	992.0648	1061.1229	1105.9014	1131.1844	1177.0937	1182.9765	1196.387	1197.401	1204.2185	1224.1483	1261.3221	1311.5636	1322.0897	1494.8087	1508.5533	1883.2332	3039.7659	3045.3164	3092.7441	3095.7815	3117.847	3119.4196	3145.6858
O=C1C2CN3CC1C23	O=C1[C@H]2CN3C[C@@H]1[C@@H]23	
InChI=1S/C6H7NO/c8-6-3-1-7-2-4(6)5(3)7/h3-5H,1-2H2	InChI=1S/C6H7NO/c8-6-3-1-7-2-4(6)5(3)7/h3-5H,1-2H2/t3-,4+,5+
