19
gdb 107886	2.1856	1.93241	1.18937	2.0098	76.16	-0.2133	0.0543	0.2676	1063.249	0.15905	-419.071908	-419.063709	-419.062765	-419.104536	31.988	
C	-0.9140098626	 1.418055588	-0.2610823518	-0.35438
N	-0.54079288	 0.0283430681	-0.0176944412	-0.102844
C	-1.1956198245	-0.6939945181	 1.1054657396	-0.107707
C	 0.0375440998	-1.641679475	 1.2432874504	-0.023095
N	 0.23224559	-1.474604298	 2.7120970719	-0.378296
C	-0.2548224938	-0.1232472472	 2.2702753174	 0.300122
C	-0.4250646499	 0.9367696848	 3.3352279907	-0.215075
O	-1.0539919884	 2.1364180686	 2.9186653101	-0.38827
C	 0.5829607	-0.228358903	 0.9233631465	-0.057786
H	-0.2089602539	 1.8508681104	-0.9790449839	 0.119022
H	-1.9066073247	 1.4424479909	-0.7246806134	 0.110802
H	-0.922161339	 2.0481927969	 0.6399419125	 0.12426
H	-2.2601307626	-0.9449674011	 1.1256548445	 0.073543
H	 0.2316403595	-2.5631974791	 0.6965132579	 0.091187
H	-0.5095817174	-1.9622865381	 3.2228528121	 0.204365
H	-0.9645779419	 0.4810064231	 4.1816388801	 0.09517
H	 0.5643865539	 1.221841629	 3.7072714969	 0.132873
H	-1.9635112276	 1.9269224435	 2.6817271953	 0.285992
H	 1.6147959733	 0.0739917461	 0.7419795146	 0.090114
77.3914	179.9855	226.9731	232.243	242.31	339.9773	361.0867	435.0057	499.7862	538.2977	632.0856	722.2163	738.4308	810.0528	836.8603	873.2935	905.4585	931.055	972.6063	1009.8886	1039.579	1072.3103	1092.8464	1104.8262	1126.5403	1146.2627	1153.2797	1182.1026	1193.4478	1205.8635	1230.7826	1260.6499	1296.7394	1306.5814	1346.8997	1386.3904	1407.7108	1450.5364	1488.1642	1495.6077	1519.6736	2972.2896	3000.0384	3071.7587	3074.6527	3078.4426	3090.1443	3116.3341	3135.672	3389.2623	3814.2968
CN1C2C3NC2(CO)C13	CN1[C@H]2[C@@H]3N[C@@]2(CO)[C@H]13	
InChI=1S/C6H10N2O/c1-8-4-3-5(8)6(4,2-9)7-3/h3-5,7,9H,2H2,1H3	InChI=1S/C6H10N2O/c1-8-4-3-5(8)6(4,2-9)7-3/h3-5,7,9H,2H2,1H3/t3-,4-,5+,6+
