19
gdb 38771	3.0784	1.58686	1.17404	2.9188	80.45	-0.2429	0.0114	0.2543	1057.4682	0.163189	-382.0228	-382.015726	-382.014782	-382.053956	29.332	
C	-0.0053122521	 1.5081808128	 0.0017701805	-0.233974
C	 1.4073689258	 2.0611976752	 0.0059640649	-0.020667
N	 1.6908502479	 3.1563041521	 0.9516430834	-0.339851
C	 2.2906726262	 1.8171643565	 1.1758096398	-0.076331
C	 1.8363910279	 1.0720245552	 2.3835398919	-0.044871
C	 1.0900281349	-0.0338262407	 2.3844964292	-0.044868
C	 0.5679490106	-0.7353009466	 1.1780201363	-0.076334
N	-0.8985269538	-0.680222533	 0.9549757215	-0.33985
C	 0.0102665064	-0.0088013768	 0.0077609013	-0.020666
H	-0.5202806794	 1.8565262623	 0.8988394583	 0.134448
H	-0.5669852019	 1.8865219935	-0.8603773896	 0.092899
H	 1.9011750651	 2.1037443972	-0.9640776173	 0.077139
H	 2.3902930671	 3.7842946022	 0.5631643169	 0.227509
H	 3.3587594705	 1.734747079	 0.9715485372	 0.087384
H	 2.1618454273	 1.4866475496	 3.3363477507	 0.093001
H	 0.8280206223	-0.489621746	 3.3380573739	 0.093001
H	 1.0437565482	-1.6952580801	 0.9745172806	 0.087384
H	-1.219601082	-1.5642592946	 0.5678083137	 0.227509
H	 0.1547405691	-0.4838294178	-0.9618325732	 0.077139
147.0607	227.2561	303.0935	331.6172	346.6818	417.4147	439.4649	566.8425	609.1837	729.6665	787.8295	804.8314	806.6557	835.399	842.8988	919.0987	938.605	975.1667	978.8983	999.0738	1004.2496	1013.7458	1022.8987	1108.0083	1132.6215	1150.4136	1182.3167	1200.6502	1219.2705	1247.12	1258.7853	1271.9592	1286.8846	1321.4877	1381.9466	1408.307	1432.441	1467.3123	1467.9576	1490.3077	1720.1815	3041.3967	3090.5795	3090.7007	3107.092	3109.2991	3127.5035	3128.4307	3151.2789	3494.8607	3495.1413
C1C2NC2C=CC2NC12	C1[C@H]2N[C@H]2C=C[C@H]2N[C@@H]12	
InChI=1S/C7H10N2/c1-2-5-7(9-5)3-6-4(1)8-6/h1-2,4-9H,3H2	InChI=1S/C7H10N2/c1-2-5-7(9-5)3-6-4(1)8-6/h1-2,4-9H,3H2/t4-,5+,6+,7-
