14
gdb 5592	3.57759	1.90439	1.26122	1.1685	60.8	-0.2069	0.0066	0.2135	915.8902	0.107684	-415.87058	-415.862893	-415.861949	-415.902969	27.087	
C	 0.0740455521	 1.4786009578	-0.0277798153	-0.235385
O	 0.0431508242	 0.0550895705	 0.0238627014	-0.264007
C	 0.590368442	-0.5859764805	-1.0187986611	 0.345078
C	 0.6712050514	-1.9378745196	-1.1789731636	 0.153874
N	 0.2634085605	-3.0135609804	-0.4094917802	-0.595164
O	 1.3170032974	-2.1327825939	-2.4064278208	-0.163843
C	 1.5611800411	-0.900784024	-2.8651802289	 0.073874
N	 1.1593065921	 0.0644788618	-2.0961719388	-0.347576
H	 1.1016990802	 1.8535838475	-0.0702470826	 0.131678
H	-0.4710789156	 1.8576807312	-0.8981965463	 0.131675
H	-0.4085078067	 1.8162890352	 0.8905494671	 0.128816
H	-0.4329657619	-3.5965101237	-0.8610707368	 0.247472
H	 1.0276170334	-3.599614488	-0.0913330841	 0.247476
H	 2.0625005697	-0.815878854	-3.8172928202	 0.146032
62.8166	170.5989	180.2222	212.1696	247.6379	333.56	343.664	541.0769	636.5565	637.8546	720.1661	735.7717	775.4625	825.4421	956.6634	1000.3109	1100.8694	1179.9448	1190.7231	1198.9931	1212.0271	1249.6757	1325.8618	1402.2877	1483.2172	1490.5235	1503.2725	1549.5079	1655.7526	1735.7821	3033.0971	3099.7243	3142.8402	3263.1284	3501.3258	3569.1301
COC1=C(N)OC=N1	COc1c(N)ocn1	
InChI=1S/C4H6N2O2/c1-7-4-3(5)8-2-6-4/h2H,5H2,1H3	InChI=1S/C4H6N2O2/c1-7-4-3(5)8-2-6-4/h2H,5H2,1H3
