17
gdb 87616	2.66809	1.51342	1.12907	2.1966	75.74	-0.2354	-0.0166	0.2188	1090.0444	0.135246	-421.840792	-421.832647	-421.831703	-421.873485	31.143	
O	-0.1151151558	 1.4342036647	-0.03390414	-0.421135
C	-0.0567154677	 0.0417429214	 0.0104028855	 0.070193
C	-0.4670256743	-0.6822420962	 1.2467023883	-0.367998
C	-1.3985540778	-0.6683400308	 0.0313034412	 0.188883
C	-2.7069871469	 0.0220141702	-0.0305153808	-0.138342
C	-3.5896317823	-0.6738454147	-0.7539123954	-0.104467
C	-3.0040815516	-1.9516549907	-1.2989934624	-0.383994
C	-1.560987926	-1.9310293275	-0.7695356436	 0.334805
O	-0.7097317695	-2.7668396291	-0.9537955237	-0.333889
H	 0.6163966516	 1.7789122628	 0.4893219107	 0.293705
H	 0.7016986018	-0.424910314	-0.6182043309	 0.111344
H	 0.0080277831	-1.6323312972	 1.4685647494	 0.137134
H	-0.7812063441	-0.0868781394	 2.0973222242	 0.122229
H	-2.8866591045	 0.976282734	 0.4467974736	 0.112619
H	-4.611433139	-0.3698836443	-0.9458772474	 0.102087
H	-3.5167364822	-2.8585344281	-0.9535665878	 0.137566
H	-3.0005089248	-2.0029867611	-2.395418321	 0.139261
90.5532	144.7704	179.2528	229.2006	258.8308	333.1697	419.371	475.7287	531.9256	560.3521	625.7371	669.2122	735.62	793.2669	800.2435	872.1897	914.1663	963.2096	966.9584	978.651	1012.0625	1033.5599	1056.4769	1126.8791	1135.0926	1151.6235	1178.9446	1256.8492	1269.3437	1292.2958	1312.0207	1394.1161	1415.6674	1440.1079	1467.5854	1663.9631	1831.7969	3029.2063	3057.3691	3108.5774	3128.375	3201.0449	3227.9981	3228.8062	3804.1711
OC1CC11C=CCC1=O	O[C@H]1C[C@]21C=CCC2=O	
InChI=1S/C7H8O2/c8-5-2-1-3-7(5)4-6(7)9/h1,3,6,9H,2,4H2	InChI=1S/C7H8O2/c8-5-2-1-3-7(5)4-6(7)9/h1,3,6,9H,2,4H2/t6-,7+/m0/s1
