14
gdb 124233	4.97122	1.02454	0.98299	2.2485	63.92	-0.2841	-0.0253	0.2588	1202.8541	0.100653	-470.004029	-469.996107	-469.995163	-470.037782	27.608	
C	-0.1608336462	 1.4306942215	-0.1190023735	-0.466313
C	 0.1690417347	-0.0234215331	 0.050783468	 0.386842
N	 0.9540017469	-0.6048065239	 0.8452719334	-0.487364
O	-0.5738798225	-0.7636215207	-0.8486081857	-0.266443
C	-0.3094347702	-2.0823777205	-0.9497909673	 0.497007
N	-1.169024948	-2.9712043967	-0.5315791821	-0.185797
O	-0.5693171381	-4.1745003367	-0.9186808444	-0.153264
C	 0.5760395966	-3.8461569844	-1.5212618286	 0.124323
N	 0.8027606643	-2.574442822	-1.5841549744	-0.307021
H	 0.3759559444	 2.0364897811	 0.6118036838	 0.135257
H	 0.1059369744	 1.7596769197	-1.1279548667	 0.158224
H	-1.23696482	 1.5873817934	 0.0006628686	 0.159046
H	 1.4266511518	 0.0634599331	 1.4489900325	 0.233876
H	 1.1856806921	-4.6553485308	-1.8956327334	 0.171627
54.8367	73.7105	128.571	137.5549	338.5444	352.6372	455.3311	559.6138	566.7899	627.6953	710.6067	819.9582	858.3214	902.9589	920.7811	944.6117	979.2488	1005.6291	1053.1192	1067.5432	1071.2474	1144.4558	1308.2606	1336.365	1373.8453	1412.011	1469.9135	1480.4792	1536.4034	1614.0667	1761.8931	3052.0895	3116.4404	3151.5364	3267.1618	3527.3466
CC(=N)OC1=NOC=N1	C[C]([NH])Oc1nocn1	
InChI=1S/C4H5N3O2/c1-3(5)9-4-6-2-8-7-4/h2,5H,1H3	InChI=1S/C4H5N3O2/c1-3(5)9-4-6-2-8-7-4/h2,5H,1H3
