18
gdb 52553	4.43652	0.72216	0.65124	1.8728	85.52	-0.2508	-0.0138	0.237	1753.3063	0.145303	-401.908602	-401.898726	-401.897782	-401.946018	34.241	
C	 0.1216996574	 1.3767387721	-0.1063571236	-0.50632
C	 0.0845082637	-0.0751541043	-0.0591268754	 0.210858
C	 0.0438074732	-1.2777186802	-0.0160207977	 0.0258
C	-0.0062284512	-2.7091499269	 0.0374367358	 0.179422
N	-0.9959949679	-3.3227197557	 0.5448919527	-0.52754
O	 1.1262815098	-3.2426112895	-0.524074846	-0.242318
C	 1.1968779858	-4.6428899198	-0.6053502622	 0.112761
C	 2.5758806366	-5.2148806441	-0.6067106393	-0.293612
C	 1.6751164813	-5.4205879613	 0.5929940641	-0.283528
H	 1.0312085127	 1.73582764	-0.5992577916	 0.155151
H	-0.7389172748	 1.7723682918	-0.6566410732	 0.158626
H	 0.0942054889	 1.8023426398	 0.9026734563	 0.158129
H	-0.862308668	-4.3331805877	 0.5205862431	 0.227411
H	 0.4406085497	-5.0809205801	-1.2526041362	 0.110057
H	 2.7798490085	-6.0547271911	-1.2605312418	 0.122344
H	 3.3903628617	-4.5079804037	-0.5007733997	 0.134889
H	 1.9007975621	-4.8494692541	 1.4859947029	 0.135595
H	 1.2547893405	-6.4038317249	 0.773238322	 0.122276
12.6131	60.3612	80.191	92.0138	174.3314	207.0887	306.7178	372.198	389.3391	404.862	482.544	577.6181	714.5042	757.6104	774.9558	829.7829	833.5325	862.1595	954.4161	990.1454	1048.4096	1051.7494	1054.4398	1066.3045	1078.1426	1126.2589	1141.8559	1187.6485	1194.824	1237.3021	1330.9139	1400.2624	1412.0903	1455.7055	1473.311	1474.4045	1496.1297	1699.8272	2373.0654	3030.3892	3092.8869	3096.1754	3131.1595	3140.2355	3146.4355	3225.6852	3239.7862	3498.2215
CC#CC(=N)OC1CC1	CC#C[C]([NH])OC1CC1	
InChI=1S/C7H9NO/c1-2-3-7(8)9-6-4-5-6/h6,8H,4-5H2,1H3	InChI=1S/C7H9NO/c1-2-3-7(8)9-6-4-5-6/h6,8H,4-5H2,1H3
