13
gdb 130968	7.3527	0.74158	0.67988	4.1987	62.97	-0.2525	-0.0291	0.2234	1509.078	0.087017	-489.859789	-489.85169	-489.850746	-489.895167	27.101	
O	 0.0018200666	-0.1005046765	 0.4238985089	-0.239914
C	 0.2008290404	 0.8012376385	-0.3450995949	 0.152883
C	 0.9209538845	 2.0876715328	 0.0365759386	-0.242417
N	 0.8095986881	 3.0559509399	-1.0383915897	-0.38768
C	 1.1115394049	 4.244990339	-0.8171673848	 0.573434
O	 1.0268354115	 5.2399912402	-1.7706577711	-0.191255
C	 1.4238085048	 6.3590618818	-1.1345884306	 0.108052
N	 1.754749954	 6.2202108901	 0.0900900897	-0.105748
O	 1.5652075973	 4.8295602911	 0.3321577329	-0.251711
H	-0.1188535036	 0.7645238854	-1.4098343817	 0.095878
H	 0.5168770867	 2.4458444389	 0.9930742836	 0.146727
H	 1.9731176815	 1.826013227	 0.2268867132	 0.148681
H	 1.4389927633	 7.2872550218	-1.6839915241	 0.19307
14.6885	60.5495	107.1318	164.9673	262.095	308.2386	410.0594	587.0294	595.3907	686.3256	725.2871	759.7887	885.4727	891.0717	918.0647	949.3051	1043.4129	1086.097	1102.3436	1131.8691	1204.4783	1239.3054	1299.2394	1334.5738	1402.6106	1439.5504	1671.988	1841.2629	1850.1556	2900.3605	2996.3303	3040.3633	3286.8297
O=CCN=C1OC=NO1	O=CCN=c1ocno1	
InChI=1S/C4H4N2O3/c7-2-1-5-4-8-3-6-9-4/h2-3H,1H2	InChI=1S/C4H4N2O3/c7-2-1-5-4-8-3-6-9-4/h2-3H,1H2
