18
gdb 52187	3.81216	0.74371	0.65898	2.7832	82.14	-0.2531	0.0227	0.2758	1671.5345	0.14558	-401.894206	-401.884505	-401.88356	-401.930827	34.097	
N	-0.0674414039	 1.2109607276	-0.6075041442	-0.439837
C	-0.0878305598	 0.0562108541	-0.0976536513	 0.132287
O	-1.1248354897	-0.7680978234	-0.3336685976	-0.183917
C	-1.0217784019	-2.0892447768	 0.2097408346	-0.103453
C	-2.3782432607	-2.7286361996	 0.1261007959	-0.015416
C	-2.8309790438	-3.3747696566	-1.1488682417	-0.279602
C	-2.5007857562	-4.2472931252	 0.0529297386	-0.202461
C	-1.3407261163	-5.0914653958	 0.0462137344	 0.332801
C	-0.3760629003	-5.8107709432	 0.0507540438	-0.471243
H	 0.7746339925	 1.7026693207	-0.3156254615	 0.227831
H	 0.6796219361	-0.3784203191	 0.5590702026	 0.083142
H	-0.2868190559	-2.6733751886	-0.3566019945	 0.12079
H	-0.6817767303	-2.0383521203	 1.2530751565	 0.111431
H	-3.1397945607	-2.2327332321	 0.7198091599	 0.106281
H	-3.872535949	-3.2888846942	-1.4350426136	 0.126938
H	-2.1313141292	-3.3966828306	-1.9764755352	 0.135261
H	-3.3521021975	-4.6627324989	 0.5839881178	 0.120116
H	 0.4724713967	-6.4489813281	 0.0488092657	 0.199052
24.2836	54.9043	83.6696	127.5386	173.2873	208.8974	311.128	328.6194	429.426	524.6307	561.9138	591.5217	653.1081	666.9806	771.6492	821.3198	827.5494	889.8709	915.8922	959.1567	1008.0428	1045.2499	1063.435	1070.3573	1125.2022	1127.1909	1136.7708	1182.6555	1231.9273	1275.781	1301.7397	1363.0272	1388.4064	1424.3085	1447.2083	1488.1396	1512.2085	1748.8798	2234.7423	3004.7879	3019.297	3062.8837	3144.8324	3148.1632	3163.9546	3235.8063	3504.4141	3517.3721
N=COCC1CC1C#C	[NH][CH]OC[C@H]1C[C@H]1C#C	
InChI=1S/C7H9NO/c1-2-6-3-7(6)4-9-5-8/h1,5-8H,3-4H2	InChI=1S/C7H9NO/c1-2-6-3-7(6)4-9-5-8/h1,5-8H,3-4H2/t6-,7-/m1/s1
