18
gdb 108015	3.66528	1.49939	1.34095	2.0917	73.55	-0.2257	0.0668	0.2925	986.2364	0.148935	-401.853838	-401.8467	-401.845756	-401.885381	28.612	
O	-0.0458796913	 1.4094319124	 0.2038480773	-0.423434
C	-0.0404338438	 0.0070722933	-0.0297913186	-0.216838
C	-1.4634506297	-0.4689740078	-0.027135166	 0.355331
C	-2.5861024256	 0.1751812432	-0.8851105504	-0.293011
C	-3.5444557504	-0.4697476876	 0.1475563063	-0.082297
C	-3.2456708923	-1.9835641831	 0.145488298	-0.038592
C	-1.7624913546	-1.9840150981	 0.0182399326	-0.118704
N	-2.3937686247	-1.9791401453	 1.3836798168	-0.186082
C	-2.4100404757	-0.4518643814	 1.2213310458	-0.020585
H	 0.8654029743	 1.7157881774	 0.2172061043	 0.289789
H	 0.4287769301	-0.2336023343	-0.9992077968	 0.086905
H	 0.5266418856	-0.5274144575	 0.7495307548	 0.096825
H	-2.5642163837	 1.2648568675	-0.8000356684	 0.118468
H	-2.6740626386	-0.1235386049	-1.9344674636	 0.090004
H	-4.5625962903	-0.1268576194	 0.3170562871	 0.074664
H	-3.8889650796	-2.8189828559	-0.1030062377	 0.093648
H	-1.1635856401	-2.8153880077	-0.3355850677	 0.088482
H	-2.3268436497	 0.2069314593	 2.0821269465	 0.085427
97.1866	170.78	228.8966	287.0893	366.6907	446.0155	551.8842	637.3032	740.7659	765.2705	794.1259	817.9717	842.4078	851.4619	872.2439	899.3578	939.9044	953.1738	981.3554	1006.583	1034.7884	1056.2102	1071.807	1098.8662	1135.9988	1139.8925	1147.6299	1192.9215	1204.9902	1222.678	1229.5376	1259.6364	1283.0122	1292.3256	1322.4886	1370.9294	1466.8667	1487.5459	1513.3908	2953.2389	2985.7465	3048.4311	3115.6845	3139.6806	3151.9783	3174.6017	3189.7978	3833.7629
OCC12CC3C4C1N4C23	OC[C@@]12C[C@H]3[C@H]4[C@@H]1N4[C@@H]23	
InChI=1S/C7H9NO/c9-2-7-1-3-4-6(7)8(4)5(3)7/h3-6,9H,1-2H2	InChI=1S/C7H9NO/c9-2-7-1-3-4-6(7)8(4)5(3)7/h3-6,9H,1-2H2/t3-,4-,5+,6-,7+,8?/m0/s1
