14
gdb 129853	7.03419	0.83167	0.75467	6.9233	67.07	-0.2231	0.0016	0.2247	1401.4128	0.101703	-470.038249	-470.029951	-470.029007	-470.071616	29.588	
N	 0.0737784538	 1.3741045087	-0.0028474395	-0.60351
C	-0.0380280888	-0.0102514957	 0.0576960298	 0.433713
C	-1.1409582505	-0.8461452957	 0.0695278552	-0.420208
C	-0.5789766217	-2.127115297	 0.2481973691	 0.464353
O	-1.3099386347	-3.278172153	 0.3359682493	-0.223699
C	-0.7799731239	-4.4218065118	-0.194659806	 0.163331
O	-1.320955338	-5.4743977387	-0.061362929	-0.264233
N	 0.7371190099	-2.1267476721	 0.3429403383	-0.316588
N	 1.0522333805	-0.8043313344	 0.2033052824	-0.258076
H	 0.816548785	 1.7022537395	-0.6074427572	 0.255516
H	-0.7968636555	 1.8207676926	-0.2547417314	 0.263418
H	-2.1779008637	-0.5852545272	-0.0533166719	 0.113623
H	 0.1583299122	-4.2329954522	-0.7370696382	 0.117646
H	 2.0017555054	-0.515471043	 0.3630711289	 0.274713
63.443	125.2818	165.0648	188.1843	251.6644	327.7138	351.8804	443.7015	469.6779	531.5246	652.0313	695.3085	713.5585	737.6782	768.4416	851.4589	1013.44	1042.9259	1047.4106	1098.2777	1108.1278	1181.1656	1205.833	1340.1319	1407.0504	1446.4046	1505.5827	1561.0851	1620.6152	1663.4674	1872.6799	3041.0078	3282.1663	3545.319	3642.5588	3680.6542
NC1=CC(OC=O)=NN1	Nc1cc(OC=O)n[nH]1	
InChI=1S/C4H5N3O2/c5-3-1-4(7-6-3)9-2-8/h1-2H,(H3,5,6,7)	InChI=1S/C4H5N3O2/c5-3-1-4(7-6-3)9-2-8/h1-2H,(H3,5,6,7)
