15
gdb 73877	2.27992	1.65887	0.97182	4.5739	70.63	-0.2615	-0.0861	0.1755	1137.9497	0.111436	-457.832445	-457.82405	-457.823106	-457.865917	29.499	
C	 0.3198572101	 1.385404835	-0.1783641063	-0.509885
C	 0.1355155694	-0.0902065331	-0.1402513262	 0.189466
C	-0.0514170803	-0.9651372606	-1.147552745	-0.054139
C	-0.1309612191	-0.7299857722	-2.6003767249	 0.082752
O	-0.0324959835	 0.3554873267	-3.1303166119	-0.27121
C	-0.1822820684	-2.3317489307	-0.5802976272	 0.417558
O	-0.3571137123	-3.3752008107	-1.1418158189	-0.342467
O	-0.0667374635	-2.2320039338	 0.7855090807	-0.233554
C	 0.1332901729	-0.8708905876	 1.1463991848	-0.164476
H	 1.2773196942	 1.6605847096	 0.2813662912	 0.148056
H	 0.2897625458	 1.7544151981	-1.2022693276	 0.185358
H	-0.4608956687	 1.8810296671	 0.4120423238	 0.148058
H	-0.29317105	-1.6521044207	-3.1918794611	 0.116144
H	 1.0831961815	-0.7716069525	 1.6879693089	 0.14417
H	-0.6714639981	-0.5488084645	 1.8202639195	 0.144169
91.6332	105.5499	162.5413	194.8906	233.2829	252.7529	294.4033	408.975	489.6913	528.3243	640.9959	695.1705	767.9256	799.2287	939.6487	945.3942	1021.5405	1049.0889	1069.2536	1084.2889	1129.061	1195.0325	1206.3263	1320.4253	1371.1484	1402.8681	1432.8202	1463.2511	1484.1123	1490.9643	1684.5413	1788.9113	1871.1637	2952.1031	3019.8514	3028.8283	3053.7743	3074.9258	3170.1411
CC1=C(C=O)C(=O)OC1	CC1=C(C=O)C(=O)OC1	
InChI=1S/C6H6O3/c1-4-3-9-6(8)5(4)2-7/h2H,3H2,1H3	InChI=1S/C6H6O3/c1-4-3-9-6(8)5(4)2-7/h2H,3H2,1H3
