23
gdb 76750	2.18014	1.59053	1.30767	1.7958	84.79	-0.237	0.0737	0.3108	1148.5464	0.204904	-388.268612	-388.259099	-388.258155	-388.302637	36.473	
C	 0.3609070224	 1.6873139983	 0.1337108214	-0.407188
C	 0.0983009905	 0.1919239239	 0.0227366059	-0.001454
C	 0.6657834036	-0.6268392866	-1.2017002514	-0.05294
C	 1.5000520647	 0.0877820055	-2.2582454057	-0.418731
C	 1.3709990449	-1.6196529249	-0.2106978714	 0.294459
C	 1.100155484	-3.0967956124	-0.3866204541	-0.503525
C	 2.7740084956	-1.1813866133	 0.2484212084	-0.122214
O	 2.2272153801	-0.2840869341	 1.2414584906	-0.293176
C	 0.8807342197	-0.7373455181	 0.9789183774	 0.058561
H	 1.4321703762	 1.8990517921	 0.1602282539	 0.130867
H	-0.0833821874	 2.2331229769	-0.7052495429	 0.108312
H	-0.0746759573	 2.0862928658	 1.0564999152	 0.112838
H	-0.9761928488	 0.0011288429	 0.1237791795	 0.066865
H	-0.1500924806	-1.1517800283	-1.7098548317	 0.068155
H	 2.2987586074	 0.6953710717	-1.8238166348	 0.125728
H	 1.9627750457	-0.6314450621	-2.9437430603	 0.111507
H	 0.8737614814	 0.7561772795	-2.858828677	 0.115661
H	 1.5745733556	-3.4775165422	-1.2999495581	 0.118783
H	 1.4877402968	-3.6803579762	 0.4557182045	 0.117674
H	 0.0264674696	-3.2983028581	-0.468987036	 0.116751
H	 3.3512012991	-1.9893754172	 0.7201553216	 0.091808
H	 3.4189023003	-0.6663926274	-0.4727036325	 0.098298
H	 0.3882893366	-1.1073654057	 1.8843538075	 0.062959
47.3664	196.6905	206.0333	212.9484	221.305	236.143	240.9091	280.6959	324.0203	441.9222	492.5091	517.1046	617.6515	666.0532	752.6295	805.7847	854.9301	889.0586	922.7656	961.5344	983.6163	1004.8505	1011.8461	1025.0916	1051.5766	1095.2862	1132.5985	1154.2111	1158.9303	1178.0068	1208.2373	1211.7869	1253.3641	1275.5351	1298.0901	1329.4817	1352.5276	1354.2743	1393.3411	1405.4845	1411.1752	1414.9062	1485.7955	1491.1925	1492.1941	1492.9153	1500.7739	1509.4894	1528.6673	2996.2517	3017.9083	3025.6708	3030.3304	3035.1061	3042.7502	3053.9453	3056.2056	3079.5442	3089.4265	3092.4991	3094.1292	3109.065	3126.2193
CC1C(C)C2(C)COC12	C[C@H]1[C@@H](C)[C@@]2(C)CO[C@@H]12	
InChI=1S/C8H14O/c1-5-6(2)8(3)4-9-7(5)8/h5-7H,4H2,1-3H3	InChI=1S/C8H14O/c1-5-6(2)8(3)4-9-7(5)8/h5-7H,4H2,1-3H3/t5-,6+,7-,8+/m0/s1
