20
gdb 62776	2.81098	1.30481	1.10715	4.181	83.27	-0.2734	0.0289	0.3023	1179.8235	0.170652	-366.006315	-365.997395	-365.996451	-366.039515	34.195	
C	-0.0618750417	 1.5409820092	-0.1005484707	-0.469472
C	 0.0455911691	 0.0306638837	 0.0071727293	 0.330752
C	-1.1950408601	-0.683208197	-0.5141670423	-0.450243
C	 1.320878366	-0.7347568982	-0.2400164208	-0.090899
C	 2.561586655	 0.0051793454	 0.2735422155	-0.276558
C	 1.9531362899	-0.0270989927	 1.7239814541	-0.161132
C	 1.832909743	 1.2131282197	 2.4826243032	 0.277507
N	 1.7483019942	 2.1946843894	 3.088530681	-0.341308
C	 0.6874329059	-0.7018672972	 1.162262127	-0.10524
H	 0.8156153674	 2.0726934064	 0.2690609797	 0.135687
H	-0.2124302231	 1.8314402396	-1.1467735844	 0.113595
H	-0.921895835	 1.9049804752	 0.4717963827	 0.126292
H	-1.3714451055	-0.4331467343	-1.5661296512	 0.119723
H	-1.0988123779	-1.7710726864	-0.440218048	 0.114465
H	-2.0835917718	-0.3845985071	 0.0527344322	 0.122477
H	 1.3560509873	-1.5629170716	-0.9379735191	 0.090668
H	 3.4777932182	-0.5842381529	 0.2168927947	 0.118634
H	 2.7545863306	 0.9935940452	-0.149501442	 0.120906
H	 2.5133415657	-0.7373030273	 2.3379074624	 0.129612
H	 0.1579036829	-1.4825441992	 1.6957768568	 0.094535
104.1291	130.9484	174.6201	223.531	248.9883	270.6654	313.6289	358.0174	415.9128	453.5065	528.3222	599.1282	647.2741	714.884	796.7305	846.9437	850.5781	949.4683	970.4058	978.6884	995.0484	1007.0838	1042.2217	1051.4444	1063.9468	1082.7475	1119.3152	1154.7351	1200.0932	1239.417	1260.4534	1277.6051	1295.3706	1342.4318	1407.0407	1419.9239	1432.9219	1477.4464	1485.8834	1494.6763	1503.5811	1513.3472	2348.6314	3026.8552	3034.7315	3072.5559	3075.0735	3089.2374	3093.1761	3101.0038	3127.6603	3138.0198	3173.3496	3184.2894
CC1(C)C2CC(C#N)C12	CC1(C)[C@H]2C[C@@H](C#N)[C@@H]12	
InChI=1S/C8H11N/c1-8(2)6-3-5(4-9)7(6)8/h5-7H,3H2,1-2H3	InChI=1S/C8H11N/c1-8(2)6-3-5(4-9)7(6)8/h5-7H,3H2,1-2H3/t5-,6-,7+/m0/s1
