15
gdb 133193	3.08002	1.37411	0.95582	2.9261	75.24	-0.2129	-0.0482	0.1647	1157.0746	0.113028	-458.107719	-458.099885	-458.098941	-458.140125	29.557	
C	-0.0209004008	 1.4976864042	-0.0334011581	-0.473848
C	-0.0020315375	-0.0040471092	-0.0068448306	 0.347226
N	-0.0349199925	-0.6295181412	-1.1457446874	-0.253207
N	-0.0173157132	-1.9813650148	-1.1047331847	-0.314775
C	 0.0320426177	-2.8287033135	 0.0037532419	 0.279219
N	 0.0470979564	-4.1099230698	-0.0016341103	-0.555251
C	 0.0667795236	-2.0593873808	 1.2430636252	 0.309802
F	 0.1147147528	-2.7573918688	 2.3608060871	-0.035966
C	 0.0508589405	-0.7128148704	 1.2470903122	-0.310671
H	 0.8735687668	 1.9113485069	 0.4464321544	 0.13536
H	-0.0617071074	 1.8501820928	-1.0648492665	 0.146008
H	-0.888721449	 1.8903105931	 0.5089670469	 0.135359
H	-0.0446049558	-2.4091607254	-2.0183398779	 0.264819
H	 0.0178613226	-4.4828786823	-0.9518806503	 0.203451
H	 0.0776837858	-0.1722352609	 2.1860695781	 0.122475
101.2166	149.1731	201.3648	292.9687	319.5934	338.5494	417.3978	462.7796	519.8711	566.6643	570.6426	659.4175	722.798	754.7038	798.2895	813.9639	913.5372	972.3695	1002.1989	1062.3754	1098.1509	1182.2735	1226.0543	1274.8593	1368.0182	1413.4869	1429.2035	1464.3517	1480.6636	1484.2188	1609.5823	1681.0863	1718.9543	3031.956	3083.2124	3146.2163	3202.6505	3461.724	3617.2143
CC1=NNC(=N)C(F)=C1	CC1=NNC(=C(F)C1)[NH]	
InChI=1S/C5H6FN3/c1-3-2-4(6)5(7)9-8-3/h2H,1H3,(H2,7,9)	InChI=1S/C5H7FN3/c1-3-2-4(6)5(7)9-8-3/h7,9H,2H2,1H3
