16
gdb 34324	2.38601	1.83936	1.33473	4.6989	75.53	-0.2573	-0.02	0.2373	983.8855	0.125111	-400.728665	-400.72121	-400.720266	-400.760618	28.533	
N	-0.1682768899	-1.2569135853	 0.1956554427	-0.341764
C	-0.0952441332	-0.1085340161	 0.0853824763	 0.252583
C	-0.0059938802	 1.355171752	-0.0287457606	 0.23151
C	-0.1690323023	 2.0601981095	 1.377999289	-0.277738
C	 1.4032165054	 2.134436453	 1.4733211085	-0.317012
C	 1.3804304541	 1.9495118704	-0.0263612346	 0.221421
C	 1.6023225947	 2.5553431339	-1.1837656356	-0.235644
C	 0.4075133712	 2.2855071291	-2.086632394	-0.130713
O	-0.6369925727	 1.8101112734	-1.2035436802	-0.30289
H	-0.6172824895	 3.0445767931	 1.2384243956	 0.13328
H	-0.6930587047	 1.4989170557	 2.1528040191	 0.128979
H	 1.852516554	 3.0510039303	 1.8566389865	 0.127509
H	 1.8072356125	 1.2764077225	 2.0173767936	 0.140115
H	 2.3935690693	 3.247086137	-1.4422793504	 0.11964
H	 0.0487811459	 3.2005376733	-2.570933145	 0.12574
H	 0.6015745953	 1.5401131282	-2.871817351	 0.124985
104.7801	143.9719	212.1378	250.7883	327.5639	374.7545	528.9105	545.5477	568.4583	680.2396	714.0058	775.3857	789.1915	825.7505	882.8841	918.1476	928.5973	987.9238	1024.014	1044.2892	1049.4676	1112.0532	1133.5959	1166.9808	1199.6829	1220.1454	1227.4806	1254.0573	1287.5502	1362.4436	1465.7447	1483.3293	1512.8971	1735.808	2349.3882	2999.8841	3062.8476	3071.075	3084.0508	3132.6462	3158.3271	3220.6088
N#CC12CCC1=CCO2	N#C[C@@]12CC[C]1[CH]CO2	
InChI=1S/C7H7NO/c8-5-7-3-1-6(7)2-4-9-7/h2H,1,3-4H2	InChI=1S/C7H7NO/c8-5-7-3-1-6(7)2-4-9-7/h2H,1,3-4H2/t7-/m0/s1
