15
gdb 74199	2.49602	1.65563	1.04615	5.331	71.75	-0.2311	-0.0293	0.2018	1079.564	0.113727	-453.984821	-453.976889	-453.975945	-454.017436	29.653	
N	 0.0336141683	 1.372827306	 0.106022722	-0.553547
C	-0.0196043346	 0.0191758919	-0.0347782535	 0.369178
C	-1.1950553262	-0.6531740616	-0.1367509176	-0.309385
C	-1.3867624614	-2.0860314624	-0.1417738448	 0.39838
O	-2.4150044673	-2.6447087225	 0.1252740801	-0.326213
O	-0.3116458585	-2.9288177368	-0.515452469	-0.235719
C	 0.7637279939	-2.5531952305	-1.2636732497	 0.129644
N	 1.5439274684	-1.5749169276	-1.117103611	-0.228412
C	 1.316826083	-0.6864061207	 0.016403714	-0.268493
H	 0.9023521624	 1.8502779197	-0.0628608279	 0.267282
H	-0.8031423375	 1.9161942764	-0.0336664276	 0.267372
H	-2.1302128443	-0.1042361259	-0.0939937168	 0.09967
H	 0.9483018792	-3.2796545888	-2.0537169926	 0.135542
H	 2.1236155358	 0.052567471	 0.0352811807	 0.109473
H	 1.3774948689	-1.2504073382	 0.9580061936	 0.145227
90.9131	132.9545	165.8906	310.847	329.9145	343.9312	391.8654	475.6297	496.1192	548.1967	580.786	640.8699	725.0161	775.066	826.9021	854.6678	913.3336	977.6719	999.0724	1012.289	1086.5437	1132.2629	1222.6906	1245.9463	1313.7801	1365.2633	1409.1376	1425.8835	1489.4235	1644.9307	1681.2587	1747.8823	1829.742	3010.4884	3071.5651	3155.0774	3179.778	3599.294	3717.3334
NC1=CC(=O)OC=NC1	NC1=CC(=O)OC=NC1	
InChI=1S/C5H6N2O2/c6-4-1-5(8)9-3-7-2-4/h1,3H,2,6H2	InChI=1S/C5H6N2O2/c6-4-1-5(8)9-3-7-2-4/h1,3H,2,6H2
