21
gdb 79519	2.99917	1.55847	1.27953	1.333	81.95	-0.2577	0.0679	0.3256	1067.2479	0.184355	-387.054683	-387.046892	-387.045948	-387.086645	31.707	
C	-0.1760869441	 1.5604169561	-0.0083360991	-0.41204
C	 0.02794074	 0.0451189164	-0.0144192684	-0.039596
C	 0.9456090274	-0.4734997154	-1.1237692741	 0.004027
C	 1.3674549233	-1.9378691155	-0.7816514923	-0.077919
C	 2.7326169921	-1.6902650539	-1.465553434	-0.242482
C	 2.4405673255	-0.3994043468	-0.6639146252	-0.047219
C	 1.9204144245	-1.2776362333	 0.5206744981	 0.005596
C	 0.803040024	-0.5261699806	 1.227951105	 0.072584
O	 1.3959001977	 0.4541078704	 2.0700965769	-0.432764
H	 0.7741785867	 2.0915295006	 0.0889961598	 0.130295
H	-0.6582309638	 1.8864592594	-0.935816108	 0.111115
H	-0.8218462049	 1.8781777598	 0.8188799931	 0.097964
H	-0.9528242372	-0.4421530516	-0.0909397018	 0.062709
H	 0.7019246438	-0.2244103806	-2.1597134029	 0.055499
H	 0.7357937176	-2.8271266149	-0.8435438057	 0.062116
H	 3.5727571111	-2.3019539548	-1.1237527449	 0.087847
H	 2.7275956205	-1.6067679982	-2.5565682171	 0.085653
H	 3.061628946	 0.4929906668	-0.5826986802	 0.073376
H	 2.6383027057	-1.8203123958	 1.138068004	 0.063831
H	 0.1677666156	-1.1982995946	 1.8236209127	 0.057628
H	 0.6928620284	 0.9220582864	 2.5308448541	 0.281782
100.7606	202.5713	214.3538	268.5402	303.6103	328.771	444.8347	489.9122	537.6746	657.2361	713.5406	792.4561	817.3781	837.437	884.6692	885.6371	915.3615	933.2508	959.6797	1000.5202	1006.5656	1017.2856	1052.9091	1066.7957	1092.9474	1106.3279	1113.8931	1136.7798	1140.2886	1164.6892	1195.049	1215.7413	1238.2399	1252.606	1259.9731	1274.2281	1293.1224	1340.647	1356.8175	1376.8225	1406.5297	1427.9607	1495.3338	1500.7191	1518.6268	2983.2777	3018.0898	3029.3636	3042.06	3078.0859	3085.5867	3087.2695	3100.8069	3102.9656	3112.8704	3119.8294	3823.3244
CC1C2C3CC2C3C1O	C[C@H]1[C@@H]2[C@H]3C[C@@H]2[C@H]3[C@H]1O	
InChI=1S/C8H12O/c1-3-6-4-2-5(6)7(4)8(3)9/h3-9H,2H2,1H3	InChI=1S/C8H12O/c1-3-6-4-2-5(6)7(4)8(3)9/h3-9H,2H2,1H3/t3-,4-,5+,6-,7+,8-/m0/s1
