15
gdb 33669	3.28403	1.46249	1.37615	1.3241	71.97	-0.2296	0.0245	0.2541	968.3517	0.112492	-420.537796	-420.530867	-420.529923	-420.569051	27.572	
C	-0.0292200522	-1.2116738535	 0.0216733008	-0.35422
C	-0.0253241449	-0.0077918691	 0.0034456336	 0.045446
C	-0.0131571475	 1.4053462838	-0.0167447318	 0.148547
C	-0.6570144977	 2.5138764023	 0.8183789959	 0.003204
O	 0.5507124997	 3.2467485071	 0.9714329586	-0.293344
C	 1.1885998107	 2.3960964394	-0.031263701	-0.00173
C	 1.0631133607	 3.1156725202	-1.3623336144	-0.080033
O	-0.3556020501	 3.2562263123	-1.5463398654	-0.263475
C	-0.9857849791	 2.3810193011	-0.6517047896	 0.025154
H	-0.0352732089	-2.2732119262	 0.0400996957	 0.182396
H	-1.3531042631	 2.4771335041	 1.6485907195	 0.122031
H	 2.1769266379	 2.0524527517	 0.2713821715	 0.105232
H	 1.512035509	 4.1122347113	-1.3317198414	 0.127187
H	 1.5031950771	 2.5360689433	-2.1873168973	 0.106461
H	-1.9699476016	 2.0534855021	-0.9631778345	 0.127146
131.5023	152.5654	257.7694	380.9752	447.2912	489.3708	526.1195	577.3969	582.856	667.6892	690.7007	763.1715	781.7889	857.5153	894.1066	916.9349	941.5406	991.7006	1012.9994	1018.7371	1042.3863	1076.3503	1102.7129	1147.1219	1181.6024	1236.2123	1253.5141	1279.5646	1320.1907	1368.0245	1437.6367	1496.6833	2233.0493	3000.4777	3095.9776	3133.7434	3184.1962	3204.2564	3501.8802
C#CC12C3OC1COC23	C#C[C@@]12[C@H]3O[C@@H]1CO[C@@H]23	
InChI=1S/C7H6O2/c1-2-7-4-3-8-5(7)6(7)9-4/h1,4-6H,3H2	InChI=1S/C7H6O2/c1-2-7-4-3-8-5(7)6(7)9-4/h1,4-6H,3H2/t4-,5-,6+,7-/m1/s1
