15
gdb 128593	5.1254	1.09403	0.90727	1.1025	73.58	-0.2203	-0.0592	0.1612	1228.5035	0.113693	-450.142546	-450.134555	-450.133611	-450.175145	29.594	
C	-0.0295071278	 1.3907587305	 0.0058906751	-0.234677
O	 0.026505893	-0.0369061278	 0.0211380009	-0.269648
C	 0.6583979788	-0.6046631588	 1.064192903	 0.42348
C	 0.7207174844	-2.0121055147	 1.1131325661	-0.069881
N	 1.334654246	-2.6181577076	 2.1013154688	-0.283161
C	 1.8801831553	-1.7978252104	 3.031662888	 0.463153
N	 2.5881547797	-2.3941906104	 4.0418672983	-0.550461
N	 1.8148846872	-0.4648659699	 3.0341540184	-0.273894
N	 1.1906076279	 0.1341456224	 2.0175947799	-0.277256
H	 0.9754797779	 1.8226303006	-0.0077827734	 0.140213
H	-0.5687825254	 1.6505437112	-0.9056598141	 0.130835
H	-0.5576374435	 1.7720679943	 0.8847719976	 0.139447
H	 0.2555864055	-2.6152462401	 0.3369817896	 0.133712
H	 2.3752395201	-3.3627405801	 4.2154014993	 0.262933
H	 2.763691651	-1.8180193892	 4.8492942926	 0.265206
89.5433	131.9269	194.1171	215.5495	370.21	385.8949	424.5012	439.4485	455.1567	486.1342	588.3129	593.9227	658.6132	800.5479	828.1587	881.8589	972.5856	1036.7471	1059.6588	1081.2891	1174.4284	1177.981	1206.7058	1317.3438	1363.6661	1410.6572	1467.7088	1478.2076	1496.5065	1507.6915	1559.8882	1620.3495	1644.9424	3041.3114	3111.6119	3150.7986	3161.3023	3598.719	3721.4631
COC1=CN=C(N)N=N1	COc1cnc(N)nn1	
InChI=1S/C4H6N4O/c1-9-3-2-6-4(5)8-7-3/h2H,1H3,(H2,5,6,8)	InChI=1S/C4H6N4O/c1-9-3-2-6-4(5)8-7-3/h2H,1H3,(H2,5,6,8)
