16
gdb 33680	3.16175	1.46768	1.38822	5.0124	73.3	-0.2245	0.0145	0.239	973.2117	0.128124	-396.892246	-396.885457	-396.884513	-396.923436	26.947	
N	-0.0715237973	-1.1409199879	 0.0416691408	-0.355659
C	-0.0495940775	 0.0162304935	 0.0130586751	 0.154415
C	-0.0109741703	 1.4332700375	-0.0219179361	 0.220868
C	-0.6792788882	 2.500519526	 0.8354210719	-0.0894
N	 0.5896866086	 3.1926049355	 1.0481357848	-0.3079
C	 1.2250627943	 2.3806680374	-0.0408074263	-0.063598
C	 1.1126922493	 3.0704560725	-1.3993262124	-0.18585
N	-0.3480396916	 3.2383458224	-1.6074416377	-0.30387
C	-1.010045479	 2.3743535597	-0.6512280508	-0.080427
H	-1.4056267279	 2.3707136142	 1.6305306343	 0.11816
H	 0.5513644828	 4.1900374903	 0.8366022868	 0.210649
H	 2.2001814415	 1.967765754	 0.2188417928	 0.1032
H	 1.6283038408	 4.0361822264	-1.4228152222	 0.110414
H	 1.5423903205	 2.4412758085	-2.1906210369	 0.121644
H	-0.6260239716	 4.204687875	-1.4781660726	 0.22595
H	-1.9848075145	 1.9811598751	-0.9194662516	 0.121403
133.8653	159.3457	239.2331	379.5805	445.3306	525.3229	532.7456	556.0062	664.7831	706.9493	773.4387	791.3647	834.8695	902.0005	914.7873	931.8251	981.8799	1004.3974	1008.907	1059.975	1074.0823	1098.7923	1126.6539	1163.1223	1179.0683	1245.399	1253.7591	1280.7922	1306.4518	1363.1785	1371.9881	1414.521	1438.0122	1500.329	2349.4631	3013.7862	3075.8219	3113.7979	3172.5052	3181.8697	3439.3152	3530.5774
N#CC12C3NC1CNC23	N#C[C@@]12[C@H]3N[C@@H]1CN[C@@H]23	
InChI=1S/C6H7N3/c7-2-6-3-1-8-4(6)5(6)9-3/h3-5,8-9H,1H2	InChI=1S/C6H7N3/c7-2-6-3-1-8-4(6)5(6)9-3/h3-5,8-9H,1H2/t3-,4-,5+,6-/m1/s1
