20
gdb 35330	5.12789	0.8592	0.85415	4.4202	84.32	-0.2902	0.0316	0.3218	1409.6777	0.17202	-366.011647	-366.003256	-366.002312	-366.045064	32.125	
N	-0.7618189297	-0.2454176317	-1.6737458285	-0.32968
C	-0.3534227377	 0.5476859246	-0.9374818173	 0.265466
C	 0.1696788874	 1.521103593	 0.004657794	-0.135274
C	-0.184848264	 1.3590464616	 1.51685241	-0.312185
C	 1.2650444743	 1.7684083031	 1.8638602269	 0.374129
C	 1.5879736088	 3.2098960334	 2.3512915244	-0.275819
C	 2.7426604627	 2.6208662397	 3.2063166043	-0.208023
C	 2.0877723792	 1.2207633296	 3.052416438	-0.296232
C	 1.6763988504	 1.4324538109	 0.4035880456	-0.290072
H	-0.0805921067	 2.5259784228	-0.3459261158	 0.123749
H	-0.9973555186	 1.9800591391	 1.9014007444	 0.11167
H	-0.3857787272	 0.3130003458	 1.7640802261	 0.122939
H	 1.8415529752	 3.956029244	 1.5926333097	 0.097943
H	 0.7830575152	 3.6096326263	 2.9764175338	 0.102634
H	 3.7055186482	 2.6810872005	 2.6921104325	 0.107411
H	 2.8666313876	 3.0115800896	 4.2182558061	 0.102233
H	 1.4454251471	 0.9747755195	 3.9043741507	 0.104372
H	 2.7407565756	 0.3662638839	 2.8533667426	 0.099658
H	 2.0470803782	 0.4082998284	 0.3089060349	 0.121449
H	 2.3615246441	 2.1102899558	-0.1107332124	 0.113632
60.0187	98.0861	169.0315	222.0592	258.0142	361.7048	371.5494	432.2778	554.9699	560.055	645.7883	704.9853	774.374	847.5452	851.4926	877.2612	903.0559	923.7711	936.8057	966.0321	979.8033	1034.0975	1044.4716	1083.5943	1133.7369	1172.7559	1187.3245	1196.153	1237.4587	1241.331	1244.4296	1256.603	1260.028	1281.9183	1291.6217	1312.3081	1356.1432	1470.3341	1473.3052	1482.421	1494.9718	1505.0798	2351.452	3042.4873	3047.1184	3058.3629	3062.7511	3065.0293	3075.0926	3091.6332	3095.8556	3117.5089	3120.613	3121.2987
N#CC1CC2(CCC2)C1	N#CC1CC2(CCC2)C1	
InChI=1S/C8H11N/c9-6-7-4-8(5-7)2-1-3-8/h7H,1-5H2	InChI=1S/C8H11N/c9-6-7-4-8(5-7)2-1-3-8/h7H,1-5H2
