19
gdb 40499	4.14993	1.29837	1.22635	2.4432	79.17	-0.2117	0.0815	0.2933	1077.7497	0.160689	-381.94799	-381.940761	-381.939817	-381.979858	29.16	
C	-0.2446941658	 1.0761209672	-0.4344408962	-0.235986
C	 1.1066728966	 1.2243201669	 0.1693400998	-0.228321
N	 0.4086747214	-0.0636395518	 0.2051506833	-0.174664
C	-0.0638083252	-0.5332115433	 1.4594486547	 0.367209
C	 0.5706739286	-1.6525356932	 2.2644910714	-0.223154
N	-0.7369826159	-1.8123109767	 3.0155465387	-0.168602
C	-0.7983177178	-0.5097587451	 3.7951863045	-0.178776
C	-0.9643510513	 0.2320356777	 2.4833443102	-0.146749
C	-1.4116239816	-1.058793482	 1.8442627643	-0.088991
H	-1.0755932654	 1.5589861269	 0.0732899787	 0.119156
H	-0.360014711	 0.9930747173	-1.5113271439	 0.121508
H	 1.9903338846	 1.2596729154	-0.4607014981	 0.120674
H	 1.1753461679	 1.7849077473	 1.0988871232	 0.116894
H	 0.752653389	-2.5391666299	 1.6522476933	 0.114212
H	 1.4415132235	-1.4501104404	 2.8987804666	 0.093587
H	-1.7029107151	-0.4975529784	 4.4103631749	 0.107703
H	 0.0769408202	-0.3177499574	 4.4267490414	 0.096314
H	-1.3291838777	 1.2342761152	 2.2955941596	 0.087464
H	-2.292368845	-1.3793532957	 1.3057122436	 0.100522
65.6131	170.5259	208.381	352.0494	400.1988	479.5282	490.625	555.0465	692.8639	777.1516	794.7219	832.5636	835.3712	851.0804	883.0273	911.8673	922.2134	946.655	978.8321	1014.1411	1025.786	1058.0098	1084.7512	1099.7698	1110.8167	1121.6614	1124.5924	1153.2176	1170.2409	1173.1507	1189.0719	1211.9612	1223.8362	1286.3619	1291.7219	1323.2685	1433.476	1489.3109	1500.8376	1515.574	1521.8672	3027.4082	3037.5592	3087.5497	3105.4137	3105.9833	3110.7075	3182.1456	3188.2203	3202.0768	3215.3935
C1CN1C12CN3CC1C23	C1CN1[C@@]12CN3C[C@@H]1[C@@H]23	
InChI=1S/C7H10N2/c1-2-9(1)7-4-8-3-5(7)6(7)8/h5-6H,1-4H2	InChI=1S/C7H10N2/c1-2-9(1)7-4-8-3-5(7)6(7)8/h5-6H,1-4H2/t5-,6+,7+/m1/s1
