14
gdb 29474	3.3313	1.68848	1.12108	4.5773	69.24	-0.181	0.0328	0.2138	988.0335	0.103961	-432.896772	-432.889494	-432.88855	-432.928097	28.169	
O	 0.0864546341	 1.347571892	-0.0341435406	-0.451331
C	 0.0549021073	-0.0130480111	-0.0045398161	 0.207923
C	 0.0455466894	-0.8283708115	-1.1094401117	-0.177294
N	 0.0824420738	-2.1848839039	-0.7005016892	-0.422479
C	 0.0206077232	-2.1660082858	 0.661108491	 0.401875
C	 0.0417880581	-0.872050447	 1.142115762	 0.14959
N	 0.0824529087	-0.8623680233	 2.5229430724	-0.367662
C	 0.0807149072	-2.1313892703	 2.851984065	-0.011198
N	 0.0568097331	-2.9901928971	 1.7562894642	-0.404662
H	 0.1009009193	 1.6581044859	 0.8767198571	 0.308299
H	 0.0511653194	-0.5753995663	-2.155711353	 0.118819
H	-0.2184249513	-2.9374561183	-1.2951971388	 0.257
H	 0.087627231	-2.5236926502	 3.8579339966	 0.126268
H	 0.0245853069	-3.993941933	 1.7911967813	 0.264852
172.2705	236.2872	263.2154	280.8011	282.8233	359.2323	427.9048	556.0344	572.4287	622.9231	646.2435	681.5286	708.6775	748.8627	781.45	813.0691	950.9351	1054.4792	1078.0289	1111.1776	1178.2149	1240.4	1290.4763	1333.0975	1343.4459	1377.473	1488.3692	1516.6434	1526.5294	1617.5788	1660.176	3251.6213	3280.2885	3668.276	3680.3809	3832.3083
OC1=CNC2=C1N=CN2	Oc1c[nH]c2c1nc[nH]2	
InChI=1S/C5H5N3O/c9-3-1-6-5-4(3)7-2-8-5/h1-2,6,9H,(H,7,8)	InChI=1S/C5H5N3O/c9-3-1-6-5-4(3)7-2-8-5/h1-2,6,9H,(H,7,8)
