15
gdb 8265	6.34404	0.91463	0.90114	4.0643	71.67	-0.2456	0.0279	0.2734	1299.5062	0.117669	-362.661046	-362.652522	-362.651578	-362.696458	29.092	
C	-0.0118986625	 1.518485332	-0.0145110244	-0.497926
C	-0.0186873235	 0.0631840828	-0.0214927993	 0.054762
C	-0.0245889504	-1.1411948112	-0.0215142941	 0.10546
C	-0.0312169285	-2.5949936692	-0.0363989357	-0.145517
C	 0.413265512	-3.3266713238	 1.2787443146	-0.387362
C	-1.0328153007	-3.8759381009	 1.330071642	 0.429237
O	-1.666330454	-4.5772357251	 2.0696591136	-0.352419
N	-1.3457576768	-3.2365694897	 0.1534479068	-0.306742
H	 0.7344178437	 1.9075279972	 0.6866786574	 0.153649
H	 0.2207217078	 1.9211102385	-1.006280938	 0.151874
H	-0.987401982	 1.9158095092	 0.2862254813	 0.154163
H	 0.4854615871	-2.9677700014	-0.9282337896	 0.110284
H	 1.1886991231	-4.0834705434	 1.1523701742	 0.134708
H	 0.6663777254	-2.6597852119	 2.1028856009	 0.141964
H	-2.2260949106	-3.0921641731	-0.3193245297	 0.253865
12.9626	49.3407	113.5762	157.6634	297.2931	325.5688	374.0868	451.3411	466.794	536.9712	568.5248	708.5138	764.5743	891.079	967.4875	978.7082	1014.3077	1051.6012	1053.3151	1105.0538	1160.7377	1189.321	1201.8211	1260.0111	1366.0211	1378.0895	1414.3366	1455.6494	1476.3024	1477.4883	1900.1951	2369.9317	3029.1799	3034.69	3091.2119	3091.9856	3094.9436	3159.5523	3610.4107
CC#CC1CC(=O)N1	CC#C[C@H]1CC(=O)N1	
InChI=1S/C6H7NO/c1-2-3-5-4-6(8)7-5/h5H,4H2,1H3,(H,7,8)	InChI=1S/C6H7NO/c1-2-3-5-4-6(8)7-5/h5H,4H2,1H3,(H,7,8)/t5-/m0/s1
