16
gdb 31386	2.87885	1.262	0.88405	7.8828	75.65	-0.2089	-0.0079	0.201	1243.217	0.125496	-437.933917	-437.925579	-437.924635	-437.967479	30.572	
O	 0.0884060067	 1.3804355234	 0.2433838337	-0.395658
C	 0.0205503909	-0.0022551043	-0.0094919849	-0.163766
C	-1.4203132586	-0.4514428941	 0.0202606053	 0.376887
C	-2.4880573384	 0.3796972372	-0.0042923632	-0.326469
C	-3.8674324006	-0.1178403201	-0.0016665173	 0.386773
O	-4.8484230316	 0.6191439832	-0.0249897163	-0.401649
C	-3.9637065952	-1.5818878082	 0.0264764736	-0.24634
C	-2.8607851689	-2.3612410202	 0.0519352292	 0.02144
N	-1.6026473933	-1.8148990723	 0.0486352495	-0.385619
H	 0.9568837807	 1.6956790249	-0.0208836257	 0.29849
H	 0.4485769813	-0.2571338453	-0.9938561326	 0.113425
H	 0.5886142136	-0.5798838491	 0.7425526891	 0.098887
H	-2.3252697161	 1.4484978756	-0.0266300385	 0.125993
H	-4.9502970432	-2.0283969656	 0.0283905752	 0.109731
H	-2.8945903136	-3.4443216427	 0.0772890578	 0.129058
H	-0.8016765237	-2.4227179924	 0.096046605	 0.258816
49.9457	156.6321	164.8997	191.0453	203.3527	408.1955	409.6014	470.1462	478.1467	524.5794	555.7008	586.9001	731.8144	745.907	839.4631	905.8828	916.0558	958.5206	1006.0188	1039.1964	1071.3124	1125.296	1164.8792	1226.7766	1239.1188	1241.4565	1272.7141	1359.0494	1423.98	1466.9184	1512.5251	1534.6517	1644.8723	1682.8896	1732.4793	2935.2123	2966.8163	3193.9204	3218.3329	3235.7868	3649.0228	3846.5651
OCC1=CC(=O)C=CN1	OCc1cc(=O)cc[nH]1	
InChI=1S/C6H7NO2/c8-4-5-3-6(9)1-2-7-5/h1-3,8H,4H2,(H,7,9)	InChI=1S/C6H7NO2/c8-4-5-3-6(9)1-2-7-5/h1-3,8H,4H2,(H,7,9)
