21
gdb 104784	2.33116	1.43864	1.15831	1.3186	77.74	-0.2432	0.0809	0.3242	1178.3537	0.180378	-424.176534	-424.167136	-424.166192	-424.210451	35.306	
C	-0.5632856578	 1.1632510493	 0.3312064095	-0.387381
C	-0.0291146962	-0.2569508138	 0.1195989988	-0.250034
C	 0.9543584756	-0.7007513821	 1.1989287178	 0.406038
C	 0.3869039461	-0.9200092879	 2.6488786121	-0.308634
C	 0.8137750128	-2.3870465713	 2.552919667	 0.034778
O	 0.1433872277	-2.952411837	 1.4148940047	-0.248912
C	 1.3472203972	-2.209190902	 1.1975481747	-0.043915
O	 2.0898445459	 0.139466496	 1.3283593976	-0.295473
C	 2.8998006699	 0.2665496523	 0.1763610575	-0.254624
H	 0.249268996	 1.8952982566	 0.353820886	 0.124631
H	-1.2527520707	 1.4437519081	-0.470566891	 0.111461
H	-1.1047831331	 1.2470745756	 1.2793700676	 0.119094
H	-0.8506355413	-0.9796308591	 0.1152839803	 0.120496
H	 0.448576828	-0.3330730689	-0.8655929725	 0.091611
H	 0.9725754015	-0.3409161398	 3.3645384176	 0.122065
H	-0.6813923955	-0.751165366	 2.801086813	 0.105327
H	 1.1053375386	-3.0712947223	 3.3408260377	 0.103716
H	 2.1584627482	-2.7086534626	 0.680326386	 0.099941
H	 3.804448393	 0.7940670681	 0.4886380741	 0.128817
H	 3.1908272419	-0.7073485502	-0.2414440529	 0.107045
H	 2.4132737522	 0.8497547969	-0.6170326456	 0.113955
108.5037	119.5445	151.0352	189.1065	195.3646	213.6765	272.4607	335.8479	382.0662	437.3552	495.3735	539.4826	648.5697	780.4417	792.3249	839.3517	866.109	880.3483	948.5843	961.898	977.8373	995.7487	1028.3608	1047.9976	1101.6112	1119.1175	1123.9469	1180.283	1185.9405	1205.3013	1227.1116	1249.6991	1262.1088	1275.655	1316.9812	1364.704	1392.7709	1411.6708	1460.8045	1476.6179	1484.7112	1497.413	1499.815	1504.2337	1513.6331	2995.4951	3028.8824	3039.7614	3047.6132	3072.583	3083.404	3106.0297	3113.2448	3114.8589	3140.4931	3178.1767	3194.7617
CCC1(CC2OC12)OC	CC[C@]1(C[C@H]2O[C@@H]12)OC	
InChI=1S/C7H12O2/c1-3-7(8-2)4-5-6(7)9-5/h5-6H,3-4H2,1-2H3	InChI=1S/C7H12O2/c1-3-7(8-2)4-5-6(7)9-5/h5-6H,3-4H2,1-2H3/t5-,6-,7-/m1/s1
