16
gdb 98957	3.30654	0.91737	0.749	2.9978	69.53	-0.2522	-0.1116	0.1406	1461.9899	0.121348	-475.071878	-475.061968	-475.061024	-475.108633	32.987	
C	-0.0881944662	 1.327427373	 0.6594713829	-0.333367
N	 0.0812351822	-0.0914292729	 0.9102947043	-0.304381
C	 1.1868051836	-0.7668347547	 0.5119609539	 0.397259
O	 2.1034258569	-0.2859929934	-0.1262393474	-0.363988
C	 1.2034781675	-2.2696014963	 0.8650997674	-0.427958
C	 0.6673637459	-2.6682698642	 2.2151706258	 0.2808
O	-0.3336271497	-2.2220614796	 2.7383612419	-0.29435
C	 1.442282681	-3.7439883153	 2.9942734374	 0.10236
O	 2.4545230709	-4.2555343473	 2.5992703839	-0.203136
H	 0.6896332062	 1.637555138	-0.0387351214	 0.169488
H	-1.0705305074	 1.5267108729	 0.2197363251	 0.127915
H	 0.0078666535	 1.9148252941	 1.5801289583	 0.129735
H	-0.5649692999	-0.5733854604	 1.5193808668	 0.265418
H	 0.5843258615	-2.7833007682	 0.115735924	 0.168762
H	 2.2223923842	-2.6357068686	 0.7412010101	 0.169534
H	 0.9586365299	-3.9951133272	 3.9609413369	 0.11591
35.1293	60.2523	72.5104	125.9908	137.7864	198.9292	217.6738	298.6571	388.937	464.8731	523.0112	558.0377	571.1384	673.8566	735.3932	833.3709	876.6046	920.622	1025.1862	1086.0131	1143.0881	1153.3533	1175.1541	1184.7523	1260.5347	1339.2336	1363.6545	1440.6426	1443.9974	1496.305	1502.1606	1584.6246	1778.7629	1794.6408	1827.7953	2935.6671	3029.2059	3030.0584	3085.736	3147.4791	3156.663	3587.9805
CNC(=O)CC(=O)C=O	CNC(=O)CC(=O)C=O	
InChI=1S/C5H7NO3/c1-6-5(9)2-4(8)3-7/h3H,2H2,1H3,(H,6,9)	InChI=1S/C5H7NO3/c1-6-5(9)2-4(8)3-7/h3H,2H2,1H3,(H,6,9)
