15
gdb 26876	3.04024	1.42631	0.97676	5.7279	73.3	-0.2123	-0.0571	0.1552	1131.3781	0.112779	-454.011902	-454.00345	-454.002506	-454.045871	30.32	
C	-0.00263668	 1.5316360669	 0.0300605807	-0.505019
C	-0.0658431793	 0.0368898697	 0.0152637908	 0.321529
C	-1.2177380179	-0.6952736673	-0.0871181357	 0.228798
O	-2.4287140576	-0.0611240746	-0.1858684806	-0.454252
C	-1.0837448854	-2.1090388295	-0.0846716448	-0.05437
N	 0.032767441	-2.7746304228	 0.0058826389	-0.320774
C	 1.2267813896	-2.0738488348	 0.1116514111	 0.433657
O	 2.3263820066	-2.5766507857	 0.2018055156	-0.391298
N	 1.0981266751	-0.6664021641	 0.1096196136	-0.400548
H	 0.6040909814	 1.9036155659	-0.8034864403	 0.149579
H	-1.0041606944	 1.9523947082	-0.0525284387	 0.168952
H	 0.4540957091	 1.892506156	 0.9587457964	 0.149591
H	-3.1243487883	-0.7230569539	-0.2492622929	 0.302978
H	-1.998190862	-2.7064066602	-0.1660541368	 0.107078
H	 1.975462232	-0.1700884837	 0.1872138026	 0.2641
36.0479	101.4351	158.8234	194.5036	279.8945	347.5141	354.3384	445.2512	474.062	551.6648	592.2847	593.881	691.2591	766.9667	801.0563	801.4208	901.7074	975.5719	1032.8316	1060.7636	1090.2973	1161.5008	1248.441	1303.4212	1373.7454	1408.4671	1436.5307	1452.0163	1486.1524	1491.0809	1597.9875	1704.5082	1807.5671	3034.3313	3067.6293	3086.8643	3161.481	3600.6951	3830.4579
CC1=C(O)C=NC(=O)N1	Cc1c(O)cnc(=O)[nH]1	
InChI=1S/C5H6N2O2/c1-3-4(8)2-6-5(9)7-3/h2,8H,1H3,(H,6,7,9)	InChI=1S/C5H6N2O2/c1-3-4(8)2-6-5(9)7-3/h2,8H,1H3,(H,6,7,9)
