15
gdb 60775	3.23622	0.91425	0.80714	0.7204	67.96	-0.2666	-0.0588	0.2078	1394.5156	0.111439	-491.123993	-491.115059	-491.114115	-491.158533	31.333	
O	-0.7854572051	 0.3362727534	 0.3345268511	-0.434362
C	 0.1516324024	-0.4690735706	-0.3170984567	-0.045294
C	 1.0433832003	 0.3735420418	-1.2219973455	 0.136323
O	 0.8456084153	 1.5575388701	-1.3370501862	-0.252865
C	 1.0577067631	-1.2692310367	 0.6402541514	 0.362227
O	 1.8696109261	-2.0621298203	 0.2093636399	-0.364411
N	 0.8566261224	-0.9734750652	 1.9588651984	-0.296667
C	 1.5581474997	-1.5655225095	 3.0003685491	 0.102663
N	 1.3009126645	-1.2465876388	 4.2007306995	-0.452629
H	-0.6282807545	 1.2376207905	 0.0022753698	 0.304064
H	-0.3347465586	-1.2237598199	-0.9562570613	 0.141754
H	 1.8580740345	-0.1606915181	-1.7397368525	 0.140067
H	 0.130911873	-0.3020909699	 2.1793739263	 0.282132
H	 2.2992447557	-2.2834681017	 2.6425526696	 0.140136
H	 1.8991104411	-1.7661906649	 4.8406895372	 0.236862
51.4057	120.9103	141.0031	151.2612	202.0641	261.2426	317.9005	337.6231	447.3405	522.5364	550.2121	587.2126	725.7225	758.3336	771.9452	837.8643	857.4422	984.1468	1027.3977	1091.3526	1094.0728	1163.3089	1185.475	1234.9209	1297.3622	1320.2413	1372.7514	1395.5698	1412.047	1511.1506	1730.6297	1789.8856	1817.0365	2988.185	3006.908	3117.9046	3506.7086	3581.7326	3645.4368
OC(C=O)C(=O)NC=N	O[C@@H](C=O)C(=O)NC=N	
InChI=1S/C4H6N2O3/c5-2-6-4(9)3(8)1-7/h1-3,8H,(H2,5,6,9)	InChI=1S/C4H6N2O3/c5-2-6-4(9)3(8)1-7/h1-3,8H,(H2,5,6,9)/t3-/m0/s1
