17
gdb 97880	4.90265	0.60553	0.55265	1.0801	79.82	-0.2461	-0.0985	0.1477	1962.6131	0.13166	-421.821322	-421.810858	-421.809914	-421.860588	34.637	
C	-0.0618719488	 1.0450145306	-0.8085643557	-0.36489
C	-0.1463510769	 0.3296138498	 0.5523523385	-0.316967
C	-1.3327167908	-0.5095662198	 0.6804364322	 0.160926
C	-2.3185896604	-1.1947800331	 0.7620023444	 0.015715
C	-3.5010000585	-2.0310228991	 0.8518588621	-0.494223
C	-3.8246397357	-2.8045757843	-0.4200855432	 0.299762
O	-3.1977041963	-2.7704025416	-1.4484671588	-0.254409
C	-5.0705557838	-3.7010554632	-0.3549418828	 0.084172
O	-5.7646895204	-3.8062943793	 0.6213739154	-0.216372
H	 0.8444702418	 1.6553826051	-0.8617220831	 0.11433
H	-0.0406680631	 0.3200060831	-1.6262844073	 0.135654
H	-0.9265921872	 1.6969058207	-0.9588128866	 0.128064
H	 0.750236509	-0.2859623895	 0.69967608	 0.13096
H	-0.1375100393	 1.0725084176	 1.3602747791	 0.12946
H	-3.4214445197	-2.7673738995	 1.6644794915	 0.166723
H	-4.3973594638	-1.4493625872	 1.1109781747	 0.166094
H	-5.2592140261	-4.2401726303	-1.3069626706	 0.115001
6.3956	33.3699	63.264	128.9009	143.3962	182.1269	219.1528	269.0734	330.457	400.6627	447.6822	490.5417	532.7315	606.3223	780.4451	786.0628	813.6503	844.9059	969.0867	1027.8663	1080.1384	1105.1119	1146.6566	1170.7765	1203.0333	1285.4932	1346.9535	1356.5227	1362.3112	1409.2132	1421.6272	1475.0844	1494.3043	1505.7037	1815.114	1824.0809	2377.0013	2928.2319	3015.3518	3020.2843	3035.0089	3045.273	3047.7895	3118.8048	3126.3015
CCC#CCC(=O)C=O	CCC#CCC(=O)C=O	
InChI=1S/C7H8O2/c1-2-3-4-5-7(9)6-8/h6H,2,5H2,1H3	InChI=1S/C7H8O2/c1-2-3-4-5-7(9)6-8/h6H,2,5H2,1H3
