18
gdb 15155	8.45067	0.71283	0.69754	0.8754	78.36	-0.241	0.043	0.2839	1658.3229	0.151233	-347.750002	-347.74062	-347.739676	-347.785962	32.03	
C	-0.0301805242	 1.4565539689	-0.073240541	-0.498564
C	-0.1077839409	 0.0116232194	 0.0809001222	 0.126732
C	-0.1780553264	-1.1833075403	 0.2025542951	 0.007229
C	-0.242165587	-2.627790643	 0.3700331774	-0.209298
O	-1.2805429846	-3.1676399666	-0.4399922247	-0.248554
C	-1.3933889044	-4.5496247489	-0.3041112531	 0.163395
C	-2.1941791003	-5.1140300172	 0.8437460087	-0.288822
C	-2.7412234499	-5.1311580602	-0.5713388518	-0.288276
H	 0.9623101552	 1.7696289307	-0.4155037134	 0.148141
H	-0.760552685	 1.8103641744	-0.8091611667	 0.153251
H	-0.2357110446	 1.9720042967	 0.8713710688	 0.147799
H	 0.7248314325	-3.0820160304	 0.0946732299	 0.112826
H	-0.418672855	-2.8812028399	 1.427731695	 0.116534
H	-0.513540317	-5.1066310453	-0.6313492844	 0.081711
H	-1.8774660361	-6.0472441761	 1.2964200064	 0.112099
H	-2.6360254163	-4.399446932	 1.5293118581	 0.121191
H	-3.5303809879	-4.4252151337	-0.8027723223	 0.128647
H	-2.801883208	-6.0750818165	-1.100851244	 0.11396
28.5416	44.306	84.3185	117.9908	206.2738	217.2707	310.1317	373.4112	388.7789	448.6119	511.6944	751.9336	785.5453	819.802	848.1571	961.0035	986.7399	1028.1666	1045.0031	1051.6554	1058.2397	1071.6248	1075.3898	1128.0846	1176.0289	1193.6045	1202.8337	1239.3697	1252.9538	1369.5198	1414.8338	1431.5707	1453.9003	1476.9055	1479.2535	1497.3678	1504.402	2380.6628	2958.4238	2984.7747	3028.0853	3083.2862	3088.581	3090.4762	3135.0568	3143.1864	3220.1782	3235.7
CC#CCOC1CC1	CC#CCOC1CC1	
InChI=1S/C7H10O/c1-2-3-6-8-7-4-5-7/h7H,4-6H2,1H3	InChI=1S/C7H10O/c1-2-3-6-8-7-4-5-7/h7H,4-6H2,1H3
