17
gdb 92389	2.26723	1.63943	1.29654	3.9803	73.27	-0.2492	-0.0063	0.243	1044.443	0.136194	-417.971371	-417.963218	-417.962274	-418.004102	30.623	
C	 0.2396247352	 1.5581591951	-0.0313001176	-0.392028
C	 0.0709011618	 0.0555774808	 0.0606698874	-0.005983
N	 0.919032918	-0.7507176824	-0.8745503484	-0.337418
C	 1.389733651	-1.6296386844	 0.2162172286	-0.110259
C	 2.7155253715	-1.1374507922	 0.8153117016	-0.071953
O	 2.0143718423	-0.1719200266	 1.6536343106	-0.323715
C	 0.7300077997	-0.6843525534	 1.2661861633	 0.296614
C	-0.10432227	-1.0727472375	 2.3857247064	 0.233381
N	-0.7942416716	-1.396642384	 3.2553293456	-0.339235
H	 1.2832347486	 1.8316957682	 0.1374797448	 0.139849
H	-0.0587862549	 1.9101956588	-1.0235092207	 0.122522
H	-0.3835159194	 2.0640296912	 0.7134949478	 0.127091
H	-0.9889585737	-0.2262736118	 0.0083099917	 0.08929
H	 0.3854447901	-1.235201857	-1.5859846534	 0.229973
H	 1.2004717085	-2.6990102906	 0.1287534369	 0.103041
H	 3.2483849133	-1.8694215935	 1.4332413373	 0.116131
H	 3.3953743296	-0.6537761305	 0.109405248	 0.122698
103.6693	130.5447	174.0534	206.4836	241.5237	355.9458	391.5877	484.0336	508.0686	554.0525	599.1589	632.24	741.1039	847.5963	869.3897	932.8839	958.283	984.4072	1004.8699	1042.067	1065.8163	1093.9203	1119.1172	1145.1158	1148.6813	1166.1266	1203.2539	1268.9478	1333.5183	1342.1802	1378.0618	1389.6744	1410.6925	1482.6116	1492.8914	1504.5721	2350.2555	3017.2229	3034.4869	3043.2004	3108.6206	3110.5761	3120.6169	3136.9833	3553.0577
CC1NC2COC12C#N	C[C@H]1N[C@H]2CO[C@@]12C#N	
InChI=1S/C6H8N2O/c1-4-6(3-7)5(8-4)2-9-6/h4-5,8H,2H2,1H3	InChI=1S/C6H8N2O/c1-4-6(3-7)5(8-4)2-9-6/h4-5,8H,2H2,1H3/t4-,5+,6+/m1/s1
