14
gdb 33303	6.29961	0.7212	0.68763	5.2501	85.41	-0.2669	-0.0563	0.2106	1560.8868	0.100525	-399.495291	-399.487481	-399.486537	-399.528308	28.505	
N	 0.0481334372	-3.7377646325	 0.0802332087	-0.331281
C	 0.0538100739	-2.576173013	 0.0431545959	 0.161211
C	 0.0608693629	-1.2136171703	-0.0045489419	 0.356704
C	 0.0773103418	-0.0044884831	-0.0433975148	-0.157322
C	 0.0561077292	 1.4086076557	-0.140435808	 0.214713
C	-0.732370923	 2.2962460493	-1.1255079109	-0.322958
C	 0.4252734631	 3.3498504561	-1.0343867512	-0.243325
C	 1.1462753917	 2.4210367456	-0.0506863539	-0.046705
O	 0.273055849	 2.191144922	 1.0479921835	-0.267619
H	-0.8210884305	 1.8523652166	-2.1181565613	 0.130542
H	-1.7157693646	 2.5996796727	-0.762957132	 0.128297
H	 0.9564826804	 3.4676180595	-1.9807563282	 0.122426
H	 0.1711090875	 4.3309226033	-0.6288841944	 0.127735
H	 2.2074229315	 2.279584888	 0.1194314386	 0.127582
77.8671	84.0366	202.6437	227.3434	303.5371	390.2972	472.3408	508.377	526.3587	581.353	587.9704	734.8574	773.2154	864.2597	872.6053	923.0052	932.6636	979.5628	1034.5636	1066.7076	1138.7484	1182.0926	1213.0084	1225.3015	1270.5508	1291.0039	1420.1188	1464.5248	1485.288	2262.9921	2388.4362	3078.1098	3085.5632	3132.6489	3149.9035	3193.612
N#CC#CC12CCC1O2	N#CC#C[C@]12CC[C@H]1O2	
InChI=1S/C7H5NO/c8-5-1-3-7-4-2-6(7)9-7/h6H,2,4H2	InChI=1S/C7H5NO/c8-5-1-3-7-4-2-6(7)9-7/h6H,2,4H2/t6-,7+/m1/s1
