21
gdb 94271	2.92304	1.57074	1.2379	1.6227	82.37	-0.2348	0.085	0.3197	1089.35	0.183393	-387.02754	-387.019557	-387.018613	-387.060183	31.669	
C	-0.2551905108	 1.4834537607	-0.0307920932	-0.406037
C	 0.0264378978	-0.0140575602	-0.0839038126	-0.153965
C	 1.3308853305	-0.42782328	-0.7979569877	-0.097785
O	 1.8991822707	-0.9297345062	 0.427428329	-0.340718
C	 0.6905839503	-0.6602698946	 1.1537875592	 0.553138
C	 0.7680749263	-0.0893751567	 2.5923280689	-0.125826
C	-0.6787811895	-0.6347974196	 2.7815514378	-0.229928
C	 0.0850268239	-1.7737933699	 2.0477482535	-0.126477
C	 1.2722467085	-1.5031413361	 3.0218002376	-0.237199
H	 0.6186559631	 2.0337689472	 0.3339175267	 0.122375
H	-0.5003170947	 1.8673778268	-1.0271251448	 0.116097
H	-1.0967307189	 1.714494801	 0.6297761537	 0.121507
H	-0.8563265434	-0.5575554273	-0.432907866	 0.078504
H	 1.2331679502	-1.2154320472	-1.5551515574	 0.098412
H	 1.9223363239	 0.3976497445	-1.2133974478	 0.097404
H	 1.1606872286	 0.878505396	 2.9062264011	 0.070004
H	-0.9704453788	-0.8491833788	 3.8122024051	 0.094783
H	-1.4846861247	-0.1359686487	 2.2375961605	 0.091963
H	-0.3085210607	-2.7396734082	 1.7276258276	 0.068958
H	 2.2645387956	-1.7954463327	 2.678305101	 0.117773
H	 1.1039874224	-1.77148293	 4.0682367775	 0.087018
56.8968	158.4603	211.187	239.4969	289.8895	352.3766	445.7496	457.0331	571.7677	584.4753	775.5375	788.0879	806.6993	882.6416	897.7052	903.3933	912.0538	931.1892	977.3934	1017.6721	1021.3882	1025.6821	1036.7223	1080.6133	1082.5321	1113.2333	1118.0926	1131.8612	1156.7064	1180.8438	1190.3824	1194.6413	1201.176	1241.027	1247.5371	1263.924	1316.3794	1340.1238	1378.5597	1412.6598	1492.7194	1497.3643	1499.2497	1525.6703	1531.595	3011.1211	3031.1185	3049.9391	3059.0659	3061.9423	3065.5507	3097.3942	3101.8419	3105.8396	3108.8269	3122.5316	3144.6038
CC1COC11C2CC1C2	C[C@H]1CO[C@]21[C@H]1C[C@@H]2C1	
InChI=1S/C8H12O/c1-5-4-9-8(5)6-2-7(8)3-6/h5-7H,2-4H2,1H3	InChI=1S/C8H12O/c1-5-4-9-8(5)6-2-7(8)3-6/h5-7H,2-4H2,1H3/t5-,6-,7+,8-/m0/s1
