14
gdb 49904	3.76025	1.05505	0.90634	6.2507	72.11	-0.2725	-0.0444	0.2281	1235.5221	0.101216	-432.891922	-432.883624	-432.88268	-432.925691	28.706	
N	 0.060864881	 1.3165376795	-0.0474158768	-0.399894
C	 0.0056039284	 0.0525544391	-0.009011273	 0.072484
N	-1.1999026973	-0.6371351504	 0.0417018566	-0.100574
C	-1.4477854028	-2.0863539442	 0.067164721	-0.189518
C	-2.9763338684	-1.7743202349	 0.0710849594	-0.310527
C	-3.74272118	-2.2476317085	 1.2054492957	 0.288276
N	-4.3416432121	-2.6270089655	 2.1181889544	-0.308867
C	-2.5441811657	-0.2622268358	 0.0886790131	 0.44549
O	-3.1168961527	 0.7785394816	 0.1135159246	-0.298599
H	 1.0302961181	 1.6276811649	-0.0773322011	 0.240182
H	 0.8571449823	-0.6395236396	-0.0100670382	 0.108757
H	-1.0950675633	-2.6144934362	-0.8221294514	 0.139575
H	-1.0863136792	-2.5811641223	 0.9714854699	 0.151163
H	-3.4781994684	-2.0335741679	-0.8641497641	 0.162052
58.3666	125.2249	136.3221	178.5643	191.2897	249.7772	406.0839	457.4414	505.3306	579.3811	642.3847	765.0314	815.9789	820.647	862.2257	970.6427	1043.9332	1064.6237	1080.1642	1114.299	1156.8721	1172.0043	1238.0413	1277.1625	1331.0635	1401.4121	1425.406	1520.8873	1723.4209	1920.9807	2362.5909	3041.2361	3063.8912	3096.467	3121.9129	3507.4151
N=CN1CC(C#N)C1=O	[NH][CH]N1C[C@@H](C#N)C1=O	
InChI=1S/C5H5N3O/c6-1-4-2-8(3-7)5(4)9/h3-4,7H,2H2	InChI=1S/C5H5N3O/c6-1-4-2-8(3-7)5(4)9/h3-4,7H,2H2/t4-/m1/s1
