14
gdb 42234	4.37127	0.98906	0.88035	4.2416	71.27	-0.2704	-0.0757	0.1948	1264.9966	0.098773	-436.652532	-436.644109	-436.643165	-436.686821	29.87	
N	 0.0562791683	 1.0550261214	 0.6185593886	-0.530202
C	-0.0114231372	-0.0491713231	 0.0373669212	 0.444286
C	-1.1363654302	-0.9964879216	-0.3287095614	-0.372088
C	 0.0179450723	-1.8366110551	-0.9422086021	 0.004217
O	 0.9789533682	-0.8390382873	-0.5241418785	-0.234419
C	 0.2550608665	-3.1911856417	-0.2910532917	 0.229446
O	 1.0582091427	-3.3708214069	 0.5919310603	-0.261348
C	-0.6029257388	-4.2429105405	-0.80935307	 0.254809
C	-1.328726388	-5.0925746346	-1.2569564161	-0.419916
H	 1.0180093173	 1.3931030057	 0.6767406169	 0.2369
H	-1.6538855137	-1.4456871152	 0.5202885106	 0.153273
H	-1.8629595134	-0.6000724151	-1.038154474	 0.149517
H	-0.0084916093	-1.9360174719	-2.031695194	 0.120886
H	-1.9609562447	-5.8574366542	-1.6392489697	 0.224639
36.8488	73.882	130.4277	196.0399	259.2557	297.4631	419.8621	483.3954	497.2949	588.8922	664.543	708.2215	722.8762	755.7381	776.2185	867.001	925.3237	979.75	992.1726	1014.9797	1029.5353	1113.9544	1131.3532	1208.4278	1228.2072	1290.9448	1365.7416	1463.9938	1788.1045	1839.8753	2211.3847	3069.9297	3094.4324	3152.9341	3485.1957	3492.0616
N=C1CC(O1)C(=O)C#C	[NH][C]1C[C@@H](O1)C(=O)C#C	
InChI=1S/C6H5NO2/c1-2-4(8)5-3-6(7)9-5/h1,5,7H,3H2	InChI=1S/C6H5NO2/c1-2-4(8)5-3-6(7)9-5/h1,5,7H,3H2/t5-/m1/s1
