19
gdb 57760	2.80953	0.71996	0.65432	2.9565	85.8	-0.2672	0.0065	0.2736	1800.493	0.157683	-382.051106	-382.040356	-382.039412	-382.088721	37.479	
C	-0.0310144123	 1.5669972746	 0.0444215824	-0.376582
C	-0.0047939139	 0.0252863217	 0.0260134993	-0.130144
C	 0.8072838017	-0.5396346586	 1.208481012	-0.377076
C	-1.3632264458	-0.51809704	 0.0157192767	 0.130601
C	-2.4836306531	-0.9573999898	 0.021373182	 0.079769
C	-3.8460225206	-1.4917917716	 0.0345481306	-0.296611
N	-3.839317024	-2.9611085577	 0.0312035529	-0.485369
C	-4.6090128073	-0.9136066171	 1.1732814559	 0.27184
N	-5.2335501358	-0.5187619434	 2.0622700874	-0.325427
H	 0.9896804892	 1.959894852	 0.0069243881	 0.116743
H	-0.5857721351	 1.9629051018	-0.8100479344	 0.126476
H	-0.5075641504	 1.9333030462	 0.9586528351	 0.131148
H	 0.4864835971	-0.292851966	-0.9038630909	 0.111661
H	 0.3582588086	-0.242777173	 2.1611176191	 0.129655
H	 0.8449406695	-1.6315128814	 1.1752075582	 0.125393
H	 1.8320234842	-0.1568080798	 1.177170663	 0.116825
H	-4.3628620774	-1.1709849937	-0.8804156315	 0.15881
H	-3.3576367405	-3.29489418	 0.8612550701	 0.246986
H	-4.7954086238	-3.302318624	 0.0857168941	 0.2453
15.082	64.7694	85.2445	176.7663	195.8067	221.879	227.835	265.9184	282.1279	323.8625	360.7972	461.2983	476.65	550.443	584.234	606.8639	735.3521	833.3826	880.7849	932.6444	947.2579	967.4032	1027.9708	1108.0563	1120.4002	1157.1483	1193.099	1209.1193	1319.3195	1323.4048	1349.492	1391.0086	1396.1764	1417.9529	1486.104	1489.203	1498.653	1510.2608	1654.2922	2347.1772	2371.4668	3011.1679	3018.2589	3039.1938	3042.266	3111.8301	3116.624	3120.9695	3122.9034	3489.5101	3575.2329
CC(C)C#CC(N)C#N	CC(C)C#C[C@@H](N)C#N	
InChI=1S/C7H10N2/c1-6(2)3-4-7(9)5-8/h6-7H,9H2,1-2H3	InChI=1S/C7H10N2/c1-6(2)3-4-7(9)5-8/h6-7H,9H2,1-2H3/t7-/m1/s1
