21
gdb 116811	6.00745	0.5151	0.50233	3.3952	85.49	-0.2309	0.0215	0.2524	2224.7904	0.180643	-420.36143	-420.351031	-420.350086	-420.398971	35.566	
C	 0.0104538449	 1.3555653652	 0.0112412544	-0.248786
O	 0.1199769034	-0.0600029077	-0.0664388719	-0.191915
C	 0.6215322946	-0.665305731	 1.0281611752	 0.128826
N	 0.7645401513	-1.9139863535	 1.0642123877	-0.208153
C	 1.3038749411	-2.4930007661	 2.2786161284	-0.158279
C	 0.3247561777	-3.5208401154	 2.8542123788	-0.128105
N	 0.9095728316	-4.1890614321	 4.0096022468	-0.059904
C	 0.6519250824	-3.5802015016	 5.3113373867	-0.219499
C	-0.0229374022	-4.8466654786	 4.9155961873	-0.218938
H	 0.9905823407	 1.8282686665	 0.1497381584	 0.127311
H	-0.4119049615	 1.6836894584	-0.9391692786	 0.14683
H	-0.6571701591	 1.6642766454	 0.8251037528	 0.125999
H	 0.8845117757	 0.0215318161	 1.8494175047	 0.070462
H	 2.2391792384	-3.0132946269	 2.0406516984	 0.118134
H	 1.5385208607	-1.7360083211	 3.0478562823	 0.078431
H	-0.6310997093	-3.020215239	 3.0962143768	 0.075428
H	 0.1099093872	-4.2730232265	 2.0878325523	 0.117277
H	 1.4801989636	-3.5892799307	 6.0141071908	 0.115161
H	 0.0375411679	-2.680909404	 5.3415785986	 0.10485
H	-1.0856573488	-4.7902292823	 4.6838666655	 0.108933
H	 0.3038664695	-5.799441035	 5.3226146945	 0.115937
36.1201	48.537	66.5185	108.4288	139.3353	167.3478	229.5165	277.2033	321.7609	405.1736	419.2313	479.7332	609.658	776.2866	814.7965	847.1009	901.9658	984.9044	1015.5172	1032.4919	1042.604	1067.3097	1079.6298	1113.8162	1116.0552	1138.8392	1175.4926	1176.5195	1178.6657	1188.8543	1249.3623	1277.7114	1308.0445	1324.7391	1331.4953	1395.5109	1418.1048	1484.9877	1486.1672	1493.9988	1494.469	1500.725	1506.0775	1522.8675	1776.6461	2930.8192	2945.4289	2980.3979	3014.0263	3051.1269	3074.093	3075.1291	3089.5023	3095.5025	3144.7469	3173.748	3188.1253
COC=NCCN1CC1	COC=NCCN1CC1	
InChI=1S/C6H12N2O/c1-9-6-7-2-3-8-4-5-8/h6H,2-5H2,1H3	InChI=1S/C6H12N2O/c1-9-6-7-2-3-8-4-5-8/h6H,2-5H2,1H3
