21
gdb 116457	2.69487	1.29179	1.01445	1.7909	74.4	-0.2487	0.0825	0.3312	1247.401	0.183081	-461.369469	-461.360427	-461.359483	-461.403112	34.299	
C	 0.0388360632	 1.5488908465	 0.0551287365	-0.388852
C	-0.0240290247	 0.0216780941	-0.0204710324	-0.186387
C	 0.6916446012	-0.5508175797	-1.2363080749	 0.100318
O	 2.0720500647	-0.1623876146	-1.1685051585	-0.261657
C	 2.7938904987	-0.6160331269	-2.2821033263	 0.013329
O	 2.8114434944	-2.0181771175	-2.3758821533	-0.24778
C	 1.4885717292	-2.5314510206	-2.522917974	-0.120201
C	 0.6362304801	-2.0888819433	-1.3279837133	 0.116089
O	 1.1003620877	-2.6969613672	-0.1355462281	-0.435414
H	 1.075518376	 1.8926844676	 0.0913844967	 0.133381
H	-0.4372160449	 2.0115608286	-0.8170548343	 0.107979
H	-0.4749039209	 1.9162590408	 0.9483883728	 0.112155
H	 0.4132180383	-0.4296026253	 0.8750882099	 0.116552
H	-1.0678568575	-0.3142007303	-0.0598676327	 0.095418
H	 0.2520153993	-0.130282427	-2.1590999465	 0.060292
H	 2.3659541317	-0.1860144197	-3.2078449526	 0.079852
H	 3.8278947305	-0.2896424064	-2.1538614259	 0.120456
H	 1.0447993462	-2.1810938203	-3.469387033	 0.089215
H	 1.5759600603	-3.6197587765	-2.5514476966	 0.120852
H	-0.4002132239	-2.4177168313	-1.4642666688	 0.085436
H	 2.0288267904	-2.4450292311	-0.0538456446	 0.288964
91.7402	130.4784	167.7996	193.2874	215.5327	295.835	334.5547	360.1764	393.8132	426.3735	476.7876	586.7734	641.6018	760.9504	811.9186	833.116	876.3847	933.7075	953.2838	981.0812	1020.7228	1054.8424	1072.2874	1090.6959	1101.8253	1150.1915	1183.1686	1205.0339	1251.8003	1267.2723	1290.1675	1310.403	1336.3772	1338.9262	1367.4815	1393.1911	1406.2593	1410.8588	1429.4307	1443.5186	1479.5049	1486.1011	1496.91	1507.7257	1509.4946	2923.0399	2940.2595	2976.8751	3035.1175	3036.4758	3057.9948	3086.1371	3105.0959	3108.0535	3113.4274	3125.3184	3786.0822
CCC1OCOCC1O	CC[C@H]1OCOC[C@H]1O	
InChI=1S/C6H12O3/c1-2-6-5(7)3-8-4-9-6/h5-7H,2-4H2,1H3	InChI=1S/C6H12O3/c1-2-6-5(7)3-8-4-9-6/h5-7H,2-4H2,1H3/t5-,6-/m1/s1
