22
gdb 112818	2.43152	1.16144	0.94003	2.5386	79.87	-0.2073	0.061	0.2684	1362.2817	0.193014	-441.453347	-441.443307	-441.442363	-441.488574	37.045	
C	 0.0078465689	 1.5215311314	-0.1149046653	-0.38174
C	 0.0179127034	 0.006058173	 0.0745292774	-0.121555
N	-1.3225296334	-0.5377241405	 0.1341546356	-0.060538
C	-2.1534508006	-0.2853057179	 1.3281329439	-0.20307
C	-2.6477318893	-1.7589900608	 1.2835084439	 0.120102
O	-3.9578154493	-1.9930805524	 0.846838099	-0.444221
C	-1.4948461094	-1.9950675659	 0.2511905018	-0.009531
C	-1.8043253664	-2.728262018	-1.0448387989	-0.110697
O	-2.9066741795	-2.0938754183	-1.6967043062	-0.410505
H	 1.0285397825	 1.912672995	-0.1678026945	 0.109934
H	-0.5202019049	 1.7895664797	-1.0344413127	 0.125517
H	-0.4965854133	 2.0179846542	 0.7207258776	 0.12047
H	 0.5367610305	-0.4659720169	-0.7694158559	 0.095954
H	 0.5993659131	-0.2496099363	 0.9851838401	 0.067231
H	-1.5677824704	-0.060776434	 2.2353639621	 0.077854
H	-2.9253249525	 0.4812515605	 1.2009782639	 0.103026
H	-2.5306586861	-2.2987562912	 2.2260894936	 0.08389
H	-3.973088558	-1.8169839708	-0.105951323	 0.290201
H	-0.6346443006	-2.5007318397	 0.7254580769	 0.053053
H	-0.919339654	-2.7162634149	-1.6994636691	 0.098265
H	-2.0339280334	-3.777774013	-0.8085298882	 0.101279
H	-3.2234012574	-2.6786761633	-2.3912188521	 0.295079
58.711	80.757	134.6931	178.2163	208.9364	236.7813	261.4568	292.4099	332.3243	366.9892	420.576	481.5836	558.5925	637.1683	714.073	794.9707	809.0529	841.2661	914.8734	957.884	988.7479	997.0965	1030.6724	1058.0653	1107.6097	1124.3368	1142.5547	1180.0118	1192.0625	1219.4122	1224.646	1249.019	1261.1788	1283.8327	1309.492	1339.1477	1352.7235	1379.8061	1396.8944	1414.9061	1447.1605	1484.6371	1487.0519	1490.9056	1502.2166	1504.5153	1515.5851	2881.5311	2935.4734	2960.9601	2982.4994	3019.5141	3035.9753	3038.4754	3060.6384	3081.6443	3105.6705	3117.8882	3701.1509	3836.3273
CCN1CC(O)C1CO	CCN1C[C@@H](O)[C@H]1CO	
InChI=1S/C6H13NO2/c1-2-7-3-6(9)5(7)4-8/h5-6,8-9H,2-4H2,1H3	InChI=1S/C6H13NO2/c1-2-7-3-6(9)5(7)4-8/h5-6,8-9H,2-4H2,1H3/t5-,6-/m1/s1
