21
gdb 99369	6.74573	0.49313	0.47147	3.8144	81.1	-0.2457	-0.0221	0.2236	2293.7967	0.17829	-424.265887	-424.254718	-424.253774	-424.304938	37.383	
C	 0.1805056296	 1.5355058935	 0.0532004262	-0.375257
C	-0.0170450612	 0.0220962789	 0.0160549574	-0.275854
C	-1.4802023042	-0.4020243485	-0.0007259925	 0.372581
O	-2.3828287744	 0.4004179692	 0.0754049056	-0.295203
C	-1.7479776795	-1.8997809886	-0.1230244637	-0.300195
C	-3.2280177398	-2.2636674513	-0.0087150385	-0.185539
C	-3.4826591435	-3.7688999669	-0.1895711145	-0.282331
C	-4.9586804602	-4.097134929	-0.1627146111	 0.161413
O	-5.4731791666	-4.9134816287	 0.5565972293	-0.236547
H	 1.2444973385	 1.7858717319	 0.082499135	 0.110917
H	-0.2622072419	 2.0092098245	-0.8268117837	 0.130328
H	-0.303442597	 1.9688613084	 0.9317448942	 0.134154
H	 0.4775074236	-0.4247949581	-0.8573261224	 0.118825
H	 0.4559308661	-0.4592090632	 0.8838082226	 0.123115
H	-1.3387065891	-2.2339746495	-1.0877384554	 0.121847
H	-1.1513331383	-2.4249283425	 0.6351897498	 0.121597
H	-3.6056786932	-1.9372111749	 0.9662140498	 0.124953
H	-3.7942257333	-1.6931948448	-0.7529372351	 0.122181
H	-3.0962620714	-4.0862361809	-1.1701548596	 0.116428
H	-2.980286992	-4.3661300035	 0.5776381623	 0.120218
H	-5.5695829521	-3.5040407462	-0.8842938355	 0.072369
28.7604	40.888	59.59	77.6449	104.5284	121.4316	196.6927	231.3575	269.5444	315.0389	447.8124	470.6069	513.3022	646.7346	704.6294	755.3924	806.3588	837.4764	897.3263	966.8296	1002.0088	1020.5903	1032.494	1056.1187	1111.8513	1129.6937	1137.5716	1182.5533	1254.369	1268.6159	1294.2256	1327.5642	1337.944	1371.9324	1393.039	1414.6725	1430.6481	1446.5368	1458.2277	1462.8297	1493.0604	1495.1599	1498.5763	1806.4205	1837.891	2851.2478	3003.7056	3008.9668	3019.0241	3038.3203	3048.087	3049.9252	3052.6005	3080.3575	3098.8455	3123.2218	3129.6357
CCC(=O)CCCC=O	CCC(=O)CCCC=O	
InChI=1S/C7H12O2/c1-2-7(9)5-3-4-6-8/h6H,2-5H2,1H3	InChI=1S/C7H12O2/c1-2-7(9)5-3-4-6-8/h6H,2-5H2,1H3
