18
gdb 49708	3.00701	1.48695	1.44388	4.0568	76.63	-0.2384	0.0014	0.2398	991.1566	0.150456	-401.971625	-401.964496	-401.963552	-402.003489	28.291	
O	 0.0363678067	 0.0394095589	-0.3743282068	-0.341584
C	 0.0747690163	 1.232320352	-0.1499570581	 0.13489
N	 1.1754491247	 1.9200022155	 0.243036451	-0.000056
C	 2.5669140109	 1.4592017754	 0.1411766667	-0.075712
C	 2.9582854165	 2.0520945561	-1.2613883843	-0.209874
C	 2.1660154521	 3.3966452293	-1.2791909928	-0.206793
C	 1.4379935326	 3.3588484889	 0.1152235377	-0.094016
C	 2.5336846961	 3.5167977371	 1.1626572397	-0.065974
C	 3.2152999616	 2.3690131924	 1.1762785148	-0.067449
H	-0.8188991167	 1.8886738617	-0.1976560542	 0.066799
H	 2.6743504567	 0.383755117	 0.2502417373	 0.109132
H	 4.0370404656	 2.1853577455	-1.3627853635	 0.106474
H	 2.6171697462	 1.3802454921	-2.0525604535	 0.122508
H	 2.804318379	 4.2762748706	-1.3847704554	 0.107123
H	 1.4282269113	 3.4110695284	-2.085975109	 0.10904
H	 0.551420192	 3.9847835006	 0.2073448935	 0.087001
H	 2.7537357339	 4.4375745708	 1.6853670271	 0.108765
H	 4.1221258044	 2.1332412478	 1.7162258497	 0.109726
58.3931	192.3555	263.276	292.1613	368.3473	469.2057	525.4034	604.7744	704.9783	726.8765	756.7434	814.4424	850.4065	867.6968	877.7702	908.2091	922.5538	946.096	946.4823	982.9825	1029.8095	1052.192	1109.9351	1132.0252	1156.0844	1182.0366	1225.4815	1235.3397	1272.8061	1286.0816	1289.4692	1318.0666	1347.4053	1414.1471	1446.6705	1485.5575	1501.3837	1641.5633	1786.2422	2917.1373	3062.0828	3074.6682	3109.7475	3127.101	3132.2929	3170.8626	3216.3195	3240.7616
O=CN1C2CCC1C=C2	O=CN1[C@H]2CC[C@@H]1C=C2	
InChI=1S/C7H9NO/c9-5-8-6-1-2-7(8)4-3-6/h1-2,5-7H,3-4H2	InChI=1S/C7H9NO/c9-5-8-6-1-2-7(8)4-3-6/h1-2,5-7H,3-4H2/t6-,7+
