25
gdb 119973	2.848	0.76631	0.71641	1.2548	89.97	-0.2524	0.0749	0.3272	1759.5063	0.227179	-389.479202	-389.467791	-389.466847	-389.516613	40.863	
C	-2.8899730858	 0.1953306663	-2.6123697333	-0.382302
C	-2.1304702611	-1.0572818811	-2.1684290321	-0.15787
C	-0.6527858321	-1.0455910735	-2.5865166644	-0.191728
C	 0.0984132677	-2.2713281768	-2.1004760353	-0.043911
C	 0.191636236	-3.565992955	-2.8855502062	-0.00764
C	-0.4195555652	-3.7597756089	-4.257487593	-0.405457
C	 1.4327491241	-2.7268492268	-2.6600435825	-0.038015
C	 2.134389638	-2.015811645	-3.7873514302	-0.097798
O	 2.9371652443	-2.9744982027	-4.4713063838	-0.422726
H	-2.4431909722	 1.1013934297	-2.1875321169	 0.112355
H	-2.875841631	 0.3022583615	-3.7029813636	 0.112081
H	-3.937289677	 0.1617285809	-2.2960915788	 0.110639
H	-2.1937234391	-1.1577462008	-1.0767684924	 0.093409
H	-2.6146729039	-1.9507030958	-2.5822217571	 0.100744
H	-0.5935953406	-0.9503675691	-3.6761551334	 0.091332
H	-0.1742336794	-0.1427160819	-2.181035905	 0.091016
H	 0.0054001491	-2.4035090615	-1.0238338325	 0.07698
H	 0.1484846253	-4.4673711259	-2.2788210023	 0.079016
H	-0.4215300072	-2.8452374117	-4.8554275625	 0.111682
H	 0.1398048075	-4.5127433403	-4.8220648948	 0.127459
H	-1.4583180915	-4.0993709518	-4.1780605911	 0.110455
H	 2.136744451	-3.1224051805	-1.932223115	 0.083441
H	 1.4155207849	-1.5482057781	-4.4743329104	 0.080401
H	 2.7581904289	-1.2051992212	-3.3766894943	 0.084138
H	 3.4489038694	-2.50948526	-5.1401905193	 0.2823
56.6689	72.0494	82.2442	91.1135	133.7438	204.2839	226.8377	244.7756	262.8398	285.687	309.8947	360.1385	493.578	532.8138	570.215	738.7957	775.8769	778.9789	845.4485	883.3247	908.5138	945.4034	985.1307	1028.0003	1048.4205	1057.0959	1068.9545	1079.6059	1109.363	1136.749	1157.5046	1174.499	1193.2677	1247.4847	1258.0148	1264.7596	1284.4708	1300.6955	1327.4955	1375.4684	1376.7178	1402.1243	1411.9029	1419.0712	1449.4616	1473.781	1480.5672	1491.7707	1497.4355	1499.0576	1502.2345	1511.1092	1523.8608	2967.8066	3006.1124	3012.6605	3018.8046	3027.5531	3034.3901	3046.3341	3067.1513	3092.842	3093.9136	3100.0896	3109.5208	3112.5323	3127.887	3142.015	3821.0878
CCCC1C(C)C1CO	CCC[C@H]1[C@@H](C)[C@H]1CO	
InChI=1S/C8H16O/c1-3-4-7-6(2)8(7)5-9/h6-9H,3-5H2,1-2H3	InChI=1S/C8H16O/c1-3-4-7-6(2)8(7)5-9/h6-9H,3-5H2,1-2H3/t6-,7+,8-/m1/s1
