18
gdb 37524	3.66478	1.94527	1.69226	0.6735	72.96	-0.2216	0.0746	0.2963	842.1242	0.15237	-401.897255	-401.891575	-401.890631	-401.927016	24.748	
C	-0.0662360664	 1.5074575991	-0.0780024507	-0.177924
C	 1.4668912617	 1.4373379652	 0.0111258469	-0.096803
C	 1.2311457679	 0.1124083243	 0.8437793076	-0.013504
C	 1.8398469904	-1.0564122328	 0.0460080928	-0.054175
C	 3.2576965249	-0.8383490592	-0.4570336595	-0.105342
O	 3.1460443934	 0.2579782219	-1.376351026	-0.284767
C	 1.8111211395	 0.7349115424	-1.3173853053	 0.13254
C	 0.8831415312	-0.4884756332	-1.0320405938	-0.050549
N	-0.0696592652	 0.0056805629	 0.0498216884	-0.154737
H	-0.5530653639	 1.9429459846	 0.7991564691	 0.109083
H	-0.5227552671	 1.9086061847	-0.9899631249	 0.099855
H	 2.1056341453	 2.2625897662	 0.3262207099	 0.070917
H	 1.1772546297	 0.159466988	 1.931739903	 0.076431
H	 1.6049829636	-2.0424873879	 0.444014665	 0.087685
H	 3.9552274196	-0.5834830041	 0.3524317406	 0.100855
H	 3.6575165108	-1.7112661399	-0.9888992245	 0.103902
H	 1.6239388261	 1.3212769027	-2.2175864483	 0.081566
H	 0.4704081385	-1.0635080452	-1.8585797105	 0.074967
207.4215	337.5766	418.0372	442.6103	617.0905	645.2778	753.0559	784.6863	807.81	830.0675	869.3412	877.2689	896.8916	930.7054	942.3608	949.7348	974.0174	982.6646	1008.0397	1033.5742	1050.2474	1072.8919	1109.9399	1146.9769	1155.6821	1162.7636	1195.5381	1215.7707	1224.1498	1239.2176	1246.1817	1271.1168	1286.7524	1302.5067	1324.9381	1351.4201	1395.4559	1505.8517	1525.0146	3006.1511	3038.065	3039.8008	3098.4404	3107.4944	3111.5515	3119.3256	3130.6921	3140.4256
C1C2C3C4COC2C4N13	C1[C@H]2[C@@H]3[C@@H]4CO[C@H]2[C@@H]4N13	
InChI=1S/C7H9NO/c1-3-5-4-2-9-7(3)6(4)8(1)5/h3-7H,1-2H2	InChI=1S/C7H9NO/c1-3-5-4-2-9-7(3)6(4)8(1)5/h3-7H,1-2H2/t3-,4-,5+,6+,7+/m0/s1
