17
gdb 126010	3.06437	1.6024	1.10064	5.0276	74.51	-0.1987	0.0023	0.201	1070.87	0.139694	-414.176349	-414.16895	-414.168006	-414.208217	28.532	
C	-0.2363311072	 1.5777614779	-0.0447181823	-0.400472
C	 0.016941424	 0.0696808541	 0.0239429849	-0.121849
C	 0.9324701593	-0.459223548	-1.1451044819	-0.171569
N	 1.7070317474	-1.6118913292	-0.604529039	-0.401199
C	 1.7440927187	-1.3687198113	 0.7755245726	 0.338347
C	 0.8192307762	-0.4468811748	 1.1795381457	 0.322088
N	 0.9348149221	-0.460182373	 2.525876859	-0.332015
N	 1.9102446248	-1.3179619729	 2.9154763806	-0.134454
N	 2.4012206677	-1.8882020948	 1.8327836467	-0.303911
H	 0.7028138548	 2.1361454916	 0.0196344964	 0.125093
H	-0.729610127	 1.844885659	-0.9849604219	 0.124114
H	-0.8855752226	 1.9081053204	 0.7724606241	 0.117259
H	-0.9514142127	-0.4502625736	-0.017388096	 0.101837
H	 0.3459783066	-0.763355212	-2.0157265381	 0.115271
H	 1.6036730511	 0.3572803984	-1.4510130479	 0.10296
H	 2.6104300441	-1.7356729297	-1.0443365773	 0.242277
H	 0.4557556327	 0.071962128	 3.2336113043	 0.276224
111.9054	160.4804	219.8672	265.2861	317.7073	426.3315	487.9613	543.016	562.76	641.4489	689.5644	702.7341	759.3364	808.7391	907.6134	945.3797	1000.1885	1029.3993	1041.9688	1059.0934	1104.895	1127.6747	1174.9741	1197.8857	1235.5506	1305.0734	1307.8305	1347.2482	1368.94	1380.6956	1411.8318	1443.9709	1496.0161	1499.007	1510.6989	1558.0013	1623.3047	2986.1335	2994.1479	3034.0912	3090.5657	3102.7022	3109.9239	3560.688	3665.8768
CC1CNC2=C1NN=N2	C[C@H]1CNc2c1[nH]nn2	
InChI=1S/C5H8N4/c1-3-2-6-5-4(3)7-9-8-5/h3H,2H2,1H3,(H2,6,7,8,9)	InChI=1S/C5H8N4/c1-3-2-6-5-4(3)7-9-8-5/h3H,2H2,1H3,(H2,6,7,8,9)/t3-/m0/s1
