20
gdb 62868	2.84532	1.83185	1.44566	2.198	78.37	-0.2141	0.0693	0.2835	971.9535	0.17218	-403.079778	-403.072118	-403.071174	-403.11121	31.938	
C	-0.0688851441	 1.5514939574	 0.0388790041	-0.470296
C	-0.0318185424	 0.0175660875	 0.0300851949	 0.421276
O	-1.3654116912	-0.4084161558	 0.2654968049	-0.47896
C	 0.6895763334	-0.6406629962	-1.1800104326	-0.097087
C	 2.0280959664	-0.2278615467	-0.4526524445	-0.224423
C	 1.1826858145	-0.6294962982	 0.8010001874	-0.068085
N	 1.1972326644	-2.1094047231	 0.5887330119	-0.121707
C	-0.0641996483	-2.7852167939	 0.2078716807	-0.251303
C	 0.7637611748	-2.1395868316	-0.8448678314	-0.036429
H	 0.8733401868	 2.0450904452	-0.1919496863	 0.12783
H	-0.8198416524	 1.8906487351	-0.6816234587	 0.129102
H	-0.3782884754	 1.9018499718	 1.0328685315	 0.109614
H	-1.7382149443	 0.1532565437	 0.9526194541	 0.276751
H	 0.460843831	-0.3565917164	-2.2074257719	 0.065598
H	 2.8850330336	-0.8757354017	-0.6368355795	 0.112809
H	 2.3168493462	 0.8165884177	-0.5365826759	 0.09657
H	 1.447380454	-0.3440329121	 1.8197780495	 0.064341
H	 0.0329562708	-3.8657896614	 0.2932925606	 0.103337
H	-1.0206158794	-2.3811423405	 0.4918513648	 0.150564
H	 1.3501787117	-2.7561200708	-1.5229001934	 0.090496
158.4989	193.4898	236.4072	313.2293	320.3515	404.3518	449.1172	467.5243	535.0651	616.2317	670.5804	683.9799	739.5507	779.2642	799.5869	854.4797	880.261	907.5097	967.7157	1001.4441	1005.1714	1021.2533	1054.8491	1082.3802	1089.5661	1097.1216	1109.7267	1127.4748	1146.3291	1172.3098	1186.9956	1218.6683	1229.9332	1250.0242	1251.6169	1278.8104	1361.7032	1387.7918	1410.7549	1490.4518	1496.2486	1498.1905	1526.0567	3021.1166	3088.7711	3100.9608	3110.5687	3114.1285	3116.4403	3129.324	3150.6073	3177.1619	3284.9659	3812.1716
CC1(O)C2CC1N1CC21	C[C@@]1(O)[C@H]2C[C@@H]1N1C[C@@H]21	
InChI=1S/C7H11NO/c1-7(9)4-2-6(7)8-3-5(4)8/h4-6,9H,2-3H2,1H3	InChI=1S/C7H11NO/c1-7(9)4-2-6(7)8-3-5(4)8/h4-6,9H,2-3H2,1H3/t4-,5-,6-,7+,8?/m0/s1
