18
gdb 30945	2.42247	1.33274	0.91039	3.1341	77.52	-0.1837	0.0369	0.2206	1290.632	0.147821	-435.298473	-435.289012	-435.288068	-435.333009	34.512	
C	-0.0031230715	 1.6251921636	 0.3495956805	-0.372064
C	-0.014820527	 0.1369753761	-0.0419504733	-0.306053
C	-1.3801968483	-0.4570614267	-0.0935955142	 0.326374
C	-2.0664173604	-0.9654159453	-1.1274193679	 0.149663
N	-1.72774615	-1.1077926007	-2.4672961515	-0.593566
O	-3.3305713335	-1.4001644146	-0.6756104065	-0.239299
C	-3.4130068887	-1.1517057853	 0.6757839976	 0.453994
N	-4.3802642438	-1.4047258842	 1.4573946122	-0.611317
N	-2.2160157892	-0.5624079945	 1.0224530187	-0.400354
H	 1.0213888058	 2.0076980349	 0.3730591672	 0.120347
H	-0.5756088228	 2.2203824619	-0.367670545	 0.127812
H	-0.4413737984	 1.7865599826	 1.339891757	 0.115847
H	 0.432709618	 0.0043896121	-1.0306323556	 0.13523
H	 0.6056794124	-0.4288920145	 0.6666690527	 0.11041
H	-1.7353958815	-2.0789082846	-2.7662634842	 0.247849
H	-2.351980756	-0.5919469361	-3.0809961193	 0.247757
H	-5.1435133906	-1.8425198943	 0.9487796763	 0.21914
H	-1.9978196546	-0.3128904305	 1.9698088353	 0.26823
63.2411	93.3222	152.8819	188.353	205.7226	254.4026	282.7216	309.2418	366.3294	426.8108	544.6778	605.188	651.7038	667.7524	713.5611	750.9072	782.3134	806.093	831.098	955.7781	967.0667	1019.3068	1062.9456	1082.7424	1104.809	1219.6415	1248.4391	1262.5235	1317.0366	1350.7908	1373.8185	1410.375	1447.0046	1478.447	1497.032	1505.1757	1659.3789	1772.6937	1806.2213	3013.9915	3039.5241	3091.8351	3112.6831	3118.5018	3483.479	3540.8037	3543.1906	3704.4494
CCC1=C(N)OC(=N)N1	CCC1=C(N)O[C@H]([NH])N1	
InChI=1S/C5H9N3O/c1-2-3-4(6)9-5(7)8-3/h2,6H2,1H3,(H2,7,8)	InChI=1S/C5H10N3O/c1-2-3-4(6)9-5(7)8-3/h5,7-8H,2,6H2,1H3/t5-/m1/s1
