19
gdb 116846	6.70594	0.49418	0.46558	4.2332	85.8	-0.2566	-0.0465	0.2101	2368.4633	0.15501	-423.00228	-422.991169	-422.990225	-423.041188	36.579	
C	-0.0806991287	 1.4897475005	 0.1330522917	-0.38491
C	 0.0417501701	-0.0190117077	-0.0618331661	-0.27862
C	 0.7706732296	-0.4006901888	-1.341459768	 0.207427
O	 1.2074194323	 0.4164928401	-2.1239204993	-0.289105
C	 0.9127264838	-1.8269568968	-1.5706248975	 0.061708
C	 1.0286552427	-3.0136209514	-1.7571047359	 0.0964
C	 1.1574528355	-4.4482411981	-1.9625443118	-0.206701
O	 1.8419761664	-4.7139984713	-3.166158771	-0.223758
C	 1.9864607524	-6.0976025504	-3.3993054013	-0.221613
H	 0.9052013195	 1.9595493381	 0.1729654688	 0.134035
H	-0.6249840976	 1.9476416714	-0.6966312802	 0.134086
H	-0.6107187708	 1.7143425056	 1.062701162	 0.109866
H	 0.5724224772	-0.4934607072	 0.7748288741	 0.129047
H	-0.9429867938	-0.5053210518	-0.0849973396	 0.129079
H	 1.6893532012	-4.8917928827	-1.1017318219	 0.12434
H	 0.1515341917	-4.9050385637	-1.9734058052	 0.124344
H	 2.5226001721	-6.2086144695	-4.3437542472	 0.138001
H	 2.563769078	-6.588764141	-2.6000911854	 0.108191
H	 1.0109245683	-6.6026666855	-3.479981416	 0.108186
21.2403	51.431	56.2305	75.2678	148.9973	150.5848	196.138	223.6428	267.7056	315.4942	375.0533	419.4808	518.5117	566.5192	617.2956	746.5776	806.6727	948.6888	982.9341	1014.8361	1015.5751	1087.9782	1088.2369	1149.7257	1182.0616	1192.8702	1219.7723	1252.6151	1272.0804	1368.6774	1404.8079	1412.7302	1449.2215	1474.1573	1484.2697	1488.0904	1490.3497	1497.4251	1513.3579	1765.182	2333.8084	2942.1945	2958.9004	2971.8796	3016.687	3022.5991	3049.9297	3052.2753	3124.0313	3127.7452	3128.8003
CCC(=O)C#CCOC	CCC(=O)C#CCOC	
InChI=1S/C7H10O2/c1-3-7(8)5-4-6-9-2/h3,6H2,1-2H3	InChI=1S/C7H10O2/c1-3-7(8)5-4-6-9-2/h3,6H2,1-2H3
