19
gdb 72421	2.71624	1.71678	1.39457	2.7922	76.36	-0.2275	0.0309	0.2584	999.138	0.162198	-419.231277	-419.22376	-419.222816	-419.262816	30.517	
C	-0.1105981661	 1.4574832068	 0.0147012611	-0.477843
C	 0.054716063	-0.0414613589	 0.0090501879	 0.385338
C	 0.7952849143	-0.6770408899	-1.1843711692	-0.198386
N	 1.0709360827	-2.0549782418	-0.6974709178	-0.305852
C	 0.4126398379	-2.1318527315	 0.63378766	-0.096869
C	 0.7412992756	-0.7442256482	 1.1971355003	-0.255371
C	-1.079563131	-1.9792507155	 0.4139524144	 0.427715
N	-1.9744805048	-2.8650380143	 0.4997321422	-0.570067
O	-1.2671455465	-0.6726106043	 0.0248179956	-0.290104
H	 0.8684740683	 1.9451703169	 0.0327555265	 0.125576
H	-0.6464085828	 1.7940566323	-0.8778974421	 0.13172
H	-0.6758899112	 1.7781277919	 0.8938957015	 0.132144
H	 0.1626371114	-0.6544156422	-2.0777489373	 0.10946
H	 1.7288822421	-0.1466515796	-1.4082464081	 0.104816
H	 0.6840751269	-2.7534015729	-1.3223996988	 0.232627
H	 0.7033403278	-3.0173923175	 1.1937230076	 0.095936
H	 1.8138270007	-0.5515708588	 1.2585596485	 0.115397
H	 0.2526400909	-0.5264020493	 2.1489430805	 0.115491
H	-2.8850707391	-2.4838614334	 0.2333590372	 0.218271
145.8754	197.1672	253.5314	279.9917	283.3174	428.5995	447.8469	482.5315	571.0244	598.6322	708.6743	730.4515	814.7542	825.1949	873.8604	883.6671	898.2325	911.3154	952.1497	968.2558	986.129	1017.7382	1052.0801	1062.2756	1109.3428	1166.05	1181.4399	1227.339	1235.4053	1269.8655	1275.3677	1303.7328	1337.2519	1373.6006	1416.1878	1422.5942	1481.1361	1483.458	1495.5724	1510.1846	1784.6573	3022.4024	3044.4801	3072.0841	3079.3553	3116.1733	3121.9762	3141.5637	3155.321	3457.2706	3539.8008
CC12CNC(C1)C(=N)O2	C[C@@]12CN[C@@H](C1)[C]([NH])O2	
InChI=1S/C6H10N2O/c1-6-2-4(8-3-6)5(7)9-6/h4,7-8H,2-3H2,1H3	InChI=1S/C6H10N2O/c1-6-2-4(8-3-6)5(7)9-6/h4,7-8H,2-3H2,1H3/t4-,6-/m0/s1
