19
gdb 65353	4.04718	1.00302	0.91151	2.2652	83.55	-0.2356	0.0311	0.2666	1318.8758	0.158617	-381.985208	-381.976023	-381.975079	-382.018951	34.634	
C	 0.2190299266	 1.4619615799	-0.1039101638	-0.468396
C	 0.0172509543	-0.0272685287	 0.1111457899	 0.137977
N	 1.2464228745	-0.8677958657	 0.1242698398	-0.374042
C	 0.4749645771	-0.7287338773	 1.3621180321	-0.078226
C	 1.1582172257	-0.0194276421	 2.495409099	-0.018911
C	 2.4034336221	-0.5965303557	 3.0640738028	-0.236009
N	 2.4482353425	 0.6463331062	 2.2772674975	-0.315748
C	-1.1380594293	-0.587429213	-0.5476916647	 0.273869
C	-2.0942800729	-1.047381784	-1.1148708502	-0.445072
H	 1.0701371763	 1.8302930096	 0.4696048723	 0.151895
H	 0.3901789562	 1.6697160898	-1.1642387385	 0.129705
H	-0.6745329319	 2.0102907949	 0.2089507299	 0.128798
H	 1.0622948007	-1.7616723225	-0.322398264	 0.243014
H	-0.1447748529	-1.5707653728	 1.6658397783	 0.098966
H	 0.4859559972	 0.5163355994	 3.1628609874	 0.098323
H	 2.621439638	-0.4858849669	 4.1224183698	 0.116849
H	 2.7891924978	-1.5048242326	 2.6076645026	 0.112495
H	 2.7528062482	 0.407743541	 1.3332736427	 0.245511
H	-2.9416080801	-1.4528389294	-1.6103875029	 0.199001
101.7023	120.5386	129.6957	190.5859	194.4567	256.16	313.4389	375.0211	406.2254	546.9798	564.4272	606.7247	625.8052	656.3488	692.0846	771.1313	835.4038	857.177	910.814	952.0902	982.9998	999.5935	1038.7598	1068.7364	1085.4393	1105.6844	1122.0423	1145.8067	1192.8378	1213.9679	1280.968	1291.6405	1315.0341	1336.0477	1399.3189	1421.2555	1444.0541	1489.9142	1497.5189	1505.91	2231.4166	3049.7198	3106.6499	3113.6259	3119.9228	3127.8977	3152.8041	3193.9564	3465.8468	3501.0538	3517.6757
CC1(NC1C1CN1)C#C	C[C@]1(N[C@H]1[C@H]1CN1)C#C	
InChI=1S/C7H10N2/c1-3-7(2)6(9-7)5-4-8-5/h1,5-6,8-9H,4H2,2H3	InChI=1S/C7H10N2/c1-3-7(2)6(9-7)5-4-8-5/h1,5-6,8-9H,4H2,2H3/t5-,6+,7+/m1/s1
