18
gdb 107314	2.6773	1.65086	1.17154	2.6782	78.04	-0.2401	-0.052	0.1881	1074.4536	0.1481	-401.959635	-401.951544	-401.950599	-401.992234	30.946	
C	 0.4073193036	 1.3462693817	 0.3821886601	-0.385515
C	-0.2316791276	 0.0807570377	-0.2037410985	-0.272467
C	 0.5632276642	-0.4795970516	-1.363895132	 0.200063
C	 0.3915896188	 0.0855621207	-2.7447398033	-0.267437
N	-0.1283291798	-1.2587783505	-2.4056563003	-0.141816
C	 0.791886614	-2.2756905075	-2.7835384839	-0.037231
C	 1.9035956133	-2.3309058624	-2.0321359492	-0.21115
C	 1.8704456729	-1.2075413821	-1.0721568145	 0.341673
O	 2.6600263115	-0.9373717954	-0.1927002292	-0.345757
H	 1.4234103554	 1.1374146152	 0.7232634948	 0.155374
H	 0.4552836606	 2.1454993675	-0.3653640886	 0.109683
H	-0.1775739732	 1.714508188	 1.2300657178	 0.112766
H	-0.3093478724	-0.6890052977	 0.5726534923	 0.113129
H	-1.2512366243	 0.2840990536	-0.5490591814	 0.10744
H	-0.3618410609	 0.8546642054	-2.8921928822	 0.13314
H	 1.2496337599	 0.1288931696	-3.4093813767	 0.132634
H	 0.5304436147	-2.8890726522	-3.6379350746	 0.13113
H	 2.7181309792	-3.0362233301	-2.1130567507	 0.12434
87.3408	137.1034	208.6049	223.903	284.6679	323.003	363.7906	469.1012	488.7124	635.4073	668.8621	742.7934	783.85	805.8386	839.5348	848.6556	881.4429	923.4331	964.3098	984.112	1020.9984	1054.5375	1097.775	1110.7928	1123.5358	1135.8799	1173.4943	1259.9036	1317.9478	1345.1539	1355.3197	1370.6731	1409.0773	1482.7538	1495.08	1498.4265	1515.3699	1612.2378	1796.2861	3037.2073	3040.1514	3075.5291	3105.5624	3111.5029	3138.1204	3204.9727	3208.7214	3246.8314
CCC12CN1C=CC2=O	CC[C@]12CN1C=CC2=O	
InChI=1S/C7H9NO/c1-2-7-5-8(7)4-3-6(7)9/h3-4H,2,5H2,1H3	InChI=1S/C7H9NO/c1-2-7-5-8(7)4-3-6(7)9/h3-4H,2,5H2,1H3/t7-,8?/m1/s1
