19
gdb 31644	3.46393	1.06894	0.82964	2.1626	79.87	-0.2018	0.04	0.2418	1392.1679	0.158695	-419.248048	-419.238067	-419.237122	-419.28404	34.553	
C	 0.0453350052	 1.4677591332	 0.0205529493	-0.34045
N	-0.0046211329	 0.0206863745	-0.0089393617	-0.02597
C	 0.0133173866	-0.7648226612	-1.147331962	-0.20047
C	 0.018741083	-2.0574943719	-0.7033609194	 0.263115
C	 0.0244649092	-3.3129421411	-1.5125219907	-0.187621
O	 0.0508925108	-2.9597075312	-2.8882932226	-0.421436
N	 0.0098046136	-2.091288444	 0.6719656664	-0.366647
C	 0.0001560547	-0.8322337512	 1.0627090767	 0.324217
C	-0.007025957	-0.3757988899	 2.4837769325	-0.503777
H	 1.0766290902	 1.8395689718	 0.0360034456	 0.139065
H	-0.455283333	 1.8684478303	-0.8636852645	 0.144908
H	-0.4716456788	 1.8423778198	 0.9064979852	 0.142534
H	 0.0154370752	-0.3397725659	-2.1360058069	 0.132531
H	 0.8994289702	-3.9235572335	-1.2357151219	 0.100513
H	-0.867382264	-3.9128513604	-1.267869548	 0.100241
H	 0.045186349	-3.7714450911	-3.40222089	 0.288387
H	 0.8740915471	 0.2276535629	 2.7324878763	 0.127797
H	-0.8932424942	 0.2241909728	 2.7241324172	 0.128339
H	-0.009668965	-1.2588702337	 3.1237548088	 0.154725
40.6934	56.0388	134.0453	152.9096	163.7765	192.6708	235.7595	274.9869	311.9123	370.0637	497.3688	635.5601	642.5178	670.3425	692.6199	739.2483	797.0716	1008.8366	1021.6692	1049.1458	1059.6608	1067.598	1090.0758	1147.0577	1168.551	1215.8526	1232.1544	1239.6127	1317.9337	1382.4757	1406.3361	1439.8018	1463.6469	1469.7379	1482.0619	1492.3608	1499.6125	1515.0281	1518.4291	1559.4663	1618.0752	2962.8059	2981.1227	3023.417	3031.7195	3069.7739	3102.9146	3136.1437	3147.4668	3287.4009	3843.5035
CN1C=C(CO)N=C1C	Cn1cc(CO)nc1C	
InChI=1S/C6H10N2O/c1-5-7-6(4-9)3-8(5)2/h3,9H,4H2,1-2H3	InChI=1S/C6H10N2O/c1-5-7-6(4-9)3-8(5)2/h3,9H,4H2,1-2H3
