18
gdb 111033	2.56697	1.25921	0.99092	3.5153	77.84	-0.2778	0.023	0.3008	1217.398	0.148557	-401.904509	-401.896183	-401.895239	-401.937952	31.291	
O	-0.109651184	 1.4448559528	-0.1682648096	-0.418709
C	 0.052122795	 0.0566804644	 0.0923662593	-0.144652
C	-1.3303600015	-0.5582365715	 0.0022510713	 0.032598
C	-2.0439977036	-0.8132638593	-1.3657038827	-0.069755
C	-1.0994011001	-2.0286673546	-1.5998233729	-0.265127
C	-1.5349447741	-2.1099158485	-0.1000065714	 0.207301
C	-2.9819963076	-1.7916775886	-0.5982919395	-0.256547
C	-1.1441447837	-3.1018753758	 0.8710915513	 0.15259
N	-0.8217647968	-3.8905640177	 1.6534450172	-0.353108
H	 0.7375190195	 1.8781143802	-0.0288995921	 0.291577
H	 0.7574672778	-0.39876964	-0.6161162046	 0.093113
H	 0.4502735207	-0.1186906401	 1.1043052405	 0.103297
H	-1.9748297454	-0.0835728202	 0.7488508747	 0.089305
H	-2.3385847283	-0.0607789486	-2.0937938874	 0.095811
H	-1.4827180637	-2.824519697	-2.2420137042	 0.110104
H	-0.0473762168	-1.8337754705	-1.8041115631	 0.112236
H	-3.658952635	-1.3567976056	 0.1401045457	 0.111003
H	-3.4641628525	-2.5759357494	-1.1853195026	 0.108963
60.4247	110.2209	175.5012	213.1381	246.2663	334.3307	384.9414	515.6263	525.4325	544.2625	586.2466	627.8333	770.211	808.7379	875.7286	917.4664	949.1479	957.7184	998.7467	1030.7412	1064.5575	1079.3263	1101.6315	1130.2123	1143.1137	1159.4823	1166.6563	1213.9502	1225.2473	1236.3123	1257.5947	1262.2731	1275.6101	1403.9485	1471.0126	1501.9496	1520.4784	1546.5853	2348.4318	2979.4345	3016.473	3063.1344	3067.3623	3079.5276	3137.3398	3144.3725	3150.0972	3830.1681
OCC1C2CC1(C2)C#N	OC[C@H]1[C@H]2C[C@@]1(C2)C#N	
InChI=1S/C7H9NO/c8-4-7-1-5(2-7)6(7)3-9/h5-6,9H,1-3H2	InChI=1S/C7H9NO/c8-4-7-1-5(2-7)6(7)3-9/h5-6,9H,1-3H2/t5-,6-,7+/m0/s1
