13
gdb 131721	6.55236	0.89054	0.80873	2.5089	63.63	-0.2942	-0.0941	0.2001	1317.8311	0.089079	-486.047762	-486.039814	-486.038869	-486.081453	27.075	
O	 0.1616701405	 1.2730176742	-0.3302480398	-0.40449
C	 0.0038321249	-0.0068309971	 0.2428541094	-0.159303
C	-1.4213921688	-0.4671879129	 0.1834508798	 0.391002
N	-2.111249505	-1.0054298799	 1.1652800389	-0.279343
N	-3.2982441904	-1.224961842	 0.5767953428	 0.057935
C	-4.3852799531	-1.8116172593	 1.2900266805	 0.21317
O	-5.4521853009	-2.0220250223	 0.8061987002	-0.219147
N	-3.3389502901	-0.8324268209	-0.7087475977	-0.077165
N	-2.1656815357	-0.3578409744	-0.9667383265	-0.239298
H	-0.1990255644	 1.2397558467	-1.2239076163	 0.304596
H	 0.6409882909	-0.758143109	-0.2503643519	 0.12187
H	 0.3182559524	 0.0584349621	 1.2869400871	 0.145737
H	-4.0709226501	-2.0255711952	 2.3228295636	 0.144436
40.9406	97.2574	160.6928	220.2046	248.9702	304.1073	370.9399	404.2176	571.1201	689.4301	707.6895	785.2101	803.9834	980.1519	1000.8928	1031.3023	1072.3903	1097.8223	1187.0987	1200.7049	1274.0246	1344.3759	1375.1873	1404.7008	1415.1067	1439.4259	1495.6878	1572.9455	1866.9547	2982.384	3041.1194	3111.165	3803.119
OCC1=NN(C=O)N=N1	OCc1nn(C=O)nn1	
InChI=1S/C3H4N4O2/c8-1-3-4-6-7(2-9)5-3/h2,8H,1H2	InChI=1S/C3H4N4O2/c8-1-3-4-6-7(2-9)5-3/h2,8H,1H2
