15
gdb 12946	2.68182	2.20047	1.68668	3.3244	61.17	-0.2453	0.0006	0.2459	830.8473	0.118586	-399.791415	-399.783893	-399.782949	-399.822928	28.166	
C	 0.0197668841	 1.5594525759	 0.0153889523	-0.425372
C	 0.0885210905	 0.0500810033	 0.0669153126	-0.055783
C	 1.3231624131	-0.7476116058	-0.1464561461	 0.045377
O	 2.4719629548	-0.0255140605	 0.3768750114	-0.265036
C	 1.968615231	-0.1326257234	 1.6730107395	 0.402478
O	 2.5187814384	 0.1513147678	 2.6867984915	-0.328788
C	 0.6720976097	-0.7820332051	 1.230249997	 0.084976
N	-0.1007744404	-1.7710261773	 1.8800122498	-0.597537
H	 0.968183419	 2.0122970398	 0.3115575984	 0.148959
H	-0.2060957173	 1.8912007306	-1.003298899	 0.127722
H	-0.7673781034	 1.9389897867	 0.6740900147	 0.125066
H	-0.7960635009	-0.4659720092	-0.3045374624	 0.114237
H	 1.5192900714	-1.5335024668	-0.8616563576	 0.130548
H	 0.4815806766	-2.4094693633	 2.4119823461	 0.246888
H	-0.7703334168	-1.3575901228	 2.5206533117	 0.246265
126.5518	195.6447	200.8863	253.5825	276.3266	320.006	392.7296	506.5396	596.6796	656.1706	726.4117	742.0935	793.9337	822.1009	902.2835	922.2671	936.4133	973.4249	1052.791	1073.8492	1106.6889	1136.0424	1226.7565	1252.9429	1294.7953	1351.1475	1417.3863	1475.2935	1493.6457	1505.3948	1665.9273	1932.5691	3042.8302	3103.691	3124.923	3139.5071	3228.4928	3504.4716	3579.9962
CC1C2OC(=O)C12N	C[C@H]1[C@H]2OC(=O)[C@@]12N	
InChI=1S/C5H7NO2/c1-2-3-5(2,6)4(7)8-3/h2-3H,6H2,1H3	InChI=1S/C5H7NO2/c1-2-3-5(2,6)4(7)8-3/h2-3H,6H2,1H3/t2-,3+,5+/m0/s1
