17
gdb 39977	3.73116	1.63264	1.47638	1.9852	70.99	-0.2112	0.0693	0.2805	923.8169	0.136687	-421.753354	-421.746801	-421.745857	-421.7841	27.3	
C	-0.0646481164	 1.4831334936	 0.0209466584	-0.328556
C	 1.2828903147	 0.7760370604	 0.0022456	-0.3462
C	-0.0028634402	-0.0033712789	-0.0414827058	 0.498489
O	-0.4011090965	-0.7334431149	 1.1130429054	-0.300068
C	-0.6638160361	-2.0499777247	 0.6851017115	 0.05481
C	-1.6895089767	-2.2422195864	-0.4234742363	 0.062529
O	-1.895636348	-1.0045897434	-1.100689162	-0.292811
C	-0.4404605854	-0.845050722	-1.2075117378	-0.044703
C	-0.2103233255	-2.2993156488	-0.7240674751	-0.201235
H	-0.3884097225	 1.9140001782	 0.9612090918	 0.13125
H	-0.3836974469	 2.0265074828	-0.8619658951	 0.120934
H	 1.8944724772	 0.8391826449	-0.8921070734	 0.112648
H	 1.8364423924	 0.7376850891	 0.9335429301	 0.125639
H	-0.5571859846	-2.7943110278	 1.4644642128	 0.109207
H	-2.4812460601	-2.9821668748	-0.4487204822	 0.105903
H	-0.1259074227	-0.5247207551	-2.2003211017	 0.088699
H	 0.4649491972	-3.0516034022	-1.1070310504	 0.103465
122.224	243.72	278.6207	383.9797	459.7726	562.22	573.2627	731.6912	751.7707	761.798	794.28	822.0846	831.2197	867.877	892.9966	919.4875	939.2671	962.3333	982.6129	1016.583	1025.7599	1040.9691	1050.0552	1073.0442	1076.7224	1097.9105	1126.6994	1187.1556	1207.6962	1215.6883	1239.2184	1261.7784	1321.8616	1393.4041	1398.8991	1451.9143	1501.3544	3123.7097	3130.9207	3138.291	3180.434	3196.7029	3209.8771	3218.0308	3232.5825
C1CC11OC2C3OC1C23	C1CC21O[C@H]1[C@H]3O[C@@H]2[C@@H]13	
InChI=1S/C7H8O2/c1-2-7(1)6-3-4(8-6)5(3)9-7/h3-6H,1-2H2	InChI=1S/C7H8O2/c1-2-7(1)6-3-4(8-6)5(3)9-7/h3-6H,1-2H2/t3-,4+,5-,6-/m1/s1
