18
gdb 10495	2.81104	1.34959	1.0207	1.8313	77.87	-0.236	0.0483	0.2843	1205.8362	0.151923	-347.765835	-347.756437	-347.755492	-347.801129	32.993	
C	 0.0191026256	 1.4679364285	-0.0338130826	-0.501025
C	 0.015875186	 0.0115345623	-0.0244285855	 0.071102
C	-0.0138947139	-1.1944224578	-0.0057688777	-0.009007
C	 0.0230244849	-2.6345345349	-0.0240970377	 0.150394
C	 1.0581440705	-3.2058096778	-0.9862146778	-0.120258
O	 2.3773466815	-2.8066129237	-0.6707342562	-0.417306
C	-0.239024362	-3.3849052079	 1.2709674634	-0.284174
C	-1.2671853846	-3.4125919769	 0.1762784418	-0.299424
H	 0.7068181424	 1.8752420042	 0.7157900876	 0.148029
H	 0.323688442	 1.8589986514	-1.0109407466	 0.148791
H	-0.9788435382	 1.8655671892	 0.181983463	 0.150437
H	 1.0449660968	-4.2993926169	-0.929542924	 0.100314
H	 0.7889872652	-2.9202379368	-2.0155532344	 0.090494
H	 2.3705847779	-1.8434118313	-0.6181931189	 0.284322
H	 0.3551140337	-4.2747408028	 1.4482690283	 0.123637
H	-0.4499254241	-2.7966549971	 2.1558648257	 0.123361
H	-2.1781517284	-2.8416344127	 0.3097964377	 0.123095
H	-1.3866189954	-4.3252816489	-0.398564146	 0.117217
27.3613	74.5733	112.487	132.9801	224.4327	290.4095	301.4805	316.009	373.9618	442.7844	527.2816	548.7975	637.8312	784.0221	838.1649	914.9849	934.3819	948.7325	1036.5005	1051.7052	1053.2756	1059.0786	1071.2548	1082.4989	1089.8385	1191.1848	1207.1501	1287.546	1364.6257	1374.9441	1415.4881	1430.9338	1465.9511	1477.2574	1479.8996	1493.1496	1507.421	2357.6174	2977.3026	3025.1743	3070.2168	3084.5382	3086.9363	3134.3265	3140.5752	3220.0007	3234.7881	3784.7272
CC#CC1(CO)CC1	CC#CC1(CO)CC1	
InChI=1S/C7H10O/c1-2-3-7(6-8)4-5-7/h8H,4-6H2,1H3	InChI=1S/C7H10O/c1-2-3-7(6-8)4-5-7/h8H,4-6H2,1H3
