20
gdb 6835	3.06609	1.43768	1.2696	2.1735	71.09	-0.252	0.0732	0.3252	1062.25	0.175339	-386.12639	-386.117245	-386.116301	-386.159686	34.325	
C	-0.0796462118	 1.5712192595	-0.107993666	-0.44777
C	-0.0023604659	 0.0485127256	-0.0167043064	 0.378478
O	-1.2883322129	-0.527054519	-0.1679871836	-0.477825
C	 1.1507084662	-0.5563303117	-0.8789251112	-0.277985
C	 2.0144796275	-0.6501505853	 0.4076020965	-0.232419
C	 0.7143092216	-0.5155663463	 1.2430567199	 0.039848
C	 0.7277266546	 0.2616405656	 2.5425573931	-0.117649
O	 1.4913516285	-0.4894726459	 3.4787130067	-0.423368
H	 0.8991735523	 2.0397295154	 0.0324597271	 0.120683
H	-0.4405940303	 1.8681253177	-1.1012107321	 0.10403
H	-0.770124665	 1.974675622	 0.6389057716	 0.122707
H	-1.7045767218	-0.1365928517	-0.9443666366	 0.271272
H	 0.8601067743	-1.5425332822	-1.2493337347	 0.105391
H	 1.5291595966	 0.0449474017	-1.7105809801	 0.085976
H	 2.6077803724	-1.5535035897	 0.5533307655	 0.106113
H	 2.6701369169	 0.2174677007	 0.531139741	 0.096211
H	 0.2960362885	-1.5084554025	 1.4358744015	 0.093679
H	 1.1700007464	 1.2589338055	 2.3878697446	 0.076779
H	-0.3052634874	 0.4098973118	 2.8977425729	 0.090943
H	 1.5208038793	 0.0022233687	 4.3045491004	 0.284907
88.2399	127.1438	167.5425	248.8383	267.426	271.1152	279.2242	314.2715	350.6668	395.6077	478.3767	525.6	607.3442	751.42	799.9181	889.357	895.6044	913.5225	949.4256	975.1332	1009.9144	1056.5411	1099.2593	1113.362	1154.3855	1172.5277	1192.211	1208.5722	1240.2952	1256.6461	1263.5238	1283.0326	1306.1164	1364.2499	1380.9115	1406.9746	1462.3739	1477.6072	1492.4475	1494.8472	1499.9038	1522.8994	2961.3971	2989.6782	3020.536	3051.8377	3058.5492	3069.4543	3086.0555	3109.2474	3111.9875	3126.7203	3796.7245	3828.5145
CC1(O)CCC1CO	C[C@@]1(O)CC[C@H]1CO	
InChI=1S/C6H12O2/c1-6(8)3-2-5(6)4-7/h5,7-8H,2-4H2,1H3	InChI=1S/C6H12O2/c1-6(8)3-2-5(6)4-7/h5,7-8H,2-4H2,1H3/t5-,6+/m0/s1
