18
gdb 7674	3.62388	1.85622	1.64528	2.1619	66.97	-0.2429	0.0714	0.3143	860.873	0.152936	-384.904789	-384.897065	-384.896121	-384.936525	29.768	
C	 0.2104554262	 1.5154557926	 0.0316988967	-0.451044
C	 0.0434415995	 0.0072145408	-0.0052737653	 0.381118
O	-1.3199283847	-0.37850262	-0.1126082881	-0.476292
C	 0.9636045515	-0.8098687897	-0.9844151472	-0.298479
C	 1.4573587768	-1.68786042	 0.1972578458	-0.075651
C	 2.6711505619	-1.1156161858	 0.9447792971	-0.078684
O	 1.8306002719	-0.2390080511	 1.7354167402	-0.291588
C	 0.6313965339	-0.8099032548	 1.1779608868	 0.100998
H	 1.2408281806	 1.7857195639	 0.2736544689	 0.13268
H	-0.0436825983	 1.955914348	-0.940665438	 0.101119
H	-0.4494071923	 1.9495535653	 0.7890648321	 0.124437
H	-1.6647546808	-0.0191893829	-0.9375533226	 0.275779
H	 0.3782438271	-1.3559508583	-1.7274592954	 0.100944
H	 1.7468099915	-0.2402456998	-1.4936151902	 0.094745
H	 1.3691518338	-2.7686750935	 0.1071592343	 0.079409
H	 3.197705297	-1.8351013592	 1.5847666736	 0.102319
H	 3.4065440172	-0.5625661721	 0.3465100859	 0.098632
H	-0.0784633427	-1.1575643634	 1.9326337953	 0.079559
79.8839	215.8483	219.4626	261.2921	302.1198	353.3227	366.5456	426.7304	493.6664	609.1232	770.2877	790.9087	833.4121	881.1974	909.7547	921.5717	951.6535	980.8914	1008.5238	1017.1007	1051.3698	1108.8151	1137.7878	1156.3969	1177.0142	1201.1373	1215.1639	1238.1795	1265.3441	1286.2192	1315.8105	1357.4707	1377.1323	1401.0164	1463.6143	1482.1076	1495.4722	1521.6814	3007.2319	3025.3509	3050.3943	3052.7978	3083.149	3096.0805	3112.1873	3129.4072	3131.4212	3798.1966
CC1(O)CC2COC12	C[C@@]1(O)C[C@H]2CO[C@@H]12	
InChI=1S/C6H10O2/c1-6(7)2-4-3-8-5(4)6/h4-5,7H,2-3H2,1H3	InChI=1S/C6H10O2/c1-6(7)2-4-3-8-5(4)6/h4-5,7H,2-3H2,1H3/t4-,5+,6+/m0/s1
