15
gdb 97489	7.36762	0.42608	0.41497	1.4607	95.62	-0.2365	-0.0193	0.2172	2514.4439	0.10908	-383.391498	-383.381238	-383.380294	-383.429541	34.621	
O	 0.1411929249	 1.0847033983	 0.9160000293	-0.407259
C	-0.0229831846	 0.172669755	-0.1617074151	-0.244828
C	-1.3717242102	-0.3724635876	-0.1445952003	 0.318784
C	-2.4851481574	-0.8453456688	-0.1580903667	-0.208012
C	-3.7378564272	-1.3734677108	-0.1694642702	-0.20425
C	-4.8524832377	-1.8422295361	-0.1797993716	 0.311574
C	-6.2041252568	-2.3969433003	-0.1934400741	-0.528298
C	-6.2651996291	-3.8048877086	 0.2045484215	 0.316948
C	-6.3269193907	-4.9588926631	 0.5284056404	-0.437133
H	 1.0432189319	 1.4187328576	 0.873652473	 0.292481
H	 0.1488719713	 0.664326548	-1.1337860202	 0.123844
H	 0.6963323781	-0.6606452064	-0.0963675939	 0.124732
H	-6.8460552719	-1.8016576621	 0.4714466395	 0.16963
H	-6.6353389466	-2.2826956488	-1.1981572205	 0.167961
H	-6.3756537538	-5.9797382662	 0.8166652788	 0.203826
9.4897	54.5051	73.0825	129.2274	184.9777	216.8808	270.5756	314.9704	335.1236	366.2777	426.2779	532.9432	566.6796	596.5799	627.2381	653.0588	686.9558	908.3434	928.7556	975.8889	1020.2075	1059.3033	1227.6528	1239.3638	1242.2271	1277.3649	1340.0969	1445.8557	1460.6409	1496.8728	2248.7184	2283.9711	2389.7114	2958.6661	2976.8204	3003.5265	3028.0131	3506.5618	3817.0004
OCC#CC#CCC#C	OCC#CC#CCC#C	
InChI=1S/C8H6O/c1-2-3-4-5-6-7-8-9/h1,9H,3,8H2	InChI=1S/C8H6O/c1-2-3-4-5-6-7-8-9/h1,9H,3,8H2
