19
gdb 109882	2.54426	1.39895	1.07084	3.0373	70.94	-0.2417	0.0574	0.2991	1152.5088	0.158444	-460.116542	-460.107592	-460.106648	-460.149721	34.622	
O	-0.0727336285	 1.3718591919	-0.2882534453	-0.425889
C	 0.0003890994	 0.0296427621	 0.2103965602	-0.126931
C	-1.3885011287	-0.565938362	 0.0638688665	-0.092365
C	-2.0085880089	-0.5849843229	-1.3853802224	 0.114013
O	-1.1557595341	-0.2019686046	-2.4393459149	-0.441036
C	-2.2363291235	-2.0907993384	-1.2646252852	-0.116049
C	-0.9156899736	-2.7876757963	-1.0335540224	-0.350438
C	-1.5866866063	-2.0866211511	 0.1153826012	 0.366708
O	-2.0311265061	-2.7617919827	 1.2407265269	-0.463999
H	 0.8051691973	 1.7623620668	-0.2391596137	 0.29254
H	 0.7329512043	-0.5515363691	-0.3648492803	 0.098868
H	 0.3160363752	 0.0231304713	 1.2644165154	 0.093909
H	-2.0762694928	-0.072207256	 0.7558987274	 0.085332
H	-2.9541134896	-0.0285032367	-1.4159548798	 0.070733
H	-0.7792562913	 0.6485931016	-2.174287493	 0.286839
H	-3.1123813378	-2.6260093035	-1.6074261134	 0.092156
H	-0.991427616	-3.8692088141	-0.9823899923	 0.110877
H	-0.0135420562	-2.4115090432	-1.5050438209	 0.119396
H	-1.2679545725	-3.137374333	 1.692266766	 0.285334
125.2717	132.4451	175.9289	229.5122	265.2129	280.7924	323.6618	352.9542	393.7251	492.8272	503.165	557.1047	561.7266	678.1066	736.5057	802.1168	845.9167	909.8021	957.2881	985.0202	1000.7435	1024.7505	1043.544	1062.7276	1089.1714	1099.3658	1149.6684	1171.6082	1205.2058	1237.8093	1247.4244	1267.2872	1288.1205	1322.7267	1350.3756	1363.5914	1399.355	1426.2495	1455.5098	1492.4871	1519.4587	2988.7962	3011.4691	3033.2004	3077.8964	3127.0028	3197.0317	3215.178	3746.177	3800.6635	3825.377
OCC1C(O)C2CC12O	OC[C@H]1[C@@H](O)[C@H]2C[C@@]12O	
InChI=1S/C6H10O3/c7-2-4-5(8)3-1-6(3,4)9/h3-5,7-9H,1-2H2	InChI=1S/C6H10O3/c7-2-4-5(8)3-1-6(3,4)9/h3-5,7-9H,1-2H2/t3-,4+,5+,6+/m1/s1
