27
gdb 123141	5.44075	0.45086	0.43084	0.8894	95.03	-0.2452	0.0879	0.3331	2692.1826	0.249053	-390.704888	-390.692603	-390.691659	-390.744165	43.18	
C	-0.0968837551	 1.5375410818	-0.046698805	-0.379954
C	 0.1155045767	 0.0215177276	-0.0611462893	-0.162372
C	 0.6505941774	-0.5250509137	 1.2670679023	-0.162001
C	 0.8620784525	-2.0417959513	 1.2557753545	-0.191979
C	 1.399318215	-2.5750758198	 2.5782252072	-0.061629
O	 1.5440733905	-3.9755995596	 2.4694187345	-0.258992
C	 2.2160431748	-4.6091026844	 3.5509338423	 0.163258
C	 1.3425481976	-4.6876221119	 4.8076375726	-0.392487
C	 2.6232155217	-5.9918278278	 3.052552903	-0.386563
H	 0.8402823992	 2.0669189514	 0.1590853627	 0.112572
H	-0.4778755028	 1.8977034789	-1.0075115899	 0.110856
H	-0.8161535185	 1.8294059279	 0.7267715935	 0.112656
H	-0.8310291657	-0.4798921499	-0.3023490611	 0.095291
H	 0.8119232581	-0.2443067732	-0.8672702906	 0.095195
H	 1.5983922819	-0.0229873323	 1.5077271487	 0.091361
H	-0.045713646	-0.2569325043	 2.0741567944	 0.091799
H	-0.0832226563	-2.5521336718	 1.0335115997	 0.102837
H	 1.5606569678	-2.3207518111	 0.4574848539	 0.100949
H	 2.3727080428	-2.1084690864	 2.8112718836	 0.078975
H	 0.7114964195	-2.305306946	 3.3962610334	 0.083772
H	 3.1265394126	-4.0313795605	 3.7888550156	 0.059685
H	 0.421686525	-5.2398053253	 4.5929994969	 0.120135
H	 1.8761593784	-5.2043108705	 5.6119096964	 0.112122
H	 1.0693542394	-3.6952135492	 5.1772675758	 0.115186
H	 3.24230526	-5.9065236412	 2.1557057151	 0.118755
H	 3.1877202385	-6.5304457087	 3.8195545464	 0.109331
H	 1.7349924247	-6.5798018186	 2.7997650032	 0.121241
31.1154	44.7548	78.0964	107.6471	108.2091	160.4149	201.5822	209.398	246.8731	253.9721	254.8144	348.6281	380.3744	437.1245	502.8408	516.2286	735.0948	772.4802	829.3874	861.9757	896.9305	925.4736	935.4759	945.736	985.4828	1023.0677	1057.5027	1069.0197	1110.7187	1134.7615	1155.2394	1176.0068	1194.0848	1203.8846	1240.1337	1271.49	1298.7335	1316.3592	1333.0183	1349.8877	1366.2995	1373.7056	1396.0303	1400.0455	1411.8252	1412.7869	1439.9887	1480.518	1484.0464	1485.4208	1488.5691	1494.8359	1499.6099	1500.3845	1509.4869	1512.7054	1529.2392	2943.1826	2951.0708	2980.074	3001.6842	3016.0427	3026.0574	3028.3182	3030.7176	3036.1751	3041.9783	3050.3574	3074.8662	3094.8938	3100.5656	3106.0568	3112.7919	3115.3323	3122.0031
CCCCCOC(C)C	CCCCCOC(C)C	
InChI=1S/C8H18O/c1-4-5-6-7-9-8(2)3/h8H,4-7H2,1-3H3	InChI=1S/C8H18O/c1-4-5-6-7-9-8(2)3/h8H,4-7H2,1-3H3
