21
gdb 58200	2.68007	1.00592	0.87622	5.5285	79.08	-0.2564	0.0212	0.2776	1416.9864	0.180489	-420.412077	-420.401038	-420.400094	-420.448322	39.801	
C	 0.1213869376	 1.5750541538	 0.0218768247	-0.418246
C	 0.0284429993	 0.0415896724	 0.0683922396	 0.019897
C	 0.7322941173	-0.5099260663	 1.3164093984	-0.398231
C	-1.426745611	-0.4764506699	 0.0189049642	 0.125119
O	-2.2019397534	-0.0178235125	 1.1134390456	-0.420709
C	-2.1539669214	-0.1744314266	-1.328505328	-0.186039
N	-1.5273975044	-0.6895078127	-2.5457357983	-0.502878
C	-3.5338451061	-0.686867694	-1.2590791819	 0.314206
N	-4.6071795133	-1.1110638772	-1.2165795368	-0.319535
H	 1.1680716019	 1.8922321529	 0.0396561605	 0.12807
H	-0.330914515	 2.0028582398	-0.8792487092	 0.115586
H	-0.3623434609	 2.0306029539	 0.8937279106	 0.119119
H	 0.5434540713	-0.3601768121	-0.8141225452	 0.065933
H	 0.2068197046	-0.1942663059	 2.2222621116	 0.134348
H	 0.7544671602	-1.6045230026	 1.3083431312	 0.115507
H	 1.7648275268	-0.1521598409	 1.3734038657	 0.111677
H	-1.4043220055	-1.5675372082	 0.1330701797	 0.097326
H	-2.2976804078	 0.9384577923	 1.0453079898	 0.28775
H	-2.2297801532	 0.9155835533	-1.440600074	 0.125137
H	-0.6234608543	-0.2527572916	-2.6865165415	 0.242717
H	-1.3772783529	-1.691383208	-2.4717208368	 0.243245
42.1011	75.2458	133.2857	200.3553	208.2838	231.3002	242.8146	245.773	287.988	291.4612	309.9237	367.5426	423.0065	448.0789	529.0004	601.3097	628.2099	797.1208	833.7477	880.8417	921.3248	946.7704	967.462	1024.4151	1061.0932	1099.2157	1118.3917	1151.8845	1185.4491	1202.9581	1253.461	1290.2858	1336.8104	1362.9874	1376.7788	1399.8655	1402.2631	1418.4767	1424.2839	1486.7193	1494.4659	1508.7895	1513.3227	1653.7946	2365.3395	3016.894	3022.3473	3031.3246	3037.9077	3043.5309	3093.9931	3103.8162	3106.7984	3118.8016	3503.6328	3595.573	3807.0871
CC(C)C(O)C(N)C#N	CC(C)[C@@H](O)[C@@H](N)C#N	
InChI=1S/C6H12N2O/c1-4(2)6(9)5(8)3-7/h4-6,9H,8H2,1-2H3	InChI=1S/C6H12N2O/c1-4(2)6(9)5(8)3-7/h4-6,9H,8H2,1-2H3/t5-,6+/m0/s1
