18
gdb 117431	5.10758	0.63198	0.56841	2.2987	77.7	-0.2567	0.0198	0.2765	1902.4906	0.143744	-439.026282	-439.015862	-439.014918	-439.063158	35.537	
C	-0.2780415447	 1.4027384286	 0.0131701299	-0.224912
O	-0.0289788296	 0.0172453317	 0.0030373585	-0.207463
C	-1.2042809159	-0.7339525366	 0.0098398723	-0.117844
C	-0.8966570948	-2.2151623935	-0.0012491511	 0.391841
N	 0.275790573	-2.6810476609	-0.0154453009	-0.504301
O	-2.0929375347	-2.8760358094	 0.0070103686	-0.245982
C	-2.0499511992	-4.302085333	-0.0015169052	-0.265486
C	-3.4088522297	-4.818794692	 0.0088939383	 0.278586
C	-4.5173675703	-5.2787138072	 0.0170772839	-0.386953
H	 0.6920460123	 1.9043405068	 0.0069274702	 0.132694
H	-0.8513427962	 1.7232372886	-0.8715966133	 0.104146
H	-0.834671637	 1.7131852966	 0.9120532065	 0.104146
H	-1.8229917924	-0.5211549676	 0.8994272077	 0.110834
H	-1.839424587	-0.5113861466	-0.8656758659	 0.110833
H	 0.309968918	-3.6985647279	-0.021313067	 0.226134
H	-1.5162192885	-4.6557450757	-0.8951492777	 0.143319
H	-1.4988454956	-4.665826458	 0.8774032709	 0.143315
H	-5.5004283976	-5.6809471439	 0.0241409143	 0.207093
46.9711	65.8554	86.0806	92.3981	137.6281	191.125	233.8726	299.6622	338.5094	351.2161	392.3687	533.637	548.2643	621.2568	685.6016	692.0231	850.6852	928.917	977.8019	996.7465	1038.5147	1041.5043	1048.3041	1112.8233	1176.1379	1185.3186	1237.4122	1255.7154	1259.5022	1274.7896	1399.7736	1438.8781	1477.4033	1486.4414	1494.3438	1501.9861	1519.5488	1757.4704	2253.3429	2949.6532	2969.3614	2970.9251	2997.4151	3010.8871	3028.8242	3121.1054	3504.5273	3513.9418
COCC(=N)OCC#C	COC[C]([NH])OCC#C	
InChI=1S/C6H9NO2/c1-3-4-9-6(7)5-8-2/h1,7H,4-5H2,2H3	InChI=1S/C6H9NO2/c1-3-4-9-6(7)5-8-2/h1,7H,4-5H2,2H3
