17
gdb 51822	4.47839	0.96172	0.82135	4.8268	71.69	-0.2629	0.0018	0.2647	1346.5634	0.13588	-458.991848	-458.983666	-458.982722	-459.025304	29.735	
O	-0.0480686803	 0.0330700684	-0.0518417366	-0.268939
C	-0.0006636391	 1.2200682603	 0.0467364227	 0.177544
O	 1.1434200589	 1.9185631119	-0.1469461471	-0.187505
C	 1.0403737128	 3.3253872192	-0.0713186256	 0.208777
C	 2.440325821	 3.9058388416	 0.0705866069	-0.280623
C	 2.3983697302	 5.3867561199	-0.2037169604	-0.070298
C	 1.358264763	 5.9554390399	-0.8077001876	-0.065899
C	 0.1827799885	 5.1530655464	-1.2895053255	-0.119038
O	 0.4216444744	 3.7518427281	-1.2604084921	-0.256257
H	-0.8578285696	 1.8652318489	 0.3135482364	 0.088108
H	 0.4146756044	 3.6082856818	 0.7946597511	 0.075563
H	 2.8212975768	 3.7033057507	 1.0779190931	 0.119261
H	 3.1064202264	 3.3877121891	-0.6302377074	 0.139509
H	 3.2467819697	 5.9827056232	 0.1186948696	 0.101009
H	 1.317609448	 7.0273800663	-0.9783666448	 0.100892
H	-0.716975184	 5.4007034278	-0.6976243486	 0.10615
H	-0.050227501	 5.3912383565	-2.3329889039	 0.131744
70.5705	109.9302	139.3282	189.6668	255.1892	360.966	392.9467	446.8389	506.3226	555.5458	671.0682	687.8024	839.6116	884.6446	929.4263	962.3443	996.1341	1033.3223	1040.0517	1048.8919	1093.0391	1105.4741	1128.867	1165.4053	1211.1962	1229.1987	1267.852	1327.6591	1373.0943	1399.3683	1409.4723	1417.7094	1443.4189	1472.9013	1490.8887	1727.4925	1877.1487	2938.0048	2946.2019	2974.2201	3036.1851	3065.2908	3074.5556	3163.8999	3185.4782
O=COC1CC=CCO1	O=CO[C@H]1CC=CCO1	
InChI=1S/C6H8O3/c7-5-9-6-3-1-2-4-8-6/h1-2,5-6H,3-4H2	InChI=1S/C6H8O3/c7-5-9-6-3-1-2-4-8-6/h1-2,5-6H,3-4H2/t6-/m0/s1
