21
gdb 81246	2.74286	1.52295	1.39694	1.443	81.96	-0.2461	0.0745	0.3206	1051.6955	0.185169	-387.030226	-387.022602	-387.021658	-387.062009	31.49	
O	 0.0666381803	 1.4237451194	-0.2039846768	-0.459112
C	 0.0426326103	 0.0354731169	-0.0123603818	 0.171929
C	 0.0324837427	-0.6028682386	 1.3992025908	-0.139905
C	-1.48002698	-0.1700212826	 1.508753573	-0.35178
C	-1.314547251	-0.7578418948	 0.0715370505	 0.298035
C	-2.0599309152	-1.3086998379	-1.118077005	-0.357348
C	-1.0255784774	-2.3664199647	-1.6536037921	-0.19432
C	-0.0104840713	-2.7198883528	-0.4928553071	-0.284542
C	-0.5156654177	-1.9047620515	 0.7099681261	 0.031128
H	-0.559472409	 1.8399928254	 0.3964178909	 0.280372
H	 0.7872408884	-0.3553164867	-0.7056707636	 0.0787
H	 0.7880197644	-0.5150998892	 2.182239997	 0.07013
H	-2.0995088505	-0.7503483099	 2.1977979838	 0.098217
H	-1.698432273	 0.8960167035	 1.6271093323	 0.075959
H	-2.990701665	-1.7965381863	-0.8070093591	 0.099612
H	-2.3123656516	-0.5657762727	-1.880348747	 0.102638
H	-1.5382033657	-3.259755239	-2.0202953057	 0.100624
H	-0.4818994323	-1.9503630128	-2.5065393536	 0.108077
H	-0.0241720653	-3.7892758518	-0.2679817227	 0.096379
H	 1.0129564371	-2.4823534515	-0.7934713356	 0.109441
H	-1.1040659882	-2.5215344324	 1.3963868359	 0.065767
103.7525	196.6133	242.431	255.0986	355.3586	394.4951	458.5646	525.5292	597.9695	647.5729	692.4576	747.6634	789.2624	822.7477	850.2168	865.1667	871.967	925.5793	950.5266	958.0906	992.1805	1025.5735	1052.5572	1071.6994	1084.3278	1097.3557	1127.6887	1158.8636	1193.5166	1201.3862	1207.224	1224.9917	1237.8408	1254.0024	1277.989	1282.1275	1297.5669	1313.8696	1346.3654	1396.6877	1468.7008	1485.6529	1498.4214	1516.4506	1534.284	3038.3311	3043.5696	3048.5284	3056.1151	3068.1685	3081.7054	3092.5928	3095.0574	3100.9176	3110.7606	3123.3602	3822.329
OC1C2CC11CCCC21	O[C@H]1[C@H]2C[C@]31CCC[C@@H]23	
InChI=1S/C8H12O/c9-7-5-4-8(7)3-1-2-6(5)8/h5-7,9H,1-4H2	InChI=1S/C8H12O/c9-7-5-4-8(7)3-1-2-6(5)8/h5-7,9H,1-4H2/t5-,6-,7-,8+/m0/s1
