19
gdb 74364	2.68562	1.25986	1.01421	1.6599	84.51	-0.2398	0.0155	0.2553	1243.8801	0.158517	-385.863766	-385.854859	-385.853915	-385.897309	33.695	
C	 0.0393607151	 1.5321015584	 0.0815122492	-0.477274
C	-0.004225074	 0.0336602079	-0.0196466341	 0.290509
C	-0.0743379219	-0.6238809088	-1.1761850515	-0.165324
C	-0.0698201638	-2.1398672603	-1.2512223432	-0.216189
C	 0.4158894915	-2.7061023343	 0.1006075912	-0.096084
O	-0.2521552591	-2.0932799599	 1.180915199	-0.239591
C	 0.0464172478	-0.717552177	 1.2897167254	-0.148809
C	-1.3804054642	-2.6626445311	-1.6407557103	 0.352019
C	-2.4541639161	-3.0939995949	-1.96632446	-0.490934
H	 0.935205862	 1.868302839	 0.6194311509	 0.125711
H	 0.0426412099	 1.9993837867	-0.9063920663	 0.126986
H	-0.823430717	 1.9171865287	 0.6398153341	 0.129269
H	-0.1441102873	-0.0845393858	-2.1168867928	 0.091422
H	 0.6576497637	-2.4503292353	-2.0157675628	 0.106049
H	 0.2103895397	-3.7763661652	 0.171720808	 0.117943
H	 1.5047638875	-2.5493242224	 0.1755005212	 0.08749
H	 1.0406689366	-0.5717722448	 1.7545994157	 0.094142
H	-0.6899044149	-0.3021474846	 1.9883589	 0.117795
H	-3.4055143156	-3.4722320164	-2.2475837637	 0.194871
84.6216	107.7894	166.8216	184.8647	278.2754	314.3894	327.3142	400.0249	434.2503	475.7887	544.8109	573.9282	615.7832	632.8189	762.2318	790.127	861.53	904.7347	940.47	959.4815	1001.9625	1035.3797	1053.1484	1086.2934	1125.9746	1146.9661	1186.8474	1252.6091	1286.7061	1304.1294	1333.8252	1350.8517	1393.0837	1412.7249	1420.1612	1478.401	1481.8801	1490.0967	1496.9678	1744.5495	2233.0843	2921.2006	2968.1112	2997.6733	3016.9695	3049.0321	3063.7213	3105.7354	3115.6726	3162.1597	3504.8754
CC1=CC(COC1)C#C	CC1=C[C@@H](COC1)C#C	
InChI=1S/C8H10O/c1-3-8-4-7(2)5-9-6-8/h1,4,8H,5-6H2,2H3	InChI=1S/C8H10O/c1-3-8-4-7(2)5-9-6-8/h1,4,8H,5-6H2,2H3/t8-/m0/s1
