15
gdb 9085	5.3279	0.83752	0.75638	1.9022	63.39	-0.2641	-0.0349	0.2292	1394.1427	0.116408	-399.813227	-399.804319	-399.803375	-399.847891	30.065	
O	-0.0064838044	 1.4282677259	-0.0564548574	-0.404507
C	 0.0295202215	 0.015908826	 0.0295545982	-0.016984
C	 0.6417290562	-0.6488457662	-1.2191366316	-0.219756
C	-0.1269244208	-0.2708514343	-2.4933835075	-0.282361
C	 0.6008043009	-0.7113823615	-3.7441902317	 0.157315
O	 0.1222598728	-1.3844165369	-4.6182294451	-0.2295
C	 0.7401383073	-0.4253958537	 1.2467143472	 0.256531
N	 1.3299296176	-0.7540204406	 2.1843896152	-0.307
H	 0.8972316217	 1.7608736	-0.000412772	 0.298725
H	-1.0181825714	-0.2920342197	 0.1226867847	 0.14784
H	 1.6921017878	-0.3391821286	-1.2990683367	 0.116552
H	 0.6447227798	-1.7348504259	-1.0761525782	 0.139203
H	-1.1323965456	-0.7014546402	-2.5027266221	 0.128904
H	-0.2218606065	 0.8229347714	-2.5274744226	 0.141067
H	 1.6557146332	-0.3524350658	-3.8083027302	 0.073969
55.4106	74.971	102.1901	139.2334	214.7842	267.3493	316.5146	335.848	429.4359	508.0433	578.8963	592.2039	765.4405	836.5024	892.0834	986.1224	1007.2058	1071.1376	1103.4834	1113.5241	1186.3499	1249.0587	1272.915	1323.0481	1338.056	1381.5122	1421.0261	1431.6058	1465.7386	1487.0984	1840.9905	2356.5871	2850.3783	3026.9978	3031.5971	3059.5742	3080.8448	3105.428	3797.8849
OC(CCC=O)C#N	O[C@@H](CCC=O)C#N	
InChI=1S/C5H7NO2/c6-4-5(8)2-1-3-7/h3,5,8H,1-2H2	InChI=1S/C5H7NO2/c6-4-5(8)2-1-3-7/h3,5,8H,1-2H2/t5-/m0/s1
