18
gdb 8271	5.09349	1.09672	1.01399	2.093	74.31	-0.2432	0.0523	0.2956	1199.8338	0.151814	-347.760197	-347.751596	-347.750652	-347.793799	31.484	
C	 0.3597723337	 1.4835104442	 0.2084602364	-0.397893
C	 0.0055665657	 0.0370750357	-0.0658553932	 0.179287
C	 0.5852431397	-0.6545583437	-1.3201487089	-0.329523
C	 1.1219395056	-1.6970301906	-0.3187971034	 0.169537
C	 2.6252338072	-1.9833066381	-0.3286742365	-0.366642
C	 3.0468638969	-2.8717147381	 0.7466947468	 0.303312
C	 3.3744522406	-3.6143344826	 1.6326883617	-0.439278
O	 0.7137861495	-0.8852090921	 0.8016804361	-0.305129
H	 1.4350198088	 1.6500780553	 0.0909252952	 0.117253
H	-0.1753837541	 2.1457427674	-0.481154865	 0.115781
H	 0.0804489225	 1.7572979653	 1.2307625292	 0.130241
H	-1.0795661103	-0.1110119075	 0.0327919024	 0.07401
H	-0.1265896106	-1.0089016159	-2.0667452939	 0.108532
H	 1.3705965203	-0.0749819579	-1.8136790662	 0.104738
H	 0.5702014794	-2.6468177956	-0.333432605	 0.082917
H	 2.8824920356	-2.4266737571	-1.3006489933	 0.128413
H	 3.1617633521	-1.0288546202	-0.2619002838	 0.129405
H	 3.6686118774	-4.2628855886	 2.4199889214	 0.195038
53.0143	77.7334	137.057	216.5182	310.4522	332.8718	345.8042	387.4937	427.1757	510.2805	617.0799	638.0874	690.2556	820.9936	859.5708	909.6713	915.812	940.9162	965.3112	1035.611	1066.1153	1105.2787	1122.8675	1146.1668	1198.3711	1231.1838	1252.3865	1286.5217	1302.5823	1351.0863	1377.0372	1399.8795	1416.6725	1454.5058	1481.3049	1490.2447	1495.1583	2241.3659	2994.1918	3009.7268	3015.1595	3032.7827	3058.3165	3064.2724	3105.362	3112.1857	3128.5355	3507.5623
CC1CC(CC#C)O1	C[C@H]1C[C@@H](CC#C)O1	
InChI=1S/C7H10O/c1-3-4-7-5-6(2)8-7/h1,6-7H,4-5H2,2H3	InChI=1S/C7H10O/c1-3-4-7-5-6(2)8-7/h1,6-7H,4-5H2,2H3/t6-,7+/m0/s1
