21
gdb 73135	2.34877	1.7409	1.52684	1.473	80.24	-0.244	0.079	0.3231	1009.7694	0.18448	-387.078777	-387.071097	-387.070153	-387.110317	32.183	
O	 0.3421404979	 1.4128608731	-0.1174856855	-0.48754
C	 0.0025277554	 0.047682771	 0.0144650404	 0.429993
C	-1.3932121626	-0.1373485529	 0.6594918199	-0.263149
C	-0.7850248454	-1.1690176071	 1.6542704441	-0.24533
C	 0.6484966743	-0.77473206	 1.1831319294	-0.053198
C	 1.6055146429	-1.8223331681	 0.5767150794	-0.259325
C	 1.3221599795	-1.8395495954	-0.9267910999	-0.030676
C	-0.0729292041	-2.1875369126	-1.3691616903	-0.300284
C	 0.3276834364	-0.7366136303	-1.2544196093	-0.121038
H	 1.2280998113	 1.4636190938	-0.4934051385	 0.271475
H	-1.7107610815	 0.7844916057	 1.1514235955	 0.110472
H	-2.1935739081	-0.4834216889	 0.0018833859	 0.098194
H	-0.9956628674	-0.9850751232	 2.7100398568	 0.097565
H	-1.0491645536	-2.2075063962	 1.4384534022	 0.099986
H	 1.1450325651	-0.1321945085	 1.9133721097	 0.072571
H	 2.6472763326	-1.5272658235	 0.7459537045	 0.09573
H	 1.4809071259	-2.8108802627	 1.0346170306	 0.1001
H	 2.1416417037	-2.0724333549	-1.5986237944	 0.079863
H	-0.1950058235	-2.5760067708	-2.3749139197	 0.109458
H	-0.7686282696	-2.6133522845	-0.6547474016	 0.114172
H	 0.3868353907	-0.156413984	-2.1697297493	 0.080961
142.1715	205.3214	250.4749	312.1322	337.687	366.4667	410.3586	450.4895	573.8339	637.0745	666.8484	734.6061	783.5253	794.9384	818.6133	865.3762	868.9271	908.6626	941.2382	996.5149	1006.1767	1012.9501	1033.8712	1049.4952	1064.9703	1090.1738	1107.7982	1126.3869	1141.7171	1164.9225	1201.952	1219.3585	1224.9112	1240.4008	1261.2647	1266.1295	1303.1649	1330.7232	1360.768	1373.0038	1383.483	1472.8289	1483.1214	1492.1613	1503.3039	3029.1264	3058.4052	3061.9842	3069.659	3082.9047	3105.4633	3128.0613	3132.906	3154.8605	3164.1236	3212.9226	3796.6062
OC12CCC1CC1CC21	O[C@]12CC[C@H]1C[C@H]1C[C@@H]21	
InChI=1S/C8H12O/c9-8-2-1-6(8)3-5-4-7(5)8/h5-7,9H,1-4H2	InChI=1S/C8H12O/c9-8-2-1-6(8)3-5-4-7(5)8/h5-7,9H,1-4H2/t5-,6-,7+,8+/m0/s1
