15
gdb 131779	3.30328	0.9898	0.7993	2.4672	65.	-0.2411	-0.0394	0.2017	1356.6955	0.111254	-491.051344	-491.042591	-491.041647	-491.085949	30.614	
O	-0.0539246548	 1.500350193	-0.155501283	-0.415621
C	 0.0816064844	 0.0915324202	-0.1350992574	-0.06976
C	-1.3165742407	-0.4816545589	 0.1245714666	-0.30434
C	-1.3389777339	-1.9654509884	 0.1663996546	 0.313114
C	-1.5930587484	-2.8821633524	 1.142615632	 0.235313
O	-1.9222006075	-2.6711614681	 2.4294511445	-0.425379
N	-1.4602139646	-4.1282142748	 0.6000106176	-0.204614
N	-1.1436061869	-4.0352868078	-0.6257178383	-0.018052
O	-1.0545104865	-2.6717088567	-0.9459197501	-0.209327
H	 0.8095593878	 1.8856628815	-0.3302065377	 0.291945
H	 0.4638470207	-0.2963723755	-1.0908558554	 0.108653
H	 0.7683406902	-0.2417092542	 0.6582426494	 0.099026
H	-1.6887252728	-0.1016223409	 1.0800694139	 0.142808
H	-1.9900794389	-0.1142160475	-0.6581171316	 0.141203
H	-2.0526593481	-3.5331122498	 2.8429330549	 0.315031
43.3453	88.1162	114.9129	241.7013	245.3641	272.6808	314.0472	346.949	386.8938	486.4427	669.7598	697.0806	731.1011	759.6556	800.3178	821.2929	1002.4085	1014.8667	1055.8244	1086.6276	1137.0365	1198.696	1238.9576	1267.6756	1293.848	1316.4704	1356.0462	1414.933	1450.2476	1458.0727	1482.1168	1529.4012	1717.8782	2980.3621	3015.0254	3048.6017	3107.0218	3808.6036	3834.3623
OCCC1=C(O)N=NO1	OCCc1c(O)nno1	
InChI=1S/C4H6N2O3/c7-2-1-3-4(8)5-6-9-3/h7-8H,1-2H2	InChI=1S/C4H6N2O3/c7-2-1-3-4(8)5-6-9-3/h7-8H,1-2H2
