23
gdb 82935	2.03613	1.74311	1.43096	0.1805	88.4	-0.2318	0.0813	0.313	1104.9323	0.20725	-351.137123	-351.128581	-351.127637	-351.169474	34.844	
C	-0.2775896532	 1.5517505079	-0.0712799035	-0.43243
C	 0.0285946341	 0.0683085557	 0.0475145404	-0.047325
C	 1.3270874187	-0.6002486872	-0.3571630275	-0.106091
C	 2.6408053567	 0.1932894486	-0.3702983615	-0.258033
C	 3.0247588529	 0.4620924971	 1.0931600191	-0.026306
C	 2.2244153266	 1.4274490589	 1.9315463596	-0.311179
C	 1.8986265606	-0.0474807177	 1.9694391578	-0.088057
C	 0.8430138906	-0.6962760934	 1.0840287033	 0.33569
C	 0.2426602015	-1.9687770558	 1.6454120623	-0.483275
H	 0.6049913204	 2.1605027608	-0.2784120684	 0.125691
H	-0.9680555807	 1.7093706018	-0.9068954466	 0.11034
H	-0.7589197734	 1.950511881	 0.8281451521	 0.121217
H	-0.8349047014	-0.524255758	-0.2522377127	 0.076391
H	 1.2645320623	-1.4544032039	-1.0258665047	 0.073139
H	 3.4187173651	-0.4167585968	-0.8402822291	 0.10119
H	 2.5761105518	 1.1147768628	-0.9626065039	 0.10028
H	 4.0623853553	 0.3083403482	 1.3708693161	 0.078974
H	 2.725589149	 1.8275918133	 2.808033763	 0.103234
H	 1.5479933812	 2.1299248205	 1.469731842	 0.113247
H	 2.1109549073	-0.5758221979	 2.8930458625	 0.07499
H	-0.3874589112	-1.762768993	 2.5192360745	 0.115137
H	-0.3799822793	-2.4760124888	 0.901885244	 0.110482
H	 1.0237746951	-2.6714906741	 1.9598751011	 0.112693
146.8696	189.6769	204.7151	232.7836	254.1003	288.0859	322.3373	384.5751	495.0704	538.3511	600.3192	661.8358	680.1746	764.7699	788.585	805.3933	831.4801	885.413	906.7762	949.9492	985.5168	1002.9014	1029.4896	1047.5686	1061.9735	1069.5354	1088.6768	1104.7567	1114.2525	1119.1399	1131.9832	1164.1237	1202.948	1220.8168	1227.2615	1296.226	1308.4368	1352.1771	1368.5858	1384.4174	1414.4865	1418.3534	1453.6165	1484.4946	1490.1292	1493.3794	1501.6434	1508.0292	1518.738	3017.1505	3028.6771	3034.0656	3071.0258	3074.2153	3085.3511	3094.7763	3101.788	3120.4476	3137.1535	3139.2163	3151.8276	3163.3951	3258.2037
CC1C2CC3CC3C12C	C[C@H]1[C@H]2C[C@H]3C[C@H]3[C@@]12C	
InChI=1S/C9H14/c1-5-7-3-6-4-8(6)9(5,7)2/h5-8H,3-4H2,1-2H3	InChI=1S/C9H14/c1-5-7-3-6-4-8(6)9(5,7)2/h5-8H,3-4H2,1-2H3/t5-,6-,7+,8+,9-/m0/s1
