14
gdb 130623	4.82188	1.27655	1.02212	3.4433	67.52	-0.2543	-0.0395	0.2148	1062.6616	0.10339	-432.887723	-432.881061	-432.880117	-432.919135	25.489	
O	 0.0120963587	 0.0538291917	 0.0042833849	-0.28381
C	-0.0072830201	 1.2509286238	 0.0105636624	 0.407016
C	-1.3220347895	 2.1053624924	 0.0331849553	-0.472195
C	-0.7528245721	 3.4780223767	 0.0321654613	 0.343464
C	 0.6165991013	 3.5284810898	 0.0135118878	 0.294254
C	 1.2450541612	 2.1754214347	-0.0018880253	-0.456885
N	 1.0253130941	 4.8231722874	 0.014285869	-0.283919
N	-0.0348687229	 5.5841986844	 0.032644952	-0.117204
N	-1.1283684708	 4.7715326818	 0.04375131	-0.325933
H	-1.9330514294	 1.8551949335	-0.8417111777	 0.152897
H	-1.9084179367	 1.8463426123	 0.9222541229	 0.152907
H	 1.871120621	 1.9497629453	 0.8687836358	 0.153616
H	 1.8471282355	 1.9586060221	-0.8915144358	 0.153612
H	-2.0432214804	 5.1923795941	 0.0584719975	 0.28218
73.8345	231.9145	253.869	351.9189	478.5165	508.0118	526.1973	560.2658	675.3746	719.5489	725.3672	730.0564	816.5203	852.4469	990.1081	1009.4285	1033.6756	1057.5098	1133.9539	1175.6053	1191.1447	1223.0184	1230.1591	1261.9441	1368.7527	1391.5726	1448.5329	1460.3901	1525.6981	1605.6693	1866.7034	3040.727	3046.1867	3075.8697	3078.9035	3663.5499
O=C1CC2=C(C1)N=NN2	O=C1Cc2c(C1)nn[nH]2	
InChI=1S/C5H5N3O/c9-3-1-4-5(2-3)7-8-6-4/h1-2H2,(H,6,7,8)	InChI=1S/C5H5N3O/c9-3-1-4-5(2-3)7-8-6-4/h1-2H2,(H,6,7,8)
