15
gdb 42857	3.35539	1.08451	0.97746	2.5476	71.06	-0.2641	-0.0191	0.245	1206.3917	0.110156	-420.525517	-420.517472	-420.516528	-420.558794	29.908	
O	-0.2150625587	-0.0402678186	 0.1463404969	-0.305166
C	-0.1162104879	 1.1330656008	 0.0187498778	 0.449168
C	-0.9420376074	 2.4503209668	-0.0682464872	-0.068363
O	-0.0328319979	 2.9088780813	 1.016453582	-0.30068
C	 0.9116864493	 2.3041534237	 0.0421150074	-0.098434
C	 0.0959865017	 2.9849931057	-1.0905266765	 0.023139
C	 0.1392266002	 2.4596607862	-2.5268182588	-0.408031
C	-0.9489838855	 2.9944354299	-3.3372903189	 0.304299
C	-1.8568116499	 3.4503388104	-3.9788218831	-0.442419
H	-2.003109376	 2.6642955303	 0.0328062606	 0.121637
H	 1.974094354	 2.3488285258	 0.2719876047	 0.116534
H	 0.1715510066	 4.0723668434	-1.0258021844	 0.112639
H	 1.1034648822	 2.7287272273	-2.9766384545	 0.14303
H	 0.0968847367	 1.3624496761	-2.5299040797	 0.1493
H	-2.6543481775	 3.8449834409	-4.5583762764	 0.203347
55.6199	108.5574	141.8731	291.9311	298.0724	342.9597	432.1172	452.3132	583.9291	629.6074	645.4438	657.0483	769.4525	798.5299	804.3578	882.6803	891.7315	939.5416	972.3178	992.101	1032.4648	1090.8854	1132.9727	1135.7326	1201.4812	1211.1955	1242.3805	1250.4476	1321.1311	1386.6669	1470.4117	1938.9729	2242.3645	3020.1026	3051.9386	3108.2464	3154.3669	3165.4673	3505.4254
O=C1C2OC1C2CC#C	O=C1[C@H]2O[C@@H]1[C@H]2CC#C	
InChI=1S/C7H6O2/c1-2-3-4-6-5(8)7(4)9-6/h1,4,6-7H,3H2	InChI=1S/C7H6O2/c1-2-3-4-6-5(8)7(4)9-6/h1,4,6-7H,3H2/t4-,6-,7+
