17
gdb 101971	1.77376	1.56645	1.14515	2.0625	76.42	-0.2559	-0.0609	0.195	1160.8999	0.130777	-421.803688	-421.793485	-421.792541	-421.838899	35.785	
C	-0.117433082	 1.6851862015	 0.1792041842	-0.420357
C	-0.0265369108	 0.1598452007	 0.0497947698	-0.202438
C	 0.6939145641	-0.3490188069	-1.2170351927	-0.11871
C	-0.010193109	 0.0556260867	-2.5343414142	 0.146819
O	-1.091442146	 0.5698936865	-2.5922511448	-0.232249
C	 2.1781211923	 0.0811717294	-1.3000940316	 0.146815
O	 2.7777210409	 0.6151147171	-0.4099810727	-0.232247
C	 0.7441471556	-1.8118603117	-1.2757269125	 0.307335
C	 0.8074714235	-3.0098734585	-1.3632914432	-0.451579
H	 0.8734924461	 2.1410198763	 0.2239126841	 0.138698
H	-0.6764802692	 2.1228084242	-0.6500549729	 0.138704
H	-0.642417612	 1.938832049	 1.1049826137	 0.117405
H	 0.5030157513	-0.256688725	 0.9112919843	 0.122032
H	-1.0301657133	-0.274689506	 0.0466065003	 0.12203
H	 0.5630662754	-0.2096413309	-3.4488778834	 0.102056
H	 2.6689408472	-0.1851400727	-2.2611059453	 0.102059
H	 0.8494669359	-4.0703355397	-1.4164186331	 0.213627
82.5795	95.9648	117.8274	143.4852	192.4044	203.6226	204.3585	271.9033	301.7731	378.0199	470.5886	478.8021	500.8882	627.7796	654.2398	664.4517	747.263	783.9369	882.5528	928.9946	992.7583	1018.6134	1061.1219	1147.3104	1157.1297	1201.7267	1315.5146	1362.3826	1406.0895	1406.6768	1436.2254	1474.8215	1501.645	1512.7762	1817.8475	1855.7132	2219.1452	2888.1545	2906.9053	3056.415	3062.0667	3103.0953	3122.7608	3149.0424	3496.9761
CCC(C=O)(C=O)C#C	CCC(C=O)(C=O)C#C	
InChI=1S/C7H8O2/c1-3-7(4-2,5-8)6-9/h1,5-6H,4H2,2H3	InChI=1S/C7H8O2/c1-3-7(4-2,5-8)6-9/h1,5-6H,4H2,2H3
