18
gdb 85376	1.99672	1.67018	0.9461	3.4525	74.65	-0.2716	-0.0158	0.2558	1220.3848	0.148061	-439.150255	-439.141828	-439.140884	-439.183713	31.527	
C	-0.0262193875	 1.5661046511	-0.0079194374	-0.405595
C	 0.0112026165	 0.0371941325	-0.0217157731	-0.008848
C	 0.7680901217	-0.5124648088	-1.2362315914	-0.274963
C	 0.7890359111	-2.0143654396	-1.241711851	 0.391376
N	 0.6838807148	-2.698338619	-2.2948498685	-0.486064
O	 0.9469384285	-2.6519450304	-0.0165982652	-0.23568
C	 0.8868636061	-2.029966731	 1.2136972757	 0.406893
O	 1.0134265604	-2.708221373	 2.1895777476	-0.298206
C	 0.6820652893	-0.5284239773	 1.2334627151	-0.337908
H	 0.9874418097	 1.9827144269	 0.0176641497	 0.120004
H	-0.5260266196	 1.9547232357	-0.9004974735	 0.125213
H	-0.5641697067	 1.9401065804	 0.8689215732	 0.123425
H	-1.0211161154	-0.3360740142	-0.0624995324	 0.096927
H	 0.3361343273	-0.1867830937	-2.183800866	 0.14095
H	 1.8045410696	-0.1460247606	-1.2075396697	 0.125866
H	 0.7370961085	-3.6963485919	-2.0803800344	 0.233203
H	 1.6788924423	-0.0791157794	 1.3498788521	 0.139921
H	 0.1310837734	-0.2980934277	 2.1483853392	 0.143485
72.4946	107.6208	145.8071	238.6915	270.3102	349.6661	409.4213	432.3041	440.9677	542.4336	567.5184	612.0939	628.3123	817.5863	878.5637	889.3295	922.1351	936.5418	959.7573	984.867	1071.661	1109.0944	1112.9668	1145.4991	1164.735	1213.1612	1276.6944	1298.7287	1311.3954	1343.4435	1371.3816	1396.0317	1414.2766	1456.9492	1474.5613	1497.4389	1498.3843	1765.7365	1869.7827	3007.4039	3017.192	3027.2804	3032.6871	3098.2405	3107.9836	3109.0605	3123.6797	3469.5048
CC1CC(=N)OC(=O)C1	C[C@H]1C[C]([NH])OC(=O)C1	
InChI=1S/C6H9NO2/c1-4-2-5(7)9-6(8)3-4/h4,7H,2-3H2,1H3	InChI=1S/C6H9NO2/c1-4-2-5(7)9-6(8)3-4/h4,7H,2-3H2,1H3/t4-/m0/s1
