14
gdb 20668	3.2852	1.9314	1.22556	5.4834	66.39	-0.2441	-0.0462	0.1979	926.2465	0.108178	-378.755809	-378.748469	-378.747525	-378.787764	25.991	
C	-0.0283565845	 1.5268165204	 0.0202659142	-0.514736
C	-0.0092927656	 0.0277943365	 0.0073099315	 0.148704
C	-0.0259488765	-0.7971995888	-1.0954622667	-0.103459
N	 0.0026414219	-2.0742362857	-0.6253858389	-0.173549
N	 0.0367602919	-2.1555992406	 0.7014455014	-0.254913
C	 0.0301236434	-0.8779590465	 1.1090504839	 0.167038
C	 0.0611757106	-0.5288338118	 2.5371520776	 0.094865
O	 0.0943206192	-1.3128003503	 3.4552300658	-0.261713
H	 0.8629056158	 1.9407942226	 0.5036248465	 0.140359
H	-0.0643543492	 1.9222254376	-0.9983286911	 0.127857
H	-0.8990862231	 1.9179206989	 0.5570475232	 0.140341
H	-0.0552240791	-0.5803065691	-2.1517393088	 0.14242
H	 0.0002243235	-2.9255445956	-1.1638002558	 0.283261
H	 0.0502898117	 0.5690876925	 2.7228011873	 0.063525
98.1735	125.3817	182.9517	229.4541	306.8698	312.7403	525.4893	578.5072	633.9879	664.961	723.9541	788.5629	824.682	955.0971	1010.161	1031.9565	1068.6775	1093.3495	1143.3926	1259.425	1321.639	1369.8583	1418.8236	1426.4476	1471.3446	1485.538	1491.6289	1508.2006	1596.812	1807.5057	2872.3296	3036.294	3090.0371	3113.279	3260.8312	3656.4276
CC1=CNN=C1C=O	Cc1c[nH]nc1C=O	
InChI=1S/C5H6N2O/c1-4-2-6-7-5(4)3-8/h2-3H,1H3,(H,6,7)	InChI=1S/C5H6N2O/c1-4-2-6-7-5(4)3-8/h2-3H,1H3,(H,6,7)
