13
gdb 5655	5.32847	2.21799	1.5661	2.4236	65.9	-0.1865	0.0173	0.2038	744.2894	0.099139	-361.498103	-361.492469	-361.491524	-361.527511	22.717	
N	-0.0231747229	 1.3802181363	 0.0102179465	-0.39666
C	 1.2918585117	 1.8142203605	-0.0004033672	-0.063182
C	 2.1520832348	 0.7314948049	-0.0148059565	-0.327205
C	 1.2985289427	-0.3956624561	-0.0126343246	 0.350058
C	-0.0224480449	 0.007858044	 0.0026224575	 0.275712
C	-0.8239712748	-1.1742224457	 0.003941606	-0.346745
C	 0.0825410276	-2.195600699	-0.010668997	-0.010482
O	 1.3832096403	-1.7528232111	-0.021008463	-0.210934
H	-0.8261687315	 1.9821832292	 0.0215396579	 0.26197
H	 1.515965197	 2.8688896057	 0.0031916734	 0.12026
H	 3.228534161	 0.7744245762	-0.0251678059	 0.106542
H	-1.8968086889	-1.2818647881	 0.0139251718	 0.109835
H	-0.036074622	-3.2664326467	-0.0154434888	 0.130831
208.2592	331.7413	383.5583	463.8716	584.3557	611.2741	683.9934	688.2164	711.5939	739.9722	750.7812	792.5773	801.4581	899.5533	944.7006	1044.0673	1066.32	1090.7841	1162.7369	1171.2591	1263.4994	1334.8335	1374.2113	1463.7312	1477.1743	1526.2802	1583.0173	1588.8005	3256.891	3258.8122	3276.7537	3285.3117	3696.6837
N1C=CC2=C1C=CO2	[nH]1ccc2c1cco2	
InChI=1S/C6H5NO/c1-3-7-5-2-4-8-6(1)5/h1-4,7H	InChI=1S/C6H5NO/c1-3-7-5-2-4-8-6(1)5/h1-4,7H
