20
gdb 96611	1.97781	1.50014	1.00247	3.7108	81.04	-0.2222	-0.0091	0.213	1267.7091	0.1687	-436.488386	-436.477342	-436.476398	-436.524739	38.568	
C	 0.1041887865	 1.4108958741	 0.1927023287	-0.328165
N	 0.0092157902	-0.0354042034	 0.1721196249	-0.309041
C	-1.1038921186	-0.6488759259	 0.1608825358	 0.296971
N	-1.1496971402	-2.0399530597	 0.2953996546	-0.110228
C	 0.1344860477	-2.7051542393	 0.4749123306	-0.312334
C	-2.0673598442	-2.7799504201	-0.5684366888	-0.344654
C	-2.4729426903	 0.0383406309	 0.1283452539	 0.300067
N	-3.2916581222	-0.3438956801	 1.1492299183	-0.503329
O	-2.7739651733	 0.8817389428	-0.6929595924	-0.356898
H	 0.6340958531	 1.738071955	-0.7097217054	 0.127915
H	-0.8494934206	 1.9470016831	 0.2353528226	 0.12967
H	 0.7260102648	 1.7113282818	 1.0447605487	 0.11423
H	 0.7038525841	-2.1969419293	 1.2527853579	 0.142883
H	-0.0494123824	-3.7435795013	 0.7663709479	 0.109994
H	 0.7416952357	-2.6948977823	-0.4416967348	 0.12066
H	-3.0193364978	-2.2557489055	-0.6614483057	 0.145151
H	-1.6549737117	-2.926051294	-1.5787826899	 0.122972
H	-2.2604087657	-3.7657546146	-0.133879867	 0.123888
H	-3.0165030995	-1.0718052532	 1.7858766025	 0.267599
H	-4.2028114153	 0.0783409312	 1.2274050775	 0.262649
41.0724	99.6792	117.1846	154.3744	191.7971	198.9387	221.5532	239.2562	252.5904	286.1525	339.3898	378.4907	422.135	471.8222	574.0649	602.9491	654.16	739.4426	807.8175	932.5163	1053.966	1074.5586	1084.8317	1122.5575	1124.9211	1134.2361	1177.1096	1189.1183	1258.9321	1324.6189	1384.412	1443.4089	1445.8405	1468.2418	1482.9369	1485.1495	1487.0005	1500.0778	1503.1358	1525.4509	1595.5596	1723.6859	1790.6737	2987.6474	3005.4101	3015.5783	3068.395	3074.4589	3082.5899	3092.3749	3139.7813	3150.7477	3592.1698	3735.7433
CN=C(N(C)C)C(N)=O	CN=C(N(C)C)C(=O)N	
InChI=1S/C5H11N3O/c1-7-5(4(6)9)8(2)3/h1-3H3,(H2,6,9)	InChI=1S/C5H11N3O/c1-7-5(4(6)9)8(2)3/h1-3H3,(H2,6,9)
