16
gdb 42480	4.31234	0.75259	0.66588	2.2787	74.85	-0.2605	-0.0281	0.2324	1616.3508	0.122369	-437.849325	-437.84006	-437.839116	-437.885077	32.42	
O	-0.0234799307	 0.0812832093	 0.7593997701	-0.359267
C	 0.0275643304	 1.1202164467	 0.1259502476	 0.289363
N	 1.1557929825	 1.5976033863	-0.4762362185	-0.319442
C	 2.4362271674	 0.9192305166	-0.3925064128	-0.196157
C	 3.482860596	 1.8039102078	 0.2399104988	 0.088539
C	 4.8671285823	 1.8264751004	-0.243298294	-0.176029
O	 3.9591219182	 2.8765251878	-0.5824723257	-0.240871
C	-1.1344584151	 1.9799568894	-0.0636122323	 0.216518
C	-2.1105821263	 2.6678936197	-0.2017901869	-0.399832
H	 1.1102363802	 2.4801362715	-0.9612905362	 0.266738
H	 2.2747443912	 0.0181821207	 0.2044678981	 0.156363
H	 2.7712839087	 0.6186801788	-1.3927706081	 0.113811
H	 3.2867496504	 2.0912856717	 1.2734001612	 0.106952
H	 5.6703161796	 2.1025370248	 0.4374773943	 0.123278
H	 5.1595397583	 1.1772416297	-1.0675903974	 0.118842
H	-2.9809424132	 3.266986519	-0.3164528681	 0.211192
39.0705	54.1292	75.8181	155.7342	234.5241	252.1626	300.4104	389.0133	464.1567	518.3298	568.086	605.2642	659.7289	679.5708	765.0093	789.0144	861.4642	878.6085	949.9513	1016.3511	1082.7636	1100.993	1141.6306	1162.3069	1173.1883	1232.5936	1279.6319	1294.3325	1357.1958	1449.1654	1475.4729	1526.8404	1537.8439	1757.4883	2228.0804	3032.4673	3087.9222	3108.8844	3120.275	3175.6745	3496.0011	3636.8507
O=C(NCC1CO1)C#C	O=C(NC[C@H]1CO1)C#C	
InChI=1S/C6H7NO2/c1-2-6(8)7-3-5-4-9-5/h1,5H,3-4H2,(H,7,8)	InChI=1S/C6H7NO2/c1-2-6(8)7-3-5-4-9-5/h1,5H,3-4H2,(H,7,8)/t5-/m0/s1
