20
gdb 33083	6.1705	0.74629	0.67403	1.6019	84.78	-0.1605	0.063	0.2235	1687.1807	0.171976	-399.352352	-399.342523	-399.341579	-399.387231	36.262	
C	-0.0489966235	 1.5242102018	 0.0193312826	-0.4007
C	-0.0261655968	 0.0005239174	 0.0818731076	-0.098133
N	 0.8395036846	-0.4634202364	 1.1530935996	-0.399159
C	 0.9153761596	-1.8464061936	 1.3672940736	 0.332799
C	 0.461742438	-2.8526031472	 0.5418187324	-0.185191
N	 0.7887051562	-4.0611334104	 1.1465458179	-0.287629
C	 1.4362055609	-3.8292344301	 2.3263909241	 0.319114
N	 1.9235187253	-4.9212841692	 3.0751095674	-0.608818
C	 1.5270861166	-2.4663176477	 2.5042065423	-0.345183
H	 0.9605523897	 1.9217290052	-0.1203896059	 0.127107
H	-0.6768902447	 1.8689898263	-0.8072250751	 0.115991
H	-0.4560995649	 1.9511549739	 0.9437721156	 0.11108
H	-1.0557321222	-0.3900383764	 0.1802527589	 0.081869
H	 0.3654611403	-0.4009542082	-0.8618433916	 0.106927
H	 0.6778015194	 0.0442657271	 2.0137361558	 0.219517
H	-0.0705531175	-2.8239137863	-0.3926903609	 0.101826
H	 0.7466593877	-4.9636330466	 0.7075432708	 0.252052
H	 1.1829028174	-5.4061258927	 3.5745296906	 0.2408
H	 2.5986959061	-4.6061747773	 3.7607095771	 0.244538
H	 1.960388278	-1.9626113297	 3.355576967	 0.071193
63.5863	94.5043	120.4598	134.4484	221.6445	255.103	300.2388	328.8933	338.7813	427.0551	469.4686	584.1563	603.0986	642.9566	677.2291	692.4656	748.6123	782.2052	823.9117	831.3438	923.4254	995.0722	1013.2334	1078.7046	1117.4284	1141.0804	1155.5914	1172.0882	1217.5234	1279.1243	1295.2716	1314.0429	1374.8684	1406.8571	1426.3011	1483.1167	1492.3038	1499.7529	1517.6905	1528.606	1572.7215	1635.5047	1660.461	2930.9776	3027.053	3033.5739	3097.8434	3118.6806	3236.6602	3283.1699	3486.7239	3550.2642	3596.3216	3686.5596
CCNC1=CNC(N)=C1	CCNc1c[nH]c(N)c1	
InChI=1S/C6H11N3/c1-2-8-5-3-6(7)9-4-5/h3-4,8-9H,2,7H2,1H3	InChI=1S/C6H11N3/c1-2-8-5-3-6(7)9-4-5/h3-4,8-9H,2,7H2,1H3
