20
gdb 13209	4.04695	1.16415	0.97113	2.4066	70.73	-0.243	0.0703	0.3133	1212.7029	0.176167	-386.112512	-386.103386	-386.102442	-386.146673	32.485	
C	-0.173899571	 1.4851153125	 0.023128212	-0.399461
C	 0.0435549672	-0.031902842	-0.049496948	 0.010801
C	 0.778466483	-0.4233193446	-1.3327553203	-0.078376
O	-0.0233880786	-0.043360153	-2.440940494	-0.422052
C	 0.7934656128	-0.5520900302	 1.1741929555	-0.017263
C	 0.0753858783	-0.4982197703	 2.5426978329	-0.092151
O	 0.2614589835	-1.9128136986	 2.7501083497	-0.272989
C	 0.8215179643	-2.0775158126	 1.4327668544	-0.094332
H	 0.7853977741	 2.0134467022	 0.0863806172	 0.107359
H	-0.6955100245	 1.8393010807	-0.8683392752	 0.136907
H	-0.7654291132	 1.7612366676	 0.9018168666	 0.112346
H	-0.9391036834	-0.5239609385	-0.0842257838	 0.08369
H	 1.7602158609	 0.0797221771	-1.3592670876	 0.082506
H	 0.9666087155	-1.5091916146	-1.3383365698	 0.086508
H	 0.4555440924	-0.2532567699	-3.2475797601	 0.287629
H	 1.7927814167	-0.1057307775	 1.2165087122	 0.07478
H	 0.5509794272	 0.0984055995	 3.3297732725	 0.101326
H	-0.9891504025	-0.2296844113	 2.4882673112	 0.096953
H	 0.1603680972	-2.6625823697	 0.7771277357	 0.095927
H	 1.8060187402	-2.5593241868	 1.4628003787	 0.099891
71.5794	99.0944	118.5253	157.8901	231.9087	244.3692	261.1733	315.602	394.9926	424.4151	495.8307	753.6236	855.1907	893.5699	897.0889	930.7774	975.5818	997.5053	1006.1021	1042.6943	1066.1713	1101.5393	1119.8547	1161.5082	1167.0291	1171.8673	1200.6109	1251.7506	1269.2376	1272.4567	1306.4234	1312.9319	1362.2684	1374.9961	1402.9688	1408.193	1460.261	1493.6821	1506.6147	1511.0306	1519.6093	1537.0215	2953.7592	2982.2978	2991.8726	3003.0603	3011.6473	3029.7628	3038.6397	3049.59	3063.5127	3093.7591	3130.8792	3833.9432
CC(CO)C1COC1	C[C@@H](CO)C1COC1	
InChI=1S/C6H12O2/c1-5(2-7)6-3-8-4-6/h5-7H,2-4H2,1H3	InChI=1S/C6H12O2/c1-5(2-7)6-3-8-4-6/h5-7H,2-4H2,1H3/t5-/m0/s1
