16
gdb 63598	4.97728	0.69377	0.65722	5.0761	86.55	-0.2786	-0.0559	0.2228	1671.6137	0.121536	-400.725495	-400.71606	-400.715116	-400.760169	33.472	
C	-0.1524990228	 1.5391672738	-0.0763608876	-0.458346
C	-0.0605959407	 0.0352765238	 0.0340025904	 0.402599
C	-1.187351969	-0.7510232473	-0.5990205537	-0.452947
O	 1.2449790934	-0.5168141927	-0.1685516775	-0.262922
C	 0.6921702172	-0.5986707637	 1.1537602845	-0.274889
C	 1.3350386491	 0.1616709988	 2.1866411908	 0.102474
C	 1.8637596676	 0.7753581188	 3.0843736055	 0.132705
C	 2.4591299666	 1.4737358151	 4.0940909141	 0.202149
N	 2.9631497108	 2.0695646824	 4.9549071255	-0.331836
H	 0.7006525006	 2.0244438777	 0.4002653802	 0.144213
H	-0.1729558891	 1.8315229367	-1.131241862	 0.135082
H	-1.0722688633	 1.9038877809	 0.3917720745	 0.131637
H	-1.2494934966	-0.5194994344	-1.6674896593	 0.136901
H	-1.0253863695	-1.8260089187	-0.4913703759	 0.134378
H	-2.1469370705	-0.4899498716	-0.1417876195	 0.132364
H	 0.3967283963	-1.6031442995	 1.4574916498	 0.126439
69.7767	76.7876	158.4742	186.9352	200.5253	224.8055	308.784	350.4187	384.3792	400.4382	479.925	543.0537	575.4129	589.9081	707.9324	772.5611	823.5975	916.4672	950.4798	1004.6198	1048.7999	1089.6731	1143.3533	1202.8972	1262.9278	1328.2195	1409.8882	1420.4912	1422.7432	1471.4096	1482.1894	1494.2036	1507.2069	2263.2495	2393.9766	3039.8292	3045.6347	3105.4854	3108.7966	3110.6035	3128.9144	3142.4542
CC1(C)OC1C#CC#N	CC1(C)O[C@H]1C#CC#N	
InChI=1S/C7H7NO/c1-7(2)6(9-7)4-3-5-8/h6H,1-2H3	InChI=1S/C7H7NO/c1-7(2)6(9-7)4-3-5-8/h6H,1-2H3/t6-/m0/s1
