15
gdb 56719	2.05942	1.40519	1.26305	3.6955	71.32	-0.2786	-0.002	0.2766	1093.1332	0.110549	-416.741495	-416.732371	-416.731427	-416.775682	32.898	
O	 0.3972446172	 1.5739674734	-0.0339323878	-0.399319
C	 0.1262005921	 0.1889849153	 0.0452968083	-0.154241
C	 0.5156352001	-0.5343286941	-1.1684871375	 0.301722
C	 0.8661153519	-1.1169645488	-2.1588821689	-0.429241
C	 0.7725542043	-0.4388528128	 1.2931525675	 0.15184
C	-0.0264183977	-0.5038011241	 2.551527263	-0.269685
N	 0.2791320474	-1.72648188	 1.8045337351	-0.325283
C	 2.2063457487	-0.2377351705	 1.3583382068	 0.282657
N	 3.3408949365	-0.0175248981	 1.3777494912	-0.3344
H	 1.3144561989	 1.6832383819	-0.3143575479	 0.304565
H	-0.9603360174	 0.112460612	 0.178606091	 0.123505
H	 1.1732526126	-1.6332585778	-3.0354789398	 0.214262
H	 0.4771579609	-0.4166985538	 3.5086346978	 0.149979
H	-1.0288093897	-0.0851735992	 2.5146526629	 0.134317
H	-0.5141572158	-2.0308685333	 1.2433307483	 0.249322
51.081	112.6601	138.9976	205.9539	228.6657	265.4588	304.0256	340.6119	416.0463	476.4552	561.1759	586.2515	619.488	656.5482	687.6242	752.8194	873.4049	883.355	933.2391	983.4714	992.9004	1073.2114	1088.4405	1144.9785	1235.7501	1262.0457	1292.3504	1300.3787	1387.1728	1416.4647	1509.1341	2238.1794	2358.1059	3035.3497	3117.6187	3212.3829	3493.2936	3499.5026	3790.8355
OC(C#C)C1(CN1)C#N	O[C@@H](C#C)[C@]1(CN1)C#N	
InChI=1S/C6H6N2O/c1-2-5(9)6(3-7)4-8-6/h1,5,8-9H,4H2	InChI=1S/C6H6N2O/c1-2-5(9)6(3-7)4-8-6/h1,5,8-9H,4H2/t5-,6+/m0/s1
