21
gdb 90083	3.00826	1.55676	1.39367	1.5954	82.25	-0.2509	0.0719	0.3229	1024.2098	0.185066	-387.037867	-387.030471	-387.029527	-387.069197	31.211	
O	 0.4892937899	 1.1764288169	-0.4952601339	-0.427454
C	 0.1094556813	-0.1125514561	-0.0760494679	 0.085533
C	 0.2588206166	-0.4153519091	 1.4710830863	-0.402447
C	-1.2577479832	-0.1526405752	 1.5961807379	 0.338846
C	-2.6104156964	-0.6475725632	 2.1682393986	-0.32055
C	-3.1419829857	 0.5617756846	 1.295171322	-0.011076
C	-1.8446687919	 1.283734244	 1.7332918515	-0.264847
C	-2.7780477521	 0.2333597855	-0.1892857506	-0.278978
C	-1.4196759386	-0.4516253848	 0.1013698096	 0.015592
H	 0.2023584329	 1.8143780391	 0.1639911611	 0.282379
H	 0.6428664304	-0.7964724581	-0.7405854022	 0.085702
H	 0.5398055994	-1.4575579204	 1.6469664226	 0.108316
H	 0.9389150023	 0.2334291585	 2.0314951142	 0.097173
H	-2.9224578239	-1.6629502546	 1.9068279261	 0.090469
H	-2.7750637084	-0.4601042921	 3.2327426835	 0.0953
H	-4.1249125156	 0.9929873405	 1.4888626057	 0.063511
H	-1.8612602135	 1.6200230728	 2.7733780439	 0.096104
H	-1.4874390502	 2.0943902561	 1.0893382589	 0.076061
H	-3.4900148839	-0.4342454781	-0.6820427545	 0.093893
H	-2.7076812675	 1.1493171961	-0.7843542005	 0.106184
H	-1.500671932	-1.5336303124	-0.0551341322	 0.070286
148.523	196.1221	260.8178	296.0432	388.9362	413.8021	459.3829	526.9436	601.5176	625.1584	733.2695	777.4504	800.5233	808.2536	851.2851	862.0915	896.8564	936.8474	955.2369	983.3819	993.7551	1004.0737	1040.6966	1066.8845	1082.8287	1100.5809	1119.8765	1158.2944	1179.3366	1180.1576	1194.9351	1219.2843	1231.4957	1246.219	1272.1887	1277.2366	1282.1443	1305.3202	1311.7981	1376.3106	1440.1546	1473.8075	1481.7748	1494.3579	1520.8193	3028.05	3035.1597	3048.5734	3050.8455	3053.539	3080.7644	3095.9444	3099.4419	3107.1427	3108.4264	3112.338	3837.6448
OC1CC23CC(C2)CC13	O[C@H]1C[C@@]23C[C@@H](C2)C[C@@H]13	
InChI=1S/C8H12O/c9-7-4-8-2-5(3-8)1-6(7)8/h5-7,9H,1-4H2	InChI=1S/C8H12O/c9-7-4-8-2-5(3-8)1-6(7)8/h5-7,9H,1-4H2/t5-,6-,7-,8+/m0/s1
