20
gdb 111648	2.37018	1.58006	1.21127	3.7306	78.27	-0.2421	-0.0044	0.2377	1119.4709	0.171867	-403.166321	-403.157822	-403.156878	-403.199682	32.216	
C	-0.2857898585	 1.4723443749	-0.2373657616	-0.384607
C	 0.2676560531	 0.0797498905	 0.0958914792	-0.21082
C	 0.8567424716	-0.6075665021	-1.1160552174	 0.006518
C	 0.8778265136	-2.081619725	-1.336723894	-0.058012
C	 0.023677037	-3.0333294133	-0.4860145056	-0.262243
C	-1.397746443	-2.8529522376	-1.0589000833	-0.300569
C	-1.3470951837	-1.5033516166	-1.7866123834	 0.37246
O	-2.274844412	-0.7762832039	-2.0239280755	-0.324388
N	 0.0011215991	-1.2319875067	-2.1611907957	-0.134756
H	 0.4944661625	 2.1119347159	-0.6636826649	 0.115337
H	-1.0996174534	 1.3990939671	-0.9631700838	 0.158731
H	-0.6669687941	 1.9641440511	 0.662293233	 0.112917
H	 1.0614042569	 0.1622760384	 0.8498176463	 0.102338
H	-0.522266241	-0.5301988487	 0.5468036067	 0.105783
H	 1.676946977	-0.0464197664	-1.5639696931	 0.100502
H	 1.7308140664	-2.5084939246	-1.8579108643	 0.097748
H	 0.3834960178	-4.058819542	-0.5868937397	 0.114934
H	 0.0660769745	-2.7824561845	 0.5780665904	 0.118259
H	-1.6298220651	-3.6314376363	-1.7948731244	 0.137758
H	-2.2026148788	-2.8512050602	-0.3217610488	 0.13211
84.629	100.5598	142.8334	192.3638	236.0717	282.7805	446.1668	472.2685	512.6226	554.5728	669.2251	702.3007	722.8443	762.8936	812.1479	820.6985	872.6036	939.0183	970.5293	995.0972	1019.7933	1037.3551	1086.4584	1105.9139	1131.3104	1148.0546	1171.5824	1191.3505	1228.5076	1281.4817	1289.6462	1302.9183	1321.3944	1340.9233	1379.9803	1411.8891	1440.3071	1461.112	1481.9298	1499.188	1506.9668	1511.5836	1839.8358	3024.664	3039.558	3050.7778	3061.2945	3067.9978	3103.9319	3108.1197	3109.4566	3123.6034	3129.6508	3140.1378
CCC1C2CCC(=O)N12	CC[C@H]1[C@H]2CCC(=O)N12	
InChI=1S/C7H11NO/c1-2-5-6-3-4-7(9)8(5)6/h5-6H,2-4H2,1H3	InChI=1S/C7H11NO/c1-2-5-6-3-4-7(9)8(5)6/h5-6H,2-4H2,1H3/t5-,6+,8?/m0/s1
