15
gdb 8261	7.01972	0.97786	0.95693	3.1795	64.12	-0.2469	-0.031	0.2159	1176.1074	0.117755	-399.829954	-399.8221	-399.821156	-399.863495	27.835	
O	 0.1404367752	-0.3234963038	 0.4652205313	-0.31634
C	-0.0451857584	 0.8509403786	 0.2329705783	 0.155162
N	 0.9215476141	 1.7445135522	-0.1237655205	-0.285879
C	 2.3099486643	 1.3875743814	-0.2695810485	 0.04828
C	 3.0193093512	 1.7480415197	-1.6140770935	-0.36652
C	 4.1805525854	 2.3176997757	-0.7814887738	 0.404973
O	 5.3010435278	 2.6457950942	-1.0369087245	-0.281253
C	 3.3661063501	 2.2251928174	 0.5201733969	-0.366527
H	-1.0424430794	 1.3298680874	 0.2879871352	 0.079375
H	 0.643156009	 2.6992802447	-0.2918514456	 0.245905
H	 2.3753371327	 0.3240854071	-0.0424496663	 0.139379
H	 3.2555855559	 0.9356915026	-2.3050475291	 0.143587
H	 2.5019278248	 2.5385903374	-2.1705777368	 0.128137
H	 2.9887645825	 3.2084208632	 0.8254933562	 0.128135
H	 3.8542403247	 1.7593761122	 1.3791956605	 0.143586
35.188	59.227	188.2523	210.3072	358.6632	371.8938	424.0478	500.5883	527.1437	623.2567	661.3846	736.8713	824.3484	910.9083	931.3155	989.0015	1031.1841	1041.17	1103.3183	1108.1337	1175.2389	1185.2509	1230.8875	1246.383	1276.7973	1362.8353	1424.3317	1431.636	1446.9532	1533.0218	1808.5414	1901.9092	2942.3727	3045.3274	3050.7193	3114.0554	3118.1056	3138.4822	3619.3902
O=CNC1CC(=O)C1	O=CNC1CC(=O)C1	
InChI=1S/C5H7NO2/c7-3-6-4-1-5(8)2-4/h3-4H,1-2H2,(H,6,7)	InChI=1S/C5H7NO2/c7-3-6-4-1-5(8)2-4/h3-4H,1-2H2,(H,6,7)
