18
gdb 13293	4.71568	1.21918	1.08146	0.6115	79.51	-0.2338	0.0238	0.2576	1131.5943	0.153884	-310.65375	-310.645716	-310.644771	-310.686525	30.026	
C	 0.0486126978	-1.1875664351	 0.5197897685	-0.466463
C	 0.0368053916	-0.0431826358	 0.1526364757	 0.316699
C	 0.0403160282	 1.3519821474	-0.2878970348	-0.460628
C	 1.3932435455	 2.0096133327	-0.1700373873	 0.357808
C	 2.0743904743	 2.5976171687	-1.1537460873	-0.173267
C	 3.3624633385	 3.2202886286	-0.6725737494	-0.243319
C	 3.5255093813	 2.624986683	 0.7512683636	-0.203249
C	 2.1137877081	 2.1334493381	 1.1564492734	-0.296334
H	 0.0524446029	-2.2000235619	 0.8392173881	 0.195436
H	-0.3095943205	 1.4102890141	-1.325363606	 0.133619
H	-0.6928841463	 1.9094492768	 0.314550393	 0.134426
H	 1.7381102964	 2.6642423729	-2.183592147	 0.084043
H	 4.2160548204	 2.9929466405	-1.321333888	 0.101858
H	 3.278935336	 4.3166359843	-0.6518563091	 0.103177
H	 4.2072184845	 1.7699247916	 0.7089860898	 0.107304
H	 3.9472547984	 3.3383583458	 1.463618532	 0.095562
H	 1.5947787283	 2.8565234514	 1.803378991	 0.098941
H	 2.1358760946	 1.1884890069	 1.7094135538	 0.11439
64.6534	97.9433	147.4112	250.7365	304.914	342.5144	409.0297	494.9555	610.2659	616.176	638.9478	703.0448	808.67	842.0217	867.9192	898.7707	916.3807	939.421	955.8765	985.7465	1038.4385	1068.8106	1152.0729	1161.0484	1207.2772	1230.2508	1244.5259	1290.2619	1318.785	1325.555	1333.6107	1370.2551	1459.0531	1483.7275	1489.6031	1506.8811	1721.8537	2237.2686	2994.14	2997.9153	3002.6039	3046.0325	3053.5683	3057.8268	3069.106	3102.7678	3181.5367	3507.0126
C#CCC1=CCCC1	C#CCC1=CCCC1	
InChI=1S/C8H10/c1-2-5-8-6-3-4-7-8/h1,6H,3-5,7H2	InChI=1S/C8H10/c1-2-5-8-6-3-4-7-8/h1,6H,3-5,7H2
