13
gdb 24082	7.60649	0.82071	0.74422	3.9249	64.96	-0.2438	-0.0072	0.2366	1396.0337	0.09002	-452.7712	-452.763614	-452.76267	-452.804598	26.397	
N	 0.0667919756	-1.1074768902	-0.0065009759	-0.28237
C	 0.0579565595	 0.0465096972	 0.0014842787	 0.279238
C	-0.0122641211	 1.5059091185	 0.0122673861	-0.203466
O	 1.324701589	 2.0138419114	 0.0001087043	-0.245193
C	 1.3828326418	 3.3431496439	 0.0074350223	 0.519164
N	 0.4139417547	 4.1988756228	 0.0240136762	-0.379371
C	 1.082359833	 5.4277858513	 0.0235802228	-0.112169
C	 2.4141103182	 5.2157581625	 0.0065768769	-0.039514
O	 2.623325831	 3.8484108199	-0.0041210575	-0.183929
H	-0.5633988193	 1.8666803129	-0.8631349414	 0.17859
H	-0.5427174224	 1.8545740632	 0.9051828099	 0.178561
H	 0.5443860951	 6.3617337629	 0.0355651969	 0.134652
H	 3.2951113247	 5.8318370838	-0.0000762692	 0.155806
39.2497	112.1181	119.5268	243.5161	313.5103	381.1211	442.0589	549.0831	620.1491	717.2969	759.9657	786.3778	861.8324	927.2663	959.2669	990.6701	1017.8376	1075.8593	1093.1487	1140.5218	1185.4068	1250.9194	1287.5343	1378.7224	1449.827	1487.0012	1580.7584	1639.4817	2379.8374	3049.2621	3089.1413	3271.9873	3313.7804
N#CCOC1=NC=CO1	N#CCOc1ncco1	
InChI=1S/C5H4N2O2/c6-1-3-8-5-7-2-4-9-5/h2,4H,3H2	InChI=1S/C5H4N2O2/c6-1-3-8-5-7-2-4-9-5/h2,4H,3H2
