16
gdb 31991	4.7646	0.92336	0.81246	1.6092	68.79	-0.2226	0.0133	0.2359	1390.3979	0.124286	-475.042617	-475.033853	-475.032909	-475.07682	30.596	
C	-0.1406250523	 1.2495263216	 0.0271518722	-0.237115
O	-0.1263190305	-0.169462989	 0.229498969	-0.249305
C	 0.650646915	-0.5781775527	 1.2178995842	 0.499855
N	 1.3974092569	 0.1119451574	 2.0191937607	-0.385765
C	 1.9590493808	-0.8643837004	 2.8441461644	-0.198757
C	 1.5222758596	-2.0906580687	 2.4846061248	 0.308371
C	 1.7217451511	-3.4857075978	 2.9512843234	-0.185841
O	 0.570563297	-4.0546862537	 3.5656529835	-0.409066
O	 0.6567625412	-1.9093807877	 1.4081240439	-0.232525
H	 0.8628087055	 1.6115243325	-0.2120290925	 0.147334
H	-0.8198558721	 1.4190578483	-0.8078011451	 0.14048
H	-0.4979660494	 1.7600038157	 0.9254046323	 0.147705
H	 2.6420589336	-0.6056977387	 3.6379784151	 0.127546
H	 2.0688452119	-4.1144414721	 2.1164196443	 0.106539
H	 2.50787076	-3.4846339116	 3.7112820476	 0.130247
H	-0.1383037082	-4.043116893	 2.9139354022	 0.290295
73.6023	83.8423	142.1923	155.1416	205.9606	265.6058	317.057	340.6419	444.591	513.6519	638.1025	713.6198	746.5315	770.1349	862.0157	945.9221	969.5394	1013.9288	1037.8114	1084.7229	1166.2056	1184.124	1187.5396	1228.2967	1245.2518	1269.6657	1373.5463	1404.2711	1423.6368	1472.7033	1479.8736	1485.9455	1500.7418	1650.7972	1658.7451	2983.4424	3049.7352	3098.5769	3124.7164	3163.5878	3263.0915	3816.1699
COC1=NC=C(CO)O1	COc1ncc(CO)o1	
InChI=1S/C5H7NO3/c1-8-5-6-2-4(3-7)9-5/h2,7H,3H2,1H3	InChI=1S/C5H7NO3/c1-8-5-6-2-4(3-7)9-5/h2,7H,3H2,1H3
