20
gdb 93658	2.39574	1.51003	1.20313	2.2824	74.29	-0.228	-0.032	0.1959	1127.0225	0.169895	-440.308319	-440.298854	-440.297909	-440.342367	35.824	
C	 0.2428394848	 1.4757463496	-0.1928510119	-0.367151
C	-0.0209450555	-0.0011626592	 0.1301768258	-0.096051
N	 0.2480840003	-0.893623318	-1.0139974686	-0.307096
C	 1.5277623599	-1.5860310006	-0.7552691896	-0.228473
C	 1.6190266057	-1.7693163299	 0.7711407961	 0.300997
C	 0.8368416108	-3.0016072801	 1.260206499	-0.429365
O	 2.9444434514	-1.7994042493	 1.2472049268	-0.479123
C	 0.9131719927	-0.4893798976	 1.2428060665	 0.35461
O	 1.1600401112	 0.0560339711	 2.2902194158	-0.345521
H	 1.2578119671	 1.6124754086	-0.5776816037	 0.125754
H	-0.4583426613	 1.8229183477	-0.9552085338	 0.122822
H	 0.1311103357	 2.0838084348	 0.7089998837	 0.133204
H	-1.0596046513	-0.1072558537	 0.4663825975	 0.104993
H	-0.493605463	-1.5771155156	-1.1022480246	 0.224333
H	 1.5689293343	-2.5257668342	-1.3105776171	 0.109513
H	 2.3689705351	-0.9639066806	-1.0828384097	 0.120133
H	 1.375202756	-3.9042450655	 0.9573272373	 0.133761
H	 0.7577437336	-2.9942761758	 2.3513292043	 0.129494
H	-0.1749231944	-3.0406578747	 0.8423740733	 0.106006
H	 2.944073997	-1.2903963171	 2.0716062028	 0.287159
48.7529	148.0949	194.2376	216.1275	235.8337	256.0106	299.0415	330.2499	365.9365	396.1879	442.3324	530.8745	580.0241	626.9217	690.7556	748.3388	770.4863	851.8203	886.0642	958.598	964.519	998.478	1038.8871	1054.9672	1107.3006	1127.8171	1136.3599	1156.7361	1222.5481	1256.4106	1292.5254	1334.0891	1357.9693	1391.323	1396.2634	1398.564	1457.0227	1483.9342	1487.69	1492.1567	1493.9771	1503.3075	1837.6049	3033.0022	3034.4106	3039.8426	3046.6894	3105.707	3107.3112	3118.7915	3121.535	3132.5763	3548.9283	3719.3702
CC1NCC(C)(O)C1=O	C[C@H]1NC[C@@](C)(O)C1=O	
InChI=1S/C6H11NO2/c1-4-5(8)6(2,9)3-7-4/h4,7,9H,3H2,1-2H3	InChI=1S/C6H11NO2/c1-4-5(8)6(2,9)3-7-4/h4,7,9H,3H2,1-2H3/t4-,6-/m1/s1
