16
gdb 104762	3.01362	1.10639	0.91795	1.545	66.17	-0.2745	-0.0144	0.2601	1243.1729	0.122751	-474.995416	-474.986276	-474.985332	-475.029652	32.727	
O	 0.168386146	 1.3601784871	-0.1709629658	-0.412226
C	 0.0361507569	 0.0628079988	 0.4064778543	-0.151604
C	-1.3713879512	-0.4778822549	 0.2277370488	 0.312773
C	-2.4970069075	 0.3450814267	 0.8357183945	-0.109684
O	-2.6036001228	 1.6294072865	 0.266569785	-0.419427
O	-1.6332267248	-1.0098895921	-1.0831785207	-0.26277
C	-1.587025995	-1.9271473876	 0.0084423593	-0.158008
C	-0.4942317509	-2.8779546721	 0.0250514179	 0.304196
N	 0.3641922804	-3.6512275259	 0.0575064653	-0.325271
H	 0.0703338887	 1.2622948804	-1.1257984339	 0.306293
H	 0.7679325602	-0.6354402512	-0.0152972557	 0.133573
H	 0.2543055334	 0.1839851492	 1.4721718154	 0.134178
H	-3.4513480522	-0.1612737508	 0.6593411328	 0.115134
H	-2.3380767236	 0.3863767021	 1.9274381308	 0.096161
H	-1.7121029172	 2.0042336564	 0.2414658111	 0.292785
H	-2.5464035304	-2.3572831829	 0.2919312509	 0.143897
86.8259	95.0752	118.2574	167.7083	240.9364	296.2612	319.152	331.4263	399.6903	441.3077	472.0942	585.7142	602.5151	647.3239	754.3734	867.1058	922.2418	970.5717	973.0256	1034.8094	1056.5654	1071.3891	1109.1207	1188.9025	1229.2724	1281.394	1328.4998	1369.0703	1391.6115	1419.9722	1450.3512	1476.2493	1486.814	1499.6423	2360.313	2957.2982	3042.488	3075.3606	3098.2421	3128.5371	3736.4099	3797.3396
OCC1(CO)OC1C#N	OCC1(CO)O[C@H]1C#N	
InChI=1S/C5H7NO3/c6-1-4-5(2-7,3-8)9-4/h4,7-8H,2-3H2	InChI=1S/C5H7NO3/c6-1-4-5(2-7,3-8)9-4/h4,7-8H,2-3H2/t4-/m0/s1
