14
gdb 132363	1.88875	1.75771	0.91562	3.9277	67.14	-0.2556	-0.0302	0.2254	1160.0251	0.100006	-486.015924	-486.008332	-486.007388	-486.049197	27.795	
C	-0.0149543227	 1.5217106998	 0.0103584327	-0.491742
C	-0.0109544817	 0.0157400112	 0.0022359515	 0.355835
C	-0.0034601507	-0.6970231118	-1.1985627589	-0.365801
C	 0.0283814544	-2.08231965	-1.1249232481	 0.361808
F	 0.0359976289	-2.781035812	-2.2538363038	-0.066541
N	 0.0499569679	-2.7890703543	-0.0133564014	-0.378663
C	 0.0407376032	-2.0944721896	 1.1059744429	 0.361834
F	 0.0608180816	-2.805386197	 2.2270903327	-0.066535
C	 0.0097971239	-0.7100223274	 1.1950207995	-0.365879
H	 1.0112023433	 1.9078439727	 0.0027192402	 0.15008
H	-0.5224397352	 1.9232718704	-0.8704498705	 0.138283
H	-0.5058582247	 1.9138208808	 0.9046863798	 0.138183
H	-0.023844396	-0.2036880114	-2.1620610625	 0.114559
H	 0.0001224977	-0.2271948314	 2.163989496	 0.114578
30.4957	191.3449	216.9217	258.6822	286.8078	350.4974	511.543	518.4614	582.9865	600.7458	601.0642	684.6013	754.4664	851.16	877.584	987.7687	1008.8081	1009.8847	1058.958	1076.5792	1160.6257	1226.7169	1333.8676	1403.469	1416.0195	1451.151	1488.6576	1490.5324	1498.6	1621.839	1654.9471	3038.3004	3100.1687	3128.2783	3211.9777	3213.0227
CC1=CC(F)=NC(F)=C1	Cc1cc(F)nc(F)c1	
InChI=1S/C6H5F2N/c1-4-2-5(7)9-6(8)3-4/h2-3H,1H3	InChI=1S/C6H5F2N/c1-4-2-5(7)9-6(8)3-4/h2-3H,1H3
