17
gdb 91310	2.90351	1.5247	1.19669	5.54	72.36	-0.2572	0.0102	0.2674	1037.8725	0.137371	-417.969426	-417.961641	-417.960697	-418.001963	30.006	
O	 0.265173168	 1.254346542	-0.4106718339	-0.416077
C	 0.1051901966	-0.0744379803	-0.0057016589	 0.131065
C	 0.1997660286	-0.3631515908	 1.5308224103	-0.254378
C	-1.3092069431	-0.6470423562	 1.5405939718	 0.000336
N	-2.1031242211	 0.6200285772	 1.4718303523	-0.337225
C	-2.5267780497	 0.3175738219	 0.0829057534	-0.125751
C	-2.6487794194	 1.4673724857	-0.8185724679	 0.289236
N	-2.8147046013	 2.3711546676	-1.5195877862	-0.325273
C	-1.3539118715	-0.6828555849	-0.0190313303	-0.089593
H	-0.2560544168	 1.8133183855	 0.1792263702	 0.295626
H	 0.7981740646	-0.6592537634	-0.614552148	 0.099578
H	 0.7999779007	-1.2515477815	 1.7497230225	 0.105788
H	 0.541028419	 0.4685485425	 2.1518022955	 0.109695
H	-1.7233113313	-1.4322494313	 2.1774843272	 0.075113
H	-2.8559679813	 0.7197551979	 2.1429420649	 0.234049
H	-3.4750987912	-0.2363904326	 0.025171423	 0.120008
H	-1.5044180206	-1.5783290292	-0.618048326	 0.087804
67.4964	130.3582	185.8162	276.2865	358.7578	407.3594	444.1075	499.5898	541.3296	560.1635	676.3437	739.9846	751.6053	781.08	867.73	896.4039	927.4679	988.3227	993.5905	1037.697	1038.6823	1085.0566	1089.8493	1146.1913	1152.5132	1180.1402	1201.306	1260.5377	1275.6096	1284.4094	1317.6341	1330.1531	1370.0311	1384.7585	1439.1797	1462.454	2354.3858	2995.1665	3054.0622	3079.2601	3086.2333	3118.6465	3138.1562	3543.8858	3779.019
OC1CC2NC(C#N)C12	O[C@H]1C[C@H]2N[C@@H](C#N)[C@@H]12	
InChI=1S/C6H8N2O/c7-2-4-6-3(8-4)1-5(6)9/h3-6,8-9H,1H2	InChI=1S/C6H8N2O/c7-2-4-6-3(8-4)1-5(6)9/h3-6,8-9H,1H2/t3-,4+,5+,6+/m1/s1
