18
gdb 123731	4.99179	0.95536	0.91809	4.0674	78.01	-0.2455	0.001	0.2465	1308.0584	0.150508	-398.12044	-398.112799	-398.111855	-398.154158	28.65	
C	-0.136609507	 1.5357374593	 0.0433126552	-0.213158
C	 1.3927009686	 1.5193332327	-0.2160261403	-0.2256
C	 1.4636056179	 0.1410014821	 0.5141260075	-0.062508
C	-0.072180851	 0.0024009494	 0.2692444198	-0.225643
C	 2.3974647226	-0.9133779036	 0.0374181517	 0.307506
C	 2.5578874173	-1.4711493018	-1.2138413905	-0.179884
N	 3.5513200922	-2.3750100413	-1.0479740161	-0.147575
N	 3.9957720244	-2.3951878644	 0.2206506988	-0.117613
N	 3.2984683564	-1.5130462328	 0.8760238609	-0.253219
H	-0.3833106204	 2.0690592433	 0.9657004699	 0.106375
H	-0.7843372908	 1.9060689913	-0.7543009231	 0.096163
H	 1.6190131356	 1.4123880878	-1.2816610585	 0.095283
H	 1.9994646649	 2.3329918066	 0.1880080111	 0.104157
H	 1.6579823925	 0.2939575788	 1.5787843659	 0.092629
H	-0.6711861119	-0.4325499053	 1.0726467443	 0.104144
H	-0.2753430576	-0.5492296819	-0.6541558578	 0.09527
H	 2.0740434859	-1.3099387182	-2.1622227299	 0.142451
H	 3.9665909804	-2.993432732	-1.7263534488	 0.281221
21.5737	115.3892	140.6559	238.83	379.4722	397.2966	560.0442	576.3014	697.6054	716.2818	740.5531	779.8808	803.059	869.607	912.988	934.5034	943.8845	985.8169	1001.4146	1029.9127	1041.4644	1071.9058	1117.5971	1131.996	1203.7394	1224.4658	1249.9904	1252.6289	1262.678	1278.71	1288.1522	1291.4656	1348.3406	1391.3277	1477.4745	1487.2049	1494.39	1510.8972	1582.4137	3049.9639	3053.0855	3061.1311	3077.6464	3102.263	3107.7821	3122.0277	3282.3915	3657.0651
C1CC(C1)C1=CNN=N1	C1CC(C1)c1c[nH]nn1	
InChI=1S/C6H9N3/c1-2-5(3-1)6-4-7-9-8-6/h4-5H,1-3H2,(H,7,8,9)	InChI=1S/C6H9N3/c1-2-5(3-1)6-4-7-9-8-6/h4-5H,1-3H2,(H,7,8,9)
