19
gdb 108803	3.41273	1.0081	0.83027	2.9708	78.63	-0.2483	-0.0262	0.2221	1405.542	0.15789	-423.059802	-423.050576	-423.049632	-423.094266	33.959	
C	 0.0617762659	 1.5181456676	 0.2077763447	-0.377597
C	-0.0319952721	 0.0068645752	-0.0683467345	-0.285683
C	-1.436987391	-0.5157973005	-0.0681293988	 0.321565
C	-2.0933586255	-1.0490843995	-1.106414993	-0.209719
C	-3.5143455167	-1.4173740132	-0.7757095599	 0.026037
O	-3.9267465095	-2.6827697579	-1.2376365913	-0.442422
C	-3.4856752035	-1.3514508076	 0.7609610838	 0.35849
O	-4.2240788218	-1.9928316453	 1.4633024914	-0.315773
C	-2.2998938431	-0.487409134	 1.1814090632	-0.419741
H	 1.1046609836	 1.8480222701	 0.1961634108	 0.120546
H	-0.4835205978	 2.0888588475	-0.550406568	 0.123394
H	-0.3563545614	 1.7745437829	 1.1863859383	 0.121127
H	 0.4350962665	-0.22079165	-1.0328142784	 0.108699
H	 0.5490691437	-0.5276771405	 0.6965447072	 0.10915
H	-1.6825128143	-1.1797873348	-2.1010433874	 0.105343
H	-4.20931651	-0.6358384985	-1.1409377729	 0.091714
H	-4.4827931015	-3.0497705444	-0.5356514049	 0.292362
H	-1.8130997214	-0.8874045764	 2.0783220511	 0.13405
H	-2.6471344301	 0.5235550495	 1.4372267385	 0.138458
65.7225	78.6159	123.3446	209.743	235.9517	252.0009	320.5809	348.7768	429.6401	488.579	508.5286	570.9086	608.1419	706.3531	776.602	787.8846	854.6271	872.9078	958.1259	968.7823	1025.1379	1063.3405	1070.9797	1105.9579	1133.3594	1159.4108	1188.708	1225.9057	1266.8313	1283.4799	1337.0195	1349.3455	1363.2614	1406.2659	1412.9426	1449.5785	1477.6021	1499.1904	1507.5448	1700.843	1849.6119	2905.5961	3009.5041	3017.3814	3038.527	3064.9052	3065.8127	3109.7939	3112.7731	3199.6834	3739.6227
CCC1=CC(O)C(=O)C1	CCC1=C[C@@H](O)C(=O)C1	
InChI=1S/C7H10O2/c1-2-5-3-6(8)7(9)4-5/h3,6,8H,2,4H2,1H3	InChI=1S/C7H10O2/c1-2-5-3-6(8)7(9)4-5/h3,6,8H,2,4H2,1H3/t6-/m1/s1
