15
gdb 32174	3.86455	1.14274	0.88682	1.893	70.28	-0.25	-0.0355	0.2145	1226.4145	0.114329	-454.00762	-453.999796	-453.998852	-454.04046	28.76	
O	 0.0023199801	 1.436072315	 0.0542277915	-0.418148
C	-0.0057998701	 0.0231604524	 0.0236428758	-0.153865
C	-1.4271094564	-0.4788717038	 0.0050058574	 0.301268
C	-2.5245263083	 0.3787154203	 0.0185038022	-0.181152
C	-3.7740029304	-0.2273647335	-0.0013289933	 0.010136
N	-3.9372860543	-1.5503544776	-0.0315820055	-0.351991
C	-2.8063694764	-2.2639074705	-0.0417098306	 0.440407
O	-2.9364479838	-3.5987708708	-0.0720915254	-0.392713
N	-1.5600792711	-1.8079445271	-0.025232531	-0.341516
H	 0.9163459839	 1.7319953211	 0.0630510747	 0.296474
H	 0.5058814204	-0.376525691	-0.8655850129	 0.120547
H	 0.4960987695	-0.4145551039	 0.9005042164	 0.12053
H	-2.3976729842	 1.4508278973	 0.0429521397	 0.126543
H	-4.6846013711	 0.3675489421	 0.0072841956	 0.119234
H	-3.887582838	-3.77272043	-0.0808207847	 0.304248
63.1391	178.2347	193.388	210.2635	234.184	379.128	455.4496	497.1438	568.7645	585.3636	628.8106	638.154	776.1345	826.4149	853.6204	975.4598	1010.1257	1010.4248	1035.8055	1100.6494	1121.4779	1200.6469	1226.8872	1244.2896	1266.6896	1317.5934	1375.8423	1443.5874	1476.9416	1494.2675	1516.4157	1612.0146	1641.4273	2981.8484	3008.1557	3157.4371	3248.9558	3780.7846	3848.718
OCC1=CC=NC(O)=N1	OCc1ccnc(O)n1	
InChI=1S/C5H6N2O2/c8-3-4-1-2-6-5(9)7-4/h1-2,8H,3H2,(H,6,7,9)	InChI=1S/C5H6N2O2/c8-3-4-1-2-6-5(9)7-4/h1-2,8H,3H2,(H,6,7,9)
