19
gdb 105499	1.98222	1.6025	1.2093	2.9978	71.45	-0.2422	-0.0277	0.2145	1131.8307	0.155864	-460.142172	-460.132239	-460.131294	-460.177703	34.651	
C	-1.3762966975	 0.0000495999	 0.046042901	-0.264349
O	 0.0344903448	 0.1071028078	-0.037861264	-0.283204
C	 0.6160815734	-0.680258327	-1.0492622457	 0.241122
C	 2.1319463988	-0.8863520247	-0.8040493887	-0.117343
O	 1.9855310145	-2.3130805315	-0.8069579443	-0.268314
C	 0.5478795294	-2.2193692469	-0.9065247558	-0.124856
C	 0.3183889988	-0.1340418896	-2.4540021286	 0.322426
C	 0.374628509	 1.3744583941	-2.6051708894	-0.477728
O	 0.1002020655	-0.8736296979	-3.3850037953	-0.294064
H	-1.8759865427	 0.3219663592	-0.8791694992	 0.115218
H	-1.6933164529	-1.0275462501	 0.2686789803	 0.121212
H	-1.6933053186	 0.6518790464	 0.8625188011	 0.137958
H	 2.815845275	-0.5359844809	-1.5862725524	 0.108487
H	 2.4406687224	-0.4875042753	 0.1701485554	 0.114912
H	 0.0506746793	-2.5584106253	 0.0100791755	 0.100069
H	 0.1600459535	-2.7503494919	-1.7791532181	 0.130843
H	 1.2734902052	 1.7812561389	-2.130753589	 0.143516
H	 0.3543526945	 1.6322547584	-3.6644776406	 0.142832
H	-0.4778936825	 1.8392364163	-2.1001264821	 0.151263
51.7159	90.2872	100.2907	146.0348	165.2904	208.0932	222.3187	268.1711	348.0538	415.0921	481.4202	533.7136	583.8051	639.719	790.3341	875.4168	929.152	959.8946	984.1081	1013.9632	1044.5534	1083.3896	1108.2459	1129.8598	1160.9082	1171.3529	1183.9255	1207.158	1239.6568	1288.6645	1308.4277	1371.6275	1384.3978	1455.5721	1469.7239	1480.8372	1489.506	1490.5496	1508.0285	1518.3877	1810.0935	2993.3127	3013.9296	3030.7624	3047.8839	3048.8448	3067.8982	3107.5568	3110.1152	3127.6689	3156.7266
COC1(COC1)C(C)=O	COC1(COC1)C(=O)C	
InChI=1S/C6H10O3/c1-5(7)6(8-2)3-9-4-6/h3-4H2,1-2H3	InChI=1S/C6H10O3/c1-5(7)6(8-2)3-9-4-6/h3-4H2,1-2H3
