17
gdb 126052	3.76725	1.08306	1.03628	2.2615	74.68	-0.2534	-0.0091	0.2443	1204.9126	0.137071	-417.978599	-417.970714	-417.96977	-418.011648	29.422	
C	 1.1277258334	 1.1245336311	-0.6370719979	-0.402319
C	 0.1357651444	 0.1392715206	-0.0720271265	 0.019298
N	 0.6482987526	-1.1383045759	 0.4345081926	-0.339743
C	 0.0233524297	-0.2013831463	 1.3839893619	-0.160052
C	 0.9039861856	 0.3633783844	 2.4302450688	 0.426104
N	 0.3855811642	 1.0741835697	 3.4071436494	-0.216399
O	 1.4565401596	 1.4446424123	 4.2146673793	-0.164019
C	 2.5844153554	 0.9370296555	 3.6968877315	 0.074998
C	 2.3183819074	 0.23714718	 2.5672877012	-0.333054
H	 2.04221705	 1.1571152205	-0.0417430412	 0.130928
H	 1.3984426421	 0.84855241	-1.6616787523	 0.122318
H	 0.6967959572	 2.1309330161	-0.6594443096	 0.124798
H	-0.8136980515	 0.1055791312	-0.6059914245	 0.090956
H	 0.0155828605	-1.9036575204	 0.2208815438	 0.237858
H	-0.9817039453	-0.4136257628	 1.7394553352	 0.101705
H	 3.4893844336	 1.1520528637	 4.2439980283	 0.150339
H	 2.9910134009	-0.3090802097	 1.9297070999	 0.136286
60.049	122.9685	163.2055	204.1818	278.8773	384.0598	439.4739	501.079	613.466	659.8896	754.9755	785.1279	816.6795	858.7443	880.8307	911.3886	929.9256	952.5511	986.8755	1014.6724	1025.0781	1056.2747	1079.1254	1140.4485	1156.4875	1180.43	1246.1258	1251.8819	1303.871	1388.5126	1416.0966	1446.9517	1454.2608	1488.0694	1493.8756	1509.2339	1605.9236	3040.3262	3101.5666	3104.834	3136.2717	3143.7329	3263.1086	3300.6499	3514.9226
CC1NC1C1=NOC=C1	C[C@H]1N[C@H]1c1nocc1	
InChI=1S/C6H8N2O/c1-4-6(7-4)5-2-3-9-8-5/h2-4,6-7H,1H3	InChI=1S/C6H8N2O/c1-4-6(7-4)5-2-3-9-8-5/h2-4,6-7H,1H3/t4-,6-/m1/s1
