21
gdb 119711	3.08479	1.03758	0.92306	0.7917	79.74	-0.2379	0.0751	0.3129	1383.3218	0.181024	-424.185117	-424.175578	-424.174634	-424.219845	35.496	
C	-0.0983305032	 1.5169056512	 0.0857500328	-0.386965
C	-0.0461052125	 0.0021836105	 0.1755521998	-0.061373
O	-1.3219015566	-0.5110006702	-0.2021983555	-0.289149
C	-1.3989588843	-1.885781745	-0.1538282313	 0.415037
C	-0.8842290466	-2.8223785513	-1.2565987179	-0.293626
C	-2.1565358387	-3.7075871191	-1.059612324	-0.21695
C	-2.6594758949	-2.7465246961	 0.0256754927	-0.209717
C	-1.6249668102	-2.6233544831	 1.1234903469	 0.029298
O	-0.7803296626	-3.6725106537	 1.5065424046	-0.424353
H	 0.8663269938	 1.9484168806	 0.3693036857	 0.114925
H	-0.3343426599	 1.8335989812	-0.9341698141	 0.12648
H	-0.8674087938	 1.915260467	 0.7538229336	 0.125329
H	 0.7329266427	-0.3992683369	-0.4901797028	 0.096034
H	 0.1976442011	-0.324681695	 1.1975510656	 0.098286
H	-0.8774561278	-2.325108529	-2.2288574996	 0.105601
H	 0.0820787922	-3.2995372911	-1.0786161566	 0.107307
H	-2.7976897686	-3.7251190293	-1.9426479632	 0.104123
H	-1.9741580404	-4.7341173893	-0.7310935766	 0.094844
H	-3.6887476397	-2.4462775149	 0.1841601779	 0.089963
H	-1.9393015294	-1.9655578834	 1.9351065358	 0.088507
H	-1.3138370807	-4.3349233431	 1.9586360061	 0.286399
62.6173	78.5841	122.1035	213.4957	233.8813	241.848	289.3028	327.4998	353.4523	386.4516	492.8924	574.8435	690.7432	754.2346	795.5996	818.7317	821.4886	901.501	928.7703	944.3506	964.8164	999.0162	1034.1812	1069.1237	1094.0162	1130.4638	1139.3745	1147.7535	1186.4092	1218.4673	1220.1427	1234.2448	1251.3169	1291.8515	1294.9415	1309.9604	1334.8867	1398.3751	1422.3335	1464.4273	1472.0175	1483.109	1499.7397	1507.7455	1527.6445	2983.4367	3014.7115	3044.1836	3061.5532	3068.8762	3099.8924	3110.56	3118.592	3120.8573	3129.1433	3180.1109	3799.7441
CCOC12CCC1C2O	CCO[C@]12CC[C@H]1[C@H]2O	
InChI=1S/C7H12O2/c1-2-9-7-4-3-5(7)6(7)8/h5-6,8H,2-4H2,1H3	InChI=1S/C7H12O2/c1-2-9-7-4-3-5(7)6(7)8/h5-6,8H,2-4H2,1H3/t5-,6+,7+/m0/s1
