23
gdb 119040	2.37056	0.98348	0.78923	1.2302	82.19	-0.2557	0.0778	0.3335	1553.2424	0.202812	-425.412819	-425.401693	-425.400749	-425.449885	39.763	
C	 0.4035399202	-0.1399224784	-1.2515056049	-0.384934
C	-0.5324592691	-0.2930164912	-0.0453012846	-0.261837
C	 0.1855567669	-0.6507314323	 1.2475880694	 0.382379
C	 1.0465269622	 0.4324380396	 1.8789126695	-0.255124
C	 0.2332818247	 1.5809464122	 2.4717025148	-0.072518
O	 1.151962689	 2.4708198121	 3.0908401035	-0.422636
O	-0.615164576	-1.3722291424	 2.2082602478	-0.31272
C	 0.4798010989	-2.0591336095	 1.5895668075	 0.029833
C	 0.1591498769	-3.2661526716	 0.7438812809	-0.427406
H	 0.9625133877	-1.0623133353	-1.4397946427	 0.119587
H	-0.1669748384	 0.0960818079	-2.1547555791	 0.116833
H	 1.1310193439	 0.6641303524	-1.1038035246	 0.123865
H	-1.0923337023	 0.6380210713	 0.1043658132	 0.103249
H	-1.2834616402	-1.060710156	-0.2479202515	 0.109696
H	 1.6426779346	-0.001227603	 2.6877904818	 0.110466
H	 1.7526809133	 0.8366497476	 1.1445899444	 0.107573
H	-0.3419399361	 2.0968235333	 1.6869528877	 0.083362
H	-0.486088481	 1.172294336	 3.19620703	 0.106341
H	 0.648993373	 3.1731606533	 3.5129775722	 0.28511
H	 1.3233395852	-2.2165770831	 2.2666113492	 0.082026
H	-0.6537222974	-3.0793161907	 0.0402238894	 0.126165
H	 1.0447379276	-3.5803117255	 0.1806107115	 0.120814
H	-0.1384214535	-4.1014851367	 1.3868548944	 0.129875
35.2889	76.5235	91.6143	140.4734	167.4394	198.3058	232.2424	257.6027	272.1424	311.832	341.2163	378.9409	453.8742	484.7719	592.1835	723.1154	773.0582	797.8753	809.3313	906.2572	945.801	986.8542	1009.063	1028.4892	1048.8692	1074.1259	1103.883	1129.2383	1131.8644	1176.3576	1217.4764	1243.8239	1252.9318	1283.9272	1311.0695	1332.4652	1359.7946	1384.9364	1409.4127	1413.4143	1459.6229	1466.0553	1481.815	1485.6122	1498.804	1501.7963	1504.8929	1517.6889	1529.6989	2974.379	3014.455	3037.1848	3038.5251	3042.2632	3045.3003	3071.6673	3088.3297	3091.0975	3096.8028	3108.0948	3112.4758	3138.6058	3831.0156
CCC1(CCO)OC1C	CC[C@@]1(CCO)O[C@H]1C	
InChI=1S/C7H14O2/c1-3-7(4-5-8)6(2)9-7/h6,8H,3-5H2,1-2H3	InChI=1S/C7H14O2/c1-3-7(4-5-8)6(2)9-7/h6,8H,3-5H2,1-2H3/t6-,7-/m0/s1
