18
gdb 67875	2.35357	2.0213	1.48849	1.6693	75.97	-0.2439	0.0084	0.2523	952.3499	0.149608	-401.984473	-401.977084	-401.97614	-402.016168	29.212	
C	-0.1256462078	 1.5148308029	 0.1738368049	-0.438175
C	 0.0626092853	 0.0110720137	-0.0288541846	 0.251816
C	-1.2444913254	-0.747884535	-0.1281996892	-0.089666
C	-1.370164987	-1.6841840563	 0.808550072	-0.080713
C	-0.18243726	-1.7470567023	 1.7398146785	-0.286788
C	 0.8051799969	-0.730836065	 1.1360728671	 0.046609
O	 1.9080449873	-1.3925423838	 0.4650476982	-0.234608
C	 1.8403233408	-1.0020342154	-0.8311208515	 0.106473
N	 0.9094219435	-0.238847713	-1.2230163104	-0.300335
H	 0.8434213539	 2.0148491498	 0.2659423996	 0.119866
H	-0.6488993189	 1.949548984	-0.6824817277	 0.129127
H	-0.712710783	 1.7148923475	 1.0760719115	 0.114171
H	-1.9661852418	-0.521957466	-0.9045224514	 0.102703
H	-2.227390584	-2.3384479628	 0.9241324591	 0.099045
H	-0.4568034135	-1.4749631649	 2.7671994511	 0.111068
H	 0.2719793567	-2.7425037363	 1.7911290911	 0.124065
H	 1.2411982402	-0.0634276093	 1.8839305771	 0.087772
H	 2.6332400969	-1.4011543677	-1.4548602354	 0.13757
91.1968	220.1223	221.4763	278.1449	302.2621	418.3438	455.2015	576.0155	609.574	619.8316	733.5575	777.4136	830.4189	865.9942	880.4407	925.8243	952.9374	957.0324	966.5575	979.2348	1032.4761	1037.1352	1096.7617	1121.9713	1150.6487	1182.7886	1192.9743	1231.8637	1275.5963	1324.4163	1329.0489	1365.2068	1384.0391	1405.9133	1474.7073	1485.4282	1493.0922	1681.2407	1703.3086	3026.0333	3035.5089	3067.9543	3075.8421	3108.8172	3116.8803	3186.7588	3208.9206	3213.6059
CC12C=CCC1OC=N2	C[C@]12C=CC[C@H]1OC=N2	
InChI=1S/C7H9NO/c1-7-4-2-3-6(7)9-5-8-7/h2,4-6H,3H2,1H3	InChI=1S/C7H9NO/c1-7-4-2-3-6(7)9-5-8-7/h2,4-6H,3H2,1H3/t6-,7+/m1/s1
