19
gdb 87933	3.43684	1.14714	1.07533	3.7322	78.05	-0.2398	0.0295	0.2693	1204.1605	0.159829	-419.195139	-419.186795	-419.185851	-419.228218	31.888	
C	-0.3665918736	 1.3575107476	 0.137289957	-0.322061
N	-0.011351447	-0.0526210567	 0.1595622709	-0.102772
C	 1.337679587	-0.4092080913	-0.2742915865	-0.317068
C	 0.9420705137	-0.557267253	 1.1484668365	 0.30205
C	 1.530944065	 0.2926726338	 2.2674305729	-0.152082
O	 0.9400961109	-0.2112804344	 3.4749717244	-0.241205
C	 0.417757188	-1.4647285167	 3.2798216322	 0.414389
N	-0.1323765119	-2.1543283556	 4.1811176041	-0.539579
C	 0.6072872818	-1.8709516782	 1.8347775232	-0.375811
H	 0.4795143518	 2.0432240113	 0.3073191766	 0.100424
H	-0.7920103989	 1.5924099378	-0.84306787	 0.131313
H	-1.1302390349	 1.5552263973	 0.8961525083	 0.132832
H	 1.4244327601	-1.2822099547	-0.9168936872	 0.120666
H	 2.0226838106	 0.4034739054	-0.5211019023	 0.107443
H	 2.6207087946	 0.177415195	 2.3283974244	 0.115792
H	 1.2985688305	 1.3571171408	 2.1952575804	 0.12182
H	-0.1208995717	-1.6534244612	 5.0715204022	 0.220725
H	-0.2847736088	-2.3457686249	 1.4273032475	 0.150885
H	 1.438501453	-2.5827899223	 1.7665642153	 0.132238
67.4776	137.5392	186.6713	214.3221	274.7371	333.5535	420.4517	435.2423	489.0032	502.7368	532.7448	685.2639	741.6268	816.2793	856.2606	890.7717	903.017	909.5961	961.6596	1011.4066	1055.8827	1067.897	1096.8215	1123.3	1147.3022	1160.2783	1179.473	1206.2564	1235.0449	1253.0004	1267.742	1302.872	1373.7335	1431.3287	1449.8914	1460.124	1489.9819	1498.8254	1513.9277	1517.9571	1782.3925	2967.3016	3023.6093	3047.0412	3070.0926	3075.2899	3105.2166	3107.9824	3141.4529	3165.273	3469.2692
CN1CC11COC(=N)C1	CN1C[C@]21CO[C]([NH])C2	
InChI=1S/C6H10N2O/c1-8-3-6(8)2-5(7)9-4-6/h7H,2-4H2,1H3	InChI=1S/C6H10N2O/c1-8-3-6(8)2-5(7)9-4-6/h7H,2-4H2,1H3/t6-,8?/m0/s1
