16
gdb 126036	3.08267	1.65284	1.13384	2.0988	70.02	-0.2247	-0.0045	0.2202	1036.9577	0.127249	-434.061825	-434.054387	-434.053443	-434.094056	27.772	
C	 0.015132334	 1.594971316	-0.0502942637	-0.397897
C	-0.0071009897	 0.0686784587	 0.0766333967	-0.153205
C	 0.7419157327	-0.6576891568	-1.1077849299	-0.10273
O	 1.5887795137	-1.7266167181	-0.575145062	-0.272912
C	 1.6158906742	-1.511183414	 0.7523755276	 0.404691
N	 2.2914050664	-2.0707127044	 1.7369479159	-0.331847
N	 1.8004257174	-1.3775612748	 2.7915799145	-0.110279
N	 0.8871365117	-0.4338061624	 2.5378167195	-0.312901
C	 0.7632401326	-0.5159960969	 1.2202101529	 0.249371
H	 1.0433116775	 1.9694182247	-0.0730846098	 0.125465
H	-0.4896510711	 1.9190439244	-0.9663766817	 0.119046
H	-0.4950131831	 2.0583658072	 0.7985111401	 0.13705
H	-1.0511452834	-0.2679348005	 0.1083075449	 0.105306
H	 0.0611465352	-1.1149720195	-1.8277528339	 0.127676
H	 1.3966020518	 0.0467761452	-1.6328598	 0.121638
H	 2.1386220502	-1.546085849	 3.7234308288	 0.291528
69.0538	162.7499	223.1312	271.6732	310.0746	364.4568	437.3408	520.634	621.0241	677.223	681.8582	750.8256	783.003	895.9778	933.0701	966.6204	982.766	1038.9701	1103.2525	1139.9036	1153.2065	1167.1275	1201.543	1237.0804	1295.035	1338.6409	1378.3371	1411.5325	1449.7385	1462.0989	1494.8988	1498.3779	1507.0632	1566.3589	1625.9266	3018.7094	3035.9971	3044.8552	3106.6741	3116.9127	3120.9055	3691.0644
CC1COC2=NNN=C12	C[C@H]1COc2n[nH]nc12	
InChI=1S/C5H7N3O/c1-3-2-9-5-4(3)6-8-7-5/h3H,2H2,1H3,(H,6,7,8)	InChI=1S/C5H7N3O/c1-3-2-9-5-4(3)6-8-7-5/h3H,2H2,1H3,(H,6,7,8)/t3-/m0/s1
