16
gdb 66127	2.75839	1.46802	1.32595	2.8641	68.13	-0.2554	0.0043	0.2597	1007.4711	0.124417	-437.871256	-437.863388	-437.862443	-437.903527	30.135	
O	-0.0469842872	 1.3630095529	 0.0402200899	-0.448739
C	 0.0046696111	-0.0523551708	-0.0058438042	 0.209251
C	 0.6306819156	-0.6683173541	 1.2957027303	-0.150725
O	-0.0835999417	-1.8507534324	 1.5926710723	-0.243313
C	-1.3643548663	-1.7434244416	 1.0224751991	 0.122281
C	-2.1738567944	-0.5054286793	 1.2844265594	-0.347693
C	-1.3920033673	-0.6525591811	-0.010752835	-0.088294
C	 0.7449279757	-0.4901591231	-1.2067548339	 0.238875
N	 1.3549149467	-0.8075589202	-2.135824906	-0.333679
H	 0.8459653772	 1.7102003783	-0.0700246898	 0.295563
H	 1.6888020575	-0.9209886078	 1.1946091423	 0.132866
H	 0.5175852012	 0.0905571956	 2.0815998887	 0.115653
H	-1.8318356774	-2.7110096245	 0.8917471281	 0.116721
H	-3.2515499377	-0.590212942	 1.2029032085	 0.127538
H	-1.8357435476	 0.2123480587	 2.0223731251	 0.136639
H	-1.9073170153	-0.7442595986	-0.9574888047	 0.117056
101.7962	149.7768	205.4991	267.5105	295.5008	356.974	407.5828	480.1268	493.1364	549.4693	650.1219	703.0973	745.043	803.6875	834.0225	915.6007	952.9081	972.67	1000.9422	1050.8431	1066.6057	1089.4253	1104.6282	1116.7575	1168.407	1180.7659	1203.7779	1250.5057	1313.6584	1335.9485	1386.6994	1403.6801	1481.3536	1520.2323	2350.9056	3015.6189	3104.3222	3146.1344	3197.957	3205.6962	3233.8234	3799.3449
OC1(COC2CC12)C#N	O[C@]1(CO[C@H]2C[C@@H]12)C#N	
InChI=1S/C6H7NO2/c7-2-6(8)3-9-5-1-4(5)6/h4-5,8H,1,3H2	InChI=1S/C6H7NO2/c7-2-6(8)3-9-5-1-4(5)6/h4-5,8H,1,3H2/t4-,5+,6+/m1/s1
