20
gdb 52242	5.42865	0.67084	0.65128	1.452	80.01	-0.2386	-0.0237	0.2149	1710.7663	0.17036	-403.106836	-403.097909	-403.096965	-403.141915	32.362	
O	-0.5856801245	 0.7679346193	 0.8969410993	-0.235419
C	 0.0403356177	 0.9998578105	-0.1045504792	 0.160018
C	 1.328041282	 1.788055047	-0.1626940882	-0.272247
C	 1.2175530991	 2.9960100732	-1.1123890213	-0.228757
C	 2.5391692173	 3.7472336836	-1.2539597772	 0.016798
C	 3.7409500496	 3.109092015	-2.0110301017	-0.183634
N	 3.9074533065	 4.3193291735	-2.8951543825	-0.122867
C	 2.6525916452	 4.4155924991	-3.6588173244	-0.23597
C	 2.6462212369	 4.8921066812	-2.2617538877	-0.0572
H	-0.3162021297	 0.6364256219	-1.0981993264	 0.069085
H	 1.5958177959	 2.0962708055	 0.8523290729	 0.122585
H	 2.1133872307	 1.1124056002	-0.5330105571	 0.121061
H	 0.8738036071	 2.6542928559	-2.0968026312	 0.101678
H	 0.4491745505	 3.6839528693	-0.737193054	 0.115112
H	 2.866756007	 4.0871053872	-0.2664465342	 0.087185
H	 4.6320210519	 2.9596164769	-1.3991849533	 0.115494
H	 3.5370408109	 2.1894517381	-2.5726724336	 0.098536
H	 2.6889773311	 5.1702894122	-4.4385639863	 0.123908
H	 2.1327056237	 3.5021354645	-3.9407797191	 0.108489
H	 2.5664363112	 5.9467367058	-2.0162104748	 0.096145
53.1049	62.977	92.7101	130.6478	207.8593	293.4706	345.0943	444.913	491.1205	541.6514	702.1457	751.157	767.7978	787.4801	836.941	879.6279	944.4052	965.685	984.488	998.8043	1025.1	1058.7515	1085.9676	1103.1307	1110.0988	1129.5742	1158.4705	1196.4349	1212.6797	1227.8043	1249.096	1281.4734	1293.9458	1316.4391	1354.79	1377.7164	1397.2734	1431.7224	1462.6775	1491.0174	1492.9468	1512.4212	1837.1366	2845.6709	3007.3323	3022.7087	3032.5473	3050.2012	3065.6855	3097.6016	3103.8243	3114.0569	3155.7642	3195.2435
O=CCCC1CN2CC12	O=CCC[C@H]1CN2C[C@@H]12	
InChI=1S/C7H11NO/c9-3-1-2-6-4-8-5-7(6)8/h3,6-7H,1-2,4-5H2	InChI=1S/C7H11NO/c9-3-1-2-6-4-8-5-7(6)8/h3,6-7H,1-2,4-5H2/t6-,7-,8?/m0/s1
