20
gdb 83090	2.55488	1.58027	1.44131	1.5782	79.92	-0.1948	0.0159	0.2107	1033.9868	0.171836	-403.112473	-403.104435	-403.103491	-403.144256	32.549	
C	-0.0339728321	 1.4342374799	-0.246088582	-0.329049
N	 0.0296044159	 0.0024438938	 0.0217421323	-0.095427
C	-0.822315067	-0.4952197473	 1.1577994059	-0.018459
C	-1.0837528319	-1.9875635297	 0.8911284881	-0.261924
C	 0.2394220813	-2.6741428316	 0.6074914005	-0.059475
C	 1.3592111175	-1.9500513306	 0.57541569	-0.049205
C	 1.2100860606	-0.4654918392	 0.8400619455	-0.106043
C	 0.3570611561	-0.3234956421	 2.1437717636	 0.158356
O	 0.3159477436	 0.9599467927	 2.7303388002	-0.441323
H	 0.7266034577	 1.6848762065	-0.9946549443	 0.108761
H	-1.0115807122	 1.6621599781	-0.6862656913	 0.111902
H	 0.1090031171	 2.0804957236	 0.6309003336	 0.113157
H	-1.7289322454	 0.0788203679	 1.3666050942	 0.072518
H	-1.584331828	-2.4529628723	 1.7514619391	 0.101146
H	-1.7625538536	-2.0964132488	 0.0354278381	 0.113638
H	 0.2401814624	-3.7451307338	 0.4262210601	 0.089319
H	 2.3367779662	-2.3844919665	 0.3952051101	 0.087532
H	 2.1287274041	 0.1176738678	 0.7383748318	 0.057131
H	 0.5043573057	-1.1044770523	 2.9029379513	 0.066376
H	 1.1632294821	 1.118271694	 3.159799613	 0.281067
204.199	224.0284	229.9192	244.7699	296.6698	321.4466	331.6709	391.2506	475.7327	492.3186	560.0508	680.1071	770.2694	782.0669	865.7635	887.404	906.5635	931.3353	959.7956	967.3325	997.6426	1013.38	1051.5939	1106.1521	1136.2705	1152.7069	1156.713	1170.7317	1183.6447	1209.4203	1223.6262	1278.7281	1287.8728	1307.0528	1335.4676	1351.3501	1390.2318	1422.8857	1448.9023	1468.1363	1484.7229	1518.3003	1693.1544	2995.421	2999.8577	3011.4236	3043.6886	3062.9465	3078.8642	3081.9633	3083.7538	3162.4015	3189.2287	3806.5572
CN1C2CC=CC1C2O	CN1[C@H]2CC=C[C@@H]1[C@H]2O	
InChI=1S/C7H11NO/c1-8-5-3-2-4-6(8)7(5)9/h2-3,5-7,9H,4H2,1H3	InChI=1S/C7H11NO/c1-8-5-3-2-4-6(8)7(5)9/h2-3,5-7,9H,4H2,1H3/t5-,6+,7-/m1/s1
