21
gdb 96099	2.73115	1.31508	1.00564	1.7111	78.33	-0.2457	0.0766	0.3224	1239.5215	0.18326	-424.218072	-424.209609	-424.208665	-424.25089	33.115	
C	 0.0170646124	 1.5614190888	-0.0050812386	-0.406108
C	 0.0158495005	 0.0311504698	-0.0127954786	 0.012863
C	 0.7279372831	-0.5250141831	-1.2541438759	-0.06958
O	 0.7306438658	-1.9425257529	-1.2838679638	-0.244712
C	 1.4215640901	-2.4997037647	-0.179320121	-0.156922
C	 0.7920991696	-2.0617992829	 1.1307674929	 0.427239
C	-0.1126647446	-2.9658424113	 1.8511687853	-0.237027
O	 1.2401298214	-2.7725179742	 2.2867723089	-0.291423
C	 0.6742868596	-0.5568990472	 1.2505895103	-0.29179
H	 1.0396972215	 1.955735423	 0.01648225	 0.117337
H	-0.4786912008	 1.965423686	-0.8940333377	 0.115418
H	-0.5056334989	 1.9501204988	 0.8746474918	 0.118083
H	-1.0225406454	-0.3244859705	-0.0542898928	 0.082608
H	 0.222346739	-0.2037658324	-2.1698622235	 0.10667
H	 1.764335805	-0.142105588	-1.2877995024	 0.082254
H	 1.3841858152	-3.5862485927	-0.2891587976	 0.111816
H	 2.4812710911	-2.1895116715	-0.1906781169	 0.091492
H	-0.874963765	-2.5539430905	 2.511434097	 0.112002
H	-0.3361100166	-3.9509523562	 1.4436611654	 0.115246
H	 1.6849255815	-0.136976468	 1.3593379979	 0.102912
H	 0.1173716355	-0.2846275502	 2.1531202393	 0.101622
110.3909	134.8342	220.6419	247.0007	282.1611	347.8927	354.1708	403.0558	430.6726	443.1747	479.2764	567.9283	774.1877	846.3222	880.8057	895.5079	921.0479	937.7881	945.3899	973.9763	983.1199	1027.6879	1096.7991	1125.4008	1128.8409	1144.3079	1166.8801	1171.8678	1200.7352	1257.8274	1289.0667	1307.5666	1321.0094	1338.9573	1373.5316	1384.7638	1408.7876	1421.3839	1438.7996	1482.4892	1489.4052	1496.8845	1499.84	1501.734	1534.1194	2943.3666	2957.2997	3006.2138	3020.8049	3028.4622	3073.2988	3080.16	3080.8454	3095.1889	3099.2773	3101.8358	3167.082
CC1COCC2(CO2)C1	C[C@H]1COC[C@]2(CO2)C1	
InChI=1S/C7H12O2/c1-6-2-7(5-9-7)4-8-3-6/h6H,2-5H2,1H3	InChI=1S/C7H12O2/c1-6-2-7(5-9-7)4-8-3-6/h6H,2-5H2,1H3/t6-,7+/m1/s1
