25
gdb 59211	2.99046	1.15953	1.04262	0.1003	92.1	-0.2789	0.0841	0.363	1327.1355	0.230813	-352.356616	-352.347645	-352.346701	-352.390111	35.964	
C	-0.117965753	 1.4848907362	-0.0119973345	-0.388463
C	-0.1266284716	-0.051592476	 0.0016871358	-0.012431
C	-1.569114798	-0.5807604348	-0.0140069485	-0.388463
C	 0.6683849031	-0.6089060659	-1.1842588389	 0.084437
C	 2.2267406641	-0.4500095007	-1.1827304346	-0.03304
C	 2.2777658169	-1.7407705851	-0.314896396	-0.231018
C	 1.0470432633	-2.128881797	-1.1846635478	-0.033051
C	 1.6886046932	-2.2827825925	-2.5779776606	-0.215393
C	 2.5904816317	-0.9992854027	-2.5764986267	-0.215395
H	 0.899248545	 1.8846936673	 0.0389573894	 0.112584
H	-0.5816691606	 1.8697957357	-0.9283618099	 0.109637
H	-0.6795934899	 1.8886576631	 0.8370988438	 0.107218
H	 0.3367880904	-0.3780549679	 0.940991969	 0.070407
H	-2.0875835352	-0.2739770875	-0.9305065913	 0.109636
H	-1.6003322862	-1.6733369488	 0.0356302401	 0.112585
H	-2.1402232319	-0.1903326098	 0.8350040804	 0.107218
H	 0.1812462172	-0.265553973	-2.1084128576	 0.047885
H	 2.7137612778	 0.4749172364	-0.8698805363	 0.05346
H	 3.1715572762	-2.3687250519	-0.3889969562	 0.082257
H	 2.0368023392	-1.5726621593	 0.7346729018	 0.097867
H	 0.3415859176	-2.9010439702	-0.8737814682	 0.053461
H	 2.2693877573	-3.2054028184	-2.668889433	 0.091837
H	 0.9457227737	-2.2735602938	-3.3811080297	 0.092462
H	 2.3309010174	-0.3022545546	-3.3788342371	 0.092463
H	 3.6554321623	-1.2328681586	-2.6666184632	 0.091837
58.6403	158.3518	188.415	219.101	248.1734	298.3497	300.7229	415.865	441.1628	451.5577	503.8444	648.8733	809.3757	834.349	837.8792	864.8187	877.5366	885.9934	906.1559	926.3584	944.0706	958.259	965.9424	983.9041	1015.5532	1029.8011	1057.3505	1085.271	1116.1628	1118.8225	1144.1166	1171.5757	1200.0353	1210.1743	1234.2145	1244.095	1258.4867	1270.4132	1285.5967	1307.2639	1312.443	1336.654	1343.9813	1398.0295	1408.4186	1422.1638	1486.9948	1490.9855	1491.5215	1498.8627	1503.9949	1509.9229	1519.3291	2991.8227	3023.3054	3024.3462	3029.7946	3044.5921	3051.5911	3054.9513	3081.1172	3086.5439	3093.7027	3093.8244	3098.5797	3100.5767	3103.9579	3105.5407	3131.0771
CC(C)C1C2CC1CC2	CC(C)[C@H]1[C@H]2C[C@@H]1CC2	
InChI=1S/C9H16/c1-6(2)9-7-3-4-8(9)5-7/h6-9H,3-5H2,1-2H3	InChI=1S/C9H16/c1-6(2)9-7-3-4-8(9)5-7/h6-9H,3-5H2,1-2H3/t7-,8+,9+
