16
gdb 96980	2.80145	1.51429	1.07004	4.1788	74.29	-0.2465	-0.0617	0.1848	1114.2054	0.123746	-437.892295	-437.884181	-437.883237	-437.925897	29.465	
C	 0.0117000769	 1.4597756248	 0.2233031244	-0.339502
N	-0.0373963663	 0.0094844021	 0.262700586	-0.281453
C	-1.0927027306	-0.595819831	-0.0524451818	 0.308908
O	-2.2768631817	-0.0133165903	-0.4427218832	-0.252409
C	-3.2222195771	-1.0103317376	-0.7967941982	 0.083234
C	-2.8915995389	-1.8104710151	-2.004719508	-0.318962
C	-2.6196535351	-2.3760103396	-0.6011295417	-0.179963
C	-1.2577624217	-2.1127438262	-0.0485376691	 0.332124
O	-0.4588463829	-2.9037448945	 0.3750384108	-0.293834
H	 0.9111563745	 1.7633857554	-0.3225557233	 0.136273
H	-0.8653962832	 1.933124459	-0.230983325	 0.127228
H	 0.1253846891	 1.833950578	 1.2475983223	 0.139527
H	-4.2333335721	-0.7424849052	-0.5189787354	 0.125427
H	-3.7024941864	-2.2840650411	-2.54605671	 0.139724
H	-2.0508403372	-1.4956777016	-2.6138240016	 0.144929
H	-3.1673669974	-3.2447752171	-0.2628968862	 0.128749
43.9407	93.8998	179.8036	205.412	221.3751	347.558	423.1896	530.7558	559.5087	603.8487	667.6608	752.5372	787.2277	813.9762	843.9265	932.4893	979.9333	999.269	1043.3985	1049.8292	1081.8313	1100.8902	1125.0038	1131.1402	1164.2975	1194.3207	1248.1279	1314.5388	1373.421	1432.3361	1474.3974	1487.1277	1494.3612	1777.4736	1850.8135	3020.5819	3082.9277	3097.5337	3138.1273	3201.1749	3215.481	3232.8103
CN=C1OC2CC2C1=O	CN=C1O[C@H]2C[C@H]2C1=O	
InChI=1S/C6H7NO2/c1-7-6-5(8)3-2-4(3)9-6/h3-4H,2H2,1H3	InChI=1S/C6H7NO2/c1-7-6-5(8)3-2-4(3)9-6/h3-4H,2H2,1H3/t3-,4+/m1/s1
