17
gdb 50989	1.91442	1.63733	1.06444	5.0163	72.32	-0.2601	-0.0423	0.2178	1146.7782	0.134734	-418.000478	-417.991364	-417.99042	-418.0352	32.273	
O	 1.4626843151	 0.3801821438	 0.5740625945	-0.244207
C	 0.9348779879	 1.4363203237	 0.8235317347	 0.157197
C	 1.5316050659	 2.7590984847	 0.349248066	-0.377854
C	 1.4289181889	 2.9227266517	-1.1720319192	 0.319808
C	 0.1517270521	 3.5965114999	-1.6777002955	-0.386372
C	-1.0583338214	 2.9670227808	-1.1498638058	 0.267096
N	-1.9909339792	 2.4635089976	-0.6884190611	-0.311854
C	 2.6761889221	 3.0957649177	-1.9645278005	-0.286183
N	 1.9140041765	 1.840909801	-2.0287984552	-0.327605
H	-0.0051594386	 1.4851262493	 1.4068996339	 0.119736
H	 1.0531277511	 3.6016765462	 0.8582375463	 0.119132
H	 2.5875585892	 2.7437590398	 0.6373940851	 0.135878
H	 0.1417224528	 4.6553147408	-1.3920180165	 0.151713
H	 0.132883516	 3.5446178569	-2.7698407158	 0.166762
H	 2.667975527	 3.6839898879	-2.8787913768	 0.120833
H	 3.6172174658	 3.1208346178	-1.4210967407	 0.120859
H	 2.3317976788	 1.1084359604	-1.4584518033	 0.255062
61.7147	68.8935	111.5972	137.4959	218.3906	310.067	342.8714	375.2871	392.6864	425.4499	535.8517	567.9391	732.2239	830.3403	890.1985	897.006	931.122	956.9102	964.6841	995.4861	1012.5776	1026.1411	1103.8735	1147.3695	1200.7037	1222.2312	1257.7608	1297.9421	1318.3789	1346.0087	1401.0461	1418.7967	1452.4374	1468.6643	1515.3078	1811.1574	2357.7182	2946.5064	3044.159	3048.5645	3101.0494	3102.7614	3104.5815	3187.9597	3501.3758
O=CCC1(CC#N)CN1	O=CC[C@@]1(CC#N)CN1	
InChI=1S/C6H8N2O/c7-3-1-6(2-4-9)5-8-6/h4,8H,1-2,5H2	InChI=1S/C6H8N2O/c7-3-1-6(2-4-9)5-8-6/h4,8H,1-2,5H2/t6-/m0/s1
