24
gdb 101658	3.25532	0.73247	0.68688	3.9381	87.71	-0.2372	0.0296	0.2668	1777.7361	0.215524	-405.583191	-405.571824	-405.57088	-405.620531	40.13	
C	-0.1886062909	 1.5110030006	 0.1444204892	-0.392244
C	 0.0578811026	 0.0039335655	 0.02251302	-0.164594
C	 0.7663816928	-0.4289495434	-1.274917614	 0.042543
C	 2.2036089085	 0.0966746356	-1.365331253	-0.39614
C	 0.6943727046	-1.9660363139	-1.398788945	-0.197683
N	 1.28083724	-2.5274606476	-2.6113455958	-0.03042
C	 2.6016402287	-3.1352172254	-2.5652753458	-0.351266
C	 0.549167439	-2.5967249723	-3.7592928277	 0.150885
O	 0.9221518227	-3.0634064911	-4.816169977	-0.34554
H	 0.745486974	 2.079566511	 0.1773961567	 0.121163
H	-0.7755368498	 1.8840769847	-0.7022432193	 0.117221
H	-0.7432828464	 1.7411329272	 1.059254308	 0.115826
H	 0.6459932155	-0.3431146043	 0.8836501198	 0.09487
H	-0.9071845823	-0.5160033919	 0.0875567814	 0.093618
H	 0.2011136785	-0.0137440188	-2.1222860504	 0.077548
H	 2.8198898113	-0.29537158	-0.546658968	 0.109862
H	 2.6698781382	-0.1904062271	-2.3116182133	 0.128169
H	 2.2322520702	 1.1881284757	-1.3082281584	 0.119923
H	 1.1967061018	-2.4308973541	-0.5420149835	 0.108711
H	-0.3579099462	-2.271229311	-1.3443860523	 0.114089
H	 2.6162949918	-3.9823354358	-1.8681234728	 0.123182
H	 2.8359051418	-3.4918922212	-3.5684746505	 0.167954
H	 3.362261886	-2.4151601073	-2.2489202721	 0.125511
H	-0.4628328824	-2.165284815	-3.6211381262	 0.066812
56.7129	58.637	89.3558	108.6525	127.6178	225.2333	227.7062	255.5788	286.4586	310.2307	340.9615	365.7824	396.7109	415.4564	489.7683	707.6196	774.4057	821.5371	871.7769	900.8402	919.3089	977.5185	1014.473	1033.0922	1045.4882	1088.7191	1137.0366	1151.1451	1162.3192	1185.2615	1243.8631	1276.9918	1299.5993	1317.3794	1377.0502	1383.6391	1388.9366	1414.3007	1417.7952	1427.5242	1441.1252	1446.9314	1480.1414	1487.8988	1495.4505	1497.5581	1502.2246	1507.8712	1513.6767	1523.6889	1795.193	2926.6113	2996.2342	3007.3787	3020.5801	3024.563	3030.5225	3035.1632	3040.713	3068.1861	3084.063	3100.9214	3101.1395	3108.9199	3118.6404	3156.058
CCC(C)CN(C)C=O	CC[C@@H](C)CN(C)C=O	
InChI=1S/C7H15NO/c1-4-7(2)5-8(3)6-9/h6-7H,4-5H2,1-3H3	InChI=1S/C7H15NO/c1-4-7(2)5-8(3)6-9/h6-7H,4-5H2,1-3H3/t7-/m1/s1
