18
gdb 61019	3.17651	1.23393	0.9916	5.0605	73.25	-0.2392	0.0324	0.2717	1197.207	0.146874	-439.06005	-439.051428	-439.050484	-439.094085	31.278	
C	 0.5764257484	 1.2368982235	 0.0073068778	-0.350751
N	-0.1965900322	 0.008891937	 0.090083298	-0.067405
C	-0.7184926091	-0.3780309566	 1.2952499205	 0.149938
O	-0.6167088104	 0.2522986407	 2.3278887496	-0.345932
C	-0.3197407105	-0.7677687577	-1.1170927052	 0.053271
C	 0.9046072197	-1.6252496505	-1.6446963826	-0.28122
C	-0.048423969	-2.8225599318	-1.6991826032	 0.037847
O	-0.496850521	-3.054088495	-0.3621585459	-0.232849
C	-1.1664280895	-2.0482858711	-1.1281544366	-0.047297
H	 1.6155215077	 1.0314126842	-0.2776449864	 0.126038
H	 0.143052448	 1.9179475192	-0.7353567445	 0.121062
H	 0.5580679296	 1.707912905	 0.9897616549	 0.171314
H	-1.255690528	-1.3371397349	 1.2323176506	 0.105002
H	-0.6592030222	-0.1116817975	-1.9285090231	 0.094418
H	 1.2720931429	-1.2867838272	-2.6152545466	 0.112852
H	 1.734664428	-1.7487511461	-0.9463634291	 0.123589
H	-0.0652098182	-3.6612817425	-2.3842740959	 0.115749
H	-2.2393235343	-2.1442754088	-1.2471042822	 0.114377
48.6339	105.5514	142.3021	159.8113	265.4506	314.6359	337.4198	380.6219	414.1739	517.1894	707.624	745.248	817.6277	845.1367	870.0115	917.3919	936.6572	964.5855	1007.8265	1019.0668	1023.2761	1064.5889	1104.7415	1147.453	1161.3443	1202.7671	1236.372	1241.2675	1259.0502	1294.3141	1346.6456	1385.6739	1423.5039	1444.0496	1452.7773	1468.9421	1498.1887	1519.332	1785.8055	3016.0573	3020.536	3026.4835	3067.041	3075.9427	3138.4724	3159.8863	3185.9642	3202.6106
CN(C=O)C1CC2OC12	CN(C=O)[C@H]1C[C@H]2O[C@@H]12	
InChI=1S/C6H9NO2/c1-7(3-8)4-2-5-6(4)9-5/h3-6H,2H2,1H3	InChI=1S/C6H9NO2/c1-7(3-8)4-2-5-6(4)9-5/h3-6H,2H2,1H3/t4-,5+,6-/m0/s1
