15
gdb 10569	2.56952	1.91785	1.32181	4.3526	72.83	-0.2629	0.009	0.2719	953.437	0.116998	-325.49688	-325.488595	-325.487651	-325.529284	30.394	
C	-0.0937009872	 1.5203567362	-0.0369870025	-0.415821
C	 0.0260967985	 0.0163875343	-0.0076690362	-0.023288
C	 1.3261645564	-0.6761240761	-0.2339341155	-0.306455
C	 0.7225461969	-0.6876010131	 1.1823351646	 0.004439
C	 1.3487829677	 0.096598822	 2.2120837809	 0.259249
C	 1.8719933408	 0.754161754	 3.0711130757	-0.429347
C	 0.1314120037	-1.9295306967	 1.6229588959	 0.232787
N	-0.3530137236	-2.9259132984	 1.9548363515	-0.342432
H	 0.7984805179	 1.9997813228	 0.3727425507	 0.136644
H	-0.2257818599	 1.864723476	-1.0679063926	 0.129897
H	-0.9558253055	 1.85730435	 0.5463947025	 0.13631
H	-0.8530388033	-0.5214668173	-0.3496737504	 0.123546
H	 1.3406223285	-1.6226384224	-0.7609142127	 0.147284
H	 2.2185645988	-0.0705298099	-0.3434208144	 0.142091
H	 2.3342017604	 1.3274143388	 3.8364830024	 0.205095
130.9515	134.9284	161.2679	184.5552	225.015	323.5047	379.4471	472.8023	506.7111	589.6361	591.7555	607.6795	612.9873	674.1506	776.851	877.2438	908.2372	942.1867	1020.7015	1072.0688	1082.8974	1128.6513	1198.0605	1244.1117	1293.4414	1398.2586	1423.7192	1479.2696	1491.6093	1498.6569	2242.632	2354.2862	3042.7059	3107.5875	3125.4919	3146.663	3162.3081	3241.6145	3501.6636
CC1CC1(C#C)C#N	C[C@H]1C[C@]1(C#C)C#N	
InChI=1S/C7H7N/c1-3-7(5-8)4-6(7)2/h1,6H,4H2,2H3	InChI=1S/C7H7N/c1-3-7(5-8)4-6(7)2/h1,6H,4H2,2H3/t6-,7+/m0/s1
