17
gdb 123943	3.53223	1.64846	1.16809	3.2816	74.47	-0.2095	0.0354	0.2449	1017.7394	0.140452	-418.035059	-418.028245	-418.0273	-418.066371	26.808	
C	-0.0164755979	 1.4996332217	-0.0164291227	-0.239765
C	 1.4075380839	 2.0507162729	 0.0168423824	-0.084315
O	 2.0876006244	 1.6733448274	 1.2207657551	-0.276511
C	 1.954327974	 0.3733686678	 1.5576517139	 0.499473
C	 2.6739132868	-0.381601964	 2.4607993662	-0.396792
C	 2.0480474164	-1.6453251386	 2.4046031935	 0.020045
N	 1.033473588	-1.6830444821	 1.5467022872	-0.298149
N	 0.9843276924	-0.4231048344	 1.0378919492	-0.041539
C	 0.018258112	-0.0313988917	 0.0329083365	-0.144185
H	-0.5714255241	 1.8933336305	 0.8417429696	 0.128732
H	-0.5234235796	 1.834821911	-0.9257593073	 0.11739
H	 1.980814107	 1.6891710591	-0.849138847	 0.113501
H	 1.4192635645	 3.1421292248	 0.0086877619	 0.125166
H	 3.5085999454	-0.0578557873	 3.058528233	 0.107277
H	 2.3033925135	-2.5352194256	 2.9619284659	 0.109356
H	-0.9536668516	-0.4533860395	 0.3000539444	 0.136824
H	 0.3050070549	-0.4469540322	-0.9416493719	 0.123491
106.2648	163.1791	297.2006	339.0887	404.4865	468.6765	531.1784	650.2593	680.0955	696.5133	722.0071	761.8917	886.3863	887.4415	898.3398	930.8279	951.0222	1002.9628	1054.9019	1079.5701	1131.9748	1173.2149	1213.7006	1226.434	1250.7675	1290.8583	1300.1491	1363.8886	1372.4333	1379.5045	1406.9465	1456.8524	1480.1079	1493.9492	1516.1367	1550.5521	1606.6317	3006.1969	3023.8525	3054.0485	3097.7864	3106.6989	3115.7747	3239.571	3281.158
C1COC2=CC=NN2C1	C1COc2ccnn2C1	
InChI=1S/C6H8N2O/c1-4-8-6(9-5-1)2-3-7-8/h2-3H,1,4-5H2	InChI=1S/C6H8N2O/c1-4-8-6(9-5-1)2-3-7-8/h2-3H,1,4-5H2
