13
gdb 28146	5.3915	1.29669	1.04529	2.4694	66.71	-0.1837	0.0111	0.1948	1032.6152	0.091588	-452.776371	-452.769428	-452.768484	-452.807564	26.475	
O	 0.0772798291	 1.3062569681	 0.2069931377	-0.428732
C	 0.0675310398	-0.0309975393	-0.0029467565	 0.418112
C	 0.0858006868	-0.7830300908	-1.1681125928	-0.497089
C	 0.0601781067	-2.119974204	-0.6882879616	 0.337129
C	 0.0288083877	-2.1341533758	 0.6786429563	 0.303403
N	 0.0331593661	-0.8278475186	 1.1204254752	-0.437381
N	 0.0034901543	-3.4130514473	 1.1702042727	-0.35389
C	 0.0203349008	-4.1245825139	 0.0790633581	 0.02647
O	 0.0552938994	-3.4195778931	-1.1022432689	-0.209402
H	 0.1039589633	 1.7509296842	-0.645728319	 0.312089
H	 0.1129077809	-0.4024248709	-2.175496358	 0.108457
H	 0.015250482	-0.4825307607	 2.0639508888	 0.276258
H	 0.0104820531	-5.197944948	-0.0116609021	 0.144575
144.3455	207.9309	239.0786	332.1267	332.7489	399.5055	528.8443	566.9037	626.8923	656.9007	695.9892	740.6689	759.5802	772.0499	840.4829	938.3009	1012.7733	1067.9335	1145.3837	1160.8989	1186.1183	1277.0176	1299.3687	1452.2382	1479.5174	1522.6604	1551.8526	1562.6295	1609.9171	3264.3065	3291.3029	3688.1262	3847.8835
OC1=CC2=C(N1)N=CO2	Oc1cc2c([nH]1)nco2	
InChI=1S/C5H4N2O2/c8-4-1-3-5(7-4)6-2-9-3/h1-2,7-8H	InChI=1S/C5H4N2O2/c8-4-1-3-5(7-4)6-2-9-3/h1-2,7-8H
