19
gdb 77827	2.53334	1.51916	1.34939	3.0308	77.88	-0.2384	0.0154	0.2539	1065.6116	0.15949	-419.201051	-419.19247	-419.191526	-419.233853	32.639	
C	-0.1844012126	 1.490602954	-0.0403252397	-0.336193
N	 0.0796283024	 0.0594061068	 0.0702743074	-0.130381
C	 1.3783214364	-0.5204765444	-0.286134559	-0.171456
C	 2.550055696	 0.3981222696	-0.3243692321	 0.417455
N	 3.3190187917	 0.5759389632	-1.3099804876	-0.545786
O	 2.6669376356	 1.0413819162	 0.8840543727	-0.246875
C	 1.8241678434	 0.4266769756	 1.8719493307	-0.153959
C	 0.8847623916	-0.5174824631	 1.1314740835	 0.293415
C	 0.3282539349	-1.7080650736	 1.870582127	-0.477773
H	 0.6438393078	 2.1487099895	 0.2535959138	 0.12778
H	-0.4433661122	 1.7111669025	-1.0795890239	 0.137084
H	-1.0543794626	 1.7262963786	 0.5804856884	 0.124401
H	 1.3727217933	-1.3728325543	-0.9557559374	 0.1122
H	 4.0648716218	 1.2314062377	-1.0686512907	 0.222793
H	 2.4498577222	-0.1267603567	 2.5821059643	 0.118993
H	 1.3034698487	 1.2224829041	 2.4156665827	 0.119953
H	-0.2901092074	-1.3878038268	 2.7172292788	 0.124851
H	-0.3007480989	-2.300577719	 1.2030915096	 0.140192
H	 1.1302153477	-2.34365124	 2.2604731315	 0.123306
120.2149	164.2058	192.0317	211.9093	225.1579	256.5859	298.8367	419.7366	456.9811	485.2058	565.5081	670.0687	689.4203	753.0462	790.0662	885.1601	900.5455	929.4012	959.1096	986.4041	1018.5666	1068.0859	1098.4366	1127.2498	1154.9753	1161.3136	1171.24	1231.303	1249.2	1273.8404	1315.7833	1379.9679	1412.0616	1430.4976	1461.1595	1487.9934	1492.5821	1496.078	1503.2786	1517.2124	1774.2357	3010.8082	3030.0509	3035.2362	3073.7616	3082.8137	3093.7659	3112.1559	3132.1433	3183.4206	3469.3698
CN1C2C(=N)OCC12C	CN1[C@H]2[C]([NH])OC[C@@]12C	
InChI=1S/C6H10N2O/c1-6-3-9-5(7)4(6)8(6)2/h4,7H,3H2,1-2H3	InChI=1S/C6H10N2O/c1-6-3-9-5(7)4(6)8(6)2/h4,7H,3H2,1-2H3/t4-,6+,8?/m0/s1
