17
gdb 109640	2.1953	1.31976	1.06526	5.6182	70.29	-0.2506	0.0146	0.2652	1189.8357	0.134092	-455.110125	-455.100298	-455.099354	-455.144815	35.022	
C	 0.0575265043	 1.0480670309	 0.3117328768	-0.249825
O	-0.2157881053	-0.0658075342	-0.5290300934	-0.253808
C	-1.4335701521	-0.6731689498	-0.2816328669	 0.006457
C	-1.5628109836	-2.0303897671	-0.874496192	 0.047196
O	-0.474969653	-2.5614848169	-1.5468678913	-0.422152
C	-1.4395649074	-1.9071178778	 0.6688341268	 0.065643
N	-0.2335995355	-2.3983837452	 1.257553776	-0.569844
C	-2.6523473701	-2.089280249	 1.4283063595	 0.276189
N	-3.6492386659	-2.1949843906	 2.0074217635	-0.3472
H	 1.0461349219	 1.4188298799	 0.0358433716	 0.142753
H	-0.6834145244	 1.8437545767	 0.1593996494	 0.130761
H	 0.0546412439	 0.7650671794	 1.3719967739	 0.126071
H	-2.2988204264	-0.0122477176	-0.2532218776	 0.117989
H	-2.5186186496	-2.3529786364	-1.2732123872	 0.136136
H	 0.1635218367	-1.8448894362	-1.6647506561	 0.307409
H	 0.2857267086	-2.9336546993	 0.5684286523	 0.247546
H	 0.3624351677	-1.6551146667	 1.6006732049	 0.238679
96.9347	111.565	129.7632	156.0649	177.1525	215.0192	234.6275	294.4355	342.6578	420.2069	475.3427	497.443	576.8379	607.8846	631.4587	737.7083	791.6162	815.5353	880.0029	1022.4879	1045.2785	1089.204	1114.8488	1162.6628	1181.424	1215.9457	1250.4156	1265.5026	1316.9519	1339.8172	1375.5572	1448.2331	1484.6681	1486.6459	1508.352	1662.1182	2340.116	3006.9391	3066.0381	3117.986	3137.4207	3173.8181	3506.0761	3591.8939	3756.8166
COC1C(O)C1(N)C#N	CO[C@H]1[C@@H](O)[C@]1(N)C#N	
InChI=1S/C5H8N2O2/c1-9-4-3(8)5(4,7)2-6/h3-4,8H,7H2,1H3	InChI=1S/C5H8N2O2/c1-9-4-3(8)5(4,7)2-6/h3-4,8H,7H2,1H3/t3-,4+,5-/m1/s1
