12
gdb 11630	3.5336	1.92258	1.52739	4.1623	61.62	-0.2772	-0.0286	0.2486	804.6718	0.084712	-377.472555	-377.466156	-377.465211	-377.503262	23.594	
O	-0.0432204888	-0.0330834527	-0.1352595832	-0.292544
C	-0.04274661	 1.1400458114	 0.0260990419	 0.416582
C	-0.9597564375	 2.3809246975	 0.0527294687	-0.155168
C	-0.01633916	 2.9821747099	 1.1292311168	-0.227821
C	 0.9382657054	 2.3747187623	 0.0617028251	 0.090505
N	-0.002769236	 2.9863371809	-0.9751249215	-0.318444
C	 2.3671273787	 2.4571009602	-0.0294941174	 0.171321
N	 3.5211853211	 2.4836572977	-0.0936886786	-0.334489
H	-2.0375900903	 2.4760880829	-0.0417344613	 0.125681
H	-0.0065022383	 4.0724514258	 1.129951949	 0.142157
H	-0.0120626012	 2.5361708962	 2.1230734365	 0.135587
H	 0.0085012869	 2.4451959377	-1.8450968259	 0.246634
134.2257	177.8459	198.5173	370.2718	513.4315	528.4787	532.9823	607.8518	728.6542	792.2209	802.2502	825.2792	911.8396	950.6581	993.0302	1037.5446	1091.7645	1139.8425	1180.7378	1211.4756	1238.3533	1281.7965	1307.1319	1482.7774	1927.9958	2355.3683	3094.3681	3175.9113	3179.8423	3411.6399
O=C1C2CC1(N2)C#N	O=C1[C@H]2C[C@@]1(N2)C#N	
InChI=1S/C5H4N2O/c6-2-5-1-3(7-5)4(5)8/h3,7H,1H2	InChI=1S/C5H4N2O/c6-2-5-1-3(7-5)4(5)8/h3,7H,1H2/t3-,5-/m1/s1
