17
gdb 76838	2.58893	1.61603	1.35874	4.1886	67.58	-0.2684	0.0065	0.2749	999.613	0.13543	-458.971396	-458.963154	-458.96221	-459.00432	30.729	
C	 0.3988406824	 1.5777010526	 0.1837237977	-0.402159
C	 0.1492382363	 0.0865683504	 0.0204855635	-0.02013
C	 1.0576353634	-0.7296070285	-0.9594277698	 0.091166
O	 2.1356798636	 0.0249460814	-1.446480947	-0.408714
C	 1.3722540399	-1.7538145987	 0.1941065047	-0.306575
C	 0.5600195054	-0.8643295736	 1.1659982358	 0.096866
O	 1.8042379546	-0.4599923716	 1.8281572454	-0.253798
C	 2.5592262642	-1.2880235933	 1.0261547915	 0.480622
O	 3.7311782132	-1.4760767014	 1.0734118861	-0.332941
H	 1.4342890078	 1.7735790198	 0.4650570704	 0.149042
H	 0.1944916818	 2.1070990941	-0.7512714229	 0.124865
H	-0.2540222886	 1.9910839746	 0.9594344266	 0.115485
H	-0.9003771522	-0.101692885	-0.229889536	 0.084522
H	 0.4933263455	-1.1999894498	-1.7748970315	 0.080832
H	 2.7819009082	-0.5676872595	-1.8453679717	 0.296898
H	 1.2394748734	-2.8187405396	 0.0184552995	 0.105201
H	-0.1694586689	-1.2172182318	 1.8930593277	 0.098817
83.5652	127.8371	177.5234	226.2209	243.2484	258.09	400.1578	467.4158	496.5086	568.7841	629.1238	768.4143	781.6357	796.9267	869.0769	891.4817	915.2536	932.7944	982.6079	1033.9749	1071.8523	1111.3506	1113.0143	1159.3688	1170.7573	1193.8539	1226.7431	1241.3634	1289.4491	1325.7991	1327.2595	1359.3918	1402.6626	1421.2244	1490.483	1497.1787	1935.3739	3009.9967	3045.5295	3054.1326	3110.2073	3130.0037	3147.1226	3149.9327	3812.0932
CC1C(O)C2C1OC2=O	C[C@H]1[C@@H](O)[C@@H]2[C@H]1OC2=O	
InChI=1S/C6H8O3/c1-2-4(7)3-5(2)9-6(3)8/h2-5,7H,1H3	InChI=1S/C6H8O3/c1-2-4(7)3-5(2)9-6(3)8/h2-5,7H,1H3/t2-,3+,4+,5-/m0/s1
