20
gdb 32927	4.71127	0.88151	0.80022	1.1288	84.44	-0.1709	0.0628	0.2337	1507.3296	0.17062	-403.187061	-403.177477	-403.176533	-403.221919	35.12	
C	-1.337140196	 1.070435612	-0.528525072	-0.385941
C	-0.1299457373	 0.3890717849	 0.1060582518	-0.058295
O	 0.1531439543	-0.8823227187	-0.4778118782	-0.275813
C	-0.6218709998	-1.9150202712	-0.0727161464	 0.397402
C	-1.6173287879	-2.0707454467	 0.8631001602	-0.292793
C	-2.0017857069	-3.4505728949	 0.8100902764	-0.22055
C	-1.2435665929	-4.0829023307	-0.1409733675	 0.304145
C	-1.2205339262	-5.4978994694	-0.6111429177	-0.502028
N	-0.3992381607	-3.1216676745	-0.6788678142	-0.375733
H	-1.4948080305	 2.0523215994	-0.07046791	 0.116396
H	-1.1764650386	 1.2119009604	-1.6012107528	 0.126074
H	-2.2430625557	 0.4754157382	-0.3902276594	 0.13931
H	 0.7758360349	 0.9791875877	-0.0593689416	 0.111424
H	-0.2613177709	 0.2721568088	 1.1894772072	 0.111898
H	-2.0277234172	-1.3087855417	 1.5045193247	 0.089215
H	-2.7642634412	-3.9212357263	 1.4127653745	 0.084458
H	-0.2436583271	-5.9754466596	-0.4573240492	 0.120507
H	-1.9606788638	-6.0805456672	-0.0574382949	 0.134453
H	-1.4606127277	-5.5896742821	-1.6788110396	 0.120496
H	 0.2938945015	-3.2667145482	-1.3924387311	 0.255374
43.4996	103.5726	130.0284	176.6096	190.8578	241.1483	296.3459	322.673	396.1298	423.5949	505.6934	630.1558	634.6031	669.0525	688.038	741.0369	796.9234	816.7934	894.9374	985.614	996.8808	1017.3133	1062.2163	1063.5846	1077.4725	1119.4987	1191.9138	1225.0667	1265.5595	1283.4444	1326.7145	1395.0123	1412.6296	1418.2537	1420.9789	1475.584	1477.9361	1485.3032	1495.795	1500.8447	1511.2172	1579.6422	1644.2563	3006.3912	3026.255	3044.1893	3045.7066	3087.7074	3114.5125	3118.1422	3132.48	3239.8328	3265.0537	3678.9242
CCOC1=CC=C(C)N1	CCOc1ccc(C)[nH]1	
InChI=1S/C7H11NO/c1-3-9-7-5-4-6(2)8-7/h4-5,8H,3H2,1-2H3	InChI=1S/C7H11NO/c1-3-9-7-5-4-6(2)8-7/h4-5,8H,3H2,1-2H3
