17
gdb 53243	5.73056	0.67395	0.66475	5.3595	83.58	-0.2492	0.0042	0.2534	1698.9133	0.135676	-380.83521	-380.82579	-380.824846	-380.871348	32.542	
C	 0.1744958606	 1.515811842	-0.2146463162	-0.49687
C	 0.1337218888	 0.0675693248	-0.0738536712	 0.021385
C	 0.1115074534	-1.1323587759	 0.0392749513	 0.115392
C	 0.0455637393	-2.581540648	 0.1613538346	-0.147365
C	 0.1420895843	-3.119772625	 1.6244470594	-0.246773
C	-1.4063239968	-3.2482969257	 1.5652789937	-0.108493
N	-1.3310241323	-3.165460158	 0.0885555209	-0.301011
C	-2.0157532062	-4.4702248136	 2.0900851783	 0.292933
N	-2.4914321539	-5.430115419	 2.5237047066	-0.322056
H	 0.5189671433	 1.8085506607	-1.2123442861	 0.154564
H	-0.8162677807	 1.9574076709	-0.0617117192	 0.152361
H	 0.8540245553	 1.9656017712	 0.5174558508	 0.15408
H	 0.7300385895	-3.0525600656	-0.5515039126	 0.111933
H	 0.6380356741	-4.0886248938	 1.6771960738	 0.137483
H	 0.5448475232	-2.4424430639	 2.3745158137	 0.130165
H	-1.8940341418	-2.3879269138	 2.0420586226	 0.12016
H	-2.0259928802	-2.5623533573	-0.3391932804	 0.232113
26.9432	47.0788	95.1104	146.376	180.2296	240.8032	310.6584	329.2909	445.2464	513.1775	546.6032	575.5701	647.7525	724.0021	786.7175	921.2579	947.3557	995.3708	1016.1315	1021.5448	1052.1493	1053.1493	1099.4723	1133.3824	1181.0257	1230.092	1253.8722	1277.9293	1327.8884	1357.4588	1409.6721	1414.9134	1476.5279	1477.7618	1481.4516	2357.3989	2361.4042	3018.3461	3029.7307	3048.4435	3091.6249	3092.5394	3105.488	3174.314	3531.7799
CC#CC1CC(N1)C#N	CC#C[C@H]1C[C@@H](N1)C#N	
InChI=1S/C7H8N2/c1-2-3-6-4-7(5-8)9-6/h6-7,9H,4H2,1H3	InChI=1S/C7H8N2/c1-2-3-6-4-7(5-8)9-6/h6-7,9H,4H2,1H3/t6-,7+/m0/s1
