20
gdb 36857	3.76368	1.12924	0.99499	0.8224	79.74	-0.2298	0.0855	0.3153	1253.4156	0.170832	-403.066862	-403.058581	-403.057637	-403.100314	31.683	
C	 0.7985048079	 0.3961991936	-0.2129755363	-0.280006
N	-0.353138809	 0.5980591602	 0.6612235822	-0.068378
C	-1.4905064948	 1.2941223589	 0.0659827517	-0.204341
C	-1.550648378	-0.1691351677	 0.3263029631	-0.225752
C	 1.7056765249	 1.5830949869	-0.2232558726	 0.502764
C	 3.1994022013	 1.5792490336	-0.3391006899	-0.343982
C	 2.5349243563	 2.2948195489	 0.8231029581	-0.169117
C	 1.8659582208	 3.5593998945	 0.3052015734	-0.08803
O	 1.1827580684	 2.8178434646	-0.7438564756	-0.324169
H	 1.3580940379	-0.4738783876	 0.1490597954	 0.107602
H	 0.4985640358	 0.1784092963	-1.2562161087	 0.092065
H	-2.007067104	 1.9923117641	 0.7181635973	 0.113012
H	-1.4003371984	 1.620806502	-0.9671308519	 0.122421
H	-1.5081450647	-0.831368328	-0.5374527248	 0.1066
H	-2.1091592829	-0.5618491703	 1.1711252773	 0.114129
H	 3.6932972557	 0.6497695281	-0.0726141025	 0.113919
H	 3.6735232657	 2.1436379074	-1.137870794	 0.112157
H	 2.717668536	 2.0449694625	 1.8588190671	 0.105422
H	 1.1404223477	 3.989961579	 1.0037730045	 0.112086
H	 2.5090349034	 4.3501587131	-0.0997872238	 0.101597
61.5974	97.2766	117.8769	273.9255	284.7023	340.9372	386.8144	417.4964	515.6613	674.0547	758.2312	766.6461	831.878	846.3234	875.8614	905.7347	944.0976	958.4906	977.0361	995.7616	1005.9361	1022.7331	1039.5144	1052.7503	1071.8753	1112.3858	1116.4001	1128.9697	1154.4878	1171.9095	1177.2138	1204.7057	1281.6355	1289.529	1319.8089	1339.8496	1364.4521	1424.9025	1470.2624	1489.0021	1494.2994	1516.9782	1522.849	2920.12	3023.2559	3059.5618	3074.5592	3093.3496	3109.9846	3111.7656	3178.301	3196.7158	3203.1654	3212.7317
C(N1CC1)C12CC1CO2	C(N1CC1)[C@]12C[C@H]1CO2	
InChI=1S/C7H11NO/c1-2-8(1)5-7-3-6(7)4-9-7/h6H,1-5H2	InChI=1S/C7H11NO/c1-2-8(1)5-7-3-6(7)4-9-7/h6H,1-5H2/t6-,7+/m0/s1
