19
gdb 38395	3.8991	1.33983	1.32025	1.2338	78.87	-0.2281	0.076	0.3041	1039.6994	0.161018	-381.971967	-381.964825	-381.963881	-382.003323	29.348	
C	 0.0696578665	 1.4176076246	 0.0339320093	-0.240116
C	 1.3198253871	 0.6417584128	-0.036167733	-0.016574
C	 1.7134946359	 0.1144215437	 1.3396470225	-0.329685
C	 0.3075467706	-0.5282365309	 1.388086952	 0.405691
C	 0.1018327875	-2.0674912829	 1.5722049023	-0.303233
C	-0.9196598952	-1.7596372517	 2.6686736429	-0.03626
N	-0.1901084539	-0.9760591849	 3.696743945	-0.3407
C	-0.7306927321	-0.2956954499	 2.4899074636	-0.132172
N	-0.0333860492	-0.0577501242	-0.0025721916	-0.182256
H	-0.1860342118	 1.9487019066	 0.9487849938	 0.109504
H	-0.2947796229	 1.8833324729	-0.8764415284	 0.119407
H	 1.9392152381	 0.6191831795	-0.9267681559	 0.093533
H	 2.5068878317	-0.6347563456	 1.3111059394	 0.112796
H	 1.9587918301	 0.8591606041	 2.1021097586	 0.106783
H	-0.3437232824	-2.4892060495	 0.669100033	 0.120145
H	 0.9716775077	-2.6519573468	 1.8826948679	 0.101212
H	-1.8119546582	-2.315806707	 2.926785477	 0.093336
H	-0.8465780538	-0.7906591602	 4.4555567646	 0.22765
H	-1.4370278757	 0.5212557694	 2.5755536669	 0.090939
129.5824	160.3789	221.7532	373.1198	405.3225	427.5269	495.0012	539.5889	751.3805	760.3747	770.9116	815.6572	823.5895	839.0799	881.6074	894.3908	929.5939	943.8634	971.7853	998.9938	1005.5571	1056.8826	1065.3969	1094.3838	1106.2338	1114.0646	1123.8195	1147.2811	1176.2853	1186.9505	1205.1215	1224.2746	1256.8428	1269.3889	1303.2063	1336.527	1364.2866	1380.5698	1464.4667	1483.4653	1502.0851	3060.1555	3063.4732	3101.5196	3117.272	3131.1986	3164.5608	3182.2504	3196.1174	3198.2459	3463.4978
C1C2CC3(CC4NC34)N12	C1[C@H]2C[C@]3(C[C@H]4N[C@@H]34)N12	
InChI=1S/C7H10N2/c1-4-3-9(4)7(1)2-5-6(7)8-5/h4-6,8H,1-3H2	InChI=1S/C7H10N2/c1-4-3-9(4)7(1)2-5-6(7)8-5/h4-6,8H,1-3H2/t4-,5-,6-,7-,9?/m1/s1
