17
gdb 73768	2.20288	1.97185	1.12416	6.2916	77.72	-0.2163	-0.0205	0.1958	1066.6551	0.136494	-418.033157	-418.024691	-418.023746	-418.066073	31.876	
C	 0.0029088666	 1.5406857682	-0.0082223711	-0.531479
C	-0.0278852102	 0.0449602206	 0.0270567573	 0.1077
C	-1.1012566554	-0.7862230689	-0.0320307636	 0.268163
N	-2.4232773146	-0.46396568	-0.1039330756	-0.596954
C	-0.645065334	-2.2055187933	-0.0439127341	-0.130354
C	 0.2197497329	-2.6494481226	-1.1803424916	-0.239268
N	 0.8104159216	-2.1874490507	 0.0854960182	-0.131289
C	 1.1891535684	-0.7698361488	 0.0353130094	 0.313122
O	 2.3396810695	-0.4087720963	-0.0050955591	-0.349009
H	 1.0414416047	 1.8715900881	-0.0912233944	 0.157421
H	-0.5553201165	 1.9489691822	-0.8598876359	 0.119486
H	-0.4151926791	 1.9880136729	 0.903146084	 0.119586
H	-2.7039871457	 0.4677110903	 0.156474162	 0.266076
H	-3.1059706383	-1.1813028663	 0.0757609315	 0.262168
H	-1.1870170505	-2.9397115324	 0.548133138	 0.10381
H	 0.3334847955	-3.7107831139	-1.38527025	 0.128114
H	 0.2894205549	-1.992771329	-2.0438832749	 0.132709
88.2557	125.9042	222.3773	230.0952	237.5107	318.7187	349.9178	382.574	458.5748	518.1261	574.5892	643.4034	690.6276	706.7365	798.8975	802.4396	879.7089	943.9441	974.7464	1006.1944	1058.4092	1059.7222	1070.0231	1116.7532	1153.0841	1224.578	1241.8865	1283.6139	1328.8511	1399.4014	1444.5396	1492.1613	1495.5228	1496.8221	1646.012	1696.9081	1823.5951	3011.7103	3057.8869	3105.0847	3118.4421	3134.0114	3199.1571	3595.9197	3706.6163
CC1=C(N)C2CN2C1=O	CC1=C(N)[C@H]2CN2C1=O	
InChI=1S/C6H8N2O/c1-3-5(7)4-2-8(4)6(3)9/h4H,2,7H2,1H3	InChI=1S/C6H8N2O/c1-3-5(7)4-2-8(4)6(3)9/h4H,2,7H2,1H3/t4-,8?/m1/s1
