16
gdb 52376	3.49489	0.75374	0.67269	3.675	73.47	-0.2571	-0.0601	0.1971	1615.2137	0.12138	-437.887938	-437.878028	-437.877083	-437.924493	33.685	
O	 0.9150905914	 1.5364412659	 1.7584410712	-0.324398
C	 0.4280008477	 1.7657983426	 0.6699887889	 0.148816
N	 1.0576196208	 1.5546937939	-0.5133014725	-0.27627
C	 2.3919565785	 0.9747996342	-0.5884418363	-0.169635
C	 3.4795497525	 1.9456396036	-0.1158670712	-0.304194
C	 4.8736082923	 1.3761733775	-0.288240519	 0.233751
O	 5.0887049471	 0.2930918475	-0.7905649957	-0.294616
C	 5.954878252	 2.2242635557	 0.1866752707	 0.248259
C	 6.8342004201	 2.942434841	 0.5863913469	-0.381151
H	-0.5924790182	 2.1763732692	 0.5349383004	 0.077801
H	 0.5674939948	 1.7737254144	-1.3647821634	 0.25227
H	 2.4234982247	 0.0727310435	 0.0287454557	 0.148839
H	 2.5774381298	 0.6694658547	-1.6197626645	 0.126156
H	 3.4271379372	 2.8971265208	-0.6618405685	 0.129476
H	 3.3224837493	 2.1955972629	 0.9394107063	 0.168921
H	 7.62296023	 3.5632267025	 0.9367320911	 0.215973
36.3848	58.6331	86.3457	109.7481	189.004	222.9895	242.5189	265.8084	381.6385	461.6299	505.0129	571.4766	612.8326	646.8189	705.7893	735.4488	817.3424	859.4165	970.8617	1031.3655	1042.4733	1071.6463	1115.2749	1200.2853	1237.6297	1317.3141	1334.4398	1407.6844	1427.5087	1450.3461	1473.6278	1523.1024	1763.2611	1799.2976	2212.3598	2936.9481	3032.3151	3073.3943	3080.2948	3127.5846	3494.3859	3647.4657
O=CNCCC(=O)C#C	O=CNCCC(=O)C#C	
InChI=1S/C6H7NO2/c1-2-6(9)3-4-7-5-8/h1,5H,3-4H2,(H,7,8)	InChI=1S/C6H7NO2/c1-2-6(9)3-4-7-5-8/h1,5H,3-4H2,(H,7,8)
