19
gdb 19397	3.01567	2.13345	1.60504	1.5898	75.51	-0.2229	0.0837	0.3066	884.1697	0.16602	-327.865274	-327.857824	-327.85688	-327.896521	29.631	
C	-0.0693577684	 1.5648368562	-0.0661757936	-0.405919
C	 0.029469116	 0.0484485544	 0.0122412134	-0.071854
C	 1.0618376887	-0.6574012422	-0.8912363699	-0.048319
N	 2.4059919157	-0.1865693001	-0.4724800803	-0.337155
C	 1.7329616134	-1.2796506741	 0.2817692617	-0.160276
C	 0.7612446304	-0.6046067148	 1.2246091758	 0.416831
C	 1.0390512415	-0.0366791224	 2.5809475077	-0.315401
C	 0.1129302546	-1.2248632821	 2.4245728108	-0.344278
H	 0.9249815645	 2.0128179736	 0.001730059	 0.139299
H	-0.5273173	 1.8789052578	-1.0108176033	 0.107012
H	-0.6856596944	 1.9648969917	 0.7468327246	 0.106911
H	-0.9552470567	-0.4148227779	-0.1160474226	 0.071971
H	 0.8992326302	-1.051378931	-1.8871966879	 0.087543
H	 3.0779525154	-0.6299493117	-1.0993922412	 0.224254
H	 2.1961624936	-2.2537929306	 0.3876082852	 0.088621
H	 2.0204061659	-0.1983179326	 3.0147364005	 0.112087
H	 0.595417956	 0.9217585512	 2.8311864169	 0.111715
H	-0.9518342835	-1.0685561649	 2.569759299	 0.108701
H	 0.466016897	-2.1970386205	 2.7552067441	 0.108256
133.0194	204.0603	221.4457	242.95	268.3312	368.9193	486.9829	561.1566	595.7519	717.6345	771.1919	816.1657	833.0633	852.1709	875.7593	909.906	932.657	950.7394	976.7978	1018.5323	1050.5056	1055.9702	1074.8314	1087.2971	1112.7672	1120.4161	1144.9127	1185.4365	1204.5194	1234.7116	1291.7503	1304.8904	1355.1938	1361.1363	1401.7172	1416.2382	1465.3708	1490.8168	1501.3631	1509.0332	3029.4821	3043.6107	3087.8402	3117.7244	3125.554	3127.473	3174.8545	3189.1184	3195.8129	3213.4434	3463.2478
CC1C2NC2C11CC1	C[C@H]1[C@H]2N[C@H]2C21CC2	
InChI=1S/C7H11N/c1-4-5-6(8-5)7(4)2-3-7/h4-6,8H,2-3H2,1H3	InChI=1S/C7H11N/c1-4-5-6(8-5)7(4)2-3-7/h4-6,8H,2-3H2,1H3/t4-,5+,6+/m0/s1
