16
gdb 27476	2.00612	1.83278	0.96352	2.9413	77.22	-0.2237	-0.0216	0.2021	1168.5455	0.126636	-434.155731	-434.147696	-434.146752	-434.188326	30.499	
C	 0.0068674834	 1.4949658354	-0.0085327226	-0.492893
C	-0.0616143227	-0.0015288718	-0.0051524	 0.384299
C	-1.1970224123	-0.716785587	-0.1122954914	-0.227448
C	-1.1808777753	-2.1699575872	-0.1014299388	 0.390489
N	-2.2549562218	-2.8584183699	-0.20282855	-0.543106
N	 0.1119059676	-2.7151068747	 0.0295654504	-0.442913
C	 1.3071685994	-2.0314836708	 0.1426920987	 0.476195
O	 2.3851758035	-2.5754191148	 0.252605188	-0.39689
N	 1.1556033844	-0.6538938764	 0.1184251177	-0.434515
H	 0.6264889191	 1.8561912407	-0.8379128524	 0.144607
H	-0.9894775969	 1.9264271215	-0.1092442858	 0.150977
H	 0.4537093988	 1.8676183906	 0.9208665527	 0.144595
H	-2.1588599136	-0.2356011643	-0.2100876982	 0.118507
H	-2.0656732533	-3.8615921603	-0.1775691061	 0.202245
H	 0.2142596522	-3.7196082776	 0.0467465526	 0.259601
H	 2.0154789576	-0.1348261633	 0.1990157151	 0.26625
137.1776	138.2625	156.919	206.5945	291.7204	371.8782	498.0089	498.4936	531.9613	556.2965	569.135	611.4615	632.4402	712.3807	765.8445	825.0223	855.4271	947.4816	971.3611	1034.8046	1059.3034	1067.0371	1139.4195	1186.6267	1286.6642	1338.9637	1405.2947	1414.7693	1433.1852	1474.3166	1477.4056	1506.7243	1687.927	1732.1782	1829.7404	3030.2495	3082.0954	3146.4656	3246.2364	3460.039	3620.2955	3649.0399
CC1=CC(=N)NC(=O)N1	C[C]1C=C([NH])NC(=O)N1	
InChI=1S/C5H7N3O/c1-3-2-4(6)8-5(9)7-3/h2H,1H3,(H3,6,7,8,9)	InChI=1S/C5H7N3O/c1-3-2-4(6)8-5(9)7-3/h2H,1H3,(H3,6,7,8,9)
