15
gdb 57035	2.53712	1.34121	0.91874	3.5528	66.8	-0.2727	0.0027	0.2753	1196.4267	0.11054	-457.739112	-457.730277	-457.729332	-457.773341	31.447	
O	 0.0017387454	 1.4799633161	-0.0167845474	-0.416136
C	 0.0534682262	 0.0569528064	-0.0484285973	-0.067597
C	 0.7274768456	-0.4474145762	-1.2433125767	 0.297765
C	 1.3267674047	-0.8237710461	-2.2141878819	-0.426333
C	 0.7133555977	-0.4792928424	 1.2340104061	-0.202949
C	-0.0258753426	-0.1875346391	 2.5492453624	-0.101063
O	-0.2245642751	-1.6237966478	 2.7667069965	-0.237558
C	 0.4264688846	-1.9442881969	 1.6016157769	 0.447783
O	 0.6196029955	-3.0235369441	 1.1468622035	-0.311758
H	 0.8604090096	 1.8107582881	-0.3039316267	 0.290457
H	-0.9958318033	-0.2636958381	-0.059508116	 0.131705
H	 1.8376564333	-1.1750792458	-3.077031	 0.210909
H	 1.7795126751	-0.2402874365	 1.2373465607	 0.118108
H	 0.5660846499	 0.2475313856	 3.3557688593	 0.128369
H	-0.9822433165	 0.329162047	 2.4504173107	 0.138297
58.1685	96.6801	131.6894	189.6384	211.5407	282.3425	301.6273	375.6174	478.5064	542.921	580.1585	650.8148	686.7287	692.6604	765.8551	858.9204	930.5714	958.5069	968.6776	1055.7788	1087.7068	1111.8076	1123.2974	1156.0792	1200.4134	1254.1263	1279.9616	1342.6793	1375.1954	1417.5037	1518.0631	1939.8531	2239.4707	3035.3284	3080.2644	3093.6433	3142.6275	3501.1129	3805.0514
OC(C#C)C1COC1=O	O[C@@H](C#C)[C@H]1COC1=O	
InChI=1S/C6H6O3/c1-2-5(7)4-3-9-6(4)8/h1,4-5,7H,3H2	InChI=1S/C6H6O3/c1-2-5(7)4-3-9-6(4)8/h1,4-5,7H,3H2/t4-,5+/m1/s1
