13
gdb 35160	2.61777	1.31951	1.00457	1.7309	79.1	-0.2585	-0.0195	0.239	1155.3359	0.083835	-382.148461	-382.139495	-382.138551	-382.181994	33.081	
C	-0.1406930925	-1.2005214658	 0.0168043882	-0.395542
C	-0.0409692797	-0.0032510814	 0.0226157032	 0.353849
C	 0.0345577732	 1.4287567598	-0.0002518999	-0.237351
O	 0.5403567365	 2.1010995117	 1.1513800789	-0.256473
C	 1.3499627038	 2.1620810348	-0.0387083453	 0.086873
C	 2.5888670374	 1.4261095949	-0.0073056257	 0.280032
C	 3.6312303545	 0.830427725	-0.000467526	-0.416276
C	 1.3962507569	 3.4452041533	-0.6989982618	 0.258721
C	 1.4313027328	 4.507544764	-1.2581639549	-0.425499
H	-0.2181627104	-2.2600438936	 0.0179343454	 0.207684
H	-0.7995722019	 1.9380720997	-0.4816271619	 0.130811
H	 4.5510325547	 0.2991692403	 0.013386952	 0.205196
H	 1.4676143346	 5.4499805674	-1.7471983521	 0.207974
98.7058	108.992	129.5002	201.5764	230.2904	259.1879	413.7952	441.4146	477.7804	562.5475	577.3567	620.4643	634.8645	637.6512	642.5639	665.7272	670.1032	672.4908	677.7239	821.739	921.099	1017.8936	1065.8198	1216.6701	1283.3581	1391.6279	2240.1841	2246.8733	2249.1895	3120.7873	3499.6435	3500.6281	3501.2127
C#CC1OC1(C#C)C#C	C#C[C@H]1OC1(C#C)C#C	
InChI=1S/C8H4O/c1-4-7-8(5-2,6-3)9-7/h1-3,7H	InChI=1S/C8H4O/c1-4-7-8(5-2,6-3)9-7/h1-3,7H/t7-/m1/s1
