21
gdb 90962	2.6825	1.67344	1.39325	1.385	82.22	-0.2306	0.0933	0.3239	1043.7665	0.183205	-387.061195	-387.053198	-387.052253	-387.093172	32.267	
C	-0.2914661934	 1.5926404589	 0.6025642956	-0.410912
C	-0.0611670614	 0.0926329466	 0.4910010482	 0.119398
O	 0.4843211666	-0.260720456	-0.8016183232	-0.30105
C	 1.617480395	-1.0344675484	-0.4574360243	 0.107599
C	 1.3284413109	-1.9261912139	 0.7828394613	-0.095125
C	 2.7974459474	-1.7648039208	 1.2200617598	-0.296573
C	 2.4064192801	-0.3564096124	 0.7079746234	 0.309986
C	 3.2813869122	 0.8672296206	 0.6346215024	-0.527048
C	 0.996065325	-0.5297265013	 1.4023112177	-0.099474
H	 0.6444729575	 2.152721653	 0.5377194886	 0.121791
H	-0.9498738613	 1.9331566969	-0.2019689149	 0.126593
H	-0.7716795844	 1.8320185156	 1.557542093	 0.111769
H	-1.0241235776	-0.4261072551	 0.6114861185	 0.072978
H	 2.1160794279	-1.4169874128	-1.348385527	 0.07927
H	 0.7017679765	-2.8175574142	 0.8241536992	 0.070112
H	 2.9973588244	-1.854163514	 2.2914386693	 0.091809
H	 3.5514351675	-2.3055442667	 0.6385017384	 0.087718
H	 4.2314047873	 0.6304906945	 0.1421509914	 0.118191
H	 2.8028254934	 1.6663915028	 0.0604999507	 0.130304
H	 3.513110999	 1.2574482822	 1.6318478703	 0.117337
H	 0.9005740775	-0.4176329856	 2.4835848716	 0.065328
152.8015	177.59	201.789	225.6411	270.6859	325.3169	416.4492	471.1968	487.1566	637.5474	680.5434	722.0227	776.6335	810.5567	846.9588	892.5893	907.1905	924.2948	935.9149	1002.9675	1007.8559	1026.5514	1036.6785	1066.3728	1089.1352	1105.8056	1122.7556	1136.1416	1154.9446	1180.4338	1217.6388	1222.6015	1234.2938	1276.029	1303.7547	1321.862	1379.7784	1394.7475	1406.5824	1412.2369	1484.3847	1488.6074	1493.5857	1498.434	1522.2666	2986.8335	3027.7789	3040.4424	3041.6662	3088.8455	3099.5658	3103.7381	3103.977	3108.5347	3111.4438	3126.6621	3128.7697
CC1OC2C3CC2(C)C13	C[C@H]1O[C@@H]2[C@H]3C[C@]2(C)[C@@H]13	
InChI=1S/C8H12O/c1-4-6-5-3-8(6,2)7(5)9-4/h4-7H,3H2,1-2H3	InChI=1S/C8H12O/c1-4-6-5-3-8(6,2)7(5)9-4/h4-7H,3H2,1-2H3/t4-,5+,6+,7-,8-/m1/s1
