20
gdb 68828	2.73776	1.43899	1.23192	2.5238	80.29	-0.2258	0.0619	0.2877	1115.3225	0.170161	-403.09224	-403.083398	-403.082454	-403.12516	34.544	
C	-0.0307919579	 1.5603423088	 0.0954071429	-0.495597
C	-0.0395734124	 0.0606402816	 0.0604784427	 0.293758
C	 1.1677422898	-0.7633126615	-0.3482470823	-0.404509
C	 0.5741157566	-0.9623550706	 1.0197016045	 0.280996
O	 1.2689432426	-0.7557479742	 2.2006296252	-0.460876
C	-0.682191453	-1.8035941188	 0.9418395468	 0.314132
C	-0.8370669175	-3.2520462908	 1.1896767202	-0.325063
N	-1.4027580886	-2.2500585384	 2.124899418	-0.367897
C	-1.3015305593	-0.8193164186	-0.0713935961	-0.364599
H	 0.9329091412	 1.9384149969	 0.451352967	 0.122294
H	-0.2090651623	 1.9851928798	-0.8997018507	 0.119444
H	-0.8084354932	 1.943996453	 0.7650756582	 0.122926
H	 1.0984810829	-1.5345720467	-1.1131630145	 0.105214
H	 2.102377058	-0.2080506257	-0.350516539	 0.108159
H	 2.0922270659	-1.2538215619	 2.1646078883	 0.290521
H	-1.5790426012	-3.8309037011	 0.6459451137	 0.116456
H	 0.0408804462	-3.8177437766	 1.4956108346	 0.100571
H	-0.7906749558	-2.1479470548	 2.9335538495	 0.233662
H	-2.2002963541	-0.350119598	 0.3369677806	 0.116045
H	-1.5133522279	-1.2047890026	-1.0741357696	 0.094364
105.9817	169.4883	188.0922	215.6256	236.4681	287.972	335.407	380.2915	430.2547	478.0972	498.545	567.0304	639.1523	733.732	787.343	836.7369	842.8812	903.9194	932.0235	961.607	972.5986	989.6403	1020.9463	1042.5701	1062.1392	1096.212	1106.1934	1155.6519	1156.285	1218.471	1221.9644	1268.8726	1275.6157	1293.7845	1351.5509	1399.5356	1419.2457	1431.3822	1475.5724	1485.2554	1497.3001	1508.9878	1521.9624	3022.9345	3044.9405	3082.0106	3093.5527	3095.9275	3100.0479	3106.7759	3180.2588	3184.7565	3474.2076	3804.1997
CC12CC1(O)C1(CN1)C2	C[C@@]12C[C@]1(O)[C@]1(CN1)C2	
InChI=1S/C7H11NO/c1-5-2-6(4-8-6)7(5,9)3-5/h8-9H,2-4H2,1H3	InChI=1S/C7H11NO/c1-5-2-6(4-8-6)7(5,9)3-5/h8-9H,2-4H2,1H3/t5-,6-,7-/m1/s1
