18
gdb 40843	5.6265	0.85214	0.78991	3.0795	84.08	-0.2135	-0.0011	0.2123	1455.0214	0.148634	-398.13378	-398.125371	-398.124427	-398.168209	30.872	
C	 0.0343299572	 1.4123576004	 0.064785773	-0.266232
C	 1.4410453483	 0.8875874145	 0.1486951002	-0.266786
C	 0.2811438903	-0.0803787992	 0.0498338592	 0.047232
N	-0.0612966547	-0.7992124885	 1.2266618549	-0.322588
C	-0.4345437463	-2.0080433947	 1.1739275927	 0.39749
C	-0.8394580278	-2.8825765739	 2.3580912254	-0.25684
N	-1.1658827599	-4.2092776747	 1.8112103404	-0.246414
C	-0.9955982489	-4.1117672661	 0.551023992	 0.069909
N	-0.5898059886	-2.8721232544	 0.0781143242	-0.358853
H	-0.4083201814	 1.8110398121	 0.9696126054	 0.124702
H	-0.293057417	 1.8839372716	-0.8550614612	 0.109723
H	 2.0910123996	 0.9936278317	-0.7128039967	 0.109605
H	 1.9395958157	 0.9360406889	 1.1092609872	 0.124226
H	 0.1524419598	-0.566375468	-0.9196426373	 0.052947
H	-0.0306880212	-2.9591235607	 3.09281077	 0.142513
H	-1.7058543842	-2.4627184925	 2.8810960155	 0.142748
H	-1.1526038345	-4.9237752466	-0.1523600009	 0.132285
H	-0.3508306067	-2.6658297899	-0.8750573441	 0.264331
24.3916	107.8692	128.6866	149.9859	298.5756	333.8396	407.3175	439.8551	509.5514	632.4518	715.9263	775.7552	812.2334	849.841	877.3972	893.2283	929.0543	930.1015	986.0158	994.8434	997.8898	1055.1346	1069.4371	1087.3285	1103.2026	1166.8186	1185.7254	1198.2221	1207.6102	1234.0393	1295.5928	1349.7381	1398.3753	1411.6019	1455.5756	1456.2721	1493.8521	1685.4786	1786.6472	3047.1249	3060.8473	3078.0812	3138.1129	3142.4563	3189.0514	3225.2211	3239.2577	3687.1558
C1CC1N=C1CN=CN1	C1CC1N=C1CN=CN1	
InChI=1S/C6H9N3/c1-2-5(1)9-6-3-7-4-8-6/h4-5H,1-3H2,(H,7,8,9)	InChI=1S/C6H9N3/c1-2-5(1)9-6-3-7-4-8-6/h4-5H,1-3H2,(H,7,8,9)
