19
gdb 114492	2.7453	1.31388	1.04491	4.1042	74.66	-0.2696	0.0081	0.2777	1200.1887	0.159465	-423.044276	-423.035935	-423.034991	-423.077741	31.268	
C	-0.0560251296	 1.6663578906	-0.0705140632	-0.385851
C	-0.3073069406	 0.1635345891	-0.2303859783	-0.19652
C	 0.6833701326	-0.4978950518	-1.1818791617	 0.025376
C	 2.1773519163	-0.6634885161	-0.7375835185	-0.265501
C	 2.0747778285	-2.1803916458	-0.9860855558	 0.111648
O	 1.6684274111	-2.9013256672	 0.2222342391	-0.257013
C	 0.3360299157	-2.8408543961	-0.1318358112	 0.461465
O	-0.5887213085	-3.2927532279	 0.462919225	-0.332768
C	 0.5922115104	-2.0491727564	-1.4100080705	-0.266582
H	 0.9469024931	 1.8640197698	 0.3232671096	 0.119833
H	-0.1437372319	 2.1878271781	-1.0302710703	 0.114849
H	-0.7766628337	 2.1145787374	 0.6195966463	 0.120593
H	-0.2601120918	-0.3258008139	 0.7500514646	 0.117039
H	-1.3256193519	-0.0044706703	-0.6030122224	 0.108215
H	 0.6384735332	-0.0004160869	-2.1558104473	 0.085392
H	 2.892950133	-0.1529299768	-1.3855434147	 0.11277
H	 2.3993411585	-0.4144408464	 0.3027263099	 0.121752
H	 2.8487684903	-2.7223665524	-1.526169991	 0.100337
H	 0.1449828855	-2.4226778871	-2.3288408996	 0.104967
86.9018	93.829	114.0337	214.6432	254.8057	362.7579	385.1309	424.7477	482.9082	628.224	725.6818	770.8609	779.1717	825.1377	869.4377	874.4425	918.1977	942.2052	970.1417	988.4429	1011.2458	1063.667	1092.5395	1110.6702	1132.9615	1155.0669	1192.8779	1213.2862	1235.0938	1272.0239	1289.7419	1304.4149	1322.4773	1345.5821	1390.8012	1413.9023	1465.8908	1483.5335	1501.5881	1506.3731	1929.7977	3026.5446	3031.8853	3046.9202	3064.5174	3070.5838	3098.267	3108.5975	3125.0171	3134.5083	3144.8902
CCC1CC2OC(=O)C12	CC[C@H]1C[C@H]2OC(=O)[C@@H]12	
InChI=1S/C7H10O2/c1-2-4-3-5-6(4)7(8)9-5/h4-6H,2-3H2,1H3	InChI=1S/C7H10O2/c1-2-4-3-5-6(4)7(8)9-5/h4-6H,2-3H2,1H3/t4-,5+,6-/m0/s1
