18
gdb 63715	3.31138	1.25825	1.08764	4.8165	77.89	-0.2572	-0.0007	0.2564	1156.1968	0.14567	-401.931752	-401.923009	-401.922065	-401.964728	33.393	
C	-0.0620654729	 1.5473056435	 0.0153550643	-0.440129
C	 0.0553508702	 0.0355230268	 0.0871099476	 0.388292
C	-1.2471837396	-0.6707892842	-0.2596598598	-0.422769
O	 1.1274072475	-0.4670834526	-0.8016802664	-0.352604
C	 1.7153879049	-1.1811211193	 0.2792733572	 0.353094
C	 2.218988932	-0.2425741453	 1.3415272067	-0.353214
C	 0.7549330458	-0.5970961835	 1.3038805393	-0.204041
C	 2.182031535	-2.5151812799	 0.0720131116	 0.212702
N	 2.5652049786	-3.5960069729	-0.082539072	-0.348606
H	 0.8733688505	 2.0405857973	 0.2876587285	 0.123793
H	-0.323801498	 1.8529840778	-1.0025397568	 0.135171
H	-0.8497182908	 1.8990911228	 0.6892311293	 0.125132
H	-1.5723121321	-0.3874464542	-1.2648024847	 0.132476
H	-1.1197445768	-1.7560638197	-0.2311126643	 0.133517
H	-2.0347001843	-0.393213366	 0.4493613756	 0.119485
H	 2.7742252746	-0.7039797086	 2.1514614734	 0.142758
H	 2.5775924266	 0.7317193394	 1.025935158	 0.133517
H	 0.2512015689	-1.0959884914	 2.1208105721	 0.121423
100.1787	146.2945	187.7316	232.2846	251.5852	277.5513	340.0419	375.1416	459.0961	485.02	521.8523	551.3318	610.7727	678.3036	821.426	841.4719	861.0897	935.2116	947.7868	956.829	995.714	1001.8004	1014.8078	1055.0774	1080.177	1132.6857	1201.5536	1225.2677	1252.2142	1323.7616	1362.5003	1404.0668	1417.8652	1468.1932	1475.0614	1481.8945	1496.2876	1501.0731	2349.2921	3036.9744	3044.3478	3107.4959	3114.5816	3124.8395	3126.3947	3132.0502	3208.8631	3225.7704
CC1(C)OC2(CC12)C#N	CC1(C)O[C@]2(C[C@@H]12)C#N	
InChI=1S/C7H9NO/c1-6(2)5-3-7(5,4-8)9-6/h5H,3H2,1-2H3	InChI=1S/C7H9NO/c1-6(2)5-3-7(5,4-8)9-6/h5H,3H2,1-2H3/t5-,7+/m0/s1
