16
gdb 125067	3.06749	1.38286	1.03614	3.0312	73.26	-0.2491	-0.0337	0.2155	1139.7132	0.123628	-434.019756	-434.011668	-434.010724	-434.05323	29.29	
C	 0.0705378941	 1.5184935807	 0.223923021	-0.495838
C	 0.0052708838	 0.0581961017	-0.0250837999	 0.334487
C	-1.0431676889	-0.7910753283	-0.2291534416	 0.212518
N	-0.5071653101	-2.0495177286	-0.4086644317	-0.177643
N	 0.746890146	-2.0175130093	-0.3295615203	-0.021062
O	 1.130193993	-0.6581935597	-0.0790813748	-0.214946
N	-2.404920239	-0.4696270093	-0.2553176344	-0.194449
C	-3.2629689411	-1.2227400205	-1.1859044067	-0.223501
C	-3.3489674736	-1.4683829251	 0.2744229419	-0.2235
H	 0.5482147367	 1.7325818796	 1.1853967901	 0.152949
H	 0.6503759935	 2.0246766786	-0.5545149208	 0.152943
H	-0.9437854263	 1.9213643192	 0.2320889812	 0.160676
H	-4.0187092073	-0.6270466767	-1.6887148126	 0.125221
H	-2.7851622054	-1.9876024787	-1.7909990584	 0.143453
H	-2.9287882002	-2.3977820482	 0.6474133743	 0.143478
H	-4.1684845953	-1.0548181954	 0.8542257626	 0.125215
43.5662	138.9134	165.856	185.5475	248.3367	270.8737	463.1327	485.1161	589.2306	664.3685	669.3688	703.0546	755.4133	823.4783	852.3745	921.528	996.0503	1026.9658	1043.9137	1069.9639	1113.6857	1136.045	1152.8163	1173.5452	1184.1287	1225.8286	1317.9199	1386.0245	1425.7417	1468.0553	1479.5886	1482.1438	1483.1955	1510.4572	1664.1002	3043.4747	3101.4644	3116.1205	3118.8703	3144.2898	3203.8926	3218.1811
CC1=C(N=NO1)N1CC1	Cc1c(nno1)N1CC1	
InChI=1S/C5H7N3O/c1-4-5(6-7-9-4)8-2-3-8/h2-3H2,1H3	InChI=1S/C5H7N3O/c1-4-5(6-7-9-4)8-2-3-8/h2-3H2,1H3
