21
gdb 113268	4.52108	0.75058	0.70833	3.1877	80.5	-0.2469	-0.0238	0.223	1655.3049	0.178453	-424.228678	-424.218033	-424.217089	-424.265518	37.345	
C	-0.3152559165	 1.4713764926	-0.6520377674	-0.372824
C	 0.0096870203	 0.221612143	 0.1767513495	-0.224925
C	-1.2315501431	-0.5830499652	 0.4786960031	 0.027131
O	-1.8171776466	-1.3267444856	-0.6018693907	-0.299813
C	-1.324871967	-2.0550012287	 0.5390632019	 0.354881
C	-0.1381581716	-2.9613019014	 0.2894524962	-0.462331
C	-2.4331231401	-2.677821065	 1.3831895175	-0.339297
C	-3.1241934316	-3.8132200119	 0.652155118	 0.15956
O	-3.3038567196	-4.9134290291	 1.1078928421	-0.242906
H	 0.5889283275	 2.0504590268	-0.8601366214	 0.115958
H	-0.7694710851	 1.190536318	-1.6067474155	 0.135994
H	-1.0184442344	 2.1253967046	-0.1251158426	 0.116737
H	 0.740201059	-0.3931021966	-0.3559806387	 0.105797
H	 0.4708439123	 0.5132204909	 1.1294259606	 0.103687
H	-1.9713549047	-0.0335291166	 1.0686484952	 0.081314
H	 0.5713283606	-2.5125847042	-0.4060861272	 0.134115
H	 0.3801337441	-3.1829835739	 1.2285582638	 0.128381
H	-0.4681970625	-3.915046479	-0.1362647352	 0.137195
H	-2.0500248954	-3.0532705525	 2.336771681	 0.12029
H	-3.1935535902	-1.9132127748	 1.5871566394	 0.12413
H	-3.4710612452	-3.5463797214	-0.3703863695	 0.096927
50.2114	51.3587	71.391	138.3294	155.4336	189.5546	231.7858	275.7022	304.9431	368.318	389.2251	468.7344	496.785	593.4359	701.2584	760.0056	817.2809	839.7553	908.9391	931.7596	956.9329	1019.4913	1037.4292	1053.7762	1102.141	1114.3749	1146.8432	1159.9199	1191.3428	1261.0358	1291.8913	1300.4177	1344.622	1373.5734	1407.8082	1418.3744	1419.8154	1449.207	1466.03	1473.2252	1492.5776	1499.1982	1503.4167	1513.3265	1830.7439	2896.3761	3029.6902	3031.8637	3037.724	3040.9672	3058.3333	3088.5635	3097.7611	3101.8268	3110.4152	3118.7536	3147.8794
CCC1OC1(C)CC=O	CC[C@H]1O[C@]1(C)CC=O	
InChI=1S/C7H12O2/c1-3-6-7(2,9-6)4-5-8/h5-6H,3-4H2,1-2H3	InChI=1S/C7H12O2/c1-3-6-7(2,9-6)4-5-8/h5-6H,3-4H2,1-2H3/t6-,7-/m1/s1
