19
gdb 72207	3.38449	1.77156	1.42179	1.0156	81.51	-0.2194	-0.0078	0.2116	960.0619	0.159955	-385.835951	-385.828782	-385.827838	-385.866911	29.815	
C	 0.1421564654	 1.4719795995	-0.038384757	-0.474463
C	-0.101490641	-0.0157843571	-0.0401879423	 0.461983
C	 0.287176909	-0.8652677129	-1.3271574025	-0.329293
C	-0.7449856906	-1.8386047699	-0.7836696162	 0.126877
C	-0.5375142525	-2.9609385288	-0.0865543446	-0.123953
C	-1.0327316611	-2.7852890072	 1.3474308608	-0.269137
C	-1.0505361133	-1.2426188207	 1.4392598376	 0.11891
O	 0.2770589595	-0.6365380484	 1.2332352251	-0.36304
C	-1.4510937402	-0.7623777054	 0.0470410495	-0.190155
H	 1.213845534	 1.6772020874	 0.0604809831	 0.130527
H	-0.2080854371	 1.9275726863	-0.9698706044	 0.115871
H	-0.3713417583	 1.9483535083	 0.801840611	 0.125239
H	-0.0063911584	-0.2924080233	-2.2146237932	 0.103684
H	 1.3105161474	-1.2311351667	-1.4375081332	 0.110178
H	 0.1875510499	-3.7233427106	-0.3507737854	 0.09388
H	-2.024319436	-3.2013937746	 1.5769626097	 0.104107
H	-0.3246882522	-3.2312879888	 2.0546349226	 0.115975
H	-1.5280364155	-0.8280233252	 2.3337205563	 0.066456
H	-2.4242574291	-0.3636752919	-0.2343984768	 0.076355
195.9452	218.6478	250.3744	298.8309	354.1769	392.6594	444.7566	565.6496	656.8886	698.8948	734.9638	804.0342	821.2611	830.7574	860.9707	885.6152	905.6657	915.3528	957.8315	963.0627	981.1236	1013.4991	1046.3313	1069.7954	1110.0789	1152.3769	1165.8869	1178.8265	1188.6059	1228.4248	1258.5957	1294.4347	1305.122	1311.2255	1345.5063	1404.4609	1460.7233	1472.3445	1479.9111	1487.954	1664.9184	3005.6615	3031.9749	3036.7301	3050.2445	3071.4632	3102.5661	3111.641	3114.9226	3125.832	3184.6019
CC12CC3=CCC(O1)C23	C[C@@]12C[C]3[CH]C[C@@H](O1)[C@@H]23	
InChI=1S/C8H10O/c1-8-4-5-2-3-6(9-8)7(5)8/h2,6-7H,3-4H2,1H3	InChI=1S/C8H10O/c1-8-4-5-2-3-6(9-8)7(5)8/h2,6-7H,3-4H2,1H3/t6-,7+,8+/m1/s1
