16
gdb 80250	2.53486	1.61392	1.30832	3.9167	64.55	-0.2405	0.0184	0.259	990.6293	0.124953	-475.017285	-475.009526	-475.008582	-475.04913	30.411	
O	 0.0812757974	 1.4937848785	 0.2039160803	-0.434904
C	 0.0513026326	 0.102938016	 0.0649757791	 0.144113
C	 0.0891321227	-0.6845795986	 1.401447373	-0.102871
N	-1.0785591092	-0.1774750445	 2.1447072051	-0.316629
C	-2.0471165656	-0.0181367673	 1.1439791487	 0.421062
O	-3.1248683237	 0.5078825415	 1.2332857317	-0.370262
C	-1.3385673186	-0.6479073951	-0.0633310472	-0.247755
C	-0.6157188808	-1.8461880414	 0.6243223164	 0.137528
O	 0.1651881932	-2.5690155945	-0.2927039926	-0.436045
H	-0.0373667465	 1.8961255943	-0.6621035655	 0.2932
H	 0.7758794697	-0.2690743997	-0.6632647377	 0.100368
H	 0.9864238379	-0.8165669524	 2.0044419369	 0.081678
H	-0.9696261189	 0.5694721999	 2.8163130868	 0.255771
H	-1.9052051519	-0.7456746226	-0.9854406381	 0.091462
H	-1.2399988688	-2.4935757548	 1.2502499309	 0.092854
H	 0.6675963305	-3.2291133793	 0.1960582023	 0.290429
147.408	214.2464	248.7668	276.476	298.4314	312.8571	374.7119	443.0907	499.6392	521.5834	629.968	679.957	762.4494	798.7549	843.3158	883.7426	910.2705	953.9555	1003.7033	1018.7774	1091.2746	1103.151	1147.9744	1155.074	1186.611	1195.6833	1214.3884	1236.2152	1276.5806	1307.8834	1331.2307	1367.794	1418.9995	1441.1534	1874.901	3046.9624	3086.4274	3132.137	3164.3524	3607.2931	3814.0912	3825.8756
OC1C2NC(=O)C1C2O	O[C@H]1[C@H]2NC(=O)[C@@H]1[C@H]2O	
InChI=1S/C5H7NO3/c7-3-1-4(8)2(3)6-5(1)9/h1-4,7-8H,(H,6,9)	InChI=1S/C5H7NO3/c7-3-1-4(8)2(3)6-5(1)9/h1-4,7-8H,(H,6,9)/t1-,2+,3-,4-/m1/s1
