20
gdb 22927	2.34798	1.316	1.10889	1.1295	84.17	-0.2256	0.0179	0.2435	1218.6451	0.169015	-403.088205	-403.078708	-403.077764	-403.122147	35.737	
C	-0.0177123912	 1.5669376161	 0.0480973972	-0.421553
C	 0.1162032432	 0.058345594	 0.0807381671	-0.044351
C	 1.3697662515	-0.7184271949	-0.1958573656	-0.123911
C	 2.612089582	 0.0004239664	 0.360958986	-0.335281
C	 1.9390167434	-0.0543888335	 1.7266828986	 0.380339
N	 2.2935518348	 0.1717144557	 2.9226474176	-0.272246
O	 3.581059915	 0.7508168127	 2.9631149861	-0.395875
C	 0.7190682482	-0.749612189	 1.2216311361	 0.237663
C	-0.0263734905	-1.8235611176	 1.9619693802	-0.495111
H	 0.8490156185	 2.0704624202	 0.482808722	 0.130964
H	-0.1354017181	 1.9253661623	-0.9806234814	 0.116801
H	-0.8987319427	 1.886099028	 0.6149513776	 0.121017
H	-0.7621899278	-0.4528257431	-0.3121363125	 0.087623
H	 1.4019816167	-1.5245167851	-0.9188334942	 0.091616
H	 3.5153394424	-0.6165783174	 0.3523773854	 0.128608
H	 2.8585300026	 0.9829732063	-0.0511525863	 0.117043
H	 3.7257079716	 0.8486964801	 3.9100111516	 0.304095
H	-0.6199268836	-1.3979888468	 2.7786643862	 0.131914
H	-0.7111374533	-2.3566714979	 1.2948303274	 0.115337
H	 0.6630210872	-2.5517842963	 2.4015775707	 0.125308
80.4225	162.805	168.8347	189.8207	206.7705	232.2472	260.7193	312.3314	359.8254	450.5612	500.4782	511.1302	574.2359	638.1016	726.4098	753.9712	828.8738	876.5746	920.8072	956.8656	968.2336	994.8942	1039.6682	1055.9646	1095.7382	1100.3647	1121.7031	1134.7518	1165.7893	1233.0058	1252.8313	1304.9197	1337.0398	1407.3139	1413.0865	1415.2913	1453.5919	1477.038	1481.6993	1494.0303	1497.7338	1502.4954	1777.9174	3029.6097	3034.4464	3056.1059	3091.8086	3092.797	3101.168	3102.7708	3109.3232	3126.4576	3186.2647	3821.4359
CC1C2CC(=NO)C12C	C[C@H]1[C@H]2CC(=NO)[C@@]12C	
InChI=1S/C7H11NO/c1-4-5-3-6(8-9)7(4,5)2/h4-5,9H,3H2,1-2H3	InChI=1S/C7H11NO/c1-4-5-3-6(8-9)7(4,5)2/h4-5,9H,3H2,1-2H3/t4-,5+,7-/m0/s1
