18
gdb 44807	2.77628	1.52228	1.18865	1.9158	77.09	-0.242	-0.0223	0.2197	1081.4046	0.14764	-401.907151	-401.899199	-401.898255	-401.940118	30.463	
O	 0.4978407189	 0.2734844767	 1.144987212	-0.321871
C	 0.2762784314	 1.3586291432	 0.6830737283	 0.359238
C	-0.9513629625	 2.0204894549	 0.030516144	-0.285456
N	-0.0552687701	 3.0700848729	-0.5686785355	-0.156647
C	 0.5051138519	 3.7660247618	 0.5830206932	-0.285422
C	 1.1570921031	 2.4751924431	 0.199749935	 0.234221
C	 2.5433847413	 2.3609486848	-0.3086270044	-0.119037
C	 3.5138047558	 1.4271519788	 0.3893976281	-0.2704
C	 3.0200567632	 1.0997149368	-0.992346337	-0.272258
H	-1.3827482921	 1.3783817359	-0.7420415257	 0.143347
H	-1.746597165	 2.4132778158	 0.6711288324	 0.127366
H	 1.0635422153	 4.6625427337	 0.3273376083	 0.133693
H	-0.0801393402	 3.8445487566	 1.4979819597	 0.120277
H	 2.9563450565	 3.2943691991	-0.6788456193	 0.089468
H	 4.5349988418	 1.7684974105	 0.5152175185	 0.114074
H	 3.1242969573	 0.8302196684	 1.2052415853	 0.143619
H	 2.3189955161	 0.2787797736	-1.0884590837	 0.130043
H	 3.6979419272	 1.2142951134	-1.8304825491	 0.115744
53.4008	131.9572	160.543	201.0109	343.8333	420.8796	445.5299	481.6169	563.2933	658.7363	686.0751	745.2356	789.1176	831.1342	849.0325	867.9171	922.2561	931.9407	992.3277	1011.0647	1048.0138	1066.5856	1086.253	1093.9008	1102.4649	1130.579	1136.4618	1193.2942	1201.5941	1222.8339	1234.8433	1264.293	1347.8345	1433.1895	1461.9024	1463.9681	1500.2831	1507.0952	1869.7788	3055.3799	3092.9909	3117.4316	3141.276	3143.8988	3151.4893	3186.6205	3224.8709	3240.2485
O=C1CN2CC12C1CC1	O=C1CN2C[C@@]12C1CC1	
InChI=1S/C7H9NO/c9-6-3-8-4-7(6,8)5-1-2-5/h5H,1-4H2	InChI=1S/C7H9NO/c9-6-3-8-4-7(6,8)5-1-2-5/h5H,1-4H2/t7-,8?/m1/s1
