17
gdb 96843	3.64751	1.14637	0.88675	3.1383	73.69	-0.2561	0.0026	0.2586	1293.5742	0.135622	-455.20587	-455.196673	-455.195729	-455.240664	31.511	
C	-0.0315820617	 1.4162002283	 0.0451171264	-0.34079
N	-0.040447615	-0.0318161332	 0.1797511828	-0.310887
C	-1.1148767728	-0.6686844603	 0.1051290035	 0.426769
C	-1.2664481028	-2.170992728	 0.2270479678	-0.281899
N	-2.6921823048	-2.3302339051	 0.0638443809	-0.136404
C	-3.382745147	-3.59769159	 0.0960655083	-0.340326
C	-3.3304499287	-1.1416599011	-0.1275373232	 0.486373
O	-4.4965115847	-0.9242033598	-0.2938472052	-0.388727
O	-2.3728085653	-0.1297530383	-0.1026840543	-0.242313
H	 0.6244402262	 1.6875765139	-0.7889282389	 0.133816
H	-1.0187250644	 1.8605378541	-0.119083052	 0.136269
H	 0.4087242422	 1.8504612827	 0.9490900561	 0.133804
H	-0.6923305843	-2.6918334773	-0.5499740315	 0.143444
H	-0.9112867947	-2.5275301237	 1.2024387677	 0.143452
H	-3.2426779389	-4.098989748	 1.0612788888	 0.131944
H	-4.4450046206	-3.4020191168	-0.0551525872	 0.173539
H	-3.0226587426	-4.2635869772	-0.6973342801	 0.131936
71.3433	82.5501	107.1208	167.8423	184.6935	195.17	245.2385	291.6444	424.7923	561.0956	602.0162	616.0464	691.168	759.0256	832.4248	893.4409	1025.8053	1026.6785	1055.8435	1070.477	1134.7023	1153.0694	1160.7131	1201.862	1246.5314	1298.6407	1327.0497	1432.8824	1441.9186	1453.3746	1490.9437	1494.1152	1495.7175	1505.2948	1535.6	1822.9274	1907.7776	3016.1972	3021.8364	3026.0612	3046.497	3071.2156	3088.8735	3101.4424	3151.6789
CN=C1CN(C)C(=O)O1	CN=C1CN(C)C(=O)O1	
InChI=1S/C5H8N2O2/c1-6-4-3-7(2)5(8)9-4/h3H2,1-2H3	InChI=1S/C5H8N2O2/c1-6-4-3-7(2)5(8)9-4/h3H2,1-2H3
