19
gdb 85328	2.3523	1.6829	1.13182	2.0892	74.52	-0.2349	-0.0185	0.2164	1092.5514	0.160127	-423.043096	-423.035002	-423.034058	-423.076058	31.327	
O	-0.0852712266	 1.4447907263	 0.089797306	-0.431596
C	 0.0242787603	 0.0337425345	 0.0243029758	 0.104622
C	 0.6998973803	-0.6224826055	 1.2426189063	-0.369007
C	 0.0786891338	-2.0217193532	 1.3236946069	 0.39762
O	 0.5902949958	-2.994203441	 1.816328059	-0.319252
C	-1.294055851	-1.9781873322	 0.6589847453	-0.133318
C	-2.4397441872	-1.5509048245	 1.6367788107	-0.228681
C	-2.3872004988	-0.109749969	 1.0577894189	-0.223901
C	-1.3828495877	-0.5845733154	-0.0338057086	-0.021631
H	 0.8020160569	 1.8167828863	 0.1048154152	 0.285987
H	 0.5708687748	-0.2648588073	-0.8849536102	 0.074391
H	 1.7901351531	-0.6736877998	 1.2006263222	 0.118694
H	 0.4259831739	-0.0705395917	 2.1519455734	 0.134605
H	-1.4703854043	-2.8897788111	 0.0862351944	 0.091269
H	-3.3740644768	-2.0725085236	 1.4195628712	 0.11291
H	-2.2256142736	-1.6681652926	 2.7022825317	 0.110955
H	-3.3345708506	 0.275442869	 0.676788379	 0.105528
H	-1.9690244497	 0.6398320953	 1.7320589565	 0.115818
H	-1.7908178324	-0.5687322746	-1.0451750737	 0.074989
60.7807	119.4149	207.6374	243.9782	276.2372	346.2378	461.584	489.6973	523.5148	564.9827	654.0404	720.2189	752.7852	792.9037	843.6755	894.1234	904.0744	939.8551	974.0745	981.6864	1000.4678	1073.4352	1098.8616	1125.196	1161.8945	1168.4201	1198.8281	1218.4318	1221.7485	1242.8186	1255.7284	1261.6651	1270.8086	1305.3536	1335.6174	1374.2261	1419.5097	1456.6803	1484.2913	1503.7522	1840.7628	2964.8643	3034.0613	3063.2347	3079.9406	3092.8695	3104.2652	3111.0315	3111.8417	3133.7478	3821.7803
OC1CC(=O)C2CCC12	O[C@H]1CC(=O)[C@H]2CC[C@@H]12	
InChI=1S/C7H10O2/c8-6-3-7(9)5-2-1-4(5)6/h4-6,8H,1-3H2	InChI=1S/C7H10O2/c8-6-3-7(9)5-2-1-4(5)6/h4-6,8H,1-3H2/t4-,5+,6+/m1/s1
