14
gdb 128455	4.79901	1.13809	0.92531	2.4025	65.28	-0.2831	-0.0441	0.2391	1188.594	0.102361	-470.054543	-470.046715	-470.045771	-470.087824	26.815	
C	-0.046020087	 1.3479202521	 0.0614224303	-0.240229
O	 0.0197479792	-0.0859107056	-0.027306397	-0.221023
C	 0.6349547552	-0.545582752	-1.106147173	 0.575182
O	 1.1297348887	 0.0977522131	-1.9936029486	-0.382029
N	 0.6551925251	-1.9584418708	-1.1155425796	-0.107202
C	 1.2144048895	-2.7347845536	-2.0899512367	 0.055954
N	 1.0635805438	-4.0019194778	-1.7995472867	-0.279379
C	 0.3876064631	-3.9586749843	-0.6049716631	 0.051966
N	 0.1158573168	-2.7568925138	-0.1469236559	-0.226572
H	 0.9594141138	 1.7737261056	 0.0879248308	 0.151782
H	-0.5878818397	 1.7574458139	-0.7938676611	 0.151883
H	-0.5769415552	 1.5539628214	 0.9894697638	 0.150612
H	 1.6981293614	-2.3072949124	-2.9533304027	 0.177925
H	 0.0927855553	-4.8474468658	-0.0670238604	 0.141129
79.4107	101.4411	127.8778	173.4764	215.7861	319.1343	417.9183	525.1056	642.4332	687.0539	782.6484	830.4508	895.707	925.3453	963.3586	980.5185	1024.5735	1141.2468	1180.7899	1187.0162	1223.3538	1256.4413	1291.3573	1314.0034	1418.5839	1436.117	1481.9763	1483.7281	1496.8684	1566.3635	1836.8364	3060.1913	3139.5628	3175.3354	3262.9766	3286.3473
COC(=O)N1C=NC=N1	COC(=O)n1cncn1	
InChI=1S/C4H5N3O2/c1-9-4(8)7-3-5-2-6-7/h2-3H,1H3	InChI=1S/C4H5N3O2/c1-9-4(8)7-3-5-2-6-7/h2-3H,1H3
