21
gdb 91648	2.47263	1.70511	1.37494	3.2284	77.4	-0.2391	0.0617	0.3009	1038.312	0.183588	-424.219878	-424.211626	-424.210682	-424.25178	34.231	
C	-0.1728593825	 1.4932548847	-0.0335867036	-0.474669
C	-0.0149504872	-0.0228478819	-0.0146769301	 0.44479
O	-1.3106038288	-0.6126358829	-0.1332818939	-0.493252
C	 1.1361280744	-0.6187056787	-0.8981369548	-0.090162
C	 2.0826351541	-0.2765083914	 0.2918196151	-0.250793
C	 0.8276686577	-0.6360698306	 1.1414258814	-0.1037
C	 0.7286123326	-2.1585871544	 0.8636476946	 0.166473
O	-0.4538458321	-2.7816406799	 1.3017326251	-0.457
C	 0.9479531115	-2.1331131128	-0.6958674779	-0.255812
H	 0.7706715406	 2.0291597757	 0.0796915648	 0.127203
H	-0.6146246598	 1.8133170711	-0.9865076666	 0.105905
H	-0.8468702137	 1.8063437841	 0.7694953574	 0.129424
H	-1.7517105174	-0.2419366502	-0.90464081	 0.280362
H	 1.3224099712	-0.2532940617	-1.9100424423	 0.053067
H	 2.9574459374	-0.9190712663	 0.4197313424	 0.098468
H	 2.3863499703	 0.767641306	 0.3513447499	 0.10061
H	 0.6995828323	-0.3163563296	 2.1759556504	 0.062958
H	 1.5413176548	-2.686609625	 1.3712697902	 0.078879
H	-1.1782332521	-2.3028005199	 0.8782565516	 0.288324
H	 0.0700335384	-2.531835554	-1.2083607226	 0.096478
H	 1.8246918683	-2.7038388225	-1.0142015111	 0.092448
189.446	210.2733	229.0269	237.1917	272.1186	374.2816	417.6755	419.905	465.8079	472.0103	552.7515	583.2676	641.822	707.0371	818.8156	824.0097	841.6203	882.313	925.3784	949.2736	966.5664	972.4483	1001.6205	1039.3899	1071.2448	1090.4139	1113.8125	1122.56	1146.2087	1176.8667	1193.3962	1222.3817	1236.682	1258.7242	1269.5931	1301.1599	1311.7183	1342.2149	1374.3558	1413.2619	1473.7382	1485.2572	1493.2747	1495.0329	1517.2371	3023.5977	3056.8275	3065.6274	3071.2509	3091.5578	3092.8486	3114.946	3115.891	3130.2474	3145.1693	3763.0576	3811.5333
CC1(O)C2CC1C(O)C2	C[C@@]1(O)[C@H]2C[C@@H]1[C@@H](O)C2	
InChI=1S/C7H12O2/c1-7(9)4-2-5(7)6(8)3-4/h4-6,8-9H,2-3H2,1H3	InChI=1S/C7H12O2/c1-7(9)4-2-5(7)6(8)3-4/h4-6,8-9H,2-3H2,1H3/t4-,5+,6-,7+/m0/s1
