20
gdb 54098	2.72561	1.46357	1.3246	3.3326	78.96	-0.2363	0.0354	0.2716	1071.589	0.170985	-403.130022	-403.121115	-403.120171	-403.163733	34.137	
C	-0.1664921562	 1.5714132104	 0.2289275546	-0.485284
C	-0.0051701387	 0.0585194458	 0.0516994092	 0.287223
C	 1.154331134	-0.5347568136	-0.8334423357	-0.105271
C	 2.1508480112	-0.1404415801	 0.2955717912	-0.24595
C	 0.918486718	-0.756103321	 1.0223780042	-0.060451
C	 0.9613627813	-1.8752485404	-0.0609376233	-0.229325
C	-1.4134061872	-0.517093956	-0.1246039099	 0.30748
N	-1.8396531494	-0.6295510013	-1.418819766	-0.517662
O	-2.1298728463	-0.7810956455	 0.8223223398	-0.374102
H	 0.7758079892	 2.0881806839	 0.4162028758	 0.118902
H	-0.6208558405	 2.016390473	-0.6631562994	 0.117215
H	-0.8360551443	 1.768940906	 1.0716407486	 0.142882
H	 1.3025662674	-0.4045105665	-1.9091890878	 0.059459
H	 3.0681492117	-0.7329092245	 0.3391983514	 0.093142
H	 2.369708128	 0.9159116212	 0.4469496204	 0.094498
H	 0.7693807578	-0.8829325633	 2.0941902991	 0.083624
H	 0.0428800822	-2.4371981602	-0.2386794348	 0.109896
H	 1.8295635485	-2.5379039061	-0.0315887465	 0.088495
H	-1.2116361798	-0.5220830773	-2.1955944022	 0.258152
H	-2.7559159667	-1.0130697243	-1.5866506788	 0.257076
42.2188	165.7588	175.7799	191.5974	208.2105	267.992	326.5489	418.4025	482.9485	536.8007	587.5233	590.2349	663.138	782.2203	785.8061	803.6911	873.6506	897.0646	900.7142	902.1685	1007.7812	1010.441	1023.5376	1064.1965	1078.975	1095.6535	1111.8696	1137.1714	1166.6419	1183.9547	1190.9572	1195.2101	1238.8107	1250.808	1280.2233	1355.5919	1407.2866	1488.8968	1493.1648	1518.7063	1548.7258	1611.563	1786.8419	3040.6236	3059.3746	3066.0142	3076.7038	3101.7082	3122.2988	3128.0414	3131.1793	3144.7079	3597.255	3736.1446
CC1(C2CC1C2)C(N)=O	C[C@]1([C@H]2C[C@@H]1C2)C(=O)N	
InChI=1S/C7H11NO/c1-7(6(8)9)4-2-5(7)3-4/h4-5H,2-3H2,1H3,(H2,8,9)	InChI=1S/C7H11NO/c1-7(6(8)9)4-2-5(7)3-4/h4-5H,2-3H2,1H3,(H2,8,9)/t4-,5+,7-
