16
gdb 29335	1.98516	1.89118	0.9755	5.8289	80.19	-0.1954	0.0016	0.197	1156.4965	0.125613	-396.992461	-396.983494	-396.982549	-397.026239	32.656	
C	 0.0113970245	 1.4995054251	 0.050499282	-0.51526
C	 0.0109960906	 0.0100329269	-0.013715886	 0.229854
C	-0.0531056146	-0.8389650454	-1.1167181842	 0.069268
C	-0.1244635948	-0.4472202506	-2.4702054746	 0.180902
N	-0.1740353912	-0.1569070575	-3.5929861643	-0.378678
C	-0.0171129571	-2.1964902961	-0.6410641092	 0.163175
N	-0.1354683362	-3.3273545721	-1.4500978485	-0.615107
C	 0.0708629496	-2.128765781	 0.7280302388	-0.158965
N	 0.0856732476	-0.7852380309	 1.081230074	-0.301758
H	 0.9253491507	 1.8884012858	 0.515047699	 0.136459
H	-0.0520930139	 1.9116746105	-0.958532518	 0.163744
H	-0.8408292462	 1.8834032992	 0.623784934	 0.137721
H	 0.1518030264	-3.1613806049	-2.4057925064	 0.258088
H	 0.3296218326	-4.1453631086	-1.0817944515	 0.245923
H	 0.1134533481	-2.9042581037	 1.4739232103	 0.119067
H	 0.143557054	-0.4465348967	 2.0259034145	 0.265565
71.1608	121.4855	136.0406	199.3575	225.65	263.3169	324.1498	405.9786	478.2376	533.4733	545.7287	584.7714	615.3954	650.676	663.0299	682.4008	745.4142	779.2642	983.7979	1053.9592	1058.3972	1100.3747	1123.5598	1240.1541	1296.1923	1349.2367	1418.7884	1446.2771	1473.6293	1482.0933	1522.0142	1568.0131	1636.1848	1659.7907	2325.1296	3025.1488	3073.6004	3133.3504	3274.6821	3547.0932	3641.0667	3679.6884
CC1=C(C#N)C(N)=CN1	Cc1c(C#N)c(N)c[nH]1	
InChI=1S/C6H7N3/c1-4-5(2-7)6(8)3-9-4/h3,9H,8H2,1H3	InChI=1S/C6H7N3/c1-4-5(2-7)6(8)3-9-4/h3,9H,8H2,1H3
