21
gdb 89469	2.11204	1.58418	1.45709	2.1655	78.22	-0.2339	0.0658	0.2997	1089.4562	0.18042	-424.209052	-424.199691	-424.198747	-424.242586	36.127	
C	-0.5835636948	 1.319351469	-0.0891789098	-0.419288
C	 0.1227685679	-0.0190708124	-0.0479982167	 0.131592
O	 1.3277341659	-0.059719107	-0.8596195067	-0.355898
C	 2.1202384539	-0.6144729587	 0.218874664	 0.388618
C	 2.8458962881	-1.8746019277	-0.1661599396	-0.479275
C	 2.8427188171	 0.5130529134	 1.0065253927	-0.268316
C	 1.6487379808	 0.5839658763	 2.0114838657	-0.307034
C	 0.8940957236	-0.4947721672	 1.1976984685	 0.282565
O	 0.2385777196	-1.530712539	 1.8627724197	-0.474699
H	 0.0783881779	 2.1354570538	 0.2137877535	 0.118678
H	-0.9294469493	 1.5280705237	-1.1064269332	 0.127585
H	-1.457579073	 1.3088198527	 0.5709471894	 0.121655
H	-0.5658867796	-0.8169676935	-0.3600570779	 0.083671
H	 3.5675402077	-1.6692987392	-0.9650813951	 0.128209
H	 3.3948437848	-2.2886437468	 0.686316414	 0.107674
H	 2.1422778154	-2.630268431	-0.5273148158	 0.129396
H	 3.7877129872	 0.2124832654	 1.466646308	 0.096904
H	 3.0073502156	 1.4084575174	 0.4049774956	 0.110647
H	 1.9202583209	 0.21203611	 3.005518523	 0.09111
H	 1.1516129095	 1.5482056694	 2.1412099627	 0.106834
H	 0.7402816207	-1.7575328387	 2.6524414979	 0.279371
75.9246	176.7428	189.1237	200.9777	228.7043	260.855	301.3674	321.2525	386.5363	411.0448	465.1194	535.2187	605.3587	637.5915	698.8134	746.6291	842.4218	868.6345	894.9872	924.6786	946.3002	967.7996	993.0036	1071.5788	1087.9701	1117.5009	1144.9141	1166.5931	1194.9047	1211.0586	1215.7946	1231.9722	1267.1305	1317.2192	1332.0444	1374.474	1400.5206	1408.0143	1414.8601	1466.0602	1479.7033	1482.3327	1484.5668	1487.9164	1504.0169	3004.2101	3030.0671	3036.6981	3043.6735	3064.4279	3096.1791	3101.8627	3106.9601	3112.1416	3116.095	3128.938	3813.8249
CC1OC2(C)CCC12O	C[C@H]1O[C@@]2(C)CC[C@@]12O	
InChI=1S/C7H12O2/c1-5-7(8)4-3-6(7,2)9-5/h5,8H,3-4H2,1-2H3	InChI=1S/C7H12O2/c1-5-7(8)4-3-6(7,2)9-5/h5,8H,3-4H2,1-2H3/t5-,6+,7-/m1/s1
