19
gdb 108207	3.18478	1.47745	1.35289	0.1947	70.33	-0.2432	0.0848	0.328	1025.6188	0.16027	-460.153004	-460.145211	-460.144266	-460.185229	30.386	
C	 0.0817427105	 1.3734691186	 0.0184018266	-0.263752
O	 0.0896390321	-0.0491158936	-0.0424737882	-0.295846
C	 0.6389928163	-0.5859616712	-1.1771220592	 0.470827
C	-0.0145459593	-0.2607349133	-2.5432233217	-0.128058
O	 0.5204571615	-1.2891027081	-3.3992115586	-0.281739
C	 1.4065589111	-2.0662561525	-2.5761427459	 0.068901
C	 2.6069741881	-1.1771677606	-2.2173466404	-0.082383
O	 2.0338531155	-0.2279696772	-1.2980253567	-0.313867
C	 0.6755182095	-2.1179124756	-1.2312835757	-0.295471
H	 1.0922859348	 1.7794066825	-0.089002624	 0.139995
H	-0.5676602192	 1.8091440827	-0.7524320752	 0.114196
H	-0.3148987337	 1.6352471072	 1.0009123444	 0.131077
H	-1.1089964632	-0.3309481935	-2.5092498033	 0.103086
H	 0.2798308701	 0.72642981	-2.9135765392	 0.105616
H	 1.6375929317	-2.9975106846	-3.0912909968	 0.086957
H	 3.4193793086	-1.7279705802	-1.7255496885	 0.10062
H	 3.000860891	-0.6638083195	-3.1009497143	 0.109336
H	 1.2535657369	-2.5380961104	-0.4071970532	 0.1161
H	-0.3099362022	-2.5803363405	-1.2973832802	 0.114407
94.9736	164.0685	199.091	217.5816	357.9403	381.9422	423.0572	470.3703	506.5318	591.0904	635.7614	786.5526	805.4879	859.9441	916.2223	924.0005	936.6998	971.6817	996.3504	1021.4393	1053.0224	1066.1757	1112.9216	1141.6287	1177.541	1181.6264	1205.3542	1211.5921	1228.318	1242.4769	1289.4727	1297.4043	1324.5827	1368.8296	1391.3352	1475.991	1484.8366	1492.6164	1508.1697	1513.775	1521.3023	3012.2929	3015.4656	3021.7492	3071.1762	3076.3875	3088.5659	3089.8927	3135.8142	3135.9561	3153.205
COC12COC(CO1)C2	CO[C@@]12CO[C@@H](CO1)C2	
InChI=1S/C6H10O3/c1-7-6-2-5(3-9-6)8-4-6/h5H,2-4H2,1H3	InChI=1S/C6H10O3/c1-7-6-2-5(3-9-6)8-4-6/h5H,2-4H2,1H3/t5-,6-/m1/s1
