19
gdb 70837	2.36548	1.95363	1.3893	1.2586	74.96	-0.2285	0.0851	0.3137	1003.589	0.158144	-422.978807	-422.970681	-422.969737	-423.010957	31.827	
C	 0.0722323108	 1.4468692694	-0.1456820745	-0.531552
C	-0.0069425215	-0.0373989442	 0.0096273935	 0.402659
O	 0.5399950819	-0.8995721259	-1.0494290403	-0.378204
C	 0.0398081836	-1.8558082828	-0.0496634131	 0.402655
C	 0.194842878	-3.3207843477	-0.3011618995	-0.531551
C	 0.5819179088	-0.9692623442	 1.1208204372	-0.172159
C	-0.4406549816	-1.0321051767	 2.2418632418	-0.115948
O	-1.6806137658	-1.0396072941	 1.494256149	-0.28139
C	-1.235179966	-0.984670512	 0.1605888118	 0.015779
H	 1.1132423784	 1.7823104142	-0.1872293804	 0.131957
H	-0.4297468575	 1.7627477523	-1.0654017347	 0.135588
H	-0.4182556123	 1.9399154021	 0.6997108872	 0.132403
H	 1.2516376606	-3.5988978533	-0.3626951114	 0.131958
H	-0.2682815432	-3.8923793151	 0.5094898972	 0.132402
H	-0.2917645429	-3.6014547148	-1.2403551021	 0.135589
H	 1.6486962771	-0.9489794765	 1.3398792987	 0.080105
H	-0.3701219866	-1.941234454	 2.8515186278	 0.10752
H	-0.4158610425	-0.1621734002	 2.9095267579	 0.10752
H	-2.0569491393	-0.9825174566	-0.5533755261	 0.09467
176.4196	178.4944	211.7812	213.064	218.7392	239.9684	400.3922	488.5643	511.4907	598.026	659.486	680.0635	731.2075	761.7659	778.607	879.5211	915.3442	947.8957	972.6168	992.4199	1012.821	1061.8007	1084.2538	1094.6026	1103.8047	1142.634	1184.9162	1195.6047	1203.9477	1260.9865	1277.2386	1279.3147	1359.6933	1399.7352	1407.5468	1461.2503	1475.3078	1476.864	1489.3186	1491.4676	1520.4073	3019.5877	3036.8939	3037.1987	3056.4095	3109.5966	3109.7408	3111.9526	3111.966	3135.7925	3148.7587
CC12OC3(C)C1COC23	C[C@@]12O[C@@]3(C)[C@@H]1CO[C@@H]23	
InChI=1S/C7H10O2/c1-6-4-3-8-5(6)7(4,2)9-6/h4-5H,3H2,1-2H3	InChI=1S/C7H10O2/c1-6-4-3-8-5(6)7(4,2)9-6/h4-5H,3H2,1-2H3/t4-,5+,6-,7+
