17
gdb 68213	4.19253	1.11697	1.02198	3.1875	77.11	-0.2486	-0.0626	0.1861	1166.5498	0.135797	-421.807053	-421.799327	-421.798383	-421.839225	30.162	
O	-0.0752620282	 1.413185011	-0.0093709911	-0.477228
C	-0.0113851894	 0.0273312751	 0.0079422008	 0.376629
C	 0.3291324578	-0.8309047381	 1.2889605838	-0.277856
C	-0.3797785181	-1.9352392057	 0.4347433634	-0.13889
C	-1.338876802	-0.7938620825	-0.0519066047	-0.242143
C	 0.5775542895	-2.0146126918	-0.7594472213	 0.287176
C	 1.0856003622	-3.209034525	-1.4159234662	 0.038157
O	 0.8081048136	-4.3440809822	-1.0902516545	-0.278719
C	 0.8192471003	-0.72187342	-1.0428728647	-0.275423
H	 0.8117889447	 1.7677012077	 0.1147111835	 0.283739
H	 1.3817001537	-0.9823077067	 1.5405529881	 0.096539
H	-0.2486063343	-0.51496705	 2.1617033109	 0.107956
H	-0.7412620892	-2.866288255	 0.86074997	 0.096491
H	-2.0569069326	-0.4744845545	 0.707950426	 0.109579
H	-1.8171111579	-0.9095528197	-1.0265168875	 0.105118
H	 1.7716585381	-3.005117265	-2.268648149	 0.066476
H	 1.4313626518	-0.2792033175	-1.8184124074	 0.1224
96.6402	161.4839	225.3942	250.708	334.1401	344.8459	465.7085	513.9414	547.0303	585.076	650.9167	699.3659	793.6949	813.1927	836.8206	861.1473	917.5975	946.5289	994.1014	1006.8593	1035.8247	1052.9275	1089.2448	1130.8719	1137.9274	1163.0035	1214.3376	1225.0514	1229.3833	1295.8052	1335.8968	1360.8004	1414.6718	1479.9466	1520.0626	1648.0649	1773.683	2876.0414	3055.4881	3066.595	3125.9276	3135.0067	3170.3204	3218.3042	3807.8189
OC12CC(C1)C(C=O)=C2	O[C@@]12C[C@@H](C1)C(=C2)C=O	
InChI=1S/C7H8O2/c8-4-6-3-7(9)1-5(6)2-7/h3-5,9H,1-2H2	InChI=1S/C7H8O2/c8-4-6-3-7(9)1-5(6)2-7/h3-5,9H,1-2H2/t5-,7-
