15
gdb 16472	3.31845	2.82231	1.86851	1.4142	59.84	-0.2461	0.0634	0.3095	709.5081	0.120928	-399.72449	-399.718679	-399.717735	-399.754032	24.098	
O	 0.135138788	 1.3538006278	 0.1070822532	-0.486969
C	 0.0651257877	-0.0183157064	 0.0673923141	 0.434019
C	 0.9164744812	-0.7849969545	 1.0649919431	-0.13478
O	 0.5815945165	-2.1431229212	 0.7215650727	-0.278666
C	-0.3384294961	-1.9757156385	-0.3369988571	 0.129713
C	-1.3000538831	-0.7864596108	-0.062463859	-0.148619
N	-1.328323006	-0.3856876531	-1.5175612041	-0.369601
C	 0.0974440575	-0.8224706858	-1.2827593753	-0.14862
H	-0.462902772	 1.666915047	-0.5870685651	 0.296409
H	 1.990171765	-0.6106380208	 0.9322860062	 0.1148
H	 0.6458901217	-0.5759959119	 2.1061164065	 0.1148
H	-0.6992390769	-2.928340972	-0.7220915633	 0.093468
H	-2.1767455745	-0.7301295228	 0.5838822389	 0.084383
H	-1.8283925634	-1.0882498958	-2.0695150027	 0.215279
H	 0.8570724224	-0.8083079412	-2.0652484364	 0.084383
269.891	280.5881	384.0663	420.0781	474.3361	518.6292	680.1848	692.242	719.0587	745.0612	845.2043	885.5465	896.3765	939.2833	972.014	1015.4935	1047.7958	1074.4936	1107.8236	1126.7196	1133.9711	1138.6653	1151.1957	1194.0553	1236.0897	1250.9852	1280.9804	1307.4147	1312.8205	1398.1629	1441.4353	1522.1717	3033.5428	3076.2554	3110.0744	3113.3655	3143.7392	3400.0353	3741.5637
OC12COC3C1NC23	O[C@@]12CO[C@H]3[C@@H]1N[C@@H]23	
InChI=1S/C5H7NO2/c7-5-1-8-2-3(5)6-4(2)5/h2-4,6-7H,1H2	InChI=1S/C5H7NO2/c7-5-1-8-2-3(5)6-4(2)5/h2-4,6-7H,1H2/t2-,3-,4+,5-
