20
gdb 126533	3.26033	1.00897	0.8251	4.9766	81.82	-0.2435	0.0074	0.2509	1438.0793	0.171468	-399.342361	-399.332918	-399.331973	-399.377689	33.396	
C	-0.0459383919	 1.6012469013	-0.0529448993	-0.381909
C	-0.0255807175	 0.0718595316	-0.0931074345	-0.161786
C	-1.4283710238	-0.542660931	 0.0920427465	-0.3126
C	-1.4414826142	-2.0372513601	 0.0824508398	 0.316324
C	-1.4117158772	-2.969532528	 1.0973505205	-0.154728
N	-1.4131536073	-4.2190866362	 0.5627698152	-0.191502
N	-1.442996198	-4.120650357	-0.7339593161	-0.154326
N	-1.4583025297	-2.8023697196	-1.0422732419	 0.000448
C	-1.5133108195	-2.3994957487	-2.4316976209	-0.338341
H	 0.9588696027	 2.0134440046	-0.1841869251	 0.119551
H	-0.6811194287	 2.012130587	-0.8456855434	 0.115867
H	-0.4339515739	 1.9671437495	 0.9040361766	 0.119768
H	 0.4010934871	-0.2680924419	-1.0448559045	 0.102346
H	 0.6346631585	-0.3173348149	 0.6903639576	 0.113143
H	-1.8431005012	-0.2037067518	 1.0478064775	 0.121901
H	-2.0996093453	-0.1540517163	-0.684949961	 0.107821
H	-1.3961712464	-2.8069340368	 2.1635870685	 0.116893
H	-2.3873342882	-1.7690273449	-2.6193202275	 0.144541
H	-0.6105449692	-1.85399401	-2.7212318968	 0.145363
H	-1.5908139264	-3.3104672871	-3.0248151312	 0.171225
50.2064	79.0781	101.0082	120.6263	219.5772	246.0106	262.113	309.9935	370.8165	423.6823	664.1655	708.6706	716.8218	741.9764	769.8261	844.7766	873.4065	899.7979	983.1148	1027.0249	1042.5912	1081.1489	1109.4912	1147.0374	1150.9382	1208.7566	1258.665	1272.1961	1306.3096	1308.458	1324.4011	1350.4582	1382.4929	1414.9615	1440.2463	1478.1151	1484.0273	1491.6673	1493.0465	1500.8248	1504.1473	1509.8635	1587.802	3020.5999	3029.8836	3032.8703	3046.008	3057.473	3076.9863	3100.2062	3108.1193	3108.562	3162.8815	3261.7377
CCCC1=CN=NN1C	CCCc1cnnn1C	
InChI=1S/C6H11N3/c1-3-4-6-5-7-8-9(6)2/h5H,3-4H2,1-2H3	InChI=1S/C6H11N3/c1-3-4-6-5-7-8-9(6)2/h5H,3-4H2,1-2H3
