13
gdb 20346	5.19136	2.13236	1.52573	3.1974	65.89	-0.2292	-0.0242	0.2049	762.2258	0.098213	-361.461549	-361.456082	-361.455138	-361.490936	21.825	
C	-0.061504695	 1.5065160548	 0.0107802087	-0.404606
C	 1.4093004123	 1.9076875192	-0.0011370411	-0.081689
C	 2.2366099832	 0.8437285753	-0.0149166757	-0.2128
C	 1.4340967891	-0.3716171784	-0.0139018644	 0.171434
C	 1.381136506	-1.7259500585	-0.0208441133	-0.090351
O	 0.0866879662	-2.1265324538	-0.0106173271	-0.177691
N	-0.7599536867	-1.003741691	 0.0037207523	-0.240069
C	 0.0583807207	 0.007903893	 0.0013970883	 0.369584
H	-0.5866190944	 1.8817923857	 0.8973268872	 0.14647
H	-0.60350573	 1.8914551149	-0.8613435841	 0.14647
H	 1.7236076736	 2.9437070366	 0.001536556	 0.109629
H	 3.317455321	 0.8842733452	-0.0250696768	 0.112366
H	 2.107765174	-2.5224322629	-0.03221147	 0.151255
231.0241	267.1597	447.4799	458.398	587.1481	661.7296	694.4264	707.9899	752.515	809.1248	859.3645	876.5874	925.5608	951.7137	962.4766	966.6646	1097.7674	1105.6333	1151.1239	1171.9158	1265.8562	1277.3272	1343.6269	1405.8126	1445.7265	1572.8532	1605.5291	1678.2087	3041.3726	3071.5606	3211.5707	3234.2806	3270.8231
C1C=CC2=CON=C12	C1C=Cc2conc12	
InChI=1S/C6H5NO/c1-2-5-4-8-7-6(5)3-1/h1-2,4H,3H2	InChI=1S/C6H5NO/c1-2-5-4-8-7-6(5)3-1/h1-2,4H,3H2
