16
gdb 64788	4.61379	0.68298	0.67237	4.3214	83.12	-0.2752	-0.0447	0.2305	1657.2505	0.122804	-400.720645	-400.711591	-400.710647	-400.755202	32.917	
O	-0.3374063102	 1.376278879	-0.2432418715	-0.461213
C	-0.0361937909	 0.0256348471	-0.0522276639	 0.421749
C	 1.0856395303	-0.4891435748	-0.9556770169	-0.428016
C	 2.3484397086	 0.1852813889	-0.6921154813	 0.070264
C	 3.3745526166	 0.7757171858	-0.4473606327	 0.049065
C	 4.5397256026	 1.433538127	-0.1762738304	 0.210086
N	 5.5293726824	 1.9955940524	 0.0569962753	-0.335433
C	-0.2167400872	-0.5625059098	 1.3229148303	-0.312599
C	-1.2157810098	-0.8530477397	 0.2162369074	-0.306898
H	 0.3947808124	 1.8984784901	 0.1061500357	 0.29149
H	 1.2143615451	-1.5693106807	-0.8196589838	 0.146186
H	 0.8033461809	-0.3254765745	-2.0034558417	 0.157434
H	 0.4455207993	-1.358321767	 1.6467162556	 0.119381
H	-0.5287976665	 0.1189825256	 2.1057265149	 0.125552
H	-2.1768938611	-0.3556978087	 0.2683808314	 0.134852
H	-1.2377180124	-1.8473815306	-0.2162291084	 0.118098
53.6367	66.3525	153.9652	186.4573	295.1846	322.4321	351.3914	366.9344	382.8042	442.3491	502.4341	575.0514	576.9696	723.1648	747.2599	776.134	880.3555	920.7427	935.2545	973.6359	1005.6914	1053.6822	1084.1855	1165.9864	1186.3471	1190.6115	1284.2271	1298.6725	1312.3444	1399.2376	1445.4541	1456.9699	1502.637	2263.6296	2400.1765	3029.001	3071.6057	3136.5382	3141.7968	3223.1667	3236.9927	3783.138
OC1(CC#CC#N)CC1	OC1(CC#CC#N)CC1	
InChI=1S/C7H7NO/c8-6-2-1-3-7(9)4-5-7/h9H,3-5H2	InChI=1S/C7H7NO/c8-6-2-1-3-7(9)4-5-7/h9H,3-5H2
