14
gdb 130961	3.43861	1.12462	0.8934	4.4741	64.24	-0.233	-0.034	0.199	1214.8145	0.101168	-470.048259	-470.040215	-470.039271	-470.082244	28.02	
O	 0.1917131751	-0.1803009991	 0.2393203356	-0.2269
C	 0.1319516407	 0.8971200814	-0.2857225049	 0.165097
C	 1.1965351105	 1.9749518092	-0.1045099709	-0.247629
N	 1.1975596227	 2.9383893309	-1.1709772639	-0.081459
N	 1.5332960673	 2.579945596	-2.4612482132	-0.238516
C	 1.4436634187	 3.6834400872	-3.1336006797	 0.069065
N	 1.0668955736	 4.7398843131	-2.3463155122	-0.367717
C	 0.8970235203	 4.2829534428	-1.0348028417	 0.486195
O	 0.5732418217	 4.8990650941	-0.042419705	-0.427035
H	-0.7206416457	 1.2006879123	-0.9331509131	 0.092289
H	 0.9711512102	 2.5342456823	 0.8118192948	 0.177949
H	 2.1748526638	 1.4989664842	 0.0106183076	 0.152366
H	 1.6408295603	 3.7647233432	-4.1907290176	 0.161056
H	 0.9336570211	 5.6985383925	-2.6174886559	 0.285237
49.6828	78.4508	103.6428	241.6428	256.0254	334.555	426.9916	490.7546	553.8356	656.2138	693.0629	746.6082	755.1736	829.1354	839.5997	943.2273	1019.1911	1039.9762	1104.9787	1127.0781	1168.4181	1294.3476	1313.1805	1347.3199	1403.6967	1415.861	1425.0345	1439.5365	1613.424	1842.0912	1847.9213	2891.9735	3049.3854	3104.0869	3272.0661	3689.421
O=CCN1N=CNC1=O	O=CCn1nc[nH]c1=O	
InChI=1S/C4H5N3O2/c8-2-1-7-4(9)5-3-6-7/h2-3H,1H2,(H,5,6,9)	InChI=1S/C4H5N3O2/c8-2-1-7-4(9)5-3-6-7/h2-3H,1H2,(H,5,6,9)
