16
gdb 44540	3.58974	1.49036	1.40304	2.7577	66.7	-0.2539	0.0043	0.2582	943.7133	0.126447	-437.878329	-437.871748	-437.870804	-437.909473	26.268	
O	 0.011667277	 0.1712638924	-0.5424423999	-0.325142
C	-0.0627175654	 1.2617754017	-0.0628819775	 0.415661
C	-1.3318302748	 2.0395674249	 0.3178744972	-0.387618
C	-0.8320922491	 3.3865043918	 0.8150149109	-0.003318
C	 0.7066299504	 3.2772968879	 0.769178042	 0.069243
O	 1.0524513216	 2.0021209427	 0.2345186942	-0.217576
C	 0.6987217087	 4.4581070636	-0.1992555671	-0.037102
C	-0.1626933151	 4.1981778712	-1.3643537473	-0.25914
N	-0.8264452361	 4.5894936793	-0.1090301246	-0.143478
H	-1.9983430536	 2.0971714659	-0.5462166515	 0.154948
H	-1.8576489572	 1.4761991417	 1.0936971102	 0.148182
H	-1.2556699963	 3.691817071	 1.7705239775	 0.102565
H	 1.2611931542	 3.4365178218	 1.6937534538	 0.105011
H	 1.3503163209	 5.3216560906	-0.1266188233	 0.106082
H	-0.2178095083	 4.9818134923	-2.113237897	 0.135587
H	-0.269134107	 3.196239301	-1.7694237277	 0.136094
93.4769	179.4765	310.5472	390.071	494.1612	539.1117	562.673	645.128	683.5823	730.4905	758.405	810.0715	839.6787	875.8101	910.445	967.1662	998.9915	1038.0239	1043.4752	1060.1259	1103.4241	1114.6073	1133.7431	1148.2285	1182.8152	1217.3483	1228.2199	1282.7851	1292.8462	1344.3835	1357.7076	1375.7355	1451.4728	1509.5235	1887.7992	3073.9599	3112.7316	3116.6515	3125.2997	3127.2299	3178.293	3208.0994
O=C1CC2C(O1)C1CN21	O=C1C[C@H]2[C@@H](O1)[C@H]1CN21	
InChI=1S/C6H7NO2/c8-5-1-3-6(9-5)4-2-7(3)4/h3-4,6H,1-2H2	InChI=1S/C6H7NO2/c8-5-1-3-6(9-5)4-2-7(3)4/h3-4,6H,1-2H2/t3-,4+,6+,7?/m0/s1
