18
gdb 110654	2.48304	1.39152	1.07259	3.2153	71.78	-0.2209	0.0594	0.2803	1153.1813	0.146227	-438.964797	-438.956207	-438.955263	-438.998056	32.847	
O	-0.1336811386	 1.131125234	 1.1026552345	-0.434531
C	 0.0680259902	 0.2146827427	 0.0315853944	-0.140258
C	-1.2462021558	-0.5389554658	-0.1243041157	-0.065391
C	-1.9224645325	-1.2854992274	-1.2753802095	-0.118617
N	-1.1529555025	-2.2733563425	-2.1264603718	-0.129466
C	 0.2760019773	-2.2765050873	-1.7675826401	-0.251757
C	-0.6902229113	-2.9284259941	-0.8532446522	-0.11142
C	-1.5713753503	-1.9920508504	 0.0115045145	 0.346841
O	-2.4172097413	-2.5220803306	 0.9665168446	-0.452885
H	 0.6768751938	 1.635540836	 1.221103903	 0.286172
H	 0.3224180496	 0.7481009833	-0.8983826338	 0.100665
H	 0.8947172265	-0.4712542487	 0.2642874056	 0.096952
H	-2.0349844109	 0.04087781	 0.356508558	 0.119388
H	-2.8712352055	-0.9477376617	-1.6723935388	 0.111293
H	 0.851333006	-2.9407489374	-2.4090798347	 0.123036
H	 0.7853052877	-1.3533643789	-1.5297989334	 0.121845
H	-0.7591291388	-4.0057861375	-0.739356059	 0.107144
H	-2.0205961536	-2.3815402837	 1.8333408843	 0.290989
63.1126	173.9888	188.249	229.9763	263.6273	286.1518	335.3055	396.072	413.0024	509.7308	576.8894	663.9236	684.1495	754.0779	813.11	837.8587	899.9723	949.1428	971.1769	992.9525	1037.1855	1049.1597	1067.2388	1094.9068	1105.6746	1122.9323	1139.605	1191.9012	1224.8334	1230.8759	1257.425	1274.8509	1315.7577	1329.2958	1342.5178	1438.4573	1491.1	1506.4203	1529.0503	2966.5689	3008.057	3115.9652	3123.1427	3162.9715	3195.9981	3240.7749	3795.2834	3825.893
OCC1C2N3CC3C12O	OC[C@H]1[C@H]2N3C[C@H]3[C@@]12O	
InChI=1S/C6H9NO2/c8-2-3-5-6(3,9)4-1-7(4)5/h3-5,8-9H,1-2H2	InChI=1S/C6H9NO2/c8-2-3-5-6(3,9)4-1-7(4)5/h3-5,8-9H,1-2H2/t3-,4-,5+,6-,7?/m0/s1
