23
gdb 69484	2.8431	1.37486	1.26437	0.2945	88.73	-0.2334	0.0876	0.321	1164.3193	0.206443	-351.149576	-351.140945	-351.14	-351.181961	35.347	
C	-0.1237652344	 1.5037866913	 0.010781631	-0.478204
C	 0.0056032126	-0.0022217887	-0.0120456477	 0.36701
C	-0.7946336311	-0.8226184412	 0.9700537972	-0.350578
C	 0.7137980649	-0.7862477624	 1.0786501375	-0.138058
C	 1.5696948221	-1.8771256894	 0.4484624226	 0.375743
C	 2.9348276727	-2.102851465	 1.0565594147	-0.488543
C	 0.8702339	-3.0110066368	-0.2635427719	-0.345265
C	 1.3382162034	-1.8092731646	-1.0514030386	-0.070812
C	 0.3721725611	-0.6615891143	-1.3546935879	-0.310067
H	 0.78569926	 1.9893962227	-0.3632919247	 0.111353
H	-0.9594092914	 1.8430229673	-0.6137617036	 0.114787
H	-0.3052278976	 1.8708967991	 1.0262898914	 0.111244
H	-1.3509846063	-0.2729025237	 1.7238927231	 0.101102
H	-1.2952722654	-1.727557047	 0.6451642346	 0.106786
H	 1.1417865794	-0.2766772892	 1.9364588062	 0.072931
H	 2.8592612384	-2.5186272191	 2.0685054223	 0.116244
H	 3.5231386267	-2.8031515327	 0.4552321764	 0.111431
H	 3.5004776344	-1.1658387267	 1.1249720276	 0.113427
H	 1.4373095992	-3.9278661789	-0.3956962086	 0.101327
H	-0.1901838132	-3.1821158952	-0.1170860251	 0.10648
H	 2.1615673149	-1.9637553158	-1.7421491821	 0.076677
H	-0.5141236227	-0.9875630291	-1.9130384308	 0.098234
H	 0.8815955224	 0.0773017694	-1.9838652437	 0.09675
141.5135	190.5284	210.4449	215.2684	286.5162	320.3239	340.1365	374.286	435.9952	481.421	560.2195	600.8879	692.6418	747.2615	807.8456	840.5403	845.5548	866.5482	905.7317	936.7773	966.4829	969.7214	993.3569	1026.412	1047.4219	1059.4259	1065.1891	1078.6639	1098.4507	1111.9332	1123.415	1126.5247	1213.1228	1228.283	1258.3149	1283.3458	1311.8764	1340.1875	1382.2888	1409.7176	1418.0426	1420.2764	1484.4267	1486.3598	1488.1371	1491.8074	1500.8627	1502.5009	1512.6065	3015.3803	3018.8423	3026.2978	3060.3946	3072.7816	3075.9473	3092.2653	3096.2852	3120.7218	3127.3561	3149.1081	3153.2837	3200.4177	3209.4508
CC12CC1C1(C)CC1C2	C[C@]12C[C@H]1[C@@]1(C)C[C@H]1C2	
InChI=1S/C9H14/c1-8-3-6-4-9(6,2)7(8)5-8/h6-7H,3-5H2,1-2H3	InChI=1S/C9H14/c1-8-3-6-4-9(6,2)7(8)5-8/h6-7H,3-5H2,1-2H3/t6-,7-,8+,9+/m1/s1
