20
gdb 116092	2.19169	1.58663	1.13105	2.8906	76.46	-0.2568	0.0321	0.2889	1160.2264	0.172075	-440.306044	-440.297109	-440.296165	-440.340562	32.821	
C	 0.6643664773	 1.0198390811	-0.3537034302	-0.246137
O	 0.6373492967	-0.3479931202	 0.0241959993	-0.234214
C	 0.3770632191	-0.5623562993	 1.3819042114	 0.203717
C	 0.167160252	-2.0660386623	 1.5990279574	-0.23586
C	 1.4850739719	-2.8083481483	 1.9147169769	-0.213488
C	 2.7018853226	-1.9740238107	 1.4864350804	-0.282881
C	 2.6534060967	-0.6329175723	 2.1659988192	 0.407132
N	 3.6617650105	-0.1035426934	 2.7167081406	-0.521828
O	 1.4197534205	-0.0249795415	 2.2053649138	-0.263719
H	 1.4782263526	 1.5620066788	 0.1401780839	 0.131639
H	 0.8149546823	 1.0454147836	-1.4345563178	 0.132138
H	-0.2876037976	 1.5146494536	-0.1113627154	 0.110911
H	-0.5029964311	 0.0186476398	 1.6894156082	 0.080203
H	-0.5506112611	-2.2039902971	 2.4119453258	 0.111196
H	-0.2977783015	-2.4504763311	 0.6877820263	 0.123493
H	 1.5542771095	-3.0007960728	 2.9904355279	 0.115184
H	 1.502509539	-3.7832526573	 1.4204636604	 0.107856
H	 3.6457757145	-2.4515678868	 1.7513737993	 0.125967
H	 2.6828986713	-1.8253598275	 0.4015272637	 0.134487
H	 3.403889595	 0.7985485637	 3.1240207689	 0.214205
39.1107	89.0425	128.9864	182.7423	219.3684	273.1969	375.8078	401.7596	453.3876	471.7032	588.5269	654.8012	736.671	788.8644	817.327	877.0677	914.9293	916.6992	960.4539	977.1718	1046.6348	1079.3454	1091.2686	1105.8174	1149.2043	1181.0764	1187.2969	1222.5283	1226.4711	1286.0536	1308.6599	1350.2005	1365.2838	1371.0636	1395.3518	1424.4602	1469.2008	1478.5278	1482.188	1485.779	1507.0082	1510.7686	1759.3325	2997.966	3014.1485	3047.3695	3058.6459	3067.5633	3073.0723	3090.0992	3114.2076	3132.0029	3132.1151	3453.8503
COC1CCCC(=N)O1	CO[C@H]1CCC[C]([NH])O1	
InChI=1S/C6H11NO2/c1-8-6-4-2-3-5(7)9-6/h6-7H,2-4H2,1H3	InChI=1S/C6H11NO2/c1-8-6-4-2-3-5(7)9-6/h6-7H,2-4H2,1H3/t6-/m1/s1
