18
gdb 131811	5.56232	0.64834	0.6317	1.6676	73.91	-0.2586	-0.0006	0.2579	1747.0712	0.149348	-435.267535	-435.258564	-435.25762	-435.303199	31.351	
O	-0.0054708081	 1.4061098977	-0.3100114335	-0.421061
C	 0.0263869611	 0.0398777902	 0.0710839568	-0.07283
C	-1.37740321	-0.5254986862	-0.0988057466	-0.16095
C	-1.460547062	-2.0154866879	 0.2779064804	-0.323161
C	-2.8369148405	-2.5813338561	 0.1177781934	 0.312618
N	-3.6981869861	-2.6527667404	 1.138118498	-0.267172
N	-4.7872652511	-3.1739707517	 0.587072144	-0.072625
N	-4.7235213796	-3.4582005879	-0.7051515338	-0.192591
C	-3.4847579453	-3.0854203759	-1.0275959375	-0.127096
H	 0.8753685411	 1.7728836886	-0.1912791486	 0.285836
H	 0.7356851062	-0.5319112993	-0.5508165543	 0.082504
H	 0.348723062	-0.0763132862	 1.1191694195	 0.086262
H	-2.0707721507	 0.0515147986	 0.5225481939	 0.119984
H	-1.6914418133	-0.3813054086	-1.1389715944	 0.109612
H	-0.7605109185	-2.5891880364	-0.3417698857	 0.108157
H	-1.1491505247	-2.1502217029	 1.3191589646	 0.120714
H	-5.6163448233	-3.3579982087	 1.1281560605	 0.291594
H	-3.1191038871	-3.194899657	-2.0364335766	 0.120205
24.6167	84.4403	92.1865	121.032	250.9152	262.1569	329.2879	337.4921	468.8482	519.5277	706.6883	723.9771	756.8505	773.9681	866.0535	881.2493	996.3735	1022.5521	1023.5978	1038.3629	1081.9939	1086.2811	1165.1684	1202.7888	1206.108	1233.2714	1250.5961	1298.7388	1307.1661	1315.1416	1356.1067	1383.4936	1416.147	1464.2683	1476.3601	1487.9393	1500.9433	1528.9602	1567.0135	2955.0123	2980.3352	3031.2413	3044.76	3072.7515	3096.2452	3265.6473	3670.6093	3830.8847
OCCCC1=NNN=C1	OCCCc1n[nH]nc1	
InChI=1S/C5H9N3O/c9-3-1-2-5-4-6-8-7-5/h4,9H,1-3H2,(H,6,7,8)	InChI=1S/C5H9N3O/c9-3-1-2-5-4-6-8-7-5/h4,9H,1-3H2,(H,6,7,8)
