19
gdb 103698	2.29483	1.37477	0.99532	1.8578	78.4	-0.2579	0.022	0.2799	1239.7008	0.154779	-422.975936	-422.965587	-422.964643	-423.01087	38.045	
C	-0.1656033614	 1.6313280299	 0.0711144122	-0.473075
C	-0.2035220661	 0.1197376377	 0.1367943834	 0.307289
C	-1.4416210795	-0.4940209492	-0.4995501639	-0.139833
O	-1.4426074671	-0.260874402	-1.8996117527	-0.416659
O	 1.0042472902	-0.5644882929	-0.2528034477	-0.322885
C	 0.5909550697	-0.6591676228	 1.1285426874	 0.130966
C	 1.5065930801	 0.0028382885	 2.1422327407	-0.475966
C	 0.1368822284	-1.9688680067	 1.5516453512	 0.294117
C	-0.196370771	-3.0474640115	 1.9658452873	-0.422827
H	 0.8280786949	 2.02868394	 0.2770487046	 0.128756
H	-0.460341002	 1.9421249084	-0.9352726849	 0.146994
H	-0.8766414245	 2.0657886799	 0.7819353123	 0.124687
H	-1.4924818945	-1.56409414	-0.2691008809	 0.109261
H	-2.3449431152	-0.0150684392	-0.1068935768	 0.109723
H	-0.6445672219	-0.6791909262	-2.2438029373	 0.293718
H	 1.8655592221	 0.9682799711	 1.7866017518	 0.131014
H	 0.9799846959	 0.1439439581	 3.0908497078	 0.134164
H	 2.3708676158	-0.6407855593	 2.3294401355	 0.1407
H	-0.5027570638	-4.0032702439	 2.3135291298	 0.199857
77.0691	121.1403	142.0551	148.8702	169.4389	209.5992	283.1067	298.3034	350.3614	383.5566	408.1075	438.9851	499.13	569.9162	613.1378	632.4987	663.0763	688.2137	728.3867	874.2869	889.5175	933.4138	999.8872	1056.0035	1074.6227	1097.9691	1128.5935	1186.8104	1226.5119	1263.9843	1370.7053	1398.0202	1411.4859	1423.7706	1432.8935	1471.4653	1485.8797	1491.2771	1499.3402	1512.9619	2232.3524	3036.8271	3046.0923	3053.0395	3087.043	3112.8803	3116.8712	3145.9735	3159.7685	3500.6047	3794.2959
CC1(CO)OC1(C)C#C	C[C@@]1(CO)O[C@]1(C)C#C	
InChI=1S/C7H10O2/c1-4-6(2)7(3,5-8)9-6/h1,8H,5H2,2-3H3	InChI=1S/C7H10O2/c1-4-6(2)7(3,5-8)9-6/h1,8H,5H2,2-3H3/t6-,7+/m1/s1
