15
gdb 19944	4.16382	1.49072	1.16212	0.8089	62.36	-0.269	0.0179	0.2869	985.8028	0.119042	-399.766918	-399.759686	-399.758742	-399.799268	25.926	
N	 0.1560389439	 1.2391267345	-0.1543980826	-0.53813
C	 0.0869262302	 0.0038335773	 0.0402570771	 0.423443
O	 1.0584217148	-0.9158368756	 0.3746845512	-0.252241
C	 0.0776741916	-1.9999968306	 0.425832974	-0.100594
C	-1.0441628065	-1.0145322359	 0.0231384691	-0.157884
C	-2.1667170416	-0.7842758601	 0.9969693223	 0.089733
C	-3.45461928	-0.2304566086	 0.5687843719	-0.176222
O	-3.3125237772	-1.6256504515	 0.8490870845	-0.239354
H	 1.1113741128	 1.5832105648	-0.0423204081	 0.23128
H	 0.3199170762	-2.7836479012	-0.2946370581	 0.128061
H	 0.0072802989	-2.4154183049	 1.4343566617	 0.127217
H	-1.4492254571	-1.1907474073	-0.9758760584	 0.115667
H	-1.858981748	-0.6239764714	 2.0315515703	 0.101968
H	-4.0596656575	 0.3315230044	 1.2777059816	 0.12397
H	-3.6058456006	 0.0248442062	-0.4786895564	 0.123086
61.4853	112.2637	149.77	267.183	329.2928	403.6951	510.9092	620.147	737.7322	819.3368	862.3412	871.3756	924.9887	950.9384	962.1079	966.6338	1013.7691	1073.4973	1103.3164	1150.35	1155.5784	1166.9592	1193.6862	1206.5159	1234.6503	1285.8552	1297.766	1364.3908	1452.3125	1514.5147	1530.6625	1824.311	3065.3462	3088.7858	3092.4144	3103.4174	3128.2925	3180.176	3476.8037
N=C1OCC1C1CO1	[NH][C]1OC[C@H]1[C@H]1CO1	
InChI=1S/C5H7NO2/c6-5-3(1-8-5)4-2-7-4/h3-4,6H,1-2H2	InChI=1S/C5H7NO2/c6-5-3(1-8-5)4-2-7-4/h3-4,6H,1-2H2/t3-,4+/m0/s1
