21
gdb 97765	4.52085	0.61758	0.6037	1.645	89.96	-0.2406	0.0334	0.274	1983.8759	0.180659	-387.056465	-387.046171	-387.045227	-387.09462	36.263	
C	 0.3326679608	 1.1225426655	-0.5350057848	-0.36444
C	-0.4301437779	 0.1686821394	 0.4022905665	-0.316014
C	 0.3533615777	-0.2516564514	 1.5586618991	 0.091228
C	 1.0224134072	-0.5904736839	 2.5022555471	 0.063688
C	 1.8152362507	-0.9944560109	 3.6487813929	-0.032979
C	 1.0728995703	-1.4046080292	 4.9486756829	-0.310484
C	 1.867630445	-2.7216806807	 4.8242125987	 0.176723
C	 1.1020924024	-4.0268834068	 4.7602935331	-0.396967
O	 2.3904921873	-2.3238911173	 3.530512156	-0.302416
H	 1.2386563295	 0.6462059359	-0.9189344251	 0.131471
H	-0.2957530725	 1.4058866557	-1.3846364755	 0.11404
H	 0.6286186719	 2.0325906974	-0.0061702775	 0.127548
H	-1.3535562893	 0.6519363838	 0.7471932272	 0.129171
H	-0.7490743111	-0.7200477777	-0.1574071411	 0.132832
H	 2.6085432002	-0.2556747408	 3.8305058851	 0.095553
H	 1.2689094302	-0.7868962543	 5.8257756061	 0.109374
H	-0.0031788543	-1.5228554669	 4.8125639324	 0.11592
H	 2.6857412473	-2.7974144231	 5.5550755506	 0.071239
H	 0.2769351829	-3.9548855994	 4.0453591855	 0.123524
H	 1.7613550469	-4.8413039226	 4.4435915978	 0.127325
H	 0.694481085	-4.2804800128	 5.745373833	 0.113667
9.5988	36.429	93.5433	116.1604	193.6539	218.8076	233.8145	324.4147	342.172	423.6044	464.334	482.4757	532.3539	668.5584	753.0074	783.2619	862.7414	898.1516	918.8735	934.4723	980.3966	993.9491	1078.8767	1089.315	1098.072	1103.1608	1125.1671	1187.7092	1199.1211	1249.5838	1262.06	1285.9012	1318.1569	1349.2936	1362.3941	1394.0847	1408.8606	1411.9309	1471.5843	1481.3993	1489.0892	1494.6626	1496.3259	1505.1946	2359.3577	2991.9898	2997.3869	3018.9109	3031.9612	3044.1448	3046.2543	3081.7953	3103.6511	3114.1911	3117.3499	3124.3872	3142.0048
CCC#CC1CC(C)O1	CCC#C[C@H]1C[C@@H](C)O1	
InChI=1S/C8H12O/c1-3-4-5-8-6-7(2)9-8/h7-8H,3,6H2,1-2H3	InChI=1S/C8H12O/c1-3-4-5-8-6-7(2)9-8/h7-8H,3,6H2,1-2H3/t7-,8+/m1/s1
