16
gdb 51824	4.80256	0.93582	0.81568	2.8473	67.62	-0.2685	-0.0096	0.2589	1337.692	0.124846	-475.058161	-475.050118	-475.049173	-475.091798	28.593	
O	-0.0160238853	 0.0056873343	 0.0051501283	-0.25917
C	 0.0132168876	 1.1881866378	 0.139075906	 0.176078
O	 1.1236514581	 1.9212380388	-0.1342034246	-0.181773
C	 1.0125465143	 3.3195530078	-0.009383306	 0.222824
C	 2.3941671766	 3.9230118805	 0.1466739366	-0.269636
C	 2.2839478893	 5.4488764976	 0.0410642604	-0.169114
N	 1.4744505069	 5.8864818583	-1.0917743989	-0.251864
C	 0.6585073573	 5.0640507383	-1.588571529	 0.135034
O	 0.3712260026	 3.7876834851	-1.1933331029	-0.238141
H	-0.8287969143	 1.8052820461	 0.5040906362	 0.093417
H	 0.3617126098	 3.5673363062	 0.8419690646	 0.098445
H	 2.8277632263	 3.6075756722	 1.0994505411	 0.122081
H	 3.0243857366	 3.529528072	-0.6572277913	 0.138009
H	 1.8564136913	 5.8761793603	 0.958168356	 0.119971
H	 3.2804472546	 5.888980559	-0.0613590598	 0.126558
H	 0.0494452582	 5.3187198456	-2.4526102365	 0.13728
62.1493	86.1084	141.2604	185.5027	264.5699	353.5014	440.4789	461.2301	534.5117	563.1802	692.7501	800.9058	866.4943	894.044	947.3238	964.5173	1019.6801	1038.8322	1074.2457	1097.8263	1119.0157	1145.3004	1184.9613	1238.2302	1258.2098	1338.4243	1362.2781	1386.5394	1404.0128	1411.3048	1446.2513	1481.4836	1494.0363	1742.7075	1882.3265	2967.6067	3001.7793	3022.6336	3059.6133	3077.8165	3112.7334	3174.8219
O=COC1CCN=CO1	O=CO[C@H]1CCN=CO1	
InChI=1S/C5H7NO3/c7-4-9-5-1-2-6-3-8-5/h3-5H,1-2H2	InChI=1S/C5H7NO3/c7-4-9-5-1-2-6-3-8-5/h3-5H,1-2H2/t5-/m0/s1
