17
gdb 112350	2.24565	1.5181	0.95451	4.5536	72.54	-0.267	-0.0441	0.2229	1217.6608	0.134711	-459.013722	-459.004856	-459.003911	-459.04763	31.596	
C	 0.0728433453	 1.3376540033	 0.0500313196	-0.242879
O	-0.0054378601	-0.0792414504	-0.0405829	-0.233091
C	 0.6614608614	-0.6115993086	-1.1333989497	 0.126366
O	 2.077006713	-0.4429402471	-1.033745236	-0.247459
C	 2.6908544452	-1.6781889589	-1.0095312537	 0.446741
O	 3.8780706095	-1.8023787742	-0.9287402308	-0.341068
C	 1.6283132283	-2.7049021242	-1.1112961565	-0.377279
C	 0.4374316651	-2.1101728967	-1.1782130881	 0.316821
C	-0.9352253046	-2.6795638345	-1.2505667955	-0.498362
H	 1.1047002996	 1.6678976277	 0.2089878133	 0.143228
H	-0.3203308508	 1.8133760501	-0.8601434335	 0.112657
H	-0.5412067968	 1.6314382305	 0.9029827131	 0.135562
H	 0.3472813042	-0.1056543321	-2.0623501615	 0.086727
H	 1.8538642686	-3.7615382209	-1.1087815323	 0.132964
H	-0.9212758638	-3.7711921304	-1.2356088953	 0.138426
H	-1.5327615406	-2.3166402384	-0.4072534877	 0.160298
H	-1.4467875036	-2.3510154153	-2.1636325953	 0.140348
93.9181	128.037	144.8203	169.7324	187.6626	213.7864	267.0356	388.9363	448.6981	550.083	569.5581	592.9287	735.4187	747.4389	873.972	901.8519	937.4503	983.5101	1009.7061	1038.6145	1065.5799	1149.4981	1158.0592	1180.2922	1185.3931	1223.7739	1310.7558	1368.1313	1390.043	1408.8039	1473.7647	1478.2887	1482.5885	1485.6319	1510.6011	1716.7232	1878.7796	2963.0384	3001.5452	3031.9228	3081.8004	3087.3151	3132.5656	3137.7885	3245.3993
COC1OC(=O)C=C1C	CO[C@H]1OC(=O)C=C1C	
InChI=1S/C6H8O3/c1-4-3-5(7)9-6(4)8-2/h3,6H,1-2H3	InChI=1S/C6H8O3/c1-4-3-5(7)9-6(4)8-2/h3,6H,1-2H3/t6-/m0/s1
