16
gdb 47014	3.95912	1.34864	1.05032	1.8905	75.07	-0.254	-0.0407	0.2133	1087.678	0.126252	-437.867352	-437.860286	-437.859341	-437.898909	27.418	
N	-0.0471198704	 1.300933142	-0.1261408734	-0.519652
C	-0.0118747409	 0.0371620749	-0.0151356628	 0.408748
O	 1.1884417294	-0.6372875266	 0.0459649766	-0.271034
C	 1.2216355685	-1.9836651245	 0.561848589	-0.121432
C	 0.1951854897	-2.7855511839	-0.2225500078	 0.070589
O	-0.4115486101	-3.956962264	 0.3886811564	-0.302586
C	-1.7496288199	-3.400300247	 0.2043375561	-0.162422
C	-1.1184825048	-2.0756888783	-0.1299874881	 0.246083
C	-1.2452984409	-0.7674701005	 0.049867406	-0.300417
H	 0.9027798897	 1.6786907328	-0.1229041725	 0.223605
H	 2.252998496	-2.3165664689	 0.4303401366	 0.12425
H	 0.9665103991	-1.9978700555	 1.6284245866	 0.120052
H	 0.5543442026	-3.0125330723	-1.2352784426	 0.101607
H	-2.280697862	-3.9018106238	-0.6155810434	 0.122324
H	-2.3561200323	-3.4480289786	 1.1150543789	 0.132763
H	-2.1662349335	-0.2456224059	 0.2771767844	 0.127522
110.8817	202.6357	218.8644	318.024	353.0872	429.7998	465.4788	532.0465	631.7953	700.9635	801.4254	811.7939	862.6799	874.8909	913.8374	958.0096	985.4607	1010.8799	1021.6994	1068.246	1092.2688	1126.4596	1133.1044	1138.9253	1232.8944	1246.9378	1282.0288	1320.3775	1342.9662	1374.8519	1403.3429	1504.6998	1506.8692	1723.5639	1771.4238	3011.351	3018.8535	3038.5773	3073.7291	3117.6235	3218.1553	3466.6413
N=C1OCC2OCC2=C1	[NH][C]1OC[C@H]2OC[C]2[CH]1	
InChI=1S/C6H7NO2/c7-6-1-4-2-8-5(4)3-9-6/h1,5,7H,2-3H2	InChI=1S/C6H7NO2/c7-6-1-4-2-8-5(4)3-9-6/h1,5,7H,2-3H2/t5-/m1/s1
