18
gdb 52130	6.018	0.67679	0.62566	3.8187	74.76	-0.2497	-0.0218	0.2279	1725.9993	0.146947	-439.115731	-439.10655	-439.105606	-439.151901	31.076	
O	-0.3699978302	 0.0599180711	-0.0234414154	-0.237575
C	-0.0866474394	 1.2292029953	-0.0410863685	 0.159405
C	 1.3144679154	 1.783935214	-0.1466832674	-0.264062
C	 1.4285207751	 2.8458236313	-1.2473422137	-0.327597
C	 2.7123932809	 3.6131168084	-1.1900466448	 0.435335
N	 3.5775069877	 3.5751248434	-0.2621157307	-0.31245
C	 4.647155501	 4.5081554229	-0.6461416947	-0.187286
C	 4.1914299353	 5.0866446293	-2.0118281354	-0.112077
O	 2.9268624392	 4.4299310478	-2.2584126749	-0.259751
H	-0.8817662189	 2.0104730676	 0.0342082238	 0.06795
H	 1.5648684631	 2.2526663693	 0.8142296796	 0.147727
H	 2.0168324426	 0.9622499371	-0.3021084688	 0.133182
H	 1.3412436207	 2.3947190163	-2.2424049379	 0.14135
H	 0.6023473725	 3.5668708735	-1.1771896565	 0.133818
H	 4.7612461533	 5.281827092	 0.1203258189	 0.119087
H	 5.6013004946	 3.9752093117	-0.7127504561	 0.120163
H	 4.0195488148	 6.1663881164	-1.9960332102	 0.121008
H	 4.8674527422	 4.8482521827	-2.8375036073	 0.121773
47.015	52.0887	70.6817	92.4097	143.4983	230.6854	294.232	367.7026	526.6483	597.7195	712.7345	758.5169	767.7967	828.1903	858.1735	924.6374	976.6216	999.1279	1013.4002	1038.3659	1093.9385	1096.6254	1123.5377	1193.0082	1198.4774	1217.219	1246.5564	1268.3201	1303.4259	1332.9809	1369.2354	1416.4135	1431.1114	1457.4366	1476.2033	1503.3737	1527.1655	1741.2945	1839.6294	2837.2613	3024.7401	3038.7431	3042.8722	3057.652	3068.8318	3070.8857	3105.3382	3119.9643
O=CCCC1=NCCO1	O=CCCC1=NCCO1	
InChI=1S/C6H9NO2/c8-4-1-2-6-7-3-5-9-6/h4H,1-3,5H2	InChI=1S/C6H9NO2/c8-4-1-2-6-7-3-5-9-6/h4H,1-3,5H2
