16
gdb 8774	3.45861	1.34604	1.19533	2.9712	62.61	-0.2621	-0.0432	0.2188	1031.902	0.126516	-420.893603	-420.884568	-420.883624	-420.927882	31.024	
C	-0.1422835846	 1.6395173529	-0.0175163966	-0.415488
C	-0.0179535977	 0.1118243241	-0.0327874556	-0.118804
C	-1.375257512	-0.5664164362	 0.13962646	 0.164821
O	-1.6597417146	-1.6494428304	-0.2974587569	-0.239865
C	 0.696567704	-0.4348350133	-1.2904746604	 0.057078
O	 0.177924294	 0.1321518146	-2.4618295654	-0.434744
C	 2.1873562257	-0.2005198519	-1.2039099904	 0.131685
O	 2.7899136694	 0.4049192759	-2.0574196243	-0.263578
H	 0.8412157428	 2.1170341735	 0.0127149666	 0.130271
H	-0.6575032838	 1.9857098461	-0.9158636191	 0.153102
H	-0.7024425861	 1.9744414123	 0.8609515928	 0.122136
H	 0.5567593116	-0.2098666517	 0.8524342875	 0.109187
H	-2.1038113376	 0.0176582931	 0.7469622248	 0.086947
H	 0.5369200671	-1.5272964873	-1.2900467706	 0.121985
H	 0.9373212624	 0.5268651533	-2.9193835558	 0.296558
H	 2.6995241295	-0.6203913749	-0.3131480167	 0.098709
61.7608	84.7774	102.2817	188.2902	204.9811	252.2354	278.1875	319.0564	410.1767	449.2648	570.9115	628.0629	717.5469	813.9798	901.2037	915.4907	935.4964	998.0023	1022.7974	1119.6824	1148.3162	1181.4813	1243.9919	1291.203	1309.9741	1351.0848	1398.7295	1410.1476	1420.6486	1437.8679	1491.53	1507.6912	1810.3597	1834.1694	2874.2796	2919.9719	2967.7772	2976.3177	3046.7547	3111.4007	3137.1406	3689.0445
CC(C=O)C(O)C=O	C[C@@H](C=O)[C@@H](O)C=O	
InChI=1S/C5H8O3/c1-4(2-6)5(8)3-7/h2-5,8H,1H3	InChI=1S/C5H8O3/c1-4(2-6)5(8)3-7/h2-5,8H,1H3/t4-,5-/m0/s1
