19
gdb 18523	5.44239	1.14342	1.07118	1.9981	72.59	-0.2271	0.0805	0.3076	1173.6776	0.16531	-365.005289	-364.997196	-364.996252	-365.038294	29.924	
C	-0.0640626481	 1.494954978	-0.0396896696	-0.384076
C	-0.1215503507	 0.0001206756	 0.2257944108	-0.034883
O	-1.3358594574	-0.5015119288	-0.2996646513	-0.249829
C	-1.4870727743	-1.8798065577	-0.1453250237	 0.18159
C	-1.8458244576	-2.4885617397	 1.2707930238	-0.267951
C	-3.0783642278	-3.1142978966	 0.6116946766	-0.045717
N	-3.8969748622	-1.971518444	 0.1496806951	-0.319414
C	-2.7817830334	-2.4625237512	-0.6974833986	-0.100708
H	 0.8640509311	 1.9185450111	 0.3559002197	 0.111193
H	-0.1086767358	 1.6947467511	-1.1140518614	 0.124982
H	-0.9089908222	 1.9996575812	 0.4369558219	 0.13054
H	 0.7355091643	-0.5111075863	-0.2462749613	 0.081148
H	-0.0597222055	-0.2015156916	 1.3075139233	 0.089791
H	-0.6202428206	-2.4159762833	-0.5637819039	 0.063738
H	-1.1024968993	-3.2030829807	 1.6294370515	 0.098405
H	-2.0799223469	-1.7582642269	 2.0484553482	 0.111926
H	-3.522268353	-4.0813827863	 0.8103779653	 0.092708
H	-4.750508368	-2.3555863094	-0.2561806088	 0.226962
H	-2.9653431325	-2.7989878445	-1.7105324077	 0.089592
72.3204	94.8201	121.5197	228.3093	255.4224	345.2994	379.9566	471.4279	578.5265	683.9785	796.4291	820.9747	829.5773	850.592	900.5128	913.9797	959.9259	994.1513	1011.2843	1042.0489	1069.7159	1097.2071	1128.1367	1147.8421	1159.5746	1174.2535	1189.6887	1217.5897	1258.1256	1296.7498	1299.7924	1335.8433	1369.2956	1388.6075	1404.3577	1442.9916	1469.6566	1483.2202	1500.0786	1529.519	2951.5847	2973.2112	2986.1311	3044.7696	3069.7533	3118.4716	3122.8733	3131.3047	3184.5794	3200.1341	3466.7285
CCOC1CC2NC12	CCO[C@H]1C[C@H]2N[C@@H]12	
InChI=1S/C6H11NO/c1-2-8-5-3-4-6(5)7-4/h4-7H,2-3H2,1H3	InChI=1S/C6H11NO/c1-2-8-5-3-4-6(5)7-4/h4-7H,2-3H2,1H3/t4-,5+,6-/m1/s1
