21
gdb 86139	2.38094	1.42383	0.99604	2.777	77.92	-0.2487	-0.0277	0.221	1240.9965	0.18194	-424.265571	-424.256234	-424.255289	-424.299468	35.704	
C	-0.1616177999	 1.5326160283	-0.1050785428	-0.411242
C	 0.0792178122	 0.0261228992	-0.0266675944	 0.014038
C	 0.8891464846	-0.5475782886	-1.2149612109	-0.252494
C	 1.2427114037	-1.9598679259	-0.7383957876	 0.062661
O	 2.2829609118	-2.6022868518	-1.4191771594	-0.445555
C	 1.5773469141	-1.7224729277	 0.7324671446	 0.371794
O	 2.4086764147	-2.369181392	 1.324573318	-0.342846
C	 0.8277175252	-0.4898009072	 1.242816139	-0.121701
C	 1.8293428398	 0.4801025213	 1.8930241182	-0.394089
H	 0.7767176738	 2.0951854731	-0.1300073169	 0.121289
H	-0.7183548986	 1.781634878	-1.0144780323	 0.117462
H	-0.7457441974	 1.8914979258	 0.7488449476	 0.116045
H	-0.9024671826	-0.4662491299	-0.0403277189	 0.080322
H	 0.3292539625	-0.5353802243	-2.1531551151	 0.108506
H	 1.8155775786	 0.0196953089	-1.3694377271	 0.110024
H	 0.3200994705	-2.5726721898	-0.7605712995	 0.08849
H	 2.8307067723	-3.0094447	-0.7308288988	 0.290334
H	 0.1156494041	-0.8049887826	 2.0147102144	 0.103014
H	 2.5550973913	 0.8614889901	 1.1676671654	 0.123495
H	 1.3163819921	 1.3346122028	 2.3412864524	 0.120179
H	 2.3858699072	-0.0439641377	 2.6738503639	 0.140277
57.6692	135.7184	219.3721	237.8507	260.8399	266.367	289.4698	301.9547	399.1965	422.2072	463.8509	496.2713	559.0417	597.2965	676.2326	774.8754	818.3342	903.0629	940.171	969.4672	996.4849	1018.5104	1053.4995	1079.1929	1095.7834	1129.2284	1170.5359	1187.1759	1194.0182	1259.3719	1270.3432	1286.8263	1318.8922	1347.8717	1373.8462	1381.5828	1402.9436	1416.2329	1419.5976	1490.3646	1494.1714	1499.52	1506.5108	1509.5356	1828.024	2913.612	3005.6718	3033.0773	3038.9763	3040.4652	3046.1603	3098.1993	3103.0562	3107.2298	3115.6806	3129.5327	3711.297
CC1CC(O)C(=O)C1C	C[C@H]1C[C@@H](O)C(=O)[C@H]1C	
InChI=1S/C7H12O2/c1-4-3-6(8)7(9)5(4)2/h4-6,8H,3H2,1-2H3	InChI=1S/C7H12O2/c1-4-3-6(8)7(9)5(4)2/h4-6,8H,3H2,1-2H3/t4-,5-,6+/m0/s1
