20
gdb 7138	6.33564	0.80143	0.72739	1.7305	73.	-0.2645	0.0214	0.286	1614.8855	0.174617	-386.192519	-386.182452	-386.181508	-386.229129	34.178	
C	-0.1494692119	 1.5809940813	 0.0123351019	-0.38621
C	-0.018104211	 0.056274372	 0.0032809479	-0.154851
C	-1.3754232176	-0.6471962347	 0.011524371	-0.30963
C	-1.2634662347	-2.1584732449	 0.0024668308	 0.443796
O	-0.2339658654	-2.7866704303	-0.0108831461	-0.356857
O	-2.4858546723	-2.7293882889	 0.0110042097	-0.247973
C	-2.5064271573	-4.1701667243	 0.0033563429	-0.04095
C	-3.9577571643	-4.6098935732	 0.0160727632	-0.390901
H	 0.8335132238	 2.0614115215	 0.0062441093	 0.115589
H	-0.7003410031	 1.9396339814	-0.8645604805	 0.113357
H	-0.6849166571	 1.9304788237	 0.9023818637	 0.113356
H	 0.5475375938	-0.2694353472	-0.8761885489	 0.112635
H	 0.5628321209	-0.2784578786	 0.8692979015	 0.112594
H	-1.9668286286	-0.359613984	 0.8901587697	 0.127386
H	-1.9821277794	-0.3503672474	-0.8535144384	 0.12741
H	-1.9771060247	-4.5281963289	-0.8855706637	 0.120515
H	-1.9586913751	-4.5378264794	 0.8770503141	 0.12056
H	-4.0146455197	-5.7025331052	 0.0106424059	 0.122474
H	-4.4698953158	-4.2426942792	 0.9099619533	 0.128848
H	-4.4884066006	-4.2329196735	-0.8628244773	 0.128851
29.575	52.8356	79.8113	112.5851	153.2436	238.502	242.4035	260.6679	320.2892	371.0076	443.37	585.6241	717.1547	748.7283	805.9367	876.9694	885.3343	905.3324	960.1358	1050.3225	1056.7023	1122.2501	1125.8235	1139.4835	1183.2454	1204.819	1249.0192	1290.2353	1321.52	1328.2264	1389.6527	1405.5484	1415.2449	1424.5185	1458.7113	1486.2466	1488.8006	1496.1218	1500.3118	1509.2286	1520.5316	1815.15	3028.2026	3031.4494	3045.6383	3049.0268	3050.3784	3057.2999	3077.8165	3086.1562	3101.4038	3104.839	3119.6536	3124.9865
CCCC(=O)OCC	CCCC(=O)OCC	
InChI=1S/C6H12O2/c1-3-5-6(7)8-4-2/h3-5H2,1-2H3	InChI=1S/C6H12O2/c1-3-5-6(7)8-4-2/h3-5H2,1-2H3
