19
gdb 63787	3.41768	1.28364	1.22636	4.1157	77.49	-0.2327	0.0207	0.2533	1110.2704	0.15857	-419.183046	-419.174467	-419.173523	-419.215819	33.351	
C	-0.583162973	 1.5317196813	 0.0920782823	-0.437284
C	-0.0872421893	 0.0970031458	 0.07212407	 0.396066
C	-1.1677708829	-0.8948009018	-0.3397505073	-0.422541
O	 1.0761283466	-0.0529334854	-0.80793148	-0.334244
C	 1.8790044798	-0.6186717812	 0.2437612624	 0.027985
C	 0.7464210859	-0.4145913081	 1.2871055075	-0.097344
N	 1.6221086664	 0.5387527931	 1.9669660917	-0.335588
C	 2.6497357889	 0.4600143354	 1.0137296551	 0.380114
N	 3.7582987169	 1.0275203934	 0.8107780008	-0.547556
H	 0.2092866111	 2.2192992025	 0.3969725066	 0.119527
H	-0.9119656507	 1.8244565101	-0.9100012658	 0.133864
H	-1.4327754533	 1.6428440215	 0.7745028807	 0.114921
H	-1.5127975416	-0.6767053412	-1.3547803626	 0.129714
H	-0.7828907637	-1.9189285311	-0.3254643336	 0.122214
H	-2.0258929035	-0.8380089805	 0.3389756034	 0.114526
H	 2.3693438986	-1.5537462039	-0.0262026075	 0.100141
H	 0.30486859	-1.1836745627	 1.9214158668	 0.088088
H	 1.3388961146	 1.3611309496	 2.4830528764	 0.23805
H	 3.9390416391	 1.7685833831	 1.4911214732	 0.209346
85.8588	187.637	188.7015	238.5411	245.8734	322.5438	361.3103	395.1755	427.7415	463.5316	523.2108	618.3658	701.9834	758.103	817.5435	844.4108	854.8429	906.433	932.5987	957.5338	986.9977	992.5881	1024.067	1041.5946	1075.4337	1164.8712	1171.0289	1190.3668	1215.1011	1270.7025	1289.387	1301.8298	1350.234	1353.4403	1400.3402	1413.6967	1472.2726	1482.2131	1493.4952	1504.4361	1797.1145	3032.8569	3039.4968	3104.0857	3104.6683	3109.1479	3115.6475	3122.2032	3123.4992	3451.5633	3577.7605
CC1(C)OC2C1NC2=N	CC1(C)O[C@@H]2[C@H]1N[C]2[NH]	
InChI=1S/C6H10N2O/c1-6(2)4-3(9-6)5(7)8-4/h3-4H,1-2H3,(H2,7,8)	InChI=1S/C6H10N2O/c1-6(2)4-3(9-6)5(7)8-4/h3-4H,1-2H3,(H2,7,8)/t3-,4-/m1/s1
