20
gdb 73615	2.19885	1.48349	1.17127	3.4319	80.91	-0.2389	-0.0302	0.2086	1156.5775	0.171056	-403.145854	-403.137158	-403.136214	-403.179156	32.886	
C	 0.0632550104	 1.4229488625	 0.0904477675	-0.467492
C	-0.0353098164	-0.0850130548	 0.0909112428	 0.309268
C	-0.6398401928	-0.7554680147	-1.1459617564	-0.283166
C	-1.3533645095	-2.0290506317	-0.6302336978	-0.241238
C	-1.3915591767	-1.8647099896	 0.9132189051	-0.163202
N	-0.5041072244	-0.7511557768	 1.3011703836	-0.138754
C	 0.9344524555	-0.8707469618	 0.9474127117	-0.144583
C	 1.6193008545	-2.1081614489	 0.4963262711	 0.14466
O	 2.7819954212	-2.3266411719	 0.7477423948	-0.270435
H	 0.7557258436	 1.7667575044	-0.685354469	 0.125595
H	-0.9170130975	 1.8697514692	-0.1105798273	 0.122029
H	 0.4151747476	 1.7920712661	 1.0563297982	 0.134309
H	-1.3571284851	-0.0590523147	-1.5925127422	 0.111132
H	 0.1060685707	-0.9732604015	-1.9156199461	 0.117118
H	-2.361325901	-2.1179485057	-1.0431028551	 0.108806
H	-0.8177425569	-2.934753644	-0.9246055342	 0.119041
H	-2.3952329485	-1.5832657576	 1.2470830554	 0.117348
H	-1.1182158687	-2.7782676764	 1.449120947	 0.117288
H	 1.5754150334	-0.2932834766	 1.6096639068	 0.107862
H	 1.0273614805	-2.8366903656	-0.0921725857	 0.074413
86.9583	150.0185	189.2504	194.3206	210.0377	240.7704	325.7184	419.8373	454.9384	503.2399	587.8099	688.6531	698.83	784.3191	798.0245	879.8838	896.8653	930.6898	959.238	1003.1188	1023.6635	1044.9612	1072.9855	1089.6674	1135.1068	1146.165	1198.0504	1229.199	1251.6169	1266.7152	1299.2562	1311.0563	1331.1681	1347.339	1395.7699	1415.4327	1452.845	1484.9072	1490.1785	1497.0578	1500.0551	1521.2457	1794.2887	2934.2654	3032.6228	3049.3877	3050.0976	3067.9119	3083.6001	3090.136	3095.8943	3112.1596	3126.6278	3140.7377
CC12CCCN1C2C=O	C[C@]12CCCN1[C@H]2C=O	
InChI=1S/C7H11NO/c1-7-3-2-4-8(7)6(7)5-9/h5-6H,2-4H2,1H3	InChI=1S/C7H11NO/c1-7-3-2-4-8(7)6(7)5-9/h5-6H,2-4H2,1H3/t6-,7+,8?/m0/s1
