16
gdb 76998	2.88045	1.28243	0.98772	2.6372	75.51	-0.2594	-0.0692	0.1903	1170.8743	0.124517	-400.800895	-400.79263	-400.791686	-400.834277	30.206	
C	-0.2052557434	 1.503994125	-0.0052560697	-0.409506
C	 0.0616412015	 0.0007068377	 0.0298395617	-0.115634
C	 0.8453793968	-0.5761229323	-1.1840156854	-0.208415
C	 1.8825747544	-1.498206935	-0.5564839641	-0.052655
C	 1.9154566652	-1.402905924	 0.7740887489	-0.181977
C	 0.9004967574	-0.4321474396	 1.2501273076	 0.378006
O	 0.7407126781	-0.0318249684	 2.3774093311	-0.323781
C	 0.0057579302	-1.2588952448	-2.1689926274	 0.268985
N	-0.6577054246	-1.8015997185	-2.9441708486	-0.318164
H	 0.7241088307	 2.0670743806	-0.1423107003	 0.123932
H	-0.8898011817	 1.7679161559	-0.8160600096	 0.130611
H	-0.6476607793	 1.8159386312	 0.9438817514	 0.151162
H	-0.8920401009	-0.533724318	 0.1149420296	 0.135039
H	 1.364110912	 0.2358081398	-1.7129067199	 0.144929
H	 2.5161018897	-2.1249746264	-1.1729137842	 0.143204
H	 2.589002684	-1.9192567333	 1.4455031691	 0.134264
51.3957	136.0925	176.9649	219.8994	246.7309	294.9055	385.5057	447.4373	502.1273	562.8078	602.822	688.9736	743.3895	775.1727	824.75	889.6731	979.2715	1002.6393	1017.7561	1051.12	1081.995	1117.5538	1145.1335	1176.4189	1244.1467	1261.1859	1308.6045	1332.4263	1363.3829	1408.3607	1495.5327	1498.78	1655.7305	1822.8979	2359.0363	3014.28	3040.308	3047.4765	3111.0517	3131.0712	3207.0376	3234.611
CC1C(C=CC1=O)C#N	C[C@H]1[C@@H](C=CC1=O)C#N	
InChI=1S/C7H7NO/c1-5-6(4-8)2-3-7(5)9/h2-3,5-6H,1H3	InChI=1S/C7H7NO/c1-5-6(4-8)2-3-7(5)9/h2-3,5-6H,1H3/t5-,6-/m0/s1
