15
gdb 43327	2.58984	1.81384	1.20234	5.7947	73.39	-0.2354	-0.0896	0.1459	993.9185	0.113706	-420.655225	-420.648064	-420.64712	-420.687115	27.544	
O	-0.027819468	 0.1045074169	-0.666111124	-0.300212
C	-0.0491836583	 1.2123325737	-0.1767108535	 0.270121
C	-1.2945894963	 1.9451034461	 0.1048532562	-0.171993
C	-1.3126727189	 3.1187063951	 0.7577312678	-0.051359
C	-0.1130932012	 3.7577706281	 1.3326013202	-0.09537
C	 0.6321506664	 2.9971271588	 2.408999071	-0.289551
C	 1.2379936722	 3.1361729916	 1.0232535145	-0.149392
C	 1.2881205678	 1.9553159486	 0.1162445911	 0.319036
O	 2.3041031817	 1.5956552162	-0.4256732506	-0.292595
H	-2.2079065837	 1.4710455976	-0.2403989969	 0.120779
H	-2.2614515046	 3.6206631304	 0.9328285742	 0.120837
H	-0.1453253037	 4.8369420924	 1.4355795855	 0.113497
H	 1.1097563874	 3.5577367682	 3.2040659882	 0.140008
H	 0.2264534606	 2.0352769565	 2.7014222117	 0.143612
H	 2.0986771085	 3.7898833098	 0.9390187446	 0.122583
65.3799	177.8835	269.3083	335.7977	361.6828	448.3872	480.2313	536.7461	555.8182	649.1491	737.9796	791.5374	833.2377	844.6319	862.2616	935.9531	945.9617	984.5452	1025.7171	1072.2348	1104.9454	1118.7755	1134.5252	1186.4879	1200.6873	1274.4967	1356.609	1383.6776	1422.4762	1479.1667	1670.9756	1774.2785	1809.3857	3142.3309	3155.2748	3171.8164	3182.8984	3190.7551	3237.2687
O=C1C=CC2CC2C1=O	O=C1C=C[C@H]2C[C@H]2C1=O	
InChI=1S/C7H6O2/c8-6-2-1-4-3-5(4)7(6)9/h1-2,4-5H,3H2	InChI=1S/C7H6O2/c8-6-2-1-4-3-5(4)7(6)9/h1-2,4-5H,3H2/t4-,5+/m0/s1
