19
gdb 111014	2.54802	1.42393	1.12127	2.5254	70.94	-0.2377	0.0583	0.2961	1129.8231	0.159205	-460.122027	-460.113544	-460.1126	-460.155166	32.753	
O	-0.0807616279	 1.4155198223	-0.1536506989	-0.423546
C	 0.0217298748	 0.031606457	 0.1625536434	-0.131672
C	-1.370926658	-0.5564917202	 0.0452493476	 0.0056
C	-2.0146440192	-0.6950296144	-1.3632894359	 0.100561
C	-1.1867272391	-1.9824403133	-1.5790118892	-0.323226
C	-1.4926710741	-2.1082304456	-0.0441490085	 0.335589
O	-0.7786639245	-2.8972747915	 0.850736053	-0.485983
C	-3.0284749363	-2.2364240417	-0.0990889649	-0.135367
O	-3.3311128505	-1.2043265591	-1.0574159539	-0.278036
H	 0.7716019169	 1.8257583173	 0.0197661538	 0.286999
H	 0.7383683494	-0.4713716457	-0.5013624303	 0.088587
H	 0.3805029575	-0.1186218241	 1.1921332727	 0.100549
H	-2.0252427572	-0.0737587782	 0.7774166469	 0.082778
H	-2.0824498263	 0.1211562745	-2.0768375953	 0.095021
H	-1.6096137839	-2.7302899391	-2.254391015	 0.09565
H	-0.1334980888	-1.8132587751	-1.7963555572	 0.109933
H	-0.939690129	-3.824310454	 0.6426009379	 0.284333
H	-3.3681806599	-3.2146780071	-0.4660433501	 0.087721
H	-3.506965844	-2.0286440819	 0.865083444	 0.10451
65.6351	138.4899	237.1719	248.7857	278.4818	283.8218	347.7639	395.4667	461.7081	528.854	537.0483	612.6611	666.9807	816.0146	860.0541	878.7736	908.7522	941.5023	981.5371	1010.627	1040.7395	1050.7677	1086.6152	1095.0213	1117.5818	1128.8507	1168.7821	1180.6286	1216.0536	1225.1865	1257.8919	1264.1407	1273.6599	1295.5993	1343.7137	1366.4378	1404.0047	1461.9413	1489.8311	1524.2215	1531.371	2986.1825	3005.241	3015.8015	3056.2947	3069.7125	3075.1126	3153.7461	3168.4257	3801.0387	3828.0282
OCC1C2CC1(O)CO2	OC[C@H]1[C@H]2C[C@]1(O)CO2	
InChI=1S/C6H10O3/c7-2-4-5-1-6(4,8)3-9-5/h4-5,7-8H,1-3H2	InChI=1S/C6H10O3/c7-2-4-5-1-6(4,8)3-9-5/h4-5,7-8H,1-3H2/t4-,5+,6-/m0/s1
