22
gdb 107558	2.07548	1.61547	1.22738	1.5824	87.55	-0.2226	0.0263	0.249	1171.8542	0.194446	-367.211069	-367.201917	-367.200973	-367.244514	35.353	
C	 0.8432582164	-0.3572223288	-1.2783765321	-0.379304
C	 0.0330747452	-0.09846042	-0.0007133537	-0.290786
C	-1.4229947938	-0.48425183	-0.1252070822	 0.246512
N	-2.1995814712	-0.8923298195	 1.0851266348	-0.383208
C	-1.9336116867	-1.8761093822	 0.0077631897	-0.087294
C	-3.0946111815	-2.064605147	-0.9606445054	-0.261192
C	-3.2512548378	-0.683752675	-1.5619232923	-0.17743
C	-2.3363484441	 0.1866121606	-1.1227052169	 0.318092
C	-2.2370017363	 1.6423461355	-1.4563115031	-0.509217
H	 1.8842564998	-0.0440787601	-1.1529910106	 0.112425
H	 0.8380043394	-1.4211727725	-1.5354411322	 0.118558
H	 0.4296432328	 0.1883473953	-2.1319366367	 0.125698
H	 0.4757807836	-0.6622141745	 0.8303425883	 0.090116
H	 0.1097317865	 0.9610615971	 0.2775683657	 0.102695
H	-1.5399568185	-1.075913164	 1.8414751659	 0.217276
H	-1.2678250036	-2.7054898994	 0.2250320168	 0.080072
H	-2.8645629163	-2.8247783496	-1.7194995777	 0.100068
H	-4.0057990396	-2.3929014542	-0.4453395028	 0.115145
H	-4.0648851031	-0.4328381758	-2.234900262	 0.084036
H	-2.9966953712	 1.9343568739	-2.1864144711	 0.122813
H	-2.3744170889	 2.2590483608	-0.5588051235	 0.132372
H	-1.2554564113	 1.9057088593	-1.8690653091	 0.122552
103.5556	138.1393	172.7081	189.1603	201.8741	260.4642	292.6356	373.9582	397.7658	468.1109	549.2076	611.718	641.6557	744.7202	777.2027	816.6232	841.1644	866.7371	905.9047	950.1681	968.5952	980.3075	1024.8965	1029.8181	1063.0536	1068.1353	1087.3724	1120.0415	1139.4828	1184.0478	1197.2233	1251.2035	1288.1637	1314.6905	1331.9425	1359.8663	1386.4038	1408.2451	1414.4184	1426.9021	1468.6256	1477.3808	1482.2425	1492.086	1495.9706	1506.9789	1708.0754	3014.5082	3014.9413	3018.6539	3038.3344	3047.9568	3051.4119	3064.0735	3107.4347	3108.9606	3111.1271	3156.6369	3182.7073	3455.4914
CCC12NC1CC=C2C	CC[C@]12N[C@H]1CC=C2C	
InChI=1S/C8H13N/c1-3-8-6(2)4-5-7(8)9-8/h4,7,9H,3,5H2,1-2H3	InChI=1S/C8H13N/c1-3-8-6(2)4-5-7(8)9-8/h4,7,9H,3,5H2,1-2H3/t7-,8+/m0/s1
