17
gdb 55846	4.39368	0.9019	0.78553	8.269	71.59	-0.2429	0.008	0.2509	1399.5402	0.136402	-455.180729	-455.172124	-455.17118	-455.214383	31.947	
O	-0.0319253213	 0.4324040539	-1.1737624254	-0.371167
C	 0.0588806277	 1.1829005076	-0.0659767876	 0.399215
O	 1.0821303503	 1.2634446312	 0.5611393957	-0.331112
C	-1.2075580835	 1.9626929662	 0.317892072	-0.341921
C	-2.5019178063	 1.1848970213	 0.1123021777	 0.061085
C	-3.8374296599	 1.9904741947	 0.0087595943	-0.384906
C	-3.7969354166	 1.4258016573	-1.3871253747	 0.408633
N	-4.672238488	 1.5183598457	-2.4135665922	-0.576681
H	-5.3421763637	 2.2681579438	-2.4199083119	 0.269287
H	-4.3826311045	 1.1656440786	-3.3132059361	 0.271342
N	-2.6912978996	 0.752504707	-1.3144042386	-0.320842
H	-1.0901124705	 2.2828150928	 1.3556303834	 0.130214
H	-1.230921237	 2.8656788529	-0.307627496	 0.118742
H	-2.5583207583	 0.3346410479	 0.8008671447	 0.096438
H	-4.6620097465	 1.6527657696	 0.6418267787	 0.131927
H	-3.740471531	 3.0773283214	 0.0856231007	 0.126138
H	-0.9537217413	 0.444725478	-1.5254578748	 0.313608
74.7682	99.0512	148.5312	193.51	306.7083	335.9113	364.919	419.1206	434.2942	498.2473	570.6209	599.6639	683.9723	711.764	839.677	848.6693	878.2194	891.2542	951.9958	974.9548	1040.8035	1077.5621	1121.3119	1136.4488	1196.5881	1227.1983	1246.3154	1279.7427	1301.4392	1368.8754	1439.4218	1459.8496	1462.4148	1477.2485	1620.6494	1706.9052	1856.7031	3023.3451	3049.5795	3060.5811	3112.2335	3116.9193	3356.1775	3592.0684	3717.4405
[O-]C(=O)CC1CC(=[NH2+])N1	OC(=O)C[C@H]1C[C](N)[N]1	
InChI=1S/C5H8N2O2/c6-4-1-3(7-4)2-5(8)9/h3H,1-2H2,(H2,6,7)(H,8,9)	InChI=1S/C5H8N2O2/c6-4-1-3(7-4)2-5(8)9/h3H,1-2H2,(H2,6,7)(H,8,9)/t3-/m1/s1
