12
gdb 25347	3.3173	1.30105	0.93453	2.7871	65.21	-0.2818	-0.1152	0.1667	1121.0558	0.077623	-472.686216	-472.679092	-472.678148	-472.718343	25.475	
O	-0.8475057209	 1.1511153595	 0.2627654097	-0.23465
C	 0.2757666777	 0.833743122	-0.0337669917	 0.113618
C	 1.4265723787	 1.7947475349	-0.0593829642	 0.215654
C	 1.2575892919	 3.1018490188	 0.2575897011	-0.295207
C	 2.3843732804	 4.0087160495	 0.225151359	 0.456215
O	 2.426524943	 5.1765251836	 0.4688720916	-0.311122
O	 3.6001504612	 3.3672774885	-0.1602907908	-0.200058
C	 3.6304872357	 2.0643418787	-0.448243175	 0.149618
N	 2.6432809424	 1.2471933574	-0.4246621759	-0.32859
H	 0.5575259	-0.2006959594	-0.3147744502	 0.10952
H	 0.2890359898	 3.4942127776	 0.5389216453	 0.162919
H	 4.6292975702	 1.7360043888	-0.721904799	 0.162083
109.4525	150.6668	192.6142	193.6093	409.9632	413.9276	498.0102	556.8519	626.8762	656.0712	729.1571	762.778	876.8763	916.3952	969.6921	977.8686	1051.1411	1074.7529	1182.5681	1233.2486	1328.0295	1402.1851	1435.6241	1602.942	1654.9652	1819.3748	1876.07	2947.2465	3190.8043	3232.7121
O=CC1=CC(=O)OC=N1	O=Cc1cc(=O)ocn1	
InChI=1S/C5H3NO3/c7-2-4-1-5(8)9-3-6-4/h1-3H	InChI=1S/C5H3NO3/c7-2-4-1-5(8)9-3-6-4/h1-3H
