14
gdb 21575	5.48076	1.31172	1.0898	2.6936	61.18	-0.2142	0.0135	0.2277	1030.8763	0.107472	-415.846631	-415.838945	-415.838001	-415.878909	27.837	
N	 0.1115897863	 1.3661060686	 0.1723168073	-0.594258
C	-0.068962125	 0.0107860212	 0.0340217536	 0.486246
C	-1.1350788544	-0.8214846281	 0.2316140523	-0.421228
C	-0.5881504903	-2.1052324106	-0.0275452726	 0.420567
C	-1.2827260416	-3.4278299553	 0.0705891273	-0.189324
O	-2.5844899416	-3.2870296297	-0.4806671214	-0.417438
N	 0.6806406792	-2.0628642071	-0.3568116761	-0.231002
O	 1.0188827325	-0.6919701661	-0.309125189	-0.215621
H	 0.8920981071	 1.732887495	-0.3541084516	 0.266763
H	-0.726835575	 1.9156090256	 0.0599520216	 0.265714
H	-2.1460231313	-0.5712375724	 0.5004288477	 0.114112
H	-0.6825643644	-4.1816003759	-0.4571330025	 0.117445
H	-1.3349059537	-3.725889002	 1.1302176212	 0.106078
H	-3.0526406678	-4.1158568632	-0.3433562278	 0.291947
64.3465	145.75	217.4449	257.9601	271.5433	340.2686	406.2671	467.652	578.8554	616.726	689.6728	720.1359	754.4636	783.2889	912.8797	1007.241	1026.6007	1032.3557	1079.8667	1089.9624	1176.2523	1242.2391	1245.557	1372.2299	1440.6611	1504.425	1511.0993	1550.3639	1625.447	1672.5203	2972.4171	3028.4523	3291.5384	3571.0056	3676.201	3831.1802
NC1=CC(CO)=NO1	Nc1cc(CO)no1	
InChI=1S/C4H6N2O2/c5-4-1-3(2-7)6-8-4/h1,7H,2,5H2	InChI=1S/C4H6N2O2/c5-4-1-3(2-7)6-8-4/h1,7H,2,5H2
