20
gdb 61492	2.40655	0.87398	0.82244	5.034	80.15	-0.2561	-0.0298	0.2262	1524.3846	0.16802	-403.182017	-403.171322	-403.170378	-403.219267	36.934	
C	-0.184497542	 1.6398288773	 0.1194219227	-0.418145
C	-0.0747840795	 0.1071440084	 0.0532387363	-0.075719
C	 0.845459251	-0.4869316109	 1.1416453239	-0.199938
C	 2.3068625181	 0.0189508208	 1.1271209977	-0.148586
C	 3.1441872556	-0.6485184882	 2.2358616647	-0.39657
C	 2.9270164739	-0.1994030038	-0.184947536	 0.283581
N	 3.4143898396	-0.3758584208	-1.2181844813	-0.328089
C	-1.4553600237	-0.501454974	 0.232694722	 0.159178
O	-1.9708835627	-1.2883064341	-0.5159284449	-0.240769
H	 0.779236516	 2.1163165361	-0.077891235	 0.136379
H	-0.8892931838	 2.011542856	-0.6301753026	 0.13713
H	-0.5332697707	 1.9723648095	 1.1041320523	 0.120521
H	 0.2866156904	-0.2029210597	-0.9322768579	 0.123362
H	 0.4358128552	-0.2628201854	 2.1350148339	 0.107838
H	 0.8567771485	-1.578267939	 1.0418719444	 0.129649
H	 2.3084833119	 1.101615306	 1.2999357086	 0.131086
H	 4.1691546222	-0.2703924397	 2.235241834	 0.140955
H	 2.6976586364	-0.4392068235	 3.212008443	 0.127472
H	 3.1789135493	-1.7325864702	 2.096869898	 0.142049
H	-1.9827805756	-0.1571205147	 1.1560730663	 0.068615
36.0292	42.4438	83.4798	134.5962	201.7275	212.3726	221.0872	267.2011	294.4641	320.4051	363.8334	387.7002	552.4104	561.969	603.2655	775.5943	845.937	903.1557	905.39	944.1227	992.0496	1016.0872	1055.9046	1119.4064	1138.9982	1146.9574	1167.5253	1239.5243	1278.4947	1313.2557	1350.4841	1369.01	1377.757	1406.5747	1415.3281	1428.2689	1480.6587	1492.4089	1494.4963	1500.7235	1506.1204	1840.3113	2355.369	2832.6112	3024.3646	3033.7852	3043.137	3048.6559	3067.7431	3080.1495	3105.1153	3118.0536	3124.5567	3130.9987
CC(CC(C)C#N)C=O	C[C@@H](C[C@@H](C)C#N)C=O	
InChI=1S/C7H11NO/c1-6(4-8)3-7(2)5-9/h5-7H,3H2,1-2H3	InChI=1S/C7H11NO/c1-6(4-8)3-7(2)5-9/h5-7H,3H2,1-2H3/t6-,7+/m1/s1
