20
gdb 113450	4.80378	0.77908	0.74028	1.6947	75.89	-0.2444	0.0668	0.3112	1548.2927	0.170383	-440.235816	-440.226553	-440.225609	-440.270391	34.858	
O	-0.0381509113	 1.2198707325	-1.2258544342	-0.420919
C	-0.0109484357	 0.3950044284	-0.0740655192	-0.06023
C	-1.3415304867	-0.2868021962	 0.1429415936	-0.125169
N	-1.6622744356	-1.3056408125	-0.8901523322	-0.390038
C	-1.4617266743	-1.7128383482	 0.5054432873	 0.345428
C	-0.4094297439	-2.7617860248	 0.8884100244	-0.328454
C	-1.5816799409	-3.6619570823	 1.3831713209	 0.16825
O	-1.4403799176	-4.4090461552	 2.56101286	-0.431074
C	-2.5195568804	-2.4156171888	 1.365793228	-0.35718
H	-0.3266937479	 0.6475673293	-1.9472675924	 0.289615
H	 0.7814659762	-0.3655381826	-0.1452512986	 0.08956
H	 0.2282345631	 1.0491048298	 0.7713640179	 0.105184
H	-2.1527292104	 0.3727453112	 0.448691008	 0.08744
H	-2.6563169015	-1.2800093983	-1.1062296161	 0.23024
H	 0.2277394407	-3.1450139036	 0.0895946253	 0.116893
H	 0.2181202174	-2.4330669852	 1.7254433612	 0.095114
H	-1.8742493127	-4.3796793293	 0.6123768883	 0.102718
H	-1.1523816534	-3.8144103212	 3.2620836311	 0.277358
H	-2.6053669122	-1.967874623	 2.3631213698	 0.100023
H	-3.5235930228	-2.5373293299	 0.9490867269	 0.105242
52.7233	75.8156	133.5706	197.9101	275.9756	306.673	343.3106	355.3781	445.3741	447.6896	463.4892	481.2557	615.3141	718.3911	807.8526	818.7911	876.4264	924.7849	948.8534	976.2866	1005.9871	1008.4711	1050.1468	1065.4983	1081.0958	1088.5806	1132.3469	1173.3279	1182.0238	1208.0627	1241.3735	1257.5117	1266.2904	1290.1092	1332.953	1340.6849	1381.1143	1427.7316	1435.6444	1458.4207	1473.0063	1497.1196	1500.1804	2990.3597	3032.3532	3039.7189	3071.1856	3078.1312	3097.1238	3118.7619	3121.1762	3488.9417	3785.9212	3802.2189
OCC1NC11CC(O)C1	OC[C@H]1N[C@]21C[C@@H](O)C2	
InChI=1S/C6H11NO2/c8-3-5-6(7-5)1-4(9)2-6/h4-5,7-9H,1-3H2	InChI=1S/C6H11NO2/c8-3-5-6(7-5)1-4(9)2-6/h4-5,7-9H,1-3H2/t4-,5-,6-/m1/s1
