19
gdb 67371	2.24212	1.94097	1.90253	1.8956	78.48	-0.2316	0.0025	0.2341	916.1699	0.160969	-385.870831	-385.863721	-385.862777	-385.901837	29.35	
C	-0.0117253267	 1.5292701922	 0.0402425143	-0.52687
C	 0.0110901541	 0.0242619856	 0.0092226974	 0.307461
C	 0.6949709198	-0.88357081	-1.0456110384	 0.070887
C	 1.5424108863	-1.5548484132	 0.0614464515	-0.245402
C	 0.6855515776	-0.8045160545	 1.1568721286	-0.13271
C	-0.4405663373	-1.6162773858	 1.7415200607	-0.078426
C	-1.5196152291	-1.6169092634	 0.9540515171	-0.078228
C	-1.2605771546	-0.8102881603	-0.2916991602	 0.02941
O	-0.542420929	-1.5696643546	-1.3280355901	-0.32299
H	 0.9980096807	 1.9401703121	 0.1504103794	 0.118757
H	-0.4415252421	 1.9400352538	-0.8799983672	 0.123364
H	-0.611255956	 1.8938538491	 0.8828284546	 0.123982
H	 1.1922757248	-0.5402518592	-1.9568374608	 0.070703
H	 1.5247439355	-2.6458817088	 0.0853804501	 0.107355
H	 2.5793027029	-1.2055037362	 0.0434887583	 0.097955
H	 1.2761394753	-0.2554030612	 1.8940539073	 0.068722
H	-0.3416322966	-2.1741107845	 2.6671246368	 0.098397
H	-2.4359588627	-2.1674477059	 1.1311601111	 0.097994
H	-2.1334644831	-0.3143321252	-0.7282552108	 0.069639
198.0926	207.988	223.1589	287.888	363.0626	388.8801	525.6237	590.2576	667.8805	676.3358	770.0923	791.6735	804.5292	862.7973	875.6465	900.8678	924.3453	948.2265	972.6275	975.7384	1000.3093	1015.7341	1062.8864	1110.8216	1135.8669	1165.476	1170.3082	1181.0415	1202.9304	1227.611	1264.8672	1293.4013	1302.9747	1334.069	1366.4855	1378.7974	1411.5398	1462.2404	1491.0978	1492.5859	1660.7989	3021.5024	3052.2837	3053.8618	3070.3132	3078.5623	3086.27	3091.9919	3124.1901	3179.9144	3210.7445
CC12C3CC1C=CC2O3	C[C@@]12[C@H]3C[C@@H]1C=C[C@@H]2O3	
InChI=1S/C8H10O/c1-8-5-2-3-6(8)9-7(8)4-5/h2-3,5-7H,4H2,1H3	InChI=1S/C8H10O/c1-8-5-2-3-6(8)9-7(8)4-5/h2-3,5-7H,4H2,1H3/t5-,6-,7+,8+/m0/s1
