19
gdb 84665	2.39405	1.72927	1.42794	1.5571	81.96	-0.2313	-0.004	0.2273	1017.5123	0.160796	-385.875148	-385.867319	-385.866375	-385.907075	31.084	
C	-0.011150368	 1.6395331541	-0.0159464315	-0.390639
C	 0.0260846662	 0.0919363184	-0.0038930776	-0.08168
C	 0.5495547896	-0.4923571599	-1.3012804628	-0.099829
C	 1.8145506248	-0.6861846517	-1.6848440153	-0.037084
C	 3.0497087211	-0.3425972694	-0.947439347	-0.003225
O	 3.0999009883	 0.8879528549	-0.2148590979	-0.2422
C	 3.1482399698	-0.3286451848	 0.5407917763	-0.003228
C	 2.021491303	-0.656860491	 1.4408720067	-0.037082
C	 0.7167334175	-0.468661362	 1.2238588394	-0.099829
H	 1.0022488111	 2.0354245267	-0.0867374163	 0.153267
H	-0.5953009455	 1.9999049028	-0.8695129741	 0.107416
H	-0.4781933112	 2.0165130496	 0.9002550203	 0.107416
H	-1.017466131	-0.2381701251	 0.0682979824	 0.078905
H	-0.2235373227	-0.7940250407	-2.0051423752	 0.095136
H	 1.9873492592	-1.1469370046	-2.6544781285	 0.086674
H	 3.9722253793	-0.5540962822	-1.4885825862	 0.092086
H	 4.1343024745	-0.5311440972	 0.9594545731	 0.092087
H	 2.3211682394	-1.0996263831	 2.3877059318	 0.086674
H	 0.0435484746	-0.7561709748	 2.0290028923	 0.095136
120.441	191.7514	227.3491	243.2417	291.3762	328.8322	383.2255	511.4064	592.2645	595.1803	712.0312	718.053	736.7301	792.1543	793.926	868.1278	876.4842	917.7708	949.1852	993.8443	997.7908	1015.9256	1016.9124	1092.1642	1107.3343	1135.2384	1165.9302	1246.0186	1275.3155	1306.2551	1330.8668	1387.9647	1392.4018	1395.3836	1435.2246	1440.1903	1451.1131	1488.2473	1509.7093	1716.7256	1720.5145	3019.4959	3033.3447	3096.857	3098.0067	3108.916	3135.56	3137.5786	3155.9077	3161.1571	3163.7168
CC1C=CC2OC2C=C1	C[C@H]1C=C[C@H]2O[C@H]2C=C1	
InChI=1S/C8H10O/c1-6-2-4-7-8(9-7)5-3-6/h2-8H,1H3	InChI=1S/C8H10O/c1-6-2-4-7-8(9-7)5-3-6/h2-8H,1H3/t6-,7+,8-
