20
gdb 73412	2.57682	2.30475	1.59514	1.5987	80.29	-0.2192	0.0817	0.3008	913.0986	0.173466	-365.962607	-365.955687	-365.954743	-365.993388	29.335	
C	-0.020108029	 1.4460257535	 0.0294122695	-0.472306
C	 0.0289510411	-0.0665490722	-0.0224855902	 0.361167
C	 0.3926409629	-0.6749844529	-1.3829571415	-0.271053
C	-0.2746737138	-2.0793041732	-1.3574625921	-0.231705
C	-0.9097193662	-2.1335223639	 0.0290643981	 0.015041
C	 0.0349592813	-2.1455495653	 1.2263788869	-0.103405
C	-0.6789000545	-0.9569953704	 1.7935901724	-0.041907
C	 0.6748908111	-0.7409120126	 1.1923841766	-0.124706
N	-1.2993514994	-0.7086136055	 0.4124246156	-0.216309
H	 0.9636388505	 1.8751075629	-0.1926080267	 0.109474
H	-0.7358722337	 1.829194431	-0.7046531642	 0.120451
H	-0.3252214091	 1.7955575315	 1.0204511905	 0.118236
H	-0.0027138677	-0.0630657779	-2.1998635248	 0.100523
H	 1.4784282586	-0.72246851	-1.5098424481	 0.099727
H	-1.0364627061	-2.1677902868	-2.1377460045	 0.104617
H	 0.4383081896	-2.8961723257	-1.5023607515	 0.100501
H	-1.7585217472	-2.8136185153	 0.1280197938	 0.0707
H	 0.5041578105	-2.9737438426	 1.7437065515	 0.084264
H	-1.1313274972	-0.7321013951	 2.7483253923	 0.095289
H	 1.6171115284	-0.5315251195	 1.6853456765	 0.0814
156.4332	229.9589	282.9531	303.4907	371.3836	469.0961	584.2497	667.7556	688.2278	751.8393	776.5843	808.4028	825.8006	828.8795	882.9598	891.0116	894.6818	935.9276	950.246	984.5699	1011.3952	1023.1475	1034.971	1040.839	1054.1908	1072.7518	1120.7169	1164.5049	1170.4971	1190.0308	1224.1044	1254.1773	1270.2733	1274.9396	1323.7231	1341.6359	1361.2566	1367.3556	1410.5412	1477.0464	1487.5944	1491.7598	1499.4452	3029.9011	3044.6911	3055.7833	3080.143	3087.2576	3097.1056	3102.2206	3109.5742	3176.5626	3185.4561	3222.5699
CC12CCC3C4C(C14)N23	C[C@@]12CC[C@H]3[C@@H]4[C@@H]([C@H]14)N23	
InChI=1S/C8H11N/c1-8-3-2-4-5-6(8)7(5)9(4)8/h4-7H,2-3H2,1H3	InChI=1S/C8H11N/c1-8-3-2-4-5-6(8)7(5)9(4)8/h4-7H,2-3H2,1H3/t4-,5-,6+,7-,8+/m0/s1
