16
gdb 49798	2.74306	1.59717	1.02373	1.9262	77.3	-0.2203	-0.0069	0.2134	1109.6908	0.126458	-434.088554	-434.080701	-434.079757	-434.12146	29.132	
N	 0.9067531548	 0.0046516226	 0.3297717627	-0.472516
C	-0.2565493141	 0.4027063116	 0.0107130185	 0.098769
N	-1.3478431124	-0.4730945526	 0.0395600224	-0.170538
C	-1.1506516249	-1.8231213416	 0.3658266845	 0.044948
C	-2.1769101336	-2.6427886761	 0.5660819207	-0.170496
C	-3.5622779065	-2.0969849922	 0.4658794418	-0.138728
O	-3.6133056123	-0.9151857717	-0.3575399603	-0.265779
C	-2.6144600797	-0.0040519424	-0.3483302269	 0.483694
N	-2.7808393805	 1.1936024405	-0.7298074935	-0.565052
H	 1.5714700935	 0.7700573349	 0.2431006548	 0.23403
H	-0.5554312868	 1.3997458084	-0.3078077659	 0.156588
H	-0.1073236422	-2.0957838876	 0.437129491	 0.161503
H	-2.025993913	-3.6865325872	 0.8072398404	 0.113809
H	-4.2501280596	-2.8010300457	-0.0108916983	 0.133699
H	-3.9787678173	-1.8470792002	 1.4537728584	 0.125435
H	-3.7601483954	 1.3477788192	-0.9574240001	 0.230633
67.4248	124.6654	150.7759	245.2471	267.9883	402.5685	455.7004	532.2197	564.2462	593.2444	703.0968	736.3653	778.7832	814.7002	824.4813	874.766	924.2386	974.3002	1002.5674	1039.0707	1079.1102	1120.4922	1161.0365	1174.7074	1237.7656	1253.6296	1313.1862	1368.2955	1400.1245	1423.0167	1450.8887	1508.6198	1711.9176	1739.3595	1744.686	2986.5364	3082.2609	3157.167	3220.135	3249.1666	3517.3622	3532.9412
N=CN1C=CCOC1=N	[NH][CH]N1C=CCO[C]1[NH]	
InChI=1S/C5H7N3O/c6-4-8-2-1-3-9-5(8)7/h1-2,4,6-7H,3H2	InChI=1S/C5H7N3O/c6-4-8-2-1-3-9-5(8)7/h1-2,4,6-7H,3H2
