16
gdb 77139	2.72083	1.28053	0.95261	0.9176	65.32	-0.2607	-0.0029	0.2578	1201.8355	0.123461	-475.088536	-475.079595	-475.078651	-475.12298	31.941	
C	-0.5932556366	 0.9720933479	 0.8573370469	-0.417539
C	 0.109068242	-0.2928477153	 0.3818862236	-0.192592
C	 0.364850051	-0.4869117143	-1.1323924138	 0.032975
O	 1.8128883489	-0.5211362961	-0.8920492098	-0.272964
C	 1.6374958784	-0.3161158544	 0.4652672872	 0.45267
O	 2.4830201595	-0.2001786681	 1.289130775	-0.31125
C	-0.2016040645	-1.752569096	-1.7576236899	 0.365189
N	 0.7051477577	-2.7340159125	-1.9824275295	-0.523014
O	-1.3920697528	-1.8292278241	-1.9908072496	-0.365088
H	-0.1662202097	 1.8645103117	 0.3896735908	 0.131592
H	-1.6579187927	 0.929956041	 0.6124115843	 0.145317
H	-0.4918512832	 1.0755739322	 1.9410824063	 0.144762
H	-0.3275107768	-1.1805172115	 0.8486127769	 0.132484
H	 0.1003622072	 0.3732660099	-1.7510879795	 0.128796
H	 1.685070293	-2.5735289123	-1.8201938657	 0.279709
H	 0.3986377385	-3.5870682581	-2.4202410533	 0.268953
46.5918	82.0301	151.6862	218.8157	222.0438	262.8682	331.4802	334.0406	420.998	500.7206	568.4532	619.7201	693.2154	725.3875	753.9756	827.617	888.6916	922.1192	996.3448	1066.9555	1094.7065	1104.7952	1114.1825	1128.9378	1230.818	1255.067	1320.6397	1355.8689	1389.2214	1412.61	1494.3776	1497.912	1605.5534	1804.439	1945.5279	3045.0102	3078.5365	3100.583	3119.4726	3126.2761	3598.6715	3736.2013
CC1C(OC1=O)C(N)=O	C[C@H]1[C@@H](OC1=O)C(=O)N	
InChI=1S/C5H7NO3/c1-2-3(4(6)7)9-5(2)8/h2-3H,1H3,(H2,6,7)	InChI=1S/C5H7NO3/c1-2-3(4(6)7)9-5(2)8/h2-3H,1H3,(H2,6,7)/t2-,3+/m0/s1
