18
gdb 95573	2.48057	1.59719	1.029	3.7021	75.55	-0.2292	-0.012	0.2172	1134.9581	0.150073	-439.133205	-439.125237	-439.124293	-439.165712	31.085	
O	 0.237729497	 1.271335258	 0.3395490908	-0.441928
C	 0.0324961326	-0.0784602073	 0.0206323826	 0.050732
C	-1.4684964648	-0.4198817926	 0.0313755252	-0.239195
C	-1.7480207317	-1.8918234979	 0.337873996	-0.276821
C	-1.0610157829	-2.9031461654	-0.534119575	-0.061331
C	-0.1118940119	-2.7483650946	-1.4608772143	-0.003499
N	 0.5561350877	-1.593171526	-1.8954418192	-0.334076
C	 0.6738373139	-0.3500654184	-1.3402445476	 0.378988
O	 1.2879838969	 0.5366821016	-1.9152731889	-0.387733
H	 0.7932733132	 1.6173163766	-0.3797624858	 0.293051
H	 0.5407208327	-0.7260165997	 0.7576996791	 0.09161
H	-1.9252695245	 0.2040298147	 0.8044609318	 0.123307
H	-1.9230994355	-0.124449938	-0.9212385799	 0.109321
H	-1.4804461154	-2.0974549617	 1.3853901298	 0.117679
H	-2.8303935029	-2.0688295908	 0.2840623287	 0.114094
H	-1.3784280925	-3.9313272496	-0.3821302883	 0.096489
H	 0.2384835996	-3.6247201581	-1.9963572571	 0.111345
H	 1.0639609486	-1.6710288806	-2.7654389978	 0.257968
83.6432	143.6678	228.2838	292.3705	336.0205	375.8864	407.7027	450.9494	488.9314	547.8092	614.2663	625.2987	707.9083	741.4666	798.6979	841.9147	858.0186	910.9975	972.8056	983.9584	1056.9151	1084.7227	1113.2367	1136.4154	1182.6463	1245.7506	1274.427	1292.006	1333.2756	1350.5069	1388.3866	1395.7225	1451.8074	1469.4217	1476.2598	1493.9989	1497.9431	1744.3389	1760.9371	2942.5025	2995.8729	3029.0743	3048.2857	3097.8393	3158.6895	3186.4638	3603.6235	3652.5816
OC1CCC=CNC1=O	O[C@H]1CCC=CNC1=O	
InChI=1S/C6H9NO2/c8-5-3-1-2-4-7-6(5)9/h2,4-5,8H,1,3H2,(H,7,9)	InChI=1S/C6H9NO2/c8-5-3-1-2-4-7-6(5)9/h2,4-5,8H,1,3H2,(H,7,9)/t5-/m0/s1
