14
gdb 31941	5.19013	0.97715	0.82663	4.0681	71.15	-0.2454	-0.059	0.1864	1311.6773	0.100879	-473.861644	-473.853655	-473.852711	-473.894818	27.699	
C	-0.040591521	 1.3285082764	 0.0614831008	-0.240395
O	 0.0360475319	-0.1022292554	-0.0557758777	-0.239142
C	 0.646370246	-0.5482427211	-1.1286809249	 0.515337
N	 1.1929030441	 0.1326061404	-2.1029960075	-0.378263
C	 1.6716398636	-0.8540725672	-2.9365110887	-0.1526
C	 1.3901691356	-2.0874983161	-2.4239293194	 0.226046
O	 0.7135388299	-1.8776707609	-1.230769149	-0.197146
C	 1.6627701242	-3.4297920929	-2.8887290918	 0.064208
O	 1.3497722217	-4.4540310416	-2.3236984589	-0.281996
H	 0.9624410995	 1.7603248443	 0.0935621388	 0.153774
H	-0.5877585026	 1.7493461743	-0.7853051081	 0.153811
H	-0.5708885646	 1.513240448	 0.9946188284	 0.150184
H	 2.1894175638	-0.6199403732	-3.8544742789	 0.146343
H	 2.2102022878	-3.4313051351	-3.8570614931	 0.079837
88.7488	144.8135	144.8602	153.6733	246.7691	249.0166	391.0335	500.0483	511.9203	635.9766	721.1716	769.953	791.6989	890.5536	968.471	1000.926	1015.177	1085.1054	1182.5774	1183.6577	1229.7805	1256.8974	1303.9418	1391.3351	1440.0387	1468.1184	1482.049	1497.3833	1606.9794	1628.9233	1786.954	2888.7843	3056.8008	3136.1112	3172.5849	3257.9255
COC1=NC=C(O1)C=O	COc1ncc(o1)C=O	
InChI=1S/C5H5NO3/c1-8-5-6-2-4(3-7)9-5/h2-3H,1H3	InChI=1S/C5H5NO3/c1-8-5-6-2-4(3-7)9-5/h2-3H,1H3
