22
gdb 15666	3.13569	1.58996	1.17853	0.1428	82.75	-0.2345	0.0293	0.2637	1108.894	0.200959	-313.091496	-313.082848	-313.081904	-313.124406	33.101	
C	-0.0186609443	 1.6341070933	-0.0253665001	-0.385754
C	-0.0406461833	 0.1015221448	-0.0089197441	-0.193712
C	 0.7420919441	-0.5288334348	-1.1643013154	 0.042407
C	 2.2661274233	-0.2286299475	-1.1727308046	-0.261353
C	 2.8448820588	-1.4361940118	-1.8698872457	-0.071806
C	 1.9604962459	-2.4274617847	-1.961469052	-0.063645
C	 0.6399101356	-2.0846994055	-1.3041134762	-0.050847
C	 0.4633599497	-2.8638188135	 0.0128841797	-0.387202
H	 1.0006293057	 2.0223352598	 0.0712895311	 0.117875
H	-0.4333245529	 2.025489019	-0.9613801307	 0.112188
H	-0.609127171	 2.047471558	 0.7983550953	 0.109077
H	 0.3592132688	-0.2553207759	 0.948494921	 0.095453
H	-1.0827779338	-0.2414644545	-0.0509057362	 0.091581
H	 0.340599556	-0.1165766309	-2.0998986927	 0.071374
H	 2.5024969829	 0.7129657829	-1.6809813072	 0.100201
H	 2.6706561894	-0.1334223436	-0.1531235271	 0.098886
H	 3.8708133542	-1.4760179778	-2.2203395978	 0.086987
H	 2.1555546909	-3.4050410723	-2.3909694759	 0.085108
H	-0.2078287951	-2.3419155859	-1.9528422586	 0.067731
H	 1.2682843395	-2.6404236702	 0.7208121297	 0.115703
H	-0.4910630927	-2.6322910805	 0.4959009136	 0.111884
H	 0.4848910383	-3.9421276982	-0.1778178862	 0.107863
90.6293	110.06	183.307	225.109	256.9611	274.704	296.7635	388.6056	466.928	486.4588	654.2437	733.7417	754.6634	778.723	794.7874	877.7726	939.5394	958.0298	964.8027	976.5182	978.9732	1033.2198	1053.0401	1085.9272	1098.293	1132.4351	1139.0074	1159.5185	1200.2076	1278.8137	1297.9192	1312.3833	1318.2265	1336.9507	1363.3961	1377.8775	1391.0269	1408.9256	1410.271	1482.3984	1488.0518	1497.5305	1500.3881	1501.9802	1508.4962	1686.7245	2987.7746	3000.0708	3015.1826	3016.7507	3029.6936	3031.2677	3049.3075	3056.1191	3095.8958	3097.2117	3101.7679	3105.446	3171.5704	3198.2129
CCC1CC=CC1C	CC[C@H]1CC=C[C@H]1C	
InChI=1S/C8H14/c1-3-8-6-4-5-7(8)2/h4-5,7-8H,3,6H2,1-2H3	InChI=1S/C8H14/c1-3-8-6-4-5-7(8)2/h4-5,7-8H,3,6H2,1-2H3/t7-,8+/m1/s1
