15
gdb 43200	2.62147	1.73436	1.24103	3.3984	65.85	-0.2431	-0.0578	0.1854	985.2306	0.111713	-457.701688	-457.694304	-457.69336	-457.733932	27.366	
O	-0.0156362546	 0.1187113259	-0.7632884323	-0.284304
C	-0.0442204089	 1.2053869871	-0.2716961208	 0.350213
C	-1.1605541293	 2.1675894617	 0.2264363925	-0.019634
O	-1.3646590312	 2.0267673167	 1.6499291694	-0.284667
C	-0.5034500183	 3.1581515912	 1.9371694435	-0.079809
C	-0.0753736922	 3.2699036184	 0.4643673163	-0.213064
C	 1.0159821358	 2.2632928497	 0.0606652912	 0.331991
C	 2.4005187569	 2.0907447239	 0.5249092324	-0.250311
O	 2.1077257484	 2.5556127576	-0.790976092	-0.258884
H	-2.0854037468	 2.2668902664	-0.3460939568	 0.103471
H	-1.0880812313	 4.0096028543	 2.3044176554	 0.114044
H	 0.2792003163	 2.9124474668	 2.6634988579	 0.113057
H	-0.0566211374	 4.2372282656	-0.0318703125	 0.110287
H	 2.8252555174	 2.831189286	 1.2013461367	 0.127164
H	 2.818014915	 1.0874322686	 0.5855341089	 0.140446
77.1673	170.8395	209.1374	233.8357	251.4355	372.4134	467.0548	609.0765	652.4326	760.5765	797.1322	810.1357	864.4004	920.747	936.3558	949.899	991.1083	1024.5727	1044.4158	1080.632	1112.1859	1130.0601	1154.2789	1166.8479	1189.927	1214.757	1260.4197	1270.9051	1345.6525	1415.4306	1516.7158	1521.9229	1898.0239	3026.091	3075.2051	3086.7723	3094.2615	3151.1337	3182.4933
O=C1C2OCC2C11CO1	O=C1[C@H]2OC[C@H]2[C@]21CO2	
InChI=1S/C6H6O3/c7-5-4-3(1-8-4)6(5)2-9-6/h3-4H,1-2H2	InChI=1S/C6H6O3/c7-5-4-3(1-8-4)6(5)2-9-6/h3-4H,1-2H2/t3-,4+,6+/m1/s1
