18
gdb 49091	3.46875	1.51216	1.259	2.559	76.43	-0.2345	-0.0245	0.2099	1012.1858	0.149439	-401.919312	-401.912177	-401.911233	-401.950826	28.331	
O	-0.1875860551	 0.4002873734	-0.7575505821	-0.277296
C	 0.1791481211	 1.0918523914	 0.1663736875	 0.052864
C	 1.4166397001	 1.8961215091	 0.1766423033	 0.245825
C	 1.8869046778	 2.6421667345	 1.4198999695	-0.343387
C	 2.4919737979	 3.9476130633	 0.8144638848	-0.161804
N	 2.7779187416	 3.6492991314	-0.6029467789	-0.124244
C	 3.6788567853	 2.4351190352	-0.6852613192	-0.200955
C	 2.4575161048	 1.5529213806	-0.9053608754	-0.110282
C	 1.6510615021	 2.7968877922	-1.048666665	-0.045996
H	-0.4368910464	 1.1837634652	 1.0896496116	 0.069422
H	 1.051515056	 2.8480039544	 2.0971778861	 0.106955
H	 2.6289413143	 2.0737425326	 1.9894310571	 0.110995
H	 1.7622916087	 4.763004779	 0.851255903	 0.112138
H	 3.4015636895	 4.2828157341	 1.3201446784	 0.109974
H	 4.3135882422	 2.4997060081	-1.5726343249	 0.122287
H	 4.3052036935	 2.2601223077	 0.1962414749	 0.10428
H	 2.3763090202	 0.6257389271	-1.4578798828	 0.117007
H	 0.8781487363	 3.1092689209	-1.7380787778	 0.112217
108.388	190.5607	222.6554	275.1574	387.0651	424.3645	471.0333	643.2783	676.4596	718.362	761.9043	824.183	841.1267	887.8703	903.7266	927.0644	941.6297	960.2635	1016.7629	1025.9571	1044.6547	1070.0472	1098.7032	1104.0188	1173.6098	1187.8928	1209.5947	1231.6062	1246.3427	1257.2548	1302.0746	1312.5795	1343.5673	1369.7759	1435.0594	1489.3853	1496.0848	1515.272	1791.982	2871.8286	3039.9605	3044.774	3053.0934	3080.1973	3098.6788	3107.8506	3200.2267	3212.0204
O=CC12CCN3CC1C23	O=C[C@@]12CCN3C[C@@H]1[C@@H]23	
InChI=1S/C7H9NO/c9-4-7-1-2-8-3-5(7)6(7)8/h4-6H,1-3H2	InChI=1S/C7H9NO/c9-4-7-1-2-8-3-5(7)6(7)8/h4-6H,1-3H2/t5-,6+,7+/m1/s1
