12
gdb 131403	3.54988	1.14364	0.88122	4.5363	58.55	-0.2483	-0.023	0.2253	1188.21	0.077831	-505.952682	-505.944929	-505.943985	-505.98576	27.061	
O	 0.2299232341	 1.3107474457	 0.1202612832	-0.416341
C	 0.0730429639	-0.0188124482	 0.0677719291	 0.297854
N	 0.1777004416	-0.7468529326	-1.0357251253	-0.287039
N	-0.0493640242	-1.9899605047	-0.601903779	-0.089349
N	-0.3073039797	-2.1257812666	 0.6906179166	-0.264571
C	-0.2277795799	-0.8801063397	 1.1432651519	 0.321674
O	-0.4510345108	-0.5240359892	 2.4348186748	-0.216871
C	 0.1054129093	-1.3047950804	 3.4189932856	 0.167233
O	-0.125757509	-1.1088922447	 4.5673861607	-0.247543
H	 0.4178724094	 1.6241479016	-0.7733728312	 0.315583
H	-0.0435731976	-2.7778830747	-1.2267110539	 0.302326
H	 0.759723213	-2.0882729167	 3.0054531075	 0.117045
62.7846	126.6458	160.8974	281.5949	307.531	344.259	359.5527	453.3308	495.6877	554.5242	695.47	720.2872	751.7434	891.1242	978.4498	1035.5884	1090.2576	1152.3321	1204.6029	1265.5896	1309.4378	1408.9793	1421.02	1473.6183	1582.3052	1634.9491	1885.6899	3026.9735	3687.6744	3800.8699
OC1=NNN=C1OC=O	Oc1n[nH]nc1OC=O	
InChI=1S/C3H3N3O3/c7-1-9-3-2(8)4-6-5-3/h1H,(H2,4,5,6,8)	InChI=1S/C3H3N3O3/c7-1-9-3-2(8)4-6-5-3/h1H,(H2,4,5,6,8)
