16
gdb 27236	2.2149	1.97808	1.07788	3.1574	74.7	-0.1866	0.0278	0.2144	1076.5544	0.126054	-434.046983	-434.039172	-434.038228	-434.079304	29.673	
N	-0.0743963113	 1.4338504096	 0.1300765368	-0.596749
C	-0.1363583228	 0.0500841783	 0.087277727	 0.114569
C	-1.1289824403	-0.8373384557	 0.0122180942	 0.271742
C	-2.4927137939	-1.3215879257	-0.4380846528	-0.364951
C	-1.7644516064	-2.6963412448	-0.6993535691	-0.165952
N	-0.5905474955	-2.1261297319	 0.0014732862	-0.093082
C	 0.7851216092	-2.05014	-0.1173288484	 0.427588
N	 1.6018068942	-2.9892497334	-0.3500551014	-0.594673
O	 1.0765375108	-0.7101892093	 0.113811263	-0.258363
H	 0.5854535996	 1.8042946249	-0.5472265185	 0.248403
H	 0.1866716265	 1.7887968192	 1.0455953667	 0.250759
H	-3.2503558838	-1.3691361791	 0.3468665894	 0.134719
H	-2.9077745941	-0.823638783	-1.3146667485	 0.137886
H	-2.1835480976	-3.5809183593	-0.2170540112	 0.131252
H	-1.5719842812	-2.9003454824	-1.756619176	 0.134925
H	 2.5553604167	-2.6357856174	-0.3702774876	 0.221928
111.0488	154.6509	197.0896	239.4263	279.3579	311.0513	385.716	581.673	633.1703	643.653	689.1918	703.3614	724.0238	761.9002	788.9052	794.4177	891.3952	916.3341	989.2278	1031.3464	1061.1179	1139.145	1179.6589	1190.0964	1218.2153	1230.8767	1253.1095	1306.3433	1336.3652	1368.284	1478.2636	1514.7398	1658.0169	1765.4958	1826.1642	3061.9579	3082.2262	3122.1991	3142.2431	3487.1266	3530.9787	3551.9565
NC1=C2CCN2C(=N)O1	N[C]1[C]2CCN2[C]([NH])O1	
InChI=1S/C5H7N3O/c6-4-3-1-2-8(3)5(7)9-4/h7H,1-2,6H2	InChI=1S/C5H7N3O/c6-4-3-1-2-8(3)5(7)9-4/h7H,1-2,6H2
