16
gdb 14717	11.64695	0.59511	0.57227	1.3295	83.98	-0.243	-0.0124	0.2306	1861.7694	0.127638	-346.540212	-346.530894	-346.52995	-346.574847	32.	
C	 0.0513530823	 1.3782903709	 0.0088437537	-0.231391
O	 0.0109122873	-0.0297534147	 0.0018198779	-0.225444
C	-1.2998316664	-0.5418039615	 0.011452352	-0.045529
C	-1.1900716502	-2.0724686327	 0.0025671187	-0.385733
C	-2.488098342	-2.7251081921	 0.0111998956	 0.371564
C	-3.5774252951	-3.2523272079	 0.0189440653	-0.257962
C	-4.8019291006	-3.8459093812	 0.0273503991	 0.293751
C	-5.8890050301	-4.3718013457	 0.0345017902	-0.553857
H	 1.1029983915	 1.6739376129	 0.0006413486	 0.130735
H	-0.4458657033	 1.8052679248	-0.8762091758	 0.107766
H	-0.4293186547	 1.7958895279	 0.9074090014	 0.107766
H	-1.8497963534	-0.208182951	 0.9061258035	 0.10156
H	-1.8663965967	-0.1990866031	-0.8693165514	 0.101561
H	-0.6183341447	-2.3755303085	-0.8832153287	 0.147554
H	-0.6020453484	-2.3845392033	 0.8744533882	 0.147562
H	-6.8440945754	-4.8350193048	 0.0409780618	 0.190096
64.434	72.2668	102.2404	163.0671	190.4834	234.2636	287.3445	364.2765	389.3955	483.1206	542.5882	548.1008	594.2831	600.9339	747.2162	795.6594	993.239	1049.1763	1084.5284	1160.376	1179.9566	1181.6766	1227.8186	1231.077	1298.8752	1313.2254	1417.8792	1470.1697	1482.1184	1486.6003	1504.2446	1531.7783	2183.1369	2366.5735	2965.2694	2977.5549	3000.3144	3019.0568	3030.1787	3067.9379	3117.9818	3506.3632
COCCC#CC#C	COCCC#CC#C	
InChI=1S/C7H8O/c1-3-4-5-6-7-8-2/h1H,6-7H2,2H3	InChI=1S/C7H8O/c1-3-4-5-6-7-8-2/h1H,6-7H2,2H3
