15
gdb 9056	4.83933	0.90501	0.79368	3.8691	66.45	-0.281	0.0031	0.2841	1335.8266	0.119011	-358.861579	-358.852895	-358.851951	-358.895453	30.057	
N	-0.0867667042	 1.5050452255	 0.1380823752	-0.49919
C	 0.0368042957	 0.0542056595	 0.018027489	-0.139265
C	 0.7277084999	-0.4883892947	-1.2600732157	-0.186023
C	-0.0472593031	-0.1084809154	-2.5354419892	-0.35799
C	 0.5953758749	-0.6166794128	-3.7443738248	 0.260477
N	 1.1152691706	-1.0222073298	-4.6929664743	-0.291382
C	 0.7542155931	-0.4626211539	 1.1968199091	 0.300885
N	 1.3433407747	-0.8819313271	 2.0973131052	-0.307426
H	 0.8131022447	 1.9593097871	 0.0168780761	 0.245914
H	-0.7241578499	 1.8731478721	-0.5583809589	 0.243974
H	-0.9803867006	-0.3577441368	 0.0622921544	 0.139451
H	 1.7475494375	-0.0934047327	-1.3134847307	 0.137665
H	 0.8104388626	-1.5774822211	-1.1922116742	 0.146728
H	-1.06984875	-0.5033000608	-2.4929411059	 0.158061
H	-0.1296101061	 0.9806721409	-2.6244351852	 0.14812
69.2988	100.6019	107.5422	200.9469	216.6053	278.0852	318.3261	395.3334	420.7849	487.578	580.2783	602.0931	766.9228	797.6439	854.0613	952.6947	966.3167	1033.553	1069.7115	1130.9365	1166.0593	1237.3313	1270.3971	1320.5214	1340.2056	1380.3562	1411.6687	1470.7103	1488.9691	1655.0996	2365.9717	2366.8041	3028.678	3036.379	3057.6396	3074.6004	3107.1214	3508.8005	3603.2059
NC(CCC#N)C#N	N[C@@H](CCC#N)C#N	
InChI=1S/C5H7N3/c6-3-1-2-5(8)4-7/h5H,1-2,8H2	InChI=1S/C5H7N3/c6-3-1-2-5(8)4-7/h5H,1-2,8H2/t5-/m0/s1
