21
gdb 115369	3.49923	1.06764	0.94622	0.5998	81.5	-0.2497	0.0126	0.2623	1344.1553	0.182437	-424.23137	-424.222151	-424.221207	-424.265455	34.396	
C	 0.165728119	 1.5532860621	-0.2623553166	-0.239014
O	 0.2796070689	 0.1507803526	-0.0967843043	-0.24642
C	 0.4906286767	-0.5410462888	-1.3065643255	 0.179559
O	 1.739001751	-0.2389553037	-1.8874318256	-0.259882
C	 2.8239976251	-0.933379394	-1.2784231655	-0.099185
C	 2.7127661397	-2.4413019421	-1.5144597593	-0.036732
C	 3.7733548905	-3.2114942663	-0.7160347168	-0.402594
C	 1.3124781627	-2.8759784572	-1.158367056	-0.052592
C	 0.31221923	-2.009634652	-1.0286085595	-0.109951
H	 1.0727661331	 1.9827784233	-0.7029851324	 0.123496
H	-0.6912797741	 1.8112885956	-0.9034557508	 0.103694
H	 0.0065039379	 1.9802269199	 0.7302724891	 0.124068
H	-0.2427605921	-0.1974638447	-2.0545928601	 0.07363
H	 3.7344056776	-0.5234064803	-1.7243887536	 0.101311
H	 2.843472245	-0.7288966031	-0.1983203232	 0.103305
H	 2.8794020463	-2.6379994312	-2.5844060894	 0.090707
H	 3.6496839959	-3.0503817885	 0.3603383388	 0.123805
H	 3.700132453	-4.2874360657	-0.9037795869	 0.116944
H	 4.7834209086	-2.8916238746	-0.9928138353	 0.115953
H	 1.1441719252	-3.9379734826	-0.9910984427	 0.089076
H	-0.6838048998	-2.3198467287	-0.7296769041	 0.100823
65.5845	113.106	159.6626	193.6743	234.5074	245.1273	294.6193	333.0567	374.9899	501.8295	517.3713	551.2356	615.9436	742.6913	766.5625	860.1006	914.7132	947.956	988.8356	990.2111	1000.544	1024.9717	1078.9504	1098.3247	1119.3155	1136.4384	1169.261	1180.2015	1210.2837	1216.1796	1286.769	1313.6492	1342.6765	1368.4011	1382.5575	1404.8271	1415.0428	1430.23	1473.2092	1482.9184	1494.9501	1499.9397	1501.6112	1513.136	1724.7038	2969.9911	2988.4075	2989.4928	3009.0464	3031.0083	3063.7655	3089.6246	3101.595	3102.6678	3123.4467	3144.2899	3186.5707
COC1OCC(C)C=C1	CO[C@H]1OC[C@@H](C)C=C1	
InChI=1S/C7H12O2/c1-6-3-4-7(8-2)9-5-6/h3-4,6-7H,5H2,1-2H3	InChI=1S/C7H12O2/c1-6-3-4-7(8-2)9-5-6/h3-4,6-7H,5H2,1-2H3/t6-,7-/m0/s1
