17
gdb 125627	3.19727	1.36715	0.96478	5.2875	83.12	-0.1952	-0.0139	0.1813	1188.3499	0.137916	-414.207969	-414.199489	-414.198544	-414.240654	32.624	
C	-0.0352651681	 1.4478920974	-0.0106304296	-0.449278
C	-0.0240833257	-0.0493136244	 0.0179287458	 0.323227
N	-0.0711450083	-0.6677525576	-1.1184090629	-0.266813
N	-0.0462754586	-2.0265533135	-1.102276523	-0.300831
C	-0.0149627878	-2.7872665573	 0.0323575571	 0.43333
N	-0.0919418046	-4.1613276531	-0.1812849704	-0.587867
C	 0.0424379739	-2.1737081801	 1.245424262	-0.304449
C	 0.033337651	-0.7320828313	 1.3327351281	 0.248096
N	 0.0802900549	 0.0049916835	 2.3939375182	-0.56108
H	 0.8610817819	 1.8407006822	 0.4794626752	 0.142952
H	-0.0885589316	 1.806684066	-1.039524892	 0.119884
H	-0.8828092313	 1.8287610485	 0.5674140241	 0.143729
H	-0.2554898399	-2.4482124112	-1.9919809915	 0.266108
H	 0.5012621245	-4.4986987291	-0.9294596627	 0.254045
H	 0.0630000295	-4.6977647461	 0.6608469184	 0.260926
H	 0.1103089226	-2.7699554833	 2.1488832094	 0.082972
H	 0.1145650975	-0.5844785009	 3.2288426139	 0.195048
101.7962	167.9469	181.9505	270.9149	304.9164	334.751	338.2588	400.1007	471.0829	480.5536	517.9025	566.1957	626.132	717.0953	730.0797	751.4911	781.3221	808.0126	872.5427	968.9809	1050.6057	1057.6841	1102.5213	1141.109	1195.8936	1236.8157	1276.0029	1395.5446	1413.9915	1427.6271	1463.2803	1468.7231	1534.3004	1624.9496	1648.9344	1665.332	1690.9792	3048.2374	3103.9457	3147.9203	3184.3304	3432.8401	3541.4525	3642.8234	3650.2419
CC1=NNC(N)=CC1=N	CC1=NN[C@H](N)C=C1[NH]	
InChI=1S/C5H8N4/c1-3-4(6)2-5(7)9-8-3/h2H,1H3,(H4,6,7,9)	InChI=1S/C5H9N4/c1-3-4(6)2-5(7)9-8-3/h2,5-6,9H,7H2,1H3/t5-/m0/s1
