17
gdb 56439	3.35805	0.986	0.88451	4.1859	74.63	-0.2731	-0.0489	0.2242	1336.6488	0.135275	-418.010481	-418.001223	-418.000278	-418.045579	32.434	
C	-0.310039979	 1.5717331639	 0.1644805022	-0.396887
C	 0.0550577745	 0.0688205541	 0.0562344699	-0.263365
C	 0.8539220258	-0.3626865322	 1.2025089786	 0.296885
N	 1.5115618001	-0.6845411498	 2.095552803	-0.31465
C	-1.241944129	-0.7530483026	-0.0638776212	 0.399393
O	-1.8082011372	-1.2073891477	 0.9032940104	-0.321184
C	-1.7850446566	-0.9180770952	-1.4446448086	-0.109845
C	-2.1809625873	-2.3175765013	-1.8253930594	-0.218715
N	-3.1946409511	-1.3064172	-1.5760940552	-0.299773
H	 0.5968087331	 2.1777519781	 0.2148863059	 0.150608
H	-0.8903221751	 1.883112733	-0.7080963074	 0.139501
H	-0.9035370615	 1.7499702223	 1.0637795065	 0.161028
H	 0.6520181619	-0.0842472265	-0.8508847226	 0.139315
H	-1.4039084902	-0.2527286671	-2.2137667394	 0.105474
H	-2.0642158509	-2.6223173381	-2.8610839372	 0.135082
H	-2.0183849564	-3.0913699638	-1.0805403803	 0.142896
H	-3.557173601	-1.4324028871	-0.6299315554	 0.254237
35.3513	81.282	135.9273	191.6739	222.1269	227.7465	276.4391	284.618	363.6735	433.4555	553.6045	697.9231	747.671	802.3141	840.6247	855.1585	900.8543	967.0819	1003.1303	1020.9551	1054.8821	1070.092	1121.9664	1131.7324	1143.704	1183.3448	1276.8315	1291.9414	1319.844	1348.2765	1401.7334	1410.8371	1491.6174	1498.5419	1499.7794	1797.9002	2368.3561	3045.0469	3055.3298	3116.4473	3134.0072	3144.8277	3154.4003	3211.976	3464.0139
CC(C#N)C(=O)C1CN1	C[C@@H](C#N)C(=O)[C@H]1CN1	
InChI=1S/C6H8N2O/c1-4(2-7)6(9)5-3-8-5/h4-5,8H,3H2,1H3	InChI=1S/C6H8N2O/c1-4(2-7)6(9)5-3-8-5/h4-5,8H,3H2,1H3/t4-,5+/m0/s1
