22
gdb 32415	2.79862	1.19357	0.90754	1.7341	91.13	-0.1864	0.0527	0.2391	1379.4013	0.193616	-367.270871	-367.260488	-367.259544	-367.306506	37.682	
C	 0.0032956729	 1.5732542627	 0.1089708578	-0.363341
C	-0.0466329568	 0.0424536201	-0.0445545269	-0.296889
C	 0.6943752752	-0.4699435822	-1.2465395825	 0.213077
C	 0.1357114499	-0.8432902221	-2.4457845165	-0.192809
N	 1.1487969662	-1.2320488375	-3.2865546925	-0.305506
C	 2.3627555909	-1.1220303712	-2.646976515	 0.233028
C	 3.6336391274	-1.4845345704	-3.3436387931	-0.505289
C	 2.1147388638	-0.6475605219	-1.3729627874	 0.113753
C	 3.130199331	-0.3718989835	-0.3036306026	-0.515423
H	 1.0339118047	 1.9296127266	 0.2033048183	 0.117423
H	-0.4358196216	 2.0639387967	-0.7654333577	 0.113598
H	-0.5478487995	 1.8997765681	 0.9975565517	 0.102767
H	 0.3575603713	-0.4186806484	 0.8662657448	 0.09532
H	-1.0944705503	-0.2755979272	-0.1034621621	 0.093436
H	-0.8954838248	-0.8725228103	-2.7618200826	 0.107801
H	 1.0252680491	-1.5698843213	-4.2246565476	 0.251184
H	 3.8595120492	-0.8077051511	-4.1782206469	 0.124564
H	 4.4770381035	-1.4364601138	-2.6516522753	 0.135343
H	 3.6030965357	-2.5032865033	-3.7509009022	 0.120863
H	 3.265061741	 0.701913943	-0.1212554033	 0.121975
H	 2.8377621817	-0.8195301696	 0.6537956637	 0.120987
H	 4.1119738396	-0.7788500733	-0.5628014921	 0.114137
62.3176	74.0568	113.3309	120.9556	193.9985	214.8914	276.1832	278.78	289.4423	384.4182	447.9377	453.304	562.7523	643.1134	685.9963	692.2022	719.8944	742.7862	792.5296	938.2401	966.1793	978.3554	1054.4058	1057.1926	1063.4032	1085.5504	1114.5586	1129.6043	1210.33	1245.9052	1297.9261	1324.9404	1363.5487	1405.9804	1407.4731	1425.2815	1428.6541	1475.9544	1478.7904	1481.6284	1487.3859	1496.1073	1498.6967	1504.4503	1507.3832	1564.4209	1640.9152	3011.1768	3015.3396	3017.5532	3031.6921	3051.3232	3052.5848	3060.7473	3099.5142	3100.174	3108.3742	3123.6698	3251.7614	3681.6716
CCC1=CNC(C)=C1C	CCc1c[nH]c(C)c1C	
InChI=1S/C8H13N/c1-4-8-5-9-7(3)6(8)2/h5,9H,4H2,1-3H3	InChI=1S/C8H13N/c1-4-8-5-9-7(3)6(8)2/h5,9H,4H2,1-3H3
