17
gdb 84946	2.1047	1.79609	1.30654	3.6945	69.67	-0.2603	-0.0255	0.2348	1027.734	0.136515	-458.978518	-458.970289	-458.969344	-459.011645	30.729	
O	 0.5694827171	 1.1470896836	 0.5649132759	-0.423994
C	 0.136312489	-0.1337960615	 0.1302320657	 0.002285
C	-1.383039763	-0.2362420787	 0.0872143268	-0.104371
C	-2.2308793885	 0.0456732417	-0.9087981582	-0.047824
C	-2.0101047721	 0.566616208	-2.3158360982	-0.260316
C	-0.6797671907	 0.2502552314	-2.999286471	-0.099588
O	 0.417430466	 0.5558530445	-2.1232796592	-0.266782
C	 0.675537784	-0.4793180264	-1.2436973273	 0.391982
O	 1.1827558168	-1.5084350732	-1.5767016167	-0.303461
H	 0.3316480799	 1.7636755825	-0.1387433393	 0.287834
H	 0.5347574619	-0.8516427276	 0.8497687088	 0.114697
H	-1.8214247197	-0.5348712756	 1.0361106977	 0.106133
H	-3.2877595967	-0.0463825539	-0.6628718952	 0.103712
H	-2.8170177717	 0.1933410608	-2.9586017254	 0.117652
H	-2.1425713468	 1.6583072786	-2.2866863607	 0.127901
H	-0.6165776436	-0.8019730031	-3.2967902352	 0.132669
H	-0.5490521118	 0.868251479	-3.8905539289	 0.121473
72.6567	87.4425	214.5438	258.3643	269.6131	318.9725	393.6179	426.5063	450.1436	557.8838	635.5084	712.2222	749.7309	776.9628	826.9703	856.1034	910.6829	951.7658	1009.7874	1024.0837	1057.7303	1065.8227	1098.1368	1189.2482	1252.8163	1260.1318	1270.4053	1295.0173	1337.6811	1383.5909	1400.5955	1417.7197	1436.3153	1466.9614	1508.1587	1703.4558	1865.7442	3004.2956	3045.5732	3059.4895	3103.2329	3111.9613	3132.1569	3163.6558	3789.7733
OC1C=CCCOC1=O	O[C@H]1C=CCCOC1=O	
InChI=1S/C6H8O3/c7-5-3-1-2-4-9-6(5)8/h1,3,5,7H,2,4H2	InChI=1S/C6H8O3/c7-5-3-1-2-4-9-6(5)8/h1,3,5,7H,2,4H2/t5-/m0/s1
