18
gdb 39545	3.27727	2.03302	1.61913	1.5248	78.38	-0.231	0.0174	0.2484	865.8516	0.151537	-364.759603	-364.753597	-364.752653	-364.78959	26.031	
C	-0.0021166491	 1.5634462565	-0.0393975656	-0.288867
C	 1.3354822646	 2.2478932463	 0.0623605634	-0.058872
C	 2.4805447735	 1.5704993953	 0.1431146263	-0.079278
C	 2.4815997169	 0.0705675094	 0.1467320548	-0.048413
C	 2.0459015297	-0.6911548276	-1.1169229648	-0.049949
C	 1.2615520759	-1.6753095451	-0.3400096323	-0.067042
C	 1.2516863489	-0.6189515714	 0.8193308624	-0.120548
C	 0.0914970207	 0.0401535155	 0.0473364416	 0.059365
N	 0.5432234708	-0.6843109171	-1.1974225086	-0.159382
H	-0.6743855389	 1.9459617596	 0.7421003849	 0.104406
H	-0.4873642607	 1.8171084582	-0.993051937	 0.123154
H	 1.3344425488	 3.3350526232	 0.0761037131	 0.08797
H	 3.4302418698	 2.0935275488	 0.2136251024	 0.085011
H	 3.4170528032	-0.3510521869	 0.523206715	 0.073769
H	 2.5723392785	-0.8029642871	-2.0560591738	 0.094928
H	 1.1284945232	-2.7465948572	-0.4026649802	 0.097159
H	 1.2328677529	-0.7873616665	 1.8943544162	 0.069016
H	-0.8754567486	-0.3930291337	 0.3198332921	 0.077572
188.8457	280.2328	396.3331	469.0863	517.695	602.1092	692.3685	708.9422	743.3702	785.9778	809.1825	837.8122	874.1604	908.809	922.1585	930.523	961.3081	977.9894	997.1092	1002.4425	1030.5702	1039.473	1052.9243	1091.5893	1129.32	1145.3592	1186.7492	1206.5575	1211.7088	1217.4388	1267.8572	1284.8132	1327.8633	1341.0161	1362.8777	1387.1668	1418.8733	1460.7205	1714.6401	3000.9284	3025.9234	3063.7874	3078.0109	3132.9513	3148.8404	3173.1224	3196.1784	3213.3455
C1C=CC2C3C4C2C1N34	C1C=C[C@@H]2[C@H]3[C@H]4[C@@H]2[C@@H]1N34	
InChI=1S/C8H9N/c1-2-4-6-5(3-1)9-7(4)8(6)9/h1-2,4-8H,3H2	InChI=1S/C8H9N/c1-2-4-6-5(3-1)9-7(4)8(6)9/h1-2,4-8H,3H2/t4-,5+,6-,7-,8+,9?/m0/s1
