18
gdb 65437	3.86708	0.79476	0.74363	1.9505	78.6	-0.2619	-0.0364	0.2255	1519.8462	0.145239	-401.963234	-401.953518	-401.952574	-401.998995	34.085	
C	 0.0109736609	 1.5391643524	-0.1275366329	-0.460808
C	 0.00952837	 0.0222870684	-0.0060820939	 0.137545
C	 1.314863227	-0.7553734356	-0.1320204655	-0.308696
C	 0.6213386848	-0.6955733738	 1.1987765924	-0.042197
C	 1.2060544297	 0.0636028486	 2.3759145081	-0.316892
C	 2.1517931183	-0.8170389865	 3.1736847968	 0.168151
O	 3.2820938943	-0.520806542	 3.4566615742	-0.229179
C	-1.1657016629	-0.6068886946	-0.5605092649	 0.242259
N	-2.1141883208	-1.1023841538	-1.0007694144	-0.342706
H	 0.9447455379	 1.9623139552	 0.2475692247	 0.129785
H	-0.0936842205	 1.8344433798	-1.1753285847	 0.144827
H	-0.8182063629	 1.9809896994	 0.4328244942	 0.140748
H	 1.3075336225	-1.686811403	-0.6849693972	 0.142535
H	 2.2075544664	-0.1533601284	-0.2674384676	 0.134597
H	 0.0912703825	-1.6004854016	 1.4833445115	 0.118622
H	 1.7558516536	 0.956401773	 2.0716486301	 0.127791
H	 0.396011288	 0.3739457097	 3.0521035606	 0.133022
H	 1.7143333712	-1.791485717	 3.4930050886	 0.080597
41.4723	58.7685	133.0216	140.7264	173.6976	216.0018	269.951	321.1197	389.9014	408.3607	519.1282	575.1304	591.8337	671.7999	761.8224	844.9466	873.9385	914.1258	947.1929	987.2719	1044.9163	1065.7301	1091.8431	1111.7441	1119.12	1172.4775	1226.6256	1267.3242	1298.7965	1303.984	1418.1199	1421.8105	1430.0507	1460.3306	1486.2004	1488.9021	1502.0873	1839.9057	2348.3828	2865.2945	3013.4784	3049.1875	3113.4666	3115.8712	3135.1796	3139.8939	3149.2487	3232.2067
CC1(CC1CC=O)C#N	C[C@]1(C[C@H]1CC=O)C#N	
InChI=1S/C7H9NO/c1-7(5-8)4-6(7)2-3-9/h3,6H,2,4H2,1H3	InChI=1S/C7H9NO/c1-7(5-8)4-6(7)2-3-9/h3,6H,2,4H2,1H3/t6-,7+/m1/s1
