16
gdb 129967	5.00482	1.08103	0.92782	2.9819	72.57	-0.2037	0.0369	0.2406	1230.5645	0.127009	-430.242868	-430.234874	-430.233929	-430.275773	29.739	
N	-0.1007081293	 1.3294272892	-0.3541819311	-0.602443
C	-0.0587048969	-0.0284130252	-0.1037748689	 0.420817
N	-1.0721081342	-0.8644336166	-0.2308675725	-0.371856
C	-0.4945650441	-2.0745175371	 0.0485633317	 0.38399
N	 0.7942984983	-2.0453048014	 0.3384943344	-0.298775
N	 1.0601714109	-0.6960281782	 0.2446311005	-0.252244
N	-1.2519329691	-3.239247181	 0.1019517618	-0.135859
C	-1.8089422246	-3.7791878445	-1.1352938106	-0.220971
C	-0.6874208495	-4.469218447	-0.4331087501	-0.217874
H	 0.4566840726	 1.8965711586	 0.2697092239	 0.254586
H	-1.0545805705	 1.6606767518	-0.4030661818	 0.269801
H	 2.0027289628	-0.3638955576	 0.3510765999	 0.270896
H	-2.8237988646	-4.1571134639	-1.0588643114	 0.120856
H	-1.5790862675	-3.2548049468	-2.058935315	 0.126555
H	 0.3019167936	-4.4082930049	-0.8773969415	 0.133066
H	-0.8771092379	-5.3607816053	 0.1568115808	 0.119455
54.7983	145.7686	192.3486	261.376	272.6258	353.3056	363.7029	445.691	535.8274	583.2896	653.2543	740.2215	759.3485	786.2496	820.3074	920.779	929.5137	1018.0824	1040.6897	1066.2896	1114.3656	1118.7072	1131.5345	1144.8932	1175.4239	1185.2274	1278.6473	1324.2097	1415.9619	1496.1003	1510.4841	1521.2736	1583.7228	1607.1319	1661.6664	3114.322	3119.252	3197.9761	3211.7208	3557.6448	3656.0664	3680.7208
NC1=NC(=NN1)N1CC1	Nc1nc(n[nH]1)N1CC1	
InChI=1S/C4H7N5/c5-3-6-4(8-7-3)9-1-2-9/h1-2H2,(H3,5,6,7,8)	InChI=1S/C4H7N5/c5-3-6-4(8-7-3)9-1-2-9/h1-2H2,(H3,5,6,7,8)
