27
gdb 118062	3.26025	0.69501	0.60406	1.4062	93.35	-0.2601	0.0735	0.3335	1995.2464	0.249551	-390.707454	-390.69533	-390.694385	-390.745252	44.049	
C	-0.0577921202	 1.6202063687	-0.1156851297	-0.377944
C	 0.0026685705	 0.0896582516	-0.1096201248	-0.175369
C	-1.3685691534	-0.5548144614	 0.1260689855	-0.165575
C	-1.3709364683	-2.0971427378	 0.1237064405	 0.007069
C	-0.7193209557	-2.6621689017	 1.3957238939	-0.407313
C	-2.8079435714	-2.6303924732	-0.0855297752	 0.131957
O	-3.3817674535	-2.0905406129	-1.2791613643	-0.428705
C	-2.9198607968	-4.1618642984	-0.0850514455	-0.200444
C	-4.3526074534	-4.6578492626	-0.3011651428	-0.377154
H	 0.9274320308	 2.0598824201	-0.3009662222	 0.107998
H	-0.7386908869	 1.9855133978	-0.8924722169	 0.114475
H	-0.4187485705	 2.0052450089	 0.8446327957	 0.112935
H	 0.4050048787	-0.2630266486	-1.0691422225	 0.089395
H	 0.7173494883	-0.2375208915	 0.6556820356	 0.0942
H	-1.7773040196	-0.2014851456	 1.0843728299	 0.083506
H	-2.0610155094	-0.2094596768	-0.6481819979	 0.109701
H	-0.7793617702	-2.435818865	-0.7436855016	 0.052661
H	-1.3506314796	-2.4721354954	 2.2724390578	 0.1136
H	-0.547957571	-3.7397184502	 1.3331543709	 0.115663
H	 0.2499952654	-2.1916188326	 1.5824058325	 0.116026
H	-3.4438064654	-2.2324829528	 0.7182376487	 0.081834
H	-2.8629941213	-2.4216821016	-2.0214740322	 0.27363
H	-2.2616333074	-4.5622899044	-0.8713726688	 0.081482
H	-2.53657621	-4.5552520892	 0.8619465752	 0.101861
H	-4.3907891259	-5.7509374247	-0.3336276866	 0.106188
H	-5.0082353184	-4.3246004771	 0.5111193261	 0.113319
H	-4.7638213651	-4.2677125735	-1.2351596511	 0.125004
56.3714	65.3798	87.5027	104.1981	145.7109	204.7199	227.9375	239.7069	252.9259	292.5046	315.9698	319.3496	345.1437	395.333	460.5975	520.6306	540.8018	744.6813	779.12	845.24	856.7245	879.7258	929.4627	951.934	987.4684	1006.9423	1033.8235	1051.6862	1078.9601	1092.3765	1103.7222	1141.7199	1166.143	1188.9172	1239.28	1261.2956	1277.1274	1319.0793	1323.308	1336.4489	1358.703	1372.437	1387.9143	1394.728	1404.9045	1410.8891	1414.0456	1420.8257	1482.0733	1485.737	1494.2788	1495.2655	1499.9908	1500.2054	1507.182	1509.3954	1515.0679	2961.4037	2994.3179	3002.2311	3015.0669	3019.7493	3028.6207	3032.281	3037.7225	3045.0887	3071.5297	3081.1665	3096.5124	3099.1309	3100.344	3100.564	3114.9514	3126.0515	3790.0932
CCCC(C)C(O)CC	CCC[C@@H](C)[C@@H](O)CC	
InChI=1S/C8H18O/c1-4-6-7(3)8(9)5-2/h7-9H,4-6H2,1-3H3	InChI=1S/C8H18O/c1-4-6-7(3)8(9)5-2/h7-9H,4-6H2,1-3H3/t7-,8+/m1/s1
