17
gdb 9105	4.99569	0.93356	0.79821	3.5862	68.73	-0.2539	-0.0283	0.2255	1392.9207	0.137779	-401.009844	-400.999867	-400.998923	-401.047051	32.248	
C	 0.0529573923	 1.4668467897	-0.0677903461	-0.327929
N	 0.0191016962	 0.0205160174	-0.1129414239	-0.283954
C	-1.070054343	-0.6034166842	 0.0367915838	 0.412595
C	-2.4640447808	-0.0704908309	 0.2748022766	-0.48917
O	-1.0881642479	-1.9621738082	-0.007628778	-0.256807
C	 0.1578351079	-2.6091542076	-0.2261794814	-0.14403
C	-0.1044752325	-4.1019028015	-0.2366133073	 0.137368
O	 0.7603883564	-4.9205294761	-0.4011923547	-0.237865
H	 0.7362456956	 1.7886609074	 0.7269236225	 0.129509
H	 0.4654060586	 1.8491449538	-1.0089191841	 0.129515
H	-0.9165592364	 1.9549763955	 0.1005152098	 0.102977
H	-2.7757027332	 0.5809891958	-0.5466078759	 0.14791
H	-3.1700308317	-0.8966811767	 0.3559661566	 0.143988
H	-2.502113448	 0.5183120136	 1.1957593648	 0.147912
H	 0.6064138418	-2.2955753157	-1.1763858111	 0.147692
H	 0.8796528558	-2.3557136616	 0.5594361493	 0.147693
H	-1.1698208111	-4.3809266306	-0.0785339411	 0.092595
29.4961	53.7219	60.1134	75.9294	126.0589	170.3065	274.2942	276.8849	345.2818	392.4257	572.6302	577.2838	637.2948	725.8343	828.2904	981.0058	1050.3456	1053.954	1085.8861	1109.5027	1134.51	1135.3978	1158.2815	1223.5721	1287.1398	1340.4654	1398.5803	1409.4297	1448.2126	1469.3129	1478.6606	1481.0059	1498.5549	1506.7084	1762.3448	1845.0378	2894.1498	3002.3225	3038.3421	3054.123	3066.5125	3072.7571	3074.3574	3115.4766	3156.0014
CN=C(C)OCC=O	CN=C(C)OCC=O	
InChI=1S/C5H9NO2/c1-5(6-2)8-4-3-7/h3H,4H2,1-2H3	InChI=1S/C5H9NO2/c1-5(6-2)8-4-3-7/h3H,4H2,1-2H3
