25
gdb 107054	3.61057	1.03341	0.92352	0.2198	92.53	-0.2521	0.0859	0.338	1424.8617	0.229982	-352.375117	-352.365623	-352.364678	-352.408985	37.383	
C	 0.090711963	 1.4931483649	 0.3253383366	-0.374613
C	-0.0345688996	 0.0442147518	-0.1639583764	-0.276882
C	-1.4478945121	-0.4967526405	-0.1093029941	 0.385818
C	-1.9786727452	-1.0587267554	 1.191248965	-0.337425
C	-1.7479956686	-1.9757806741	 0.009528731	-0.089789
C	-2.943880369	-2.3211438804	-0.8721443395	 0.035483
C	-3.8786932199	-3.3929163475	-0.3077081554	-0.396321
C	-3.6295923407	-0.9541255979	-1.114012245	-0.239583
C	-2.4972034205	 0.0934759027	-1.0529101869	-0.275189
H	 1.1299932651	 1.8345570957	 0.2867348607	 0.107541
H	-0.5052351451	 2.175705998	-0.2893638657	 0.116459
H	-0.2577426635	 1.5887632884	 1.3592070344	 0.115962
H	 0.3394910818	-0.0249774205	-1.195141709	 0.089631
H	 0.6183535341	-0.5980566964	 0.4404982818	 0.089735
H	-1.2751807582	-1.1360730211	 2.0141557731	 0.102182
H	-2.9923155122	-0.8320436568	 1.5069730173	 0.103031
H	-0.9394133002	-2.6972895991	 0.0820153965	 0.07122
H	-2.5451776438	-2.6823004324	-1.8310916604	 0.066746
H	-4.2746085845	-3.0907871844	 0.6683030252	 0.112271
H	-4.7294636991	-3.5696803815	-0.9751033665	 0.107966
H	-3.3574352929	-4.3468158242	-0.1740823501	 0.108802
H	-4.1776672127	-0.9264610983	-2.0601003516	 0.093173
H	-4.3661764355	-0.766354703	-0.3242920648	 0.098495
H	-2.8607590241	 1.0784359947	-0.7394568425	 0.093184
H	-2.0424353267	 0.2222423377	-2.0442485336	 0.092101
78.8735	120.3407	181.0581	201.9819	231.4889	254.0943	288.291	362.1891	378.166	389.7377	511.9648	583.489	591.3725	682.7593	784.8023	795.0279	834.955	874.5316	914.5509	930.8207	955.3837	963.1678	976.3829	990.3842	1019.0502	1054.5577	1059.1823	1070.315	1091.2813	1098.5697	1130.7771	1162.6066	1197.491	1231.7958	1256.9513	1264.2638	1307.6907	1318.4884	1340.8076	1352.2113	1358.4226	1377.8705	1405.7035	1409.7507	1415.5947	1479.1867	1486.9745	1492.5725	1496.5619	1498.9493	1500.0936	1507.9934	1514.6915	2996.0362	3005.832	3017.0205	3025.1659	3032.8942	3039.364	3043.3187	3062.5449	3087.3005	3092.6014	3095.7129	3102.2449	3102.5976	3121.9873	3147.9743	3201.4597
CCC12CC1C(C)CC2	CC[C@]12C[C@H]1[C@@H](C)CC2	
InChI=1S/C9H16/c1-3-9-5-4-7(2)8(9)6-9/h7-8H,3-6H2,1-2H3	InChI=1S/C9H16/c1-3-9-5-4-7(2)8(9)6-9/h7-8H,3-6H2,1-2H3/t7-,8-,9-/m0/s1
