20
gdb 90415	2.40203	1.6061	1.26027	3.4413	78.82	-0.2324	0.0021	0.2346	1098.7206	0.17093	-403.149666	-403.140944	-403.14	-403.182977	33.003	
C	-0.5803428339	 1.4578650115	 0.0894777589	-0.39903
C	-0.1108231195	 0.0178759469	 0.0313787477	 0.054061
C	 1.0070003625	-0.389628167	-0.9800693136	-0.279906
C	 1.7401233258	-1.0892935846	 0.1967525223	 0.008044
C	 2.9086236243	-0.3873538269	 0.9436012804	-0.13514
C	 3.9473399487	 0.4572984995	 0.2210273539	-0.40776
C	 1.7732536141	 0.3708737652	 1.6760723446	 0.379666
O	 1.7104761118	 1.3630314932	 2.3464295888	-0.339887
N	 0.7579341524	-0.4800016111	 1.1668084394	-0.159144
H	 0.2568809829	 2.1572151683	 0.1542245672	 0.133909
H	-1.1567042164	 1.6886389329	-0.8128632302	 0.11719
H	-1.223299212	 1.6244069809	 0.9584886156	 0.138761
H	-0.9745226252	-0.650831305	-0.042510118	 0.092462
H	 0.7015576008	-1.0375655608	-1.8040246702	 0.109725
H	 1.5437650079	 0.4705260898	-1.3907620938	 0.111362
H	 1.7653992398	-2.1802521024	 0.1565651528	 0.082418
H	 3.4053474899	-1.0973221977	 1.6146773206	 0.107832
H	 3.487435671	 1.1660799597	-0.4738445405	 0.122704
H	 4.5223334471	 1.0388515612	 0.9474869431	 0.141491
H	 4.6440967582	-0.1701487136	-0.3433604489	 0.12124
71.522	154.5458	179.0091	204.266	214.502	248.4348	321.7381	406.2904	443.9573	526.5505	613.395	647.2196	746.7572	766.701	795.6193	862.1014	877.4194	925.6844	969.0486	984.7595	1027.3584	1039.7381	1086.1718	1119.7717	1134.6523	1148.1169	1167.6329	1196.7596	1221.6452	1242.8341	1255.0519	1307.7299	1339.1882	1340.5707	1384.4542	1409.9688	1415.3488	1479.7887	1487.4319	1491.0413	1495.1692	1499.2479	1870.9529	3041.053	3041.316	3047.1855	3047.4683	3061.6481	3084.8428	3110.4134	3111.2855	3115.3517	3120.7437	3128.1643
CC1CC2C(C)C(=O)N12	C[C@H]1C[C@H]2[C@@H](C)C(=O)N12	
InChI=1S/C7H11NO/c1-4-3-6-5(2)7(9)8(4)6/h4-6H,3H2,1-2H3	InChI=1S/C7H11NO/c1-4-3-6-5(2)7(9)8(4)6/h4-6H,3H2,1-2H3/t4-,5+,6-/m0/s1
