16
gdb 50397	4.89786	0.90429	0.77063	2.6197	75.6	-0.2493	-0.0751	0.1742	1382.9085	0.124249	-437.931704	-437.923384	-437.92244	-437.96565	29.223	
O	 0.015203832	-0.0080787139	-0.1104438925	-0.336865
C	 0.046248786	 1.2059493331	-0.0920620199	 0.145222
N	 1.1865602897	 1.9370739839	-0.0580381055	-0.074668
C	 2.5030228682	 1.2965579196	-0.0412864838	-0.191725
C	 3.4252257236	 2.4756933315	-0.0063889033	-0.18096
C	 2.7512664957	 3.6325523543	-0.0036302464	 0.235059
C	 1.2609211497	 3.4010776614	-0.0366115199	-0.268737
C	 3.3431213368	 4.9711115794	 0.026909084	 0.077095
O	 2.6909227217	 5.99140961	 0.0282806203	-0.262345
H	-0.8622225243	 1.8404381358	-0.1011498771	 0.0781
H	 2.6200462194	 0.6377664664	 0.8305383372	 0.144972
H	 2.6546753916	 0.6628528023	-0.9262866633	 0.144973
H	 4.5041201092	 2.3761997078	 0.0136069964	 0.129453
H	 0.8008847625	 3.8566715052	-0.9229671163	 0.14036
H	 0.7654527909	 3.8325852195	 0.8426587028	 0.140377
H	 4.4543710774	 4.9904811538	 0.0494403872	 0.07969
42.0479	121.3726	144.9648	192.686	238.0882	284.1418	338.428	443.0983	453.0299	534.0894	741.842	774.6351	823.1008	868.0697	899.179	995.381	1013.0018	1024.5144	1038.6033	1059.5477	1183.7376	1184.1808	1193.6414	1243.0514	1286.747	1341.3565	1375.2002	1405.5549	1422.0671	1445.2853	1498.9157	1516.1107	1692.1219	1785.5897	1792.3821	2898.2406	2938.3408	3008.6767	3016.3128	3026.7306	3042.5152	3212.3786
O=CN1CC=C(C1)C=O	O=CN1CC=C(C1)C=O	
InChI=1S/C6H7NO2/c8-4-6-1-2-7(3-6)5-9/h1,4-5H,2-3H2	InChI=1S/C6H7NO2/c8-4-6-1-2-7(3-6)5-9/h1,4-5H,2-3H2
