16
gdb 48825	2.62443	1.59431	1.13438	3.1538	71.05	-0.2301	-0.0308	0.1994	1051.6973	0.124634	-437.898148	-437.890313	-437.889369	-437.930655	29.368	
O	-1.007468887	 1.4457489397	 0.0717660866	-0.28482
C	 0.104062309	 0.9965875785	 0.2456932456	 0.064204
C	 1.3430232868	 1.7576643006	 0.0039160735	 0.092515
C	 1.2686242874	 3.2973324195	-0.0483356434	-0.316612
C	 1.5773005773	 2.6082825124	-1.3034251141	-0.024139
N	 2.9566656941	 2.5184338602	-1.7105341854	-0.289312
C	 3.7121162263	 1.9050418259	-0.6054889135	-0.305779
C	 2.6864195385	 1.1891809824	 0.3038862947	 0.330221
O	 2.9367280462	 0.2923451745	 1.0714614774	-0.318924
H	 0.2652546619	-0.0445616767	 0.5912189577	 0.100196
H	 0.2528957291	 3.6558412707	 0.0777454097	 0.161175
H	 2.0401452371	 3.8585014278	 0.4673525047	 0.134799
H	 0.8331307738	 2.5678464495	-2.0895672737	 0.130743
H	 3.0189667651	 1.924785139	-2.529287101	 0.237649
H	 4.4601012904	 1.1986667438	-0.9696965638	 0.144101
H	 4.2446007342	 2.6619650922	-0.0152187851	 0.143984
101.4287	138.0199	174.1063	228.8119	264.3552	362.602	439.3539	512.7794	566.0325	591.554	651.2655	740.3223	757.1434	799.3908	867.6246	917.0845	970.1836	977.6408	1025.9002	1053.1248	1063.6357	1088.7762	1101.3937	1173.3413	1212.035	1264.2385	1296.027	1311.9825	1398.8042	1424.6022	1450.243	1478.304	1496.44	1787.4403	1827.0386	2931.9408	3030.4501	3119.4338	3137.2741	3198.2416	3234.6393	3542.8928
O=CC12CC1NCC2=O	O=C[C@]12C[C@H]1NCC2=O	
InChI=1S/C6H7NO2/c8-3-6-1-4(6)7-2-5(6)9/h3-4,7H,1-2H2	InChI=1S/C6H7NO2/c8-3-6-1-4(6)7-2-5(6)9/h3-4,7H,1-2H2/t4-,6-/m1/s1
