18
gdb 49975	3.71405	1.14914	1.02303	3.4959	78.55	-0.2456	-0.0231	0.2224	1189.2218	0.147893	-401.872975	-401.865349	-401.864405	-401.905405	29.632	
O	-0.3953976825	 0.5585307678	 0.7929393779	-0.264679
C	 0.2210863347	 0.8783823677	-0.193061431	 0.183302
C	 1.3972337125	 1.7869083779	-0.1846569	-0.264863
N	 2.3091654011	 1.6440496671	-1.3734875735	-0.427949
C	 1.5478985023	 2.8458281509	-1.2174080788	 0.469752
C	 0.6058107131	 3.5359282666	-2.2213228026	-0.123551
C	 0.4130604375	 4.6316211976	-1.1268130728	-0.215177
C	 1.9437060938	 4.3286400956	-1.1241488789	-0.14173
C	 1.8641087727	 4.3351057616	-2.6864193241	-0.222579
H	-0.0550834128	 0.517953527	-1.2088686425	 0.082324
H	 1.8340211899	 1.9685836591	 0.7944637899	 0.106709
H	 3.2749448428	 1.7613828663	-1.0747494526	 0.24217
H	-0.1573154306	 3.076105869	-2.8474857312	 0.087473
H	 0.1277300736	 5.6205439745	-1.4923273285	 0.098882
H	-0.1490464143	 4.3489424466	-0.2339523463	 0.107053
H	 2.7113813825	 4.7748807875	-0.4908884671	 0.079588
H	 2.6309280762	 3.7744539678	-3.2249891063	 0.105731
H	 1.6696896877	 5.3063971194	-3.1479445115	 0.097546
79.6416	131.7488	190.4576	251.1002	369.1909	381.6151	467.01	501.5649	609.5391	642.5311	779.377	794.6147	873.5134	893.58	901.4978	902.486	949.1593	984.8246	1018.586	1029.1573	1032.1321	1052.8742	1065.5652	1083.8391	1091.3416	1118.3849	1179.5272	1192.6697	1194.8988	1208.7617	1229.3035	1241.1243	1262.6494	1320.8221	1404.5658	1478.1844	1493.7856	1536.7663	1820.2115	2891.7215	3060.2389	3062.9807	3109.8111	3129.0707	3130.0873	3132.6397	3147.7011	3494.7161
O=CC1NC11C2CC1C2	O=C[C@H]1N[C@]21[C@H]1C[C@@H]2C1	
InChI=1S/C7H9NO/c9-3-6-7(8-6)4-1-5(7)2-4/h3-6,8H,1-2H2	InChI=1S/C7H9NO/c9-3-6-7(8-6)4-1-5(7)2-4/h3-6,8H,1-2H2/t4-,5+,6-,7-/m1/s1
