16
gdb 17877	3.26085	2.11273	1.94956	2.2259	63.44	-0.248	-0.0209	0.2271	774.4859	0.132382	-383.744203	-383.737745	-383.736801	-383.774758	25.154	
O	 0.0032767253	 0.0151577016	 0.1067381546	-0.30439
C	-0.0133826775	 1.2063819838	 0.0531580726	 0.426372
C	-1.0649577071	 2.320940467	-0.0211167244	-0.03255
C	-1.3076162562	 2.8572106864	 1.4055692558	-0.237665
C	-0.016808069	 3.558754642	 1.8959957693	-0.184187
C	 1.2767839202	 2.8915985003	 1.3664774312	-0.237665
C	 1.0054443788	 2.3484884702	-0.0524344412	-0.03255
O	-0.050196868	 3.1368567222	-0.6825283982	-0.294916
H	-1.9657177258	 2.1871323121	-0.6239111053	 0.103513
H	-2.143006953	 3.5640275572	 1.4136192335	 0.112857
H	-1.5908098504	 2.0206395496	 2.0555283699	 0.119032
H	-0.0360822384	 4.5857930586	 1.5252153923	 0.123853
H	-0.0010537939	 3.6158380402	 2.9877626655	 0.102897
H	 2.0929373082	 3.6203916281	 1.3495424967	 0.112857
H	 1.6016581565	 2.0631195306	 2.0072393211	 0.119032
H	 1.8908062203	 2.2384465802	-0.6822435835	 0.103513
123.248	203.4921	226.2222	419.073	449.8008	520.3306	521.5404	685.856	736.9708	801.2647	845.6884	850.2331	882.8529	901.4043	943.0479	993.3846	1035.83	1057.3359	1068.7369	1094.663	1109.1027	1181.6859	1219.3851	1257.7152	1282.7106	1292.6164	1315.3866	1339.7392	1365.4778	1376.7597	1483.1399	1488.7595	1501.9874	1920.49	3037.9423	3038.1378	3066.2471	3078.7296	3080.4304	3097.7575	3100.435	3113.3224
O=C1C2CCCC1O2	O=C1[C@H]2CCC[C@@H]1O2	
InChI=1S/C6H8O2/c7-6-4-2-1-3-5(6)8-4/h4-5H,1-3H2	InChI=1S/C6H8O2/c7-6-4-2-1-3-5(6)8-4/h4-5H,1-3H2/t4-,5+
