21
gdb 93954	3.97438	0.94513	0.82473	1.511	78.98	-0.2473	0.0808	0.3281	1444.2967	0.18259	-424.212176	-424.203181	-424.202237	-424.246861	33.198	
C	-0.2767358667	 1.3785791786	 0.1501908229	-0.414431
C	 0.1053777714	-0.0989303778	 0.1388728543	 0.0228
C	 0.8088745963	-0.5700968148	-1.1381868721	-0.069685
O	 1.4684187845	-1.7830484754	-0.7966770419	-0.275379
C	 1.7753749196	-1.7908530707	 0.6034430484	 0.093921
C	 1.1422932167	-0.5144105096	 1.1984562735	-0.266289
C	 1.2241691616	-3.068143239	 1.1964960189	 0.086598
C	 2.0439211049	-4.2759531146	 1.3213196948	-0.178871
O	 1.7710277916	-3.4521656229	 2.4593107878	-0.241006
H	 0.6075586426	 2.0131930385	 0.0213548723	 0.11709
H	-0.9791021657	 1.6150804166	-0.6562581083	 0.117179
H	-0.7527784601	 1.658110739	 1.095273328	 0.120708
H	-0.7993224434	-0.7066538314	 0.2700906202	 0.079993
H	 0.1258456375	-0.7781572643	-1.9678103857	 0.105839
H	 1.5368483665	 0.1870323835	-1.4763529419	 0.084369
H	 2.8649558496	-1.7930625971	 0.742484342	 0.075091
H	 1.9000426802	 0.2696900959	 1.3042977289	 0.101956
H	 0.7116366579	-0.6916485729	 2.187176293	 0.11873
H	 0.1416252283	-3.1838160239	 1.1151307238	 0.088781
H	 1.5683683798	-5.2553121035	 1.3285849156	 0.115722
H	 3.074993917	-4.2605637341	 0.9705065755	 0.116884
44.2975	65.8648	141.2302	209.5373	226.4738	288.334	312.3091	339.4324	424.3761	487.4597	579.2662	729.5722	806.6962	863.9675	868.2533	892.9599	928.3019	944.5502	961.3725	965.8433	1026.924	1051.3298	1079.9485	1102.9659	1125.1365	1153.2282	1157.8275	1168.354	1183.8496	1222.1493	1262.1205	1284.6465	1290.4687	1310.5644	1327.4603	1343.2447	1356.9659	1405.8586	1415.7351	1458.6713	1494.4041	1496.4965	1501.0718	1521.9206	1529.3523	2959.4112	3008.6572	3020.7626	3028.904	3049.5042	3074.3369	3084.7092	3094.925	3095.9493	3101.5511	3105.1431	3172.9993
CC1COC(C1)C1CO1	C[C@H]1CO[C@@H](C1)[C@H]1CO1	
InChI=1S/C7H12O2/c1-5-2-6(8-3-5)7-4-9-7/h5-7H,2-4H2,1H3	InChI=1S/C7H12O2/c1-5-2-6(8-3-5)7-4-9-7/h5-7H,2-4H2,1H3/t5-,6+,7-/m1/s1
