15
gdb 131797	6.72075	0.75875	0.68759	4.8373	63.41	-0.2564	-0.0012	0.2552	1525.9814	0.112314	-491.101249	-491.09266	-491.091715	-491.135834	30.031	
O	-0.1675083027	 1.4803095213	 0.0122034251	-0.420822
C	 0.0386944247	 0.0780283608	 0.0028869489	-0.07631
C	-1.3520031899	-0.5521095772	 0.0120227655	-0.310988
C	-1.3271362125	-2.0421349677	 0.0037684164	 0.426997
N	-0.2505382232	-2.7573243966	-0.0076891882	-0.177246
O	-0.6902325923	-4.1065013471	-0.0117825749	-0.234648
C	-2.0591686171	-4.1593859817	-0.0023483722	 0.510746
O	-2.7239720868	-5.1543718635	-0.0030455164	-0.389937
N	-2.4511983075	-2.8271048529	 0.0074866178	-0.426982
H	 0.6922882759	 1.9105825613	 0.0080917202	 0.293835
H	 0.5891728417	-0.2513433404	-0.8889953364	 0.116268
H	 0.6051271003	-0.2607824922	 0.881123467	 0.116348
H	-1.8981187867	-0.2017349751	 0.896701773	 0.142589
H	-1.9139427402	-0.1922936981	-0.8588466913	 0.1425
H	-3.4120455536	-2.5317278811	 0.0157226156	 0.287649
34.4208	81.985	128.8805	178.6651	250.0327	332.1728	335.0176	363.9022	469.0768	539.1734	647.1932	712.9219	768.1962	778.5194	807.171	927.1853	969.248	1012.7815	1044.8036	1080.9493	1094.9809	1194.6278	1219.0249	1219.2373	1264.7133	1303.7675	1345.1923	1459.6502	1473.8296	1502.55	1526.7159	1657.5802	1906.8538	3003.5995	3034.342	3034.5412	3072.2491	3686.5796	3837.6604
OCCC1=NOC(=O)N1	OCCc1noc(=O)[nH]1	
InChI=1S/C4H6N2O3/c7-2-1-3-5-4(8)9-6-3/h7H,1-2H2,(H,5,6,8)	InChI=1S/C4H6N2O3/c7-2-1-3-5-4(8)9-6-3/h7H,1-2H2,(H,5,6,8)
