21
gdb 126622	2.98472	1.07682	0.85039	2.5733	85.89	-0.2266	0.0279	0.2545	1428.6714	0.183376	-383.308484	-383.298937	-383.297993	-383.343856	34.435	
C	 0.049684145	 1.5341523235	 0.118839532	-0.380713
C	 0.0163890521	 0.0058273226	 0.0516816828	-0.172673
C	 0.6306684209	-0.529334741	-1.2474834554	-0.14402
N	 0.6579018371	-1.9798633386	-1.305075014	-0.010902
N	 1.6483158999	-2.6371975051	-0.6595763615	-0.275122
C	 1.3701019551	-3.9245678146	-0.836816369	-0.002509
C	 0.1965579348	-4.1050423131	-1.5932931796	-0.309113
C	-0.2443731882	-2.8254817982	-1.8790827137	 0.365275
C	-1.4355727945	-2.3589128812	-2.6516673495	-0.508545
H	 1.0766915008	 1.9112078837	 0.0614568965	 0.121417
H	-0.5149904849	 1.9848277695	-0.7052815232	 0.114099
H	-0.3849046407	 1.8961675479	 1.0549454608	 0.11995
H	 0.5699098793	-0.4267943176	 0.8916910427	 0.127508
H	-1.0163732706	-0.353730036	 0.137124146	 0.101377
H	 0.0759974244	-0.1613079781	-2.1162848419	 0.112839
H	 1.6645566159	-0.1855696351	-1.3430463671	 0.130339
H	 2.0263545392	-4.6751411545	-0.420486257	 0.105818
H	-0.2681749959	-5.0285523318	-1.9001677646	 0.095794
H	-2.1128949945	-1.7485152431	-2.0433928148	 0.134703
H	-1.1528848989	-1.76141902	-3.5264861119	 0.135811
H	-2.0002735663	-3.221967819	-3.0105003275	 0.138667
41.3139	86.8323	98.0948	132.4049	233.7678	240.8208	268.9027	303.6161	373.0245	433.8709	649.0839	661.3628	676.2272	750.1827	778.1938	787.1853	879.8245	884.2086	902.0541	939.9076	997.6636	1043.6107	1057.697	1063.2848	1085.226	1123.3618	1194.5603	1233.6855	1256.5255	1305.9927	1329.2741	1341.776	1368.3782	1404.2055	1413.9701	1418.0969	1440.4873	1475.9585	1482.9602	1485.0727	1493.1817	1500.5061	1509.7248	1518.8654	1585.3124	3026.844	3030.6207	3033.8587	3056.9944	3073.5442	3075.4462	3095.4732	3109.2933	3111.8868	3126.2229	3238.9751	3263.387
CCCN1N=CC=C1C	CCCn1nccc1C	
InChI=1S/C7H12N2/c1-3-6-9-7(2)4-5-8-9/h4-5H,3,6H2,1-2H3	InChI=1S/C7H12N2/c1-3-6-9-7(2)4-5-8-9/h4-5H,3,6H2,1-2H3
