18
gdb 90991	2.71501	1.8833	1.36419	3.2071	70.7	-0.2225	0.0602	0.2827	954.5231	0.149336	-439.02054	-439.013151	-439.012207	-439.051976	30.172	
O	-0.0639715306	 1.3823657053	-0.1048327782	-0.452534
C	 0.0423675902	-0.0349454466	 0.0028366164	 0.025528
C	 0.5326200731	-0.5683022369	 1.3768006721	-0.288401
C	-0.7260385264	-1.3009743175	 1.8438036654	 0.006386
C	-1.4111800767	-2.0005075772	 0.6300510761	-0.101478
N	-2.7549365332	-1.7551902981	 1.2788451993	-0.348677
C	-1.9764251048	-0.4717359143	 1.4619020255	-0.104028
C	-1.3772425837	-0.5801966667	 0.0055027003	 0.454685
O	-2.1618226502	-0.3271799833	-1.1101680129	-0.50332
H	 0.8154487455	 1.7496313323	-0.2336132525	 0.28943
H	 0.6247668085	-0.4367934092	-0.8378641904	 0.071466
H	 1.3987344286	-1.2316566879	 1.2892010693	 0.099819
H	 0.8010243358	 0.2609883146	 2.0387500132	 0.104743
H	-0.7359351623	-1.8269719923	 2.7960946329	 0.083983
H	-1.1509840941	-2.9507773376	 0.1589956165	 0.075055
H	-3.444210999	-1.6077562424	 0.5353480507	 0.216986
H	-2.3898694512	 0.4019220783	 1.9680197905	 0.078512
H	-2.0480227996	 0.6090795595	-1.3159663943	 0.291846
117.2112	231.8874	284.4041	317.0842	339.2686	387.7195	423.922	503.8908	519.2729	671.7654	690.7511	701.2835	782.3642	837.0204	878.2196	896.4102	922.9472	928.6549	987.9505	1018.9162	1043.841	1053.7422	1085.4676	1128.1017	1138.3626	1166.5592	1170.792	1200.894	1216.6748	1231.1745	1269.3109	1285.6566	1304.2815	1307.2965	1332.7837	1347.3447	1408.114	1432.047	1484.2408	3004.3737	3048.4773	3092.1775	3094.3266	3104.3143	3147.6635	3396.443	3785.713	3829.8927
OC1CC2C3NC2C13O	O[C@H]1C[C@@H]2[C@H]3N[C@@H]2[C@@]13O	
InChI=1S/C6H9NO2/c8-3-1-2-4-6(3,9)5(2)7-4/h2-5,7-9H,1H2	InChI=1S/C6H9NO2/c8-3-1-2-4-6(3,9)5(2)7-4/h2-5,7-9H,1H2/t2-,3-,4-,5+,6-/m0/s1
