23
gdb 58326	2.63069	0.80122	0.70924	2.9023	83.24	-0.2552	-0.0269	0.2283	1702.3496	0.201026	-425.435693	-425.424153	-425.423209	-425.473683	40.167	
C	-0.05768249	 1.4882982343	 0.1621906903	-0.3943
C	-0.0921369037	-0.0368440028	-0.007588731	 0.027645
C	-1.5384148579	-0.5534890044	-0.0421301373	-0.387946
C	 0.7234471783	-0.4641021341	-1.2434656713	 0.156493
C	 0.9108300514	-1.9784334002	-1.3687631919	-0.418059
O	 0.0677303162	 0.0801331227	-2.389697208	-0.26441
C	 0.8377998994	 0.1532659925	-3.558610297	-0.150398
C	 0.0876269731	 1.0080561508	-4.5670392429	 0.140423
O	 0.4452108891	 1.1684859767	-5.7032744984	-0.238362
H	 0.9706590969	 1.8584154251	 0.2393123023	 0.105032
H	-0.5295001315	 1.9816876507	-0.6922218235	 0.12547
H	-0.5910999934	 1.7920671796	 1.0682216278	 0.109757
H	 0.4152705269	-0.4874398703	 0.8564392975	 0.071385
H	-2.0582760217	-0.1841472182	-0.9305972166	 0.129801
H	-1.5859414339	-1.6461766968	-0.052130978	 0.11083
H	-2.0863995067	-0.2086302435	 0.8402310775	 0.109974
H	 1.7200989315	 0.0037351741	-1.163227986	 0.062534
H	 1.3500188777	-2.3836395581	-0.4517526325	 0.119045
H	-0.0446849738	-2.4787303554	-1.5470123529	 0.129919
H	 1.58370786	-2.2307403232	-2.1935639116	 0.117545
H	 1.8203389896	 0.6226269907	-3.3738311207	 0.118887
H	 1.0332112734	-0.8300463246	-4.0135639834	 0.124652
H	-0.8285415011	 1.4833677445	-4.1516242122	 0.094082
48.8859	52.9382	79.6462	86.5253	135.0922	204.8817	221.7199	234.7067	243.475	286.8583	322.1331	365.12	450.0139	489.7491	506.3206	634.2676	738.8227	774.097	886.029	930.5425	938.5906	965.7572	1006.8349	1035.9264	1054.0157	1109.9733	1114.3139	1146.4631	1167.3765	1179.7817	1212.96	1237.3727	1328.6253	1337.5408	1360.0177	1377.5493	1390.5856	1398.9632	1406.223	1410.924	1423.1994	1479.3479	1487.6305	1489.9342	1495.3005	1502.0168	1510.4001	1517.9432	1844.4781	2895.9079	2948.5269	2957.4054	3004.1706	3013.3427	3034.07	3042.4824	3045.3048	3098.1208	3106.7631	3109.3065	3116.1059	3121.491	3125.4294
CC(C)C(C)OCC=O	CC(C)[C@@H](C)OCC=O	
InChI=1S/C7H14O2/c1-6(2)7(3)9-5-4-8/h4,6-7H,5H2,1-3H3	InChI=1S/C7H14O2/c1-6(2)7(3)9-5-4-8/h4,6-7H,5H2,1-3H3/t7-/m1/s1
