17
gdb 71470	4.13054	1.2461	1.12557	5.1254	78.19	-0.2671	0.0049	0.272	1103.16	0.136654	-380.837583	-380.829945	-380.829001	-380.869443	29.756	
C	 0.0618745683	 1.5393217347	 0.0832970445	-0.496674
C	 0.0233152514	 0.0422560584	 0.0233070467	 0.332575
C	-1.2762393044	-0.7670804658	 0.2552954788	-0.284202
C	-0.3471943686	-1.7991771691	 0.8585220823	-0.069296
N	 0.7217560278	-0.8023646663	 1.1632780115	-0.203523
C	 0.9237943212	-1.8098199101	 0.0504383476	 0.217256
C	 0.8122789547	-0.7556293658	-1.038384388	-0.334852
C	 1.8788954356	-2.8702862648	 0.1354283249	 0.191901
N	 2.6452543956	-3.7362510515	 0.1690073443	-0.341956
H	 1.0930477374	 1.9049109322	 0.0657741095	 0.135203
H	-0.4680560519	 1.9680927437	-0.7751349314	 0.129128
H	-0.415499158	 1.9064526067	 0.9969256042	 0.133414
H	-1.8952581052	-0.3080698526	 1.030656853	 0.121587
H	-1.8921668085	-1.0284910068	-0.6103752618	 0.109168
H	-0.5727180629	-2.6061441535	 1.5458534771	 0.118474
H	 0.3152554733	-1.0138821374	-1.9778241253	 0.113025
H	 1.7865031641	-0.3032671118	-1.2375640479	 0.128773
132.4119	152.3118	198.419	280.5376	306.4463	411.2216	429.3446	507.5162	543.9821	579.0842	627.7757	743.0911	753.536	797.6939	860.8063	905.598	935.165	965.9927	1002.8571	1026.9563	1035.4758	1106.8615	1116.6097	1138.3224	1183.2201	1208.7545	1248.3141	1265.3298	1276.1658	1349.8516	1379.4027	1417.5748	1479.1788	1487.4711	1490.9476	1507.2038	2352.3689	3033.0429	3051.5261	3058.0473	3102.0136	3110.3538	3114.0434	3120.1347	3191.3373
CC12CC3N1C3(C2)C#N	C[C@]12C[C@@H]3N1[C@@]3(C2)C#N	
InChI=1S/C7H8N2/c1-6-2-5-7(3-6,4-8)9(5)6/h5H,2-3H2,1H3	InChI=1S/C7H8N2/c1-6-2-5-7(3-6,4-8)9(5)6/h5H,2-3H2,1H3/t5-,6+,7-,9?/m0/s1
