18
gdb 91600	2.24549	2.04338	1.45891	2.6463	71.	-0.263	0.021	0.284	960.8419	0.150106	-439.111954	-439.104665	-439.103721	-439.14358	28.999	
C	-0.1943704968	 1.5617131359	-0.0253150968	-0.413813
C	 0.0316428158	 0.0520906926	-0.0146927347	 0.024347
C	 0.938876669	-0.5091385761	-1.1579424577	-0.267019
C	 1.9454134928	-1.3309913962	-0.3333167042	 0.180646
O	 1.1907894407	-1.8188691106	 0.7488472056	-0.245599
C	 0.7883072439	-0.5165958458	 1.2229798357	-0.054865
C	 2.1436763609	 0.1605384993	 1.3102847275	 0.445432
N	 2.5243113341	 1.0492466718	 2.1174808822	-0.558682
O	 2.868573013	-0.3952551705	 0.2846752944	-0.258781
H	 0.7507146051	 2.111101199	 0.0109438316	 0.135587
H	-0.7292740901	 1.8631978656	-0.9311845064	 0.119156
H	-0.791992663	 1.8770292173	 0.8360062132	 0.125446
H	-0.9343172362	-0.4604151259	-0.043943094	 0.091243
H	 0.3864630514	-1.1483242204	-1.8500783798	 0.114911
H	 1.4426967778	 0.2740048555	-1.7285961439	 0.118649
H	 2.512589101	-2.120102488	-0.8222767293	 0.105816
H	 0.2360615626	-0.5827232594	 2.155875139	 0.111725
H	 3.486266988	 1.3321558558	 1.9202795776	 0.2258
123.3656	152.5612	216.5691	308.2364	397.14	420.752	456.157	525.2512	633.5141	688.6397	719.03	821.3962	844.7735	862.8795	882.7652	901.411	921.7661	933.8374	969.2026	1003.5434	1020.1969	1074.5604	1100.5427	1104.811	1133.331	1195.3507	1230.9924	1247.4008	1264.6087	1300.7823	1325.8638	1343.0435	1366.6085	1376.9809	1419.8193	1485.0565	1494.4556	1498.5279	1801.6202	3039.3687	3059.3104	3074.6397	3105.0827	3116.9174	3126.4178	3156.3837	3176.2765	3467.207
CC1CC2OC1C(=N)O2	C[C@H]1C[C@@H]2O[C@H]1[C]([NH])O2	
InChI=1S/C6H9NO2/c1-3-2-4-8-5(3)6(7)9-4/h3-5,7H,2H2,1H3	InChI=1S/C6H9NO2/c1-3-2-4-8-5(3)6(7)9-4/h3-5,7H,2H2,1H3/t3-,4+,5+/m0/s1
