17
gdb 124398	3.30981	1.14705	0.96934	2.2369	79.54	-0.2437	0.0195	0.2631	1233.9156	0.136405	-380.861481	-380.852852	-380.851908	-380.895639	32.047	
C	-0.0367664639	 1.5348459725	 0.0284725125	-0.385764
C	 0.0840882321	-0.0091099238	 0.0079219672	-0.257082
C	 0.6829158149	-0.4674645818	-1.2458930257	 0.328817
C	 1.1791487518	-0.8125851438	-2.2849391686	-0.473344
C	 0.8459084694	-0.5131828852	 1.2117640959	 0.348502
N	 0.1882493385	-0.7882492199	 2.336779165	-0.2948
N	 1.1494586605	-1.1504585841	 3.2080570854	-0.186319
C	 2.3923995613	-1.1203992499	 2.6706815343	-0.019507
C	 2.2386011708	-0.7063915438	 1.3658481768	-0.276262
H	 0.9527260147	 1.9972861087	-0.0214061877	 0.125933
H	-0.6251678221	 1.8848356262	-0.8239551524	 0.122314
H	-0.5247219667	 1.8517884159	 0.9536319687	 0.128477
H	-0.9288078291	-0.4234290208	 0.0813854182	 0.123503
H	 1.6088066115	-1.133466726	-3.2013117423	 0.193244
H	 0.8843386879	-1.42415351	 4.138641946	 0.274787
H	 3.2648381415	-1.3949743915	 3.2423436461	 0.133408
H	 3.0074932369	-0.5759136527	 0.6227968506	 0.114093
27.4235	115.747	167.7522	196.2416	240.2263	332.3879	379.4492	464.5753	503.8572	541.7992	623.6834	634.8884	663.7753	702.5601	739.4084	777.0034	850.4552	872.5798	948.4113	977.7787	1009.5072	1067.1725	1075.5738	1104.3057	1121.0267	1196.9678	1292.8534	1302.0181	1321.5981	1398.0494	1407.945	1469.8368	1489.6229	1492.913	1498.7435	1570.2998	2236.6722	3036.2916	3045.1804	3124.2159	3129.2447	3259.495	3282.5282	3505.0516	3677.947
CC(C#C)C1=NNC=C1	C[C@@H](C#C)c1n[nH]cc1	
InChI=1S/C7H8N2/c1-3-6(2)7-4-5-8-9-7/h1,4-6H,2H3,(H,8,9)	InChI=1S/C7H8N2/c1-3-6(2)7-4-5-8-9-7/h1,4-6H,2H3,(H,8,9)/t6-/m0/s1
