17
gdb 13336	6.37325	1.10534	0.99564	3.6174	73.48	-0.2498	0.0089	0.2587	1168.5363	0.142923	-363.871158	-363.86341	-363.862465	-363.904694	27.783	
N	-0.1215508323	 1.3323682526	 0.0431573508	-0.446784
C	-0.0710287841	 0.0729324021	 0.1178583089	 0.124666
O	-0.9620500295	-0.6825586352	-0.5474932743	-0.191203
C	-0.9175792819	-2.1051387885	-0.3561473154	 0.095778
C	-2.0869119499	-2.6016025786	 0.5277586312	-0.238027
C	-2.6181515164	-3.8830921323	-0.1624799274	-0.25726
C	-2.043665243	-3.7852195262	-1.5552036072	-0.06095
C	-1.1294168322	-2.8243623065	-1.6625171258	-0.081272
H	 0.6320519703	 1.7408122407	 0.5919251019	 0.226318
H	 0.6621082017	-0.5162563417	 0.6885579987	 0.080473
H	 0.0624377778	-2.3572481441	 0.0766087554	 0.082923
H	-1.7920836047	-2.7623702161	 1.5674476187	 0.100701
H	-2.8518154147	-1.8204249115	 0.5156102344	 0.132281
H	-2.259688315	-4.7913248285	 0.3403227268	 0.112349
H	-3.7120748269	-3.94444845	-0.1592203965	 0.112462
H	-2.3371592733	-4.4573581695	-2.3541276626	 0.102038
H	-0.5579443359	-2.5725196069	-2.5477373375	 0.105507
31.0573	76.9368	119.5951	226.3698	349.3992	375.7993	428.8674	576.0324	691.9328	760.6645	786.0259	815.3091	848.3315	905.3507	925.676	969.4569	985.9835	1019.0386	1042.8703	1062.4765	1079.9108	1115.6631	1141.9882	1180.359	1231.6906	1285.0641	1297.5831	1305.657	1330.6007	1361.9682	1393.2273	1429.1896	1480.6617	1498.1563	1690.3666	1743.1564	2980.7096	3005.8963	3019.9479	3057.6264	3069.3143	3115.7609	3189.2846	3217.5474	3517.3865
N=COC1CCC=C1	[NH][CH]O[C@H]1CCC=C1	
InChI=1S/C6H9NO/c7-5-8-6-3-1-2-4-6/h1,3,5-7H,2,4H2	InChI=1S/C6H9NO/c7-5-8-6-3-1-2-4-6/h1,3,5-7H,2,4H2/t6-/m1/s1
