21
gdb 103608	2.63639	1.19795	1.03012	2.289	78.84	-0.2429	-0.0268	0.2161	1274.442	0.1798	-424.237834	-424.227549	-424.226605	-424.272857	37.6	
C	 0.1456392722	 1.4473374575	 0.2395198227	-0.396737
C	-0.0295468945	-0.0567167146	-0.0035990108	-0.229456
C	-1.4858256801	-0.5416108127	-0.0348830808	 0.204556
C	-2.3178312231	 0.122191346	-1.1417201169	-0.451253
C	-1.6964564956	-2.1005417032	 0.0075013518	-0.32836
C	-2.7964943255	-1.9349843752	 1.11511984	 0.076415
O	-2.8473158321	-2.7879429463	 2.2191222832	-0.440212
C	-2.1920048807	-0.5493794548	 1.3368184366	 0.314951
O	-2.0349430291	 0.0664232211	 2.3583279916	-0.326615
H	 1.2080841911	 1.6986655366	 0.3140065156	 0.113823
H	-0.2741852216	 2.0462036184	-0.5743679598	 0.114899
H	-0.3407343623	 1.7463426085	 1.1716931917	 0.146264
H	 0.4475749581	-0.3427389254	-0.9506537706	 0.097833
H	 0.4994986678	-0.6069683868	 0.7838128747	 0.099567
H	-1.8623502476	-0.0756132904	-2.118615382	 0.123643
H	-3.3411866084	-0.2638433155	-1.1686201794	 0.121182
H	-2.374970426	 1.2054414808	-1.0067613904	 0.133763
H	-2.0188044161	-2.5747004415	-0.920788794	 0.108619
H	-0.8220336703	-2.6188369433	 0.4076996444	 0.115652
H	-3.7875483078	-1.8807063726	 0.6466926425	 0.106584
H	-2.4724404682	-2.3032441765	 2.9657591299	 0.29488
71.062	101.2276	148.9654	169.1045	211.1447	221.163	248.4515	273.6268	302.0456	323.4685	374.222	399.5358	549.4075	577.7713	738.8638	752.8544	774.6557	820.9688	893.801	922.3725	952.7653	986.2324	1014.181	1038.5221	1049.764	1098.0569	1149.7218	1154.4687	1175.5046	1222.9803	1247.8642	1275.9447	1324.4303	1340.623	1368.5416	1404.916	1408.4556	1412.6094	1476.3207	1483.9621	1495.4744	1496.7089	1508.4335	1512.7544	1851.3167	3015.5722	3025.6337	3033.7436	3043.0868	3053.6117	3072.3446	3100.0764	3105.2944	3117.0907	3127.2021	3136.6822	3767.329
CCC1(C)CC(O)C1=O	CC[C@@]1(C)C[C@@H](O)C1=O	
InChI=1S/C7H12O2/c1-3-7(2)4-5(8)6(7)9/h5,8H,3-4H2,1-2H3	InChI=1S/C7H12O2/c1-3-7(2)4-5(8)6(7)9/h5,8H,3-4H2,1-2H3/t5-,7+/m1/s1
