17
gdb 34006	3.10741	1.40674	1.18294	0.7549	80.94	-0.2319	0.0022	0.234	1076.035	0.135592	-384.638469	-384.630576	-384.629632	-384.670651	31.02	
C	-0.0193135147	-1.1822060605	-0.0984596966	-0.448265
C	-0.0175465475	 0.0199834706	-0.0484508307	 0.262655
C	-0.0301889891	 1.4560273322	 0.0104945552	 0.084534
C	 0.4881604758	 2.2171276813	-1.2214525753	-0.331054
C	 1.3022220388	 2.1917924648	 0.0346342888	 0.062909
O	 1.3813743447	 3.3813084307	 0.7579507341	-0.26002
C	 0.647354158	 3.4062663307	 1.9778878047	-0.128672
C	-0.7773293843	 2.9457307399	 1.8053723896	-0.074862
C	-1.0961688539	 2.0618432259	 0.8639023604	-0.1533
H	-0.0177702683	-2.243057635	-0.1393141506	 0.192165
H	 0.8110196921	 1.6230544494	-2.0683803913	 0.125079
H	-0.0075603718	 3.1526188945	-1.4523148275	 0.129819
H	 2.2073227169	 1.5888550965	 0.0630747377	 0.104765
H	 1.1541867724	 2.8011895628	 2.7488396073	 0.109417
H	 0.6807467396	 4.4472889966	 2.3131585032	 0.120448
H	-1.5290457546	 3.3657349697	 2.466704119	 0.101431
H	-2.1162044542	 1.7248426099	 0.7088895821	 0.102951
111.6099	141.4703	186.0533	229.6457	387.8375	424.2804	482.3624	502.0272	522.6107	559.1506	585.2699	644.3886	654.4464	719.2808	800.8356	858.801	907.9366	920.8518	940.1518	986.8907	1004.2577	1039.561	1051.1227	1064.5578	1113.5958	1182.257	1193.0015	1240.0142	1266.912	1296.7438	1359.6351	1408.9732	1413.3165	1463.9202	1493.4713	1713.633	2232.6074	2962.3373	3078.3928	3127.8581	3142.6514	3167.4943	3189.0887	3243.1431	3503.7793
C#CC12CC1OCC=C2	C#C[C@]12C[C@H]1OCC=C2	
InChI=1S/C8H8O/c1-2-8-4-3-5-9-7(8)6-8/h1,3-4,7H,5-6H2	InChI=1S/C8H8O/c1-2-8-4-3-5-9-7(8)6-8/h1,3-4,7H,5-6H2/t7-,8+/m1/s1
