15
gdb 130170	3.50339	1.61209	1.1065	3.118	73.73	-0.1827	0.0375	0.2202	1020.3128	0.116803	-413.011174	-413.003887	-413.002942	-413.042392	28.895	
N	-0.0384788059	 1.3754609869	 0.1540339414	-0.589972
C	 0.0558011033	-0.0094936498	 0.0391793919	 0.221499
N	-1.0312653163	-0.7642745564	 0.0240577512	-0.316667
N	-0.5886975429	-2.0874497264	 0.0691326465	-0.372328
C	 0.7682966597	-2.0968340007	-0.0321804601	 0.435675
C	 1.2490798532	-0.7962612684	 0.0031075318	 0.225788
C	 2.6804379071	-0.8879253228	 0.0174513497	-0.360304
C	 2.9861755046	-2.223653187	-0.0138511803	-0.05797
N	 1.8068620003	-2.9794695711	-0.0297154912	-0.413722
H	 0.6365355154	 1.8690037558	-0.4145961388	 0.244205
H	-0.9777186343	 1.7004988619	-0.038871759	 0.247728
H	-1.2272388474	-2.77625935	-0.2906806702	 0.258443
H	 3.4010800017	-0.0859801909	 0.0521579935	 0.096756
H	 3.9415167009	-2.7233566155	-0.0308859913	 0.119248
H	 1.7597663005	-3.9805729356	-0.0845271851	 0.261621
189.486	236.5598	260.338	307.1475	321.7485	337.7215	431.4802	538.0836	601.8811	627.9262	638.8682	682.2117	692.4084	738.3295	784.4745	809.1456	840.3293	928.3901	1026.6605	1059.9052	1086.4231	1164.3274	1173.6916	1241.3596	1321.033	1358.9301	1402.1711	1489.2725	1522.6178	1540.9082	1582.1825	1631.2826	1651.5461	3248.8924	3270.0061	3537.9861	3636.7984	3662.7648	3695.2334
NC1=NNC2=C1C=CN2	Nc1n[nH]c2c1cc[nH]2	
InChI=1S/C5H6N4/c6-4-3-1-2-7-5(3)9-8-4/h1-2H,(H4,6,7,8,9)	InChI=1S/C5H6N4/c6-4-3-1-2-7-5(3)9-8-4/h1-2H,(H4,6,7,8,9)
