17
gdb 26951	3.0731	1.38129	1.03576	0.4488	76.54	-0.2228	0.0075	0.2303	1154.8888	0.136776	-418.014112	-418.006078	-418.005134	-418.047305	29.555	
C	 0.1228725442	 1.5043473597	 0.2325865305	-0.499518
C	-0.0052285204	 0.0473552574	 0.0014441156	 0.257133
C	-1.0569541838	-0.7861753748	-0.2087008196	 0.223277
N	-0.5907031627	-2.0919472335	-0.3697588732	-0.312096
C	 0.6894356591	-1.9828941441	-0.2514441212	 0.063348
O	 1.1323752833	-0.7266622522	-0.0256063171	-0.179935
N	-2.4094007951	-0.4086148328	-0.2588780345	-0.196313
C	-3.2721106893	-1.1524962342	-1.192282626	-0.223197
C	-3.3882334596	-1.3741126784	 0.2689868068	-0.223202
H	 0.5893157865	 1.7228734399	 1.1998791699	 0.137446
H	 0.7282277035	 1.987095337	-0.5429793048	 0.137447
H	-0.8765620651	 1.9438087769	 0.2194875794	 0.156516
H	 1.4376703593	-2.7581607263	-0.309559816	 0.147326
H	-4.0028490269	-0.5446002431	-1.7174400682	 0.117639
H	-2.8040397202	-1.9405037167	-1.7745789905	 0.138243
H	-2.9973562651	-2.3094543642	 0.6581700563	 0.138241
H	-4.2053572377	-0.9310540607	 0.8305157028	 0.117644
52.7905	157.0045	173.7411	185.849	241.3737	277.388	449.2433	493.0262	590.619	646.6604	706.1992	756.9149	824.9186	827.2638	850.8649	915.4773	953.8713	973.2764	1043.4389	1070.4511	1105.53	1113.1358	1135.2413	1148.8631	1169.2946	1184.02	1218.2178	1256.2738	1337.3495	1378.97	1421.4346	1477.6583	1478.1982	1486.7239	1505.156	1568.4567	1690.0303	3030.7853	3081.3847	3115.0618	3117.7379	3137.9715	3203.2027	3217.3375	3269.3789
CC1=C(N=CO1)N1CC1	Cc1c(nco1)N1CC1	
InChI=1S/C6H8N2O/c1-5-6(7-4-9-5)8-2-3-8/h4H,2-3H2,1H3	InChI=1S/C6H8N2O/c1-5-6(7-4-9-5)8-2-3-8/h4H,2-3H2,1H3
