17
gdb 7172	7.23352	0.84355	0.79269	6.0703	66.36	-0.2809	0.0362	0.317	1403.6782	0.140331	-400.999914	-400.99062	-400.989675	-401.034575	31.816	
C	 0.059487067	 1.3367557456	-0.050894909	-0.233351
O	 0.0836009679	-0.0734294424	-0.0026154244	-0.250014
C	 0.5969939045	-0.589880746	 1.2064147381	-0.083854
C	 0.6780146364	-2.1042132116	 1.0199972349	 0.121988
O	 1.4618136492	-2.4166651531	-0.1102160975	-0.431543
C	 1.332991476	-2.7775934576	 2.2333833952	-0.345729
C	 1.2862858261	-4.2360875025	 2.160663812	 0.273151
N	 1.2373555435	-5.3894175454	 2.1220240162	-0.304535
H	 1.067813947	 1.7627164067	 0.061776508	 0.114045
H	-0.3414335253	 1.6215690668	-1.0260242204	 0.136497
H	-0.5847484153	 1.7559305338	 0.7361904676	 0.113854
H	 1.6020144674	-0.1813754876	 1.4056984646	 0.095459
H	-0.0559152575	-0.3301613781	 2.0558612278	 0.093509
H	-0.3473024005	-2.4897523451	 0.9049848992	 0.095674
H	 1.1460480781	-1.8423859222	-0.8190438255	 0.296287
H	 2.379537264	-2.4594862715	 2.2936546843	 0.15964
H	 0.8320355915	-2.4591474498	 3.1544172688	 0.14892
54.2425	95.969	99.383	132.1403	205.7868	232.7037	320.8097	379.6093	389.5815	409.6087	441.5815	490.7526	616.6715	875.8876	914.2104	929.7025	998.6754	1045.634	1100.5717	1133.1823	1167.0432	1183.3977	1221.4973	1225.4682	1267.1501	1295.8357	1317.1868	1379.2367	1407.8822	1447.6528	1454.1155	1479.0719	1486.6947	1498.575	1521.1117	2368.8373	2957.9797	2980.1796	2984.2862	3003.959	3033.1914	3047.6074	3093.0124	3123.6176	3786.8906
COCC(O)CC#N	COC[C@@H](O)CC#N	
InChI=1S/C5H9NO2/c1-8-4-5(7)2-3-6/h5,7H,2,4H2,1H3	InChI=1S/C5H9NO2/c1-8-4-5(7)2-3-6/h5,7H,2,4H2,1H3/t5-/m0/s1
