13
gdb 132396	1.9585	1.80169	0.93841	2.4859	63.97	-0.2382	-0.0061	0.2321	1113.1993	0.090037	-497.929148	-497.922132	-497.921188	-497.960567	27.5	
O	 0.0369242176	 1.3661962849	-0.130922728	-0.429684
C	 0.0529296696	 0.0181209724	-0.0379447134	 0.468906
C	 0.0126729836	-0.7110243667	-1.2309097082	-0.390557
C	 0.0302008475	-2.0871493419	-1.1058950961	 0.359572
F	-0.0064987263	-2.8235733447	-2.2106399998	-0.070139
N	 0.0809530197	-2.7649587079	 0.0260147248	-0.43183
C	 0.1183728816	-2.0443035139	 1.1449222728	 0.465659
O	 0.1703507397	-2.7203495069	 2.308376265	-0.417349
C	 0.1070886668	-0.6514976529	 1.1825695096	-0.388939
H	 0.0681229604	 1.7486286275	 0.7528715191	 0.30571
H	-0.0296822973	-0.222015158	-2.1934746189	 0.122611
H	 0.1697538528	-3.6586621941	 2.0743387257	 0.303189
H	 0.1396637242	-0.1300559479	 2.1317237773	 0.102852
208.6417	214.8722	256.3442	339.3156	346.6205	429.4232	521.4035	523.3274	524.7655	601.5059	619.6827	665.7722	685.9369	752.4219	822.4575	837.0236	1001.4607	1017.956	1069.9948	1166.2019	1188.1988	1238.0239	1282.4304	1378.1687	1451.3787	1507.07	1523.5624	1647.1287	1671.5473	3199.494	3237.8378	3774.7667	3816.7851
OC1=CC(F)=NC(O)=C1	Oc1cc(F)nc(O)c1	
InChI=1S/C5H4FNO2/c6-4-1-3(8)2-5(9)7-4/h1-2H,(H2,7,8,9)	InChI=1S/C5H4FNO2/c6-4-1-3(8)2-5(9)7-4/h1-2H,(H2,7,8,9)
