16
gdb 98873	4.32578	1.02834	0.93431	1.408	66.08	-0.2539	-0.005	0.2489	1254.6875	0.124681	-475.061395	-475.052841	-475.051897	-475.09612	29.213	
C	 0.5964018258	 1.3862614926	 0.0345829697	-0.242075
O	 0.5560366359	-0.0479978705	 0.011065555	-0.225333
C	 0.1225269784	-0.5930722324	-1.1322190123	 0.458944
O	-0.2649686747	 0.0360098263	-2.0847751888	-0.359226
C	 0.2097283352	-2.1180369057	-1.067827538	-0.109043
C	-0.6515586163	-2.8083358161	-2.1503100609	-0.124183
O	 0.3087670941	-3.5673395242	-2.9293654647	-0.213572
C	 1.5106199124	-3.2837370769	-2.3918448785	 0.130655
N	 1.601639725	-2.5244816757	-1.3787122364	-0.273463
H	 1.2659850534	 1.7621338226	-0.742724703	 0.146313
H	-0.4014516876	 1.8013168282	-0.127204156	 0.141875
H	 0.9684085012	 1.6551597217	 1.0228230243	 0.137917
H	-0.0329102144	-2.4328984472	-0.0489045697	 0.11108
H	-1.3882042592	-3.5057623505	-1.7473948962	 0.122592
H	-1.1330504281	-2.0820370193	-2.80790881	 0.148869
H	 2.349448219	-3.7599725129	-2.8873426046	 0.148651
40.0881	73.3354	116.0108	138.0995	212.9983	275.8561	329.7543	389.4171	503.1319	659.7735	749.6278	785.4386	863.798	894.227	953.4589	964.9775	975.2067	999.1127	1052.036	1079.4978	1151.8794	1178.4125	1205.7566	1228.6823	1238.6598	1275.7281	1312.9017	1369.8901	1386.1763	1474.4069	1482.7409	1495.5059	1509.2699	1695.533	1820.8636	3054.604	3065.8705	3077.579	3130.7413	3135.1052	3164.0114	3218.4867
COC(=O)C1COC=N1	COC(=O)[C@H]1COC=N1	
InChI=1S/C5H7NO3/c1-8-5(7)4-2-9-3-6-4/h3-4H,2H2,1H3	InChI=1S/C5H7NO3/c1-8-5(7)4-2-9-3-6-4/h3-4H,2H2,1H3/t4-/m1/s1
