20
gdb 86066	2.74878	1.16231	0.84694	4.6698	89.12	-0.2477	-0.0319	0.2158	1381.4805	0.171019	-366.067193	-366.057891	-366.056947	-366.101254	34.441	
C	-0.7421096305	 1.2839468764	-0.0075062718	-0.406648
C	 0.1816724667	 0.0680376702	 0.0133622859	 0.035031
C	 1.1705512313	-0.0155364408	-1.1766516105	-0.307012
C	 2.3853529106	-0.7108826892	-0.6080197118	 0.234574
C	 3.4764834025	-1.2472643586	-1.4723340394	-0.511603
C	 2.3304696788	-0.7165281137	 0.7371652439	 0.115216
C	 1.085928278	-0.0302932538	 1.269492715	-0.326129
C	 3.332832609	-1.250061248	 1.5905423741	 0.191753
N	 4.1368067654	-1.682353821	 2.3055129055	-0.353163
H	-0.1659744932	 2.2159415061	 0.0214171589	 0.116986
H	-1.3574372965	 1.299453552	-0.9131828601	 0.117188
H	-1.418626193	 1.2835808634	 0.8534102121	 0.119719
H	-0.4335673529	-0.8396586985	-0.0135889083	 0.085759
H	 0.752139808	-0.5418951258	-2.0424208587	 0.110592
H	 1.4549222019	 0.9855861794	-1.5368951431	 0.113827
H	 3.9019605583	-0.4503560054	-2.0952870944	 0.137598
H	 4.281210967	-1.693355031	-0.8837411741	 0.152668
H	 3.0863626823	-2.0053710447	-2.1626517961	 0.136766
H	 1.3386697684	 0.964184071	 1.6634478621	 0.11657
H	 0.614190078	-0.5812914579	 2.0888337709	 0.120306
78.3999	136.7976	145.2559	168.3289	236.8621	245.414	262.873	364.1038	412.2096	440.8618	496.4486	528.3226	609.4531	620.8656	730.2666	842.6118	897.2218	925.4275	939.3338	957.765	1016.5467	1069.803	1073.9059	1114.433	1156.5176	1167.4789	1195.9243	1234.1088	1238.3574	1306.8771	1337.9495	1352.6961	1375.4628	1413.2842	1415.7439	1476.585	1479.2231	1479.8639	1494.5785	1497.7997	1501.1354	1693.6602	2328.5724	2991.5789	3011.7549	3022.7604	3025.2901	3029.6658	3056.176	3070.2798	3077.668	3096.4498	3100.5108	3127.0277
CC1CC(C)=C(C1)C#N	C[C@H]1CC(=C(C1)C#N)C	
InChI=1S/C8H11N/c1-6-3-7(2)8(4-6)5-9/h6H,3-4H2,1-2H3	InChI=1S/C8H11N/c1-6-3-7(2)8(4-6)5-9/h6H,3-4H2,1-2H3/t6-/m0/s1
