20
gdb 65724	3.92626	0.98165	0.92659	3.369	79.42	-0.2371	-0.0205	0.2166	1310.6252	0.169507	-403.111491	-403.10253	-403.101586	-403.145439	33.781	
C	-0.1001332818	 1.5368891874	 0.1630711858	-0.455371
C	 0.0432988951	 0.0253066054	 0.0068835813	 0.32365
C	-1.2951215308	-0.6458331836	-0.3438726006	-0.340323
C	-1.8902012828	-0.1650919499	-1.649149947	 0.162747
O	-3.0360958178	 0.1746426108	-1.7979728585	-0.2445
C	 1.2324831819	-0.4858656451	-0.9102071358	-0.281896
C	 1.8113064479	-1.2130267012	 0.3050189992	-0.037689
N	 2.0881085766	-0.1645160621	 1.317409065	-0.340461
C	 0.720626079	-0.7146519562	 1.1830368992	-0.091113
H	 0.8435282286	 1.9699558991	 0.5011395211	 0.141783
H	-0.3793729216	 2.0117959537	-0.7843313101	 0.117209
H	-0.8778524846	 1.7822935953	 0.8955026794	 0.114819
H	-1.1394203214	-1.731606013	-0.4357435238	 0.11601
H	-2.0371061736	-0.4845156616	 0.4455186107	 0.117395
H	-1.1794283654	-0.1517901228	-2.5078653863	 0.075285
H	 0.8985209985	-1.159924733	-1.7022394632	 0.100333
H	 1.8770637772	 0.2865752644	-1.3364591021	 0.110133
H	 2.3471457329	-2.1538571221	 0.3237442613	 0.094421
H	 2.5159023947	-0.6243174189	 2.1207291964	 0.230009
H	 0.2231347074	-1.1830826163	 2.0250863179	 0.087562
58.9692	101.5739	161.3425	198.6306	236.0516	285.1111	321.6757	373.9941	431.1285	469.9738	559.2144	652.505	758.4905	807.5513	817.3488	842.6465	853.3445	929.1636	953.4326	956.7662	976.1717	1003.35	1019.1519	1061.3042	1087.0837	1110.1766	1148.0146	1156.8328	1173.3416	1226.2814	1243.5146	1275.9703	1303.4883	1316.8234	1334.7805	1381.8116	1409.3739	1434.8323	1457.8033	1478.7995	1486.809	1505.4888	1831.6219	2861.36	3001.8899	3028.686	3064.2129	3078.8885	3088.1217	3120.1084	3130.1427	3171.9342	3193.3005	3474.6527
CC1(CC=O)CC2NC12	C[C@@]1(CC=O)C[C@H]2N[C@@H]12	
InChI=1S/C7H11NO/c1-7(2-3-9)4-5-6(7)8-5/h3,5-6,8H,2,4H2,1H3	InChI=1S/C7H11NO/c1-7(2-3-9)4-5-6(7)8-5/h3,5-6,8H,2,4H2,1H3/t5-,6-,7-/m1/s1
