19
gdb 41234	3.27079	1.83866	1.72252	1.947	76.98	-0.2435	0.076	0.3195	877.6401	0.163506	-385.843213	-385.837217	-385.836273	-385.87309	26.653	
C	 0.0671156909	 1.5093491115	-0.1228576429	-0.210712
O	 1.5104455155	 1.4798846209	 0.1254162359	-0.323076
C	 1.2986071288	 0.2437778802	 0.8868408648	 0.170468
C	 1.9248804775	-1.1265753101	 0.8109738573	-0.136021
C	 0.6518924827	-2.0135482486	 0.9303383239	-0.055924
C	-0.6306051304	-1.1289103531	 0.9166207126	-0.330326
C	 0.026372658	-0.0164793273	 0.0913052933	 0.247742
C	 0.5532208361	-0.7900913232	-1.1498366298	-0.244447
C	 1.3606130726	-1.8325535953	-0.3967049899	-0.059505
H	-0.452717177	 2.0989319789	 0.6438014104	 0.100397
H	-0.1668684462	 1.8962750614	-1.1184546117	 0.107751
H	 1.1176098558	 0.5261709583	 1.9340330129	 0.070315
H	 2.84420274	-1.4262393186	 1.29636363	 0.086352
H	 0.6904645298	-2.9477656418	 1.4748422419	 0.087519
H	-1.4670315654	-1.6440466903	 0.4339962251	 0.0987
H	-0.9395804457	-0.8079974999	 1.9151949774	 0.102128
H	-0.2691444285	-1.21682902	-1.735013531	 0.09062
H	 1.17062222	-0.1649120114	-1.7979378107	 0.11402
H	 1.8878007357	-2.6425715916	-0.8837051594	 0.083997
280.9723	314.7067	373.6248	432.2679	469.3882	555.0948	662.6262	714.2532	740.7554	797.5897	804.4921	832.7288	881.1554	898.7312	921.5076	938.0703	950.5353	974.0687	985.6653	996.5992	1035.299	1049.4783	1058.5062	1069.0439	1087.7785	1117.7265	1150.0188	1171.044	1203.9447	1241.6078	1259.2467	1274.0166	1285.9872	1295.7606	1316.3707	1342.2923	1367.0697	1404.5938	1483.4902	1503.0962	1516.0952	2995.0905	3016.3479	3042.5754	3051.155	3091.0323	3099.65	3113.2026	3194.7111	3198.9081	3211.0577
C1OC2C3C4CC12CC34	C1O[C@@H]2[C@H]3[C@H]4C[C@@]12C[C@@H]34	
InChI=1S/C8H10O/c1-4-5-2-8(1)3-9-7(8)6(4)5/h4-7H,1-3H2	InChI=1S/C8H10O/c1-4-5-2-8(1)3-9-7(8)6(4)5/h4-7H,1-3H2/t4-,5+,6-,7-,8+/m1/s1
