24
gdb 60462	4.80154	0.58159	0.56092	0.9642	87.94	-0.2326	0.0864	0.319	2095.6366	0.215154	-405.513659	-405.502804	-405.501859	-405.550962	38.848	
C	 0.3066298519	 1.4318101754	 0.508119096	-0.392829
C	 0.0458691441	 0.024514735	-0.037921377	 0.164298
C	 1.0373071935	-0.995509009	 0.5117314795	-0.38716
O	-1.2505351719	-0.4506888172	 0.3072624915	-0.259954
C	-2.3197234427	 0.136046552	-0.4010472822	-0.058697
C	-3.5892099767	-0.6251246206	-0.0350131734	-0.155771
N	-4.7386243235	-0.0362306294	-0.7093465749	-0.066278
C	-5.0771445639	-0.5954400451	-2.0157410442	-0.21952
C	-5.9205147561	-0.881030486	-0.8228941599	-0.217962
H	 1.3180671265	 1.7602228335	 0.2481732863	 0.112706
H	-0.3945624819	 2.1639601295	 0.0980142182	 0.11804
H	 0.2104524421	 1.4371524859	 1.5987871408	 0.120896
H	 0.1304047882	 0.049970983	-1.1384229172	 0.06102
H	 0.9633966933	-1.0458383454	 1.6028409372	 0.121855
H	 0.82462724	-1.9892695266	 0.1090065113	 0.118378
H	 2.0627269888	-0.7212795925	 0.2468882626	 0.110491
H	-2.4526860167	 1.1981954417	-0.1493654708	 0.10016
H	-2.1431861526	 0.0770710277	-1.4887614117	 0.082439
H	-3.4527860654	-1.6938470902	-0.2776102449	 0.085183
H	-3.746114865	-0.5541730701	 1.0470151861	 0.111548
H	-5.4040503906	 0.1167174963	-2.7679073154	 0.11595
H	-4.4630886495	-1.4114622703	-2.394853785	 0.109268
H	-5.8701212985	-1.887583513	-0.4100793576	 0.109684
H	-6.8749374434	-0.3804130044	-0.6864983454	 0.116256
34.6908	54.5068	97.4937	122.0557	137.1197	203.4224	237.7453	264.3294	276.2983	379.1895	399.5162	423.7449	477.0482	529.7374	770.5564	818.9634	828.6379	856.5105	899.4343	925.5383	936.3919	950.2459	1021.9828	1039.7444	1087.3019	1113.3827	1116.9044	1119.4807	1141.4948	1154.7524	1171.4073	1182.2116	1197.874	1203.682	1251.6336	1305.5276	1326.3226	1338.7179	1367.7106	1379.0143	1398.0931	1414.5722	1441.3277	1479.6101	1485.641	1489.4913	1495.4238	1499.2398	1509.9591	1524.473	1529.5123	2948.0744	2949.1863	2960.2587	3012.7277	3037.4044	3042.4989	3067.1914	3092.3372	3097.2077	3107.6058	3113.7469	3116.2021	3121.8512	3175.7864	3190.1521
CC(C)OCCN1CC1	CC(C)OCCN1CC1	
InChI=1S/C7H15NO/c1-7(2)9-6-5-8-3-4-8/h7H,3-6H2,1-2H3	InChI=1S/C7H15NO/c1-7(2)9-6-5-8-3-4-8/h7H,3-6H2,1-2H3
