17
gdb 69680	3.23391	1.3563	1.22825	5.9783	77.24	-0.2227	0.0297	0.2525	1068.9971	0.135948	-380.797346	-380.789537	-380.788592	-380.829432	30.506	
C	-0.0185483812	 1.5569942531	 0.0435399448	-0.513535
C	 0.1050146025	 0.0677840949	 0.0406028574	 0.345326
N	-0.8176380746	-0.8304652941	 0.7626726291	-0.35387
C	 0.6391358841	-0.9009195818	 1.0235757552	-0.119627
C	 1.2929658548	-1.7388374593	-0.1066141185	-0.083365
C	 0.3237622981	-2.2170823441	-1.1699580776	-0.171926
C	-0.9885307334	-2.7948171735	-1.0082376899	 0.322434
N	-1.994202845	-3.3671136707	-1.0086127897	-0.367885
C	 0.7349148217	-0.7584694111	-1.1269851694	-0.133213
H	 0.9106491723	 2.0304280733	-0.2914917026	 0.130593
H	-0.8227948334	 1.8878962532	-0.6240178194	 0.138612
H	-0.2401296467	 1.926668264	 1.0502467263	 0.123509
H	-1.2519295594	-0.3039813739	 1.5196326506	 0.233718
H	 1.0484429044	-0.7556008787	 2.0145126414	 0.102792
H	 2.2897933388	-2.1551245092	-0.0420513769	 0.106115
H	 0.8631466617	-2.7341866479	-1.9619354151	 0.136263
H	 1.2346709752	-0.301038084	-1.9717262157	 0.10406
105.3195	168.443	210.8059	257.5481	283.8787	359.603	412.6251	479.4029	588.7546	628.2334	667.9334	723.5556	740.4905	822.6827	840.1464	872.9335	920.3345	939.3632	958.9231	973.6849	987.8042	1014.7762	1064.7217	1067.5115	1108.8127	1131.1316	1181.1754	1223.5659	1279.8199	1303.7877	1333.3307	1400.5644	1414.2111	1459.3075	1481.2652	1499.1621	2348.6682	3025.3212	3088.3169	3100.5411	3130.0349	3188.3016	3198.2226	3207.1232	3482.0484
CC12NC1C1C(C#N)C21	C[C@]12N[C@H]1[C@H]1[C@@H](C#N)[C@@H]21	
InChI=1S/C7H8N2/c1-7-5-3(2-8)4(5)6(7)9-7/h3-6,9H,1H3	InChI=1S/C7H8N2/c1-7-5-3(2-8)4(5)6(7)9-7/h3-6,9H,1H3/t3-,4+,5-,6+,7-/m1/s1
