23
gdb 93688	3.04913	1.12873	1.04167	0.2736	81.45	-0.2395	0.0709	0.3104	1286.4444	0.205459	-425.444415	-425.434914	-425.43397	-425.477775	37.649	
C	-0.1739606037	 1.6014986935	 0.0071918185	-0.423315
C	 0.0007438797	 0.073080614	-0.0189399642	 0.372053
C	-1.3676599017	-0.6051542744	 0.0641079465	-0.414548
C	 0.7599067895	-0.4021361866	-1.276940965	-0.225901
C	 2.2566160085	-0.0628314036	-1.2358119094	-0.223422
C	 2.8707334852	-0.562784655	 0.0665495624	 0.114401
O	 4.2171942195	-0.1132443718	 0.1208849605	-0.432868
C	 2.0564166369	-0.0215597884	 1.2482532823	-0.109407
O	 0.6910556925	-0.3803377778	 1.1613542383	-0.287004
H	 0.7710430663	 2.138274082	-0.1066828548	 0.11783
H	-0.8324890673	 1.9207705553	-0.8065703138	 0.113609
H	-0.6262024898	 1.9064276011	 0.9553531009	 0.120816
H	-1.9714095719	-0.3693698964	-0.8174619256	 0.109553
H	-1.2470559332	-1.6902038654	 0.1263413015	 0.117525
H	-1.9073231813	-0.2703295527	 0.9547092959	 0.117689
H	 0.6413689492	-1.4900368853	-1.3530225633	 0.096795
H	 0.29602508	 0.02951317	-2.1708096436	 0.095043
H	 2.7771442796	-0.5067359142	-2.0903715887	 0.101444
H	 2.419071355	 1.0201096005	-1.2965337299	 0.106695
H	 2.8226246417	-1.6640348702	 0.0856066142	 0.066789
H	 4.6255719545	-0.4828978178	 0.9104398966	 0.282509
H	 2.4157704337	-0.4441832863	 2.1941987269	 0.090559
H	 2.199534937	 1.0690924895	 1.2980105637	 0.093154
101.2695	189.8291	224.3816	240.0375	272.6424	287.4134	299.456	318.9274	327.285	406.7911	448.7188	457.3957	471.8235	495.5243	632.8904	716.1141	816.0082	854.5995	911.5121	916.7167	933.728	982.9889	1001.4811	1020.3181	1068.2261	1094.7884	1099.8614	1114.8569	1154.9253	1199.9984	1234.7027	1248.8806	1257.7702	1288.6485	1310.1552	1344.5386	1352.2414	1373.505	1396.3129	1402.6087	1414.3022	1444.8724	1471.3342	1481.4996	1489.5002	1492.0042	1496.4753	1512.7516	1516.6134	2965.1766	2990.2573	3026.5632	3037.128	3040.0845	3046.1794	3054.8991	3070.5642	3083.1466	3110.7684	3117.2742	3119.2089	3121.9645	3813.4466
CC1(C)CCC(O)CO1	CC1(C)CC[C@@H](O)CO1	
InChI=1S/C7H14O2/c1-7(2)4-3-6(8)5-9-7/h6,8H,3-5H2,1-2H3	InChI=1S/C7H14O2/c1-7(2)4-3-6(8)5-9-7/h6,8H,3-5H2,1-2H3/t6-/m1/s1
