25
gdb 101716	3.6321	0.70689	0.64025	1.2851	89.76	-0.2507	0.0812	0.3319	1858.5009	0.22698	-389.481063	-389.469987	-389.469043	-389.517835	40.831	
C	-0.0874503679	 1.613937826	-0.0158369812	-0.391561
C	 0.0863104946	 0.0917948911	 0.0020995792	-0.166923
C	 0.7129024724	-0.4775508945	 1.2894363008	 0.043916
C	-0.1696531811	-0.2275009124	 2.5208852212	-0.388449
C	 1.0294207853	-1.9743864126	 1.0990944245	-0.19368
C	 1.8410447707	-2.59594703	 2.2191946471	-0.024436
C	 1.1776195425	-3.3381894206	 3.3678467771	-0.322989
C	 1.9741678694	-4.0871451836	 2.3294542701	 0.083591
O	 1.3087127663	-4.8520189579	 1.3639456477	-0.418258
H	 0.8672577159	 2.1226079366	 0.1612750742	 0.110855
H	-0.4667934971	 1.9518532891	-0.9855265996	 0.109939
H	-0.7922229058	 1.9576107572	 0.7473233863	 0.116764
H	-0.8873829892	-0.3905649464	-0.163282873	 0.090388
H	 0.7150323807	-0.2014010089	-0.8484948631	 0.090151
H	 1.6690643187	 0.0455258598	 1.4483851922	 0.062514
H	-1.1473181194	-0.7116030259	 2.4024205889	 0.10538
H	 0.2899607709	-0.6275226125	 3.4284552858	 0.120543
H	-0.3461707108	 0.8397254647	 2.683673006	 0.109675
H	 0.0983867142	-2.5373179047	 0.9666005713	 0.098853
H	 1.5855811309	-2.095025058	 0.1598268829	 0.09519
H	 2.7388423236	-2.03812668	 2.4776309674	 0.081588
H	 1.5777278823	-3.2402276953	 4.3716221906	 0.106507
H	 0.0987677484	-3.4459925223	 3.3167461019	 0.112253
H	 2.9450764714	-4.4837829788	 2.6278415645	 0.081371
H	 0.9574339631	-5.6358493399	 1.7983434977	 0.286821
47.6327	68.4612	97.7081	110.3059	206.2594	213.4549	247.6525	274.1244	293.9287	306.3926	370.8973	425.0798	442.6232	466.9847	583.9511	766.3011	776.0301	819.5992	831.4357	872.2157	890.5885	923.0187	970.0333	979.5839	1005.2422	1025.5012	1048.7068	1049.9771	1100.4273	1131.4297	1154.043	1172.6632	1178.0142	1196.5113	1239.9251	1251.1688	1296.5889	1301.811	1309.829	1350.5671	1379.1402	1382.9516	1401.0806	1413.0162	1414.3882	1426.2477	1478.0899	1487.2475	1489.4412	1496.8295	1500.1816	1507.252	1511.1224	2979.065	3007.923	3017.7787	3028.0717	3031.3336	3042.9062	3065.7192	3089.8514	3094.6452	3095.2381	3105.5148	3115.5127	3124.0802	3128.4891	3213.5282	3809.271
CCC(C)CC1CC1O	CC[C@@H](C)C[C@H]1C[C@H]1O	
InChI=1S/C8H16O/c1-3-6(2)4-7-5-8(7)9/h6-9H,3-5H2,1-2H3	InChI=1S/C8H16O/c1-3-6(2)4-7-5-8(7)9/h6-9H,3-5H2,1-2H3/t6-,7+,8-/m1/s1
