21
gdb 104498	2.63368	1.09806	0.90894	0.9405	84.53	-0.2575	0.0478	0.3052	1365.1658	0.179971	-387.040846	-387.030544	-387.0296	-387.075964	38.45	
C	 2.2063465513	-0.1659882851	-0.9251802068	-0.42829
C	 1.404058785	-1.1367143677	-0.084431327	-0.043595
C	 1.9437755037	-1.6812294156	 1.2197935895	-0.327889
C	 0.7626302616	-0.7403465435	 1.2279534406	 0.325836
C	 0.9121920934	 0.6793001438	 1.7811132219	-0.158173
O	 2.2482025921	 1.1160126188	 1.9805046916	-0.407395
C	-0.6143403475	-1.3424155645	 1.523594487	-0.440914
C	-0.861757694	-1.567827015	 2.9460713311	 0.319979
C	-1.0449955897	-1.7465239735	 4.1209395066	-0.459823
H	 2.7762615695	 0.5227748383	-0.2986084462	 0.147213
H	 2.9076441783	-0.7052716323	-1.5716610602	 0.11234
H	 1.5525440335	 0.4284768159	-1.5739435237	 0.110499
H	 0.8241069088	-1.8471286011	-0.6708662029	 0.076026
H	 1.7739716046	-2.7230608548	 1.4714684088	 0.110226
H	 2.9011742201	-1.2922146607	 1.5499854228	 0.104068
H	 0.4710124244	 1.3979891754	 1.0804028986	 0.112092
H	 0.3427048742	 0.7470741429	 2.7187594036	 0.106216
H	 2.6068366512	 0.6178699422	 2.721719929	 0.286503
H	-1.39781403	-0.6852292475	 1.119947354	 0.12949
H	-0.715303731	-2.292955706	 0.9864162416	 0.129756
H	-1.2185998695	-1.91137309	 5.1554039201	 0.195837
64.7819	80.0565	136.4386	201.2827	218.1796	224.8476	271.3401	322.136	344.2262	349.785	399.4888	434.8999	465.8763	601.1232	617.8408	641.6076	711.0246	793.1039	868.9492	887.0027	924.792	951.7348	955.2411	1022.4453	1036.8753	1064.7861	1085.3222	1110.6158	1133.5902	1186.228	1209.9339	1234.2978	1244.3271	1328.4865	1361.274	1392.9716	1407.1266	1420.4161	1431.8971	1464.776	1491.3754	1499.7907	1507.5403	1511.3068	2234.1092	3003.4862	3009.4559	3029.6705	3052.6312	3058.8966	3082.8329	3112.3267	3127.9151	3137.6618	3212.0603	3505.1195	3820.7386
CC1CC1(CO)CC#C	C[C@H]1C[C@]1(CO)CC#C	
InChI=1S/C8H12O/c1-3-4-8(6-9)5-7(8)2/h1,7,9H,4-6H2,2H3	InChI=1S/C8H12O/c1-3-4-8(6-9)5-7(8)2/h1,7,9H,4-6H2,2H3/t7-,8-/m0/s1
