22
gdb 13211	4.37876	1.15123	1.08469	1.5114	78.13	-0.2404	0.0808	0.3212	1220.7388	0.199601	-350.195149	-350.185799	-350.184854	-350.229703	33.803	
C	-0.1361075809	 1.5369597576	-0.0557020724	-0.394675
C	 0.0119981839	 0.0159984989	 0.0476801694	-0.162748
C	 0.744615554	-0.4847289389	 1.3101001601	 0.013068
C	-0.0016142764	-0.1164031549	 2.599577867	-0.404129
C	 0.9838751474	-1.9909166878	 1.182784922	 0.166515
C	 1.6338292673	-2.7927821687	 2.3352514167	-0.314873
C	 0.3482298719	-3.6399100166	 2.2787048643	-0.054059
O	-0.2375191327	-2.7706905858	 1.288604725	-0.29574
H	 0.8380543969	 2.0359295161	 0.0072159671	 0.109732
H	-0.5899898719	 1.81769282	-1.011425077	 0.112028
H	-0.7698186431	 1.9452143097	 0.7371656445	 0.118656
H	-0.9758536894	-0.4594220162	 0.0071152844	 0.113946
H	 0.5582474468	-0.3449587811	-0.8334840847	 0.089177
H	 1.7426033735	-0.0186571578	 1.3317659605	 0.066775
H	-0.9825593036	-0.6001159456	 2.6215231027	 0.131054
H	 0.548454385	-0.4275142518	 3.492974373	 0.107497
H	-0.1493109881	 0.9636326712	 2.6768898807	 0.113792
H	 1.4700427177	-2.1882805027	 0.2153542527	 0.06517
H	 2.5625672224	-3.3082997063	 2.0863587412	 0.106832
H	 1.7728018901	-2.2364430415	 3.2631777037	 0.110712
H	 0.4816078755	-4.6604275204	 1.8966222145	 0.098863
H	-0.2535847463	-3.6815289274	 3.1941707746	 0.102408
64.5413	69.2277	93.4394	193.2663	194.3617	235.5539	288.0145	318.6063	364.9678	437.9966	602.367	720.175	776.4571	802.6049	832.1594	877.7212	931.7786	963.3509	970.5961	986.6612	1015.8592	1035.7326	1059.4621	1088.5825	1126.747	1157.6133	1176.0244	1197.1967	1216.9867	1254.8512	1269.4087	1293.157	1317.1718	1348.8966	1366.9385	1383.0919	1387.2216	1413.0199	1419.0243	1484.7297	1486.9126	1498.1127	1504.8992	1508.3892	1513.8019	1531.9272	2976.5604	2987.3823	3011.5714	3019.0695	3030.8123	3046.4236	3053.3079	3057.5446	3082.7621	3096.0279	3104.5709	3110.1659	3123.1822	3135.9244
CCC(C)C1CCO1	CC[C@@H](C)[C@H]1CCO1	
InChI=1S/C7H14O/c1-3-6(2)7-4-5-8-7/h6-7H,3-5H2,1-2H3	InChI=1S/C7H14O/c1-3-6(2)7-4-5-8-7/h6-7H,3-5H2,1-2H3/t6-,7-/m1/s1
