18
gdb 111676	2.76617	1.21866	1.10445	1.9616	72.09	-0.2164	-0.0168	0.1996	1164.1082	0.148116	-439.0719	-439.063315	-439.06237	-439.10582	31.692	
O	-0.2241765843	 1.4786466791	 0.1366283495	-0.421905
C	-0.0016871722	 0.0782553502	 0.2390557352	-0.109922
C	-1.3471812755	-0.5825402886	 0.0690179518	-0.007326
C	-1.8348748507	-1.1753262613	-1.2068211998	-0.022749
N	-0.8444570391	-1.3949748816	-2.2553958827	-0.307974
C	 0.0517138194	-2.4832006656	-1.8419182168	-0.291481
C	-0.4022443008	-2.9498390759	-0.4455208761	 0.403349
O	 0.0679086602	-3.8868286225	 0.1511549323	-0.327274
C	-1.5568862576	-2.1019341654	-0.0265861887	-0.22019
H	 0.626052877	 1.92147813	 0.2128912652	 0.288064
H	 0.6994077637	-0.2645792736	-0.5330059113	 0.103616
H	 0.4200459172	-0.1860953257	 1.2215398872	 0.096067
H	-2.1130352873	-0.1041868647	 0.6736510726	 0.109526
H	-2.8404877225	-0.9611234909	-1.5493508449	 0.100622
H	-1.3172826529	-1.6322340476	-3.1162720099	 0.23173
H	 0.0069654616	-3.3430702133	-2.5201652533	 0.131684
H	 1.1023427299	-2.1695789354	-1.797427545	 0.133844
H	-2.304606606	-2.5580278073	 0.6100634345	 0.110319
64.8151	82.5558	133.5403	189.6363	238.4803	265.7607	416.403	449.193	547.7628	587.1397	595.8077	680.4589	743.2204	770.6127	790.767	863.5199	934.238	964.6942	991.6824	1009.7165	1025.2168	1061.9815	1072.0936	1105.4616	1142.2151	1182.8301	1191.58	1214.8736	1259.1877	1275.6242	1288.7657	1307.099	1365.5078	1402.0283	1462.7737	1477.5289	1487.2044	1510.2241	1830.1759	2978.4618	3025.2753	3034.9321	3062.4494	3149.9632	3178.9141	3194.0223	3578.24	3830.7551
OCC1C2NCC(=O)C12	OC[C@H]1[C@H]2NCC(=O)[C@@H]12	
InChI=1S/C6H9NO2/c8-2-3-5-4(9)1-7-6(3)5/h3,5-8H,1-2H2	InChI=1S/C6H9NO2/c8-2-3-5-4(9)1-7-6(3)5/h3,5-8H,1-2H2/t3-,5-,6-/m1/s1
