18
gdb 55381	2.64307	1.55453	0.99965	2.6465	75.97	-0.2131	0.	0.2131	1162.6721	0.14882	-435.330143	-435.321241	-435.320297	-435.364062	32.565	
C	 1.2911494994	-0.772325874	 0.0565556128	-0.492843
C	 0.0144492909	 0.0456516584	 0.0145023943	 0.411457
O	 0.0359017612	 1.2651051869	 0.1196815985	-0.379492
N	-1.1469516646	-0.6707348181	-0.1421577526	-0.152577
C	-1.2581648232	-2.1336376651	-0.2208014638	-0.196605
C	-2.7986414582	-2.3428498576	-0.1727016728	-0.173266
N	-3.4073714207	-1.0193891814	-0.2495174418	-0.34238
C	-2.4713954067	-0.1466925273	-0.2223167567	 0.461824
N	-2.6313108754	 1.1957445742	-0.3105574623	-0.579183
H	 2.132167113	-0.082330467	 0.1136106223	 0.151251
H	 1.3063552161	-1.4315039689	 0.9307890632	 0.145345
H	 1.392291255	-1.4039706868	-0.8313708316	 0.142903
H	-0.818123884	-2.5046724126	-1.1530900871	 0.120678
H	-0.739596913	-2.6131269671	 0.6134563138	 0.119975
H	-3.1386726282	-2.974481671	-1.0008713267	 0.110398
H	-3.1012619175	-2.8483959156	 0.753512459	 0.107785
H	-3.5671222643	 1.5339298073	-0.1639191301	 0.261239
H	-1.8335400299	 1.7637314657	-0.0585088885	 0.283492
70.7444	102.347	143.0852	154.8899	244.8163	254.3241	364.3734	423.6811	446.0581	505.8963	563.2858	616.936	650.9892	718.7513	724.8793	773.5121	854.4287	951.4188	962.288	999.3251	1051.2672	1076.688	1114.5715	1163.6861	1215.9234	1225.7351	1250.4474	1326.4922	1341.0931	1378.4792	1409.065	1417.9191	1465.6134	1482.7569	1509.5474	1526.0923	1588.3853	1732.4374	1769.7842	3015.7411	3032.9728	3045.6424	3051.1773	3087.8792	3108.3688	3164.3466	3538.6242	3707.8461
CC(=O)N1CCN=C1N	CC(=O)N1CCN=C1N	
InChI=1S/C5H9N3O/c1-4(9)8-3-2-7-5(8)6/h2-3H2,1H3,(H2,6,7)	InChI=1S/C5H9N3O/c1-4(9)8-3-2-7-5(8)6/h2-3H2,1H3,(H2,6,7)
