14
gdb 25186	2.69063	1.73585	1.07259	2.9121	77.1	-0.2443	-0.0714	0.1729	1035.7608	0.103891	-432.903127	-432.895877	-432.894933	-432.935951	26.763	
N	-0.0740597592	 1.3163241192	-0.3547214663	-0.449392
C	-0.0166209239	 0.063347018	-0.0957960886	 0.154056
C	 1.212578906	-0.664151902	 0.1954171196	-0.141043
C	 1.4830564243	-1.9887595548	 0.1919428015	-0.007308
N	 0.7008644397	-3.0808088526	-0.1106833303	-0.280562
C	-0.5723572373	-3.042697754	-0.2264587244	 0.120285
N	-1.4677012772	-2.0103915383	-0.0858108074	-0.35226
C	-1.377912366	-0.6068469806	-0.0238675026	 0.404139
O	-2.4047184303	 0.0155996446	 0.0696921822	-0.301398
H	 0.8691257332	 1.7140296211	-0.3687909087	 0.225486
H	 2.0550078854	-0.0136214673	 0.4206258677	 0.105634
H	 2.5068159434	-2.2728049943	 0.425850094	 0.119134
H	-1.0807841859	-3.9795955581	-0.4545028678	 0.134835
H	-2.4439875524	-2.280988861	-0.1129204888	 0.268396
31.5183	113.9525	291.6581	337.4183	379.5497	416.9823	439.6707	536.4173	610.5949	660.8793	724.2975	792.5732	806.8339	846.1499	895.8672	947.6347	959.3967	975.3588	1011.5772	1054.6437	1174.5347	1239.9123	1311.0323	1398.7177	1446.7959	1474.9117	1492.1218	1622.8728	1654.8175	1700.9284	1814.4145	3132.5817	3141.7262	3161.545	3434.7899	3568.1186
N=C1C=CN=CNC1=O	[NH][C]1C=CN=CNC1=O	
InChI=1S/C5H5N3O/c6-4-1-2-7-3-8-5(4)9/h1-3H,(H2,6,7,8,9)	InChI=1S/C5H5N3O/c6-4-1-2-7-3-8-5(4)9/h1-3H,(H2,6,7,8,9)
