18
gdb 68802	2.95448	1.26377	1.07611	3.4723	77.12	-0.2635	0.0284	0.2919	1166.488	0.14668	-401.939843	-401.930973	-401.930029	-401.973135	33.441	
C	 0.0256158514	 1.5649981557	 0.1017905758	-0.498989
C	-0.0144817559	 0.0658122138	 0.0653458769	 0.29536
C	 1.1661055276	-0.7887270714	-0.3585536061	-0.402117
C	 0.5883880025	-0.9612539452	 1.017237429	 0.358542
O	 1.2961237489	-0.7350238543	 2.1764493797	-0.459088
C	-0.7001122441	-1.8102177446	 0.9716925215	-0.208716
C	-1.2898212818	-0.7801901872	-0.06382269	-0.298945
C	-0.5777962575	-3.2049949829	 0.5707753347	 0.258918
N	-0.4529655345	-4.3039928442	 0.2320615306	-0.333625
H	 0.9981912102	 1.9193476415	 0.456486571	 0.130984
H	-0.1445622756	 1.992595214	-0.8930167411	 0.125934
H	-0.7414066757	 1.9662093144	 0.7734921862	 0.121963
H	 1.0679523641	-1.5595606465	-1.1199607197	 0.125059
H	 2.1153830861	-0.2617936141	-0.3645793242	 0.119839
H	 2.0339403597	-1.3542451076	 2.2166406911	 0.295955
H	-1.2299668737	-1.7485355125	 1.9250645172	 0.131527
H	-2.184716177	-0.2902905613	 0.3251054493	 0.118127
H	-1.5025006047	-1.1831568477	-1.0574178316	 0.119273
94.7201	132.5801	174.8216	190.7602	249.5617	298.7268	338.3153	365.12	421.6945	476.5317	506.0409	595.1655	603.6473	694.5335	773.4413	808.3432	852.6806	938.8377	963.8072	992.5317	997.6591	1042.2849	1064.7158	1096.7337	1138.8002	1168.1152	1183.903	1230.715	1238.2394	1307.097	1333.4965	1341.7376	1412.5089	1430.9318	1480.582	1486.887	1496.906	1521.5464	2347.7394	3026.7319	3063.9424	3086.1926	3089.071	3105.21	3106.8815	3122.8327	3201.9665	3789.8394
CC12CC1(O)C(C2)C#N	C[C@@]12C[C@]1(O)[C@@H](C2)C#N	
InChI=1S/C7H9NO/c1-6-2-5(3-8)7(6,9)4-6/h5,9H,2,4H2,1H3	InChI=1S/C7H9NO/c1-6-2-5(3-8)7(6,9)4-6/h5,9H,2,4H2,1H3/t5-,6+,7-/m0/s1
