19
gdb 126795	3.03626	1.25834	0.96917	2.6517	79.32	-0.2063	0.0416	0.2479	1267.1217	0.158949	-419.237394	-419.227609	-419.226665	-419.273213	34.429	
C	-0.0355887769	 1.5808160399	 0.1738610845	-0.376142
C	-0.0357296587	 0.068830874	-0.0587412752	-0.142189
N	-1.3731697355	-0.4956731724	-0.071607893	-0.018521
N	-2.0267274011	-0.75289839	 1.093548474	-0.292548
C	-3.2208730313	-1.1911536725	 0.7139661096	-0.05788
C	-3.3790027094	-1.2224176239	-0.6909403163	 0.047531
C	-4.5531788544	-1.6574216057	-1.5127756418	-0.527782
C	-2.1558982964	-0.7583370867	-1.1428140547	 0.371919
O	-1.6641142071	-0.5349496186	-2.3860966926	-0.437261
H	 0.9914040501	 1.9568401207	 0.2152216982	 0.115933
H	-0.5597705899	 2.1001453356	-0.633788835	 0.126564
H	-0.5318707104	 1.8169729444	 1.1185583839	 0.143086
H	 0.4322740385	-0.1793443691	-1.0147622776	 0.129899
H	 0.5157985112	-0.4418508357	 0.734912074	 0.129772
H	-3.9467447364	-1.4781004721	 1.4626505619	 0.103841
H	-4.6699240773	-1.0459563369	-2.4171790923	 0.109241
H	-4.4860644574	-2.7045869356	-1.8354666148	 0.127997
H	-5.4830190282	-1.5558857635	-0.9455646661	 0.136676
H	-2.3099718093	-0.8461330317	-3.0283438168	 0.309863
38.8508	47.8555	92.3528	205.2215	211.4635	236.4802	244.0879	300.7408	314.5814	403.0499	511.2627	583.7217	666.0638	693.3132	738.723	752.4588	799.9779	870.966	962.4037	994.7046	1020.0088	1061.2336	1087.1933	1108.2814	1212.0721	1232.5944	1261.4239	1300.142	1356.7562	1389.0492	1396.5647	1408.5077	1426.0036	1458.9717	1479.1045	1488.5214	1489.9815	1500.3724	1505.5476	1586.7039	1635.7148	3008.4207	3043.2065	3051.5925	3068.252	3099.5052	3109.1913	3118.1582	3135.5768	3228.4214	3835.2455
CCN1N=CC(C)=C1O	CCn1ncc(C)c1O	
InChI=1S/C6H10N2O/c1-3-8-6(9)5(2)4-7-8/h4,9H,3H2,1-2H3	InChI=1S/C6H10N2O/c1-3-8-6(9)5(2)4-7-8/h4,9H,3H2,1-2H3
