20
gdb 58722	3.35415	1.39546	1.28322	1.6779	81.03	-0.2114	0.07	0.2814	1086.0603	0.169892	-365.897012	-365.888745	-365.8878	-365.929804	32.294	
C	-0.0064352489	 1.4638946415	-0.1737546969	-0.389911
C	-0.0151079277	-0.0561587213	 0.0569776964	-0.126788
C	 0.6506421458	-0.4283406242	 1.3919414727	-0.38991
C	-1.4111872863	-0.5894658483	-0.0016776988	 0.453264
C	-2.3988881137	-0.8223691325	-1.1194263299	-0.194852
C	-3.5220641107	-0.4302576737	-0.1298751572	-0.050186
C	-3.1380488667	-1.5361534632	 0.7852965364	-0.050185
C	-2.0007263608	-1.9689904608	-0.1705473735	-0.194848
N	-2.5288981345	-0.1716390281	 0.9722340307	-0.215998
H	 1.0132412937	 1.8592620767	-0.1304744321	 0.107286
H	-0.4313920302	 1.7181528091	-1.1496381407	 0.111329
H	-0.6010117031	 1.9689800269	 0.5941309169	 0.135699
H	 0.542652599	-0.5380760696	-0.7595225624	 0.076241
H	 0.0854059802	-0.0076124286	 2.2296629752	 0.135696
H	 0.6908788637	-1.5138597769	 1.5246554737	 0.111329
H	 1.6724410901	-0.0390779452	 1.4402140538	 0.107287
H	-2.2877430027	-0.759105329	-2.1927937753	 0.092584
H	-4.436676967	 0.1425068512	-0.2280740337	 0.094689
H	-3.6789059651	-2.0397399446	 1.5778198073	 0.094689
H	-1.5383997051	-2.9170504994	-0.4069986025	 0.092584
73.1978	142.7306	164.9948	214.5341	256.8475	313.0483	391.1145	455.0236	587.0542	674.0989	754.8675	783.3444	786.1951	831.8093	851.8781	866.4407	883.4217	905.5997	917.3383	932.466	956.2537	968.5526	992.8026	1000.5657	1013.1395	1061.9736	1095.6518	1132.6212	1168.1239	1181.9399	1206.0192	1219.8513	1269.1523	1318.4558	1321.6848	1330.2635	1394.8299	1414.6426	1453.6407	1486.3605	1493.001	1501.6969	1516.6885	3000.4294	3033.4619	3037.2594	3104.5477	3107.6924	3108.5997	3112.5748	3171.4271	3185.8597	3208.9646	3219.0591
CC(C)C12C3C4C(C13)N24	CC(C)[C@@]12[C@@H]3[C@H]4[C@@H]([C@H]13)N24	
InChI=1S/C8H11N/c1-3(2)8-4-5(8)7-6(4)9(7)8/h3-7H,1-2H3	InChI=1S/C8H11N/c1-3(2)8-4-5(8)7-6(4)9(7)8/h3-7H,1-2H3/t4-,5+,6-,7+,8+,9?
