16
gdb 99831	2.08086	1.47234	1.13185	3.2908	66.11	-0.2519	0.0003	0.2521	1119.5875	0.123576	-471.211453	-471.202018	-471.201073	-471.245698	34.804	
N	 0.2430837407	 0.7195153762	-1.0089549354	-0.524327
C	 0.0563738233	 0.0585599931	 0.1771992543	 0.332725
N	 0.9456924721	 0.0317436522	 1.0886364369	-0.521538
C	-1.2619637378	-0.7382068968	 0.1907709966	 0.125195
O	-2.2499150803	-0.056870439	-0.5536436597	-0.453447
C	-1.031289929	-2.1351732034	-0.4546306917	-0.104965
O	-2.2774217574	-2.7698079684	-0.673559413	-0.42438
C	-1.7330772439	-0.9470081603	 1.5810852398	 0.255329
N	-2.1363834768	-1.1849021174	 2.6378340102	-0.338934
H	 1.0222274829	 1.3604651054	-1.0170555282	 0.263944
H	-0.5936707568	 1.0166337053	-1.4862924305	 0.271934
H	 0.6574080493	-0.5393390441	 1.8808583994	 0.229761
H	-2.8606755321	-0.7442856368	-0.8637906634	 0.302218
H	-0.5807022074	-1.9737327748	-1.4365210041	 0.147146
H	-0.3509056378	-2.7329883571	 0.1610481275	 0.130615
H	-2.5991159391	-3.1115540741	 0.1696392713	 0.308724
64.0715	106.377	153.3053	177.7521	206.4325	314.7773	341.1936	394.6703	413.1227	452.637	473.2795	512.8341	547.8796	585.799	613.0221	644.4407	710.1829	737.762	839.4839	926.926	981.523	1074.1965	1085.598	1121.8734	1132.9524	1166.1738	1250.52	1358.6117	1375.9251	1406.4213	1434.8274	1491.8643	1604.3965	1736.0341	2349.9032	3051.9016	3125.591	3506.4026	3579.1422	3699.7089	3701.9073	3791.9763
NC(=N)C(O)(CO)C#N	NC(=N)[C@@](O)(CO)C#N	
InChI=1S/C4H7N3O2/c5-1-4(9,2-8)3(6)7/h8-9H,2H2,(H3,6,7)	InChI=1S/C4H7N3O2/c5-1-4(9,2-8)3(6)7/h8-9H,2H2,(H3,6,7)/t4-/m0/s1
