17
gdb 127111	4.0531	1.12572	0.89243	2.8019	73.56	-0.2082	0.0308	0.239	1281.0297	0.136559	-451.333909	-451.324704	-451.32376	-451.368188	32.576	
C	-0.1157426845	 1.4241179287	 0.0043200166	-0.343018
N	 0.0917330436	-0.0127297719	-0.0460134456	-0.18501
C	 0.0222805249	-0.7494362866	 1.2036135397	-0.347839
C	 0.0132318593	-0.6494846125	-1.2331913309	 0.589449
N	-0.0661509188	-0.1027511689	-2.4236986756	-0.438381
C	-0.073829909	-1.2125395187	-3.2291048399	 0.417621
N	-0.2047791564	-1.0931084087	-4.5914872469	-0.587561
N	-0.0021652539	-2.3762076142	-2.6235480525	-0.239305
O	 0.0411600549	-1.9863969851	-1.2417163013	-0.244183
H	 0.5921411572	 1.8717664238	 0.7099536449	 0.127043
H	 0.0472405059	 1.8422472271	-0.9878285555	 0.173835
H	-1.1350325774	 1.6728081588	 0.3314760753	 0.125605
H	-0.9994064389	-0.7708467687	 1.6086453423	 0.128694
H	 0.3591018787	-1.7737405196	 1.0506572043	 0.168864
H	 0.6735270464	-0.2688992172	 1.9407261659	 0.130386
H	 0.1638284063	-0.2283445704	-4.957309958	 0.261486
H	 0.0828764317	-1.9094339458	-5.1105599529	 0.262312
73.1826	95.844	141.868	160.0114	204.3213	239.1968	322.4308	355.463	368.0293	411.0272	558.9694	582.8801	597.4124	717.7842	760.6129	790.8899	907.9392	948.3591	1030.2157	1087.5637	1093.5924	1132.5434	1133.3862	1179.5522	1239.6125	1292.8393	1403.4304	1447.6198	1460.6216	1484.3254	1488.9994	1499.9327	1502.2439	1521.9821	1606.2463	1653.0626	1687.6885	3004.4416	3009.5588	3072.4628	3077.4485	3163.1068	3166.2982	3579.4151	3687.8653
CN(C)C1=NC(N)=NO1	CN(C)c1nc(N)no1	
InChI=1S/C4H8N4O/c1-8(2)4-6-3(5)7-9-4/h1-2H3,(H2,5,7)	InChI=1S/C4H8N4O/c1-8(2)4-6-3(5)7-9-4/h1-2H3,(H2,5,7)
