18
gdb 31712	6.16333	0.86277	0.76767	2.4588	75.16	-0.2141	0.0314	0.2455	1498.418	0.147087	-439.118524	-439.109378	-439.108433	-439.15332	32.293	
C	-0.9360750655	 0.8227854134	-0.0460229236	-0.388719
C	 0.5270508667	 0.3745690524	-0.0747732009	-0.280697
C	 1.0299447012	-0.148758327	 1.2314772111	 0.264621
C	 0.39336344	-0.2845015498	 2.4169393241	-0.139598
O	 1.2953159564	-0.8201339977	 3.326321042	-0.200884
C	 2.4242930932	-0.9664133381	 2.6001384463	 0.489501
O	 3.498620373	-1.4669262859	 3.1944273585	-0.252056
C	 3.3815032157	-1.8187507056	 4.5746862786	-0.244021
N	 2.3494255255	-0.5960150536	 1.3655636618	-0.41275
H	-1.0908320407	 1.6268246819	 0.6810655638	 0.120108
H	-1.2463093586	 1.1946734717	-1.0262346191	 0.117223
H	-1.5999410232	-0.0055372566	 0.2228030462	 0.120083
H	 0.6696255009	-0.4019251067	-0.8371409617	 0.121461
H	 1.1713994134	 1.2067946281	-0.3856816996	 0.121482
H	-0.5932383911	-0.0838880298	 2.7927551754	 0.139748
H	 2.6193346605	-2.5900590525	 4.7206759815	 0.139695
H	 4.360248593	-2.2029400316	 4.8611279002	 0.145105
H	 3.1296534996	-0.9450765324	 5.1832857554	 0.1397
45.1991	70.7085	154.2405	155.9018	194.3639	262.7149	264.5875	359.0367	363.9673	579.7716	629.3458	635.5821	682.0931	729.0324	749.9162	795.6787	959.55	965.9821	1026.2133	1069.2498	1099.2529	1110.5834	1112.1507	1178.4234	1197.8548	1232.3772	1272.677	1278.5092	1368.3953	1399.1461	1410.5043	1478.2631	1485.4711	1486.9108	1497.8015	1500.0575	1510.1903	1639.7952	1667.0862	3025.8235	3036.9386	3040.0803	3049.249	3102.6358	3110.6538	3113.8581	3158.0894	3307.7542
CCC1=COC(OC)=N1	CCc1coc(OC)n1	
InChI=1S/C6H9NO2/c1-3-5-4-9-6(7-5)8-2/h4H,3H2,1-2H3	InChI=1S/C6H9NO2/c1-3-5-4-9-6(7-5)8-2/h4H,3H2,1-2H3
