20
gdb 8084	3.41443	2.11296	1.69781	1.3655	74.21	-0.2443	0.0833	0.3276	857.7847	0.179197	-349.000338	-348.993223	-348.992279	-349.031061	28.897	
C	-0.0614681488	 1.5416473516	 0.0102303565	-0.483961
C	 0.0421128035	 0.0278365318	-0.0057293365	 0.306162
C	 1.0944327272	-0.6847408341	-0.9114224354	-0.253774
C	 1.0929213533	-1.8016079989	 0.1703940985	-0.038963
C	 0.702916363	-0.707770906	 1.1964508363	-0.251946
C	-0.1174069262	-2.7112206285	-0.0672687928	-0.066353
O	-1.192296017	-2.0005549249	-0.6677050931	-0.261335
C	-1.3196611087	-0.6439347152	-0.266006334	-0.095558
H	 0.9047963365	 1.9968660942	 0.2515246782	 0.112469
H	-0.3830767533	 1.9303489742	-0.9630025689	 0.115925
H	-0.7856699767	 1.8838112243	 0.7596173235	 0.115127
H	 0.7986672352	-0.9526997452	-1.9288089024	 0.101409
H	 2.0407248775	-0.137113537	-0.9292761909	 0.091043
H	 1.9995894827	-2.3860782609	 0.3431793468	 0.062617
H	 1.5738778716	-0.1641273788	 1.574931624	 0.08979
H	 0.0618084166	-0.9964206153	 2.0369195561	 0.085901
H	 0.1264646872	-3.5201071209	-0.765364827	 0.103113
H	-0.4330862082	-3.1713079571	 0.88455148	 0.084735
H	-1.9491611556	-0.5575031054	 0.6366325762	 0.083951
H	-1.8461501901	-0.1438438279	-1.0878051954	 0.099648
188.5464	212.8941	237.2406	290.6936	369.8839	413.7118	433.0634	479.1781	600.8616	659.987	827.2114	846.327	864.5574	890.695	908.3562	925.1136	945.8028	980.109	1013.5111	1028.2621	1065.4066	1080.9774	1108.6141	1146.5165	1171.742	1208.793	1224.762	1242.623	1269.6716	1286.6851	1291.1586	1305.8704	1341.0919	1385.6488	1410.8588	1418.1801	1477.4893	1492.0279	1493.6397	1506.39	1507.3031	1519.4544	2951.6661	2961.7606	3019.4091	3033.2403	3047.4759	3054.797	3056.3458	3081.1728	3082.631	3090.0724	3094.8113	3114.3075
CC12CC(C1)COC2	C[C@@]12C[C@@H](C1)COC2	
InChI=1S/C7H12O/c1-7-2-6(3-7)4-8-5-7/h6H,2-5H2,1H3	InChI=1S/C7H12O/c1-7-2-6(3-7)4-8-5-7/h6H,2-5H2,1H3/t6-,7+
