17
gdb 53943	1.8147	1.13254	1.01642	6.0923	71.3	-0.1668	0.0306	0.1974	1302.6333	0.131737	-492.305632	-492.294368	-492.293424	-492.344749	36.855	
C	-0.0019555224	 1.8486948226	 0.0406757822	-0.476607
C	-0.3394805306	 0.4404926938	 0.3965626029	-0.003469
N	 0.5423751473	-0.2456849009	 1.3615969092	-0.449549
H	 0.7270367335	 0.2839918301	 2.2223240802	 0.27256
H	-0.0590738297	-1.1012949148	 1.5631580352	 0.297505
H	 1.4445004833	-0.5238998822	 0.9608162619	 0.291577
C	-1.5887745201	-0.1648896475	 0.2409052403	 0.285773
N	-1.6217281271	-1.5151920797	 0.9284808405	-0.618471
O	-2.5766849589	 0.2424536525	-0.360254186	-0.408438
C	 1.0475940552	-1.1632374262	-1.7828326046	 0.571534
O	 1.9608874069	-1.1338404835	-1.0514763323	-0.330129
O	 0.1978470257	-1.2470644046	-2.5672497964	-0.265562
H	 0.9493647465	 1.9546196486	-0.5013551514	 0.097082
H	-0.7997005891	 2.2272638033	-0.6023062129	 0.162929
H	 0.059173691	 2.5192828496	 0.9167446994	 0.089923
H	-2.5073847002	-1.5491698566	 1.4298054093	 0.240267
H	-1.7148740612	-2.2214097645	 0.2005686323	 0.243075
18.1133	47.5689	54.6803	84.0693	143.5749	163.1611	187.1096	191.2227	260.6594	295.6975	362.6517	507.3349	545.1154	562.0665	612.5488	632.4394	680.8833	707.5882	878.3761	952.0843	1003.5405	1054.7351	1119.6496	1139.4727	1152.9736	1195.6265	1360.1598	1380.6875	1400.6656	1450.8515	1480.0978	1510.3304	1617.2248	1640.1324	1666.0069	1771.9286	2414.0837	2803.9011	2940.5532	2999.0816	3127.6445	3325.2465	3377.0001	3471.3207	3536.0384
CC([NH3+])(C(N)=O)C([O-])=O	C[C]([NH3])C(=O)N.C(=O)=O	
InChI=1S/C4H8N2O3/c1-4(6,2(5)7)3(8)9/h6H2,1H3,(H2,5,7)(H,8,9)	InChI=1S/C3H8N2O.CO2/c1-2(4)3(5)6;2-1-3/h1,4H3,(H2,5,6);
