18
gdb 105595	1.77796	1.68181	1.2149	2.1886	73.38	-0.2612	-0.0413	0.2199	1130.0128	0.146111	-439.093246	-439.084004	-439.08306	-439.127828	32.934	
C	-0.0394463182	 1.6173813897	-0.0114229002	-0.401727
C	 0.1156523767	 0.0919545239	 0.0167285677	-0.252807
C	 0.741073325	-0.5202037916	-1.2548389837	 0.060956
C	 0.6116469954	-2.0475759227	-1.422169431	-0.134037
O	-0.2291497749	-1.8497404315	-2.6095386877	-0.256184
C	-0.1476843462	-0.4843382881	-2.495913191	 0.41167
N	-0.6408821731	 0.43860265	-3.1872421864	-0.544481
C	 2.1325268041	 0.0243825714	-1.5308545813	 0.115865
O	 3.1336293439	-0.6445430047	-1.511095636	-0.24781
H	 0.9266894231	 2.1302138236	 0.011245886	 0.121643
H	-0.5739650421	 1.9373794284	-0.9097211632	 0.160723
H	-0.6047329592	 1.9499218917	 0.8638751942	 0.121154
H	 0.722554218	-0.2150449085	 0.8775429094	 0.115421
H	-0.8695616877	-0.3698551647	 0.1496889778	 0.115728
H	 1.5348861084	-2.5706008866	-1.6718787313	 0.147363
H	 0.0571602678	-2.569289396	-0.6393226253	 0.121383
H	-1.2004626908	 0.0746343785	-3.9605344925	 0.233894
H	 2.1640261496	 1.1074817074	-1.7649859655	 0.111246
61.3306	95.9715	114.0246	164.9907	200.7339	264.2955	279.1522	311.2412	380.9164	448.0079	595.9322	673.9823	680.2006	780.6219	800.806	863.2979	903.6614	939.6834	958.3324	1008.1121	1013.8977	1029.9183	1062.8274	1152.049	1154.8287	1200.5483	1226.8424	1237.1458	1309.7751	1360.1309	1371.0293	1411.0403	1419.592	1489.9965	1501.4561	1511.9434	1514.9337	1800.9842	1827.7426	2932.2386	3026.6085	3045.4889	3064.4112	3077.8853	3111.6644	3128.9345	3150.3432	3475.9501
CCC1(COC1=N)C=O	CC[C@]1(CO[C]1[NH])C=O	
InChI=1S/C6H9NO2/c1-2-6(3-8)4-9-5(6)7/h3,7H,2,4H2,1H3	InChI=1S/C6H9NO2/c1-2-6(3-8)4-9-5(6)7/h3,7H,2,4H2,1H3/t6-/m1/s1
