20
gdb 112095	2.41316	1.39581	0.94346	3.437	82.17	-0.2382	0.0128	0.251	1277.9592	0.172477	-403.201464	-403.192517	-403.191573	-403.235897	33.193	
C	-0.0311208577	 1.6468027443	 0.2662413629	-0.396546
C	 0.0260940074	 0.1253782067	 0.1143150402	-0.164796
C	-1.3525246598	-0.5371996048	-0.1427672394	-0.162856
C	-1.9654387154	-0.1383042458	-1.4556583751	-0.05454
C	-2.3100973037	-0.9997352608	-2.406229624	-0.068067
C	-2.1502759407	-2.4806968867	-2.2714658565	-0.198878
N	-1.6021600896	-2.8566187953	-0.9827754499	-0.326234
C	-1.2182341331	-2.0496834982	 0.0478474955	 0.394956
O	-0.7774869255	-2.5175267003	 1.0840752315	-0.388184
H	 0.9595511078	 2.0461523927	 0.5042854763	 0.117377
H	-0.3705115012	 2.1439957007	-0.648261104	 0.114594
H	-0.7090603373	 1.9383787308	 1.0764345737	 0.116777
H	 0.7056638655	-0.1431250243	-0.7042018546	 0.095835
H	 0.4285773207	-0.3270976573	 1.024596681	 0.130463
H	-2.0119284882	-0.2066213804	 0.6740436081	 0.109749
H	-2.1228363815	 0.9248866237	-1.6168797094	 0.097908
H	-2.7399133656	-0.6569659676	-3.3426769252	 0.097413
H	-3.1266511165	-2.9692795729	-2.417470062	 0.120351
H	-1.5050638774	-2.8580987124	-3.0810939393	 0.119679
H	-1.484687518	-3.8402118422	-0.7856541795	 0.244999
41.6988	98.7011	118.9724	201.8262	228.2053	281.489	328.8475	454.1204	492.6987	509.7518	560.2657	593.3958	692.5597	724.7561	769.4713	813.9094	882.6494	920.29	970.8745	980.1308	1007.2233	1028.9438	1061.8616	1106.9538	1111.6944	1143.1946	1192.1178	1245.6768	1266.3486	1293.7685	1325.8418	1355.2384	1374.0328	1395.265	1412.8719	1429.3705	1488.7302	1492.1977	1499.7642	1508.8832	1526.4593	1745.049	1777.6829	2972.1121	2983.0861	2993.9722	3030.9443	3034.6095	3086.5232	3101.8098	3109.9807	3155.601	3180.9525	3605.3246
CCC1C=CCNC1=O	CC[C@H]1C=CCNC1=O	
InChI=1S/C7H11NO/c1-2-6-4-3-5-8-7(6)9/h3-4,6H,2,5H2,1H3,(H,8,9)	InChI=1S/C7H11NO/c1-2-6-4-3-5-8-7(6)9/h3-4,6H,2,5H2,1H3,(H,8,9)/t6-/m0/s1
