16
gdb 133764	1.76928	1.66926	1.10021	2.9727	54.48	-0.27	0.0667	0.3367	1117.9049	0.118667	-606.513038	-606.503408	-606.502464	-606.54863	33.389	
C	 0.196254019	 1.2205525945	 0.1332864056	-0.243912
O	 0.0069226821	-0.1765846832	-0.0341293133	-0.256817
C	-1.3227847453	-0.6414158356	-0.0148272142	-0.069609
C	-1.3210568114	-1.9795376766	-0.7614826583	-0.07569
O	-0.4047071719	-2.8967481873	-0.2117414122	-0.416779
C	-1.8393980764	-0.7684409701	 1.4276866189	 0.289489
F	-2.0145762623	 0.4501062569	 1.9809473843	-0.088925
F	-3.0320927494	-1.3835330834	 1.4475836948	-0.077421
F	-1.0045385437	-1.4437459221	 2.2141527685	-0.059799
H	 1.2516857113	 1.4158609117	-0.0676958587	 0.134968
H	-0.4146616055	 1.7892216802	-0.5820336328	 0.114928
H	-0.0468238404	 1.5521093687	 1.1476743463	 0.133568
H	-2.0032752151	 0.0580351503	-0.5246481324	 0.095033
H	-2.3125614682	-2.4363872055	-0.7087230224	 0.126624
H	-1.0989250991	-1.7592670568	-1.8170135375	 0.097954
H	 0.4304826162	-2.4246486918	-0.1126641566	 0.296391
36.4683	80.9211	107.9145	179.5497	200.747	236.6625	287.087	321.3791	352.9666	419.5597	437.5057	531.0371	542.4834	614.164	735.97	830.5012	913.312	987.3686	1051.1895	1098.1558	1159.152	1164.963	1183.5952	1197.2555	1208.4784	1245.2077	1308.2015	1333.935	1374.0571	1414.8657	1435.8512	1480.4762	1496.2473	1497.4905	1512.1513	2986.5454	3002.4388	3006.2523	3084.4211	3104.0378	3129.847	3798.4838
COC(CO)C(F)(F)F	CO[C@@H](CO)C(F)(F)F	
InChI=1S/C4H7F3O2/c1-9-3(2-8)4(5,6)7/h3,8H,2H2,1H3	InChI=1S/C4H7F3O2/c1-9-3(2-8)4(5,6)7/h3,8H,2H2,1H3/t3-/m0/s1
