20
gdb 105412	1.92593	1.46468	0.99161	2.2281	77.05	-0.2619	0.017	0.279	1270.9436	0.16962	-440.259603	-440.250137	-440.249192	-440.294238	34.385	
C	-0.035007863	 1.5419521551	-0.0868595888	-0.39102
C	-0.0788566007	 0.0274993089	 0.1398286503	-0.242826
C	-1.4778328754	-0.5576266699	 0.0342602136	 0.370588
C	-2.1496225555	-0.5979268044	-1.3632459368	-0.132156
O	-2.4117582879	-2.0125237816	-1.2369913847	-0.274689
C	-1.6130629438	-2.0990996568	-0.0367301585	-0.137074
O	-2.2455880675	 0.0688774526	 1.0642469489	-0.241577
C	-3.5519231368	-0.249261798	 1.203378002	 0.095868
N	-4.2302413974	 0.31717841	 2.10547846	-0.445814
H	 0.9882518395	 1.9163829315	 0.0053392168	 0.117772
H	-0.3951116798	 1.8058495246	-1.0875744885	 0.115238
H	-0.658955277	 2.0606261684	 0.644206904	 0.148943
H	 0.5590252927	-0.4846613298	-0.5893490651	 0.102076
H	 0.315962923	-0.214185518	 1.1338666063	 0.115902
H	-3.0655640079	-0.0095106168	-1.482204483	 0.117771
H	-1.4681571427	-0.3799416919	-2.1952107385	 0.107571
H	-0.6664338762	-2.6261154847	-0.2097934708	 0.107151
H	-2.1480799463	-2.5759378281	 0.7915972513	 0.117033
H	-3.9138050427	-1.0012385729	 0.4934404324	 0.120029
H	-5.1871307847	-0.0301647883	 2.083221459	 0.229214
84.1709	106.1761	107.3056	164.246	191.0382	227.3393	263.7467	347.8377	372.6454	437.8133	472.4934	551.3793	701.8568	791.8716	831.0052	851.6661	902.1204	922.6629	973.3546	1002.428	1019.9744	1029.1935	1043.5723	1073.6792	1112.1373	1147.3451	1155.0141	1163.5868	1211.6703	1254.996	1296.3302	1300.96	1320.5861	1373.6982	1388.4299	1409.9931	1436.0117	1476.3788	1498.6895	1504.2828	1509.1355	1527.4928	1739.4785	3015.1265	3024.2185	3036.3305	3040.4439	3062.0392	3072.6531	3075.6383	3078.8232	3105.8644	3134.6626	3513.158
CCC1(COC1)OC=N	CCC1(COC1)O[CH][NH]	
InChI=1S/C6H11NO2/c1-2-6(9-5-7)3-8-4-6/h5,7H,2-4H2,1H3	InChI=1S/C6H11NO2/c1-2-6(9-5-7)3-8-4-6/h5,7H,2-4H2,1H3
