16
gdb 69903	3.04149	1.51558	1.16585	3.0114	71.13	-0.2222	-0.0383	0.1839	1032.4933	0.12296	-437.80149	-437.793705	-437.792761	-437.833493	30.322	
O	-0.0988629897	 1.4357284891	 0.2357043812	-0.442088
C	-0.004306488	 0.0666380593	 0.1098349525	 0.334699
C	-0.8359220407	-0.8576275822	 0.9267405226	-0.319502
C	 0.6805213345	-0.9876858242	 0.9768969096	-0.162867
C	 1.2447090354	-1.6483231527	-0.3038323104	-0.074114
N	 0.175591928	-2.0561069216	-1.1944044901	-0.360915
C	 0.5553601556	-0.6170273553	-1.1772378853	 0.156018
C	 1.1645093528	-0.0121748678	-2.3567895217	 0.047126
O	 1.6013470997	-0.6601886107	-3.2882582457	-0.297273
H	 0.7873635375	 1.8155952456	 0.2163228942	 0.291113
H	-1.2425684712	-0.3814377544	 1.8133236816	 0.124064
H	-1.4500713607	-1.6266562252	 0.4760180182	 0.148246
H	 1.245603513	-0.876324235	 1.8922234399	 0.102596
H	 2.2600944696	-2.0043454432	-0.4285494331	 0.121299
H	 0.5978862416	-2.426115895	-2.0502370473	 0.254885
H	 1.2179195725	 1.0963262034	-2.3496806562	 0.076713
131.0991	167.7186	196.0223	294.9731	311.7567	340.9813	417.5021	442.5776	518.1693	560.3169	642.7619	726.3395	783.3032	791.9588	861.3734	894.7161	917.5447	931.7019	964.6718	990.3264	1012.7747	1032.4	1081.5841	1102.949	1155.4968	1191.2715	1239.0642	1267.773	1292.7415	1334.221	1368.0055	1404.7766	1438.5135	1485.5149	1760.9944	2912.4274	3142.6532	3194.2764	3210.8966	3238.4327	3438.8447	3781.6819
OC12CC1C1NC21C=O	O[C@]12C[C@H]1[C@H]1N[C@@]21C=O	
InChI=1S/C6H7NO2/c8-2-5-4(7-5)3-1-6(3,5)9/h2-4,7,9H,1H2	InChI=1S/C6H7NO2/c8-2-5-4(7-5)3-1-6(3,5)9/h2-4,7,9H,1H2/t3-,4+,5+,6+/m0/s1
