16
gdb 46086	4.45061	1.03836	0.89432	2.8296	78.29	-0.2228	-0.059	0.1637	1251.0544	0.124452	-400.726492	-400.718386	-400.717442	-400.759457	30.691	
O	 0.0143171528	-0.0583369533	 0.1286733789	-0.323133
C	-0.0052049233	 1.1470575479	-0.0127036267	 0.368597
C	-1.307854491	 1.9459208027	-0.0708226181	-0.284853
N	-1.235603839	 3.1720663439	-0.8665962226	-0.305475
C	-0.1186977267	 4.0358880247	-0.4612488362	-0.172345
C	 1.1883763326	 3.2874579875	-0.2397592909	-0.038397
C	 1.2293709932	 1.9600344791	-0.081152064	-0.179805
C	 0.0665074165	 5.1119891611	-1.4353927023	 0.28121
C	 0.243956456	 5.978024466	-2.2482200662	-0.420239
H	-2.1027044587	 1.3016918676	-0.4542075442	 0.133896
H	-1.5820180404	 2.2124131864	 0.9609079347	 0.131085
H	-1.1089302898	 2.9331653118	-1.8458887295	 0.230178
H	-0.3982250727	 4.4971637798	 0.5025012219	 0.133392
H	 2.0942220818	 3.8877375001	-0.208401345	 0.125175
H	 2.1646864505	 1.4251746757	 0.0534835661	 0.116054
H	 0.3889840481	 6.751430019	-2.961811996	 0.204661
56.8028	142.9523	161.9979	260.8781	312.5458	404.1855	423.1978	458.9125	520.4714	574.7926	616.7758	634.5039	670.6397	730.2797	742.5027	779.9685	870.6709	915.3488	979.3426	1022.5761	1045.3186	1077.0367	1126.6566	1177.9517	1228.2133	1266.1051	1287.6954	1328.7309	1337.7414	1393.5954	1452.4162	1492.2702	1677.4289	1786.3582	2244.8157	2950.554	3007.0406	3107.5434	3160.2361	3187.6405	3502.423	3511.104
O=C1CNC(C=C1)C#C	O=C1CN[C@@H](C=C1)C#C	
InChI=1S/C7H7NO/c1-2-6-3-4-7(9)5-8-6/h1,3-4,6,8H,5H2	InChI=1S/C7H7NO/c1-2-6-3-4-7(9)5-8-6/h1,3-4,6,8H,5H2/t6-/m1/s1
