15
gdb 43365	2.53596	1.84059	1.22978	3.3747	76.2	-0.2425	-0.0777	0.1648	987.0876	0.114034	-420.630396	-420.623398	-420.622453	-420.661991	27.041	
O	 0.0711777199	 0.021782651	-0.3400577586	-0.330914
C	 0.0470893142	 1.1753995612	 0.0535827563	 0.342688
C	-1.2301964036	 1.823946423	 0.4043247569	-0.168873
C	-1.5667007706	 3.1271080342	 0.3281893738	-0.053427
C	-0.7858881016	 4.2624231778	-0.1257772999	-0.101996
C	 0.5427762678	 4.3547674865	-0.3044944543	-0.06304
C	 1.5674548801	 3.3665323435	 0.0701237948	 0.004928
O	 1.4832374271	 2.7600395716	 1.3607771438	-0.232338
C	 1.3523151138	 1.8933428331	 0.2405101517	-0.070749
H	-2.0053723094	 1.1034075946	 0.6492811148	 0.122289
H	-2.6056261708	 3.3637694704	 0.5482335667	 0.110449
H	-1.3753377667	 5.1404321996	-0.3774982872	 0.10932
H	 0.9363215697	 5.2744861232	-0.7282570726	 0.10873
H	 2.585054115	 3.6424403753	-0.2060876493	 0.107732
H	 2.2064032851	 1.2420720551	 0.053861443	 0.115201
81.8725	219.125	230.7404	358.8508	373.1435	446.0963	461.7654	554.1305	652.0476	685.9786	741.3738	796.6207	843.2377	855.134	880.4748	909.7934	927.684	996.0896	1016.2705	1029.8255	1098.1368	1141.3461	1229.2144	1243.6967	1288.2027	1302.3491	1382.0867	1424.8654	1437.2011	1469.0929	1645.2434	1698.5633	1742.8953	3109.5514	3123.1115	3143.6067	3158.1542	3176.4561	3181.0459
O=C1C=CC=CC2OC12	O=C1C=CC=C[C@H]2O[C@@H]12	
InChI=1S/C7H6O2/c8-5-3-1-2-4-6-7(5)9-6/h1-4,6-7H	InChI=1S/C7H6O2/c8-5-3-1-2-4-6-7(5)9-6/h1-4,6-7H/t6-,7+/m1/s1
