23
gdb 74041	2.57908	1.49508	1.01008	0.2143	93.13	-0.2129	0.032	0.2449	1255.1456	0.20823	-351.196235	-351.187674	-351.18673	-351.229269	33.659	
C	-0.0310231465	 1.4844899593	-0.0282864773	-0.495718
C	-0.0137627309	-0.0114963151	-0.0149763181	 0.129566
C	-1.0516340479	-0.848568623	 0.0291806863	 0.313389
C	-2.5497248041	-0.7268613112	-0.0896921431	-0.339399
C	-3.0100166788	-2.1851912369	-0.4078654864	-0.20293
C	-1.7362520845	-2.9396787379	-0.8670452273	-0.230692
C	-0.63341762	-2.3028177663	-0.0051798196	-0.028906
C	 0.832182713	-2.22791995	-0.4751606259	-0.244142
C	 1.2876790732	-0.8026084309	-0.0550054036	-0.291696
H	 0.4593440235	 1.8980208961	 0.8633208205	 0.123137
H	 0.5164128327	 1.8820963563	-0.8929569865	 0.119565
H	-1.0506387576	 1.8791658812	-0.0590788594	 0.118828
H	-3.0273971032	-0.3503762862	 0.8223974946	 0.105315
H	-2.8265491231	-0.0319456972	-0.8911211876	 0.108464
H	-3.4001502476	-2.6525297465	 0.503291321	 0.099459
H	-3.8128405255	-2.2203778572	-1.1493823045	 0.094524
H	-1.8287362069	-4.0239455957	-0.7529917888	 0.089207
H	-1.5362268303	-2.733185867	-1.9263189514	 0.092746
H	-0.6882741988	-2.7373131048	 1.0068916618	 0.065538
H	 1.4684123365	-3.0184156381	-0.0670366449	 0.088505
H	 0.8669280567	-2.3096751807	-1.5680655505	 0.096083
H	 2.0164805015	-0.3707697434	-0.7523981242	 0.092727
H	 1.7784144886	-0.8095237947	 0.9302834651	 0.096431
93.4758	161.7517	166.4398	188.1268	222.8909	273.0123	395.3318	457.6215	548.5561	560.5186	583.5708	625.0115	715.3036	810.1954	849.358	883.334	904.8347	915.6517	944.5199	967.813	982.9219	1004.0822	1006.9094	1059.1352	1085.4992	1102.4364	1139.0711	1175.4631	1181.5385	1208.8079	1216.1294	1232.7235	1254.2614	1289.0531	1301.0593	1311.4562	1322.9751	1337.6125	1350.316	1366.3248	1411.9164	1477.745	1480.1231	1483.7591	1488.8877	1490.4395	1499.4551	1505.1166	1761.6268	2958.0851	2989.9041	3010.1127	3025.0766	3027.6322	3030.9298	3040.4079	3044.964	3052.6474	3056.9084	3082.4648	3089.8221	3095.3214	3103.8586
CC1=C2CCCC2CC1	CC1=C2CCC[C@H]2CC1	
InChI=1S/C9H14/c1-7-5-6-8-3-2-4-9(7)8/h8H,2-6H2,1H3	InChI=1S/C9H14/c1-7-5-6-8-3-2-4-9(7)8/h8H,2-6H2,1H3/t8-/m0/s1
