20
gdb 40670	4.08533	1.02716	0.93606	1.9427	79.22	-0.2408	0.0615	0.3023	1305.4554	0.171403	-403.080082	-403.071644	-403.0707	-403.113796	31.834	
C	-0.3367817936	 1.0123008617	-0.4297679028	-0.266138
C	 0.9401617289	 1.2427604261	 0.3367854266	-0.262486
C	 0.4504113787	-0.1638426704	 0.0890514534	 0.003189
C	-0.060653158	-0.9932880383	 1.227184615	-0.121773
N	-1.1457188578	-0.4170311092	 2.0531404709	-0.378338
C	-1.4100061062	-1.5985727997	 1.2463463014	 0.289276
C	-2.4825308443	-1.7097518724	 0.1699606219	-0.128369
O	-2.802185648	-3.0514318143	 0.613968472	-0.277081
C	-1.8551468376	-2.9859310592	 1.700023872	-0.147232
H	-1.2632824399	 1.2496496706	 0.0799275773	 0.133342
H	-0.3394292969	 1.1912000126	-1.4991952076	 0.106764
H	 1.8177793165	 1.5857586324	-0.1996990503	 0.108994
H	 0.8451305632	 1.6275352705	 1.3463476092	 0.117519
H	 1.0023725495	-0.7398607188	-0.6494070338	 0.086066
H	 0.7109737068	-1.5520877266	 1.7587261036	 0.083552
H	-1.0261432899	-0.6669536514	 3.0319322891	 0.231962
H	-3.3272842889	-1.0201342029	 0.2898267121	 0.107761
H	-2.1368253445	-1.6916433604	-0.8700176814	 0.108536
H	-1.1051338633	-3.7858757266	 1.6473494092	 0.104828
H	-2.3491076148	-3.0202456539	 2.6820762823	 0.099627
62.3129	93.1394	136.5325	167.1454	276.7888	304.3422	370.4368	457.0783	572.3033	603.7747	754.3611	795.6553	831.1092	840.8191	874.7716	912.0601	920.7752	956.5466	963.8301	998.6654	1023.3171	1032.3585	1060.8044	1068.7175	1089.4469	1125.9018	1131.6709	1144.9885	1146.0561	1159.2826	1189.657	1203.4062	1233.1401	1269.8081	1301.6234	1328.9812	1379.9537	1401.2518	1457.4593	1497.4004	1501.4724	1503.3925	1529.2175	2990.3753	3019.5535	3037.7081	3066.8962	3092.7413	3134.1456	3136.1633	3142.0399	3217.6568	3233.0647	3495.1232
C1CC1C1NC11COC1	C1CC1[C@H]1NC21COC2	
InChI=1S/C7H11NO/c1-2-5(1)6-7(8-6)3-9-4-7/h5-6,8H,1-4H2	InChI=1S/C7H11NO/c1-2-5(1)6-7(8-6)3-9-4-7/h5-6,8H,1-4H2/t6-/m1/s1
