18
gdb 16597	3.53907	1.66524	1.43032	1.4262	67.52	-0.2437	0.0611	0.3048	937.0883	0.153616	-384.902121	-384.89419	-384.893246	-384.933952	30.621	
C	-0.0213052885	 1.5296831019	 0.009392254	-0.418111
C	 0.1124260736	 0.0201814869	 0.0736297584	-0.013288
C	 1.3733931661	-0.7645780218	-0.1716101324	-0.080849
C	 0.7035647511	-0.7671849919	 1.2125837712	-0.120386
C	 1.9182543058	-0.0463874647	 1.824485097	 0.112733
O	 2.6414667114	-0.7891693864	 2.7699220158	-0.442737
C	 2.6015563257	-0.0565570881	 0.3937217494	 0.06214
O	 3.7080242147	-0.9451181367	 0.3594791922	-0.436449
H	 0.8461477278	 2.0527176106	 0.4198525605	 0.121559
H	-0.1434434618	 1.8622254386	-1.0271618493	 0.118424
H	-0.9001646163	 1.8634817162	 0.5714956866	 0.120258
H	-0.7503260247	-0.4907954138	-0.3513383324	 0.090751
H	 1.4378452915	-1.5499426675	-0.9155730397	 0.090965
H	 0.1623713043	-1.5603488885	 1.7157245694	 0.087338
H	 1.722796103	 0.9313161147	 2.2759158937	 0.07519
H	 3.0832347767	-1.4896093657	 2.2680258664	 0.278114
H	 2.8739554681	 0.9114477304	-0.0475571898	 0.063081
H	 4.4619507316	-0.4859781142	 0.746013869	 0.291267
126.9975	189.1458	198.7864	217.9781	291.429	310.5472	376.0603	436.5164	565.7138	575.474	586.681	719.2335	799.2997	814.1424	890.1648	899.3182	934.2194	983.4185	1000.8964	1029.1898	1069.1721	1080.7458	1115.1398	1138.4092	1146.3616	1195.5936	1211.0378	1235.0147	1263.3599	1310.9654	1320.0164	1335.8906	1414.7248	1428.7316	1440.8183	1456.7329	1496.147	1505.4479	3006.1634	3034.9599	3058.9285	3092.2309	3108.3142	3126.7333	3173.8742	3185.2754	3726.9073	3806.7804
CC1C2C1C(O)C2O	C[C@H]1[C@@H]2[C@H]1[C@@H](O)[C@H]2O	
InChI=1S/C6H10O2/c1-2-3-4(2)6(8)5(3)7/h2-8H,1H3	InChI=1S/C6H10O2/c1-2-3-4(2)6(8)5(3)7/h2-8H,1H3/t2-,3+,4-,5-,6+
