25
gdb 105519	2.02221	1.43076	1.01961	1.9528	87.75	-0.2409	0.0721	0.313	1328.0366	0.227667	-389.474552	-389.463946	-389.463002	-389.510303	39.542	
C	-0.2502576265	 1.5011092443	 0.2127785091	-0.408383
C	 0.0916042489	 0.0138848381	 0.0560985051	-0.250368
C	 0.7614450185	-0.416097774	-1.2625650399	 0.302728
C	 0.2850050326	 0.2949107873	-2.5594778878	-0.125102
O	 1.6245846597	 0.7267368844	-2.8705806884	-0.277983
C	 2.1130336616	 0.273296602	-1.5933627098	-0.113866
C	 0.7811929529	-1.9646772564	-1.3934580179	-0.026719
C	 1.4733339441	-2.4877085869	-2.6652931558	-0.40393
C	 1.4046636957	-2.6578190942	-0.1690578726	-0.398962
H	 0.6146139358	 2.1465571818	 0.0293600478	 0.124577
H	-1.0475884958	 1.8163948579	-0.4663426146	 0.121445
H	-0.5958257624	 1.6990901423	 1.2321977629	 0.11396
H	 0.7542359614	-0.273466438	 0.8806000988	 0.105153
H	-0.8257825875	-0.5747921114	 0.1935056851	 0.095336
H	-0.1392051107	-0.3429511969	-3.3434501979	 0.094496
H	-0.3865811715	 1.1478684762	-2.4081858752	 0.093402
H	 2.3732184013	 1.1129255694	-0.9349436599	 0.090757
H	 2.9930766705	-0.3722202747	-1.6941778014	 0.097057
H	-0.2749801617	-2.2698198555	-1.446656032	 0.072216
H	 1.291030373	-3.5622257167	-2.7670036829	 0.109313
H	 1.1204831459	-2.0035905593	-3.5782221924	 0.125864
H	 2.5583740015	-2.3491551044	-2.6170392843	 0.117992
H	 0.8385979345	-2.4835789322	 0.748735995	 0.115892
H	 1.4474602996	-3.7400709325	-0.3278165034	 0.111813
H	 2.4325415486	-2.3131759607	-0.0019724076	 0.113314
55.5141	83.8052	85.416	187.1677	194.6573	212.1496	266.9987	303.4599	332.9914	355.8437	374.7879	411.1185	451.2632	538.7866	607.4712	774.6203	799.6869	858.021	915.857	930.9486	941.3893	958.871	967.3583	983.5755	1014.7991	1040.1391	1054.5893	1090.7022	1118.7646	1154.7121	1160.6661	1175.3884	1193.1675	1233.1874	1243.9363	1310.584	1319.2096	1344.4848	1356.3869	1373.2114	1396.7699	1405.67	1415.0567	1424.6554	1482.0275	1483.9807	1489.8414	1499.2069	1500.7732	1508.5673	1513.836	1529.9435	1543.1149	2987.2744	3005.6065	3013.8929	3025.9553	3029.1024	3039.7246	3041.3442	3053.1026	3057.0512	3060.6821	3090.3771	3099.6703	3104.272	3112.1971	3118.758	3126.1256
CCC1(COC1)C(C)C	CCC1(COC1)C(C)C	
InChI=1S/C8H16O/c1-4-8(7(2)3)5-9-6-8/h7H,4-6H2,1-3H3	InChI=1S/C8H16O/c1-4-8(7(2)3)5-9-6-8/h7H,4-6H2,1-3H3
