15
gdb 26632	3.38265	1.26695	0.92809	4.1997	76.28	-0.2113	-0.025	0.1863	1191.2613	0.112947	-416.85669	-416.847928	-416.846984	-416.89051	31.208	
C	 0.1018383552	 1.4996609259	-0.0066467073	-0.499742
C	-0.0480697085	 0.0231454432	-0.0312428656	 0.330388
C	-1.1201777423	-0.8142769924	 0.0765727859	 0.015204
N	-2.4593599115	-0.5002551402	 0.305893613	-0.621719
C	-0.5862363126	-2.1566414448	-0.0139373104	 0.131009
C	 0.7658867635	-2.0197432389	-0.170568569	-0.122247
O	 1.1024003511	-0.7250952825	-0.1874431404	-0.172132
C	-1.3395245239	-3.3510570775	 0.0368013967	 0.196912
N	-2.0035562265	-4.3002802092	 0.0749992977	-0.355072
H	 0.8654005232	 1.8091136579	 0.7154575929	 0.146649
H	 0.386479027	 1.9094586871	-0.9835760178	 0.139601
H	-0.8422659451	 1.962687713	 0.2926296573	 0.134921
H	-2.7680063896	 0.3486139418	-0.1472062348	 0.251178
H	-3.0876582144	-1.2615691588	 0.0848783655	 0.262563
H	 1.5609995844	-2.7379890946	-0.280584724	 0.162488
68.5406	110.6792	127.9667	176.8183	255.1868	256.6599	314.2073	405.391	507.7607	536.8973	583.1923	609.4318	660.8479	708.052	733.1702	758.8275	777.3603	932.8051	996.0748	1061.802	1185.5237	1204.6616	1221.7264	1267.8977	1317.44	1413.7591	1459.014	1472.4926	1491.5077	1578.4962	1656.0761	1692.1765	2341.0933	3023.9333	3077.0494	3117.5182	3284.2796	3549.9775	3641.6145
CC1=C(N)C(=CO1)C#N	Cc1c(N)c(co1)C#N	
InChI=1S/C6H6N2O/c1-4-6(8)5(2-7)3-9-4/h3H,8H2,1H3	InChI=1S/C6H6N2O/c1-4-6(8)5(2-7)3-9-4/h3H,8H2,1H3
