17
gdb 78080	3.18005	1.30327	1.10342	5.9924	73.01	-0.2429	0.0096	0.2525	1120.6706	0.13579	-417.9683	-417.959839	-417.958895	-418.001151	32.053	
C	-0.0519370395	 1.5272195874	 0.1016972289	-0.512187
C	 0.0951097878	 0.0396374918	 0.0609510474	 0.292802
N	-1.0747761816	-0.8497675964	-0.1865959456	-0.383412
C	-0.6208512543	-1.7516984769	 0.9231407889	-0.141286
C	-0.6202796364	-3.1845020689	 0.6051563837	 0.298279
N	-0.6469682945	-4.3192893437	 0.3892698957	-0.322604
C	 0.7118915733	-1.0007888264	 1.0218234123	-0.202215
C	 1.2800556598	-0.7585792999	-0.3685770435	 0.118114
O	 1.2324633618	-1.6763039756	-1.4047926456	-0.430175
H	 0.9072255841	 2.002155188	 0.3259747824	 0.137442
H	-0.3943317831	 1.90866177	-0.8674807565	 0.139909
H	-0.7726721063	 1.8426552564	 0.8654943875	 0.121348
H	-1.9596009416	-0.4071145189	 0.036447748	 0.235632
H	-1.2114782991	-1.6086607938	 1.8336312358	 0.129535
H	 1.2875353228	-0.8972328164	 1.9326744273	 0.10665
H	 2.2275843465	-0.2269754626	-0.3443760316	 0.111301
H	 0.2979300703	-1.7708168141	-1.643438155	 0.300866
101.2693	137.5109	206.6361	223.4485	242.1749	281.7791	323.2969	462.38	484.2626	521.0733	573.5668	598.4271	683.0345	752.5871	788.6104	849.7459	903.147	918.762	953.7907	971.6348	1022.014	1051.3792	1083.4325	1113.8184	1149.26	1199.0918	1239.7478	1244.9925	1297.3577	1328.6341	1364.9398	1395.5885	1418.1257	1481.5842	1489.3458	1510.0618	2358.0595	3023.7022	3056.8119	3083.0182	3112.8678	3155.7364	3193.5991	3538.2111	3716.3426
CC12NC(C#N)C1C2O	C[C@]12N[C@@H](C#N)[C@H]1[C@H]2O	
InChI=1S/C6H8N2O/c1-6-4(5(6)9)3(2-7)8-6/h3-5,8-9H,1H3	InChI=1S/C6H8N2O/c1-6-4(5(6)9)3(2-7)8-6/h3-5,8-9H,1H3/t3-,4-,5+,6-/m0/s1
