16
gdb 53069	5.36236	0.76208	0.67281	4.181	86.3	-0.2104	-0.0267	0.1837	1626.9139	0.123402	-400.781128	-400.772079	-400.771135	-400.817651	31.832	
C	-0.0834874744	 1.4729637009	 0.0131793618	-0.507608
C	-0.0020892404	 0.0217622487	 0.0093381119	 0.17953
C	 0.0785698551	-1.1821645664	 0.0080527476	-0.050859
C	 0.137658745	-2.5936258768	 0.0013602515	 0.245066
C	 1.1956441264	-3.4146372256	 0.1470614727	-0.26279
C	 0.7234045381	-4.8378522464	 0.0625919155	-0.373169
C	-0.7949604139	-4.7101069341	-0.157934737	 0.397508
O	-1.6166756646	-5.586543893	-0.2875632508	-0.372226
N	-1.0425164658	-3.3505312041	-0.1793320645	-0.395033
H	 0.5175017054	 1.9055860846	-0.7943696387	 0.157795
H	-1.1166831589	 1.810001039	-0.122356789	 0.156356
H	 0.2815942744	 1.8876005329	 0.9593544547	 0.157823
H	 2.2138053719	-3.0936468669	 0.299347679	 0.109548
H	 1.1658193034	-5.4033263257	-0.7664292252	 0.147957
H	 0.9118377597	-5.4221875365	 0.9713347479	 0.147957
H	-1.9597409414	-2.9572310805	-0.3091495072	 0.262146
6.7287	86.284	86.3492	147.4216	257.5299	295.6643	406.2207	435.4208	443.5523	457.7072	563.036	565.8338	670.5166	672.1677	743.8544	851.4462	912.1303	948.7804	988.1869	1041.0503	1048.6484	1052.2187	1142.3077	1197.0418	1238.2724	1288.5656	1311.9137	1404.7204	1413.0704	1433.9402	1472.9086	1474.8042	1666.6296	1839.7201	2357.6266	3027.9693	3039.1696	3068.5889	3088.6877	3093.9772	3259.4214	3666.9988
CC#CC1=CCC(=O)N1	CC#CC1=CCC(=O)N1	
InChI=1S/C7H7NO/c1-2-3-6-4-5-7(9)8-6/h4H,5H2,1H3,(H,8,9)	InChI=1S/C7H7NO/c1-2-3-6-4-5-7(9)8-6/h4H,5H2,1H3,(H,8,9)
