18
gdb 96036	3.29027	1.08846	0.90587	6.7327	72.43	-0.2596	0.0422	0.3018	1279.4408	0.147885	-439.102083	-439.093198	-439.092254	-439.136519	32.081	
O	-0.1466153876	 1.4669491519	 0.3583091047	-0.432962
C	 0.0039335208	 0.0908920886	 0.0350820061	 0.067109
C	 0.6497886377	-0.70276089	 1.1795799143	-0.258559
C	-0.5350154545	-0.8747026147	 2.1338956757	-0.058437
O	-1.6785977588	-1.0301296511	 1.2926085101	-0.274332
C	-1.3966402425	-0.5485479859	-0.0183206093	 0.138041
C	-2.5036160393	 0.4189084325	-0.4666669088	-0.34798
C	-3.8014554201	-0.2417616313	-0.5789283364	 0.264355
N	-4.8273411109	-0.7620217438	-0.6868717387	-0.310564
H	 0.7295035464	 1.853330274	 0.4505156071	 0.291403
H	 0.5303903424	-0.029776594	-0.920837123	 0.075673
H	 0.9981110279	-1.6738967112	 0.8122238485	 0.115215
H	 1.500192567	-0.1795250344	 1.6257252308	 0.100277
H	-0.4549413931	-1.757220677	 2.7749137967	 0.112931
H	-0.6547382175	 0.0115323482	 2.7715524913	 0.105401
H	-1.3705205845	-1.4027345821	-0.7097051842	 0.094384
H	-2.5691934236	 1.2426292345	 0.2474284959	 0.170013
H	-2.2441364596	 0.8514696259	-1.4392121408	 0.148032
59.0972	67.972	126.8518	180.474	254.0383	275.1414	359.7095	392.1677	394.7129	473.7934	553.9747	661.8604	781.2162	820.9952	867.5006	890.3927	919.0493	954.9947	979.9144	1011.623	1043.182	1078.7287	1109.8923	1141.9241	1199.3466	1205.9784	1221.3758	1255.7776	1291.9285	1315.1845	1334.8365	1366.6491	1394.9537	1402.0164	1422.825	1447.8749	1479.6554	1522.7992	2365.6356	3000.0832	3013.426	3020.7663	3053.3448	3060.2569	3085.1781	3105.0678	3121.3784	3828.4076
OC1CCOC1CC#N	O[C@H]1CCO[C@H]1CC#N	
InChI=1S/C6H9NO2/c7-3-1-6-5(8)2-4-9-6/h5-6,8H,1-2,4H2	InChI=1S/C6H9NO2/c7-3-1-6-5(8)2-4-9-6/h5-6,8H,1-2,4H2/t5-,6-/m0/s1
