18
gdb 62604	3.50314	1.75217	1.5445	2.008	72.84	-0.2331	0.0744	0.3075	905.2307	0.148316	-401.86114	-401.854131	-401.853186	-401.891975	29.313	
C	-0.1595784771	 1.5533357063	 0.0016405331	-0.436335
C	-0.0006819466	 0.0422285114	 0.0152994625	 0.437645
O	-1.2657069952	-0.5247760059	 0.2441757901	-0.49105
C	 0.8561967507	-0.5192171596	-1.1641893325	-0.127546
C	 1.0340442174	-2.0121935936	-0.8408245987	-0.079932
C	 2.3835422789	-1.853360332	-0.2598769089	-0.058598
C	 2.1706231225	-0.3170345949	-0.3018589999	-0.083028
C	 1.1708770336	-0.4718714386	 0.8809786852	-0.070901
N	 1.2183991008	-1.9819739627	 0.6683488984	-0.180216
H	 0.7914101164	 2.0564330896	-0.1940136629	 0.117511
H	-0.8709610606	 1.8445894933	-0.7768453377	 0.127337
H	-0.54856422	 1.9008304805	 0.9630603219	 0.125728
H	-1.1265845611	-1.4560655522	 0.454608334	 0.294202
H	 0.7392231728	-0.200154785	-2.1980617759	 0.071978
H	 0.5461631967	-2.8814392986	-1.2628604862	 0.100838
H	 3.2487536171	-2.5038555719	-0.2212329103	 0.099742
H	 2.8961021099	 0.4765635666	-0.4490395635	 0.078196
H	 1.3342936338	-0.1796555727	 1.9175781113	 0.07443
189.9683	216.9232	235.127	339.1604	356.1957	429.0193	556.5623	607.9752	616.709	733.252	762.021	787.2254	815.8382	844.6643	874.6143	882.4506	901.5588	940.6477	955.917	965.8967	994.4197	1025.1702	1031.7677	1072.812	1093.6802	1141.4868	1147.1702	1174.779	1177.7008	1208.3724	1228.8118	1235.2008	1256.2364	1290.1761	1335.438	1393.7558	1423.9384	1479.6705	1502.0062	3043.8091	3114.486	3121.3627	3124.3604	3137.502	3165.249	3184.0837	3199.7338	3788.4133
CC1(O)C2C3C4C2C1N34	C[C@@]1(O)[C@@H]2[C@H]3[C@H]4[C@@H]2[C@@H]1N34	
InChI=1S/C7H9NO/c1-7(9)3-2-4-5(3)8(4)6(2)7/h2-6,9H,1H3	InChI=1S/C7H9NO/c1-7(9)3-2-4-5(3)8(4)6(2)7/h2-6,9H,1H3/t2-,3+,4-,5+,6+,7-,8?/m1/s1
