18
gdb 100820	4.10151	0.77028	0.67798	5.5953	69.16	-0.2821	0.0295	0.3116	1586.288	0.14523	-476.223855	-476.213522	-476.212578	-476.259691	36.523	
O	-0.1127732928	 1.4122173798	-0.2063343789	-0.434766
C	 0.037671419	 0.0153183793	 0.0358559984	-0.107102
C	-1.3782378163	-0.5543748461	 0.0368651797	 0.115285
O	-2.0381840324	-0.2151311861	-1.1674819998	-0.447567
C	-1.3827844146	-2.0819597827	 0.1671669941	 0.115656
O	-0.7356932462	-2.4981783441	 1.3546461419	-0.422292
C	-2.8227509748	-2.6253396824	 0.0570984594	-0.377961
C	-2.8786480412	-4.0828934849	 0.109739138	 0.269266
N	-2.925950127	-5.2366221055	 0.146099936	-0.305833
H	 0.7474378157	 1.784221817	-0.4189340109	 0.298781
H	 0.6189110721	-0.4648850413	-0.7649831688	 0.100943
H	 0.5306302168	-0.1846958216	 0.9946057021	 0.110284
H	-1.916868482	-0.126911198	 0.9041918352	 0.063604
H	-1.7864233102	 0.6990800629	-1.3533195621	 0.29764
H	-0.7892328974	-2.5050175061	-0.6502770903	 0.118398
H	-1.2612149627	-2.208415886	 2.1095554103	 0.286506
H	-3.434943651	-2.2161434363	 0.8718413557	 0.137448
H	-3.264887965	-2.2711527081	-0.87841333	 0.181708
57.017	78.6549	113.3037	126.2316	197.2551	256.2391	276.6104	294.7578	323.8464	394.7468	403.5643	412.4597	453.1292	486.7058	560.3798	628.2769	867.7825	893.9779	947.9158	991.8879	1059.0808	1077.2482	1082.0238	1115.6163	1130.3846	1191.0722	1207.2861	1244.5748	1264.0415	1300.8575	1337.4993	1365.8194	1372.5317	1411.4338	1434.9874	1458.3524	1462.5866	1512.295	2366.0638	2922.782	2999.1428	3029.8991	3058.9635	3068.8429	3105.147	3767.7707	3792.2429	3845.299
OCC(O)C(O)CC#N	OC[C@@H](O)[C@@H](O)CC#N	
InChI=1S/C5H9NO3/c6-2-1-4(8)5(9)3-7/h4-5,7-9H,1,3H2	InChI=1S/C5H9NO3/c6-2-1-4(8)5(9)3-7/h4-5,7-9H,1,3H2/t4-,5+/m0/s1
