25
gdb 123168	7.53249	0.42937	0.42114	1.0264	91.47	-0.2495	0.0909	0.3404	2659.7069	0.227557	-389.472166	-389.461105	-389.46016	-389.509896	39.037	
C	-0.1456799154	 1.3713260739	 0.0835569732	-0.226085
O	 0.041819678	-0.0183420385	-0.0123352893	-0.230175
C	 0.6099198091	-0.5781765401	 1.1522908737	-0.049952
C	 0.763532217	-2.0794082445	 0.9513665352	-0.197405
C	 1.3720918429	-2.7826204949	 2.1681834711	-0.173981
C	 1.531947839	-4.2960410186	 1.9717861134	-0.206205
C	 2.1335904841	-4.993985081	 3.1730713334	 0.036033
C	 1.2568469284	-5.4336147418	 4.3199853384	-0.254414
C	 1.8902617246	-6.4615016799	 3.4131010501	-0.276846
H	 0.806013889	 1.9047808787	 0.2406516217	 0.100386
H	-0.5872499083	 1.7100934836	-0.8571405942	 0.124438
H	-0.8243285646	 1.6380684642	 0.9101135964	 0.100413
H	 1.5913038082	-0.1153110993	 1.3601096691	 0.080608
H	-0.0308820087	-0.3711115194	 2.0280776545	 0.080736
H	-0.2228090077	-2.502836104	 0.7248549308	 0.103247
H	 1.3863528309	-2.2507655458	 0.0647180378	 0.103655
H	 2.3539723529	-2.3433852429	 2.3935011873	 0.09203
H	 0.7484381829	-2.5996713684	 3.0534074978	 0.09749
H	 0.5514086259	-4.7396978008	 1.7508179695	 0.090304
H	 2.1552731962	-4.4826929315	 1.0861825532	 0.094994
H	 3.1204436293	-4.6297841431	 3.4508300121	 0.077848
H	 1.6332994928	-5.3369423944	 5.3323977547	 0.108226
H	 0.1873927206	-5.2710038599	 4.2285417371	 0.107491
H	 1.245211071	-6.9873380007	 2.7163843969	 0.108583
H	 2.7015757221	-7.0648318607	 3.8054262961	 0.108582
45.0906	59.9401	79.3078	99.9755	134.6572	146.5484	195.3115	237.016	258.9318	337.8499	379.6625	467.2901	500.6207	741.5807	775.8389	787.524	824.5496	838.2438	903.4255	933.3515	970.7655	983.4415	1040.627	1042.404	1059.7653	1072.2584	1077.5616	1104.0659	1141.6809	1165.3635	1176.4882	1199.1782	1202.6394	1220.8235	1227.2036	1235.25	1266.6108	1287.8934	1313.998	1328.1928	1338.4789	1390.6112	1419.3232	1428.4224	1469.3663	1481.4546	1483.0497	1485.3578	1490.224	1502.5455	1507.7722	1510.5506	1532.9265	2936.8368	2961.447	2965.1528	3003.1568	3004.9713	3010.2139	3028.3165	3030.572	3048.5417	3075.1312	3109.8385	3126.233	3126.9543	3132.5965	3203.8906	3219.2513
COCCCCC1CC1	COCCCCC1CC1	
InChI=1S/C8H16O/c1-9-7-3-2-4-8-5-6-8/h8H,2-7H2,1H3	InChI=1S/C8H16O/c1-9-7-3-2-4-8-5-6-8/h8H,2-7H2,1H3
