20
gdb 108020	3.86474	1.38483	1.2687	1.9343	80.36	-0.2193	0.0757	0.295	1071.6801	0.172604	-365.960926	-365.953503	-365.952559	-365.992761	30.122	
C	 0.0872651998	 1.4483854851	-0.2375402017	-0.379327
C	-0.0859110334	-0.017146081	 0.1830682799	-0.29062
C	-1.5173951564	-0.5000040248	 0.1448532334	 0.338346
C	-2.6281061868	 0.1315275814	 0.968982842	-0.302786
C	-3.7798456843	-0.7243757384	 0.4985936544	-0.048502
C	-3.3233882996	-2.0990222339	 0.1723118803	-0.053433
C	-1.8093891149	-1.9873606016	-0.0544463701	-0.168761
C	-2.1239572625	-0.9984633831	-1.1451529158	-0.05907
N	-3.617761239	-1.1309667337	-0.9358150695	-0.166368
H	 1.1433949955	 1.7344778463	-0.2254699261	 0.112518
H	-0.2969557822	 1.6167285265	-1.2487756833	 0.120388
H	-0.4463066281	 2.1246522765	 0.4377997285	 0.119566
H	 0.5191193383	-0.65588363	-0.4726197613	 0.098918
H	 0.3178996502	-0.1573115475	 1.1945642312	 0.099648
H	-2.4619803398	 0.0381235529	 2.0485430693	 0.103338
H	-2.7760871685	 1.1898511521	 0.7292543104	 0.1081
H	-4.8033478652	-0.5277785483	 0.7975922007	 0.093752
H	-3.8980578418	-3.0086571337	 0.3025022244	 0.092879
H	-1.0664647356	-2.7707804651	 0.0007927792	 0.088705
H	-1.7259433457	-0.8535176897	-2.1411676357	 0.09271
83.5951	159.8079	207.0509	300.4854	346.4333	431.0602	540.0935	592.0073	706.1639	745.0648	750.673	785.21	795.5798	805.7786	862.4005	892.0452	916.1	943.2762	964.9301	976.0276	995.3314	1007.3992	1032.6511	1044.5857	1064.0385	1096.2762	1101.0633	1160.169	1162.9502	1188.2435	1228.2545	1238.3206	1282.6041	1297.2163	1334.6977	1357.6791	1377.8097	1407.6662	1411.1391	1483.3415	1488.9731	1498.2032	1507.6613	3015.0337	3036.1815	3039.166	3047.3909	3082.638	3106.6103	3107.4054	3172.5692	3184.5211	3191.1378	3211.5975
CCC12CC3C4C1C2N34	CC[C@]12C[C@@H]3[C@@H]4[C@H]1[C@H]2N34	
InChI=1S/C8H11N/c1-2-8-3-4-6-5(8)7(8)9(4)6/h4-7H,2-3H2,1H3	InChI=1S/C8H11N/c1-2-8-3-4-6-5(8)7(8)9(4)6/h4-7H,2-3H2,1H3/t4-,5+,6-,7-,8+,9?/m1/s1
