19
gdb 57795	4.47971	0.61288	0.58871	1.0008	81.73	-0.2529	0.027	0.2798	1911.8737	0.157594	-422.969535	-422.959577	-422.958633	-423.006274	34.739	
C	 0.2026575869	 1.1489489377	-0.6685174669	-0.383915
C	 0.1117273832	-0.0148518963	 0.329228115	-0.019277
O	 0.4193036295	 0.4074860766	 1.6563891536	-0.412842
C	-1.191876953	-0.6847327794	 0.2590041954	 0.089214
C	-2.282129865	-1.1988468085	 0.2217711381	 0.035661
C	-3.5811350287	-1.8319943988	 0.1531260756	-0.214665
C	-4.6715177623	-1.2242988271	-0.7752093255	-0.072912
O	-4.9089915838	-2.4998884249	-1.3971424438	-0.267386
C	-3.759628244	-3.082045564	-0.7560111877	-0.072686
H	 1.1825417792	 1.6256114352	-0.582283858	 0.126157
H	 0.0646850369	 0.7950421918	-1.6943505931	 0.125112
H	-0.5717479371	 1.8940009504	-0.458890044	 0.115835
H	 0.8959030683	-0.7433961799	 0.0892136863	 0.118905
H	-0.3220098574	 0.9390122267	 1.9673235718	 0.281733
H	-3.9716430211	-2.0145647525	 1.1583021765	 0.113164
H	-5.5669050122	-0.8284053559	-0.284275825	 0.109777
H	-4.2815853441	-0.4825848839	-1.4834656964	 0.10731
H	-2.9285968308	-3.2391959868	-1.4546202671	 0.109315
H	-3.9977627544	-4.0235193705	-0.2500650947	 0.1115
26.1053	64.2124	88.9056	115.8933	195.6873	216.7299	254.4172	290.5817	354.3346	461.7135	496.3376	536.813	565.1525	650.1131	801.4538	878.3325	890.7632	921.3025	999.1947	1002.498	1035.0532	1040.623	1082.3387	1102.6176	1110.6452	1159.3439	1171.3219	1196.3378	1238.3169	1281.4395	1304.3123	1338.3427	1344.9588	1381.4892	1400.004	1417.1387	1488.3779	1491.671	1510.7362	1536.2559	2353.6778	3015.5413	3026.0895	3036.1213	3040.3215	3058.7185	3074.0868	3083.2637	3114.3014	3127.423	3804.4522
CC(O)C#CC1COC1	C[C@@H](O)C#CC1COC1	
InChI=1S/C7H10O2/c1-6(8)2-3-7-4-9-5-7/h6-8H,4-5H2,1H3	InChI=1S/C7H10O2/c1-6(8)2-3-7-4-9-5-7/h6-8H,4-5H2,1H3/t6-/m1/s1
