19
gdb 90000	3.86676	1.15049	1.062	2.6513	77.82	-0.2379	0.006	0.2438	1199.3509	0.158794	-423.011973	-423.00368	-423.002736	-423.045278	31.343	
C	 0.2783619854	 1.5803123155	-0.0736391573	-0.388651
C	-0.0390926796	 0.099493422	 0.132051744	 0.066733
O	 0.3541153446	-0.6530468704	-1.0259997083	-0.314215
C	 1.2326236386	-1.7047290293	-0.6763171202	 0.321341
C	 0.8730940049	-3.1109339335	-1.2338456523	-0.123397
O	 2.1743378467	-3.2440061115	-1.8376975865	-0.273016
C	 2.4910414392	-1.8641714013	-1.5717962164	-0.121246
C	 1.4305434176	-1.5682423753	 0.8018729153	-0.147087
C	 0.7073079685	-0.5555209155	 1.2638321318	-0.110805
H	 1.3559699711	 1.7297664365	-0.1872783695	 0.120569
H	-0.2225992303	 1.9497450408	-0.972651804	 0.128954
H	-0.0695780949	 2.1703055398	 0.7808258508	 0.113493
H	-1.1276566893	-0.0127051969	 0.2647122491	 0.086694
H	 0.6676770731	-3.9063524091	-0.5082021381	 0.10019
H	 0.0660599898	-3.0661210148	-1.9764908752	 0.106422
H	 2.4381462709	-1.2379792924	-2.4718060209	 0.106222
H	 3.4701802016	-1.7461082772	-1.0933417976	 0.100148
H	 2.076044456	-2.2295266915	 1.3659555892	 0.117407
H	 0.6379467058	-0.2158059258	 2.289529876	 0.110243
66.6148	86.8232	176.8801	233.9982	298.0477	300.3655	376.7835	430.708	488.777	565.1111	736.1889	779.509	800.3254	846.235	870.8489	898.9888	937.4979	942.9713	962.7606	1000.9633	1030.5413	1047.9838	1053.0799	1087.4385	1120.2482	1138.0324	1149.204	1159.6765	1204.5541	1243.8951	1290.4278	1342.9536	1357.8669	1369.926	1376.8369	1401.3014	1485.961	1494.6871	1497.6762	1526.0275	1687.4275	2966.0036	3007.0443	3018.7084	3038.2404	3067.476	3068.123	3112.1745	3122.9644	3205.6428	3229.9206
CC1OC2(COC2)C=C1	C[C@H]1OC2(COC2)C=C1	
InChI=1S/C7H10O2/c1-6-2-3-7(9-6)4-8-5-7/h2-3,6H,4-5H2,1H3	InChI=1S/C7H10O2/c1-6-2-3-7(9-6)4-8-5-7/h2-3,6H,4-5H2,1H3/t6-/m1/s1
