22
gdb 113453	3.81556	0.95595	0.92981	1.5038	87.35	-0.2214	0.0847	0.3061	1402.3257	0.194372	-367.153329	-367.144466	-367.143522	-367.187047	34.427	
C	 0.2239339306	 1.5019991288	 0.1638307673	-0.370818
C	-0.2284257295	 0.0831921128	-0.2008475569	-0.196567
C	 0.5500080155	-0.5058248695	-1.3592431501	-0.042043
C	 1.8840313368	-1.1882002339	-1.1202493893	-0.374254
C	 0.6826876451	-1.9872373569	-1.5359266987	 0.397577
C	 0.0293913478	-3.1478938067	-0.7378009099	-0.314094
C	-0.0753948404	-3.9145429012	-2.065644424	-0.036442
N	-0.9031617925	-3.0798734669	-2.973089976	-0.336785
C	 0.5496380726	-2.7903832368	-2.814102977	-0.156078
H	 1.2815244495	 1.5167757132	 0.4476702051	 0.115307
H	 0.1003514011	 2.1849600199	-0.6839440061	 0.112849
H	-0.3566406891	 1.9024262496	 1.0010323387	 0.107942
H	-0.1245070076	-0.5705403662	 0.674450042	 0.092344
H	-1.2973808268	 0.0899601021	-0.4499153719	 0.1034
H	 0.4753968527	 0.0669694563	-2.2821593079	 0.077573
H	 2.6833492122	-1.0421294848	-1.8406329828	 0.105223
H	 2.2262609499	-1.2869611612	-0.0933467779	 0.105164
H	 0.7197163285	-3.6113141037	-0.0279419818	 0.101493
H	-0.9248976533	-2.9395345505	-0.2467697316	 0.106483
H	 0.0084815504	-4.9833854621	-2.2171896195	 0.091021
H	-1.0015858544	-3.6063945656	-3.8421292635	 0.223307
H	 1.217160891	-2.7976836266	-3.6680004083	 0.087397
68.419	113.1513	141.9438	185.5948	247.2888	308.1897	351.5846	416.063	445.0254	496.8919	611.378	755.6685	778.9512	810.6441	814.0166	834.5249	887.7061	891.97	925.3907	935.2217	956.9836	976.3609	993.8885	1044.6764	1048.4924	1060.2729	1091.7365	1106.2366	1121.7737	1131.5816	1163.2034	1189.2412	1201.1658	1228.1077	1287.1309	1295.8939	1309.6964	1326.2765	1353.5922	1383.2961	1408.1584	1438.4269	1474.56	1484.4626	1497.3468	1501.19	1507.1882	3018.7619	3030.2235	3049.6976	3055.0605	3097.6748	3102.5648	3110.5081	3111.4565	3120.3713	3177.0721	3194.0555	3194.8038	3456.5431
CCC1CC11CC2NC12	CC[C@H]1C[C@]21C[C@H]1N[C@@H]21	
InChI=1S/C8H13N/c1-2-5-3-8(5)4-6-7(8)9-6/h5-7,9H,2-4H2,1H3	InChI=1S/C8H13N/c1-2-5-3-8(5)4-6-7(8)9-6/h5-7,9H,2-4H2,1H3/t5-,6+,7+,8+/m0/s1
