16
gdb 25748	2.80683	1.50673	0.98703	2.0442	75.36	-0.197	-0.0177	0.1793	1142.2092	0.124027	-437.949997	-437.941556	-437.940611	-437.983062	31.543	
C	 0.0488043648	 1.5091130513	-0.0097677008	-0.487109
C	 0.032866346	-0.0085058189	 0.0230452943	 0.294592
O	 1.0874817814	-0.6467179626	 0.0142523869	-0.381654
C	-1.2488222793	-0.6772374756	 0.0566210167	 0.08409
C	-1.368902899	-2.0609537633	 0.0625078917	 0.382428
N	-0.4139212402	-3.0104907273	 0.1297491164	-0.59224
O	-2.6564072433	-2.4372213683	 0.0428716073	-0.186486
C	-3.4159105467	-1.2705515074	 0.0285033737	-0.030288
C	-2.6110954978	-0.1904472077	 0.0402388951	-0.29821
H	 1.0812961216	 1.8587573999	-0.0393414339	 0.137639
H	-0.4895259009	 1.883167234	-0.8876498521	 0.134958
H	-0.4508794337	 1.9190092558	 0.8750084772	 0.1359
H	 0.5189695646	-2.637187299	-0.0124638156	 0.288291
H	-0.6337235525	-3.9384244795	-0.19317514	 0.263695
H	-4.4803899238	-1.4241768307	 0.0122375446	 0.139258
H	-2.9324108212	 0.8393489193	 0.0328504584	 0.115135
95.3705	116.5626	177.3738	191.4844	290.3838	318.0322	359.9474	432.4405	500.421	568.1486	611.8761	618.1025	638.6964	680.045	742.5488	766.8152	830.7783	902.1348	947.2444	1012.4181	1042.0792	1043.9519	1114.1911	1164.5646	1221.8456	1323.5831	1361.3546	1390.8259	1466.7627	1477.2545	1495.2386	1533.4666	1591.686	1658.9201	1715.8668	3036.249	3096.9005	3151.7046	3257.7496	3302.036	3507.9327	3686.7842
CC(=O)C1=C(N)OC=C1	CC(=O)c1c(N)occ1	
InChI=1S/C6H7NO2/c1-4(8)5-2-3-9-6(5)7/h2-3H,7H2,1H3	InChI=1S/C6H7NO2/c1-4(8)5-2-3-9-6(5)7/h2-3H,7H2,1H3
