15
gdb 45023	2.44043	1.85344	1.21673	4.2908	67.9	-0.269	-0.0191	0.2499	990.6977	0.1145	-453.969482	-453.962346	-453.961402	-454.00138	27.336	
N	-0.2877568574	 1.3197652618	-0.1965127442	-0.506487
C	-0.1492246186	 0.0676984316	-0.1296686151	 0.445073
O	 1.0751259927	-0.5357121788	-0.347343183	-0.241447
C	 1.2345254907	-1.8710043859	-0.6665030573	 0.421901
O	 2.3376995815	-2.3246857509	-0.6679620873	-0.29603
C	-0.0107548865	-2.6328084912	-1.0873622392	-0.352723
C	-1.2332849598	-2.2270280282	-0.3035080191	-0.042437
N	-0.9749965219	-1.9551545696	 1.1106742775	-0.330017
C	-1.2814997824	-0.8288071175	 0.1977030493	-0.110725
H	 0.5934210024	 1.7667892048	-0.4564376283	 0.235645
H	-0.1701211737	-2.439306694	-2.1564820181	 0.145488
H	 0.2158137585	-3.6954554388	-0.9756019606	 0.151535
H	-2.1711652988	-2.6946750483	-0.5905476428	 0.107709
H	-1.7918264076	-2.1570716336	 1.6805190577	 0.249328
H	-2.2307723491	-0.3144356613	 0.2857496304	 0.123188
91.401	121.2099	259.722	340.3875	375.5279	455.5057	513.9697	546.3557	581.7555	650.7918	712.7162	809.3455	845.8386	867.741	901.6921	927.095	953.1878	998.7207	1010.8799	1070.7052	1115.2849	1128.9387	1161.9214	1194.4162	1229.2808	1256.3604	1340.4638	1351.5535	1395.541	1450.9557	1462.6691	1761.6127	1881.5046	3037.8038	3113.1835	3149.1264	3196.7701	3477.2587	3520.4997
N=C1OC(=O)CC2NC12	[NH][C]1OC(=O)C[C@H]2N[C@@H]12	
InChI=1S/C5H6N2O2/c6-5-4-2(7-4)1-3(8)9-5/h2,4,6-7H,1H2	InChI=1S/C5H6N2O2/c6-5-4-2(7-4)1-3(8)9-5/h2,4,6-7H,1H2/t2-,4-/m1/s1
