19
gdb 39638	4.35476	0.98262	0.91733	2.4918	78.94	-0.2294	0.0052	0.2345	1322.5041	0.16001	-423.003718	-422.995384	-422.99444	-423.037945	29.978	
C	-0.0028378592	 1.3187705552	-0.1863551042	-0.059635
C	 1.5061361483	 1.4848822977	 0.0680746398	-0.298183
C	 1.396469238	 0.0962264701	 0.7590710199	 0.030608
O	 0.0203448724	-0.0381600516	 0.3072029604	-0.292763
C	 2.2673316613	-1.01409752	 0.2910627703	 0.329541
C	 3.18281773	-1.6872865252	 0.9839714743	-0.235662
C	 3.8483181426	-2.7074241209	 0.1074738937	-0.100155
O	 3.2273532099	-2.5671785557	-1.1671249524	-0.268168
C	 2.2266436771	-1.5537694001	-1.1180569516	-0.155064
H	-0.6465628833	 1.9628293256	 0.4266929491	 0.102156
H	-0.339702028	 1.369702644	-1.2275026432	 0.108701
H	 2.1186649593	 1.4839757466	-0.8348952974	 0.116703
H	 1.8125466274	 2.3114062598	 0.7101776301	 0.114028
H	 1.4396588967	 0.1677499325	 1.8542568939	 0.076041
H	 3.4318644377	-1.5465337918	 2.0287821297	 0.101751
H	 4.9342234548	-2.5432991578	 0.0153267523	 0.104416
H	 3.7105117267	-3.7341456417	 0.4840275449	 0.106518
H	 1.2409277833	-1.9763455569	-1.3595069784	 0.120854
H	 2.443274595	-0.7834392797	-1.875535691	 0.098313
54.6049	81.1893	101.7784	145.6978	206.4558	323.0677	386.31	526.7227	625.7146	757.8564	782.5106	824.6081	841.1609	889.3908	920.8135	942.6088	945.9227	975.0553	1010.5501	1023.7041	1032.2969	1063.2198	1094.4301	1114.4477	1166.4782	1173.5122	1213.0871	1220.4901	1224.9054	1254.9338	1266.6182	1299.0615	1353.1138	1366.4354	1379.3507	1400.9301	1490.0654	1515.8725	1528.6532	1531.7486	1724.7717	2965.7976	2975.0931	2980.8712	3006.9086	3011.8104	3016.8909	3063.0908	3085.1449	3141.0356	3209.6443
C1CC(O1)C1=CCOC1	C1C[C@@H](O1)C1=CCOC1	
InChI=1S/C7H10O2/c1-3-8-5-6(1)7-2-4-9-7/h1,7H,2-5H2	InChI=1S/C7H10O2/c1-3-8-5-6(1)7-2-4-9-7/h1,7H,2-5H2/t7-/m1/s1
