16
gdb 18982	4.2784	2.23744	1.81571	2.1442	63.18	-0.2355	0.0687	0.3042	744.0254	0.132896	-383.671733	-383.66601	-383.665066	-383.701303	23.579	
C	-0.0098861822	 1.4165591195	 0.0986179823	-0.067135
C	 1.4301404281	 1.9330499192	 0.0246509803	-0.266675
C	 2.1903768615	 1.1302334907	-1.0298971906	-0.013302
C	 1.3623909793	 0.3559496051	-2.1025081743	-0.015277
O	 2.4590266096	-0.6163687509	-2.2311972316	-0.307485
C	 2.3320768812	-0.3929791193	-0.7789835125	 0.01714
C	 0.7902289071	-0.5312239688	-0.9466935874	 0.126976
O	-0.0720210958	-0.0043011813	 0.0164245766	-0.267117
H	-0.5038060546	 1.6948658251	 1.0327578656	 0.112471
H	-0.5898548279	 1.8479124288	-0.7323345002	 0.097974
H	 1.4185780919	 2.9996204839	-0.2250447391	 0.107796
H	 1.9341245622	 1.8358509905	 0.9938879933	 0.111115
H	 3.0954887105	 1.6023700872	-1.4171654981	 0.081919
H	 0.8993084539	 0.709064163	-3.0246499115	 0.092353
H	 3.017430968	-0.9250814999	-0.1182258299	 0.090739
H	 0.4456645471	-1.522925533	-1.2415912531	 0.09851
218.881	260.9733	416.6748	442.7423	488.3653	578.2258	685.1323	756.9157	809.3002	852.4967	878.2348	887.6266	891.8726	936.9607	975.7498	1011.9694	1053.6225	1074.9155	1097.1634	1133.1575	1147.5228	1160.2921	1187.9866	1206.5522	1243.5847	1261.8275	1265.2709	1284.7009	1331.8076	1353.4978	1395.174	1417.9118	1485.3351	1510.043	2981.3401	3032.1465	3074.4243	3096.8679	3097.7493	3109.6016	3113.1264	3126.6771
C1CC2C3OC2C3O1	C1C[C@@H]2[C@H]3O[C@@H]2[C@H]3O1	
InChI=1S/C6H8O2/c1-2-7-6-4-3(1)5(6)8-4/h3-6H,1-2H2	InChI=1S/C6H8O2/c1-2-7-6-4-3(1)5(6)8-4/h3-6H,1-2H2/t3-,4-,5+,6+
