19
gdb 33241	5.62672	0.74359	0.66498	2.4573	78.65	-0.2156	0.0377	0.2533	1681.9676	0.159908	-419.239302	-419.230128	-419.229184	-419.274893	32.403	
C	-0.0372208165	 1.4971910201	 0.0108433425	-0.38681
C	-0.019691282	-0.0220132805	 0.0020032706	-0.018057
O	-1.3527549114	-0.4872860358	 0.0122697216	-0.246936
C	-1.451487458	-1.8941141091	 0.0057252822	-0.165769
C	-2.8957004148	-2.2767212679	 0.0165259881	 0.256756
C	-3.9891677379	-1.452646355	 0.0272772004	-0.166376
N	-5.0779225482	-2.3001587702	 0.0341677357	-0.235458
C	-4.5983864117	-3.5745647317	 0.0269210455	 0.008703
N	-3.2856438148	-3.5980631035	 0.0162542235	-0.314495
H	 0.9835935366	 1.8907739468	 0.0031066649	 0.114354
H	-0.5636806405	 1.8794954971	-0.8683582988	 0.124914
H	-0.5463645035	 1.8693789278	 0.9044600835	 0.124945
H	 0.5076661802	-0.3980642076	-0.8913800622	 0.086138
H	 0.5248129014	-0.4081608323	 0.8806681894	 0.08615
H	-0.9542518493	-2.3176709978	-0.8842805983	 0.101167
H	-0.9386634498	-2.3272126007	 0.8821566348	 0.10124
H	-4.0856182117	-0.3815366158	 0.0308408415	 0.137808
H	-6.0450166984	-2.0241857374	 0.0429617572	 0.265026
H	-5.2487018998	-4.4366591365	 0.0300327279	 0.126699
31.6222	68.8752	100.2518	112.9781	241.1259	268.8578	272.0556	349.0797	497.2598	513.2323	652.5602	688.4646	741.0001	742.4196	816.6141	820.226	907.8523	949.7003	988.7882	1044.5143	1050.7033	1088.854	1134.8156	1146.9475	1172.0285	1189.1024	1237.7028	1241.1869	1264.6538	1295.4084	1350.8107	1387.6767	1405.429	1448.0567	1461.3672	1483.2185	1499.3356	1508.9858	1526.2536	1535.6651	1609.3596	2944.7326	2957.1285	2965.415	2976.8099	3044.1864	3118.9903	3120.4438	3250.3271	3297.2923	3671.325
CCOCC1=CNC=N1	CCOCc1c[nH]cn1	
InChI=1S/C6H10N2O/c1-2-9-4-6-3-7-5-8-6/h3,5H,2,4H2,1H3,(H,7,8)	InChI=1S/C6H10N2O/c1-2-9-4-6-3-7-5-8-6/h3,5H,2,4H2,1H3,(H,7,8)
