13
gdb 64638	2.37234	1.63973	1.42582	4.0752	62.53	-0.2989	-0.0578	0.2411	949.8036	0.088863	-452.795859	-452.788061	-452.787117	-452.82838	27.914	
C	-0.0328931897	 1.5463845216	-0.0047642969	-0.40875
C	-0.0058724427	 0.0059005856	-0.0219808319	-0.050921
N	 0.8002260768	-0.5081049605	-1.1447796403	-0.249537
C	 1.7473014635	-1.155679387	-0.6086196133	 0.12624
O	 1.8119742053	-1.2422306207	 0.7599020375	-0.198513
C	 0.7178234479	-0.5318354394	 1.2409444534	 0.440741
O	 0.4854533619	-0.3855625909	 2.3931924818	-0.294677
C	-1.3678737939	-0.5372790905	-0.0893670001	 0.308115
N	-2.4430050188	-0.955789833	-0.1349015646	-0.31903
H	 0.9898537325	 1.9293730836	 0.0264575002	 0.143345
H	-0.5219462972	 1.9113060948	-0.9091312198	 0.162134
H	-0.5762520554	 1.894700087	 0.8759652772	 0.164653
H	 2.5489206197	-1.6646358007	-1.1294513832	 0.176199
92.6896	141.2281	194.1968	226.0342	236.544	308.0833	423.5011	503.5295	560.6687	581.9758	638.1022	720.3469	755.591	843.6795	897.7995	953.1683	960.0621	1018.6861	1114.8627	1136.6934	1170.9179	1227.4035	1336.6495	1403.4126	1481.8113	1487.7077	1692.4985	1934.2862	2367.5867	3059.6955	3143.9733	3157.1197	3235.7033
CC1(N=COC1=O)C#N	C[C@]1(N=COC1=O)C#N	
InChI=1S/C5H4N2O2/c1-5(2-6)4(8)9-3-7-5/h3H,1H3	InChI=1S/C5H4N2O2/c1-5(2-6)4(8)9-3-7-5/h3H,1H3/t5-/m0/s1
