16
gdb 37184	3.62757	1.74989	1.63911	1.2164	66.49	-0.2274	0.062	0.2894	853.5966	0.126011	-437.751759	-437.745779	-437.744835	-437.781713	25.768	
C	 0.0897292756	 1.5076511133	 0.2202783391	-0.272921
N	 1.5534349569	 1.4203803062	-0.1271146586	-0.332319
C	 1.3101878044	 0.2004430295	-0.9550265252	-0.008704
C	 1.4785009313	-1.2064945492	-0.3502642164	 0.004759
O	 0.726148567	-0.7683579026	 0.8183871514	-0.322125
C	-0.0161370584	 0.0407557996	-0.1886247136	 0.352679
C	-0.8068019361	-1.0570629478	-0.9039032775	-0.08969
O	-0.2877687182	-1.333100086	-2.2185062212	-0.2416
C	 0.3203794478	-1.9855285928	-1.0911516358	 0.042009
H	-0.1131447944	 1.7342763655	 1.269975432	 0.124322
H	-0.4886449041	 2.1748224423	-0.4314081605	 0.107413
H	 1.8740600694	 2.1965256257	-0.6945772314	 0.223799
H	 1.3595740893	 0.3309162206	-2.0338553569	 0.101223
H	 2.4000435343	-1.7455901071	-0.1251010048	 0.08198
H	-1.8344649734	-1.3381851707	-0.7073949988	 0.114109
H	 0.2466435885	-3.0671434663	-1.0592147418	 0.115066
264.4602	293.4741	402.5437	414.687	462.6263	600.4324	611.0849	659.5746	737.9427	755.9029	792.2042	838.3094	850.7309	880.1342	897.4157	938.7162	943.2482	973.6357	990.8483	1031.9673	1061.948	1080.815	1086.7529	1143.1869	1190.6795	1198.6634	1214.898	1241.33	1276.4451	1279.1809	1305.9143	1358.2274	1361.3084	1402.9927	1491.6476	3023.3354	3101.3951	3107.7867	3133.9047	3177.3175	3192.651	3542.1376
C1NC2C3OC12C1OC31	C1N[C@H]2[C@H]3O[C@@]12[C@H]1O[C@@H]31	
InChI=1S/C6H7NO2/c1-6-4(7-1)2(9-6)3-5(6)8-3/h2-5,7H,1H2	InChI=1S/C6H7NO2/c1-6-4(7-1)2(9-6)3-5(6)8-3/h2-5,7H,1H2/t2-,3-,4-,5-,6-/m0/s1
