18
gdb 102896	3.01182	0.79316	0.64994	4.885	79.67	-0.28	0.0197	0.2997	1665.2297	0.144716	-401.918884	-401.908621	-401.907676	-401.954974	35.672	
C	-0.0109649622	 1.3812219044	 0.2193602923	-0.240946
O	-0.0633084652	 0.0342053403	-0.2101926265	-0.236634
C	-1.3302076528	-0.5800419491	-0.0450249141	-0.080991
C	-1.2657147997	-1.9419934054	-0.7504833741	-0.199024
C	-0.9214688602	-1.7833513961	-2.2436644837	-0.347598
C	-0.8615878551	-3.0669302392	-2.9371208745	 0.254302
N	-0.8195829265	-4.0898097476	-3.4731497294	-0.304916
C	-1.698683343	-0.7371317087	 1.3678821681	 0.327167
C	-1.9946592534	-0.8749143624	 2.5244819828	-0.436597
H	 0.9995308803	 1.7393118437	 0.0124993514	 0.134566
H	-0.7325612146	 2.0058532423	-0.3290573643	 0.107744
H	-0.2142763808	 1.4710847385	 1.2941168188	 0.126753
H	-2.1018368246	 0.0407742265	-0.5357629688	 0.094492
H	-0.5080044453	-2.5565530257	-0.2568696968	 0.141996
H	-2.2276862121	-2.447775917	-0.6330398973	 0.13374
H	-1.6689904001	-1.1545188372	-2.7424482693	 0.147374
H	 0.0410541688	-1.2742008884	-2.3445494627	 0.173175
H	-2.2587240433	-0.9959424689	 3.5464744381	 0.205397
60.9473	85.7155	102.1753	112.1993	170.2532	196.9055	237.2786	268.1533	315.8365	398.3739	448.7888	482.9666	576.3496	608.5324	637.929	682.0493	761.4728	867.4918	932.1643	996.8688	1038.5146	1050.3229	1090.2295	1144.7234	1184.2523	1185.7283	1240.1902	1266.3999	1314.4535	1342.4459	1365.2337	1390.3242	1468.4917	1478.7899	1483.7653	1485.2284	1510.2974	2233.0044	2363.3069	2937.7378	2987.9758	3043.3057	3054.129	3071.5364	3098.9682	3123.6285	3127.687	3500.0471
COC(CCC#N)C#C	CO[C@@H](CCC#N)C#C	
InChI=1S/C7H9NO/c1-3-7(9-2)5-4-6-8/h1,7H,4-5H2,2H3	InChI=1S/C7H9NO/c1-3-7(9-2)5-4-6-8/h1,7H,4-5H2,2H3/t7-/m1/s1
