23
gdb 63651	3.87817	0.86106	0.8257	0.9016	87.26	-0.2331	0.0867	0.3198	1544.6223	0.203298	-388.257321	-388.247257	-388.246313	-388.292641	37.959	
C	-0.084430093	 1.529729845	 0.0751100609	-0.444473
C	 0.0339127576	 0.0177465623	 0.0773165374	 0.29609
C	-0.9014710464	-0.6924283201	-0.8826804202	-0.451184
C	 1.4124606954	-0.5861522284	 0.3031891283	-0.357059
C	 0.3485273807	-0.6717691391	 1.3737310056	 0.102329
O	 0.4404332057	 0.1151323692	 2.5255740587	-0.253661
C	 1.1644876934	-0.4831758073	 3.5602793702	 0.154798
C	 2.6464900119	-0.2429129322	 3.6843994108	-0.283483
C	 1.6675525374	 0.428647102	 4.6296216069	-0.29435
H	 0.5661992143	 1.9809073365	 0.8263465333	 0.124002
H	 0.1822581751	 1.9363703001	-0.9071936629	 0.108782
H	-1.1118712357	 1.8407295624	 0.2969820897	 0.114039
H	-0.6987380185	-0.3936875261	-1.9180514105	 0.114333
H	-0.7900405858	-1.7799106176	-0.8249084114	 0.110002
H	-1.9485006465	-0.4505920439	-0.6651184747	 0.115927
H	 1.6884002411	-1.4895079105	-0.2317608166	 0.103948
H	 2.2306967114	 0.1029524484	 0.4797219185	 0.111298
H	-0.1106057796	-1.6460377178	 1.5509331337	 0.078476
H	 0.7839604124	-1.4619888921	 3.8541816646	 0.083066
H	 3.2742156315	-1.0439724347	 4.059459289	 0.111194
H	 3.1105411932	 0.3845789364	 2.932976738	 0.117954
H	 1.4880554575	 1.4873901267	 4.4808471275	 0.124467
H	 1.6162885967	 0.099052571	 5.6610924733	 0.113507
42.9236	83.9182	122.3111	196.71	205.4372	235.7767	268.6436	318.905	363.5982	393.2437	419.0486	495.5404	521.6017	695.5817	756.3019	808.055	832.3582	844.2033	886.9316	917.084	966.0728	974.1292	976.4473	1006.1935	1031.4313	1041.6682	1055.4631	1071.1806	1080.6008	1120.7768	1129.3181	1159.3126	1179.1096	1193.6166	1201.5784	1245.196	1289.4043	1336.1583	1382.5529	1408.4761	1423.3194	1428.7443	1454.3911	1479.5472	1483.5627	1491.3434	1501.2872	1502.5538	1516.4194	3020.1372	3028.7892	3080.1397	3080.9722	3084.2024	3094.3079	3096.5191	3127.1046	3131.9311	3138.1924	3142.3112	3216.9155	3222.2046	3235.9088
CC1(C)CC1OC1CC1	CC1(C)C[C@H]1OC1CC1	
InChI=1S/C8H14O/c1-8(2)5-7(8)9-6-3-4-6/h6-7H,3-5H2,1-2H3	InChI=1S/C8H14O/c1-8(2)5-7(8)9-6-3-4-6/h6-7H,3-5H2,1-2H3/t7-/m1/s1
