16
gdb 43447	2.97048	1.51642	1.09321	1.0393	73.62	-0.2281	-0.0027	0.2254	1077.7462	0.126051	-434.113651	-434.105899	-434.104955	-434.145818	30.137	
N	-0.1122086285	 1.3195338125	 0.0933800098	-0.572917
C	-0.014382444	 0.0577408291	-0.0209963478	 0.420886
N	 1.1241050959	-0.7674344914	-0.0462111844	-0.398797
C	 0.8251782674	-2.11628814	-0.0377277359	 0.404403
O	 1.6049021066	-3.038783062	-0.025411446	-0.37617
C	-0.6765136144	-2.1721591143	-0.0490847068	 0.251627
C	-1.3678636776	-3.3223328124	-0.7341236044	-0.300732
C	-1.3845174439	-3.225943012	 0.7694432578	-0.311123
N	-1.0917372647	-0.8012739961	-0.156992302	-0.399494
H	 0.7995890167	 1.7622758421	 0.1736765232	 0.21333
H	 2.0675775508	-0.4157047077	-0.0306948614	 0.267517
H	-2.2804594894	-3.0909050414	-1.2718906683	 0.126838
H	-0.7282697508	-4.0694739526	-1.1907430733	 0.145846
H	-0.7585166754	-3.9062429013	 1.336284785	 0.145894
H	-2.3101250812	-2.9335316536	 1.2542456418	 0.122996
H	-1.9770574274	-0.4808607989	 0.2007642925	 0.259895
107.6707	143.5402	223.9989	235.3564	362.7481	400.1524	428.4687	512.9573	527.7513	603.3243	643.1164	714.9943	745.2765	757.6892	765.2543	777.7581	912.3656	932.5834	947.9179	980.3056	1014.5698	1068.0808	1082.8301	1107.0696	1180.4389	1199.1006	1286.9242	1337.8659	1348.3747	1417.2715	1434.5088	1448.4709	1488.957	1777.4416	1850.7151	3132.1682	3138.5599	3221.6697	3237.835	3524.3171	3648.9257	3660.5042
N=C1NC(=O)C2(CC2)N1	[NH][C]1NC(=O)C2(CC2)N1	
InChI=1S/C5H7N3O/c6-4-7-3(9)5(8-4)1-2-5/h1-2H2,(H3,6,7,8,9)	InChI=1S/C5H7N3O/c6-4-7-3(9)5(8-4)1-2-5/h1-2H2,(H3,6,7,8,9)
