15
gdb 27582	3.38108	1.21066	0.8921	5.605	84.66	-0.2236	-0.0434	0.1802	1220.656	0.115629	-379.758979	-379.751463	-379.750519	-379.790834	29.213	
N	-0.0183511805	 1.4076918251	 0.1448887936	-0.591352
C	 0.0041380691	 0.0214638148	 0.0481291883	 0.3459
C	-1.1870325518	-0.7131865503	 0.0384185184	-0.282224
C	-1.155104136	-2.1104157431	 0.0016028716	 0.212385
C	 0.0634755573	-2.8003101219	-0.0271996237	-0.228647
C	 1.2436750445	-2.0656973127	-0.0190587698	-0.078375
C	 1.22170675	-0.6773041134	 0.0173782069	-0.181593
C	-2.3874181031	-2.838861957	-0.0103807747	 0.205695
N	-3.3840706793	-3.4280604902	-0.0213646695	-0.338405
H	 0.804948079	 1.8810768135	-0.1955269217	 0.252749
H	-0.8684181944	 1.8533710511	-0.1661522877	 0.254135
H	-2.1426632915	-0.2009246869	 0.0626646723	 0.108688
H	 0.073735078	-3.8822279518	-0.0571110106	 0.118093
H	 2.1974117195	-2.5818161533	-0.0435480087	 0.108156
H	 2.1538253193	-0.120299334	 0.0260493354	 0.094796
143.2378	150.5626	222.4602	320.9463	376.7247	401.3602	461.3913	483.8091	535.2744	565.5001	584.8382	652.1223	706.2733	731.614	805.4134	882.078	895.8535	949.9011	965.8482	1006.9232	1088.0396	1135.2174	1181.0679	1197.1191	1319.6649	1342.5851	1356.867	1481.9987	1523.9936	1619.426	1642.5828	1662.921	2343.677	3169.8561	3188.819	3191.4341	3218.3741	3574.4324	3675.2001
NC1=CC(=CC=C1)C#N	Nc1cc(ccc1)C#N	
InChI=1S/C7H6N2/c8-5-6-2-1-3-7(9)4-6/h1-4H,9H2	InChI=1S/C7H6N2/c8-5-6-2-1-3-7(9)4-6/h1-4H,9H2
