17
gdb 71008	3.08902	1.64814	1.5018	2.5779	68.81	-0.2366	0.0483	0.2848	927.6173	0.135514	-458.837165	-458.830037	-458.829093	-458.868164	29.284	
O	-0.0429003853	 1.4321222939	-0.1249774504	-0.47224
C	 0.0092892935	 0.0564468254	-0.0233619537	 0.281243
C	 0.3076550252	-0.7484499652	 1.3902996287	-0.393391
C	-0.3961978519	-1.8442442329	 0.5585170853	 0.328286
C	-1.5619939122	-2.7910297273	 0.1816163911	-0.173575
O	-2.0199153312	-1.7699178987	-0.7857077822	-0.314547
C	-1.3085863688	-0.7852095276	 0.0297940213	 0.095701
O	 0.5778666385	-2.0666430384	-0.5050321366	-0.289758
C	 0.8791362564	-0.7538756132	-0.9769621209	-0.130799
H	 0.8498476059	 1.775850877	-0.2419878339	 0.290495
H	 1.3547257832	-0.9012099914	 1.6598883738	 0.110787
H	-0.2721414352	-0.3386063188	 2.2163412158	 0.122377
H	-1.2817207697	-3.7227132053	-0.3122101424	 0.130893
H	-2.3109926486	-2.9510760799	 0.9639229059	 0.110883
H	-1.9964679632	-0.3519286016	 0.762157085	 0.096111
H	 0.577776824	-0.6317230205	-2.0244280776	 0.117221
H	 1.9518931695	-0.5364503455	-0.8804183392	 0.090314
220.1612	240.7679	253.8071	297.1557	363.9638	382.6633	475.2954	479.4957	592.8085	609.6958	671.7267	796.4544	826.5599	834.8365	854.6476	908.6005	924.6744	951.5659	986.5835	1005.2527	1043.3782	1088.2814	1104.2063	1120.7572	1144.284	1175.8223	1181.2986	1200.6093	1238.5802	1270.5944	1292.3167	1342.7196	1369.5611	1400.6111	1476.377	1489.1471	1524.5004	3003.6093	3048.2512	3053.0395	3062.0827	3079.3355	3133.5736	3163.7002	3800.3505
OC12CC3(COC13)OC2	O[C@@]12C[C@]3(CO[C@H]13)OC2	
InChI=1S/C6H8O3/c7-5-1-6(9-2-5)3-8-4(5)6/h4,7H,1-3H2	InChI=1S/C6H8O3/c7-5-1-6(9-2-5)3-8-4(5)6/h4,7H,1-3H2/t4-,5-,6-/m1/s1
