17
gdb 34871	2.26849	1.73323	1.19751	1.602	77.9	-0.2491	0.0408	0.2898	1059.2192	0.134586	-384.59874	-384.590818	-384.589874	-384.631116	31.002	
C	-0.1346929367	-1.2782012225	-0.0318282139	-0.467624
C	-0.0695341666	-0.0774867225	 0.0023246771	 0.335627
C	 0.0408070873	 1.3679694214	 0.0516137664	-0.284766
C	-0.2534865909	 2.1002558597	 1.384724608	-0.055455
C	 0.7692625398	 1.7439427759	 2.4196504076	-0.289304
C	 1.1310163494	 2.7562189783	 1.3604635697	-0.153098
C	 1.4540586035	 2.025446887	 0.0778811071	 0.457845
C	 2.7206359696	 1.5753877993	-0.4924567204	-0.26934
O	 1.9672388183	 2.6640023599	-1.0679508615	-0.283705
H	-0.2044101473	-2.3373041643	-0.0634476658	 0.196853
H	-0.5171298348	 1.8270180773	-0.7710081994	 0.122168
H	-1.2109987346	 2.5386547513	 1.6331914271	 0.100532
H	 0.5929954452	 2.15542856	 3.4081194118	 0.119017
H	 1.2271369138	 0.7583596548	 2.419812336	 0.124177
H	 1.4177664576	 3.7755710733	 1.5845198685	 0.104575
H	 3.6597666096	 1.8596448155	-0.0203088237	 0.116934
H	 2.7482539771	 0.6660413757	-1.0901146047	 0.125566
98.4106	127.4774	179.8363	288.5674	324.3631	356.0007	471.7014	479.1914	559.1898	613.7552	623.6183	637.5323	745.0072	792.3427	826.199	858.7054	909.0635	937.8396	962.8679	985.34	1000.7079	1050.5986	1063.7436	1084.9829	1090.0832	1121.2014	1144.4658	1163.7336	1182.8866	1198.3558	1284.2286	1321.7932	1343.1698	1440.4225	1489.7142	1535.3848	2230.8783	3062.0858	3086.9278	3118.0506	3177.8455	3194.4597	3199.6736	3211.2118	3502.6866
C#CC1C2CC2C11CO1	C#C[C@H]1[C@H]2C[C@H]2[C@]21CO2	
InChI=1S/C8H8O/c1-2-6-5-3-7(5)8(6)4-9-8/h1,5-7H,3-4H2	InChI=1S/C8H8O/c1-2-6-5-3-7(5)8(6)4-9-8/h1,5-7H,3-4H2/t5-,6+,7-,8-/m1/s1
