17
gdb 54133	2.8702	1.27323	1.11538	2.136	70.08	-0.251	0.015	0.266	1136.2875	0.134906	-455.188687	-455.17968	-455.178736	-455.222713	33.497	
C	-0.3610259983	 1.7284726017	-0.315497629	-0.441227
C	-0.0544597872	 0.2578529273	-0.1142401072	 0.311777
C	 0.8350067267	-0.4344006184	-1.1802648802	-0.399089
C	 1.8333586132	-0.5615206108	-0.0535942975	 0.434328
N	 2.9873362728	-1.0326904066	 0.0619895512	-0.535924
O	 1.019396806	 0.056426801	 0.8849000328	-0.302244
C	-1.3220209995	-0.5294088116	 0.2318713434	 0.346651
N	-1.2666409243	-1.2222425333	 1.3945140256	-0.523308
O	-2.2777310549	-0.5096825289	-0.5203518569	-0.375819
H	 0.531519589	 2.2656463009	-0.6469381165	 0.124825
H	-1.1485195828	 1.8279306013	-1.0657971521	 0.158471
H	-0.712955905	 2.1779313614	 0.6179255026	 0.134156
H	 0.4572539096	-1.3780746314	-1.5753011592	 0.153549
H	 1.1534134149	 0.2045920303	-2.0054663045	 0.142695
H	 3.344930394	-0.9214547193	 1.0122709233	 0.228781
H	-0.452002582	-1.1699114467	 1.9817063394	 0.275705
H	-2.073741612	-1.7488211568	 1.6847714149	 0.266674
49.7869	81.8522	210.1545	240.0272	250.9767	305.2821	318.234	357.8028	413.04	479.7318	505.2433	534.3156	629.4784	652.8901	770.6395	777.3051	859.6614	872.696	899.9646	950.9438	974.8264	1007.0728	1082.1158	1090.8024	1119.3382	1191.9148	1232.0433	1245.0747	1285.4957	1386.1157	1402.135	1464.8055	1484.2407	1494.7742	1597.5952	1797.5385	1831.1174	3047.8282	3091.9704	3120.5513	3141.9498	3147.384	3477.2279	3601.597	3741.2458
CC1(CC(=N)O1)C(N)=O	C[C@]1(C[C]([NH])O1)C(=O)N	
InChI=1S/C5H8N2O2/c1-5(4(7)8)2-3(6)9-5/h6H,2H2,1H3,(H2,7,8)	InChI=1S/C5H8N2O2/c1-5(4(7)8)2-3(6)9-5/h6H,2H2,1H3,(H2,7,8)/t5-/m0/s1
