16
gdb 42987	2.82729	1.72301	1.29179	1.9714	68.98	-0.2539	-0.0423	0.2116	971.7277	0.125482	-437.865642	-437.858473	-437.857529	-437.897329	27.805	
O	 0.1173881042	 0.0850038762	 0.3031868113	-0.345327
C	 0.030019991	 1.2752829214	 0.1157299437	 0.371932
C	-1.2133968932	 2.06615542	-0.1885912642	-0.090572
O	-1.3015446252	 3.2225393719	 0.6685021026	-0.241933
C	-0.7759395746	 3.4044499144	-0.6420470357	 0.039877
C	 0.7424299521	 3.5023333477	-0.6614082202	-0.342262
C	 1.1946505251	 2.2342021526	 0.0555210077	 0.232646
C	 2.207339575	 2.1489629868	 1.1494562204	-0.26455
N	 2.5233908678	 1.6621998368	-0.1899421869	-0.353174
H	-2.1460390519	 1.5833462041	-0.4598344235	 0.120551
H	-1.3867018982	 4.0002709619	-1.3149689738	 0.112546
H	 1.1119179606	 3.5061964899	-1.6924450564	 0.127988
H	 1.0875493708	 4.4200146468	-0.1763511707	 0.12503
H	 2.7219492408	 3.0586786364	 1.4469749789	 0.127511
H	 2.0297579	 1.427539668	 1.9424905203	 0.13305
H	 2.4195222657	 0.6460042352	-0.2060270837	 0.246688
88.4553	197.5241	260.6806	274.8302	365.54	375.7741	453.8898	580.5413	623.1372	719.4832	788.2951	821.5157	842.4937	859.4923	887.5188	939.4725	963.611	994.2254	1004.4335	1049.9109	1085.8801	1102.7296	1124.3609	1176.0194	1196.7741	1241.3668	1270.8894	1299.678	1301.5806	1332.521	1388.2245	1413.3226	1480.1899	1499.7124	1827.144	3052.6639	3097.2704	3107.7831	3155.4812	3185.1741	3200.681	3449.82
O=C1C2OC2CC11CN1	O=C1[C@H]2O[C@H]2C[C@]21CN2	
InChI=1S/C6H7NO2/c8-5-4-3(9-4)1-6(5)2-7-6/h3-4,7H,1-2H2	InChI=1S/C6H7NO2/c8-5-4-3(9-4)1-6(5)2-7-6/h3-4,7H,1-2H2/t3-,4-,6+/m0/s1
