17
gdb 61096	2.36192	1.23369	1.02017	0.3484	85.65	-0.2587	0.0244	0.2831	1235.2676	0.130536	-347.44767	-347.437427	-347.436482	-347.482349	38.061	
C	-0.0658817196	 1.5646518414	-0.046842134	-0.404756
C	-0.0454410132	 0.0143159475	-0.0250178889	-0.15775
C	 0.6998311485	-0.5033394389	 1.2602003659	-0.370403
C	 0.1023275261	-0.0561864643	 2.5094905417	 0.325128
C	-0.3839160812	 0.3181831795	 3.542716617	-0.453131
C	-1.4199022086	-0.5045880834	-0.0468366105	 0.37463
C	-2.5476156855	-0.9171015236	-0.053078101	-0.486715
C	 0.6883453608	-0.4861822311	-1.1966058529	 0.343076
C	 1.3230794773	-0.8817871508	-2.1365553422	-0.461804
H	 0.9581259401	 1.9482470361	-0.0500115323	 0.124395
H	-0.576947722	 1.9214146773	-0.9428078626	 0.136188
H	-0.5873308287	 1.9383839392	 0.8365531498	 0.143307
H	 0.7216445296	-1.5970811553	 1.2239201777	 0.149014
H	 1.7392921677	-0.1618255873	 1.1959603343	 0.140945
H	-0.8158841677	 0.6395540017	 4.4579493558	 0.198216
H	-3.5432569791	-1.2864839727	-0.0623145919	 0.200386
H	 1.8671624156	-1.2361066754	-2.9770838659	 0.199271
74.4946	114.7123	127.6988	174.4398	188.1855	236.2504	266.2951	328.3598	356.4458	431.7439	474.8327	489.9515	561.4178	583.8612	620.0816	637.7121	640.5462	643.0544	652.0304	653.2187	712.151	883.9898	923.589	963.0694	985.8135	1087.8975	1153.1104	1186.256	1277.9775	1333.8368	1403.069	1463.5357	1487.468	1494.0738	2236.2134	2239.6216	2243.0285	3041.8787	3052.709	3084.7749	3133.1204	3146.9646	3501.1324	3502.3455	3505.6743
CC(CC#C)(C#C)C#C	CC(CC#C)(C#C)C#C	
InChI=1S/C9H8/c1-5-8-9(4,6-2)7-3/h1-3H,8H2,4H3	InChI=1S/C9H8/c1-5-8-9(4,6-2)7-3/h1-3H,8H2,4H3
