20
gdb 90562	2.86875	1.06219	0.98028	3.124	79.17	-0.2332	-0.0239	0.2093	1306.5959	0.169917	-403.105501	-403.096397	-403.095453	-403.140555	33.244	
C	-0.4911785837	 1.6372093525	 0.4438159807	-0.424384
C	-0.1667899968	 0.1484920969	 0.3791194552	 0.034673
C	 0.5914409291	-0.4989961415	-0.8130614327	-0.202794
N	 1.5182000869	-1.2572947351	 0.1088155528	-0.146327
C	 2.3058238882	-0.2611588936	 0.8613751121	 0.009922
C	 2.9374147945	 0.9800595155	 0.2563703659	-0.334527
C	 4.1302504228	 0.6144525544	-0.6077479514	 0.178351
O	 4.307094852	 1.0165921758	-1.7278461288	-0.239069
C	 0.9027658222	-0.4784768388	 1.2769642242	-0.088958
H	 0.3859710422	 2.2719839766	 0.2977710044	 0.122181
H	-1.2256210119	 1.9040296328	-0.323911319	 0.121345
H	-0.9247425285	 1.8942368233	 1.4166587317	 0.120135
H	-1.0953688347	-0.4108560326	 0.5312979746	 0.090831
H	-0.0062251901	-1.2063117073	-1.3900915133	 0.114045
H	 1.1019531519	 0.1709993001	-1.5113372063	 0.115974
H	 3.010067145	-0.7914779079	 1.5036845264	 0.099859
H	 2.2596490525	 1.5871027796	-0.3412964083	 0.13044
H	 3.3065942652	 1.6072639114	 1.0811067121	 0.126474
H	 4.8592607264	-0.0749717354	-0.1219080131	 0.078591
H	 0.6828672967	-0.9690479466	 2.2219859124	 0.093238
31.6999	75.0235	132.7302	165.0035	205.7607	269.086	324.372	386.7263	461.2371	497.4552	608.0935	682.7704	703.3166	767.6318	791.0066	874.4791	887.9316	935.0693	965.4649	977.6768	1025.9465	1060.5612	1081.3838	1104.3479	1121.1779	1138.1826	1175.3835	1190.9431	1222.6838	1253.7241	1274.0232	1284.4308	1301.0584	1369.2515	1390.0358	1413.0457	1429.5538	1452.686	1459.9094	1495.8955	1497.0889	1520.5943	1836.3164	2865.1327	3016.0206	3035.2626	3050.8312	3060.656	3094.5018	3097.7946	3116.5205	3119.8726	3139.1398	3148.4393
CC1CN2C(CC=O)C12	C[C@H]1CN2[C@@H](CC=O)[C@@H]12	
InChI=1S/C7H11NO/c1-5-4-8-6(2-3-9)7(5)8/h3,5-7H,2,4H2,1H3	InChI=1S/C7H11NO/c1-5-4-8-6(2-3-9)7(5)8/h3,5-7H,2,4H2,1H3/t5-,6-,7+,8?/m0/s1
