20
gdb 82510	2.73225	1.58953	1.38011	1.177	77.71	-0.2162	0.0727	0.2889	1029.964	0.171768	-403.112267	-403.104161	-403.103217	-403.144331	32.697	
C	-0.1785742055	 1.5552037441	-0.027568307	-0.435012
C	 0.0231872098	 0.0563795576	-0.0608752101	 0.011013
C	 0.6394951402	-0.6840402076	-1.1956189906	-0.062725
C	 1.4116242441	 0.0902714047	-2.2196756042	-0.100542
C	 2.8148566361	-0.4169356905	-2.5154781334	-0.355052
C	 2.5948647093	 0.6910622401	-1.5166195834	 0.400709
O	 2.9779145402	 1.9981715667	-1.8245620502	-0.476597
C	 2.5103862332	 0.2821111964	-0.0421037689	-0.243353
N	 1.3357976751	-0.6061443272	 0.1182547218	-0.123165
H	 0.5324211975	 2.1053164421	-0.6457501543	 0.14936
H	-1.187457112	 1.7941442153	-0.381068408	 0.11982
H	-0.0969650883	 1.9300283324	 0.999226856	 0.121593
H	-0.7512115619	-0.4838558047	 0.4828756699	 0.087774
H	 0.2589213408	-1.6664096187	-1.4689787542	 0.086164
H	 0.8977660946	 0.6461559147	-2.9961259533	 0.099841
H	 3.105717562	-1.40136373	-2.1606107748	 0.116383
H	 3.2330241682	-0.1251509591	-3.4725451928	 0.112853
H	 3.9354448859	 2.0595722544	-1.7388787792	 0.28474
H	 3.3976414599	-0.2704053327	 0.2896418721	 0.09768
H	 2.4243578809	 1.1778021621	 0.5827645444	 0.108514
123.4473	173.9815	217.3156	285.2911	300.321	354.1813	374.6681	424.238	477.8662	532.0291	604.5223	695.1488	741.1543	751.4259	783.6252	841.331	910.1441	926.2647	943.5626	974.6099	1013.5264	1027.2875	1043.5801	1053.2567	1062.9987	1113.1246	1124.7206	1153.1479	1171.3292	1205.0915	1254.1792	1273.3375	1291.7597	1318.5408	1326.395	1379.461	1409.0044	1417.4508	1426.5088	1481.6987	1496.6135	1504.6481	1515.6969	3025.749	3035.4144	3069.872	3088.5493	3101.891	3120.3169	3122.435	3144.7933	3173.1068	3218.0881	3798.9199
CC1C2C3CC3(O)CN12	C[C@H]1[C@H]2[C@@H]3C[C@]3(O)CN12	
InChI=1S/C7H11NO/c1-4-6-5-2-7(5,9)3-8(4)6/h4-6,9H,2-3H2,1H3	InChI=1S/C7H11NO/c1-4-6-5-2-7(5,9)3-8(4)6/h4-6,9H,2-3H2,1H3/t4-,5-,6-,7-,8?/m0/s1
