18
gdb 46939	2.55282	2.05877	1.54729	3.9243	74.07	-0.2394	0.0026	0.2419	910.9619	0.150786	-401.94598	-401.939232	-401.938287	-401.976971	27.561	
O	-0.2977495048	 0.6548703801	 1.2024731001	-0.326041
C	-0.155421554	 1.3306136383	 0.2136321669	 0.361536
C	-1.2504982	 1.6953623131	-0.7711770572	-0.299665
C	-1.4679134283	 3.2346981156	-0.7230763042	-0.230129
C	-0.1480184527	 3.9716414182	-0.4375684573	-0.025081
C	 0.4028512171	 3.9536356172	 1.0420830152	-0.265124
C	 1.5829958192	 3.0896790905	 0.5735550625	-0.035766
C	 1.108011543	 3.1747826384	-0.8534345943	-0.08288
N	 1.0848723219	 1.9171973406	-0.1289729067	-0.087581
H	-0.9197512678	 1.4102381038	-1.7762871516	 0.123746
H	-2.1594084305	 1.1421552177	-0.5334973095	 0.123564
H	-1.8984719224	 3.5694320013	-1.6722618633	 0.10695
H	-2.1962886691	 3.4814158024	 0.0567645951	 0.117873
H	-0.1703152449	 4.9886455263	-0.8331565666	 0.081753
H	 0.7167174553	 4.9498182572	 1.3610031392	 0.108307
H	-0.2336147025	 3.5149882991	 1.8162825987	 0.122629
H	 2.5874964598	 3.0675854764	 0.9775820645	 0.107165
H	 1.6688258005	 3.2366197037	-1.7790513113	 0.098743
130.6131	166.2312	320.7925	351.0866	423.3887	501.7306	558.0225	610.0708	697.1973	737.7621	789.3473	811.5391	849.9318	862.2144	891.6543	929.2378	947.164	985.957	1004.0908	1028.5801	1063.1381	1069.75	1091.1429	1130.0132	1153.0888	1185.8938	1222.532	1231.2219	1245.7909	1271.1429	1299.9599	1310.5957	1339.3442	1358.2763	1385.2733	1473.8585	1488.4496	1496.6886	1823.4005	3042.4481	3048.0736	3060.446	3082.0114	3091.7253	3118.581	3134.2422	3177.534	3196.1263
O=C1CCC2CC3C2N13	O=C1CC[C@H]2C[C@@H]3[C@H]2N13	
InChI=1S/C7H9NO/c9-6-2-1-4-3-5-7(4)8(5)6/h4-5,7H,1-3H2	InChI=1S/C7H9NO/c9-6-2-1-4-3-5-7(4)8(5)6/h4-5,7H,1-3H2/t4-,5+,7-,8?/m0/s1
