14
gdb 13846	4.20772	1.7158	1.33431	2.0915	57.99	-0.2427	0.0083	0.251	875.2502	0.109159	-415.906819	-415.899686	-415.898742	-415.938911	25.707	
N	 0.3145661793	 0.4402366768	 0.9098405339	-0.517296
C	-0.108351454	 0.2178330426	-0.3582289746	 0.389313
O	 0.4738413935	 0.5902381981	-1.35935749	-0.366306
C	-1.4588635269	-0.5156194026	-0.445675185	-0.092974
C	-1.5549150475	-1.4295143534	-1.6894258932	-0.117373
O	-1.7410121881	-2.7558999673	-1.1227102165	-0.215144
C	-1.7995542528	-2.5777678979	 0.2092504431	 0.130324
N	-1.6848627457	-1.4135166548	 0.7042830398	-0.295408
H	 1.2154148059	 0.8672679845	 1.0496526217	 0.261585
H	-0.1409112283	-0.0436427167	 1.6676672355	 0.276258
H	-2.2290656709	 0.2642161535	-0.4540611236	 0.122848
H	-2.4146921349	-1.2152602885	-2.3271810123	 0.124644
H	-0.6414856221	-1.4153371715	-2.2857128601	 0.151337
H	-1.9450953874	-3.4879985029	 0.7806557612	 0.148192
63.3493	84.7241	232.8874	299.3584	374.3905	440.8054	502.1555	554.7474	615.6624	689.1082	783.513	827.9498	899.1144	947.9981	969.6132	1013.5753	1031.1322	1069.7127	1114.981	1156.958	1201.7628	1269.4428	1305.1601	1321.1187	1370.9766	1374.8359	1523.2947	1598.9693	1695.9995	1800.9932	3042.1765	3080.2717	3138.5159	3215.5178	3582.2232	3722.1102
NC(=O)C1COC=N1	NC(=O)[C@H]1COC=N1	
InChI=1S/C4H6N2O2/c5-4(7)3-1-8-2-6-3/h2-3H,1H2,(H2,5,7)	InChI=1S/C4H6N2O2/c5-4(7)3-1-8-2-6-3/h2-3H,1H2,(H2,5,7)/t3-/m1/s1
