20
gdb 40515	3.08641	1.36991	1.17267	1.4441	78.65	-0.2372	0.0728	0.31	1127.252	0.172223	-403.085477	-403.077448	-403.076504	-403.118466	31.008	
C	 0.2134783701	 1.5316201226	 0.1046368837	-0.236533
N	 1.3372188874	 0.5896255836	-0.0154802756	-0.32026
C	-0.0410955544	 0.070366688	 0.010900511	-0.123214
C	-0.4367175174	-0.7420772301	 1.2013959258	 0.509303
C	 0.2016506418	-0.4775610462	 2.586556453	-0.288206
C	 0.3871816696	-2.0152319103	 2.784322644	-0.22896
C	-0.2329895202	-2.2821380455	 1.3880376519	-0.14386
C	-1.766933766	-2.3400222711	 1.3740948024	-0.086115
O	-1.8782549308	-0.9001234384	 1.2765225817	-0.337085
H	 0.1406996097	 2.0301213139	 1.0668349339	 0.123962
H	-0.0507816259	 2.1497459182	-0.7488089422	 0.115132
H	 1.6910262393	 0.5851482802	-0.9679412824	 0.234511
H	-0.466973611	-0.2875333302	-0.9250551929	 0.082704
H	 1.1466602114	 0.0654003012	 2.5232700084	 0.125706
H	-0.4710654059	 0.0250270685	 3.2845780275	 0.102392
H	 1.4348546449	-2.3146633829	 2.8557948454	 0.106324
H	-0.1552693418	-2.461847945	 3.6224252557	 0.097962
H	 0.3110068846	-2.9204687966	 0.6923463171	 0.073274
H	-2.2057939695	-2.8317818604	 0.4959516524	 0.096736
H	-2.2485198757	-2.7350682795	 2.2781388794	 0.096228
79.2922	83.9294	173.8446	226.0304	300.8695	365.9057	402.594	474.5516	612.6084	681.6977	742.7969	820.6974	854.2669	875.3412	895.4868	908.8285	916.6144	948.381	966.7191	987.8916	1007.3314	1028.4068	1064.8009	1087.8891	1115.0529	1120.1334	1139.9326	1152.1613	1186.2024	1191.2997	1236.6662	1244.7609	1251.1452	1267.3183	1286.1681	1310.1449	1332.0581	1351.5687	1447.4404	1457.9878	1485.5201	1514.6321	1524.7396	3002.1231	3043.1705	3057.4818	3071.444	3104.3113	3113.4534	3115.9342	3120.7003	3135.8438	3199.8722	3510.9411
C1NC1C12CCC1CO2	C1N[C@H]1[C@]12CC[C@H]1CO2	
InChI=1S/C7H11NO/c1-2-7(6-3-8-6)5(1)4-9-7/h5-6,8H,1-4H2	InChI=1S/C7H11NO/c1-2-7(6-3-8-6)5(1)4-9-7/h5-6,8H,1-4H2/t5-,6+,7-/m0/s1
