15
gdb 21088	3.5166	1.93456	1.34174	1.8622	62.69	-0.2562	-0.0019	0.2543	889.204	0.120898	-396.00156	-395.993984	-395.99304	-396.033774	26.699	
C	 0.1918641038	 1.3920323068	 0.0546230407	-0.341874
N	 0.113281439	-0.0568410975	 0.0711199216	 0.008888
N	 0.1356853613	-0.7630188623	-1.0849629167	-0.250576
C	 0.0186255952	-2.0103753673	-0.6585314248	 0.020447
N	-0.071226384	-2.152919286	 0.6893786009	-0.314328
C	-0.0152720659	-0.9005981543	 1.1221921964	 0.313946
C	-0.0703535792	-0.4746394957	 2.5582484709	-0.186473
O	 1.0466619735	 0.316298527	 2.9523289034	-0.407024
H	 0.8680441249	 1.6918766125	-0.7469004569	 0.158944
H	-0.7927431108	 1.8335014156	-0.1293477019	 0.144689
H	 0.5799528222	 1.730175292	 1.0155024522	 0.169732
H	 0.0070194234	-2.8442081949	-1.3445771895	 0.125267
H	-0.948240895	 0.15281072	 2.7456332179	 0.129484
H	-0.1723951696	-1.3832761334	 3.1628892279	 0.135493
H	 1.8378936713	-0.2228517627	 2.8446355579	 0.293385
82.4032	131.7911	170.4671	214.9414	261.2284	373.6147	393.0958	452.1828	658.7393	693.9345	727.8364	781.8222	904.6821	964.1551	994.3316	1038.902	1058.1024	1154.0861	1177.2828	1211.2612	1231.8058	1312.8858	1314.4658	1358.5733	1414.5323	1428.7784	1456.8601	1490.9138	1492.8802	1498.9747	1524.7599	1558.8909	3039.2888	3050.3343	3084.2258	3129.7888	3168.6515	3258.4354	3808.3586
CN1N=CN=C1CO	Cn1ncnc1CO	
InChI=1S/C4H7N3O/c1-7-4(2-8)5-3-6-7/h3,8H,2H2,1H3	InChI=1S/C4H7N3O/c1-7-4(2-8)5-3-6-7/h3,8H,2H2,1H3
