19
gdb 101535	2.50199	1.00353	0.83068	1.9806	80.08	-0.2764	-0.039	0.2374	1463.1912	0.155534	-423.032246	-423.021832	-423.020888	-423.068319	36.858	
C	-0.1051471333	 1.5663318336	-0.0118388262	-0.39041
C	-0.053033527	 0.0375455501	-0.0610644679	-0.183208
C	 0.7428928652	-0.5127374802	-1.2405542284	 0.14355
C	 0.8539487998	-2.0329283689	-1.2467486602	-0.41199
O	 0.0413720952	-0.0757786245	-2.4428150241	-0.247594
C	 0.7716452542	 0.0542926477	-3.5602739716	 0.303247
O	 1.9542489276	-0.167180865	-3.6575155798	-0.361304
C	-0.0545351254	 0.5084902203	-4.6604919434	 0.221868
C	-0.6917783004	 0.882764104	-5.6077204035	-0.361131
H	 0.8999077212	 1.9943990633	 0.0719188255	 0.116998
H	-0.5681863231	 1.9706743991	-0.9158815155	 0.132551
H	-0.6862868934	 1.9097601255	 0.8488720453	 0.115519
H	 0.4061941386	-0.3525355499	 0.8551166099	 0.102568
H	-1.0685617753	-0.3749338786	-0.1018937496	 0.10796
H	 1.7426964997	-0.0685784525	-1.270147782	 0.110495
H	-0.1387531024	-2.4929385495	-1.2730086353	 0.124671
H	 1.4265862706	-2.3732096473	-2.1121292178	 0.143111
H	 1.3678669757	-2.3720971683	-0.3421261372	 0.121539
H	-1.2549095676	 1.2136709611	-6.446142278	 0.21156
53.8058	67.2415	117.1234	126.8557	212.2509	216.747	226.7741	256.7479	289.1567	371.6444	422.764	485.3571	537.7141	607.4492	654.5414	698.3881	772.9924	777.3596	838.9006	881.9825	945.7839	981.2627	1007.3021	1035.5404	1137.2613	1143.1208	1200.7563	1254.4856	1300.1032	1330.422	1384.479	1398.5304	1407.0744	1410.6822	1474.523	1488.8489	1496.9385	1502.4605	1509.2487	1783.8479	2236.418	3030.5562	3038.5001	3044.8809	3061.2463	3075.4131	3105.415	3116.3559	3121.6627	3134.5336	3498.1787
CCC(C)OC(=O)C#C	CC[C@@H](C)OC(=O)C#C	
InChI=1S/C7H10O2/c1-4-6(3)9-7(8)5-2/h2,6H,4H2,1,3H3	InChI=1S/C7H10O2/c1-4-6(3)9-7(8)5-2/h2,6H,4H2,1,3H3/t6-/m1/s1
