22
gdb 122720	3.29059	0.54273	0.48915	2.0253	84.05	-0.2424	0.0309	0.2734	2278.6586	0.191518	-441.473173	-441.46189	-441.460946	-441.511419	38.607	
C	 1.0429525061	 1.042732981	 0.4929850129	-0.374818
C	 0.291728194	-0.1456794042	-0.0933057606	-0.070375
O	-0.2008232677	-1.0181495173	 0.924619058	-0.203223
C	 0.641352258	-1.9864636142	 1.3475618403	 0.126838
N	 0.3282949049	-2.7083128365	 2.3274207898	-0.2393
C	 1.2005014676	-3.7812109161	 2.7708694679	-0.129066
C	 2.5298143992	-4.010429978	 2.0397462716	-0.182802
C	 3.3133046683	-5.1705410753	 2.6400253636	-0.083414
O	 4.5213385342	-5.3079733492	 1.9061446697	-0.423583
H	 1.9425295599	 0.7171506222	 1.0248168042	 0.124727
H	 1.3470808672	 1.7292785024	-0.3038184378	 0.119698
H	 0.4073001472	 1.5862984422	 1.197294049	 0.13731
H	-0.5929730479	 0.1866332296	-0.6433355634	 0.120876
H	 0.9271725094	-0.7060862915	-0.7928967	 0.105802
H	 1.5593936932	-2.0636025743	 0.7498317305	 0.07752
H	 1.401645178	-3.6079411471	 3.8376726149	 0.109222
H	 0.6089035019	-4.7073433891	 2.7406835105	 0.109764
H	 2.3570156567	-4.2264259778	 0.9784801645	 0.108186
H	 3.15730038	-3.1120455681	 2.086016439	 0.106929
H	 3.5152464941	-4.9720666685	 3.7054298772	 0.086957
H	 2.710634035	-6.0922646302	 2.5903402127	 0.087238
H	 5.0174921207	-6.0422020101	 2.2796019853	 0.285514
35.9085	60.4011	92.4733	101.5761	116.739	169.218	202.5016	250.0449	263.7092	278.2355	332.5146	392.3456	439.1593	521.7046	609.7427	761.7807	800.8734	876.3625	903.8376	986.9535	1000.3646	1034.0589	1048.4718	1081.515	1085.6239	1113.5575	1154.1043	1171.6032	1225.9925	1233.4513	1245.9997	1313.5475	1315.6406	1321.1786	1335.4365	1395.4956	1398.9036	1411.0738	1427.9706	1461.4876	1484.5156	1485.3169	1493.4443	1503.1152	1513.1303	1529.2825	1777.5993	2958.7503	2984.4377	3001.7827	3012.5702	3020.4535	3024.9701	3034.3982	3040.2159	3076.0283	3087.8175	3113.5291	3124.9947	3828.6414
CCOC=NCCCO	CCOC=NCCCO	
InChI=1S/C6H13NO2/c1-2-9-6-7-4-3-5-8/h6,8H,2-5H2,1H3	InChI=1S/C6H13NO2/c1-2-9-6-7-4-3-5-8/h6,8H,2-5H2,1H3
