17
gdb 106221	3.55512	1.50746	1.30565	0.8665	72.21	-0.2161	-0.0032	0.2129	999.63	0.135475	-421.757414	-421.750056	-421.749112	-421.789114	29.119	
C	-0.3027789698	 1.2612210112	 0.1320206309	-0.255844
O	 0.2510833787	-0.0292213512	-0.0668813292	-0.296935
C	 0.8802536384	-0.5530163755	 1.0476095164	 0.368697
C	 2.1868136973	-0.0630268746	 1.5536894073	-0.145598
C	 2.7426536615	-1.002644773	 2.3334057563	-0.095672
C	 1.7506241888	-2.1256280592	 2.4766593677	 0.026921
O	 0.6363903136	-1.56828257	 3.3112578078	-0.297274
C	-0.0534994874	-1.2599174094	 2.1275674907	 0.036611
C	 0.8283928641	-2.0464226112	 1.2239528541	-0.225096
H	 0.472843711	 2.0108056671	 0.3404901542	 0.114487
H	-0.8136745203	 1.532307572	-0.7943732083	 0.129892
H	-1.0233304255	 1.2673542476	 0.9609518684	 0.11249
H	 2.5618964176	 0.9377356655	 1.3792277669	 0.106196
H	 3.6391677416	-0.9061900559	 2.9312160805	 0.107105
H	 2.0775706254	-3.0843285753	 2.8744161524	 0.088227
H	-1.1199796685	-1.0758669376	 2.1735120255	 0.116023
H	 0.6489875835	-2.7694679903	 0.4385815583	 0.10977
105.0837	169.7944	184.6995	349.2207	379.8858	398.3607	433.3142	591.9582	613.2065	694.8948	721.0616	766.7012	810.8994	823.3724	853.4763	875.1682	923.6606	930.6248	964.5284	988.0499	1046.1787	1057.8336	1101.246	1105.0212	1179.6147	1180.9134	1205.9857	1212.8532	1234.5673	1269.4533	1307.6031	1362.2583	1387.9406	1479.4614	1490.0029	1506.7926	1624.2452	2998.2475	3052.5222	3124.3222	3137.2717	3188.4532	3201.1617	3204.5413	3230.2261
COC12C=CC3OC1C23	CO[C@@]12C=C[C@H]3O[C@@H]1[C@@H]23	
InChI=1S/C7H8O2/c1-8-7-3-2-4-5(7)6(7)9-4/h2-6H,1H3	InChI=1S/C7H8O2/c1-8-7-3-2-4-5(7)6(7)9-4/h2-6H,1H3/t4-,5+,6-,7-/m1/s1
