16
gdb 42688	3.15268	1.77553	1.76357	2.1972	67.21	-0.2231	-0.0392	0.1839	846.1802	0.127232	-437.856953	-437.85088	-437.849935	-437.887227	25.233	
O	 0.0523427292	 0.0159797226	-0.0083083264	-0.315077
C	 0.0014815661	 1.2110453156	 0.0013728133	 0.464911
C	-1.1631953121	 2.1866605031	 0.0367012191	-0.164385
C	-0.7124628755	 3.2293656328	 1.0976765056	 0.109336
C	-1.0203204493	 4.2976842692	 0.0483375611	-0.185997
N	-0.8421907494	 3.250356197	-1.0259316166	-0.144875
C	 0.6373599096	 3.0739304765	-1.242822511	-0.197245
C	 1.0933664439	 2.2969265212	-0.0001423264	-0.040635
O	 0.7220959957	 3.0335334606	 1.1773214945	-0.29213
H	-2.1818516157	 1.8112913299	 0.0190531081	 0.102926
H	-1.1164911883	 3.2617523948	 2.1114369785	 0.091646
H	-2.059676215	 4.6403934137	 0.0607615277	 0.113448
H	-0.3429224984	 5.1541450309	-0.0109646258	 0.112102
H	 0.8103539036	 2.4899504385	-2.154852284	 0.122011
H	 1.1175511662	 4.0486109602	-1.3543635036	 0.119642
H	 2.1294587593	 1.9745245833	 0.0714900958	 0.104323
150.4053	296.1648	374.3094	440.8884	486.5705	563.7218	573.7777	691.324	749.6486	805.3796	828.9233	844.4657	870.015	891.7091	916.207	946.4552	961.3945	998.103	1016.5345	1058.4589	1081.2976	1151.4547	1161.2625	1198.2798	1207.17	1227.0366	1248.6005	1252.8168	1287.8315	1300.5281	1323.5315	1350.8729	1481.8492	1498.8862	1895.8055	3035.7746	3046.2662	3092.2202	3104.7461	3109.3616	3157.3106	3171.2088
O=C1C2C3CN2CC1O3	O=C1[C@H]2[C@@H]3CN2C[C@H]1O3	
InChI=1S/C6H7NO2/c8-6-4-2-7-1-3(9-4)5(6)7/h3-5H,1-2H2	InChI=1S/C6H7NO2/c8-6-4-2-7-1-3(9-4)5(6)7/h3-5H,1-2H2/t3-,4+,5+/m0/s1
