21
gdb 57482	2.90815	1.26918	1.12406	1.0065	80.02	-0.2284	0.0163	0.2447	1191.2279	0.18047	-424.234497	-424.224916	-424.223972	-424.268508	36.405	
C	 0.0149427566	 1.5353635194	 0.0176087669	-0.428181
C	 0.019317639	 0.0043143211	 0.0354899247	 0.329297
C	 0.7475629078	-0.5317778561	 1.2651814922	-0.398823
O	-1.3190683028	-0.502684695	 0.1104268317	-0.46576
C	 0.6453262705	-0.5323788306	-1.2803930844	 0.074237
O	 1.9921028013	-0.0736481687	-1.4285299366	-0.282317
C	 2.8547352107	-1.163674234	-1.7524274442	-0.11741
C	 1.9876730131	-2.3875207682	-1.6567836522	-0.100611
C	 0.7375364909	-2.0299573713	-1.3887895962	-0.093723
H	 1.0336078014	 1.9233527171	-0.0591061815	 0.13856
H	-0.5478856993	 1.9109538535	-0.8465509743	 0.09794
H	-0.4513359395	 1.9249524345	 0.9270335597	 0.116228
H	 0.3131004053	-0.1082950819	 2.1747105588	 0.114548
H	 0.6635630002	-1.6198764995	 1.318760913	 0.120768
H	 1.8057971853	-0.2643118336	 1.2198344378	 0.124459
H	-1.8482061869	-0.0347591867	-0.5448502984	 0.275366
H	 0.0316193308	-0.1244869097	-2.1070724966	 0.060722
H	 3.2733290813	-1.0277637502	-2.7633132909	 0.103949
H	 3.7020897665	-1.1811250573	-1.051136512	 0.108041
H	 2.3638229314	-3.3921444816	-1.8031273753	 0.106002
H	-0.1227459036	-2.6725378711	-1.2643929523	 0.116709
80.7263	98.0138	187.0478	211.8793	239.6786	267.5517	293.3714	320.5041	344.3481	378.5431	441.1425	473.2631	554.6017	698.7913	769.8177	799.7061	817.3581	903.7722	936.7094	940.3423	950.0634	966.9705	977.3916	1014.8064	1046.2301	1055.3567	1109.6911	1120.5567	1125.4923	1198.0998	1212.3714	1242.4519	1299.3705	1319.6436	1354.6606	1378.1238	1382.0393	1404.1269	1424.7047	1480.69	1486.4664	1500.1374	1505.9356	1519.9442	1688.846	2904.0334	2967.9011	3001.9452	3023.8077	3052.5828	3095.5334	3124.1523	3130.3201	3136.5772	3212.1135	3245.1013	3801.911
CC(C)(O)C1OCC=C1	CC(C)(O)[C@H]1OCC=C1	
InChI=1S/C7H12O2/c1-7(2,8)6-4-3-5-9-6/h3-4,6,8H,5H2,1-2H3	InChI=1S/C7H12O2/c1-7(2,8)6-4-3-5-9-6/h3-4,6,8H,5H2,1-2H3/t6-/m0/s1
