20
gdb 14298	3.56347	1.62172	1.56722	0.2547	80.59	-0.2143	0.0281	0.2424	960.6781	0.177698	-311.879572	-311.871678	-311.870734	-311.911298	30.823	
C	-0.0935891442	 1.5481137859	 0.0913739702	-0.413026
C	 0.0418504512	 0.0481057921	-0.035577798	 0.004245
C	 0.7009966373	-0.649497782	-1.2026580742	-0.068316
C	 1.6611568548	 0.129461388	-2.1022520179	-0.316062
C	 2.8055560348	 0.5282020989	-1.1837297365	 0.322894
C	 3.9393946506	 1.3767963677	-1.6661594488	-0.490595
C	 2.6201316001	 0.0370557428	 0.0477901854	-0.176151
C	 1.3435032133	-0.7184485522	 0.179320974	-0.094359
H	 0.8284467546	 2.0653900561	-0.1831209936	 0.120868
H	-0.8973969269	 1.923841187	-0.5523139786	 0.111226
H	-0.33629652	 1.8303955486	 1.1219004633	 0.112181
H	-0.82741085	-0.4914646861	 0.3357318246	 0.07911
H	 0.1950427466	-1.511417184	-1.622621444	 0.077974
H	 2.021105327	-0.4904904816	-2.9352068099	 0.101095
H	 1.1907450115	 1.0093224748	-2.5639051629	 0.103333
H	 3.5901683873	 2.3586325293	-2.0113700473	 0.123152
H	 4.6818603914	 1.5418714513	-0.8804078005	 0.121678
H	 4.4464644721	 0.9118584986	-2.5219958159	 0.121414
H	 3.3021683279	 0.186858098	 0.8785106574	 0.081604
H	 1.3131562707	-1.6151208829	 0.7900490432	 0.077735
130.9422	172.7644	185.5692	217.0324	290.4225	312.3699	408.2348	478.2757	532.1142	619.1643	714.8757	741.0432	784.4006	853.99	859.1139	904.3015	946.645	955.1383	985.1708	1008.1337	1025.6422	1059.5711	1073.2754	1093.8592	1114.1189	1134.7104	1188.8986	1200.8352	1224.7265	1283.8908	1320.8415	1354.6346	1359.818	1410.0996	1413.6712	1427.7862	1475.6557	1478.5577	1490.3098	1497.3604	1502.0817	1705.8123	3002.5056	3012.9647	3025.703	3029.9046	3055.5232	3083.3932	3106.8797	3113.4335	3128.6869	3152.5868	3169.6584	3183.3246
CC1C2CC(C)=CC12	C[C@H]1[C@H]2CC(=C[C@@H]12)C	
InChI=1S/C8H12/c1-5-3-7-6(2)8(7)4-5/h3,6-8H,4H2,1-2H3	InChI=1S/C8H12/c1-5-3-7-6(2)8(7)4-5/h3,6-8H,4H2,1-2H3/t6-,7+,8-/m1/s1
