15
gdb 130413	3.24518	1.43907	1.02929	8.2984	69.87	-0.2378	-0.055	0.1828	1091.3512	0.114902	-450.114284	-450.106918	-450.105974	-450.146253	27.834	
N	 0.3026871185	 0.9052291253	 0.4277220976	-0.526267
H	 0.339983156	-0.0988360593	 0.5658368442	 0.255322
H	 1.3761511458	 2.1076860351	 1.261010804	 0.316014
H	 0.3331107252	 1.0752983066	-0.5733392603	 0.255729
C	-0.9288530442	 1.4685949199	 1.0150767522	-0.289905
C	-0.8494918845	 2.9727477966	 1.0929893922	 0.110204
C	-1.9325889617	 3.8043413791	 0.8999217829	-0.009274
N	-1.8842974668	 5.1351409142	 1.0508718702	-0.222966
N	-0.7422452312	 5.692073545	 1.411120216	-0.059345
N	 0.3565553083	 4.9831773404	 1.5816964417	-0.249557
C	 0.3361485029	 3.655139867	 1.4203400711	 0.419327
O	 1.4976986299	 3.0329100479	 1.5934698956	-0.389171
H	-1.844684724	 1.1739839337	 0.48367045	 0.121913
H	-1.0085627904	 1.0623635655	 2.0315737704	 0.146383
H	-2.9036651838	 3.403640053	 0.6162791922	 0.121593
110.7109	141.8429	259.9295	273.3951	330.3841	405.4497	435.7482	471.7002	592.1736	612.8399	656.6205	769.9982	822.0256	862.464	923.8051	947.9477	973.4549	1004.9285	1036.4457	1060.5147	1135.1249	1171.3415	1200.7326	1291.337	1319.2598	1348.5578	1409.233	1420.6281	1494.7087	1501.4134	1586.8352	1624.6774	1653.0407	3003.3997	3047.6255	3152.8826	3291.8562	3503.6465	3587.5944
[NH3+]CC1=C[N-]N=NC1=O	NCc1cnnnc1O	
InChI=1S/C4H6N4O/c5-1-3-2-6-8-7-4(3)9/h2H,1,5H2,(H,6,7,9)	InChI=1S/C4H6N4O/c5-1-3-2-6-8-7-4(3)9/h2H,1,5H2,(H,6,7,9)
