20
gdb 107232	2.88831	1.44167	1.11614	2.5908	78.61	-0.2108	0.0675	0.2783	1138.6237	0.169777	-403.056523	-403.047631	-403.046687	-403.089852	34.265	
C	 0.0787056699	 1.4977022076	 0.110820721	-0.485977
C	-0.0789549257	 0.0117138582	-0.0473245228	 0.261091
C	-0.9249074289	-0.814371431	 0.8425420063	-0.2963
N	 0.5472087865	-0.9494814872	 0.9292365153	-0.180213
C	 1.0695235796	-1.7363233947	-0.2594802669	-0.038803
C	 0.0757980329	-2.2087328131	-1.2868800758	-0.365157
C	 0.5022216629	-0.7651488323	-1.2648326726	 0.295768
C	 1.1587160989	-0.0937037853	-2.4376729365	-0.19779
O	 1.978930532	-1.0508169173	-3.0939554245	-0.417968
H	 1.1021454735	 1.8196104313	-0.1079352621	 0.125322
H	-0.5995203234	 2.0412933169	-0.5579532293	 0.117663
H	-0.1489210077	 1.7931801826	 1.1387377922	 0.128305
H	-1.3316036591	-0.3170773826	 1.7192812981	 0.116374
H	-1.5400171674	-1.6299073672	 0.4829061574	 0.116691
H	 2.0633343194	-2.1546735762	-0.1673398042	 0.107299
H	 0.5539416695	-2.761828203	-2.0885049526	 0.136898
H	-0.9289973769	-2.5463331684	-1.0603286911	 0.106107
H	 0.3900754161	 0.3023865646	-3.1235369709	 0.088909
H	 1.7586886875	 0.763415239	-2.0942023729	 0.090637
H	 2.36484839	-0.6321974219	-3.8683980883	 0.291146
76.2587	138.3985	180.4939	207.6212	223.1382	292.7439	334.08	391.2869	457.73	488.3504	518.5556	606.9911	650.8576	721.2663	794.8398	828.1423	869.4325	907.2722	945.183	982.6426	994.6752	1015.9987	1060.3941	1067.7693	1078.3238	1095.2328	1106.8877	1117.728	1128.9755	1164.1809	1219.5166	1257.1669	1265.	1304.9601	1348.2862	1391.5803	1416.7403	1468.1396	1478.8163	1488.1312	1496.3372	1523.2822	1525.8042	2949.772	2986.6643	3027.8008	3089.8312	3112.8668	3122.7763	3139.1964	3196.4504	3210.1208	3220.3893	3838.5729
CC12CN1C1CC21CO	C[C@]12CN1[C@H]1C[C@@]21CO	
InChI=1S/C7H11NO/c1-6-3-8(6)5-2-7(5,6)4-9/h5,9H,2-4H2,1H3	InChI=1S/C7H11NO/c1-6-3-8(6)5-2-7(5,6)4-9/h5,9H,2-4H2,1H3/t5-,6+,7-,8?/m0/s1
