23
gdb 86391	2.41951	1.50764	1.12879	1.358	85.72	-0.2459	0.0882	0.3341	1211.5017	0.205136	-388.305995	-388.296583	-388.295639	-388.339388	36.718	
C	 0.0795428805	 1.5606361949	-0.0637910497	-0.400101
C	 0.0669793381	 0.0443616424	 0.0536267627	 0.128036
O	 0.7512496447	-0.5062036873	-1.0746182844	-0.284995
C	 1.1965384389	-1.8209035658	-0.7423588177	 0.084162
C	 2.3469693932	-2.1925448022	-1.6649809479	-0.406456
C	 1.50653317	-1.7765618439	 0.7558305152	 0.335754
C	 1.5853353878	-3.0774671814	 1.5151739933	-0.492583
C	 2.2882482595	-0.5618058465	 1.1965856889	-0.340762
C	 0.7791735005	-0.5538298768	 1.2589212069	-0.109365
H	 1.1031814249	 1.9436034538	-0.0243734484	 0.120521
H	-0.3709589442	 1.8731247166	-1.010225973	 0.122887
H	-0.4920697794	 2.0101947213	 0.7542212138	 0.111459
H	-0.9797386502	-0.3089911461	 0.0598323526	 0.061121
H	 0.3699182838	-2.5406038371	-0.8897429631	 0.057088
H	 3.1984692885	-1.5231654306	-1.5133078308	 0.120729
H	 2.6725884238	-3.2201532867	-1.4751550088	 0.113141
H	 2.0337801405	-2.1215274907	-2.7103523748	 0.123645
H	 2.4405594748	-3.6820913173	 1.1906638917	 0.119925
H	 1.6990848902	-2.9009483046	 2.5891693806	 0.116743
H	 0.6800269892	-3.6790174545	 1.3695879193	 0.115727
H	 2.8231302715	-0.635408649	 2.1375334119	 0.10451
H	 2.7774205217	 0.0509341261	 0.4461986611	 0.118516
H	 0.2771201117	-0.5453857845	 2.2202000208	 0.080297
133.658	149.338	197.4298	217.8557	223.1437	231.0357	238.5798	312.6225	385.7418	410.2444	492.9516	553.0207	568.804	652.7507	710.1437	796.8112	860.9574	882.0281	891.7929	947.5253	956.9828	979.8498	1027.0717	1035.8763	1062.3939	1079.6345	1098.7121	1124.0158	1127.6369	1136.0989	1146.5973	1178.5815	1261.2242	1300.2677	1335.3575	1347.2843	1374.0069	1392.9367	1405.8939	1408.9772	1416.9202	1424.4751	1483.6839	1485.6377	1488.1554	1488.6415	1494.7441	1497.347	1503.1172	2925.8435	2938.5612	3020.0948	3041.8559	3042.2133	3076.9979	3097.9245	3113.7012	3114.0008	3120.8165	3121.12	3128.6946	3169.9048	3213.8218
CC1OC(C)C2(C)CC12	C[C@H]1O[C@@H](C)[C@@]2(C)C[C@@H]12	
InChI=1S/C8H14O/c1-5-7-4-8(7,3)6(2)9-5/h5-7H,4H2,1-3H3	InChI=1S/C8H14O/c1-5-7-4-8(7,3)6(2)9-5/h5-7H,4H2,1-3H3/t5-,6+,7+,8-/m1/s1
