21
gdb 118674	2.63465	0.71168	0.58476	0.861	76.46	-0.2505	-0.0238	0.2268	1869.4879	0.179004	-461.358094	-461.346715	-461.345771	-461.396371	38.468	
O	-0.1314044161	 1.4703328635	 0.065842541	-0.419531
C	 0.0223230584	 0.0605798218	 0.045408079	-0.085846
C	-1.374551725	-0.5494218088	 0.0053341484	-0.195428
C	-1.3732094551	-2.0903985831	 0.0001324849	-0.085782
C	-2.805339318	-2.6430837366	 0.1349181353	-0.19543
C	-2.8600291741	-4.1571838465	 0.3066136373	-0.085843
O	-4.2249589556	-4.5198331651	 0.4365994189	-0.419529
C	-0.7565348584	-2.5918373056	-1.2926783534	 0.170187
O	 0.2321309274	-3.2730447941	-1.3842979223	-0.259469
H	 0.7435662332	 1.8688827136	 0.0794337709	 0.288444
H	 0.6064215946	-0.2651560914	-0.8302205609	 0.098287
H	 0.5568577203	-0.2990592761	 0.9397448924	 0.092047
H	-1.9369419992	-0.1917505055	 0.8745426767	 0.115478
H	-1.8996773512	-0.1712473973	-0.8811104779	 0.112159
H	-0.7507989584	-2.4648697616	 0.8220013828	 0.09094
H	-3.2930230576	-2.1759161997	 0.9972714073	 0.115475
H	-3.3993512746	-2.3658877484	-0.7453491588	 0.112159
H	-2.3943825414	-4.6565226915	-0.5581617049	 0.098286
H	-2.2794196637	-4.4491270304	 1.196877117	 0.092045
H	-4.275169203	-5.475132292	 0.5339775306	 0.288445
H	-1.3158242424	-2.2661652951	-2.2043673244	 0.072907
46.469	68.025	79.7291	84.1324	108.0979	127.0423	241.4308	261.8373	263.3458	305.0456	312.2948	340.7702	390.7589	536.3548	576.4695	779.5784	784.5378	921.3414	960.0842	997.79	1023.7871	1029.9991	1046.8795	1076.9307	1099.8052	1125.2882	1165.4196	1210.4849	1224.1444	1231.4575	1260.8027	1300.5185	1305.0858	1311.8603	1346.7363	1349.9526	1369.3299	1424.2305	1464.8936	1470.057	1486.5267	1498.5779	1526.7617	1527.165	1830.4182	2832.0269	2965.1704	2965.7592	2991.7635	2992.447	3031.3589	3032.6779	3045.3629	3077.7297	3084.0402	3831.4593	3831.4964
OCCC(CCO)C=O	OCCC(CCO)C=O	
InChI=1S/C6H12O3/c7-3-1-6(5-9)2-4-8/h5-8H,1-4H2	InChI=1S/C6H12O3/c7-3-1-6(5-9)2-4-8/h5-8H,1-4H2
