14
gdb 18075	4.62486	1.54246	1.41641	4.6384	57.89	-0.2581	0.008	0.2661	876.5523	0.106648	-419.638893	-419.632035	-419.631091	-419.670453	24.737	
O	 0.3854678571	 0.152893975	-0.2043942638	-0.273127
C	 0.5408418292	 1.3226910898	-0.3726126915	 0.184122
O	 0.8057572245	 2.1673878734	 0.6575629662	-0.194819
C	 0.965788193	 3.5296296756	 0.3468916539	 0.083834
C	 2.2468740307	 4.2270091824	 0.7069902161	-0.175821
C	 3.4124078821	 3.2963641819	 0.3829406148	-0.088347
O	 2.9275232882	 3.0910820935	-0.9769054238	-0.278102
C	 1.8660361913	 4.0083568725	-0.7539562336	 0.040157
H	 0.4810664327	 1.8412058243	-1.3443925546	 0.093575
H	 0.0665114113	 4.1190264876	 0.5068442143	 0.119382
H	 2.2860912874	 5.1157555519	 1.3213640835	 0.113725
H	 4.3819537721	 3.8016582744	 0.3628266844	 0.122588
H	 3.4752323043	 2.3608834058	 0.9461749982	 0.134486
H	 1.5787908861	 4.6681411718	-1.5651165343	 0.118347
79.9855	159.085	183.382	249.1877	333.8055	484.9381	560.9907	730.9535	760.2218	802.1806	829.6738	931.3395	969.863	977.0823	1034.8869	1038.0472	1046.4967	1059.6332	1079.0375	1120.5348	1145.4041	1171.1101	1209.782	1261.8479	1314.8159	1351.3991	1408.2722	1435.2808	1509.3493	1871.6629	3000.4508	3053.7779	3111.0161	3147.113	3178.096	3212.4839
O=COC1C2COC12	O=CO[C@H]1[C@H]2CO[C@@H]12	
InChI=1S/C5H6O3/c6-2-8-5-3-1-7-4(3)5/h2-5H,1H2	InChI=1S/C5H6O3/c6-2-8-5-3-1-7-4(3)5/h2-5H,1H2/t3-,4+,5-/m0/s1
