15
gdb 131670	2.73712	1.46621	0.96041	2.1359	71.33	-0.2354	-0.0554	0.18	1140.4399	0.114391	-453.981126	-453.973282	-453.972338	-454.013833	28.811	
O	 0.0105852278	 1.4395456848	 0.0066246339	-0.424168
C	-0.0004467871	 0.0262276665	 0.0019025681	-0.152954
C	-1.4158844704	-0.4609346414	 0.01248095	 0.142836
C	-2.5079802482	 0.3463504031	 0.0239399111	-0.191162
C	-3.8133031222	-0.227859434	 0.0333308882	 0.005823
N	-4.0309930406	-1.5132413126	 0.0316691829	-0.188217
N	-2.9376678939	-2.288422774	 0.0203040497	-0.266578
C	-1.596002869	-1.9077425103	 0.0098448739	 0.381992
O	-0.7017093694	-2.7409475964	 0.0002390122	-0.392806
H	 0.9259339112	 1.7316507972	 0.0003587695	 0.296892
H	 0.5052117078	-0.3931013206	-0.8828200668	 0.124619
H	 0.5204693344	-0.3991921198	 0.8747597408	 0.124649
H	-2.3855472659	 1.4231125079	 0.0259697815	 0.136945
H	-4.7002946187	 0.3953361378	 0.0425273476	 0.128295
H	-3.1162110858	-3.2845006884	 0.0191613872	 0.273835
85.8249	151.8787	195.1004	213.6638	251.0889	340.6053	414.8511	528.6373	555.2551	581.7002	603.3161	744.142	777.9445	779.3585	881.5964	892.0955	962.6998	1041.4678	1049.6123	1087.3128	1163.8019	1183.6611	1216.2811	1237.7933	1256.3633	1380.2172	1399.5892	1435.7032	1469.1756	1491.4319	1592.7133	1662.1833	1766.6805	2976.4028	2994.7045	3196.1707	3212.4038	3590.514	3847.7834
OCC1=CC=NNC1=O	OCc1ccn[nH]c1=O	
InChI=1S/C5H6N2O2/c8-3-4-1-2-6-7-5(4)9/h1-2,8H,3H2,(H,7,9)	InChI=1S/C5H6N2O2/c8-3-4-1-2-6-7-5(4)9/h1-2,8H,3H2,(H,7,9)
