21
gdb 65773	3.04903	1.04146	0.99253	3.8812	78.87	-0.2387	-0.016	0.2227	1309.7446	0.181132	-424.250774	-424.241263	-424.240319	-424.286035	34.768	
C	-0.005193571	 1.7485327388	-0.0150892968	-0.428906
C	 0.0645395799	 0.2216079633	-0.0832255223	 0.376557
C	-1.3531629452	-0.3954102191	-0.1599909222	-0.301571
C	-2.184157354	-0.1389990801	 1.0793059448	 0.154298
O	-3.3018771867	 0.3136134203	 1.0659983695	-0.25154
C	 0.9595736781	-0.2864134458	-1.2393386606	-0.270275
C	 1.6938161365	-1.4837575454	-0.621034482	-0.226273
C	 1.8603524299	-1.0152850457	 0.8250108752	-0.068191
O	 0.6849813164	-0.2682002083	 1.1254192147	-0.304102
H	 0.9987118129	 2.1678884196	 0.0967275646	 0.117815
H	-0.4526984093	 2.1581183625	-0.9267641459	 0.119282
H	-0.6090370175	 2.077208124	 0.8358071489	 0.133038
H	-1.9003187733	-0.0204757944	-1.0300179648	 0.114312
H	-1.2476985303	-1.4845760036	-0.259866846	 0.112456
H	-1.6821982834	-0.412369945	 2.0307241211	 0.096337
H	 0.3798175054	-0.5414011441	-2.129516146	 0.107569
H	 1.6766088612	 0.4919323233	-1.5213083696	 0.103629
H	 1.0753100095	-2.3864545751	-0.6615508385	 0.108861
H	 2.6450829765	-1.7063084732	-1.1102624078	 0.105814
H	 1.9414155649	-1.8324284452	 1.5485489631	 0.107968
H	 2.7535570894	-0.3795296768	 0.9299000106	 0.09292
46.593	65.5323	90.1898	178.8237	237.3703	240.9481	314.3797	334.122	387.8179	452.913	507.9918	589.5815	639.6656	741.6822	821.995	866.3443	885.4762	914.1271	919.706	937.996	983.211	1015.46	1034.8339	1063.9051	1084.1302	1137.4365	1179.4292	1191.0514	1207.9813	1238.0681	1260.4274	1281.3748	1310.4087	1335.7661	1344.7734	1389.6323	1412.3517	1418.4924	1452.4837	1484.8397	1488.4674	1493.5087	1498.5703	1528.6442	1824.9004	2921.3942	2980.1275	3019.3721	3037.203	3048.5235	3052.2465	3075.743	3096.2782	3103.5017	3110.563	3112.0205	3117.5767
CC1(CC=O)CCCO1	C[C@@]1(CC=O)CCCO1	
InChI=1S/C7H12O2/c1-7(4-5-8)3-2-6-9-7/h5H,2-4,6H2,1H3	InChI=1S/C7H12O2/c1-7(4-5-8)3-2-6-9-7/h5H,2-4,6H2,1H3/t7-/m0/s1
