19
gdb 39358	2.83049	1.78344	1.28256	1.2616	81.81	-0.2123	0.014	0.2264	1017.1845	0.160826	-385.856106	-385.848794	-385.847849	-385.887497	29.898	
C	 0.1672027565	 1.5101540903	 0.2055171307	-0.401388
C	 1.3646621924	 0.6315807294	-0.0451974845	 0.074253
O	 2.2767680657	 0.2687718554	 0.9466356207	-0.261582
C	 1.7470078106	-0.0795148773	 2.23719867	-0.12826
C	 0.6158094327	-1.08134226	 2.1544274862	-0.276433
C	-0.202347003	-0.9561194692	 1.1160612205	 0.32496
C	-1.2558888573	-1.7232355777	 0.3364769671	-0.334008
C	-0.907544052	-0.8251433449	-0.9110262506	-0.334686
C	-0.0100716693	 0.0160000476	 0.0134551988	 0.244667
H	-0.0218337542	 1.9322121914	 1.1868987077	 0.121121
H	-0.1311684137	 2.1486645979	-0.6209535269	 0.114586
H	 1.8828540304	 0.7268286145	-0.9938233899	 0.105414
H	 2.5987527782	-0.4990375824	 2.7797852828	 0.116424
H	 1.448869728	 0.8378921287	 2.7690788658	 0.100866
H	 0.5650453071	-1.891417109	 2.8746007984	 0.089843
H	-1.0960859739	-2.7993831225	 0.2280120725	 0.114551
H	-2.2764976566	-1.5614955447	 0.6979324476	 0.116192
H	-0.3664344477	-1.3624415026	-1.6943740983	 0.109709
H	-1.7532054639	-0.2992133548	-1.3608718087	 0.103771
132.3707	207.686	239.8635	267.9622	385.9958	423.6196	484.5687	526.6521	584.9434	704.1126	737.3606	760.3614	776.3954	811.2132	844.4308	900.2345	908.3464	935.6256	980.9173	992.559	1024.1095	1033.7376	1062.665	1081.253	1128.8249	1141.1968	1178.9574	1201.4624	1210.5618	1230.3678	1250.1169	1269.4117	1296.2293	1361.7251	1370.3888	1416.2748	1464.2205	1472.6963	1488.4655	1502.946	1754.8769	2969.2972	3048.1182	3059.2734	3083.9786	3094.0332	3114.37	3123.1013	3167.6611	3178.6278	3210.2944
C1C2OCC=C3CCC123	C1[C@H]2OCC=C3CC[C@]123	
InChI=1S/C8H10O/c1-3-8-5-7(8)9-4-2-6(1)8/h2,7H,1,3-5H2	InChI=1S/C8H10O/c1-3-8-5-7(8)9-4-2-6(1)8/h2,7H,1,3-5H2/t7-,8-/m1/s1
