18
gdb 54386	3.98717	1.08232	0.98748	2.1401	73.12	-0.2425	0.0261	0.2687	1211.2111	0.14713	-439.071613	-439.06269	-439.061746	-439.10596	33.42	
N	 0.0633360704	 1.1051655366	-0.5160286078	-0.538071
C	-0.1040713708	 0.0602775354	 0.3447511124	 0.271356
O	 0.7148231198	-0.2363405185	 1.1939135177	-0.371227
C	-1.3833066623	-0.7094604324	 0.1717914594	 0.266595
C	-2.5644408235	-0.5184870031	-0.8319692236	-0.334475
C	-2.9357168253	-1.7345242744	 0.0474633949	 0.385143
O	-4.1123357243	-2.4354980883	-0.1179001846	-0.467248
C	-1.4680402102	-2.2404545413	-0.11581201	-0.310215
C	-2.4499170702	-0.9240830652	 1.2899570738	-0.310206
H	 0.9026962856	 1.656667293	-0.444563079	 0.260663
H	-0.6210890445	 1.3403264077	-1.2119680331	 0.263518
H	-3.1799642463	 0.3766248901	-0.7051897215	 0.097118
H	-2.3558633249	-0.728185364	-1.8848987911	 0.097166
H	-4.1385924565	-3.1471027698	 0.531030992	 0.284527
H	-1.166608279	-2.5629563459	-1.1156939053	 0.097327
H	-1.0710049996	-2.8922662556	 0.6655495178	 0.105359
H	-2.1156308277	-1.4916916183	 2.1612143437	 0.105363
H	-3.0418882907	-0.0487420361	 1.5691956845	 0.097307
29.4026	124.5355	145.6392	160.9037	252.6491	351.3633	364.1547	389.9652	475.21	539.6434	567.6672	592.1002	637.4537	653.9479	733.4225	806.3792	813.2685	933.4157	958.4499	979.1706	1040.8723	1051.8694	1072.1155	1085.2449	1107.9562	1118.6294	1136.6909	1149.497	1165.6045	1171.8045	1250.7525	1301.1175	1363.8229	1405.4189	1493.454	1494.1965	1562.198	1612.5342	1789.4206	3044.6633	3056.4322	3063.1185	3113.1747	3129.8012	3133.0817	3605.2237	3746.3079	3808.9171
NC(=O)C12CC(O)(C1)C2	NC(=O)[C@@]12C[C@@](O)(C1)C2	
InChI=1S/C6H9NO2/c7-4(8)5-1-6(9,2-5)3-5/h9H,1-3H2,(H2,7,8)	InChI=1S/C6H9NO2/c7-4(8)5-1-6(9,2-5)3-5/h9H,1-3H2,(H2,7,8)/t5-,6+
