16
gdb 20012	4.56777	1.24814	1.10204	3.3681	67.57	-0.2515	-0.0011	0.2505	1070.3378	0.130704	-379.878697	-379.871023	-379.870079	-379.911414	27.395	
O	 0.1578374609	 0.2479621279	-0.54197245	-0.287183
C	 0.1440831393	 1.377753158	-0.1193332713	 0.140593
N	 1.1959846784	 1.986303045	 0.5446660909	-0.064323
C	 2.5855458644	 1.850993914	 0.181240258	-0.251285
C	 1.899853892	 3.1925571956	 0.1409389762	-0.041494
C	 1.5967388337	 3.8457617204	-1.1689943711	 0.011792
C	 0.9393437693	 5.1781304666	-1.1964118237	-0.246318
N	 2.3537261526	 5.0376136984	-1.5774084182	-0.315573
H	-0.7489054045	 2.0304419083	-0.1527148057	 0.088725
H	 3.2721654149	 1.6181792325	 0.9901846369	 0.131391
H	 2.7997785843	 1.3643721735	-0.767248258	 0.143096
H	 2.0969013507	 3.8904426633	 0.9561549004	 0.098407
H	 1.4014000787	 3.1496848045	-1.98353302	 0.110315
H	 0.2688086683	 5.4371982279	-2.0104032386	 0.129834
H	 0.6966273778	 5.6410852256	-0.24282174	 0.11736
H	 2.9564224693	 5.3488953584	-0.8182673759	 0.234662
73.5777	86.3438	188.7125	197.3552	304.8806	313.296	400.8177	507.6141	646.0228	778.139	831.087	862.4947	917.8794	946.163	957.1886	978.3722	1038.5123	1074.0527	1090.1036	1109.0229	1129.8542	1138.3253	1158.4764	1165.4997	1241.5354	1251.2561	1291.7584	1331.7022	1383.43	1418.0126	1459.0036	1508.9045	1514.8227	1799.7965	2956.4206	3095.3842	3108.4493	3111.1516	3121.5999	3196.1432	3201.4338	3488.0281
O=CN1CC1C1CN1	O=CN1C[C@H]1[C@H]1CN1	
InChI=1S/C5H8N2O/c8-3-7-2-5(7)4-1-6-4/h3-6H,1-2H2	InChI=1S/C5H8N2O/c8-3-7-2-5(7)4-1-6-4/h3-6H,1-2H2/t4-,5+,7?/m1/s1
