13
gdb 5208	9.28887	1.01379	0.91929	2.4298	74.94	-0.2243	-0.0248	0.1995	1206.4975	0.09593	-361.474696	-361.467289	-361.466345	-361.508578	25.14	
C	-0.0951311747	 1.4545551046	 0.0365013515	-0.511732
C	-0.0182471275	 0.0039100817	 0.0156529447	 0.244726
C	 0.0420742078	-1.2013658233	-0.0007866186	-0.10638
C	 0.1354085281	-2.5997903075	-0.0259639598	 0.192758
C	 1.1413159443	-3.4841501363	-0.2890069223	-0.216984
N	 0.6700366899	-4.7786913254	-0.1667602941	-0.246415
C	-0.5741724319	-4.6296954854	 0.1580503914	 0.061405
O	-0.9864610981	-3.3509400197	 0.2663962621	-0.172241
H	 0.5999398295	 1.8799576814	 0.7689529309	 0.156735
H	 0.1480688378	 1.88069181	-0.9432172276	 0.156726
H	-1.1045016487	 1.785833319	 0.3030460486	 0.159695
H	 2.1630018031	-3.2676737753	-0.5555312131	 0.130867
H	-1.3112292495	-5.3937925239	 0.3499696163	 0.15084
12.6278	98.1275	109.899	278.2735	321.5487	464.7283	479.3733	527.4452	658.7092	692.2921	839.9427	866.5745	924.8386	956.9568	1012.9402	1049.9737	1050.3804	1134.6777	1148.4203	1238.8951	1290.0811	1338.8194	1411.6027	1471.2999	1475.0929	1527.1489	1613.5944	2357.4854	3027.2336	3087.3772	3094.2648	3271.7859	3275.9575
CC#CC1=CN=CO1	CC#Cc1cnco1	
InChI=1S/C6H5NO/c1-2-3-6-4-7-5-8-6/h4-5H,1H3	InChI=1S/C6H5NO/c1-2-3-6-4-7-5-8-6/h4-5H,1H3
