18
gdb 35782	3.74455	1.18674	1.00683	4.9067	75.93	-0.2724	0.0159	0.2884	1178.8856	0.149884	-401.950322	-401.94266	-401.941716	-401.982621	29.702	
N	 0.0669068247	-1.1566217426	 0.0438060605	-0.316023
C	 0.067525066	-0.0019590562	 0.0316787111	 0.275742
C	 0.0107253172	 1.4661384824	 0.0319616605	-0.01301
C	-0.770302651	 2.0011766973	 1.2486503983	-0.236677
C	-0.5451717348	 3.5018161072	 1.4192083468	-0.047237
C	 0.7091578214	 3.990862526	 2.106454476	-0.279676
C	 0.5531581651	 4.183759929	 0.6242796498	-0.033056
C	 1.368412193	 3.3386021271	-0.3320234017	-0.104793
O	 1.3402532439	 1.9572600399	 0.0127277967	-0.254257
H	-0.505330894	 1.7757805365	-0.8926113613	 0.113091
H	-1.8330134499	 1.784480487	 1.10370445	 0.120512
H	-0.4514042751	 1.4554339041	 2.1420585469	 0.129299
H	-1.4452398875	 4.0810091692	 1.5945593679	 0.093766
H	 0.6400550282	 4.859580748	 2.7512983307	 0.114655
H	 1.4127447917	 3.2333883628	 2.437681741	 0.126746
H	 0.354567484	 5.1900866383	 0.2679703025	 0.092091
H	 0.9945135331	 3.4671536456	-1.3615756915	 0.09741
H	 2.4253469139	 3.6213358784	-0.3186524239	 0.121417
82.5472	154.6734	197.7254	289.9792	346.6591	384.8041	418.4712	498.5023	548.5108	566.5948	687.1876	772.7001	799.3834	829.8661	862.8058	926.9209	969.7137	1005.934	1021.554	1070.055	1078.8411	1083.4828	1107.8804	1125.4678	1135.1349	1158.7325	1224.545	1242.9331	1285.752	1308.2396	1361.9845	1370.4174	1389.3682	1393.377	1421.1626	1482.0541	1492.4199	1498.9811	2368.5259	2964.3945	2968.4631	3051.9673	3080.5766	3095.0523	3131.0179	3151.981	3164.2718	3219.997
N#CC1CC2CC2CO1	N#C[C@H]1C[C@H]2C[C@H]2CO1	
InChI=1S/C7H9NO/c8-3-7-2-5-1-6(5)4-9-7/h5-7H,1-2,4H2	InChI=1S/C7H9NO/c8-3-7-2-5-1-6(5)4-9-7/h5-7H,1-2,4H2/t5-,6+,7-/m1/s1
