23
gdb 75517	2.28113	1.4032	1.04057	0.1703	93.65	-0.2262	0.0266	0.2528	1279.8305	0.207684	-351.168223	-351.159272	-351.158328	-351.201601	35.269	
C	 0.0590538699	 1.4460042738	 0.0945444182	-0.461503
C	 0.0139917727	-0.0650643627	 0.0698225085	 0.330608
C	 0.0439263162	-0.7081592259	-1.1028492445	-0.140656
C	 0.012507926	-2.188770136	-1.4030905087	-0.272469
C	 1.3900093052	-2.8771677101	-1.2993955368	-0.232881
C	 2.0773087048	-2.8736024855	 0.0407158872	-0.01838
C	 1.6039784151	-2.5866676052	 1.2544129726	-0.056704
C	 0.2078329526	-2.1669320881	 1.6543695888	-0.276198
C	-0.0768611865	-0.6637886002	 1.4585692388	-0.267038
H	 0.9506545595	 1.806229739	 0.6244838038	 0.119501
H	 0.0663729851	 1.8708822345	-0.9122739132	 0.115813
H	-0.8055174028	 1.8597055627	 0.6305284967	 0.116654
H	 0.1271465041	-0.0802710915	-1.9894276493	 0.070559
H	-0.7163257226	-2.7149702669	-0.7845593264	 0.107725
H	-0.3372397541	-2.317106094	-2.4339496457	 0.092187
H	 1.293624899	-3.9177518952	-1.6455613722	 0.103093
H	 2.0692092447	-2.4024653067	-2.0216262956	 0.104206
H	 3.12874466	-3.1548300929	-0.016845012	 0.078545
H	 2.3148824092	-2.6373664356	 2.0777148268	 0.079799
H	-0.5510768923	-2.763746495	 1.1463169476	 0.110438
H	 0.0781298087	-2.3807414782	 2.7215481007	 0.092859
H	 0.6162185783	-0.100999979	 2.100579242	 0.101408
H	-1.0751461829	-0.4408905613	 1.8661913427	 0.102431
72.2058	137.0603	198.9908	226.0356	269.3467	314.3276	328.8242	358.5796	410.1099	468.554	524.2951	578.982	680.4773	719.1182	749.025	802.3505	854.2308	861.6298	918.8023	923.3405	980.2982	1009.5904	1019.9782	1024.4106	1057.8945	1074.1826	1077.2554	1122.9646	1158.2325	1190.6043	1224.6952	1244.9316	1272.2441	1300.8813	1349.5733	1358.6307	1374.3703	1392.123	1409.698	1417.0707	1433.9435	1466.9347	1469.7608	1480.6512	1489.2186	1494.8133	1530.8343	1733.4085	1737.9855	2988.0623	2990.9589	3011.1668	3014.4459	3018.6707	3041.6898	3043.3311	3055.522	3090.673	3110.4449	3113.9667	3119.8879	3127.2436	3142.9998
CC1=CCCC=CCC1	CC1=CCCC=CCC1	
InChI=1S/C9H14/c1-9-7-5-3-2-4-6-8-9/h2-3,8H,4-7H2,1H3/b3-2-,9-8-	InChI=1S/C9H14/c1-9-7-5-3-2-4-6-8-9/h2-3,8H,4-7H2,1H3/b3-2-,9-8-
