17
gdb 60666	3.03419	0.98373	0.80157	2.25	79.59	-0.252	-0.065	0.187	1414.1594	0.133128	-417.989843	-417.980043	-417.979099	-418.024646	35.619	
C	-0.4594370766	 1.5937847973	-0.133184365	-0.382044
C	-0.052808713	 0.1144758264	-0.0697413572	-0.129341
N	 0.9332830368	-0.0639437482	 1.0019750325	-0.278775
C	 1.4688578225	-1.2191395614	 1.1593790084	 0.273322
N	 1.2690278834	-2.3819542898	 0.4752612166	-0.553672
C	 2.5138915152	-1.3052107394	 2.2350789017	 0.143303
O	 3.0776921853	-2.3335217759	 2.5211728327	-0.266631
C	-1.2316834473	-0.7503991063	 0.0860003569	 0.342278
C	-2.1855730712	-1.4717916514	 0.2200297366	-0.492906
H	 0.4339747537	 2.2064248771	-0.2766509327	 0.12442
H	-1.1554617197	 1.7719847754	-0.9569739454	 0.119361
H	-0.9358957492	 1.8909593781	 0.8041116453	 0.133859
H	 0.4239462019	-0.1569064345	-1.0276422314	 0.113993
H	 0.3746331613	-2.5332777515	 0.0339401836	 0.268211
H	 1.7175678459	-3.1891786478	 0.8865827717	 0.269182
H	 2.7075368604	-0.3387786106	 2.7355408077	 0.110894
H	-3.0406773594	-2.0899741375	 0.3435384081	 0.204544
71.7259	85.0682	135.6897	182.4147	212.4681	235.101	304.7476	323.1195	349.1049	416.5521	479.1863	540.295	579.07	587.493	634.7365	649.9631	671.7642	714.6623	813.2915	909.0658	949.9549	1028.4534	1045.9618	1102.3523	1134.6223	1163.2162	1306.9476	1327.9633	1367.7992	1387.2718	1404.9623	1485.3538	1494.1199	1617.5804	1720.553	1808.6771	2220.617	2952.6707	2980.1178	3050.5824	3131.437	3134.4243	3498.7413	3553.8635	3672.4585
CC(N=C(N)C=O)C#C	C[C@@H](N=C(N)C=O)C#C	
InChI=1S/C6H8N2O/c1-3-5(2)8-6(7)4-9/h1,4-5H,2H3,(H2,7,8)	InChI=1S/C6H8N2O/c1-3-5(2)8-6(7)4-9/h1,4-5H,2H3,(H2,7,8)/t5-/m1/s1
