17
gdb 125166	3.29639	1.57729	1.08111	2.7175	82.29	-0.2087	-0.0016	0.2071	1087.2853	0.138627	-380.907634	-380.899984	-380.89904	-380.940812	29.013	
C	-0.0168398445	 1.5230548432	 0.1188576424	-0.504825
C	 0.0076017975	 0.0406899099	-0.0671162231	 0.173972
C	-0.0002373501	-0.7707702818	-1.1755943771	 0.165947
C	-0.0355490061	-0.8204956837	-2.675382765	-0.429668
C	-0.0078661846	-2.3267615068	-2.925146066	-0.081795
C	 0.0362918765	-3.0345227976	-1.779886389	-0.174983
C	 0.0423503393	-2.0916423864	-0.6679677634	 0.329372
N	 0.0754668745	-2.1437251091	 0.6561879821	-0.347449
N	 0.0526859844	-0.8270531478	 0.996891745	-0.256634
H	 0.9032743299	 1.8918119615	 0.5875116299	 0.136856
H	-0.1184063383	 2.01992904	-0.8481408413	 0.140247
H	-0.8569372058	 1.8412413287	 0.7470050515	 0.134928
H	-0.9348605787	-0.3635079442	-3.1100866292	 0.123632
H	 0.8203337345	-0.3244030117	-3.1527084159	 0.123701
H	-0.0230506348	-2.7443837514	-3.9241892167	 0.097447
H	 0.0628137186	-4.1123489077	-1.6918298101	 0.10547
H	 0.0683945277	-0.583224425	 1.972863996	 0.263782
21.3465	166.7127	240.332	241.0642	317.189	418.7511	474.507	512.4914	597.0416	647.0221	667.7991	709.8466	777.6469	784.365	860.4546	924.977	951.8833	957.3224	990.7228	1057.197	1058.9518	1117.2165	1147.6462	1162.9081	1191.7028	1271.8476	1277.6353	1340.5576	1413.1899	1425.8463	1455.6544	1463.474	1483.3006	1501.0689	1542.0709	1605.9584	1670.2601	3017.7362	3027.4204	3041.4121	3076.861	3127.6464	3207.7755	3233.8389	3669.4045
CC1=C2CC=CC2=NN1	Cc1c2CC=Cc2n[nH]1	
InChI=1S/C7H8N2/c1-5-6-3-2-4-7(6)9-8-5/h2,4H,3H2,1H3,(H,8,9)	InChI=1S/C7H8N2/c1-5-6-3-2-4-7(6)9-8-5/h2,4H,3H2,1H3,(H,8,9)
