18
gdb 74868	2.53721	1.66306	1.12459	2.104	77.86	-0.2235	-0.0328	0.1907	1087.4012	0.146826	-401.938208	-401.929887	-401.928942	-401.971493	31.107	
C	-0.0059840089	 1.4465355348	 0.201729111	-0.49056
C	-0.0023790161	-0.0394638469	 0.0564435292	 0.300213
C	-0.035321851	-0.7721737599	-1.060743591	-0.189246
C	 0.016033595	-2.2264269	-0.7524180427	-0.057122
C	 1.2520220062	-2.6898484263	-0.0570193804	-0.250627
N	 0.0453078026	-2.3581582676	 0.7224044634	-0.114519
C	 0.0191274867	-0.9833533688	 1.2606834367	-0.160049
C	 1.1665245143	-0.7389158396	 2.2376562884	 0.14651
O	 1.3765034547	 0.3159613682	 2.7777036584	-0.249088
H	 0.8645882165	 1.7917797807	 0.7680152565	 0.154105
H	-0.0136553741	 1.9391265777	-0.7739843403	 0.121271
H	-0.8861373056	 1.7820608035	 0.7649135633	 0.130884
H	-0.0866597427	-0.3792839463	-2.0689897143	 0.102455
H	-0.6017015166	-2.9289293862	-1.3053217848	 0.099727
H	 1.5156298333	-3.7435505836	-0.0330155969	 0.12054
H	 2.0932068286	-2.0001114488	-0.0561877086	 0.116513
H	-0.9001143958	-0.8514462599	 1.8542587112	 0.118907
H	 1.802393613	-1.630627761	 2.4318755209	 0.100085
53.837	136.6079	176.3632	192.1803	235.2497	327.483	423.3088	441.8215	462.0226	598.8125	628.624	714.8169	793.0177	807.7131	832.9065	846.3012	945.1435	996.4973	1002.0893	1047.588	1056.6874	1065.546	1078.6104	1098.2639	1107.171	1153.0878	1204.9678	1254.0552	1267.5218	1287.5663	1305.644	1357.8686	1409.4613	1418.7202	1473.7515	1484.6625	1491.0551	1706.0922	1826.0297	2891.0012	2973.2318	3027.3499	3085.4888	3098.8262	3121.3415	3144.4053	3191.3507	3207.1463
CC1=CC2CN2C1C=O	CC1=C[C@H]2CN2[C@H]1C=O	
InChI=1S/C7H9NO/c1-5-2-6-3-8(6)7(5)4-9/h2,4,6-7H,3H2,1H3	InChI=1S/C7H9NO/c1-5-2-6-3-8(6)7(5)4-9/h2,4,6-7H,3H2,1H3/t6-,7-,8?/m0/s1
