23
gdb 55680	2.83065	1.02584	0.98082	2.4154	85.71	-0.2397	-0.0104	0.2294	1389.6201	0.203287	-388.310812	-388.300528	-388.299584	-388.346587	37.996	
C	-1.9681603223	 1.0956277888	-1.6883992852	-0.469803
C	-1.8382785541	-0.4080191708	-1.5015641866	 0.38257
O	-2.1209730576	-1.1803606419	-2.3899099234	-0.294936
C	-1.3433151628	-0.8638589948	-0.1320494579	-0.3612
C	-1.0497493188	-2.3614245896	 0.0265446094	 0.362806
C	 0.0987613129	-2.8090239513	-0.8739951152	-0.469203
C	-0.9092253721	-2.7345036879	 1.5405158586	-0.260552
C	-2.3798741625	-3.2295892755	 1.543143024	-0.213938
C	-2.3504462813	-3.23182078	-0.0077850482	-0.241104
H	-2.4333805447	 1.3101930902	-2.6511999868	 0.141508
H	-2.5573037781	 1.5420206994	-0.8800170804	 0.134175
H	-0.9767029224	 1.5621107367	-1.6525278206	 0.140066
H	-0.4515649407	-0.2724341403	 0.1222932331	 0.111703
H	-2.1052849734	-0.5436470957	 0.5945205495	 0.117654
H	 1.0138823933	-2.2432758243	-0.6568054601	 0.100403
H	 0.3217251863	-3.8690998845	-0.7138453038	 0.105322
H	-0.1494694608	-2.6696658745	-1.9289404469	 0.140279
H	-0.1974844594	-3.552900125	 1.6840815047	 0.095052
H	-0.6448324366	-1.9269042854	 2.2303579459	 0.085706
H	-2.581255996	-4.1810626078	 2.0404941249	 0.095633
H	-3.0716785419	-2.4859370739	 1.948952089	 0.096696
H	-3.209669804	-2.8164316932	-0.5363960641	 0.104589
H	-2.149857023	-4.2263486888	-0.41607842	 0.096574
38.5512	99.8204	110.2417	126.8649	169.8567	225.2907	291.5664	303.0977	331.0815	378.9484	433.6387	479.2734	572.0392	645.8135	731.762	780.6629	811.7584	827.5541	874.9908	907.9363	920.4665	944.4376	965.5786	987.7203	995.8212	1018.9371	1072.9077	1143.2781	1162.0677	1185.5413	1206.116	1216.6491	1257.4139	1263.9402	1277.5346	1298.114	1329.3096	1363.2716	1382.7415	1404.7016	1441.8006	1463.9006	1476.3858	1478.91	1486.3882	1491.6645	1505.9432	1511.7646	1806.6048	3000.5129	3021.061	3029.7398	3036.3181	3043.1472	3058.5647	3063.7923	3083.5165	3089.1611	3096.9822	3107.5877	3124.3653	3126.0623	3151.4097
CC(=O)CC1(C)CCC1	CC(=O)CC1(C)CCC1	
InChI=1S/C8H14O/c1-7(9)6-8(2)4-3-5-8/h3-6H2,1-2H3	InChI=1S/C8H14O/c1-7(9)6-8(2)4-3-5-8/h3-6H2,1-2H3
