16
gdb 53544	2.71483	0.97194	0.81569	3.4443	77.88	-0.2588	0.0024	0.2612	1444.8871	0.121422	-400.710787	-400.701019	-400.700075	-400.748233	33.084	
C	 0.0515253163	 1.4486087558	 0.298915755	-0.497721
C	 0.0399540002	 0.0094755759	 0.0833324452	 0.096392
C	 0.0307770492	-1.1800620493	-0.0960984058	 0.059525
C	-0.0146440105	-2.6200012925	-0.3165476227	-0.436644
C	-1.4149317	-3.2038046501	-0.1477526859	 0.25513
C	-1.6080926254	-4.5721855232	 0.3727883419	-0.21085
O	-1.8494286428	-3.4307522365	 1.1917866095	-0.238061
C	-2.4326895767	-2.6641339025	-1.0365013706	 0.274583
N	-3.2251015454	-2.2470385489	-1.76648922	-0.328044
H	 1.0680125971	 1.8506424594	 0.2283960589	 0.150835
H	-0.5634187165	 1.9636683887	-0.446731451	 0.156962
H	-0.3403903665	 1.703949322	 1.2892122069	 0.153958
H	 0.3437265863	-2.8647204439	-1.3250139183	 0.147267
H	 0.6401307993	-3.1416137034	 0.3910607699	 0.143239
H	-2.48959937	-5.1378998851	 0.0799501282	 0.142978
H	-0.7268439148	-5.1585969164	 0.6280674787	 0.130448
10.3935	44.9167	73.7262	166.2186	207.1842	231.5971	267.9269	331.182	369.5483	378.9066	464.2132	575.3675	584.1006	714.5555	774.2485	832.4834	912.6315	962.1274	970.3312	1052.3585	1053.3913	1131.5836	1165.4235	1172.3561	1192.7522	1269.1771	1324.0088	1388.2361	1414.2359	1453.3864	1476.0013	1477.9632	1520.3981	2362.3448	2380.6285	3023.8136	3031.2844	3065.8939	3092.8048	3093.561	3095.276	3189.6522
CC#CCC1(CO1)C#N	CC#CC[C@]1(CO1)C#N	
InChI=1S/C7H7NO/c1-2-3-4-7(5-8)6-9-7/h4,6H2,1H3	InChI=1S/C7H7NO/c1-2-3-4-7(5-8)6-9-7/h4,6H2,1H3/t7-/m1/s1
