20
gdb 55919	4.2187	0.90963	0.82732	3.6399	78.59	-0.2297	-0.015	0.2147	1434.8396	0.169706	-403.121384	-403.112247	-403.111303	-403.156695	33.266	
C	-0.0841666745	 1.5373343413	-0.0143752005	-0.472571
C	-0.2096723116	 0.024726218	 0.0259972404	 0.382607
O	-0.5251323579	-0.5641270292	 1.0355186415	-0.288881
C	 0.0803217387	-0.7173397989	-1.2742153646	-0.339336
C	 0.0242061129	-2.2315590918	-1.1207884771	 0.030658
C	-1.3260454747	-2.951696542	-0.8566420172	-0.172795
N	-1.1128328793	-3.9084275728	-2.0046003079	-0.125551
C	-1.0743376902	-3.0616402725	-3.2075832897	-0.236753
C	 0.1361620585	-3.1151824391	-2.362905691	-0.066584
H	 0.9472605798	 1.8239183236	-0.249722151	 0.140122
H	-0.7168380689	 1.9567906991	-0.8044399415	 0.137105
H	-0.3685075208	 1.9594771557	 0.9501361489	 0.14429
H	-0.6366597677	-0.3637175171	-2.0282064179	 0.118989
H	 1.0643599767	-0.3973540295	-1.6457433186	 0.119345
H	 0.7506980206	-2.5383716426	-0.3649555226	 0.094463
H	-1.363337174	-3.48677675	 0.0919754259	 0.121924
H	-2.2351984171	-2.3489525386	-0.9596338662	 0.097672
H	-1.061055673	-3.6334200385	-4.1307122009	 0.120126
H	-1.6924780138	-2.1661495874	-3.2429757982	 0.103809
H	 1.0435690364	-3.6105932176	-2.6958977019	 0.091361
33.5666	67.4741	105.7654	122.2957	204.9337	298.1429	333.0769	439.5824	473.4928	515.7803	578.0147	716.7832	754.3235	779.2315	813.605	831.2541	881.1645	936.772	964.1491	969.2929	999.5569	1021.3565	1064.2671	1095.1028	1108.7864	1125.7464	1149.5735	1174.0214	1195.3571	1219.0088	1240.3306	1259.779	1290.4876	1338.9248	1375.7408	1383.4703	1397.2265	1445.4948	1464.4921	1476.9138	1491.8045	1508.265	1806.5057	3013.1832	3037.1471	3041.9379	3044.3544	3084.2993	3097.0309	3097.6938	3132.0934	3150.6044	3152.3991	3190.8493
CC(=O)CC1CN2CC12	CC(=O)C[C@H]1CN2C[C@@H]12	
InChI=1S/C7H11NO/c1-5(9)2-6-3-8-4-7(6)8/h6-7H,2-4H2,1H3	InChI=1S/C7H11NO/c1-5(9)2-6-3-8-4-7(6)8/h6-7H,2-4H2,1H3/t6-,7-,8?/m0/s1
