21
gdb 116559	2.95344	0.93986	0.83165	1.2029	83.	-0.2391	0.0242	0.2633	1515.636	0.18173	-420.406006	-420.395679	-420.394734	-420.442288	36.778	
C	-0.8643895757	 0.3695627427	 0.4286362815	-0.360647
C	 0.4868674641	 0.5462779793	-0.2634839815	-0.144458
N	 0.6582410951	-0.4627352633	-1.3069512562	-0.341609
C	 1.7611565482	-1.0404762564	-1.4291945692	 0.428193
O	 2.9404327692	-0.9019370636	-0.7141031284	-0.283951
C	 3.5465891925	-2.0579788631	-1.390272651	 0.137515
C	 3.8168994677	-3.2016631652	-0.4389366783	-0.393899
C	 2.2974603433	-2.1576572152	-2.3173825449	-0.149312
N	 1.6144354487	-3.4274792257	-2.4287908804	-0.51146
H	-1.6774608666	 0.4073670338	-0.3020709908	 0.122176
H	-0.9163623309	-0.5971974753	 0.9394910066	 0.112474
H	-1.0249900515	 1.1571723073	 1.1718094393	 0.106902
H	 0.5206056419	 1.5338728935	-0.742570428	 0.107364
H	 1.3007055137	 0.5216768675	 0.4735403359	 0.108022
H	 4.4625136814	-1.7389643812	-1.8968310181	 0.089926
H	 2.9141135761	-3.4865301948	 0.1093272237	 0.11837
H	 4.1676711838	-4.0746663507	-0.9969219143	 0.136134
H	 4.5826508717	-2.9191228304	 0.2891570949	 0.128856
H	 2.5234216745	-1.7936540383	-3.3233997865	 0.109018
H	 1.089902173	-3.6247723327	-1.5822324974	 0.236829
H	 0.9320759695	-3.3864387782	-3.1780068769	 0.243557
32.6191	79.9003	105.6622	164.0383	175.263	211.3104	245.4276	263.2088	274.7509	366.5816	406.1502	519.0544	572.5664	658.4936	764.1628	792.5642	806.6974	835.0329	871.1913	906.8144	956.5508	1035.6758	1040.4122	1079.2196	1102.8145	1113.3228	1135.147	1171.0962	1193.5885	1222.5188	1242.2081	1300.6665	1313.0311	1381.0762	1383.1501	1408.4452	1410.235	1431.2235	1480.4813	1488.1032	1491.0313	1495.7493	1508.245	1673.0652	1832.7032	3006.5522	3037.0424	3040.9195	3044.4839	3060.2008	3080.556	3107.2695	3116.6737	3118.8379	3123.1611	3509.2308	3584.2711
CCN=C1OC(C)C1N	CCN=C1O[C@@H](C)[C@H]1N	
InChI=1S/C6H12N2O/c1-3-8-6-5(7)4(2)9-6/h4-5H,3,7H2,1-2H3	InChI=1S/C6H12N2O/c1-3-8-6-5(7)4(2)9-6/h4-5H,3,7H2,1-2H3/t4-,5+/m0/s1
