15
gdb 34328	2.35558	1.87391	1.34341	3.8772	69.94	-0.2729	-0.0156	0.2573	959.7327	0.11444	-416.790965	-416.783803	-416.782859	-416.822631	27.199	
N	-0.0920499714	-1.1719378859	-0.0820545668	-0.332341
C	-0.0939015986	-0.0159687482	-0.0489509655	 0.270624
C	-0.1337730322	 1.4354193804	-0.008451229	-0.019932
C	-0.0920982618	 1.9906973126	 1.4599316267	-0.146151
O	 1.3344031567	 2.3571994446	 1.2962819988	-0.261401
C	 1.1957607185	 2.1599965044	-0.043811386	 0.427145
N	 1.615618003	 2.7060499788	-1.0933031128	-0.294062
C	 0.5749765527	 2.3465635792	-2.1041806881	-0.163911
C	-0.7396026063	 2.0688576678	-1.283843594	-0.305253
H	-0.6907567615	 2.8889511547	 1.6252494528	 0.14449
H	-0.21801703	 1.2572678643	 2.2551943664	 0.155692
H	 0.4525156601	 3.1835729191	-2.7946583624	 0.130611
H	 0.8813750471	 1.4714731931	-2.6895670032	 0.134716
H	-1.4571464903	 1.4287962425	-1.799324937	 0.132413
H	-1.223339376	 3.0187859525	-1.0380033097	 0.127362
120.1432	150.3233	229.968	276.1771	323.0316	418.3827	531.0181	565.4353	650.4686	655.105	703.0378	777.5956	846.9071	887.063	892.8009	939.6014	966.9858	995.9949	1021.5374	1129.313	1140.4408	1167.6093	1181.9899	1223.1952	1266.3809	1296.7768	1311.0204	1349.2179	1478.2946	1493.4762	1500.9741	1787.9942	2351.2114	3044.0891	3066.8009	3079.7639	3111.9675	3135.1664	3166.2945
N#CC12COC1=NCC2	N#C[C@@]12CO[C]1[N]CC2	
InChI=1S/C6H6N2O/c7-3-6-1-2-8-5(6)9-4-6/h1-2,4H2	InChI=1S/C6H6N2O/c7-3-6-1-2-8-5(6)9-4-6/h1-2,4H2/t6-/m0/s1
