20
gdb 66832	2.5869	1.95275	1.44859	1.7881	82.37	-0.213	0.0914	0.3044	992.5354	0.171488	-365.938449	-365.930678	-365.929734	-365.970148	31.236	
C	-0.0401798155	 1.4512559245	-0.0242948344	-0.522987
C	 0.0377674982	-0.0429805196	 0.0503611221	 0.285819
C	 0.2322043595	-0.9693590332	-1.1788915082	-0.197706
C	 0.9262733647	-2.1516550905	-0.4955572868	-0.006848
C	 1.9367035028	-1.6086885816	 0.5301327806	-0.250509
C	 0.6771439293	-0.9479275687	 1.1166680164	-0.058817
N	-0.1898445273	-2.1050572907	 0.5736638813	-0.219631
C	-0.9704926048	-1.1087248939	-0.284948041	 0.328893
C	-2.4432428137	-1.1352092019	-0.50721084	-0.524567
H	 0.9554619141	 1.9019627822	-0.1145572059	 0.120944
H	-0.6246533142	 1.7725426731	-0.893326213	 0.12023
H	-0.5171291668	 1.8737812025	 0.8676337192	 0.12105
H	 0.3125636521	-0.5846771446	-2.1883795168	 0.081759
H	 1.0812627068	-3.0816451624	-1.0435645002	 0.073139
H	 2.310811228	-2.4032043334	 1.1816690857	 0.110027
H	 2.7576161624	-0.9758648579	 0.1831057104	 0.0953
H	 0.5843560043	-0.6812242808	 2.170743439	 0.069776
H	-2.986160842	-1.0486712853	 0.4407065433	 0.126137
H	-2.7518500835	-0.3055608712	-1.152416802	 0.120323
H	-2.7524667445	-2.0700272967	-0.9878956896	 0.127666
175.3968	191.6229	194.2991	232.2088	265.8127	282.3297	437.8799	566.7018	595.5044	624.6472	731.2462	773.9651	799.4201	841.1902	862.5073	887.2661	899.9803	915.9537	942.7	952.8647	978.3159	999.9288	1046.2639	1078.2447	1102.6621	1122.1368	1144.2089	1162.1514	1193.9434	1207.849	1217.4267	1233.5065	1260.5882	1303.5949	1341.5038	1406.0034	1414.9576	1474.9107	1476.9469	1479.9788	1486.6152	1493.8159	1510.9731	3018.9898	3024.661	3057.0774	3077.3241	3088.4907	3089.3339	3097.776	3099.8462	3107.1169	3118.9473	3185.0588
CC12C3C4CC1N4C23C	C[C@@]12[C@H]3[C@H]4C[C@@H]1N4[C@@]23C	
InChI=1S/C8H11N/c1-7-5-3-4-6(7)8(7,2)9(4)5/h4-6H,3H2,1-2H3	InChI=1S/C8H11N/c1-7-5-3-4-6(7)8(7,2)9(4)5/h4-6H,3H2,1-2H3/t4-,5+,6-,7+,8-/m1/s1
