19
gdb 91297	2.58705	1.60453	1.17412	3.7501	79.04	-0.2262	0.0092	0.2355	1082.876	0.160273	-382.036151	-382.027928	-382.026984	-382.069472	31.441	
C	 0.4877055087	 1.490702891	-0.3101713381	-0.408374
C	 0.0282911721	 0.0723658688	-0.021198702	 0.066578
C	 0.4268980018	-1.0366673972	-1.0395587153	-0.276204
C	 1.0951205501	-1.7729338846	 0.1338251304	 0.055303
C	 2.5774109284	-1.4358705223	 0.4229407059	-0.280655
C	 2.0407711992	-0.5177315935	 1.5621261645	-0.085718
C	 2.598737215	 0.8198104317	 1.7199506323	 0.276837
N	 3.0855798045	 1.8565728985	 1.8796484751	-0.3346
N	 0.6154984318	-0.7292511547	 1.1314200929	-0.175224
H	 1.5444559845	 1.5496550537	-0.5827365583	 0.12972
H	-0.0944498955	 1.8754340867	-1.1551467568	 0.118039
H	 0.3204353052	 2.1538530227	 0.5428228034	 0.141017
H	-1.053058537	 0.0930638163	 0.1488434841	 0.094085
H	-0.4147474353	-1.562854132	-1.4945492867	 0.110262
H	 1.1106505843	-0.7185908747	-1.8322363858	 0.105428
H	 0.7933362492	-2.8058865241	 0.3254605376	 0.08246
H	 3.2222651556	-2.2527000409	 0.7518959285	 0.119653
H	 3.0715145168	-0.895256078	-0.3874722638	 0.123901
H	 2.1494834104	-1.0061193377	 2.5379562923	 0.137491
34.0595	148.0601	198.0322	257.6086	292.4455	321.8444	373.4063	427.0454	525.4613	566.312	646.3063	691.4036	720.2778	831.1832	844.5645	891.3114	906.7617	958.4567	966.6391	1010.5182	1029.8834	1075.9906	1089.9603	1124.0239	1145.2408	1167.962	1202.6548	1222.6277	1252.9975	1266.8378	1273.8982	1306.0809	1336.0701	1365.2153	1382.5958	1414.3708	1480.0782	1488.5039	1494.4175	1496.004	2347.6857	3030.5627	3037.3295	3040.9081	3054.8567	3067.0697	3071.4165	3104.7232	3113.803	3125.6659	3130.381
CC1CC2CC(C#N)N12	C[C@H]1C[C@H]2C[C@@H](C#N)N12	
InChI=1S/C7H10N2/c1-5-2-6-3-7(4-8)9(5)6/h5-7H,2-3H2,1H3	InChI=1S/C7H10N2/c1-5-2-6-3-7(4-8)9(5)6/h5-7H,2-3H2,1H3/t5-,6-,7-/m0/s1
