23
gdb 108791	3.30356	0.95146	0.93453	1.655	89.25	-0.2248	0.0238	0.2486	1454.802	0.203721	-388.315023	-388.304743	-388.303798	-388.350457	38.146	
C	 0.1466213517	 1.46845905	 0.3948530629	-0.373755
C	-0.0037444068	 0.040446603	-0.1608940491	-0.292111
C	-1.4120389135	-0.4720218881	-0.1225795064	 0.311668
C	-2.2114030155	-0.7883602965	-1.137333268	-0.255933
C	-3.555714384	-1.273330606	-0.6513532851	 0.351557
C	-4.7102189177	-0.3634079177	-1.0959167047	-0.401863
C	-3.8315567671	-2.733543659	-1.040455509	-0.402255
O	-3.4427190034	-1.1950172627	 0.786300234	-0.30866
C	-2.1583684515	-0.724328398	 1.1662216342	-0.170213
H	 1.1878277291	 1.7990373769	 0.333535725	 0.115592
H	-0.4688146004	 2.1737513719	-0.1720910615	 0.122496
H	-0.1593957752	 1.5263427275	 1.443885473	 0.12208
H	 0.3622318724	 0.0097270847	-1.1928166636	 0.105463
H	 0.6431302334	-0.6332534069	 0.4186468519	 0.105812
H	-1.9629528107	-0.726899475	-2.1906445725	 0.090932
H	-4.8377756887	-0.3935384565	-2.1832320785	 0.106952
H	-5.6458089204	-0.6895573989	-0.6312991319	 0.119718
H	-4.5167047302	 0.670343339	-0.7976408877	 0.114259
H	-3.019225654	-3.379633476	-0.697254174	 0.114664
H	-4.7644687912	-3.0751591838	-0.5815384622	 0.119565
H	-3.9240925274	-2.8392811502	-2.126618807	 0.107044
H	-1.6459512758	-1.4739644561	 1.7929102091	 0.096598
H	-2.2603004929	 0.1842771183	 1.7807554512	 0.100391
50.1229	79.8497	116.6054	197.475	204.7378	227.3065	245.9213	296.7815	333.979	356.0423	409.2902	478.036	525.7842	589.8216	641.9154	784.7356	821.1389	863.6813	885.1764	905.4496	919.7963	950.1054	970.197	1008.4525	1027.437	1057.7347	1096.2621	1104.3634	1143.6855	1183.3166	1212.9798	1213.4662	1256.5572	1286.571	1340.4792	1355.9496	1387.446	1389.5971	1407.6671	1410.3895	1475.583	1480.1677	1480.3936	1494.4712	1497.9182	1503.4699	1506.5327	1523.62	1729.5512	2957.929	2979.4989	3009.8875	3032.719	3037.9944	3038.9289	3064.6828	3103.618	3110.3123	3110.5367	3112.2821	3117.7173	3120.3505	3198.8689
CCC1=CC(C)(C)OC1	CCC1=CC(C)(C)OC1	
InChI=1S/C8H14O/c1-4-7-5-8(2,3)9-6-7/h5H,4,6H2,1-3H3	InChI=1S/C8H14O/c1-4-7-5-8(2,3)9-6-7/h5H,4,6H2,1-3H3
