17
gdb 86126	2.49125	1.46387	0.97597	3.055	68.97	-0.2417	-0.0992	0.1426	1179.325	0.134407	-458.999361	-458.990545	-458.989601	-459.032992	32.377	
C	-0.6198828467	 1.4515667828	 0.1667379941	-0.402954
C	 0.1048747074	 0.118487676	-0.0067848995	-0.111753
C	 1.1373559697	 0.0392381119	-1.1584573539	-0.269359
C	 2.020127821	-1.1723696347	-0.8002762529	 0.051621
O	 3.2475976658	-1.2299078491	-1.4663921093	-0.436912
C	 2.1673837057	-1.0387652727	 0.7053520692	 0.271994
O	 3.1443173552	-1.342953919	 1.3387952254	-0.297144
C	 0.8999087845	-0.3079058565	 1.2269815932	 0.322438
O	 0.6474360519	-0.0977971148	 2.3821287691	-0.283867
H	 0.0957895746	 2.2709855079	 0.2873398173	 0.128424
H	-1.2457039544	 1.6721062843	-0.7024177415	 0.122923
H	-1.2530359258	 1.4255026289	 1.0570772074	 0.143134
H	-0.6433871654	-0.6765649105	-0.157473722	 0.117739
H	 0.6734545161	-0.0561236479	-2.142018353	 0.122062
H	 1.7650449656	 0.9380851536	-1.1687148647	 0.123862
H	 1.4273871849	-2.0918811984	-0.9777557131	 0.10133
H	 3.9044426599	-1.4917887319	-0.804818016	 0.296463
67.3529	120.8998	195.5442	218.0123	247.0686	292.7998	312.5304	367.4902	395.3536	485.7424	498.9099	544.2848	603.7224	716.0646	803.8739	894.1391	925.8229	961.7166	997.4898	1041.8125	1052.5369	1117.8228	1135.123	1167.5626	1196.5322	1261.8146	1276.0749	1302.1124	1339.1386	1370.0778	1410.593	1413.9795	1493.8593	1498.2431	1503.3275	1836.5007	1856.5739	2910.0822	2984.4601	3044.2545	3049.423	3112.6653	3115.6526	3128.0477	3730.9324
CC1CC(O)C(=O)C1=O	C[C@H]1C[C@@H](O)C(=O)C1=O	
InChI=1S/C6H8O3/c1-3-2-4(7)6(9)5(3)8/h3-4,7H,2H2,1H3	InChI=1S/C6H8O3/c1-3-2-4(7)6(9)5(3)8/h3-4,7H,2H2,1H3/t3-,4+/m0/s1
