20
gdb 79355	2.79252	1.79376	1.61535	1.8589	76.91	-0.2041	0.0761	0.2802	945.982	0.174258	-403.127144	-403.120024	-403.119079	-403.158306	29.374	
C	-0.1510939687	 1.4276305928	-0.0207500893	-0.32616
N	 0.0432733088	-0.019354854	-0.0220090384	-0.065794
C	 0.8913946325	-0.4541679512	-1.1165521044	-0.048185
C	 2.3414000471	-0.6187012293	-0.6164891711	-0.130061
C	 2.2844215272	-0.2910078331	 0.8675368457	-0.231276
C	 0.7729477672	-0.5258298915	 1.1590285074	-0.05581
C	 0.5138308141	-2.0311570683	 1.2175530261	-0.05243
O	 1.0599189875	-2.6890180772	 0.0715763205	-0.27786
C	 1.4842821127	-1.8217591341	-0.9446771212	 0.10345
H	 0.7848801805	 2.0114345787	 0.0139485563	 0.098447
H	-0.6912470276	 1.7173470295	-0.9276712755	 0.120934
H	-0.7664172012	 1.7093495726	 0.8393669752	 0.117102
H	 0.6323640291	-0.0787209056	-2.100208502	 0.08767
H	 3.213965255	-0.3692284724	-1.2089733591	 0.080125
H	 2.9119148432	-0.9483263565	 1.4778406091	 0.1075
H	 2.5870119733	 0.7424077439	 1.0622189475	 0.100493
H	 0.4105345413	-0.045171805	 2.0703033112	 0.073982
H	 0.9812379995	-2.4722345808	 2.1073692776	 0.094677
H	-0.5675343126	-2.213840486	 1.2585215489	 0.101531
H	 1.7117812209	-2.3897320027	-1.8399269945	 0.101663
139.9022	217.2068	227.293	321.5085	376.5673	401.7474	541.6358	572.2348	669.119	688.105	732.8564	764.0858	813.8708	850.4149	862.1295	915.355	930.7812	981.1298	1021.8955	1036.5031	1046.2921	1070.6257	1088.1502	1096.6446	1106.1227	1158.7296	1165.5399	1171.6481	1217.3215	1219.065	1252.3007	1267.8956	1294.3921	1326.2949	1334.4929	1373.245	1400.6452	1439.3596	1460.3281	1486.2986	1497.201	1507.5265	1511.9751	2956.64	3009.098	3047.2264	3050.4099	3063.7908	3088.8689	3093.22	3104.1802	3168.001	3170.1322	3182.3173
CN1C2C3CC1COC23	CN1[C@H]2[C@H]3C[C@@H]1CO[C@@H]23	
InChI=1S/C7H11NO/c1-8-4-2-5-6(8)7(5)9-3-4/h4-7H,2-3H2,1H3	InChI=1S/C7H11NO/c1-8-4-2-5-6(8)7(5)9-3-4/h4-7H,2-3H2,1H3/t4-,5-,6+,7-/m1/s1
