18
gdb 122764	6.02679	0.56014	0.51912	4.2339	76.2	-0.2839	-0.0865	0.1974	2064.6052	0.144068	-439.093434	-439.082991	-439.082047	-439.130575	34.795	
C	-0.0089693532	 1.510314584	 0.0097376575	-0.385552
C	-0.042664059	-0.0200235996	 0.0023243109	-0.184932
C	-1.462558322	-0.5649615764	 0.0129972704	-0.038165
O	-1.4008605304	-1.9843563752	 0.0051994315	-0.230812
C	-2.6468935834	-2.5897583924	 0.013815697	-0.161958
C	-2.489833578	-4.0971243392	 0.0041044707	 0.282869
O	-1.4521289977	-4.6989452816	-0.0091142641	-0.235774
C	-3.7889556673	-4.8127722698	 0.0127981922	 0.205274
N	-4.8070014266	-5.3607795954	 0.0198060674	-0.292785
H	 1.0211095552	 1.8767544457	 0.0018923527	 0.124042
H	-0.515741716	 1.9266459306	-0.8677782666	 0.11902
H	-0.4990902756	 1.9177125292	 0.9008011379	 0.119019
H	 0.4720163959	-0.4093949578	-0.8830312882	 0.115438
H	 0.4886370647	-0.4182678605	 0.8738065285	 0.115436
H	-2.0060278732	-0.2166708804	 0.9074425144	 0.093532
H	-2.0228310293	-0.2076619302	-0.8674174824	 0.093532
H	-3.2505357569	-2.3242427306	 0.9032871641	 0.130912
H	-3.267384247	-2.3146453906	-0.861022834	 0.130905
45.2923	54.1811	77.964	129.3296	141.9556	162.5651	231.2237	233.7141	278.2323	361.7644	397.0407	527.8416	576.8251	602.9957	766.0629	839.1081	901.7163	920.31	1010.819	1015.9607	1054.1232	1090.2622	1149.2861	1190.6319	1201.1254	1246.5424	1271.9512	1319.3224	1334.7382	1391.6157	1414.1245	1439.5433	1478.7818	1492.4361	1500.7253	1507.7668	1528.5945	1821.9793	2338.5421	2927.4159	2944.8434	2958.7359	2987.6471	3033.8326	3045.0009	3077.5138	3103.3836	3113.3375
CCCOCC(=O)C#N	CCCOCC(=O)C#N	
InChI=1S/C6H9NO2/c1-2-3-9-5-6(8)4-7/h2-3,5H2,1H3	InChI=1S/C6H9NO2/c1-2-3-9-5-6(8)4-7/h2-3,5H2,1H3
