15
gdb 21526	3.2931	1.83343	1.20418	3.6311	64.28	-0.1919	0.0273	0.2193	950.6802	0.120725	-395.983516	-395.975537	-395.974593	-396.016242	28.554	
N	 0.0556987898	 1.4828558831	 0.0373195094	-0.613325
C	 0.006217061	 0.0750201158	 0.0060208108	 0.06792
C	-1.114610871	-0.735808199	 0.0741224197	 0.339662
C	-2.5719257836	-0.4384239135	 0.1690160848	-0.200402
O	-3.2802026575	-1.533520283	-0.4048637017	-0.422759
N	-0.6453073362	-2.0154334301	 0.1092873196	-0.238089
N	 0.688228812	-2.0981060771	 0.04352962	-0.231025
C	 1.0940783472	-0.8293907439	-0.0050108457	-0.058762
H	 0.9184603883	 1.8333353252	-0.3602447733	 0.243617
H	-0.7169785657	 1.9091246666	-0.461371961	 0.237669
H	-2.8741167368	-0.2942459358	 1.2195979177	 0.111813
H	-2.7931828405	 0.5059318606	-0.3554135735	 0.095915
H	-4.2048549031	-1.4571776516	-0.1519685223	 0.293878
H	-1.2121751153	-2.8447640928	 0.0601820484	 0.27517
H	 2.1492401713	-0.5993395145	-0.048195553	 0.09872
59.099	134.0771	172.907	222.5064	285.1601	300.5101	339.3259	508.8757	516.9117	637.1833	673.5265	703.7833	752.1915	799.5922	852.0081	959.4494	1026.8357	1053.8914	1080.7917	1153.1646	1212.48	1222.3865	1250.5845	1272.6195	1323.9584	1407.0826	1428.6946	1474.1916	1516.1083	1545.4263	1644.3471	1659.2328	2955.711	2973.3425	3235.8855	3517.6871	3606.7029	3680.9664	3832.742
NC1=C(CO)NN=C1	Nc1c(CO)[nH]nc1	
InChI=1S/C4H7N3O/c5-3-1-6-7-4(3)2-8/h1,8H,2,5H2,(H,6,7)	InChI=1S/C4H7N3O/c5-3-1-6-7-4(3)2-8/h1,8H,2,5H2,(H,6,7)
