18
gdb 63777	2.82292	1.45976	1.21368	1.4783	73.11	-0.2399	-0.0425	0.1975	1064.0088	0.145373	-439.035998	-439.027132	-439.026188	-439.069389	33.199	
C	-0.1275378442	 1.5930729773	-0.1564220959	-0.479034
C	 0.0423905624	 0.0868429731	-0.04400158	 0.393806
O	-1.2214293657	-0.5631648533	-0.1207892473	-0.469827
C	 1.1208602703	-0.6540280276	-0.8948257874	-0.223787
N	 1.6593204413	-1.3702316038	 0.3298896987	-0.146787
C	 2.2110423084	-0.3696375751	 1.2668951944	-0.101437
C	 3.0020185227	 0.8546414692	 0.9554339877	 0.146616
O	 3.1068599448	 1.4224988321	-0.1065127531	-0.266613
C	 0.726862147	-0.5479061892	 1.1712032081	-0.078362
H	 0.8252205361	 2.120755233	-0.1151952405	 0.150078
H	-0.5962316313	 1.8407015518	-1.1177029955	 0.108712
H	-0.7831173611	 1.9578700135	 0.6402773833	 0.124246
H	-1.6517585334	-0.2724736228	-0.9322827259	 0.279598
H	 0.6689335931	-1.3950766453	-1.5556841397	 0.112175
H	 1.8610536949	-0.0542384355	-1.4203303353	 0.139195
H	 2.6202847021	-0.8712147134	 2.1435651023	 0.111848
H	 3.5515760477	 1.2302770014	 1.848710869	 0.087249
H	 0.1718007449	-0.9676146154	 2.0050898572	 0.112324
68.8825	156.6328	170.8399	223.9314	237.8033	264.8401	308.1993	379.566	392.5521	441.8887	517.3592	629.249	696.7709	755.0492	808.3305	860.4521	886.2176	895.91	958.7538	969.4379	997.8035	1032.4196	1064.6596	1092.0432	1115.2613	1167.729	1201.7471	1233.031	1245.3957	1287.9497	1319.0245	1397.1368	1411.5683	1418.9832	1438.5232	1472.0277	1489.2811	1505.5065	1805.456	2869.8368	3027.6533	3089.678	3094.8078	3117.477	3157.8101	3161.2165	3170.389	3804.4504
CC1(O)CN2C(C=O)C12	C[C@@]1(O)CN2[C@@H](C=O)[C@@H]12	
InChI=1S/C6H9NO2/c1-6(9)3-7-4(2-8)5(6)7/h2,4-5,9H,3H2,1H3	InChI=1S/C6H9NO2/c1-6(9)3-7-4(2-8)5(6)7/h2,4-5,9H,3H2,1H3/t4-,5-,6+,7?/m0/s1
