27
gdb 86180	2.20742	1.26526	1.02064	0.1315	95.28	-0.2907	0.075	0.3657	1389.2072	0.251669	-353.591062	-353.580557	-353.579613	-353.625995	41.345	
C	-0.1905940407	 1.5478194243	 0.0144626096	-0.409171
C	 0.0672195617	 0.0425055864	-0.0142419157	 0.048931
C	 0.9644185681	-0.4449835285	-1.1610470073	-0.219623
C	 1.3353334138	-1.8730014044	-0.7380665696	 0.019785
C	 2.4301415029	-2.5267287674	-1.5820089995	-0.422619
C	 1.6039776939	-1.7668080972	 0.8065950915	 0.332334
C	 1.1160866096	-3.0326934107	 1.5270933789	-0.441026
C	 3.0941693529	-1.5520434072	 1.12686325	-0.431092
C	 0.7837153839	-0.504169119	 1.2421830461	-0.25913
H	 0.7507814326	 2.1035188595	 0.1006725713	 0.109405
H	-0.6942409973	 1.8847356225	-0.8982456975	 0.108625
H	-0.8212049279	 1.8305179446	 0.8645879204	 0.109889
H	-0.8999484711	-0.4705122052	-0.1131952642	 0.065611
H	 0.4750871264	-0.4037930802	-2.1402884326	 0.085738
H	 1.8668360144	 0.1803937707	-1.2250677045	 0.086423
H	 0.4271654187	-2.4824570196	-0.8536939144	 0.062863
H	 3.352466373	-1.937148648	-1.5827877719	 0.113842
H	 2.676261391	-3.5316772513	-1.2215836573	 0.110808
H	 2.10339226	-2.624926929	-2.6228233328	 0.108285
H	 1.6210363726	-3.9284193718	 1.146421785	 0.107797
H	 1.3114024328	-2.9774963791	 2.6041230207	 0.106742
H	 0.0382956377	-3.1741720377	 1.3901762166	 0.106482
H	 3.5042322108	-0.6867395219	 0.5948201397	 0.108126
H	 3.2273903057	-1.3693988252	 2.1990256676	 0.107512
H	 3.6985957662	-2.4258993187	 0.8631431601	 0.108533
H	 1.4621226422	 0.2628007339	 1.6352429674	 0.086902
H	 0.0779979761	-0.7331742698	 2.0473317521	 0.088027
37.8121	139.703	226.8897	233.4181	240.7071	255.1132	269.2645	291.818	303.8793	335.9771	380.2334	421.4898	437.5372	494.7706	528.0786	542.8803	700.371	847.9299	863.0179	866.5466	901.1308	935.2112	944.967	948.7428	977.3581	995.5792	1015.5288	1063.0165	1066.4318	1097.0862	1125.4841	1150.1198	1185.7052	1214.8075	1230.6661	1253.666	1271.2818	1283.3045	1321.1134	1348.1679	1361.6542	1378.8717	1384.7406	1397.838	1408.0352	1409.7597	1422.8601	1483.665	1486.8391	1489.2566	1496.0383	1496.5528	1497.935	1499.2013	1505.3617	1508.3676	1512.1997	2987.7413	2994.7107	3010.0465	3017.2991	3021.1362	3023.5021	3027.9365	3031.6404	3067.0104	3070.9952	3082.8785	3087.5616	3088.9967	3090.1122	3090.7262	3091.5213	3098.5574	3101.3608
CC1CC(C)C(C)(C)C1	C[C@H]1C[C@@H](C)C(C)(C)C1	
InChI=1S/C9H18/c1-7-5-8(2)9(3,4)6-7/h7-8H,5-6H2,1-4H3	InChI=1S/C9H18/c1-7-5-8(2)9(3,4)6-7/h7-8H,5-6H2,1-4H3/t7-,8+/m0/s1
