16
gdb 10102	2.19073	1.68233	0.99717	3.5331	68.16	-0.2852	-0.0017	0.2835	1149.7071	0.128865	-379.930589	-379.921553	-379.920608	-379.965256	30.592	
C	-0.0457939878	 1.5531931701	-0.0865802992	-0.399873
C	-0.0347535462	 0.0268791071	 0.0122257216	-0.189749
C	 0.7165251408	-0.4697685729	 1.2533420446	-0.036493
O	 0.0219474306	 0.0068312324	 2.4029256063	-0.184763
C	 0.6793536589	-0.0562708088	 3.5897414058	 0.133018
N	 0.1136296908	 0.3716850978	 4.6284594849	-0.428313
C	 0.8100138196	-1.9433493411	 1.2715592511	 0.280476
N	 0.8944994369	-3.0954289949	 1.2814993847	-0.30845
H	 0.9712871431	 1.9539579745	-0.1594016926	 0.118704
H	-0.5938382601	 1.8711115511	-0.9773890463	 0.127565
H	-0.5258482964	 1.99741614	 0.7882011817	 0.151667
H	-1.0551865491	-0.3666519155	 0.0568579336	 0.137742
H	 0.44356044	-0.4177176192	-0.8667143161	 0.125767
H	 1.7412636869	-0.0709907359	 1.2453314048	 0.128995
H	 1.683080852	-0.494002318	 3.5148360124	 0.104797
H	 0.72608345	 0.2623427333	 5.4340120228	 0.238912
59.8288	78.756	104.1857	146.7935	185.2823	231.594	274.3354	333.2974	452.316	511.6782	548.6959	649.2487	789.8227	822.2204	882.6864	959.2036	980.3681	1039.258	1049.7552	1098.6257	1137.0105	1153.5491	1271.8475	1290.2929	1317.4886	1363.3678	1383.9265	1412.7404	1427.4739	1477.7767	1496.7918	1509.1035	1753.6523	2358.8801	3007.7926	3040.021	3042.5717	3055.0353	3094.5137	3114.1969	3135.9956	3523.179
CCC(OC=N)C#N	CC[C@@H](O[CH][NH])C#N	
InChI=1S/C5H8N2O/c1-2-5(3-6)8-4-7/h4-5,7H,2H2,1H3	InChI=1S/C5H8N2O/c1-2-5(3-6)8-4-7/h4-5,7H,2H2,1H3/t5-/m1/s1
