22
gdb 120917	3.2447	0.96166	0.86006	1.8057	83.08	-0.2236	0.0807	0.3042	1455.0318	0.193522	-404.284483	-404.274891	-404.273946	-404.319442	35.278	
C	-2.1859878676	 1.5070929097	 2.3557028408	-0.224615
O	-2.1898237456	 0.2083618676	 1.8157469861	-0.233432
C	-0.9379400983	-0.4387719903	 1.9265470473	-0.081621
C	-1.0907502176	-1.8171924625	 1.3070603456	 0.064546
C	-1.0553814398	-2.0697488448	-0.2216503936	-0.287209
C	-0.0112769106	-3.1457572077	 0.0797718402	-0.043575
C	 1.1850679046	-2.6014146479	 0.7486086247	 0.0341
C	 1.8554554953	-1.2785105851	 0.4502271851	-0.425883
N	-0.0186342813	-2.8438518252	 1.5833826593	-0.188086
H	-3.1883726465	 1.9213449015	 2.22162105	 0.126511
H	-1.9440701344	 1.502781972	 3.4305773715	 0.104257
H	-1.4604205528	 2.1614614331	 1.8460525894	 0.101505
H	-0.1590655336	 0.1649422954	 1.4396654108	 0.082808
H	-0.6468820296	-0.5564294745	 2.9851942004	 0.095475
H	-2.0136004917	-2.2316560243	 1.7232135565	 0.099582
H	-1.9950739761	-2.460443789	-0.613539171	 0.11258
H	-0.7284896263	-1.2480155264	-0.8662798305	 0.102562
H	-0.059225032	-4.166616586	-0.2871707383	 0.091858
H	 1.9105023271	-3.3713279534	 1.0092090098	 0.096066
H	 1.2008028114	-0.5617798844	-0.0479077379	 0.126169
H	 2.2383596474	-0.8146657138	 1.3656423308	 0.126138
H	 2.7107456881	-1.4546698039	-0.211438747	 0.120263
59.1955	81.3863	114.277	179.5724	230.1225	245.4128	258.2047	326.6621	350.1724	397.428	482.2304	592.0346	694.244	752.6249	771.463	857.4847	883.1058	917.0618	969.6367	984.4362	991.4002	1042.2347	1076.352	1106.4646	1120.8464	1129.2192	1152.0046	1159.662	1178.4392	1195.8619	1228.062	1251.3424	1260.7413	1273.9882	1293.0183	1348.159	1377.2588	1408.4551	1432.7069	1441.6556	1480.4955	1485.602	1492.229	1495.4868	1505.0135	1508.0327	1527.9753	2955.0147	2969.0634	3009.7246	3017.1543	3036.9079	3055.5955	3064.3074	3091.9097	3110.0961	3111.9402	3122.9306	3136.7629	3155.3143
COCC1CC2C(C)N12	COC[C@H]1C[C@H]2[C@@H](C)N12	
InChI=1S/C7H13NO/c1-5-7-3-6(4-9-2)8(5)7/h5-7H,3-4H2,1-2H3	InChI=1S/C7H13NO/c1-5-7-3-6(4-9-2)8(5)7/h5-7H,3-4H2,1-2H3/t5-,6-,7+,8?/m1/s1
