19
gdb 69166	2.16219	1.67926	1.35513	3.1842	75.62	-0.2351	-0.0247	0.2103	1063.5981	0.155831	-423.017387	-423.007972	-423.007028	-423.050934	35.194	
C	-0.1344895729	 1.523401729	 0.1500436877	-0.512572
C	 0.1181377771	 0.055267694	 0.0336447202	 0.420658
O	-0.750690753	-0.8466980524	 0.7158172617	-0.282054
C	 0.6625754831	-0.9095352633	 1.03059162	-0.21899
C	 1.2644404429	-1.7269890877	-0.1016680668	 0.426504
O	 2.0194243175	-2.6520063883	-0.1658615804	-0.316642
C	 0.687804964	-0.7427851608	-1.1774505891	 0.087651
C	-0.3343293934	-1.3087589626	-2.1580044517	-0.452836
C	 1.8542327969	-0.0446649761	-1.8841464956	-0.444641
H	 0.7496221236	 2.0965744822	-0.1435306522	 0.134697
H	-0.9630675183	 1.8245099474	-0.5004678314	 0.138242
H	-0.3989016341	 1.7834186874	 1.1781261579	 0.140834
H	 0.9489004678	-0.7917752281	 2.0696720515	 0.1185
H	-1.1898406873	-1.7311487773	-1.6267004863	 0.13854
H	-0.6946643551	-0.5324813041	-2.8427958648	 0.113322
H	 0.1207783407	-2.100322204	-2.7620497403	 0.130946
H	 2.3942043805	-0.7598345898	-2.5112534393	 0.139868
H	 1.4894254204	 0.765293839	-2.5249958029	 0.119601
H	 2.5705408894	 0.3800809056	-1.1725321881	 0.118371
98.8826	172.0547	189.2595	203.4082	218.0081	228.344	261.3484	276.4562	343.101	392.8339	501.6822	532.1681	593.1841	675.5951	699.6886	756.9425	812.3312	829.0796	959.5106	961.7909	988.0265	1010.9929	1030.4221	1040.5615	1090.1918	1166.4477	1198.9351	1208.1518	1226.173	1294.7022	1390.8816	1396.653	1413.0719	1439.3441	1479.1392	1484.4563	1487.157	1491.7474	1502.5031	1509.87	1892.4618	3028.8424	3032.466	3040.1252	3095.0493	3096.5951	3104.5363	3113.0203	3127.3718	3129.7918	3186.373
CC12OC1C(=O)C2(C)C	C[C@]12O[C@H]1C(=O)C2(C)C	
InChI=1S/C7H10O2/c1-6(2)4(8)5-7(6,3)9-5/h5H,1-3H3	InChI=1S/C7H10O2/c1-6(2)4(8)5-7(6,3)9-5/h5H,1-3H3/t5-,7-/m0/s1
