19
gdb 85204	2.58289	1.0875	0.85061	4.1075	76.8	-0.2464	-0.0305	0.2159	1373.0566	0.15649	-423.046805	-423.037275	-423.03633	-423.082304	33.924	
C	-0.1891802967	 1.578131498	-0.102358163	-0.394898
C	-0.0148435291	 0.0654679295	-0.0151613743	-0.030799
C	 1.1148288471	-0.4898737271	-0.9432465807	-0.344221
C	 1.9936464974	-0.6143751692	 0.3080655463	 0.388688
O	 3.1755325404	-0.6622183157	 0.4996827447	-0.297135
C	 0.7827189119	-0.4556773381	 1.2415384383	-0.109923
C	 0.9274799991	 0.3820633828	 2.515676975	-0.306463
C	 1.8273000849	-0.3003300227	 3.5309780118	 0.146966
O	 1.4857408091	-0.5804757289	 4.6516505009	-0.241935
H	 0.7697389297	 2.1025190422	-0.0190082261	 0.122386
H	-0.6306845593	 1.8561892533	-1.0646425526	 0.12349
H	-0.8458947865	 1.9539919525	 0.6885109677	 0.12543
H	-0.9795907713	-0.4298538538	-0.1418629236	 0.0839
H	 0.8847884712	-1.4701191722	-1.3726634859	 0.133391
H	 1.4923768006	 0.1612936745	-1.735898257	 0.129769
H	 0.4175678874	-1.4589110149	 1.4983408323	 0.115581
H	 1.3827085965	 1.3502492483	 2.2687723328	 0.123292
H	-0.0440022166	 0.5662224607	 2.9842045452	 0.123856
H	 2.8462385642	-0.5340067692	 3.1565906681	 0.108624
54.4032	72.3504	73.7681	150.5901	195.8236	253.9282	283.1373	356.9597	414.2324	427.962	520.1422	549.3544	702.9171	735.5932	795.7199	832.0913	874.6093	882.828	972.2171	1016.1306	1025.8578	1061.6926	1094.4713	1104.216	1145.6874	1147.326	1204.0381	1210.7365	1242.4202	1265.9695	1302.4186	1342.312	1367.2399	1415.8449	1424.1506	1441.0177	1463.8011	1496.86	1500.0838	1830.2697	1879.6039	2921.6243	3022.3874	3029.2332	3032.0487	3057.6612	3079.5807	3095.1659	3101.3914	3105.3937	3115.867
CC1CC(=O)C1CC=O	C[C@H]1CC(=O)[C@H]1CC=O	
InChI=1S/C7H10O2/c1-5-4-7(9)6(5)2-3-8/h3,5-6H,2,4H2,1H3	InChI=1S/C7H10O2/c1-5-4-7(9)6(5)2-3-8/h3,5-6H,2,4H2,1H3/t5-,6-/m0/s1
