18
gdb 92939	2.29084	1.54145	1.22846	3.8109	77.6	-0.2699	-0.0172	0.2527	1092.4259	0.14706	-401.973376	-401.964495	-401.963551	-402.006647	33.482	
C	-0.6581081674	 1.1961521799	 0.0899898469	-0.410138
C	 0.1707328093	-0.070097663	-0.1013835326	 0.000902
C	 1.3091854398	 0.0231420044	-1.1469940807	-0.285817
C	 2.3365866811	-0.9483340869	-0.628933274	-0.069785
C	 2.0976210958	-1.3121800234	 0.6291976807	-0.11629
C	 0.8892510088	-0.5799174735	 1.1881002722	 0.196273
O	 1.2705311658	 0.5497260021	 1.9741383614	-0.447157
C	 0.0167221344	-1.4564092593	 1.9981316521	 0.238887
N	-0.64779114	-2.1440179967	 2.6478668592	-0.343951
H	-0.0358270794	 2.0260205726	 0.4319925104	 0.138139
H	-1.1287943512	 1.4819268201	-0.8559825259	 0.11384
H	-1.4520284529	 1.0426168501	 0.8270504341	 0.131246
H	-0.4887106575	-0.8860092024	-0.415884836	 0.104398
H	 0.9581109378	-0.2210073814	-2.1552693244	 0.114073
H	 1.728442069	 1.0372880497	-1.1973264028	 0.123197
H	 3.1850890831	-1.2791352038	-1.2178659826	 0.110793
H	 2.6949386248	-1.9807824739	 1.2379133955	 0.112201
H	 1.8273024687	 0.2415041752	 2.6979813066	 0.289189
84.1162	142.7221	179.5213	231.2883	243.5092	273.1287	299.534	340.5837	479.7211	485.308	508.9322	568.6339	603.1653	705.7277	751.7317	783.4497	890.2118	929.3944	962.8201	975.5929	984.5081	1028.2691	1085.7224	1107.2415	1120.4119	1146.1218	1164.5911	1210.175	1303.4794	1322.2732	1340.6624	1364.194	1381.7252	1413.2583	1481.2908	1493.7275	1500.8724	1679.1086	2348.6798	3021.0932	3043.8623	3049.3005	3072.1068	3108.2799	3132.3624	3188.2306	3213.847	3807.1816
CC1CC=CC1(O)C#N	C[C@H]1CC=C[C@]1(O)C#N	
InChI=1S/C7H9NO/c1-6-3-2-4-7(6,9)5-8/h2,4,6,9H,3H2,1H3	InChI=1S/C7H9NO/c1-6-3-2-4-7(6,9)5-8/h2,4,6,9H,3H2,1H3/t6-,7-/m0/s1
