20
gdb 86785	3.39665	0.92148	0.80249	3.7447	79.58	-0.2715	0.0359	0.3074	1451.5073	0.170026	-403.156165	-403.146455	-403.145511	-403.191303	35.377	
C	 0.0239121901	 1.6220619976	-0.0773307946	-0.413171
C	 0.0721302467	 0.1062476593	 0.0370439272	 0.002423
C	 1.0360612856	-0.7069606512	-0.8757160305	-0.263724
C	 1.3034596283	-1.6584986538	 0.321566125	 0.000793
C	 2.7220548172	-2.1710916143	 0.5846879305	-0.357899
C	 3.2278941415	-2.9912742379	-0.5137225031	 0.260084
N	 3.6095051636	-3.6343040772	-1.3951366438	-0.312216
C	 0.7517858356	-0.5529209023	 1.280964126	 0.090778
O	 1.7433180839	 0.2238356756	 1.9238695889	-0.423959
H	 1.0161028849	 2.0776805933	 0.0227271842	 0.101788
H	-0.3674037236	 1.9210322677	-1.0552317889	 0.125568
H	-0.6178739513	 2.0612303756	 0.6930605933	 0.128361
H	-0.9414470799	-0.2988525021	-0.053312813	 0.085171
H	 0.6304095455	-1.1447640117	-1.7893922482	 0.116906
H	 1.9274995679	-0.127746547	-1.1446635417	 0.096741
H	 0.6090545009	-2.50342715	 0.2940555199	 0.094141
H	 3.4038879582	-1.3289798212	 0.7429033859	 0.141775
H	 2.7482210387	-2.7620049345	 1.5076297904	 0.154168
H	 0.0917181693	-0.8965929781	 2.0813684054	 0.087441
H	 2.1891976867	 0.773200142	 1.2710044375	 0.284831
50.072	82.7545	110.6918	192.735	222.0211	235.94	281.5082	336.2794	353.3738	392.3834	451.5419	528.2474	568.0961	691.9382	771.8748	838.8898	866.6466	892.8297	925.3889	949.075	967.9411	1011.749	1077.1144	1101.5297	1136.0135	1147.6619	1169.6624	1204.4884	1228.9016	1254.7188	1260.9904	1272.3776	1309.2464	1333.2554	1355.1306	1387.7618	1415.2684	1430.6981	1462.1423	1488.1961	1495.7346	1499.4794	2359.6537	3027.879	3037.5713	3047.2612	3049.0159	3062.6745	3079.8745	3088.016	3090.4659	3106.0699	3116.6325	3815.3228
CC1CC(CC#N)C1O	C[C@H]1C[C@@H](CC#N)[C@H]1O	
InChI=1S/C7H11NO/c1-5-4-6(2-3-8)7(5)9/h5-7,9H,2,4H2,1H3	InChI=1S/C7H11NO/c1-5-4-6(2-3-8)7(5)9/h5-7,9H,2,4H2,1H3/t5-,6+,7-/m0/s1
