18
gdb 19615	3.68036	1.95048	1.61255	1.8055	70.41	-0.2415	0.0839	0.3255	856.8114	0.154465	-347.748883	-347.741843	-347.740899	-347.779637	28.399	
C	 0.0187349028	 1.5989252805	 0.0080283798	-0.422626
C	 0.1064558638	 0.0772624178	 0.0017917804	 0.028344
C	 0.8338031765	-0.6786075315	-1.1176978754	-0.079005
C	 2.3130288673	-0.7997147487	-0.7322363175	-0.109051
C	 1.2804552984	-1.7639989919	-0.1729190243	-0.115718
C	 1.0672786846	-0.679519523	 0.9674083079	-0.116847
C	 2.4942759702	-0.1522689935	 0.6398772813	 0.159366
O	 3.5190110614	-0.7391896752	 1.4146848066	-0.449
H	 0.9876432276	 2.072014084	-0.1737809273	 0.121618
H	-0.6669976989	 1.9472862768	-0.772324904	 0.113581
H	-0.3612479081	 1.9661737738	 0.9682038111	 0.1154
H	-0.8982634747	-0.3491257243	 0.1076743664	 0.071548
H	 0.5284909452	-0.7940977239	-2.1510558905	 0.083697
H	 3.0759393863	-0.9930717213	-1.4765474248	 0.086882
H	 1.1762828771	-2.8378089469	-0.2229408389	 0.090688
H	 0.798145504	-0.8686285314	 2.0054815164	 0.068716
H	 2.6688689066	 0.9252465522	 0.7058595718	 0.07652
H	 3.4485506898	-1.6955562636	 1.306124571	 0.275887
173.8723	203.5221	229.2966	303.6188	330.9297	389.0336	534.1292	556.0815	666.0754	777.2855	784.8475	814.0222	833.4905	880.3352	898.602	923.0359	936.0359	1003.5508	1023.6599	1031.0684	1034.7464	1037.3086	1102.0973	1125.9671	1134.5567	1158.2918	1169.4368	1189.891	1244.2059	1280.0107	1282.3787	1317.0114	1361.0288	1388.311	1407.7603	1439.7729	1491.3665	1502.7323	3029.0837	3033.6789	3071.3684	3090.5966	3113.0347	3130.7029	3179.8186	3191.7843	3224.0308	3778.7271
CC1C2C3C2C1C3O	C[C@H]1[C@H]2[C@@H]3[C@H]2[C@H]1[C@H]3O	
InChI=1S/C7H10O/c1-2-3-5-4(2)7(8)6(3)5/h2-8H,1H3	InChI=1S/C7H10O/c1-2-3-5-4(2)7(8)6(3)5/h2-8H,1H3/t2-,3+,4-,5+,6+,7+/m0/s1
