15
gdb 77209	3.47236	1.05788	0.91065	2.5613	71.06	-0.2978	-0.004	0.2938	1231.253	0.112562	-416.819569	-416.810984	-416.81004	-416.8533	30.636	
O	 0.353387233	 0.9727424006	-0.5932840128	-0.402781
C	-0.0851050089	-0.27963463	-0.1898895669	 0.134061
C	-0.1102020559	-0.6252244229	 1.3419436243	-0.173701
C	-1.4980371792	-1.2948209683	 1.1090505341	-0.249951
C	-1.632236777	-0.4818497517	-0.2217493264	-0.223833
C	-2.3873317509	 0.7524502193	-0.0620518317	 0.299203
N	-3.0093090013	 1.7156821384	 0.0822272899	-0.318271
C	 0.9751857392	-1.4195069188	 1.8827759759	 0.251909
N	 1.8498566611	-2.0664007105	 2.2751221591	-0.314293
H	 1.3108176038	 0.9607341926	-0.6956733348	 0.305357
H	 0.3924481428	-1.0974323279	-0.7436801374	 0.109004
H	-0.2218772122	 0.3033361638	 1.9085832208	 0.152751
H	-1.4089682994	-2.3632179355	 0.9096075186	 0.141528
H	-2.2567293793	-1.1229459124	 1.8702047036	 0.15119
H	-2.0142794459	-1.0263638667	-1.0871611964	 0.137827
61.8922	122.8341	150.5835	190.6907	236.9267	257.4431	340.8107	412.2926	473.0555	520.3274	559.8939	622.9689	696.6856	805.252	814.4499	915.5824	957.9545	1000.5756	1056.5591	1082.3681	1123.1933	1168.0425	1191.6626	1215.1563	1226.8119	1257.7989	1292.5346	1344.9959	1362.1829	1436.1854	1489.6334	2353.5964	2361.0706	3031.2473	3085.5779	3097.0802	3103.7403	3168.1097	3821.2497
OC1C(CC1C#N)C#N	O[C@H]1[C@@H](C[C@H]1C#N)C#N	
InChI=1S/C6H6N2O/c7-2-4-1-5(3-8)6(4)9/h4-6,9H,1H2	InChI=1S/C6H6N2O/c7-2-4-1-5(3-8)6(4)9/h4-6,9H,1H2/t4-,5-/m0/s1
