25
gdb 117635	2.6415	0.92581	0.82774	2.5295	89.3	-0.236	-0.0076	0.2284	1583.4032	0.225111	-389.52593	-389.514157	-389.513212	-389.563226	42.743	
C	-0.0926000587	 1.6397856624	 0.1035089091	-0.375705
C	 0.0228929617	 0.1167566622	-0.0228154311	-0.198717
C	-1.3484407841	-0.5673335292	 0.0423323633	-0.165254
C	-1.3604533871	-2.1137393235	-0.0238743704	 0.134363
C	-0.6741704655	-2.6195377168	-1.3166112245	-0.419196
C	-0.6642554225	-2.7292107706	 1.2056612334	-0.430015
C	-2.8346868386	-2.5808385915	-0.1079327764	 0.380765
C	-3.1617819311	-4.0264309234	 0.2431953357	-0.484916
O	-3.7159065657	-1.8303918435	-0.4611971114	-0.311255
H	 0.8892829475	 2.1203208118	 0.0483753721	 0.108273
H	-0.7146187014	 2.0569929441	-0.6960485693	 0.116903
H	-0.5504604329	 1.9240249305	 1.0574843379	 0.11422
H	 0.5209705601	-0.125370658	-0.9692405275	 0.09685
H	 0.6792882046	-0.257255589	 0.7726789939	 0.093136
H	-1.8526959441	-0.2625275264	 0.9690990485	 0.09019
H	-1.9800418777	-0.1892898966	-0.7672910021	 0.11426
H	 0.3933612953	-2.3823100451	-1.3024158358	 0.123415
H	-0.7633956456	-3.7052414297	-1.4233190429	 0.11284
H	-1.1160734381	-2.1547191931	-2.203433472	 0.12771
H	-1.1525305781	-2.4222217537	 2.1370392172	 0.116796
H	-0.6592277715	-3.8219974115	 1.1698534999	 0.113859
H	 0.3791121861	-2.4052637713	 1.2566637189	 0.122409
H	-3.1435522879	-4.1542243819	 1.3314340484	 0.145076
H	-4.1643867021	-4.2578181127	-0.1184155965	 0.140598
H	-2.4401904527	-4.7345208736	-0.1734213486	 0.133395
38.8791	67.898	95.879	142.5165	172.4355	201.0924	245.9656	251.0981	272.7705	304.6735	310.1946	345.4226	362.4834	371.4324	505.0368	568.431	608.6378	700.9845	743.8724	812.5647	868.9221	918.0985	942.5658	957.9809	976.8185	1002.0418	1021.7028	1053.8615	1081.0573	1101.9682	1144.2337	1208.6206	1234.8918	1258.9887	1291.29	1327.667	1341.056	1378.7978	1395.1939	1395.7924	1412.1571	1421.5877	1462.0442	1477.3802	1478.0746	1485.4658	1493.3413	1496.4173	1499.8634	1508.2578	1511.3576	1515.2477	1798.305	3019.4312	3025.857	3030.0328	3034.9844	3038.6957	3044.1214	3054.4547	3084.6649	3098.8423	3101.2986	3103.1401	3104.7646	3109.1062	3112.8575	3114.8885	3151.6611
CCCC(C)(C)C(C)=O	CCCC(C)(C)C(=O)C	
InChI=1S/C8H16O/c1-5-6-8(3,4)7(2)9/h5-6H2,1-4H3	InChI=1S/C8H16O/c1-5-6-8(3,4)7(2)9/h5-6H2,1-4H3
