18
gdb 20123	4.12044	1.33801	1.13542	2.3554	67.68	-0.2651	0.0858	0.3509	1075.2709	0.152424	-384.892125	-384.883814	-384.882869	-384.925425	29.948	
C	-0.1091615265	 1.7140451284	-0.1077711064	-0.419532
C	-0.1110071711	 0.189339084	 0.0593541136	-0.053657
C	 0.3847973209	-0.5644543603	-1.1656067025	 0.094809
C	 0.3248221895	-0.0585072035	-2.5416381633	-0.189586
O	 1.556890953	-0.0576971081	-1.8158035019	-0.238001
C	 0.7393280311	-0.2198469805	 1.2490190706	 0.102425
C	 0.1674689003	-0.4335603474	 2.5826287821	-0.18315
O	 0.5308079505	-1.5413286309	 1.7548726673	-0.244815
H	 0.8711902354	 2.0620063948	-0.4449338565	 0.1413
H	-0.8556055133	 2.0369426513	-0.8384402604	 0.118784
H	-0.3422062711	 2.2041295429	 0.8419004993	 0.117002
H	-1.1323173298	-0.1614360039	 0.2598648104	 0.083514
H	 0.3962018467	-1.6469014965	-1.0310201144	 0.109
H	 0.2712476603	-0.7655425187	-3.3685376764	 0.115961
H	-0.092360309	 0.9244958963	-2.7495197499	 0.113555
H	 1.7902498212	 0.0670077639	 1.1809139219	 0.104884
H	 0.7824356065	-0.2913442641	 3.469986395	 0.116106
H	-0.9029663846	-0.2958547779	 2.7339776415	 0.111401
69.6868	78.1452	169.9292	200.2514	242.3734	286.049	327.1363	407.4706	503.9348	607.6556	753.7304	822.7129	856.4374	866.8891	930.3913	950.603	975.4841	992.9572	1065.8014	1090.7604	1112.7145	1141.676	1155.0703	1164.2749	1168.9817	1183.5316	1193.9551	1286.7005	1291.7152	1293.6545	1349.9631	1396.1574	1435.3087	1442.9552	1494.0004	1509.918	1528.6587	1534.7084	3022.1363	3045.7191	3079.9247	3089.1137	3100.2659	3106.934	3113.5115	3123.9073	3166.6037	3175.9351
CC(C1CO1)C1CO1	C[C@@H]([C@H]1CO1)[C@H]1CO1	
InChI=1S/C6H10O2/c1-4(5-2-7-5)6-3-8-6/h4-6H,2-3H2,1H3	InChI=1S/C6H10O2/c1-4(5-2-7-5)6-3-8-6/h4-6H,2-3H2,1H3/t5-,6-/m1/s1
