16
gdb 67917	1.94608	1.7819	1.1485	5.5201	74.58	-0.2588	-0.0305	0.2282	1088.6314	0.123377	-400.758375	-400.750163	-400.749218	-400.791233	30.683	
C	-0.0056675105	 1.5362608141	 0.0531881186	-0.497922
C	-0.0092173039	 0.0360675041	 0.0419110599	 0.319795
C	-1.2731349115	-0.8418655038	-0.0664010134	-0.424049
C	-0.6408333402	-1.7617758594	 1.0097073868	 0.439294
O	-1.0720817458	-2.6445650165	 1.6897089507	-0.301267
C	 0.6272919171	-0.9505092198	 1.0571082185	-0.233692
C	 1.1894928202	-0.7774053553	-0.3590300884	-0.234188
C	 1.1446415354	-1.8166723696	-1.357231459	 0.304984
N	 1.0985788079	-2.635490547	-2.1727255138	-0.337135
H	 0.9794783614	 1.932126792	 0.3179420491	 0.130647
H	-0.272052498	 1.9326702451	-0.9327469803	 0.143074
H	-0.7325936617	 1.9213989293	 0.7756508124	 0.136494
H	-2.1682205312	-0.3584123814	 0.3355769119	 0.137802
H	-1.4989578367	-1.2756645653	-1.0433576241	 0.149546
H	 1.2692866797	-0.7813633153	 1.913456709	 0.122489
H	 2.1248021777	-0.2239111815	-0.3621611678	 0.144128
89.1058	145.6285	156.7966	214.1093	293.2373	329.0802	381.5011	462.8844	491.922	557.2648	599.4565	623.5517	673.7201	754.1716	851.0364	892.7136	946.8599	957.7412	970.0251	1022.3046	1077.798	1084.577	1104.4153	1144.8534	1202.1165	1217.7747	1267.8865	1314.9047	1416.582	1434.586	1465.2896	1484.4218	1496.505	1896.775	2354.4043	3033.7101	3066.9851	3098.5303	3109.5109	3124.3008	3152.2026	3194.8566
CC12CC(=O)C1C2C#N	C[C@]12CC(=O)[C@H]1[C@H]2C#N	
InChI=1S/C7H7NO/c1-7-2-5(9)6(7)4(7)3-8/h4,6H,2H2,1H3	InChI=1S/C7H7NO/c1-7-2-5(9)6(7)4(7)3-8/h4,6H,2H2,1H3/t4-,6-,7-/m1/s1
