21
gdb 100885	2.40492	1.00638	0.74656	0.797	81.23	-0.2597	0.0427	0.3024	1544.3347	0.178936	-424.186705	-424.175599	-424.174655	-424.223238	40.04	
C	 0.0949989568	 1.6257131124	 0.0814566382	-0.385292
C	-0.0039297498	 0.0990054062	 0.0173153055	-0.199581
C	 0.6696911355	-0.486909465	-1.2313347081	 0.135814
O	 2.0212336456	-0.0604263779	-1.3383616427	-0.422861
C	 0.5771527229	-2.0352599753	-1.2966784415	-0.231618
C	-0.8801475922	-2.5659676981	-1.3294131115	-0.063592
O	-0.9388022542	-3.9693057723	-1.4428273589	-0.421851
C	 1.2885231496	-2.5553520206	-2.4636825703	 0.315238
C	 1.7983816774	-3.0293887298	-3.4450745976	-0.450449
H	 1.1377330787	 1.9492151863	 0.0449211627	 0.129826
H	-0.4245877774	 2.0876062469	-0.7651789575	 0.117332
H	-0.3571738424	 2.0091550351	 1.0007558368	 0.111522
H	 0.4611469734	-0.3461308706	 0.9096129771	 0.088488
H	-1.057707696	-0.2001622533	 0.0401876	 0.107544
H	 0.1851816506	-0.0785626606	-2.1270838644	 0.097751
H	 2.5098762024	-0.4302854133	-0.5940027068	 0.278744
H	 1.0507616019	-2.4427092722	-0.3906233893	 0.101123
H	-1.385780713	-2.3176429826	-0.3932362948	 0.112618
H	-1.4196442772	-2.0656125875	-2.1500967561	 0.094524
H	-0.4149353579	-4.2112053677	-2.2171412281	 0.284878
H	 2.2873822151	-3.4188302502	-4.3038044326	 0.199842
48.7985	81.1994	119.9936	130.5609	164.5533	209.6143	237.0623	259.5151	277.6395	338.3815	383.5203	426.1636	444.0879	454.1251	551.0396	616.9048	633.8936	655.1064	780.4344	836.7493	889.533	985.501	1007.0616	1039.6448	1060.116	1077.0517	1097.9992	1117.3299	1141.5277	1208.1599	1225.5302	1268.2021	1313.572	1340.4495	1360.0143	1381.1448	1386.4679	1405.5231	1423.8189	1438.0664	1479.9605	1494.8105	1507.6555	1508.9359	2226.3942	2972.0431	2996.1726	3000.8028	3039.7223	3041.4759	3064.5207	3099.4767	3104.683	3128.724	3502.16	3767.1634	3792.859
CCC(O)C(CO)C#C	CC[C@@H](O)[C@@H](CO)C#C	
InChI=1S/C7H12O2/c1-3-6(5-8)7(9)4-2/h1,6-9H,4-5H2,2H3	InChI=1S/C7H12O2/c1-3-6(5-8)7(9)4-2/h1,6-9H,4-5H2,2H3/t6-,7-/m1/s1
