20
gdb 104827	1.85119	1.56269	1.33585	1.9536	76.1	-0.2628	0.0155	0.2783	1140.572	0.169187	-440.27473	-440.264953	-440.264009	-440.309411	35.294	
C	-0.096563133	 1.6141105309	-0.0607507536	-0.391259
C	-0.0556565137	 0.0839986968	-0.0548649294	-0.226898
C	-1.4432852784	-0.5584642495	 0.0128790638	 0.289458
C	-1.4223603727	-2.0778601537	 0.3617749756	-0.144218
O	-1.9626622884	-1.7820347498	 1.6865860905	-0.255427
C	-2.1124685748	-0.4437239306	 1.3918858436	 0.376081
N	-2.6255742813	 0.4863137258	 2.059042054	-0.547599
O	-2.1485297573	-0.1416659377	-1.1203192178	-0.28702
C	-3.5439939101	-0.392730879	-1.1405982471	-0.26393
H	 0.9176475263	 2.022812525	-0.0951944034	 0.107528
H	-0.6452483177	 1.9801710625	-0.9312376999	 0.132299
H	-0.5923141496	 1.9939472077	 0.8367670964	 0.145967
H	 0.430776637	-0.2889872692	-0.9647167877	 0.106465
H	 0.5338166838	-0.278794485	 0.7950989141	 0.105255
H	-2.1095505855	-2.7048221747	-0.2107590381	 0.121445
H	-0.4393276974	-2.5487476454	 0.4304635455	 0.120242
H	-2.9721669836	 0.1529388485	 2.9611987311	 0.228944
H	-3.774563671	-1.4672638593	-1.1157566167	 0.108292
H	-4.052733551	 0.1005518103	-0.3046663467	 0.141431
H	-3.9143445016	 0.0172375066	-2.082351474	 0.132944
96.801	102.5599	111.9204	153.5726	189.2253	203.0704	266.4996	282.504	332.3781	384.0581	479.9254	526.9502	670.8191	691.9588	760.0793	793.5491	868.1091	895.2984	948.716	972.9255	999.7567	1004.8921	1035.9547	1120.8534	1129.7954	1150.5371	1179.991	1185.7083	1230.4637	1236.8838	1250.0112	1310.6821	1368.7214	1372.4147	1410.1891	1475.0257	1480.15	1488.455	1495.2281	1507.5946	1512.1597	1516.4603	1812.4383	2999.912	3029.3086	3049.2308	3064.8932	3070.2356	3073.2281	3118.8018	3126.2084	3128.4441	3135.073	3463.7946
CCC1(COC1=N)OC	CC[C@]1(CO[C]1[NH])OC	
InChI=1S/C6H11NO2/c1-3-6(8-2)4-9-5(6)7/h7H,3-4H2,1-2H3	InChI=1S/C6H11NO2/c1-3-6(8-2)4-9-5(6)7/h7H,3-4H2,1-2H3/t6-/m1/s1
