19
gdb 114682	3.24373	1.36069	1.30121	2.6912	74.5	-0.2368	0.0006	0.2374	1054.3072	0.1618	-423.017606	-423.010287	-423.009342	-423.049308	29.823	
O	-0.0063500273	 1.4540523783	-0.0658132377	-0.424446
C	 0.0761714662	 0.05342752	 0.1242361272	-0.079108
C	-1.3078120621	-0.5795493151	 0.0612001191	 0.12599
O	-1.9195146136	-0.2252944677	-1.1976884036	-0.315549
C	-2.3751366035	-1.4814250428	-1.793981422	 0.068629
C	-2.8201793846	-2.2658187063	-0.5515960125	-0.223992
C	-1.4054641362	-2.1404563831	 0.0813109823	-0.117094
C	-0.5523335482	-2.6540356587	-1.0674232735	-0.079408
C	-1.1366823512	-2.2627055524	-2.205966094	-0.076685
H	-0.5239141116	 1.5748502764	-0.8713020023	 0.290053
H	 0.7317982199	-0.4138064424	-0.6246539758	 0.086265
H	 0.5185838407	-0.1069446355	 1.1142179618	 0.098673
H	-1.9228460934	-0.1614177954	 0.870181328	 0.081054
H	-3.1084254225	-1.2386116197	-2.5607414785	 0.077283
H	-3.6092612396	-1.7597102375	 0.0114153186	 0.103814
H	-3.0979941743	-3.2993918492	-0.7620725346	 0.105606
H	-1.2441038482	-2.5857583018	 1.0623481778	 0.072109
H	 0.4026565732	-3.1509638037	-0.9526968271	 0.104178
H	-0.7628873937	-2.3614460934	-3.2166207933	 0.102627
102.4652	170.9958	207.1391	363.0442	444.4289	464.6764	483.6919	507.3553	511.6903	678.2287	754.5026	796.504	824.1751	836.6001	871.3428	895.1622	923.6259	943.6722	963.6669	975.4442	982.0544	1018.4867	1048.5848	1081.8981	1109.2149	1126.8434	1144.2079	1191.5433	1227.0118	1250.3972	1272.5165	1283.1241	1297.1955	1322.3769	1354.6731	1363.654	1403.5629	1440.4256	1489.3577	1500.4552	1634.3107	2996.9167	3009.7667	3066.6523	3067.5247	3124.8778	3135.3877	3141.326	3202.3892	3228.6477	3788.3909
OCC1OC2CC1C=C2	OC[C@H]1O[C@@H]2C[C@H]1C=C2	
InChI=1S/C7H10O2/c8-4-7-5-1-2-6(3-5)9-7/h1-2,5-8H,3-4H2	InChI=1S/C7H10O2/c8-4-7-5-1-2-6(3-5)9-7/h1-2,5-8H,3-4H2/t5-,6+,7-/m1/s1
