21
gdb 122591	3.665	0.7713	0.6715	2.6948	81.22	-0.2308	0.0243	0.255	1717.7406	0.182616	-420.394178	-420.384425	-420.383481	-420.429882	34.922	
C	-0.2666434918	 1.4969369734	-0.1521616659	-0.380073
C	 0.0845425224	 0.0122602494	-0.0290059342	-0.182328
C	 0.6943964009	-0.5551424163	-1.3093719921	-0.117203
N	 1.0020820308	-1.9804083444	-1.1550795651	-0.312881
C	 1.5599362713	-2.5814082364	-2.3494745316	-0.106865
C	 1.7248077952	-4.1152229387	-2.2993686637	-0.108197
O	 0.753874022	-4.2658024237	-3.3820594646	-0.250517
C	 0.5430457158	-2.9053982478	-3.4371836376	 0.468876
N	-0.2321365787	-2.2256948	-4.1499930181	-0.545783
H	 0.620417521	 2.0996129247	-0.3765750852	 0.114168
H	-0.9920544032	 1.6653115827	-0.9553546677	 0.122073
H	-0.7021265504	 1.879286912	 0.7758081131	 0.113245
H	 0.789277544	-0.1302623326	 0.80266582	 0.085412
H	-0.8086501758	-0.5711964963	 0.2211438502	 0.110405
H	-0.0137898873	-0.4594973969	-2.139012922	 0.145328
H	 1.5876678425	 0.0358984128	-1.5896363879	 0.072725
H	 1.663478554	-2.0974042002	-0.3916594086	 0.214769
H	 2.4426735207	-2.0574563474	-2.7548031637	 0.085525
H	 2.6978161229	-4.5189277478	-2.5878051072	 0.118631
H	 1.3593756241	-4.579081794	-1.3804166279	 0.124369
H	-0.7915772503	-2.8195703426	-4.7651349103	 0.228323
58.8468	77.5199	89.6484	140.4858	163.3699	231.285	250.4741	305.1312	366.9782	430.9077	492.9879	682.205	736.6773	762.7631	794.6045	842.3152	870.7614	899.741	904.5027	958.3279	975.2502	1020.0732	1037.3862	1072.111	1089.2409	1148.8561	1161.2872	1174.7243	1190.4855	1236.3045	1248.8393	1281.0795	1323.4701	1329.1714	1343.72	1387.3567	1412.8492	1415.5636	1487.479	1491.4359	1500.2563	1504.8639	1506.6379	1523.9192	1824.8923	2916.8107	2950.4029	3008.7869	3032.519	3061.1979	3066.0182	3080.4644	3100.3431	3106.1642	3130.3275	3470.6902	3488.6022
CCCNC1COC1=N	CCCN[C@H]1CO[C]1[NH]	
InChI=1S/C6H12N2O/c1-2-3-8-5-4-9-6(5)7/h5,7-8H,2-4H2,1H3	InChI=1S/C6H12N2O/c1-2-3-8-5-4-9-6(5)7/h5,7-8H,2-4H2,1H3/t5-/m0/s1
