15
gdb 50306	3.29143	1.46269	1.1079	5.3929	68.36	-0.2435	-0.0279	0.2156	1051.0262	0.11355	-453.950702	-453.943136	-453.942191	-453.983265	27.648	
N	 0.0717544719	 1.2852308785	 0.1396408586	-0.413385
C	-0.0362854796	 0.0240953011	 0.0817286238	 0.090442
N	-1.2479045897	-0.655817558	-0.0135045656	-0.123879
C	-1.2511625267	-2.1213948244	-0.0917975501	-0.207923
C	-2.7157713216	-2.4909943976	 0.0284397748	 0.028372
O	-3.2988413887	-2.0286853635	 1.2411083751	-0.239767
C	-3.5012864373	-1.2540546263	 0.0442481406	-0.098291
C	-2.5365701676	-0.0908073524	-0.0470365989	 0.457588
O	-2.8231095874	 1.0714392664	-0.1455087194	-0.330679
H	 1.0556637231	 1.5406170125	 0.2103533539	 0.231039
H	 0.8022212005	-0.6848175821	 0.099682118	 0.092823
H	-0.8429322077	-2.4656513943	-1.0504466787	 0.127261
H	-0.6594653879	-2.5625766202	 0.7178012087	 0.137761
H	-3.081248047	-3.4351179008	-0.3618831603	 0.119663
H	-4.5217970742	-1.1363977789	-0.3008758003	 0.128975
73.1961	130.4562	185.2993	226.6625	288.3752	382.0966	447.352	505.6585	634.962	711.333	771.6485	783.2716	823.685	846.1018	877.3493	946.2951	992.2332	1059.4101	1066.652	1094.2603	1117.4716	1189.1693	1217.9176	1239.0512	1249.4821	1310.8347	1320.035	1415.3169	1424.7907	1440.5928	1506.1534	1721.479	1853.8245	3019.3227	3028.9841	3071.2592	3174.6909	3198.7757	3497.368
N=CN1CC2OC2C1=O	[NH][CH]N1C[C@H]2O[C@H]2C1=O	
InChI=1S/C5H6N2O2/c6-2-7-1-3-4(9-3)5(7)8/h2-4,6H,1H2	InChI=1S/C5H6N2O2/c6-2-7-1-3-4(9-3)5(7)8/h2-4,6H,1H2/t3-,4-/m1/s1
