15
gdb 44723	2.61873	1.71944	1.20503	6.0868	69.68	-0.2603	-0.0279	0.2324	1000.1291	0.113372	-416.802587	-416.79514	-416.794195	-416.834962	27.726	
O	-0.2241510853	 0.0356209229	 0.3369427592	-0.291754
C	-0.1774847878	 1.1967098986	 0.0758340974	 0.398732
C	-1.1986639887	 2.3220335904	-0.2124298555	-0.381331
C	 0.005338239	 3.2750952712	-0.0579980218	 0.027328
C	 0.4518149565	 3.7139586282	 1.3625240872	-0.274093
C	 1.5415041118	 2.5884520232	 1.2931032931	-0.124926
C	 1.618955983	 1.6502154068	 2.4043786807	 0.301039
N	 1.6853856727	 0.9524625025	 3.3230515211	-0.310136
N	 0.9432173694	 2.0923883177	 0.0028074677	-0.157886
H	-1.648550105	 2.2958014722	-1.2078437447	 0.146566
H	-1.990614351	 2.3931229429	 0.536418598	 0.147617
H	 0.1854158138	 3.9897859509	-0.8618042905	 0.100637
H	 0.8434911856	 4.7270474082	 1.4574970284	 0.132437
H	-0.2956097467	 3.5418913428	 2.1396133065	 0.13984
H	 2.5437784427	 2.9823773714	 1.1023016532	 0.145931
74.8281	111.7456	200.0633	264.5964	336.8118	462.0235	485.813	529.4477	551.5997	635.5236	731.8251	756.5598	847.7574	869.5245	903.9575	976.448	1000.1369	1023.7379	1065.0266	1070.9185	1089.463	1124.444	1176.104	1212.5946	1230.0907	1260.6527	1270.481	1333.7935	1363.7032	1441.6216	1483.9154	1905.1173	2359.9964	3070.0301	3076.1164	3082.8797	3105.1804	3133.7237	3146.4786
O=C1CC2CC(C#N)N12	O=C1C[C@H]2C[C@@H](C#N)N12	
InChI=1S/C6H6N2O/c7-3-5-1-4-2-6(9)8(4)5/h4-5H,1-2H2	InChI=1S/C6H6N2O/c7-3-5-1-4-2-6(9)8(4)5/h4-5H,1-2H2/t4-,5+/m1/s1
