21
gdb 78559	2.71608	1.45511	1.15645	1.0215	84.11	-0.2323	0.0763	0.3087	1156.2124	0.182115	-383.19943	-383.190586	-383.189642	-383.232329	34.601	
C	-0.0698853182	 1.524647205	 0.01356413	-0.333567
N	 0.1234125461	 0.0817480852	 0.1006641801	-0.11783
C	 1.401240254	-0.5536488903	-0.1714382706	-0.204893
C	 2.5714111322	 0.2498083932	 0.3711349365	 0.367048
C	 3.9899242991	 0.0968548755	-0.0069009382	-0.317125
N	 3.2750502826	 1.3657815123	-0.2627418203	-0.364399
C	 1.9530480897	 0.2660451591	 1.7797045722	-0.37124
C	 0.7772337779	-0.5715133431	 1.2150535408	 0.33128
C	 0.0687065058	-1.6644214008	 1.9589395771	-0.483687
H	 0.7936940627	 2.1297873124	 0.3174770053	 0.132079
H	-0.3137388195	 1.7781538606	-1.0233442197	 0.118623
H	-0.9272762787	 1.8018042941	 0.635140604	 0.120107
H	 1.4513870072	-1.3239437945	-0.9363264344	 0.08578
H	 4.766026113	 0.1560531747	 0.7518862015	 0.117949
H	 4.2302769216	-0.5479936138	-0.8496445572	 0.110869
H	 3.0200737238	 1.4285383043	-1.2459792035	 0.230115
H	 2.5505043578	-0.2924259091	 2.5052363902	 0.106748
H	 1.7054015496	 1.2443640663	 2.2008319783	 0.105085
H	-0.556818846	-1.2509215363	 2.7594187141	 0.120737
H	-0.5804542221	-2.2267636141	 1.2829802362	 0.130323
H	 0.7828788113	-2.3549272508	 2.4203436875	 0.115996
113.5922	178.2216	197.1125	211.4148	242.0992	265.8262	318.1805	362.7407	400.9	480.4236	497.5955	605.6584	686.5132	719.324	813.6046	844.7288	890.3644	915.6735	935.4938	957.2577	967.1877	985.5866	1013.9255	1049.9842	1107.1023	1115.7	1141.9639	1148.1714	1160.6888	1183.6512	1205.6646	1229.2677	1244.4494	1270.2944	1287.7683	1398.0642	1414.2783	1432.1043	1455.2728	1481.5088	1484.5484	1492.9687	1495.3271	1512.9401	1514.9766	3017.9695	3026.7568	3056.782	3082.4759	3085.2114	3097.1071	3099.9596	3107.2393	3120.2117	3146.0448	3181.0701	3488.264
CN1C2C3(CN3)CC12C	CN1[C@H]2[C@]3(CN3)C[C@@]12C	
InChI=1S/C7H12N2/c1-6-3-7(4-8-7)5(6)9(6)2/h5,8H,3-4H2,1-2H3	InChI=1S/C7H12N2/c1-6-3-7(4-8-7)5(6)9(6)2/h5,8H,3-4H2,1-2H3/t5-,6-,7-,9?/m1/s1
