16
gdb 42985	2.79426	1.71289	1.27774	4.1359	68.74	-0.2377	-0.0343	0.2034	981.0774	0.125067	-437.858468	-437.851208	-437.850264	-437.890339	28.112	
O	 0.0969613593	 0.0652595357	 0.2264660578	-0.324206
C	 0.0205150468	 1.2555353977	 0.0688731566	 0.394072
C	-1.2078062675	 2.0661767124	-0.2232559574	-0.176448
N	-1.3104507121	 3.2208905677	 0.7250254124	-0.331617
C	-0.7683576832	 3.4374755238	-0.6182417235	-0.045576
C	 0.7532279239	 3.5202654617	-0.6161885404	-0.318927
C	 1.1946042608	 2.2312929991	 0.0699321026	 0.327486
C	 2.2315869558	 2.117966688	 1.1091540854	-0.221397
O	 2.4766044992	 1.6893820556	-0.2251343916	-0.264347
H	-2.1066748632	 1.584709338	-0.5876286915	 0.113495
H	-2.286388238	 3.5084333658	 0.7542286019	 0.244326
H	-1.3391229111	 4.016269438	-1.3365751964	 0.102718
H	 1.1347319536	 3.52582295	-1.6431536762	 0.126864
H	 1.1134825131	 4.4206811006	-0.1112995281	 0.120102
H	 2.757217835	 3.0187876798	 1.4234005862	 0.119721
H	 2.1561373874	 1.320956526	 1.8466858222	 0.133732
74.418	192.5972	258.9902	275.0145	365.8344	373.4662	453.0169	571.542	604.8241	689.3201	774.0463	804.8625	852.7749	872.7454	887.5668	901.0353	945.7084	953.9332	1004.0188	1050.0993	1105.3532	1122.5069	1133.7847	1160.3483	1171.044	1201.0713	1231.3723	1255.8873	1312.7367	1355.3152	1401.2031	1415.2456	1478.2207	1514.387	1851.7853	3050.8907	3084.0789	3099.4645	3170.201	3180.2378	3199.8779	3497.3901
O=C1C2NC2CC11CO1	O=C1[C@H]2N[C@H]2C[C@]21CO2	
InChI=1S/C6H7NO2/c8-5-4-3(7-4)1-6(5)2-9-6/h3-4,7H,1-2H2	InChI=1S/C6H7NO2/c8-5-4-3(7-4)1-6(5)2-9-6/h3-4,7H,1-2H2/t3-,4-,6+/m0/s1
