20
gdb 9147	4.56354	0.7882	0.71176	0.9817	82.04	-0.241	0.0477	0.2887	1672.1924	0.173831	-348.972471	-348.96196	-348.961015	-349.010481	35.609	
C	 0.1299985488	 1.4833938311	-0.2600825854	-0.364039
C	-0.0203990777	 0.0606591121	 0.3085174241	-0.31644
C	-1.3877957584	-0.4442140919	 0.2422598945	 0.11938
C	-2.5264551459	-0.8321198973	 0.1876497265	 0.034436
C	-3.8956123343	-1.338581	 0.0966753562	-0.038091
C	-3.9121565476	-2.845413924	-0.2106071492	-0.389477
O	-4.5603507217	-1.0395946103	 1.322944803	-0.2409
C	-5.9657128718	-1.0248415379	 1.2264908501	-0.229251
H	 1.1691521425	 1.8173678769	-0.1837306033	 0.113157
H	-0.1656506467	 1.5146994355	-1.3123301097	 0.126247
H	-0.5007146281	 2.1883954378	 0.2880118157	 0.130244
H	 0.6464730508	-0.623657866	-0.2317969205	 0.127565
H	 0.3173263306	 0.0451913654	 1.352758013	 0.132116
H	-4.4110034815	-0.8072308137	-0.7225463647	 0.086818
H	-4.9375021819	-3.212260069	-0.3115923104	 0.114049
H	-3.3835781063	-3.045547903	-1.1466150975	 0.124222
H	-3.417705756	-3.3925452104	 0.5957969609	 0.133004
H	-6.3467577289	-0.6992386534	 2.1975710639	 0.128735
H	-6.313891082	-0.3187535121	 0.4556952645	 0.103358
H	-6.390722704	-2.0144236298	 1.0022120484	 0.104868
8.3404	55.018	93.554	105.9686	186.6146	204.9456	220.2595	238.6694	325.691	354.978	390.8986	491.5657	520.6753	549.1275	744.6773	783.9692	848.1292	940.0814	1010.4702	1062.5483	1080.6927	1102.1044	1104.2442	1132.5773	1179.5952	1189.0072	1217.9952	1286.302	1345.1137	1351.226	1373.6514	1395.4639	1408.4339	1473.036	1474.7976	1481.3909	1490.076	1494.5126	1498.29	1505.311	1511.3029	2369.3138	2945.3817	2972.999	3020.0066	3020.1713	3043.9225	3046.9334	3047.2932	3112.4459	3116.8808	3119.5296	3124.0307	3132.8345
CCC#CC(C)OC	CCC#C[C@@H](C)OC	
InChI=1S/C7H12O/c1-4-5-6-7(2)8-3/h7H,4H2,1-3H3	InChI=1S/C7H12O/c1-4-5-6-7(2)8-3/h7H,4H2,1-3H3/t7-/m1/s1
