20
gdb 13870	3.96942	1.28319	1.22162	1.3313	77.49	-0.2275	0.0292	0.2567	1108.1541	0.177189	-349.02239	-349.01376	-349.012816	-349.055677	32.093	
C	-0.0020591903	 1.5589007115	 0.049533154	-0.408216
C	-0.0440050405	 0.0245077747	 0.0307253103	 0.012588
O	 0.562362184	-0.4873801941	-1.1586451	-0.439443
C	 0.6930728463	-0.5801753661	 1.1910386396	 0.389519
C	 0.1469067519	-1.1879886085	 2.2448401913	-0.195758
C	 1.1783035127	-1.7004394086	 3.2204846064	-0.244412
C	 2.4857096746	-1.0240702252	 2.7307476232	-0.210379
C	 2.2078221902	-0.5984393017	 1.2671729554	-0.292702
H	 1.029434113	 1.9203317337	 0.0071249481	 0.126504
H	-0.5432944489	 1.968006671	-0.8125135358	 0.10216
H	-0.4734796859	 1.9485491429	 0.9566289982	 0.121799
H	-1.097899547	-0.2930714498	 0.0836877895	 0.064445
H	 0.1765530052	-0.0218974644	-1.9076212422	 0.280018
H	-0.91836616	-1.3467195057	 2.3808471914	 0.08077
H	 0.9442616525	-1.4553915855	 4.2630088445	 0.098168
H	 1.2403117235	-2.7973832185	 3.1725401849	 0.104461
H	 2.680044702	-0.1335050067	 3.337296427	 0.100676
H	 3.3599674459	-1.6732899988	 2.8246374036	 0.09472
H	 2.6041267329	-1.3184076942	 0.5402066132	 0.118556
H	 2.6655236879	 0.3651789342	 1.0175208376	 0.096527
58.3813	115.	164.5577	208.2588	252.0504	274.6078	315.3862	359.8948	498.4052	542.4755	626.8064	660.6953	813.7428	839.8988	869.0097	900.4265	906.6672	921.2704	956.8123	1004.4801	1038.2436	1061.6168	1087.3923	1119.2472	1151.5982	1159.2002	1225.268	1227.9434	1251.1191	1293.4109	1321.2544	1327.7651	1357.7121	1371.5764	1398.699	1420.5773	1482.768	1486.8173	1491.2242	1498.6466	1507.8221	1723.592	2965.7042	3001.7841	3025.1833	3029.4296	3040.0076	3052.5037	3062.9331	3094.5247	3098.7038	3121.0894	3177.9222	3814.7467
CC(O)C1=CCCC1	C[C@@H](O)C1=CCCC1	
InChI=1S/C7H12O/c1-6(8)7-4-2-3-5-7/h4,6,8H,2-3,5H2,1H3	InChI=1S/C7H12O/c1-6(8)7-4-2-3-5-7/h4,6,8H,2-3,5H2,1H3/t6-/m1/s1
