18
gdb 43105	2.8142	1.84537	1.425	2.664	73.9	-0.2328	-0.0272	0.2056	946.3211	0.15039	-401.937871	-401.930934	-401.92999	-401.969636	27.417	
O	 0.0006175663	 0.0151860341	-0.0799346191	-0.300934
C	-0.0232114207	 1.2098099479	-0.0325561866	 0.403685
C	-1.118629665	 2.2757789736	-0.0301225805	-0.112106
C	-1.4727380016	 2.826146705	 1.3792660479	-0.282056
C	-0.3371527906	 3.8708892854	 1.1750375881	 0.034583
C	 0.9444997124	 3.732036969	 1.9958745676	-0.219815
C	 1.713240718	 2.5398224582	 1.3708225188	-0.248172
C	 1.0443515583	 2.3195001232	-0.009358799	-0.117777
N	-0.0461228691	 3.346172934	-0.2107897467	-0.144035
H	-1.9209073511	 2.1871923881	-0.7657466185	 0.100172
H	-2.4717461154	 3.2617733526	 1.4321664931	 0.120544
H	-1.3577038834	 2.1247984657	 2.2100078711	 0.11608
H	-0.6984014193	 4.9020149265	 1.1531336166	 0.081386
H	 1.5339431305	 4.6495843758	 1.9029288729	 0.113494
H	 0.7374264071	 3.5870685074	 3.060277507	 0.109972
H	 2.778310865	 2.7574143051	 1.2680311215	 0.116299
H	 1.6329409227	 1.6357638867	 1.9812182746	 0.123561
H	 1.758622366	 2.2775422118	-0.8358663488	 0.105117
60.418	167.8279	216.0389	325.1501	439.2895	539.3099	618.2804	675.253	698.5589	735.9632	782.7944	823.7728	828.2411	893.1006	918.108	929.1638	956.8523	974.4814	1010.7082	1026.6441	1069.4331	1092.0115	1101.5747	1129.2822	1164.3027	1180.7261	1208.8513	1218.1335	1247.2868	1268.5885	1282.3118	1298.1252	1312.7191	1335.7183	1368.5941	1482.4622	1486.5048	1510.6354	1895.254	3049.3329	3062.5439	3064.7444	3071.0843	3074.9455	3090.4149	3091.975	3111.5613	3124.3094
O=C1C2CC3CCC1N23	O=C1[C@H]2C[C@H]3CC[C@@H]1N23	
InChI=1S/C7H9NO/c9-7-5-2-1-4-3-6(7)8(4)5/h4-6H,1-3H2	InChI=1S/C7H9NO/c9-7-5-2-1-4-3-6(7)8(4)5/h4-6H,1-3H2/t4-,5+,6-/m1/s1
