17
gdb 42949	2.5745	1.9381	1.37751	4.1302	71.02	-0.2331	-0.0321	0.2009	946.4289	0.138041	-421.813409	-421.806558	-421.805614	-421.844684	27.306	
O	-0.0101257429	 0.0368861701	 0.1248327247	-0.321397
C	-0.0575792413	 1.2377724061	 0.0330274067	 0.411272
C	-1.2888595538	 2.0773392932	-0.0973652885	-0.153033
C	-1.4131513716	 3.2181137805	 0.9048090319	-0.296868
C	-0.850570587	 3.4946863472	-0.4540427405	-0.060053
C	 0.6760942191	 3.5315384293	-0.6027251582	-0.078874
C	 1.4789293163	 4.0869679985	 0.590463182	-0.094391
O	 1.6435690477	 2.752988934	 1.1367564119	-0.294714
C	 1.1736726645	 2.1610387177	-0.1045532176	 0.003059
H	-2.188180955	 1.6084137816	-0.4759465495	 0.109057
H	-2.4240398333	 3.5542024543	 1.1066542511	 0.125647
H	-0.7574826507	 3.2095934842	 1.7671779369	 0.149938
H	-1.44399882	 4.0832527689	-1.1435722766	 0.09843
H	 0.9777665191	 3.8565326118	-1.5986045734	 0.0858
H	 2.4481281603	 4.5215874937	 0.3164130794	 0.107789
H	 0.9572390932	 4.7573422981	 1.2809414746	 0.111472
H	 1.9800323355	 1.6542715508	-0.6453177249	 0.096866
109.1427	203.1787	245.9427	292.3849	430.2698	469.883	558.8804	601.9943	705.1211	774.0703	795.4357	833.1477	869.2252	878.0977	902.1565	944.094	975.8685	999.0124	1013.7693	1033.9351	1070.9636	1097.0025	1106.2143	1110.7312	1165.9628	1193.6417	1203.314	1230.9498	1243.2916	1296.7874	1317.5257	1336.8899	1347.0032	1378.5346	1483.7211	1519.197	1833.9988	3022.8575	3055.7466	3079.9219	3109.1802	3142.7047	3179.5611	3199.0136	3232.776
O=C1C2CC2C2COC12	O=C1[C@H]2C[C@H]2[C@H]2CO[C@@H]12	
InChI=1S/C7H8O2/c8-6-4-1-3(4)5-2-9-7(5)6/h3-5,7H,1-2H2	InChI=1S/C7H8O2/c8-6-4-1-3(4)5-2-9-7(5)6/h3-5,7H,1-2H2/t3-,4+,5-,7-/m1/s1
