19
gdb 38746	2.4815	2.2599	1.83651	1.8799	77.39	-0.2303	0.0048	0.2352	860.4383	0.164011	-385.897188	-385.891105	-385.890161	-385.927156	26.781	
C	-0.0054146404	 1.5573608386	-0.0042190129	-0.230064
C	 1.4833925708	 1.9668125738	-0.000227035	 0.122968
O	 2.0574650665	 1.9942184343	 1.3237746324	-0.305607
C	 2.4981791294	 0.6048554042	 1.184647877	 0.059484
C	 1.5654684991	-0.3244657498	 1.9126662307	-0.056624
C	 0.3609029084	-0.5630041735	 1.3890736321	-0.069977
C	 0.0126354746	-0.0036170909	 0.0247424949	-0.073686
C	 1.2188039107	-0.3147252552	-0.900931306	-0.228626
C	 2.2473154532	 0.6684326797	-0.3598639076	-0.076777
H	-0.5430482709	 2.0006190013	 0.8367444455	 0.110852
H	-0.4790580672	 1.897377941	-0.9330062341	 0.092577
H	 1.6850354994	 2.8938596007	-0.5444243437	 0.071487
H	 3.537349871	 0.5005647191	 1.5093266792	 0.071019
H	 1.8665610256	-0.7305962762	 2.8733312399	 0.089458
H	-0.3686669299	-1.1790769241	 1.9069731061	 0.091352
H	-0.9272614696	-0.4239548746	-0.3395080304	 0.063805
H	 1.5320060063	-1.3607318072	-0.8455402296	 0.10051
H	 0.9841992934	-0.0780657616	-1.9460025313	 0.094722
H	 3.1609379296	 0.7777655704	-0.9436129275	 0.073127
239.0412	315.0917	387.0145	417.7587	485.8308	542.5599	622.4569	663.8079	735.865	792.0253	813.0062	821.4513	851.3388	897.5656	900.8803	932.4858	949.7557	961.0066	981.7123	997.2717	1017.8011	1049.1163	1060.9704	1088.9107	1129.6873	1148.258	1180.4623	1214.0126	1227.242	1255.8843	1273.6812	1301.792	1324.4946	1331.2156	1349.8754	1359.4458	1372.1881	1405.0406	1467.3349	1487.2619	1692.7618	3031.7987	3036.257	3062.4535	3066.337	3083.1234	3095.6794	3111.8781	3116.5847	3158.9462	3183.9021
C1C2OC3C=CC1CC23	C1[C@H]2O[C@H]3C=C[C@@H]1C[C@@H]23	
InChI=1S/C8H10O/c1-2-7-6-3-5(1)4-8(6)9-7/h1-2,5-8H,3-4H2	InChI=1S/C8H10O/c1-2-7-6-3-5(1)4-8(6)9-7/h1-2,5-8H,3-4H2/t5-,6-,7+,8-/m1/s1
