18
gdb 128517	2.15096	1.78371	1.01957	2.0221	76.16	-0.1985	0.0362	0.2347	1165.1363	0.148049	-435.264278	-435.254576	-435.253632	-435.299662	33.641	
C	 0.1832108504	 1.4129908326	-0.2011245665	-0.259667
O	-0.296758905	 0.1444833432	 0.2649211424	-0.280935
C	 0.5218682576	-0.4957326692	 1.1268836644	 0.416043
C	 1.8726070932	-0.8173936715	 1.0893455055	 0.004539
N	 2.7965880397	-0.4456334168	 0.0755672464	-0.616036
C	 2.0718109556	-1.5431529947	 2.2834569366	-0.046652
N	 0.954282263	-1.6720661245	 2.9944049959	-0.289939
N	 0.0126914648	-1.0251696125	 2.272183203	-0.024193
C	-1.367899315	-1.0211265896	 2.6992367584	-0.323217
H	 1.1730801809	 1.3130144376	-0.6538837638	 0.15499
H	-0.5426272177	 1.7573626555	-0.9395926554	 0.129042
H	 0.2357698947	 2.1306151921	 0.6261307108	 0.121114
H	 2.7163791391	-1.0423370285	-0.742450768	 0.243097
H	 3.7490626694	-0.5272064965	 0.4123321564	 0.23971
H	 2.9954683884	-1.9684685438	 2.6522344986	 0.099137
H	-1.4043618322	-0.8457087498	 3.775819352	 0.14799
H	-1.8942341007	-0.2254378431	 2.1711435253	 0.146484
H	-1.8539215761	-1.9777622805	 2.478875178	 0.138492
45.9274	68.9352	134.6246	154.6316	170.8168	203.821	276.1685	297.9414	306.8087	409.7235	530.7717	593.2243	658.2207	695.2742	733.4571	786.859	851.3249	866.1523	1009.695	1042.6419	1107.562	1146.834	1153.1337	1183.98	1216.1618	1235.694	1273.722	1333.7584	1408.4397	1434.0068	1449.2442	1465.5956	1484.4164	1488.3221	1509.4109	1514.7644	1555.9391	1631.4926	1662.1054	3026.5982	3042.5382	3105.5068	3116.6916	3144.5278	3160.223	3225.6451	3493.0139	3579.8488
COC1=C(N)C=NN1C	COc1c(N)cnn1C	
InChI=1S/C5H9N3O/c1-8-5(9-2)4(6)3-7-8/h3H,6H2,1-2H3	InChI=1S/C5H9N3O/c1-8-5(9-2)4(6)3-7-8/h3H,6H2,1-2H3
