17
gdb 35799	3.74336	1.20813	1.01749	3.4519	72.14	-0.2313	0.0177	0.249	1148.0071	0.137979	-417.98362	-417.975922	-417.974978	-418.015971	29.616	
N	 0.074934512	-1.1483286679	 0.0715044292	-0.310972
C	 0.0374575635	 0.0054078642	 0.0259567581	 0.263837
C	-0.0207595326	 1.4675247798	 0.0172757111	-0.111556
C	-0.8012025962	 1.9833613245	 1.2461065759	-0.090431
O	-0.9380558597	 3.3868717815	 1.1682649005	-0.252086
C	 0.227617247	 4.1016785297	 0.867503913	 0.126831
C	 1.513963615	 3.9509765501	 1.6282647635	-0.344254
C	 1.4028184044	 3.4422668507	 0.1907873989	-0.038695
N	 1.3324063862	 2.0230444791	-0.0680159552	-0.321168
H	-0.5806445852	 1.781010413	-0.8745950314	 0.140586
H	-1.8161204225	 1.5785041514	 1.2671993485	 0.133393
H	-0.2839351177	 1.6720169192	 2.1663454314	 0.10679
H	-0.0508915967	 5.0975936287	 0.5424443002	 0.114631
H	 2.096621505	 4.845014735	 1.8211285843	 0.121863
H	 1.5762559799	 3.1977293178	 2.406335415	 0.120488
H	 1.9226566682	 4.0093239068	-0.5779217463	 0.103088
H	 1.9738652997	 1.4972405566	 0.5131962935	 0.237656
82.165	155.029	182.0017	290.0847	341.8628	389.9111	442.2405	501.6569	540.9137	556.387	666.8582	701.0337	753.7661	818.4053	860.4037	928.5923	973.9911	991.9551	1022.5913	1057.5883	1062.4266	1087.1602	1129.099	1152.7053	1174.172	1215.6003	1259.5883	1271.9183	1303.5068	1339.833	1369.4013	1386.8703	1420.7305	1471.6869	1481.9165	1499.7826	2364.2525	2993.077	3022.4688	3101.4677	3121.4985	3134.04	3178.0445	3221.909	3545.0814
N#CC1COC2CC2N1	N#C[C@H]1CO[C@H]2C[C@H]2N1	
InChI=1S/C6H8N2O/c7-2-4-3-9-6-1-5(6)8-4/h4-6,8H,1,3H2	InChI=1S/C6H8N2O/c7-2-4-3-9-6-1-5(6)8-4/h4-6,8H,1,3H2/t4-,5+,6-/m0/s1
