17
gdb 42661	2.56469	1.89102	1.7324	2.8727	70.78	-0.2369	-0.0119	0.225	880.358	0.139157	-421.845294	-421.838747	-421.837802	-421.87623	26.535	
O	-0.0376234733	 0.045203846	-0.0896150423	-0.348847
C	-0.056233123	 1.2475195459	 0.0016599054	 0.450633
C	-1.2410017359	 2.1385421517	 0.1191311409	-0.227784
C	-0.7282590292	 3.4245514495	 0.8136072172	-0.108665
C	 0.7589461452	 3.2234941803	 1.1016768544	-0.233359
C	 1.1553918589	 2.1948856013	 0.024644838	-0.196055
C	 1.1805609508	 2.8972760159	-1.3465398005	-0.073652
O	-0.0394447317	 3.5975542756	-1.6025565839	-0.270547
C	-1.0385963223	 3.4550614956	-0.6379219494	 0.1337
H	-2.2310917157	 1.7254834764	 0.2606876184	 0.105806
H	-1.3561922363	 3.9531196311	 1.5215157177	 0.098819
H	 1.3270730189	 4.156811245	 1.0234500804	 0.109585
H	 0.9085530925	 2.8164548419	 2.1067458162	 0.114697
H	 2.0914515209	 1.6655581465	 0.2025033686	 0.096839
H	 2.0030679552	 3.6231118841	-1.3777522304	 0.110706
H	 1.3364305961	 2.169999022	-2.1537642049	 0.119492
H	-1.9410401711	 3.9536258611	-0.9721912058	 0.118632
113.3031	169.9068	336.1468	440.0339	455.0296	494.736	584.5061	635.5582	706.4486	748.2251	787.679	830.6439	849.0669	884.3476	899.8029	930.8288	949.5713	999.8751	1048.5531	1054.63	1078.0488	1094.7231	1102.9713	1149.5018	1195.4395	1206.3779	1221.5	1263.4422	1299.1422	1306.0288	1331.0985	1346.2988	1398.0074	1433.8126	1500.9459	1520.2157	1840.4625	3011.94	3041.2484	3048.8723	3084.7907	3120.96	3175.2299	3186.1969	3206.5742
O=C1C2C3CC1COC23	O=C1[C@H]2[C@H]3C[C@@H]1CO[C@@H]23	
InChI=1S/C7H8O2/c8-6-3-1-4-5(6)7(4)9-2-3/h3-5,7H,1-2H2	InChI=1S/C7H8O2/c8-6-3-1-4-5(6)7(4)9-2-3/h3-5,7H,1-2H2/t3-,4-,5-,7-/m1/s1
