19
gdb 40991	3.8633	1.5337	1.45694	1.5005	79.76	-0.2279	0.0815	0.3095	965.1401	0.16151	-385.780398	-385.773995	-385.773051	-385.810749	27.615	
C	-0.0377298929	 1.5632576581	 0.1626901474	-0.267358
C	 1.5129693813	 1.4915653196	-0.1619141643	-0.345252
C	 1.1810898749	 0.1269542666	-0.8054777169	 0.288175
C	-0.0976548304	-0.0065858152	 0.0146718417	-0.033962
C	-0.3367980214	-0.9367059008	-1.197346318	-0.126929
C	 0.3385556897	 0.0856273825	-2.1434483827	-0.080514
C	 1.1701520815	-0.6948076304	-3.1547625263	-0.111439
O	 1.6988670852	-1.7506167351	-2.3291436073	-0.270766
C	 1.1971322444	-1.4172223456	-1.0643326319	 0.023339
H	-0.3047816096	 1.9394277919	 1.1523853775	 0.100599
H	-0.5987021059	 2.1255722839	-0.5853445667	 0.111631
H	 1.9455991923	 2.2687163305	-0.7982106883	 0.100388
H	 2.1074133935	 1.4027090635	 0.7522091703	 0.110204
H	 0.0025877597	-0.5062801287	 0.9829842842	 0.067653
H	-1.1781539321	-1.5944315924	-1.4369388671	 0.066715
H	-0.2023328794	 0.9639811699	-2.4911225324	 0.070901
H	 0.5807228485	-1.1271075783	-3.9725609354	 0.103142
H	 1.9921547145	-0.1067787775	-3.5831274069	 0.101742
H	 1.5126500163	-2.1307919224	-0.303826157	 0.091731
232.2501	258.1576	280.8515	338.1895	481.6428	567.3968	650.172	669.8387	694.1647	733.937	797.0614	823.0187	844.9525	877.9497	904.5654	957.4265	967.9683	975.2204	984.4326	1007.7113	1038.4383	1058.1047	1081.8453	1098.1146	1110.8786	1150.3512	1152.5506	1174.2858	1189.1233	1196.5005	1223.5084	1234.0678	1241.3476	1255.4864	1275.9639	1323.2414	1350.5995	1396.4409	1473.5744	1485.4799	1517.5607	3015.4058	3049.4075	3052.0443	3055.1802	3060.8558	3075.6931	3104.3793	3129.3658	3137.8718	3140.1613
C1CC23C1C1C2COC31	C1C[C@@]23[C@@H]1[C@H]1[C@@H]2CO[C@@H]31	
InChI=1S/C8H10O/c1-2-8-4(1)6-5(8)3-9-7(6)8/h4-7H,1-3H2	InChI=1S/C8H10O/c1-2-8-4(1)6-5(8)3-9-7(6)8/h4-7H,1-3H2/t4-,5-,6-,7+,8+/m0/s1
