13
gdb 124042	4.06484	1.6189	1.16658	4.7054	66.73	-0.231	-0.0328	0.1982	948.8307	0.091939	-452.753115	-452.746833	-452.745889	-452.784296	23.491	
C	 0.0172226596	 1.4104040508	-0.1338983453	 0.002168
O	 1.3443436591	 1.8584586982	 0.1808668397	-0.270176
C	 2.0022248941	 0.7686627008	 0.6594962066	 0.283216
C	 3.2953222697	 0.6187517782	 1.1103812814	-0.091834
N	 3.726278592	-0.5828055498	 1.5438414821	-0.197056
N	 2.9272741788	-1.631712109	 1.545959012	-0.197056
C	 1.6535679268	-1.5364885368	 1.1147321634	-0.091834
C	 1.1646998446	-0.3308123742	 0.6617157004	 0.283216
O	-0.0616224741	 0.0127536428	 0.1845938404	-0.270176
H	-0.7083687587	 1.9643470379	 0.4719288632	 0.139943
H	-0.1718057374	 1.5522360649	-1.2037192277	 0.13994
H	 4.0114986122	 1.4315676891	 1.1398030985	 0.134823
H	 1.0602338133	-2.4427535829	 1.1476258952	 0.134823
72.0064	216.4498	279.3248	405.102	429.9747	566.9916	624.6927	641.1465	740.5992	792.4417	847.2136	895.5339	909.8592	940.8615	943.6711	1050.6445	1068.3589	1139.3168	1177.1994	1190.3756	1197.0986	1260.8459	1335.4108	1350.2268	1435.7167	1522.2861	1551.4318	1607.0116	1643.8411	3031.111	3084.2011	3201.9397	3203.8123
C1OC2=CN=NC=C2O1	C1Oc2cnncc2O1	
InChI=1S/C5H4N2O2/c1-4-5(2-7-6-1)9-3-8-4/h1-2H,3H2	InChI=1S/C5H4N2O2/c1-4-5(2-7-6-1)9-3-8-4/h1-2H,3H2
