18
gdb 128762	3.3051	1.03554	0.80339	5.4754	75.54	-0.2376	0.0085	0.2461	1416.9475	0.147389	-435.261298	-435.251894	-435.250949	-435.297185	32.15	
C	 0.1003627078	 1.3660854576	 0.1004537765	-0.229329
O	 0.0079925627	-0.0394719308	 0.184103071	-0.247054
C	-1.2817393248	-0.5266752343	-0.1218414126	-0.180194
C	-1.2395351555	-2.0172876801	-0.0714953009	 0.262475
C	-2.203405871	-3.0004350899	 0.0196203324	 0.207598
C	-3.6890628352	-2.8848043167	 0.1230313401	-0.503459
N	-1.5713177275	-4.2119971455	-0.0048226993	-0.248053
N	-0.2840749178	-4.0350680197	-0.1018356838	-0.126828
N	-0.079378989	-2.7087387204	-0.1528022809	-0.216329
H	 1.1285216651	 1.6383465606	 0.3474956974	 0.136592
H	-0.1337672978	 1.7283163925	-0.9122012456	 0.113358
H	-0.58036386	 1.8584094476	 0.8110388416	 0.114781
H	-2.0316146471	-0.144344257	 0.5908637709	 0.113823
H	-1.5921304458	-0.1779758923	-1.1229518424	 0.113464
H	-4.1517420024	-2.6390896326	-0.8401162538	 0.130995
H	-4.1033084969	-3.8382626848	 0.4577366993	 0.151036
H	-3.9870837679	-2.1090270654	 0.8367339921	 0.122975
H	 0.8525108931	-2.3262981887	-0.1844512519	 0.28415
32.3764	75.1983	80.6081	125.6353	222.5269	241.5523	263.7871	298.6804	353.659	472.3699	612.744	663.1976	690.6694	740.9652	792.3036	982.72	991.1249	1034.9982	1038.1671	1067.6298	1088.6994	1154.9231	1182.9729	1197.2072	1222.5043	1235.9967	1257.8168	1314.9389	1368.2809	1414.0323	1416.5709	1479.2055	1482.0631	1486.025	1491.6902	1501.2704	1513.8582	1522.7657	1626.7543	2944.0819	2973.3787	2982.3792	3030.0977	3030.3516	3080.6023	3125.8531	3130.517	3660.4547
COCC1=C(C)N=NN1	COCc1c(C)nn[nH]1	
InChI=1S/C5H9N3O/c1-4-5(3-9-2)7-8-6-4/h3H2,1-2H3,(H,6,7,8)	InChI=1S/C5H9N3O/c1-4-5(3-9-2)7-8-6-4/h3H2,1-2H3,(H,6,7,8)
