18
gdb 23280	3.13704	1.20909	1.11459	1.1719	82.11	-0.2233	0.012	0.2353	1175.669	0.147344	-401.873588	-401.865408	-401.864463	-401.906195	31.789	
C	 0.0237802346	 1.4320551563	 0.0511617998	-0.517801
C	-0.0026103651	-0.0551856507	 0.0113553586	 0.340224
C	-0.0291527691	-0.9209155722	-1.0124444561	-0.190579
C	 0.0286114424	-2.304874689	-0.3442462145	-0.163243
C	-0.978903417	-2.077691857	 0.8420758193	-0.219942
C	 0.0692364988	-0.979083767	 1.2494789917	-0.202493
C	 1.0948071356	-1.9897854633	 0.7226092749	 0.501954
N	 2.2190211476	-2.379348964	 1.1336910841	-0.317557
O	 2.737861192	-3.4103152416	 0.3106447835	-0.402005
H	 0.941074549	 1.7990559436	 0.5294163268	 0.135156
H	-0.0254531867	 1.8561562112	-0.9558299195	 0.128172
H	-0.8144991315	 1.8354570718	 0.633276194	 0.127949
H	-0.0330240458	-0.7271792644	-2.0759117914	 0.102831
H	 0.0435271089	-3.2036186434	-0.9539477589	 0.087352
H	-1.9735524849	-1.718721876	 0.5657102939	 0.099953
H	-1.0261413986	-2.9150572915	 1.5447554139	 0.10864
H	 0.1216766149	-0.5394340427	 2.2433679111	 0.077296
H	 3.5768618149	-3.6008026901	 0.7429896288	 0.304091
91.1747	164.877	195.4359	229.0337	281.7265	323.2686	393.7537	457.3836	485.7983	568.6269	639.0664	677.6798	743.0549	787.8267	823.3628	834.1039	862.1386	925.893	945.8659	990.823	1007.177	1032.5205	1062.4642	1070.5019	1098.3511	1130.5733	1174.8414	1205.5632	1221.6253	1235.2705	1247.8063	1301.3163	1401.4849	1414.2806	1476.9831	1482.8901	1485.9353	1681.6174	1803.3902	3015.4808	3049.6437	3061.3405	3107.3854	3123.0463	3145.4191	3167.0152	3229.9054	3821.8395
CC1=CC2CC1C2=NO	CC1=C[C@@H]2C[C@H]1C2=NO	
InChI=1S/C7H9NO/c1-4-2-5-3-6(4)7(5)8-9/h2,5-6,9H,3H2,1H3	InChI=1S/C7H9NO/c1-4-2-5-3-6(4)7(5)8-9/h2,5-6,9H,3H2,1H3/t5-,6-/m1/s1
