21
gdb 64129	2.81014	1.2775	1.12599	1.5216	83.55	-0.2496	0.0417	0.2913	1201.2562	0.180724	-387.075244	-387.065754	-387.06481	-387.10936	36.593	
C	-0.0203397809	 1.5243691386	 0.0958769031	-0.411252
C	-0.0220688804	-0.0019726747	-0.0315363744	 0.402454
C	-1.4444226067	-0.5609893667	 0.0420755184	-0.422767
C	 0.7437332795	-0.4876927388	-1.2882046569	-0.269986
C	 2.1423550904	-0.8181324642	-0.7537529536	-0.234019
C	 1.8102486087	-1.3357919991	 0.6591175566	-0.070157
O	 0.7315178672	-0.5170006977	 1.0988441047	-0.295116
C	 1.457019071	-2.7632002945	 0.6640328989	 0.356806
C	 1.1740934601	-3.9319391681	 0.66157952	-0.492724
H	 0.9924836423	 1.9250025425	-0.0102811176	 0.11014
H	-0.6553261601	 1.9815039909	-0.6701422457	 0.109838
H	-0.3989828622	 1.8185435701	 1.0788861396	 0.123663
H	-2.0404130926	-0.2190255668	-0.8111257265	 0.108081
H	-1.4230711681	-1.6539584671	 0.0368299379	 0.126477
H	-1.9397882962	-0.231622127	 0.9603025865	 0.118794
H	 0.2750202225	-1.3902023317	-1.6917550653	 0.11147
H	 0.7551986262	 0.2665666476	-2.0784967876	 0.10302
H	 2.6841647574	-1.5471758517	-1.3584991032	 0.114026
H	 2.7542893788	 0.0847411762	-0.6649091754	 0.106841
H	 2.6393512586	-1.1780902601	 1.3583435308	 0.106226
H	 0.9233188145	-4.9639320376	 0.6707553695	 0.198184
47.1478	112.9685	183.6692	227.0318	251.9306	264.3813	330.1999	337.321	386.5486	438.0139	466.9563	539.5297	605.4891	627.0063	659.5715	708.5072	762.8444	832.5925	862.7262	901.9504	929.5848	956.8452	969.476	993.8403	1019.1002	1049.8952	1069.6452	1137.7613	1160.4447	1221.534	1246.3864	1274.4302	1301.2037	1331.9498	1346.636	1367.5661	1398.8879	1415.6502	1475.0159	1481.5259	1487.6728	1495.856	1498.1252	1506.9758	2227.9949	3032.9928	3037.8329	3040.6945	3059.9509	3061.4868	3103.8082	3107.2856	3108.0107	3116.8069	3121.8038	3125.8001	3501.9108
CC1(C)CCC(O1)C#C	CC1(C)CC[C@@H](O1)C#C	
InChI=1S/C8H12O/c1-4-7-5-6-8(2,3)9-7/h1,7H,5-6H2,2-3H3	InChI=1S/C8H12O/c1-4-7-5-6-8(2,3)9-7/h1,7H,5-6H2,2-3H3/t7-/m0/s1
