22
gdb 103857	2.80496	1.15508	0.94983	1.8989	82.35	-0.2424	0.0824	0.3248	1344.8505	0.193099	-404.312296	-404.302429	-404.301485	-404.347251	36.538	
C	 0.100779117	 1.0933326445	-0.7419292875	-0.3826
C	-0.0564444994	-0.0053876877	 0.3187266573	-0.269312
C	-1.4551530225	-0.6009095134	 0.3562041975	 0.403467
C	-2.5495487922	 0.304570745	 0.8841219153	-0.459243
O	-1.845180223	-1.3515874182	-0.8217002608	-0.301535
C	-1.6745243957	-2.0610612642	 0.4103435784	-0.031489
C	-0.5864054628	-3.0952602019	 0.4346784527	-0.042625
C	-0.6260942264	-4.2042446922	-0.5523995317	-0.239183
N	 0.398749701	-3.1501313951	-0.6525267549	-0.316448
H	 1.1330317908	 1.4536579485	-0.7716669732	 0.116505
H	-0.1534504239	 0.7081504742	-1.7339946276	 0.130691
H	-0.5436267649	 1.9547135523	-0.5411474468	 0.116556
H	 0.6765750972	-0.7944799651	 0.1366745136	 0.133016
H	 0.165354279	 0.4028519319	 1.313053079	 0.098903
H	-2.6188732156	 1.22344712	 0.2939957076	 0.130109
H	-3.5195346259	-0.1964856061	 0.8415538613	 0.126488
H	-2.3472371132	 0.5875618714	 1.9228181208	 0.121342
H	-2.6118980442	-2.3955126313	 0.8629324024	 0.087733
H	-0.1785105697	-3.2965909109	 1.4238213835	 0.097197
H	-0.2540224125	-5.1882833977	-0.2823950745	 0.117463
H	-1.4352184467	-4.2010590272	-1.278228015	 0.120851
H	 0.0963116136	-2.4863034166	-1.3647054474	 0.242113
56.1199	103.6584	139.65	157.4866	196.9116	219.5876	260.2121	305.7936	336.4524	383.5399	458.986	574.7882	637.1391	693.0929	764.32	791.28	840.1358	859.3844	918.5053	945.425	991.6193	999.1515	1003.4752	1010.2079	1063.697	1095.6602	1125.2583	1134.2215	1141.9961	1149.3362	1193.7556	1248.9363	1281.3852	1308.0338	1313.9701	1332.4891	1383.0071	1404.1999	1407.4564	1413.5421	1463.673	1481.4232	1493.464	1502.2133	1505.0743	1507.547	1512.1719	3032.3751	3039.6885	3042.5028	3070.231	3097.1357	3105.4495	3109.1901	3114.7112	3119.0501	3122.0694	3124.8869	3197.0678	3476.9442
CCC1(C)OC1C1CN1	CC[C@@]1(C)O[C@H]1[C@H]1CN1	
InChI=1S/C7H13NO/c1-3-7(2)6(9-7)5-4-8-5/h5-6,8H,3-4H2,1-2H3	InChI=1S/C7H13NO/c1-3-7(2)6(9-7)5-4-8-5/h5-6,8H,3-4H2,1-2H3/t5-,6+,7-/m1/s1
