20
gdb 5965	3.31497	1.14594	1.0525	3.0187	75.88	-0.2656	0.0353	0.301	1233.4437	0.175983	-345.2057	-345.195844	-345.1949	-345.240087	35.72	
C	-0.0710423029	 1.6126296265	-0.0464951589	-0.385284
C	 0.0560094871	 0.0895008232	 0.0563917227	-0.18451
C	 0.7165805325	-0.5151813183	-1.1879672414	-0.165811
C	 0.7312922922	-2.0656367571	-1.2340709604	 0.070557
C	 1.4606990389	-2.6836337714	-0.028052667	-0.398315
N	-0.6531402785	-2.5600118833	-1.2462183354	-0.508655
C	 1.4506635341	-2.4687281418	-2.4714305867	 0.250356
N	 1.9723749397	-2.7956550445	-3.4507679053	-0.344607
H	 0.9086995602	 2.0882280872	-0.1668202178	 0.116318
H	-0.6860072175	 1.9028813657	-0.9055211286	 0.116266
H	-0.5356199141	 2.0305856093	 0.8516447264	 0.115734
H	 0.6416792512	-0.1621161971	 0.9479925375	 0.099866
H	-0.9305735923	-0.3637053348	 0.1940787951	 0.12101
H	 0.1939011568	-0.1600026619	-2.0858239096	 0.104803
H	 1.7491734066	-0.1585934977	-1.2790876619	 0.113209
H	 0.9065128114	-2.4632391797	 0.8859911121	 0.139295
H	 1.5295160022	-3.7700595118	-0.136847132	 0.128208
H	 2.4756717867	-2.2879204637	 0.0584817198	 0.133646
H	-1.1297048946	-2.2376375177	-2.0842431134	 0.239265
H	-0.6592910797	-3.5755078013	-1.284299845	 0.238651
76.9199	101.8405	124.3493	192.419	231.5623	248.6343	253.3444	298.9451	323.7663	365.3623	398.7209	439.9065	589.4264	592.7118	739.9784	750.578	859.3013	870.427	901.8359	930.8052	990.1255	1038.9214	1056.16	1081.2499	1107.8244	1178.0748	1218.159	1274.7222	1318.5619	1323.2657	1356.7061	1392.3083	1409.5468	1415.6784	1479.4516	1489.0646	1495.0742	1498.4654	1500.4478	1512.9787	1661.3497	2338.1001	3021.823	3030.4568	3040.8648	3051.2404	3062.8034	3081.9371	3104.284	3105.7659	3121.296	3145.0548	3487.6633	3567.2991
CCCC(C)(N)C#N	CCC[C@@](C)(N)C#N	
InChI=1S/C6H12N2/c1-3-4-6(2,8)5-7/h3-4,8H2,1-2H3	InChI=1S/C6H12N2/c1-3-4-6(2,8)5-7/h3-4,8H2,1-2H3/t6-/m1/s1
