17
gdb 70768	3.92233	1.3169	1.12286	3.5731	78.69	-0.249	0.0142	0.2632	1087.9226	0.136536	-380.798967	-380.791309	-380.790364	-380.830894	29.798	
C	-0.0041681147	 1.4580118738	-0.016872064	-0.522049
C	 0.0346497816	-0.040091964	-0.073732828	 0.335147
C	 0.5602480427	-0.9757976493	-1.1863554394	-0.354393
C	 0.0650419043	-1.9586710787	-0.1050163151	 0.223601
C	 0.0728699536	-3.3941830366	-0.0963814382	 0.143405
N	 0.0698134107	-4.5513625259	-0.069296661	-0.347146
C	 0.5176463765	-1.0029341356	 1.0682632365	-0.092795
N	-0.8078399775	-0.9471613115	 1.7523623424	-0.339309
C	-1.1369744217	-1.0165905599	 0.2981065413	-0.092801
H	 1.0033710887	 1.88058287	-0.0918174188	 0.125912
H	-0.6006717548	 1.8673808487	-0.8390142529	 0.125911
H	-0.4470086058	 1.7862603469	 0.9280141387	 0.147074
H	 0.0067421644	-0.9790154492	-2.129350094	 0.113335
H	 1.6381059166	-0.9655597251	-1.3700272102	 0.113335
H	 1.4746682821	-1.0147230477	 1.5912877858	 0.098599
H	-1.0168211261	-1.8345822471	 2.2170726091	 0.223571
H	-2.1530781906	-1.0446666288	-0.0972784022	 0.0986
129.9269	137.0214	221.869	251.7107	301.8253	398.8663	441.7036	515.6163	540.0243	576.1678	680.5115	708.034	776.0962	867.5304	873.9823	897.1617	899.0735	1005.9055	1014.7657	1033.6131	1049.3572	1102.9268	1103.3728	1132.1012	1157.9929	1176.4424	1177.6545	1219.8226	1271.4236	1289.5312	1292.4096	1380.448	1413.7612	1489.142	1491.0527	1512.5259	2340.6915	3034.7259	3054.0851	3098.7459	3112.9787	3114.8219	3115.8471	3117.2119	3412.0556
CC12CC3(C#N)C1NC23	C[C@@]12C[C@@]3(C#N)[C@@H]1N[C@@H]23	
InChI=1S/C7H8N2/c1-6-2-7(3-8)4(6)9-5(6)7/h4-5,9H,2H2,1H3	InChI=1S/C7H8N2/c1-6-2-7(3-8)4(6)9-5(6)7/h4-5,9H,2H2,1H3/t4-,5+,6-,7-
