25
gdb 101656	2.51063	0.82036	0.72264	2.5834	89.9	-0.2459	-0.019	0.2268	1739.1307	0.225628	-389.516947	-389.50525	-389.504306	-389.554807	41.561	
C	-0.0752396633	 1.5618192118	 0.2044434388	-0.392949
C	 0.018859696	 0.0411846416	 0.0438693874	-0.168918
C	 0.868591832	-0.435564241	-1.1508194611	 0.036788
C	 2.3525490481	-0.073458122	-0.9921919312	-0.399537
C	 0.6587938226	-1.9504601396	-1.3518920826	-0.200925
C	 1.4229516815	-2.5979502456	-2.5284423163	-0.074934
C	 1.0961207585	-4.0972578698	-2.6369039	-0.412153
C	 1.0506437932	-1.9054243957	-3.8229005543	 0.177249
O	 1.7967597068	-1.2536139861	-4.508037936	-0.258265
H	 0.8961037562	 2.0152525493	 0.4227682663	 0.120011
H	-0.4635564684	 2.0316724935	-0.7063002887	 0.115474
H	-0.7491331092	 1.8249235085	 1.0258429742	 0.112217
H	 0.420486455	-0.4024135928	 0.9657858086	 0.09177
H	-0.9958104023	-0.3631439324	-0.0670944654	 0.089717
H	 0.4936506479	 0.0812996334	-2.0468249121	 0.079183
H	 2.4827360555	 0.9936208271	-0.7927201565	 0.115576
H	 2.8040107166	-0.6257484419	-0.1584814829	 0.106578
H	 2.9190437886	-0.3018236339	-1.8987973084	 0.134303
H	 0.9483932498	-2.4802000636	-0.4341030997	 0.099118
H	-0.4148484172	-2.143859919	-1.4852087179	 0.093629
H	 2.5006817814	-2.4676424787	-2.3937706241	 0.097551
H	 0.0330427188	-4.2560536813	-2.8515579418	 0.120668
H	 1.6764442245	-4.5774128704	-3.4306016513	 0.126761
H	 1.3239143376	-4.6060928322	-1.6953288271	 0.124875
H	-0.0203009299	-2.0412568691	-4.1145533479	 0.066212
48.0628	57.3526	68.8396	107.3993	145.0998	219.0202	220.2162	241.2396	273.2719	286.8667	331.4592	345.0772	386.341	424.5712	490.8393	560.008	772.7574	802.398	848.8467	882.2219	911.4674	950.8459	974.1598	978.4454	1005.8707	1045.2427	1057.8036	1078.7811	1145.0438	1169.3192	1172.0756	1187.4217	1242.0665	1289.6714	1309.6671	1327.6883	1341.6051	1372.1688	1381.191	1389.5117	1406.1093	1411.7248	1415.9597	1427.7158	1474.7642	1486.5332	1496.337	1496.9233	1499.4351	1501.2371	1507.9986	1517.4327	1830.1767	2828.2577	2993.4966	3002.4965	3010.0501	3029.7203	3031.8066	3033.5274	3038.0561	3046.5648	3072.9189	3098.2177	3100.08	3101.998	3108.4068	3110.3133	3118.8744
CCC(C)CC(C)C=O	CC[C@@H](C)C[C@@H](C)C=O	
InChI=1S/C8H16O/c1-4-7(2)5-8(3)6-9/h6-8H,4-5H2,1-3H3	InChI=1S/C8H16O/c1-4-7(2)5-8(3)6-9/h6-8H,4-5H2,1-3H3/t7-,8-/m1/s1
