18
gdb 8934	4.29598	1.09697	1.0282	0.9051	64.86	-0.2644	-0.04	0.2244	1167.1064	0.150821	-422.080414	-422.070916	-422.069972	-422.114725	33.546	
C	-0.050415573	 1.5522582098	 0.1454030849	-0.416035
C	-0.0275685558	 0.0257164318	 0.0040901489	-0.006977
C	-1.4418227777	-0.5783155094	 0.0638569773	-0.081494
O	-2.1081172216	-0.3045043284	 1.2860004611	-0.422805
C	 0.6564307004	-0.4207035451	-1.3092822648	 0.044687
O	 0.021653039	 0.1185756231	-2.4387764699	-0.437228
C	 2.1252921055	-0.0554743064	-1.3091848296	 0.136186
O	 2.6172854628	 0.6136088266	-2.1859285446	-0.265044
H	 0.9590251871	 1.9747940931	 0.1800109082	 0.121686
H	-0.5731964531	 2.0065511904	-0.7013059401	 0.13415
H	-0.554282797	 1.8418336013	 1.0716345709	 0.11437
H	 0.5431131672	-0.4062828761	 0.8382639144	 0.081512
H	-2.0230626136	-0.2322885597	-0.8016721604	 0.114792
H	-1.3709667658	-1.6700654099	-0.0040673916	 0.105877
H	-2.4794651571	 0.5803307798	 1.233334167	 0.287789
H	 0.620746638	-1.5269213516	-1.3453512434	 0.092713
H	 0.7172007732	 0.5788627365	-2.9351429951	 0.295617
H	 2.7259716214	-0.4390669857	-0.4589967834	 0.100203
73.0196	100.6288	108.9059	205.0606	214.7191	258.7109	285.8129	298.7292	315.0711	359.2618	453.0036	470.9208	631.383	746.4633	819.2007	861.7166	908.2061	959.2971	994.4174	1020.9403	1074.7025	1115.3069	1139.8255	1174.8641	1240.4633	1258.6754	1302.9119	1326.331	1370.7368	1391.3351	1397.5123	1403.3278	1422.7454	1436.0246	1496.9189	1504.5506	1508.1208	1810.9373	2917.7548	2934.1916	3009.7841	3018.1975	3040.4726	3068.2747	3104.0384	3121.8368	3687.0361	3840.3495
CC(CO)C(O)C=O	C[C@@H](CO)[C@@H](O)C=O	
InChI=1S/C5H10O3/c1-4(2-6)5(8)3-7/h3-6,8H,2H2,1H3	InChI=1S/C5H10O3/c1-4(2-6)5(8)3-7/h3-6,8H,2H2,1H3/t4-,5-/m0/s1
