18
gdb 35911	3.03266	1.36785	1.05835	3.402	75.39	-0.2591	0.0348	0.294	1125.9803	0.149792	-401.951432	-401.943721	-401.942776	-401.983797	29.822	
N	-0.0168191547	-1.1880447841	 0.0057751126	-0.325934
C	-0.0088359764	-0.0323300394	 0.0182415092	 0.277372
C	-0.0014499839	 1.4340494591	 0.0431721017	-0.178423
C	-0.8362049253	 1.9869756648	 1.2240834667	-0.225013
C	-0.5609976491	 3.4807557383	 1.3754317817	-0.078759
O	 0.7851616426	 3.7138200455	 1.7579746891	-0.253373
C	 1.7417233074	 3.202502403	 0.8746244122	 0.088166
C	 2.3573633623	 1.8696007998	 1.2091785533	-0.302076
C	 1.4214996488	 1.9927140735	 0.0281590661	-0.052872
H	-0.4896014055	 1.7694293073	-0.8815466744	 0.126799
H	-1.8986102355	 1.8020206402	 1.0394323021	 0.12058
H	-0.5703398911	 1.4778398543	 2.1556435797	 0.130375
H	-0.7998665488	 4.0094234327	 0.437883624	 0.092576
H	-1.1740833294	 3.9108839163	 2.1715433162	 0.11813
H	 2.3698101879	 3.9783103629	 0.4426715159	 0.100983
H	 3.4088866369	 1.701891401	 1.006211541	 0.121764
H	 1.9866097311	 1.3904147154	 2.1085068299	 0.131355
H	 1.8894195427	 1.9551840294	-0.9502260268	 0.10835
87.1487	138.8483	196.627	274.8295	337.3269	387.0513	440.4146	479.7777	555.1932	599.8731	641.7107	750.0705	797.6907	831.738	877.5393	922.8747	965.6978	1004.4627	1021.013	1051.5475	1052.6972	1076.7281	1093.6136	1128.257	1162.2321	1192.3457	1221.8056	1245.9634	1284.0862	1321.2633	1328.9821	1355.6643	1373.6441	1400.9159	1420.1081	1477.3411	1488.286	1502.4548	2356.5294	2973.0589	3019.9046	3056.5427	3097.0543	3104.3626	3127.2801	3140.694	3157.8664	3229.8267
N#CC1CCOC2CC12	N#C[C@H]1CCO[C@H]2C[C@@H]12	
InChI=1S/C7H9NO/c8-4-5-1-2-9-7-3-6(5)7/h5-7H,1-3H2	InChI=1S/C7H9NO/c8-4-5-1-2-9-7-3-6(5)7/h5-7H,1-3H2/t5-,6+,7+/m1/s1
