21
gdb 41815	2.21679	2.00421	1.46399	0.8111	76.92	-0.2361	0.0695	0.3055	994.2499	0.186137	-424.232817	-424.225419	-424.224475	-424.264605	30.331	
C	-0.0599548545	 1.4112097487	-0.3449075748	-0.245914
C	 1.2416713448	 2.0258215054	 0.2397033801	-0.220295
C	 2.0231821164	 0.859656818	 0.9014433416	 0.129015
C	 1.4892740986	-0.3809355766	 0.1712451933	-0.26793
C	-0.0143523204	-0.102589542	-0.0177170336	 0.127077
O	-0.7994953711	-0.4786377207	 1.1094183571	-0.263
C	-0.5570017382	 0.2003855732	 2.3271256038	-0.092997
C	 0.8529405217	 0.0276408188	 2.8924309162	-0.081313
O	 1.850427625	 0.8517660799	 2.320043706	-0.276227
H	-0.9723359531	 1.8618209162	 0.0538326274	 0.112445
H	-0.0963755528	 1.5430219276	-1.4300623301	 0.101404
H	 1.8476607995	 2.4727048318	-0.5547405687	 0.096916
H	 1.0573784288	 2.8048713575	 0.9828198279	 0.109556
H	 3.1012953097	 0.9810143857	 0.759247317	 0.076894
H	 1.9652098786	-0.4220487967	-0.8158390958	 0.10048
H	 1.6927136237	-1.3283838794	 0.6743701179	 0.111102
H	-0.435892556	-0.7015367769	-0.8288045774	 0.078782
H	-0.7831119538	 1.275234818	 2.2469230347	 0.094372
H	-1.2696566824	-0.2335427084	 3.0370022662	 0.108201
H	 0.836889824	 0.3079189811	 3.9517973427	 0.105914
H	 1.1257858515	-1.0375666014	 2.8392056386	 0.09552
72.3206	210.9399	302.6062	331.9464	365.9792	395.3516	442.2506	469.0685	553.2518	729.4502	737.9725	766.506	792.8353	821.087	851.7673	890.9836	927.475	944.8756	986.9916	1001.1007	1011.9022	1069.5544	1073.4653	1103.7232	1124.8538	1139.0441	1189.633	1219.2501	1246.4909	1253.5603	1271.6896	1282.8783	1313.8452	1335.5422	1344.2867	1352.2855	1383.323	1397.6183	1412.2531	1415.8503	1468.7154	1476.4154	1484.5902	1496.9476	1505.208	2983.9961	2994.1691	3041.0207	3047.0046	3059.2801	3063.1994	3066.3216	3072.6923	3082.9861	3096.1596	3114.7031	3115.6595
C1CC2CC1OCCO2	C1C[C@@H]2C[C@H]1OCCO2	
InChI=1S/C7H12O2/c1-2-7-5-6(1)8-3-4-9-7/h6-7H,1-5H2	InChI=1S/C7H12O2/c1-2-7-5-6(1)8-3-4-9-7/h6-7H,1-5H2/t6-,7+
