22
gdb 88964	3.30772	0.89992	0.87528	1.9917	82.8	-0.2292	0.0814	0.3106	1472.9978	0.191941	-404.300569	-404.29064	-404.289696	-404.335941	36.697	
C	-0.3864845895	 1.3361677308	-0.1989135144	-0.411925
C	 0.4485509377	 0.0740693135	-0.1968065025	 0.03365
C	 1.9089932745	 0.1076279491	 0.1040229752	-0.253575
N	 0.9763939361	-0.5345610957	 1.025765076	-0.085178
C	 0.739728806	 0.097961329	 2.3182257895	-0.223486
C	 1.592089202	-0.5617338556	 3.3908862271	 0.434171
C	 1.3336499958	-2.0285001234	 3.6403630169	-0.456471
C	 2.8935349602	 0.03388821	 3.7292419079	-0.221129
O	 1.7534727342	 0.2459828216	 4.5665386558	-0.283968
H	 0.0198443456	 2.1085686861	 0.4584234477	 0.123217
H	-0.4280441958	 1.7512659579	-1.2114462898	 0.123132
H	-1.4160810456	 1.1301137676	 0.1142800851	 0.124694
H	 0.105176325	-0.6738927754	-0.9111129362	 0.089964
H	 2.6077691101	-0.5474676462	-0.4100161859	 0.112567
H	 2.325447961	 1.0719568975	 0.3963780194	 0.103831
H	 0.9452150853	 1.179124211	 2.335337022	 0.091716
H	-0.3183722527	-0.0383251596	 2.5766076005	 0.105622
H	 1.4619846871	-2.5934853537	 2.7136208125	 0.139701
H	 2.0109977983	-2.4203180106	 4.4029960665	 0.11847
H	 0.3048207576	-2.1785050038	 3.9867222062	 0.12017
H	 3.6763267621	-0.5918287396	 4.1562633115	 0.110216
H	 3.2490934649	 0.9136471895	 3.1932727189	 0.104611
46.5319	72.4651	129.7992	180.5519	192.0279	218.0081	302.1645	356.0638	367.9722	390.1221	430.4074	465.3601	510.2855	741.3685	756.6996	817.6956	843.014	901.4252	925.2955	937.0291	944.2111	985.5937	1038.3818	1046.0875	1061.2393	1112.8373	1120.8956	1134.5116	1149.2204	1157.5675	1168.7303	1190.2177	1245.895	1295.154	1337.8985	1375.4809	1397.6404	1404.0023	1420.8138	1425.2183	1478.8096	1486.6497	1491.964	1499.6614	1502.4485	1513.3222	1533.4205	2980.0993	3036.1922	3039.2709	3044.8693	3076.7015	3081.8924	3093.8333	3099.2887	3107.6704	3125.5186	3134.1562	3160.972	3169.7989
CC1CN1CC1(C)CO1	C[C@H]1CN1C[C@@]1(C)CO1	
InChI=1S/C7H13NO/c1-6-3-8(6)4-7(2)5-9-7/h6H,3-5H2,1-2H3	InChI=1S/C7H13NO/c1-6-3-8(6)4-7(2)5-9-7/h6H,3-5H2,1-2H3/t6-,7-,8?/m0/s1
