23
gdb 68470	2.63892	1.62378	1.23463	0.3027	90.26	-0.2294	0.0236	0.253	1125.4926	0.20824	-351.160395	-351.15224	-351.151296	-351.192332	33.857	
C	 0.0179443898	 1.6849621924	 0.083271535	-0.480055
C	 0.0133671356	 0.1602658643	 0.1084539997	 0.305235
C	 0.9721647746	-0.5685403395	-0.8940762348	-0.244384
C	 1.3249164676	-1.5829636577	 0.2288427198	 0.001265
C	 0.8260045583	-0.5262414006	 1.2563227692	-0.267552
C	 0.5048947187	-2.8848276343	 0.1773131473	-0.207307
C	-0.9595219936	-2.8056511736	 0.6608549015	-0.26014
C	-1.7962019549	-1.6355895348	 0.1954431067	-0.074937
C	-1.3936854362	-0.3803728482	-0.0105691489	-0.082634
H	 1.0374593306	 2.0772970512	 0.1552653194	 0.105894
H	-0.423255887	 2.0657406893	-0.8455940656	 0.112954
H	-0.5612874277	 2.0970500601	 0.9179980553	 0.11434
H	 0.5241966582	-0.9623483966	-1.8103135072	 0.089731
H	 1.829536881	 0.0610630832	-1.1546125559	 0.086153
H	 2.386458724	-1.8370640876	 0.2970630088	 0.060684
H	 1.6418420625	 0.1203046819	 1.5939366078	 0.088471
H	 0.2705534044	-0.8695487611	 2.132225626	 0.095362
H	 0.5248761736	-3.2586089373	-0.8545129215	 0.097511
H	 1.005233794	-3.6488137544	 0.7847447829	 0.09119
H	-1.4624735726	-3.7345317937	 0.367822517	 0.097285
H	-0.9711025709	-2.8193089139	 1.7605289932	 0.114366
H	-2.8536381584	-1.8525421377	 0.0570073206	 0.082543
H	-2.1425167014	 0.3447125486	-0.3255462662	 0.074027
143.7999	194.111	243.3366	266.004	304.4265	344.3948	381.1933	391.4803	472.0727	545.4819	629.2166	674.0122	737.4373	761.9462	822.6735	841.0177	862.4498	889.1632	910.2737	930.5583	952.301	997.1814	1000.233	1027.033	1044.4261	1086.1752	1102.9468	1137.5014	1148.3677	1181.4499	1195.3905	1239.2743	1254.3096	1265.7435	1281.5791	1294.4019	1309.8264	1345.0319	1381.4163	1390.3996	1407.5635	1427.9989	1468.2229	1481.1687	1488.1189	1492.667	1493.9344	1506.7632	1718.225	2998.0855	3015.6616	3018.939	3037.7139	3045.0813	3049.3476	3055.4313	3064.0558	3083.4127	3093.7195	3099.8429	3105.7561	3124.5515	3150.6739
CC12CC(C1)CCC=C2	C[C@@]12C[C@@H](C1)CCC=C2	
InChI=1S/C9H14/c1-9-5-3-2-4-8(6-9)7-9/h3,5,8H,2,4,6-7H2,1H3	InChI=1S/C9H14/c1-9-5-3-2-4-8(6-9)7-9/h3,5,8H,2,4,6-7H2,1H3/t8-,9+
