21
gdb 122891	4.51407	0.52911	0.48871	5.4831	80.98	-0.2418	0.0299	0.2717	2192.5707	0.180856	-420.40304	-420.391938	-420.390994	-420.440765	38.219	
C	-0.0034513688	 1.5230940401	-0.136138476	-0.39567
C	-0.0352335057	-0.0129734196	 0.0285173152	-0.096161
N	 0.7495231774	-0.5660114559	 1.1291830044	-0.292965
C	 2.197640546	-0.4386956702	 0.9884639739	-0.138537
C	 2.9054179404	-1.1348945345	 2.1500413366	-0.181581
C	 4.4233836821	-1.0720670458	 2.038967581	-0.072142
O	 4.9647360608	-1.7095686879	 3.1843211123	-0.418415
C	-1.4313213927	-0.4646390281	 0.1731494679	 0.27681
N	-2.5347009534	-0.7859470751	 0.290781306	-0.318992
H	 1.0218441119	 1.8626192469	-0.3011880894	 0.129029
H	-0.6110453305	 1.8360300313	-0.9898801787	 0.139375
H	-0.3956365178	 2.0124033675	 0.7604808027	 0.13202
H	 0.3487947847	-0.4682161259	-0.8943377039	 0.131318
H	 0.4407668822	-0.1644891176	 2.0094002399	 0.224732
H	 2.4801197334	-0.9182183626	 0.0412971615	 0.10643
H	 2.5446007395	 0.608296267	 0.9236818945	 0.085496
H	 2.6115658889	-0.6693315168	 3.0995314959	 0.106034
H	 2.5866860994	-2.1808017938	 2.197774077	 0.124576
H	 4.7500328757	-1.5706887268	 1.111386898	 0.087035
H	 4.7515530634	-0.0211797322	 1.9747412241	 0.084402
H	 5.9236759831	-1.6871505798	 3.1177276071	 0.287207
46.9554	49.4246	83.9475	122.9023	133.0143	176.5537	214.2836	240.716	263.8445	303.9562	365.8806	383.6476	501.1367	564.0334	587.3657	727.9574	773.8651	833.7041	891.7294	918.8183	1015.7766	1043.3097	1061.1123	1076.1182	1099.7672	1111.1295	1157.247	1191.5315	1229.6688	1242.2156	1297.0114	1307.533	1320.9509	1327.6733	1349.0199	1401.2873	1419.5166	1464.6655	1486.7211	1490.266	1495.6404	1505.2479	1517.4704	1531.5758	2362.0835	2935.7247	2957.0333	2981.1067	3022.9918	3026.5433	3037.737	3045.6536	3093.7922	3121.1565	3129.3055	3515.2062	3832.1052
CC(NCCCO)C#N	C[C@@H](NCCCO)C#N	
InChI=1S/C6H12N2O/c1-6(5-7)8-3-2-4-9/h6,8-9H,2-4H2,1H3	InChI=1S/C6H12N2O/c1-6(5-7)8-3-2-4-9/h6,8-9H,2-4H2,1H3/t6-/m1/s1
