18
gdb 19107	4.39563	2.14622	2.08403	0.0289	73.48	-0.2358	0.0945	0.3303	753.0305	0.155566	-310.597323	-310.591243	-310.590299	-310.627082	25.601	
C	-0.0479656009	 1.6196606249	 0.0110544881	-0.418291
C	 0.0363579795	 0.1025176908	 0.0176885765	 0.030777
C	 1.0774168886	-0.6397384115	-0.8639997898	-0.072797
C	 2.4849255798	-0.2566269485	-0.3437268401	-0.066104
C	 2.2270398775	-0.2644476666	 1.1673196006	-0.066097
C	 2.6625291912	-1.526541296	 0.4575600941	-0.110443
C	 1.1500449296	-1.8016689986	 0.1980506522	-0.051596
C	 0.7272702462	-0.6502342624	 1.1873727287	-0.072811
H	 0.9371804873	 2.0662845739	 0.1815158865	 0.117438
H	-0.4239206407	 1.9933137017	-0.9481280529	 0.110447
H	-0.7214706312	 1.9843965577	 0.794858538	 0.110447
H	-0.951764723	-0.345047895	-0.153278045	 0.065242
H	 0.9389699468	-0.7993425153	-1.9331327935	 0.056717
H	 3.2384675832	 0.368553839	-0.8039516324	 0.081225
H	 2.7842208306	 0.3547600652	 1.8576916914	 0.081225
H	 3.5245002602	-2.1639439636	 0.6013645145	 0.083201
H	 0.6425043125	-2.7583841885	 0.1065272135	 0.064709
H	 0.2422809927	-0.8202247172	 2.1484003096	 0.056714
195.78	203.7223	258.2713	535.649	571.0858	694.2801	717.2744	768.4724	786.478	797.573	823.9778	852.0561	862.85	863.0236	913.3473	924.6798	974.4146	988.065	1007.6529	1036.9801	1051.1884	1062.3471	1065.0986	1075.849	1135.1418	1163.2932	1179.3154	1188.9435	1190.2978	1229.109	1251.7159	1272.2909	1307.1815	1351.7245	1380.514	1403.985	1492.5857	1497.7446	3021.9891	3026.4432	3087.3596	3099.2522	3114.0103	3115.096	3148.194	3193.997	3194.42	3210.9857
CC1C2C3C4C3C2C14	C[C@H]1[C@H]2[C@H]3[C@@H]4[C@H]3[C@H]2[C@H]14	
InChI=1S/C8H10/c1-2-3-5-4(2)7-6(3)8(5)7/h2-8H,1H3	InChI=1S/C8H10/c1-2-3-5-4(2)7-6(3)8(5)7/h2-8H,1H3/t2-,3+,4-,5+,6-,7+,8-
