18
gdb 86588	3.21821	1.13341	0.99703	15.0248	70.15	-0.1594	-0.0181	0.1413	1207.3525	0.147836	-476.166393	-476.157485	-476.156541	-476.200386	33.136	
N	-0.2252172738	 1.6999320262	 0.1906309346	-0.427498
H	 0.7015977233	 1.221835508	 0.2314971098	 0.321738
H	-0.0828386954	 2.7105947391	 0.1955591652	 0.319139
H	-0.7363486618	 1.4384346578	-0.6516731838	 0.317201
C	-0.9026476115	 1.1971856063	 1.4574261172	-0.041914
C	-1.4145301202	-0.2538964443	 1.3865238379	-0.244287
C	-0.712992983	-0.4851143744	 2.7627569934	-0.187625
C	 0.1663956899	 0.7554652441	 2.4920062175	 0.141142
O	 1.383906054	 0.5026420572	 1.75402643	-0.484368
C	-1.7018124525	-0.1468937652	 3.9616905562	 0.361872
O	-2.323126537	 0.9283645652	 3.7616410686	-0.497383
O	-1.7084108495	-0.9449524842	 4.8976607936	-0.454194
H	-1.6285360951	 1.906962018	 1.8376677852	 0.16827
H	-2.4974807949	-0.3684366932	 1.3672587446	 0.144015
H	-0.9579656004	-0.8146837191	 0.560786543	 0.073459
H	-0.1879053278	-1.4312998733	 2.9173205281	 0.067203
H	 0.3792037219	 1.4309746595	 3.3211939951	 0.117697
H	 1.6662497739	-0.3976322578	 1.9442221939	 0.305534
45.4113	121.1666	186.0455	232.7672	236.1271	317.8509	322.3721	342.7646	365.3007	398.1933	589.7967	661.879	692.4579	768.0309	804.0759	851.0959	890.9986	919.5509	937.6444	963.9832	972.6475	1030.3193	1073.5155	1098.4065	1153.0543	1169.8673	1212.2284	1236.0828	1242.7636	1270.71	1296.5748	1301.0091	1332.3685	1357.5641	1417.9975	1463.0006	1627.5408	1673.0008	1785.4123	3019.8859	3074.1155	3110.4417	3137.2522	3142.7015	3209.8859	3469.262	3539.1085	3828.4377
[NH3+]C1CC(C1O)C([O-])=O	[NH3][C@H]1C[C@@H]([C@H]1O)C(=O)[O]	
InChI=1S/C5H9NO3/c6-3-1-2(4(3)7)5(8)9/h2-4,7H,1,6H2,(H,8,9)	InChI=1S/C5H9NO3/c6-3-1-2(4(3)7)5(8)9/h2-4,7H,1H2,6H3/t2-,3-,4+/m0/s1
