17
gdb 38987	3.0558	1.76166	1.28528	0.1905	67.58	-0.2514	0.0799	0.3312	964.9514	0.137441	-458.91521	-458.908371	-458.907427	-458.946328	27.4	
C	-0.0300480628	 1.5331260685	-0.0620173288	-0.269808
C	 1.4991612132	 1.5388550006	 0.0901379355	-0.06049
O	 2.047977522	 0.7681488099	-1.0066511566	-0.303621
C	 1.5561403733	 0.0717380611	 0.1256853461	 0.426826
C	 2.3173565562	-0.9616692823	 0.890352491	-0.222442
O	 1.5363216021	-1.3307634036	 2.0273139264	-0.233736
C	 0.2050697963	-1.6286699723	 1.687471223	 0.017196
O	-0.5142490789	-0.5068705545	 1.2311085417	-0.249456
C	 0.0236691749	-0.0248850108	 0.0081293945	 0.029217
H	-0.5557246867	 1.9329520767	 0.8067784391	 0.128023
H	-0.4143727623	 1.9770419111	-0.9823094929	 0.114417
H	 2.1513359064	 2.2824732555	 0.5323653775	 0.111408
H	 2.5023697277	-1.84292619	 0.2534227283	 0.1049
H	 3.2784582002	-0.5927332256	 1.2570486668	 0.127606
H	 0.1805683495	-2.430909637	 0.926056285	 0.079208
H	-0.2839208145	-1.9619437693	 2.6040784085	 0.124378
H	-0.3697034166	-0.5871306279	-0.8488683052	 0.076374
156.9283	166.2335	309.6235	366.4961	412.8978	439.0289	466.4287	491.1435	619.7901	705.6838	778.1747	838.828	895.5984	914.1678	934.714	949.9952	995.013	1013.1621	1046.5289	1048.8923	1073.2359	1120.051	1154.767	1188.2735	1208.9985	1232.6621	1252.8933	1267.6841	1293.6744	1317.6537	1342.6739	1376.4551	1438.5748	1454.0594	1491.8881	1498.7425	1506.5419	2928.4651	2970.8822	3021.9474	3079.1727	3099.0298	3123.705	3144.1475	3193.9083
C1C2OC22COCOC12	C1[C@@H]2O[C@]32COCO[C@@H]13	
InChI=1S/C6H8O3/c1-4-6(5(1)9-6)2-7-3-8-4/h4-5H,1-3H2	InChI=1S/C6H8O3/c1-4-6(5(1)9-6)2-7-3-8-4/h4-5H,1-3H2/t4-,5-,6+/m0/s1
