15
gdb 46313	3.2469	1.38218	1.27107	4.5704	67.32	-0.2452	-0.0154	0.2298	1017.2045	0.113036	-457.782784	-457.775466	-457.774522	-457.815012	27.1	
O	 0.159301288	 0.0603382101	-0.1576110052	-0.319623
C	 0.0548064695	 1.2268941735	 0.0284851845	 0.403669
O	-1.067027524	 1.933226166	 0.3856594206	-0.241452
C	-0.3336458381	 3.1921188776	 0.4970937776	-0.123896
C	 0.9615875274	 2.5011746355	-0.005476918	 0.203134
O	 2.0462100712	 2.4982778468	 0.8879504269	-0.302659
C	 3.2686084957	 2.7563187657	 0.1888238028	-0.135864
C	 2.848510873	 3.0279667828	-1.2253521503	-0.10152
C	 1.5328967896	 2.8840534014	-1.3369324002	-0.13769
H	-0.7715283005	 3.9584162298	-0.1453852603	 0.123151
H	-0.2755278014	 3.525270745	 1.5346493518	 0.136044
H	 3.7821717518	 3.6078172316	 0.657129518	 0.119313
H	 3.9320913492	 1.8831143575	 0.2688290385	 0.127828
H	 3.5429840439	 3.2919312021	-2.0120505156	 0.122734
H	 0.9275736647	 2.9958909446	-2.226353321	 0.126832
95.1147	124.306	163.7411	260.2175	323.0398	400.0368	486.4285	625.5383	700.3869	745.208	780.8045	799.2808	849.7503	900.0264	950.614	959.0053	961.5109	989.6908	1027.6237	1044.8816	1108.8888	1121.4577	1154.3912	1194.6383	1198.934	1224.4449	1339.5705	1356.1953	1381.4137	1507.6993	1514.2964	1683.7354	1942.1599	2999.4373	3024.8459	3074.8644	3143.751	3217.9848	3241.3514
O=C1OCC11OCC=C1	O=C1OC[C@]21OCC=C2	
InChI=1S/C6H6O3/c7-5-6(4-8-5)2-1-3-9-6/h1-2H,3-4H2	InChI=1S/C6H6O3/c7-5-6(4-8-5)2-1-3-9-6/h1-2H,3-4H2/t6-/m1/s1
