20
gdb 63779	3.35364	1.23563	1.16223	3.8022	79.05	-0.2419	0.0305	0.2724	1151.8147	0.170806	-403.1663	-403.157675	-403.156731	-403.199213	33.703	
C	-0.0830761311	 1.5720715566	 0.0186353672	-0.45249
C	 0.0208438104	 0.0511983312	 0.00654448	 0.325583
C	-1.3478772021	-0.5983275324	-0.2039847681	-0.438523
C	 1.108661587	-0.5594540349	-0.943587006	-0.29345
C	 1.7680743391	-1.2981453455	 0.2603200513	-0.184966
C	 0.7516191108	-0.6124493174	 1.2292020911	-0.021655
N	 1.8871227639	 0.108084693	 1.8038265892	-0.323622
C	 2.8376061019	-0.4258047001	 0.9503560787	 0.414463
O	 4.0119631814	-0.2159419832	 0.8117275789	-0.360329
H	 0.8898947853	 2.0407058268	 0.1932314787	 0.116344
H	-0.4590743502	 1.9398005514	-0.9427223187	 0.119913
H	-0.7729809726	 1.917920318	 0.7977175909	 0.110809
H	-1.7723876623	-0.311341534	-1.1720633353	 0.117688
H	-1.2800566242	-1.6918034457	-0.1815066884	 0.115345
H	-2.0525191166	-0.2917933091	 0.5777996281	 0.113675
H	 0.6973999707	-1.2319189583	-1.6995541306	 0.10701
H	 1.7640143976	 0.1584312327	-1.4426449394	 0.114803
H	 1.935884215	-2.3709804183	 0.2002514667	 0.097013
H	 0.1353469989	-1.1461840527	 1.9557807298	 0.077334
H	 1.9210388871	 0.9594367719	 2.3479730759	 0.245059
74.2805	167.8427	214.629	243.3441	261.0924	318.1911	357.9213	365.9958	445.4428	482.567	499.3497	598.6414	714.2326	759.1279	799.5348	854.0383	868.0857	887.0862	939.3337	961.0862	973.0627	994.539	1013.0714	1041.4258	1087.214	1138.6319	1146.3593	1206.2829	1217.6299	1230.452	1244.4551	1277.1582	1291.6763	1334.9504	1366.406	1400.2025	1419.2213	1484.438	1485.5828	1488.5874	1501.2342	1510.1959	1888.9085	3020.159	3025.5669	3064.5264	3085.4973	3085.7926	3089.7632	3095.1806	3105.2662	3115.624	3146.635	3587.6105
CC1(C)CC2C1NC2=O	CC1(C)C[C@@H]2[C@H]1NC2=O	
InChI=1S/C7H11NO/c1-7(2)3-4-5(7)8-6(4)9/h4-5H,3H2,1-2H3,(H,8,9)	InChI=1S/C7H11NO/c1-7(2)3-4-5(7)8-6(4)9/h4-5H,3H2,1-2H3,(H,8,9)/t4-,5-/m1/s1
