19
gdb 117802	2.61515	1.05999	0.89993	5.3627	72.93	-0.2451	0.0321	0.2772	1376.5584	0.157288	-456.329791	-456.319194	-456.318249	-456.36553	37.321	
C	-0.1530568747	 1.346946717	-0.0632845693	-0.232516
O	-0.0864766271	-0.0626210593	-0.1087472639	-0.251946
C	 0.774511604	-0.5581435082	-1.1071857686	-0.098985
C	 0.6845922598	-2.0923055563	-1.0360177297	 0.193109
O	-0.6740864653	-2.4873530339	-1.0919838376	-0.454698
C	 1.3857280984	-2.7497707608	-2.2336234473	-0.174884
N	 1.2842679664	-4.1974704778	-2.1295660692	-0.505055
C	 1.2990309686	-2.5478487848	 0.2391203365	 0.29037
N	 1.7759109781	-2.8585062084	 1.2441595918	-0.343881
H	 0.8298356974	 1.7871094746	 0.1578977775	 0.119971
H	-0.518671742	 1.7647871675	-1.0132865045	 0.112864
H	-0.848865823	 1.6114747369	 0.735359863	 0.140029
H	 0.4449034038	-0.229539729	-2.1053452283	 0.101027
H	 1.8094074805	-0.2202248847	-0.9481582349	 0.111195
H	-1.1492739131	-1.9061038861	-0.4828406764	 0.300702
H	 0.9260428397	-2.3161335925	-3.13762722	 0.09465
H	 2.4435233236	-2.4652716744	-2.2251101578	 0.117893
H	 0.3080826285	-4.4705402121	-2.1730731661	 0.246529
H	 1.7618007566	-4.6419514281	-2.9052760252	 0.233624
68.0089	109.5087	112.6331	142.4928	173.7332	197.3027	231.5137	253.5642	305.6016	351.0945	393.5141	410.8292	450.9132	462.0692	595.6052	672.733	743.7392	845.4256	902.4609	967.8443	1005.0461	1058.7448	1090.4805	1118.1529	1155.5314	1173.9779	1191.4199	1219.1869	1237.2519	1277.3046	1344.7295	1370.7026	1417.3486	1437.4635	1478.7506	1486.9757	1493.0948	1499.3271	1520.5666	1652.2973	2357.9026	2958.3026	2977.0937	2988.4762	3023.031	3039.3248	3070.3918	3128.3822	3514.7347	3597.9561	3766.8129
COCC(O)(CN)C#N	COC[C@@](O)(CN)C#N	
InChI=1S/C5H10N2O2/c1-9-4-5(8,2-6)3-7/h8H,2,4,6H2,1H3	InChI=1S/C5H10N2O2/c1-9-4-5(8,2-6)3-7/h8H,2,4,6H2,1H3/t5-/m1/s1
