19
gdb 109322	1.90259	1.56877	1.0071	1.9329	83.74	-0.2386	0.0136	0.2522	1248.9113	0.157668	-385.860366	-385.851013	-385.850069	-385.895242	34.102	
C	-0.0029162871	 1.5963913434	 0.1594682511	-0.378352
C	-0.026284943	 0.085917538	-0.1364720342	-0.29517
C	-1.3962486922	-0.5148871527	-0.0759691737	 0.332864
C	-2.1106353197	-1.0855952904	-1.0406671788	-0.225324
C	-3.4287186255	-1.5699945908	-0.515810867	-0.115481
O	-3.4625721399	-1.1501866008	 0.8483946379	-0.265112
C	-2.2059717161	-0.5786085235	 1.215454115	-0.141643
C	-1.5328739263	-1.3681178637	 2.2555825181	 0.343724
C	-0.9633797069	-2.0017390847	 3.1036571012	-0.479367
H	 1.0166648754	 1.9859134229	 0.0853329643	 0.117843
H	-0.6297479872	 2.1455574262	-0.5499323101	 0.121775
H	-0.3670883972	 1.813748829	 1.1683938992	 0.125576
H	 0.4013336226	-0.1014745415	-1.1270853787	 0.106018
H	 0.618028761	-0.427978131	 0.588724775	 0.122229
H	-1.8019886821	-1.2128365165	-2.0713325003	 0.102881
H	-4.2888257031	-1.1331075543	-1.0442832362	 0.109113
H	-3.5284326382	-2.6654629641	-0.58143202	 0.109005
H	-2.3967401042	 0.4272555192	 1.6208334179	 0.110193
H	-0.4717861703	-2.5662447051	 3.8571715992	 0.199227
45.6698	77.7562	130.3983	162.7176	218.2261	233.2653	297.7049	345.58	455.6472	497.9616	585.5559	617.6697	632.6113	668.4026	771.7596	794.9614	825.2956	893.6483	931.9615	944.4813	972.7591	1017.3722	1048.5449	1066.5077	1097.2725	1102.2841	1194.0363	1205.3115	1262.4805	1281.3142	1339.217	1349.6196	1356.5641	1378.7427	1409.8804	1480.061	1499.5789	1506.0147	1522.4465	1733.7054	2230.2795	2973.6703	2977.3259	3004.4311	3025.3255	3039.3446	3070.193	3111.3833	3112.4877	3207.8359	3501.1489
CCC1=CCOC1C#C	CCC1=CCO[C@H]1C#C	
InChI=1S/C8H10O/c1-3-7-5-6-9-8(7)4-2/h2,5,8H,3,6H2,1H3	InChI=1S/C8H10O/c1-3-7-5-6-9-8(7)4-2/h2,5,8H,3,6H2,1H3/t8-/m0/s1
