24
gdb 123066	4.49439	0.46537	0.42841	2.9101	91.14	-0.2412	0.0282	0.2694	2599.0369	0.214801	-405.548339	-405.536564	-405.53562	-405.587139	39.97	
C	 0.2631760642	 1.207595652	 0.0153687353	-0.379733
C	-0.1537053798	-0.1883575362	 0.4862804372	-0.166197
C	-1.4689243743	-0.6678417516	-0.1375401606	-0.166373
C	-1.892437497	-2.0651523897	 0.3296865178	-0.198526
C	-3.2115996619	-2.51239189	-0.3141551178	-0.129868
N	-3.7611505019	-3.8152692251	 0.0178801246	-0.233149
C	-3.173346267	-4.5795156823	 0.8224985407	 0.131831
O	-3.7067407833	-5.7882854925	 1.1156977432	-0.196449
C	-2.963804336	-6.5744906756	 2.0360349088	-0.250415
H	 1.2043799173	 1.5214377826	 0.4775397203	 0.110878
H	 0.4009962224	 1.2342273296	-1.0713303252	 0.114054
H	-0.4973090937	 1.9545984264	 0.2688792734	 0.114055
H	 0.6414993078	-0.9078793668	 0.2499286827	 0.093399
H	-0.2501226484	-0.1928605646	 1.5801765049	 0.0934
H	-2.2650314609	 0.0519880943	 0.0983943763	 0.095042
H	-1.3731281009	-0.6632747928	-1.2322593272	 0.095042
H	-1.0966059824	-2.7831171582	 0.0885131153	 0.094987
H	-1.9917011665	-2.0653388133	 1.4238218272	 0.094987
H	-3.9896889953	-1.7702981481	-0.0857907338	 0.109609
H	-3.1036234178	-2.480949795	-1.4076034064	 0.109603
H	-2.2297197689	-4.3756766308	 1.3454638787	 0.073206
H	-3.5190386564	-7.5044056469	 2.1657799106	 0.144178
H	-1.9619565071	-6.8079706462	 1.6536593132	 0.123225
H	-2.8687100721	-6.0773615692	 3.0098121109	 0.123213
48.4613	56.5923	72.6768	93.4781	131.5555	147.8477	163.6042	165.3549	237.9948	281.1056	292.7498	339.9127	421.5229	503.6628	620.1424	736.1242	756.6254	847.0196	897.1022	968.2665	1001.2123	1002.7858	1022.9266	1042.7969	1069.3109	1082.3097	1132.2621	1170.2659	1177.6078	1178.0093	1241.4586	1266.2162	1274.9842	1311.2411	1329.255	1337.4897	1348.3996	1397.3416	1401.1324	1412.0896	1418.4872	1476.9742	1484.1713	1486.8034	1490.0044	1493.7855	1498.2839	1502.3482	1502.9021	1513.6837	1781.7461	2999.53	3002.0172	3005.5616	3010.0116	3018.1149	3020.0254	3027.2508	3029.0106	3033.4749	3044.0514	3062.5886	3067.853	3095.5434	3100.6501	3140.9678
CCCCCN=COC	CCCCCN=COC	
InChI=1S/C7H15NO/c1-3-4-5-6-8-7-9-2/h7H,3-6H2,1-2H3	InChI=1S/C7H15NO/c1-3-4-5-6-8-7-9-2/h7H,3-6H2,1-2H3
