20
gdb 68271	2.32141	1.51081	1.43061	1.9665	85.86	-0.2264	0.0311	0.2576	1079.1654	0.169061	-365.903202	-365.894111	-365.893167	-365.936348	35.456	
C	-0.2960620094	 1.6340928215	-0.1436268455	-0.52228
C	-0.0723688791	 0.1475175576	-0.031353488	 0.274146
C	 0.5962929796	-0.8266503974	-1.0325970906	-0.22014
N	 0.1891784373	-1.783295317	 0.1057506519	-0.176306
C	 0.7286298782	-0.6630105202	 1.0138612824	-0.223888
C	-1.1604728268	-0.9829519134	 0.1155197215	 0.136573
C	-2.0245633228	-1.1131316853	 1.3733737676	-0.485364
C	-2.01684191	-1.2363514831	-1.0385021337	 0.278632
C	-2.7887322647	-1.42783447	-1.9413597631	-0.438624
H	 0.6539189836	 2.1654179113	-0.2660539125	 0.122421
H	-0.9277949806	 1.8652304908	-1.0078065561	 0.130884
H	-0.7887691883	 2.0292361605	 0.7514111084	 0.121595
H	 0.098151	-1.0276749072	-1.9809919316	 0.121111
H	 1.6797633335	-0.7542899384	-1.1547038447	 0.094934
H	 1.8176167143	-0.5816191667	 0.9722262548	 0.100149
H	 0.393075846	-0.7062295351	 2.0488635993	 0.100102
H	-1.5127314191	-0.8236020774	 2.2911039816	 0.119688
H	-2.9147742403	-0.4866147768	 1.2698392783	 0.132149
H	-2.3573664354	-2.1499344552	 1.4777128764	 0.142409
H	-3.4553668763	-1.6052136786	-2.7489098464	 0.191808
113.316	137.5492	173.843	187.553	200.7672	294.3542	338.1539	382.6444	497.2362	504.4023	549.9937	620.5007	626.5236	640.9774	648.396	665.7181	745.5553	797.5265	887.7503	906.6528	912.1413	935.327	1005.8785	1035.1761	1063.3406	1092.6257	1139.0502	1172.6041	1180.9208	1194.6801	1205.1269	1230.7065	1251.4553	1329.6695	1404.4935	1408.8871	1483.5353	1485.7499	1489.2671	1489.8632	1521.4718	1561.9047	2222.0432	3028.777	3053.4914	3066.4248	3076.0804	3097.3722	3101.5838	3118.2571	3134.457	3143.7947	3153.0128	3500.5951
CC12CN(C1)C2(C)C#C	C[C@@]12CN(C1)[C@]2(C)C#C	
InChI=1S/C8H11N/c1-4-8(3)7(2)5-9(8)6-7/h1H,5-6H2,2-3H3	InChI=1S/C8H11N/c1-4-8(3)7(2)5-9(8)6-7/h1H,5-6H2,2-3H3/t8-/m1/s1
