19
gdb 89492	2.82051	1.5414	1.36137	2.6461	69.87	-0.2402	0.0584	0.2986	1008.5022	0.160246	-460.161462	-460.153533	-460.152589	-460.193435	31.913	
O	-0.0075981478	 1.4259451647	-0.0937438465	-0.430472
C	 0.0278277366	 0.0197205174	 0.0166241087	 0.136379
C	 0.6500239186	-0.5270322859	 1.347041216	-0.323526
C	-0.5282968877	-1.3146494287	 1.9699791718	 0.374809
O	-0.2000613234	-2.2571431472	 2.9572392846	-0.493311
C	-1.6162614061	-0.2917833355	 2.3654946543	-0.116948
O	-2.1320185941	 0.1740674565	 1.1114486595	-0.262201
C	-1.4129538466	-0.5334334009	 0.094647997	 0.077846
C	-1.189408031	-1.9177965761	 0.7147217371	-0.270179
H	 0.8948862529	 1.7382386902	-0.2089150651	 0.283341
H	 0.5347995017	-0.4258926347	-0.8522845205	 0.067492
H	 1.4936951663	-1.1997648866	 1.1662722071	 0.099504
H	 0.9874609579	 0.2980114549	 1.9829937255	 0.092575
H	 0.232105795	-1.7964576817	 3.6843150186	 0.279702
H	-2.4110947779	-0.7744355634	 2.9494148821	 0.098754
H	-1.2154398446	 0.5531498122	 2.9412184921	 0.090979
H	-1.9785127287	-0.4604562108	-0.8339604359	 0.080098
H	-0.5150818622	-2.5644405801	 0.1475409865	 0.102735
H	-2.1212827788	-2.4455158244	 0.927697777	 0.112423
107.2769	247.5425	256.1432	273.3934	278.1855	343.5005	423.9385	439.9592	471.3098	493.8074	574.9446	640.5391	752.2123	815.5233	833.8827	893.4466	932.237	940.6602	948.0915	982.6742	1014.0498	1039.2416	1057.0908	1115.2195	1126.319	1166.5938	1177.7609	1207.7644	1223.7311	1246.0733	1255.979	1270.5965	1284.0443	1335.1427	1342.677	1368.4063	1402.5146	1430.4679	1477.6891	1495.4102	1529.3602	2981.6722	3002.8003	3042.5401	3044.7206	3070.2858	3096.5239	3125.7213	3129.157	3806.9523	3824.2964
OC1CC2(O)COC1C2	O[C@H]1C[C@@]2(O)CO[C@@H]1C2	
InChI=1S/C6H10O3/c7-4-1-6(8)2-5(4)9-3-6/h4-5,7-8H,1-3H2	InChI=1S/C6H10O3/c7-4-1-6(8)2-5(4)9-3-6/h4-5,7-8H,1-3H2/t4-,5+,6-/m0/s1
