20
gdb 92281	3.60028	1.26889	1.07552	1.8505	77.97	-0.2451	0.0267	0.2719	1169.7646	0.173988	-403.188948	-403.181268	-403.180324	-403.221288	30.164	
C	-0.6571611078	 1.4124967818	-0.0083146999	-0.402876
C	 0.023115671	 0.0458005463	 0.0261920401	 0.036451
C	 0.8055197895	-0.309100011	-1.2553102412	-0.240528
C	 1.7094860496	-1.4762435659	-0.836744209	 0.083286
O	 3.0522101818	-1.3727323765	-1.3775474806	-0.232626
C	 3.8580410563	-1.1764775568	-0.3051619608	 0.107642
N	 3.3742720437	-1.1526066239	 0.8663841689	-0.270457
C	 1.9219368477	-1.3394073182	 0.7057207762	-0.008875
C	 1.0828119665	-0.1149888352	 1.1346560846	-0.219851
H	 0.0792759329	 2.2104597437	-0.1585429298	 0.115957
H	-1.388103503	 1.4747906851	-0.8214403069	 0.113553
H	-1.1843472007	 1.6174311994	 0.929220006	 0.11551
H	-0.748456066	-0.7236769186	 0.1762629522	 0.073672
H	 0.1594865988	-0.5454052209	-2.105113032	 0.100459
H	 1.4411631827	 0.5352535038	-1.5487109829	 0.109483
H	 1.315649555	-2.4468381163	-1.1470748111	 0.090872
H	 4.9058935534	-1.0476620683	-0.5548440777	 0.137409
H	 1.6146314602	-2.235848982	 1.2526430582	 0.084599
H	 1.7326622187	 0.7678134307	 1.1591523874	 0.105994
H	 0.6464276696	-0.2263644373	 2.1306702181	 0.100326
90.6781	111.8528	236.7484	269.6959	324.9084	410.1842	429.81	493.7137	568.7669	598.4863	729.334	814.4524	841.1838	887.0453	892.7592	926.2677	932.5981	961.3916	968.829	985.7003	1051.3884	1063.1169	1082.5795	1119.7245	1134.2863	1152.0549	1184.6753	1234.3435	1272.1117	1273.0612	1300.0437	1321.0955	1329.8001	1337.3399	1355.8502	1377.9391	1385.047	1414.3646	1485.0062	1495.4886	1497.4822	1501.6135	1695.1276	2994.5905	3026.6047	3037.5178	3044.0134	3051.8554	3076.6484	3092.9591	3096.9388	3099.0062	3103.4704	3210.5494
CC1CC2OC=NC2C1	C[C@H]1C[C@H]2OC=N[C@H]2C1	
InChI=1S/C7H11NO/c1-5-2-6-7(3-5)9-4-8-6/h4-7H,2-3H2,1H3	InChI=1S/C7H11NO/c1-5-2-6-7(3-5)9-4-8-6/h4-7H,2-3H2,1H3/t5-,6+,7-/m1/s1
