23
gdb 86416	2.28498	1.70912	1.22875	1.107	85.43	-0.2434	0.0852	0.3286	1141.2913	0.207179	-388.29581	-388.287375	-388.28643	-388.328282	34.189	
C	-0.4486542048	 1.336066918	 0.981590632	-0.399783
C	 0.299279012	 0.1471653385	 0.3927225717	 0.14696
O	 0.9595840358	 0.6261984375	-0.7808284894	-0.29
C	 2.0747083336	-0.1394425454	-1.2423125444	 0.146961
C	 2.9084117342	 0.7940867953	-2.1101255413	-0.399783
C	 2.8539332905	-0.7279871358	-0.0524448056	-0.019659
C	 1.9403308782	-1.731515145	 0.6974066668	-0.251512
C	 1.3149109581	-0.4795682261	 1.3648534099	-0.019653
C	 2.6914246427	 0.2191528294	 1.1711041287	-0.23
H	 0.2518307019	 2.0927646767	 1.3486930746	 0.119393
H	-1.0804773838	 1.798517902	 0.2184575357	 0.123163
H	-1.0845272958	 1.0160278547	 1.8128634925	 0.109232
H	-0.4319409417	-0.6301035368	 0.1079716834	 0.060367
H	 1.7100523138	-0.9759116617	-1.864619886	 0.060366
H	 3.3521117325	 1.5924770228	-1.5070217557	 0.119398
H	 3.713191101	 0.2415966176	-2.604958981	 0.109232
H	 2.2806257131	 1.2555232293	-2.8771980113	 0.123158
H	 3.8526396201	-1.0498949073	-0.3577126493	 0.058887
H	 1.2841685762	-2.3718072037	 0.097116045	 0.086651
H	 2.4965363253	-2.3473326862	 1.4093143601	 0.092077
H	 0.8923689699	-0.5720633292	 2.3684150709	 0.058887
H	 3.3891982358	-0.032997293	 1.9730100799	 0.09289
H	 2.7033494213	 1.2972190483	 0.9950957829	 0.102767
110.8994	173.4139	235.1654	242.7501	253.8382	346.6098	356.6329	406.4303	439.6298	498.0034	574.3371	605.8415	767.2808	796.5977	832.5219	861.6351	898.3319	899.7258	925.2196	972.3857	990.2298	1027.6432	1028.0643	1048.9945	1059.6016	1094.3001	1104.7265	1130.6627	1153.7928	1155.9822	1178.6428	1190.362	1247.6881	1266.9524	1271.9194	1322.9223	1328.8562	1338.998	1375.3338	1376.0911	1399.2967	1405.4847	1416.513	1474.2068	1485.1654	1487.4126	1496.4396	1497.8176	1505.7711	2936.3247	2942.3404	3034.9258	3039.2724	3039.5613	3060.0146	3075.3108	3078.0784	3096.7294	3111.7811	3112.041	3118.2814	3119.564	3119.9298
CC1OC(C)C2CC1C2	C[C@H]1O[C@@H](C)[C@@H]2C[C@H]1C2	
InChI=1S/C8H14O/c1-5-7-3-8(4-7)6(2)9-5/h5-8H,3-4H2,1-2H3	InChI=1S/C8H14O/c1-5-7-3-8(4-7)6(2)9-5/h5-8H,3-4H2,1-2H3/t5-,6+,7-,8+
