15
gdb 132492	3.06252	1.2713	0.90337	0.4813	71.58	-0.2338	-0.0139	0.2199	1175.2877	0.11152	-469.95192	-469.944212	-469.943268	-469.984425	29.069	
C	-0.0288114475	 1.5269481566	 0.0259809239	-0.497472
C	-0.0022373252	 0.0223225087	-0.015833061	 0.191525
C	-0.0226300035	-0.6957155926	-1.2115859651	-0.344535
C	 0.0034595205	-2.0841816912	-1.1943093572	 0.315204
F	-0.0171079237	-2.7452980755	-2.3587044375	-0.083693
C	 0.0500208746	-2.8011032561	-0.0088699331	-0.257877
C	 0.0708610713	-2.0975145955	 1.193321826	-0.222613
C	 0.0446541147	-0.7130165388	 1.1692668615	 0.219569
F	 0.0649622685	-0.0409059235	 2.331425966	-0.079884
H	 0.8569178021	 1.9242308675	 0.5327523164	 0.142442
H	-0.0647754438	 1.946099016	-0.9817968604	 0.126587
H	-0.8988297147	 1.8918530803	 0.5819327973	 0.142442
H	-0.0589479031	-0.1796831044	-2.1645233435	 0.11212
H	 0.0693243556	-3.8837159533	-0.0322374776	 0.118218
H	 0.1071452543	-2.6107015282	 2.1468358442	 0.117967
83.3487	155.4769	210.1601	268.7225	342.1587	387.23	446.4776	459.1573	496.1055	579.5074	589.8812	719.7393	730.8625	781.3933	836.4123	887.821	931.4126	967.5571	1016.2219	1061.8902	1116.9542	1166.9066	1237.961	1268.2766	1325.1943	1338.0225	1414.6406	1445.8637	1479.843	1493.0555	1538.6311	1640.6619	1660.3981	3039.667	3093.5612	3127.6973	3195.0686	3201.6331	3215.931
CC1=CC(F)=CC=C1F	Cc1cc(F)ccc1F	
InChI=1S/C7H6F2/c1-5-4-6(8)2-3-7(5)9/h2-4H,1H3	InChI=1S/C7H6F2/c1-5-4-6(8)2-3-7(5)9/h2-4H,1H3
