16
gdb 79440	2.91687	1.81495	1.38524	3.7763	67.98	-0.2207	-0.0236	0.1971	936.7635	0.124695	-437.814411	-437.807551	-437.806607	-437.84551	27.319	
C	-0.221718559	 1.4377959948	 0.0919538306	-0.32843
N	 0.0063234714	-0.0023943484	 0.0392454231	-0.114157
C	 0.7764021645	-0.4270242178	-1.1569371523	-0.046953
C	 2.1535214799	-0.2802761077	-0.4697979143	 0.099777
O	 2.5934773501	-1.5858821143	-0.892822066	-0.300998
C	 1.1679929378	-1.9340659413	-0.9176736422	-0.073449
C	 0.9518593626	-1.9635638136	 0.6099113203	 0.520921
O	 0.6906614249	-2.8461690422	 1.3685255427	-0.325017
C	 1.2255727996	-0.4597849894	 0.8107732019	-0.200622
H	 0.6762530149	 2.0477701779	-0.1089887509	 0.100968
H	-0.9864778989	 1.7035247493	-0.6449510697	 0.128932
H	-0.600728518	 1.7057538975	 1.0822725212	 0.132902
H	 0.4825303525	-0.0795768959	-2.1464847791	 0.095781
H	 2.9033489974	 0.5041366038	-0.5507473199	 0.105082
H	 0.9106117153	-2.7814776858	-1.5465836722	 0.107403
H	 1.403284375	-0.062470557	 1.8060063467	 0.097859
150.7987	205.211	239.7795	286.1449	411.8151	452.7346	515.0817	596.6786	725.6079	742.0527	790.9625	807.3396	832.9847	844.986	868.1363	918.8784	944.3988	951.0242	1015.0539	1097.1173	1110.1687	1119.5448	1151.3007	1167.8712	1175.6789	1182.8096	1203.8406	1236.7099	1258.0092	1296.5967	1325.4908	1454.0712	1493.3382	1498.4262	1914.5196	2954.6864	3068.8699	3110.6451	3128.9477	3141.114	3170.9378	3174.39
CN1C2C3OC2C(=O)C13	CN1[C@H]2[C@@H]3O[C@H]2C(=O)[C@H]13	
InChI=1S/C6H7NO2/c1-7-2-4(8)6-3(7)5(2)9-6/h2-3,5-6H,1H3	InChI=1S/C6H7NO2/c1-7-2-4(8)6-3(7)5(2)9-6/h2-3,5-6H,1H3/t2-,3-,5+,6+/m0/s1
