17
gdb 7250	4.77787	1.18442	0.96627	3.8563	72.6	-0.2405	0.0282	0.2687	1190.2129	0.139083	-363.85188	-363.842181	-363.841237	-363.887301	33.123	
C	-0.1161196439	 1.4351493949	 0.0887714608	-0.343238
N	-0.0369846966	-0.0146201134	 0.0052514317	-0.095677
C	 0.0218052452	-0.7011882716	 1.2803299986	-0.338969
C	-0.0244291645	-0.6034682375	-1.2355191751	 0.441154
O	-0.0768821242	 0.0400925024	-2.2648636036	-0.35894
C	 0.0608823309	-2.145918486	-1.258475299	-0.548102
C	 0.0693237454	-2.6908862133	-2.606430584	 0.349685
C	 0.0790876288	-3.1858126121	-3.6997774099	-0.421464
H	 0.7600300022	 1.8394966636	 0.6115015284	 0.120569
H	-0.1547671195	 1.8356149971	-0.9222858618	 0.173174
H	-1.0142681369	 1.7409914177	 0.6402938893	 0.120569
H	-0.8684415276	-0.4753275711	 1.8827501475	 0.129175
H	 0.079484834	-1.7802992239	 1.1573761222	 0.143489
H	 0.9008208449	-0.377459352	 1.8539132667	 0.129173
H	 0.96504247	-2.4665535467	-0.7253560342	 0.152147
H	-0.7844903917	-2.5638120396	-0.6970227297	 0.15215
H	 0.0863541534	-3.6017012086	-4.6765024177	 0.195105
31.9687	68.4408	125.8796	133.8569	149.4154	228.887	286.0482	339.2699	382.9909	404.3586	470.616	563.1017	617.8547	621.2879	645.7276	809.5112	949.9445	956.2804	1008.4102	1083.0405	1130.3744	1141.6501	1177.6228	1228.5429	1280.5835	1316.7187	1421.6603	1431.7526	1455.308	1479.6382	1482.8058	1502.5448	1504.8632	1543.3201	1772.5188	2252.9931	3004.5799	3014.7424	3020.4015	3044.8411	3053.6906	3059.5145	3169.5418	3174.9417	3508.4254
CN(C)C(=O)CC#C	CN(C)C(=O)CC#C	
InChI=1S/C6H9NO/c1-4-5-6(8)7(2)3/h1H,5H2,2-3H3	InChI=1S/C6H9NO/c1-4-5-6(8)7(2)3/h1H,5H2,2-3H3
