21
gdb 107650	2.9705	1.27195	1.04342	1.6762	83.9	-0.234	0.016	0.2499	1219.2445	0.184127	-387.086689	-387.078078	-387.077134	-387.119933	33.546	
O	 0.1413743664	 1.3491949169	 0.5077794989	-0.419617
C	 0.0027628803	 0.0517182902	-0.0564029054	-0.147413
C	-1.4236728958	-0.473941388	-0.029217044	 0.325131
C	-1.8988432792	-1.1277334935	 1.2513281758	-0.322522
C	-1.6249112541	-1.9721873893	 0.0262326776	-0.077965
C	-2.7800425145	-2.5748209637	-0.7729244063	-0.229133
C	-3.0739542944	-1.7907943769	-2.0671984562	-0.257352
C	-3.134654383	-0.3042275639	-1.8077090501	-0.052348
C	-2.3984584275	 0.2823658305	-0.8625950271	-0.16642
H	-0.2454185035	 1.9804882002	-0.1060324124	 0.284659
H	 0.3868602516	 0.0292651126	-1.0882272892	 0.088125
H	 0.6429379907	-0.6023258137	 0.5457812704	 0.102049
H	-1.2030861865	-1.1729610155	 2.0831863795	 0.111358
H	-2.935900664	-0.9865831238	 1.5380190467	 0.109554
H	-0.718218341	-2.5703603424	 0.0559539558	 0.078954
H	-2.5625688659	-3.6213079397	-1.0104430051	 0.096688
H	-3.6891231426	-2.5802831756	-0.1611470051	 0.103771
H	-2.2987580291	-2.0020065379	-2.8183774826	 0.109643
H	-4.0158752668	-2.1367018773	-2.5070905552	 0.099782
H	-3.8139757228	 0.2897489394	-2.4138756968	 0.086532
H	-2.4870078382	 1.3526720715	-0.6846658493	 0.076525
73.7587	125.2733	157.1601	252.4221	266.4967	306.4532	356.9624	420.3229	474.5844	513.92	561.3795	684.5865	728.5186	778.1107	796.2416	881.1816	898.4078	926.3897	950.0695	963.2691	988.8264	1000.479	1025.2729	1046.9906	1063.7292	1079.8882	1100.9188	1125.6582	1182.75	1209.3038	1216.175	1238.0809	1272.2585	1319.5844	1347.3036	1374.0873	1384.3518	1407.5343	1416.2215	1430.2772	1476.7382	1484.3369	1492.5905	1501.3567	1707.6142	2981.0162	3001.5037	3034.2193	3059.6542	3065.1559	3075.1138	3123.9494	3131.4669	3138.535	3163.4017	3211.6695	3828.8038
OCC12CC1CCC=C2	OC[C@]12C[C@H]1CCC=C2	
InChI=1S/C8H12O/c9-6-8-4-2-1-3-7(8)5-8/h2,4,7,9H,1,3,5-6H2	InChI=1S/C8H12O/c9-6-8-4-2-1-3-7(8)5-8/h2,4,7,9H,1,3,5-6H2/t7-,8+/m1/s1
