13
gdb 25741	2.88998	1.61489	1.03599	4.6892	63.34	-0.2341	-0.0396	0.1945	1040.7934	0.090382	-489.957017	-489.949219	-489.948275	-489.989833	27.899	
N	 0.0022458097	 1.3214638328	-0.0126540512	-0.553806
C	 0.0246167931	-0.0338394935	 0.0273051409	 0.369696
O	 1.0697424676	-0.6940137482	 0.0643831377	-0.422975
C	-1.2315489307	-0.746786246	 0.0260761996	 0.077343
C	-1.3945717998	-2.1079790449	 0.0628831523	 0.324315
O	-0.4471788328	-3.0302382348	 0.106489532	-0.393483
N	-2.7351023027	-2.4171914813	 0.0481789358	-0.304921
C	-3.3160730012	-1.2571761526	 0.004058807	 0.071732
O	-2.49707355	-0.1894206548	-0.0125339589	-0.194817
H	 0.877422415	 1.817379543	-0.0133509445	 0.270779
H	-0.8614660408	 1.8342104163	-0.0441019002	 0.272934
H	 0.3945437639	-2.5224178256	 0.106492126	 0.321105
H	-4.3757414812	-1.0548089405	-0.0205676365	 0.162098
93.7695	113.3743	166.5267	168.1443	327.716	338.9707	461.8477	541.4162	547.2639	634.0413	678.3633	722.861	741.1513	746.2649	793.911	860.6073	947.6145	1067.5875	1100.0163	1163.7099	1205.375	1296.0068	1331.8391	1457.6416	1503.1795	1549.5552	1616.156	1649.3728	1725.0368	3274.8374	3488.9002	3611.3115	3748.5908
NC(=O)C1=C(O)N=CO1	NC(=O)c1c(O)nco1	
InChI=1S/C4H4N2O3/c5-3(7)2-4(8)6-1-9-2/h1,8H,(H2,5,7)	InChI=1S/C4H4N2O3/c5-3(7)2-4(8)6-1-9-2/h1,8H,(H2,5,7)
