18
gdb 34341	2.79768	1.59716	1.28869	4.258	79.43	-0.2579	0.02	0.2779	1023.6993	0.149373	-364.776626	-364.769331	-364.768387	-364.808145	29.457	
N	 0.0012603559	-1.13907851	 0.0092815502	-0.348807
C	-0.0103310297	 0.018305452	 0.0148719285	 0.200545
C	-0.0225762135	 1.460032666	 0.0149443567	 0.194173
C	-0.4559998833	 2.1782247955	-1.3100711194	-0.29511
C	 0.881448396	 2.9854573257	-1.3112438831	-0.241661
C	 1.3166201845	 2.2826104219	 0.0072189139	-0.064244
C	 0.9296619541	 2.9067570628	 1.3656959586	-0.051089
C	-0.3983339593	 3.6067980158	 1.3197549194	-0.306225
C	-0.3790931713	 2.1080824765	 1.3834367824	-0.095763
H	-0.5495013708	 1.4862734879	-2.1482073721	 0.127193
H	-1.3785883792	 2.7565556438	-1.232191277	 0.116186
H	 1.5259383713	 2.7415890386	-2.1580214061	 0.113866
H	 0.7867788016	 4.0721394149	-1.2549066477	 0.11085
H	 2.2691038055	 1.7553324702	 0.0077930871	 0.095387
H	 1.6308117928	 3.0775875535	 2.1729351734	 0.097298
H	-0.6884892167	 4.0829366329	 2.2510035525	 0.123198
H	-0.7376842215	 4.1422795422	 0.4393136438	 0.117414
H	-0.8431614966	 1.5580613898	 2.1922211089	 0.106789
138.4295	152.6512	222.4857	305.2853	360.031	456.2491	528.5952	546.5729	577.4907	670.2466	735.5184	765.8978	789.7796	831.8952	915.0109	921.6046	939.1549	946.1015	957.9773	998.5485	1026.4266	1043.3725	1063.8138	1085.6886	1114.272	1143.6709	1146.5163	1188.0592	1210.5337	1236.2274	1250.6212	1263.8696	1305.4846	1314.3061	1356.3172	1474.8735	1483.4627	1503.0286	2343.0611	3070.5824	3079.1975	3114.8326	3129.1174	3131.2848	3139.038	3185.496	3194.1892	3210.1409
N#CC12CCC1C1CC21	N#C[C@]12CC[C@H]1[C@H]1C[C@@H]21	
InChI=1S/C8H9N/c9-4-8-2-1-6(8)5-3-7(5)8/h5-7H,1-3H2	InChI=1S/C8H9N/c9-4-8-2-1-6(8)5-3-7(5)8/h5-7H,1-3H2/t5-,6+,7-,8-/m1/s1
