20
gdb 93106	2.32848	1.82353	1.19917	2.3373	79.04	-0.2426	0.0303	0.2728	1079.5681	0.172371	-403.153973	-403.14578	-403.144836	-403.186513	32.133	
C	-0.1102398806	 1.5284311181	-0.1178720584	-0.426471
C	 0.0286648398	 0.0252867454	 0.0554147634	 0.073184
O	 0.7083468755	-0.4520388469	-1.1340884297	-0.240391
C	 1.2343327254	-1.6979714993	-1.070318256	 0.132133
N	 1.3311440929	-2.4840112544	-0.0850995457	-0.271637
C	 0.8667109375	-2.0010329486	 1.213065497	-0.225821
C	 0.7594974043	-0.4866225676	 1.2833464394	 0.313109
C	 1.9111012693	 0.2803802603	 1.8852407099	-0.298411
C	 0.6023887262	 0.1636507197	 2.6304107637	-0.327657
H	 0.8672147481	 2.0157105386	-0.156614712	 0.132162
H	-0.6279117481	 1.7377219109	-1.0573937959	 0.132792
H	-0.6942485781	 1.9635867762	 0.6970834742	 0.123978
H	-0.9738619486	-0.4280674666	 0.0443608111	 0.088138
H	 1.6073479353	-1.9890095167	-2.0513015747	 0.119822
H	-0.106038336	-2.4658865766	 1.4308977534	 0.108105
H	 1.5569951478	-2.3695219749	 1.9807944292	 0.10563
H	 2.760335859	-0.2922008147	 2.2427654386	 0.118538
H	 2.1749943008	 1.2480225189	 1.474335003	 0.115748
H	-0.0139306191	 1.0516463308	 2.7173980427	 0.112581
H	 0.5582082086	-0.4883796626	 3.4972906768	 0.11447
94.6822	130.0773	228.455	267.2357	281.6878	349.1677	358.7534	448.8203	476.3171	525.2798	551.1961	705.7601	781.9818	827.6297	859.2475	887.7062	928.3493	952.8632	961.6388	967.922	1001.471	1035.5588	1056.7265	1072.836	1085.7122	1108.0993	1150.7757	1168.4896	1186.832	1237.3839	1282.1767	1331.1385	1364.6889	1388.4589	1393.5957	1407.6993	1419.7827	1465.5806	1486.8087	1488.1181	1503.1296	1510.7437	1735.4098	2989.1891	3001.2729	3047.0991	3053.6478	3126.5683	3127.683	3132.7165	3137.0183	3151.4172	3206.8266	3222.7959
CC1OC=NCC11CC1	C[C@H]1OC=NCC21CC2	
InChI=1S/C7H11NO/c1-6-7(2-3-7)4-8-5-9-6/h5-6H,2-4H2,1H3	InChI=1S/C7H11NO/c1-6-7(2-3-7)4-8-5-9-6/h5-6H,2-4H2,1H3/t6-/m1/s1
