13
gdb 129754	3.43379	1.25964	0.92224	5.6596	67.23	-0.2345	-0.0678	0.1667	1149.9177	0.088663	-489.878681	-489.870622	-489.869678	-489.911273	29.449	
N	 0.0603379759	 1.4587812008	-0.1203181826	-0.61615
C	-0.0074312201	 0.0858515556	-0.0554440736	 0.020155
C	-1.0663274554	-0.7924694511	-0.0109998285	 0.304912
O	-0.5999643238	-2.0751480586	-0.0273945732	-0.220019
N	 0.7781243981	-2.0508427927	-0.083115162	-0.225966
C	 1.11930369	-0.7900558167	-0.1006527607	 0.441815
O	 2.3895889031	-0.3567832719	-0.1455749734	-0.427709
C	-2.4957096155	-0.5524923433	 0.047906012	 0.075552
O	-3.3559029577	-1.4029205137	 0.0862804895	-0.273706
H	 0.9506107488	 1.8463809649	 0.1561159859	 0.272633
H	-0.7231114497	 1.9706458313	 0.2551312032	 0.266015
H	 2.9727840468	-1.1273678131	-0.1563059501	 0.319546
H	-2.7507029306	 0.5323979584	 0.0542541234	 0.062922
105.7665	168.3198	197.0668	249.5232	286.5975	330.894	367.2488	397.0118	444.8001	549.4658	555.222	609.3274	673.3512	748.8683	781.1548	795.631	979.7015	1007.7336	1045.5925	1200.8214	1215.5072	1243.5235	1381.51	1436.7441	1536.9446	1596.1602	1641.3866	1689.9642	1785.1936	2856.7454	3575.1523	3678.3748	3787.4328
NC1=C(ON=C1O)C=O	Nc1c(onc1O)C=O	
InChI=1S/C4H4N2O3/c5-3-2(1-7)9-6-4(3)8/h1H,5H2,(H,6,8)	InChI=1S/C4H4N2O3/c5-3-2(1-7)9-6-4(3)8/h1H,5H2,(H,6,8)
