21
gdb 108033	3.41805	1.31529	1.2276	0.5225	86.51	-0.2142	0.02	0.2342	1134.5583	0.18412	-349.934059	-349.926253	-349.925309	-349.966255	31.755	
C	 0.0615266194	 1.4927215173	-0.1983293192	-0.371517
C	-0.0184868246	-0.0026256835	 0.1383973445	-0.300181
C	-1.4257539474	-0.5347655481	 0.124398863	 0.367526
C	-2.4975101569	-0.2279937274	 1.1692194916	-0.281946
C	-3.2520001494	-1.5468044262	 0.7321063105	-0.099055
C	-4.2203497597	-1.1591513701	-0.3652266235	-0.093309
C	-3.5227242883	-0.800329343	-1.4481505027	-0.082513
C	-2.0712178684	-1.0366638414	-1.2036999432	-0.121834
C	-1.936388522	-1.9514235052	-0.0133444867	-0.142789
H	 1.0957662175	 1.8494022439	-0.1712810998	 0.109155
H	-0.3404714842	 1.6910975494	-1.1971625819	 0.117874
H	-0.5160873912	 2.0896887651	 0.51523426	 0.119035
H	 0.5909768284	-0.5728681842	-0.574657881	 0.093965
H	 0.4272413453	-0.178139995	 1.1272146422	 0.094399
H	-2.0758412871	-0.3389540454	 2.1726490895	 0.097505
H	-3.0601100797	 0.7099692291	 1.1076223132	 0.087111
H	-3.6343902815	-2.1760081012	 1.5343306801	 0.065549
H	-5.2853317534	-1.0350396519	-0.2111956198	 0.09172
H	-3.9160556857	-0.3625620709	-2.3573704505	 0.091934
H	-1.3718642909	-1.1319919358	-2.0272491888	 0.076779
H	-1.4160712403	-2.9027052156	 0.0011964325	 0.080592
83.4926	135.2458	208.1467	315.1257	332.1902	376.7756	419.3032	547.7513	606.1566	707.6065	711.1645	753.5876	786.032	801.7055	847.9828	862.1897	881.3432	889.7905	930.6994	947.5554	976.7809	996.3372	1004.4934	1027.5228	1034.5487	1080.628	1085.4648	1118.1586	1142.0402	1187.1892	1191.4817	1224.4894	1257.537	1278.3604	1288.6761	1327.0134	1350.3563	1360.7837	1407.6404	1419.4214	1481.9756	1489.5435	1498.47	1507.8341	1643.7014	3007.8597	3032.7688	3035.2131	3040.9421	3090.9731	3103.2535	3106.4864	3120.9731	3165.2827	3175.2269	3195.3937	3220.6076
CCC12CC3C=CC1C23	CC[C@@]12C[C@H]3C=C[C@@H]1[C@@H]23	
InChI=1S/C9H12/c1-2-9-5-6-3-4-7(9)8(6)9/h3-4,6-8H,2,5H2,1H3	InChI=1S/C9H12/c1-2-9-5-6-3-4-7(9)8(6)9/h3-4,6-8H,2,5H2,1H3/t6-,7-,8+,9-/m1/s1
