16
gdb 71185	2.64934	1.64212	1.35109	3.2373	71.96	-0.2618	0.0211	0.2829	974.4857	0.124682	-400.710488	-400.703039	-400.702094	-400.742262	29.184	
O	-0.0963807706	 1.4318652641	 0.0311895983	-0.472563
C	-0.0608732771	 0.056664319	 0.0030529317	 0.377559
C	 0.4766486597	-0.7532530488	-1.2090539425	-0.315028
C	-0.5154318658	-1.8305839572	-0.7710870862	-0.055358
C	-0.5452385246	-1.8441537455	 0.7632217879	-0.072749
C	-1.3615028995	-0.8391512564	-0.0108603882	-0.144513
C	 0.4193137477	-0.7652370027	 1.2644816116	-0.204952
C	 1.8398224044	-1.0492536918	 1.4238030564	 0.253643
N	 2.9738300444	-1.2567495355	 1.5207811113	-0.336211
H	 0.7860973483	 1.7717097459	-0.1589021145	 0.294643
H	 0.1589311216	-0.283503575	-2.1434516094	 0.112949
H	 1.5458062604	-0.9870896596	-1.2394116233	 0.119206
H	-0.8510366008	-2.6910123171	-1.3336428068	 0.100543
H	-0.897720513	-2.7009757077	 1.3201480441	 0.107197
H	-2.4145100412	-0.6037494748	-0.0112287806	 0.109034
H	 0.028468806	-0.2889576369	 2.1673077004	 0.126601
124.2464	144.8183	201.8991	308.6152	352.1123	413.6717	424.9061	550.7202	568.8825	640.2919	723.7685	767.8718	802.3331	808.9857	874.7835	929.4313	939.9079	965.2569	984.594	1009.1361	1032.2813	1046.4227	1074.0125	1099.8458	1138.6737	1164.797	1177.1968	1239.6332	1264.3883	1296.8886	1347.5183	1360.7009	1394.3245	1499.7238	2344.6022	3048.7078	3087.136	3113.5204	3208.8843	3216.9316	3243.2501	3793.3811
OC12CC3C(C13)C2C#N	O[C@]12C[C@H]3[C@H]([C@@H]13)[C@H]2C#N	
InChI=1S/C7H7NO/c8-2-4-5-3-1-7(4,9)6(3)5/h3-6,9H,1H2	InChI=1S/C7H7NO/c8-2-4-5-3-1-7(4,9)6(3)5/h3-6,9H,1H2/t3-,4+,5-,6-,7-/m0/s1
