19
gdb 10343	2.24845	1.69885	1.12892	5.1496	67.8	-0.2444	0.0237	0.2681	1118.2352	0.164907	-402.234228	-402.22494	-402.223995	-402.268678	32.876	
C	 0.0945805231	 1.5862242424	-0.0049222552	-0.39847
C	 0.0903174306	 0.0562280807	 0.0666848696	-0.19979
C	 0.7597723871	-0.5126237701	 1.3307896421	-0.093463
N	-0.0329674323	-0.25462438	 2.5384572942	-0.31893
H	-0.6393916664	 0.5445493254	 2.4014709563	 0.232341
H	-0.4218659169	-2.0946110235	 2.3938534013	 0.30278
C	 0.757999117	-0.0818417588	 3.7584758036	-0.329603
C	 0.9405262805	-2.0355166469	 1.1491358421	 0.426485
O	 1.7419581814	-2.5146187446	 0.392462771	-0.347714
O	 0.0923774307	-2.7645767787	 1.887179048	-0.368233
H	 1.117176089	 1.9775114812	 0.0144664993	 0.126661
H	-0.3783452006	 1.9293962007	-0.9295988879	 0.127436
H	-0.4517563926	 2.0481696395	 0.8253708061	 0.10929
H	-0.9376304879	-0.3250417656	 0.0111531031	 0.107875
H	 0.6255902822	-0.3562904455	-0.7930395584	 0.139526
H	 1.7708614023	-0.0859387138	 1.4079794353	 0.093943
H	 1.4949034583	 0.7329108277	 3.6880139685	 0.116993
H	 0.0908758751	 0.1210459725	 4.6004458688	 0.129076
H	 1.2997391296	-1.0078970027	 3.975595912	 0.143798
54.6241	103.5616	120.3758	178.7146	204.9572	213.2513	281.2242	323.0353	355.3741	458.0968	525.4928	646.7529	724.84	754.1966	776.8308	877.319	893.4349	935.2092	964.8827	1053.5863	1094.5379	1099.8967	1140.2381	1158.6409	1204.8245	1236.7142	1285.3161	1301.9091	1361.7596	1375.2053	1415.001	1419.1902	1464.6694	1469.6437	1486.8628	1497.9003	1500.9883	1503.0684	1517.1885	1870.1545	2988.8091	2997.2091	3031.0596	3033.2195	3077.2154	3084.2216	3106.6195	3111.5131	3117.5902	3437.2631	3551.7374
CCC([NH2+]C)C([O-])=O	CC[C@@H](NC)C(=O)O	
InChI=1S/C5H11NO2/c1-3-4(6-2)5(7)8/h4,6H,3H2,1-2H3,(H,7,8)	InChI=1S/C5H11NO2/c1-3-4(6-2)5(7)8/h4,6H,3H2,1-2H3,(H,7,8)/t4-/m1/s1
