18
gdb 16225	2.86024	2.28598	1.42675	1.7343	74.26	-0.2312	0.0189	0.2501	908.7061	0.153804	-347.807429	-347.799697	-347.798753	-347.839715	29.088	
C	-0.2339469311	 1.4829089873	 0.0752992254	-0.507957
C	-0.0394046884	 0.0018240694	 0.0050725934	 0.273625
C	 0.0160245088	-0.7763290155	-1.078890318	-0.174676
C	 0.2256219501	-2.2366853819	-0.7603096947	-0.266358
C	 0.1092197465	-2.2948690018	 0.7852722775	-0.312873
C	 0.1077344844	-0.8320886787	 1.2376364618	 0.376741
C	 0.737474214	-0.3541708375	 2.4803841684	-0.251578
O	-0.6825027432	-0.4820041432	 2.3885553989	-0.281241
H	 0.671966612	 1.991318248	 0.4290955863	 0.125076
H	-0.4896326483	 1.8992168441	-0.9021729677	 0.123134
H	-1.0323511082	 1.7288100691	 0.7836506032	 0.144054
H	-0.0596293703	-0.412567756	-2.0986007281	 0.089632
H	-0.5078846179	-2.8795929011	-1.2607773355	 0.107717
H	 1.2110035303	-2.5768892352	-1.105218218	 0.108785
H	-0.8381358319	-2.7483881167	 1.0911905764	 0.124108
H	 0.9117605999	-2.8741543433	 1.2481529637	 0.10452
H	 1.2319663448	-1.073555689	 3.1335365353	 0.109697
H	 1.1123865385	 0.6661238022	 2.5562295218	 0.107593
50.7251	150.7887	220.8634	248.6279	271.2041	350.7931	409.5055	518.1955	592.999	642.045	724.8598	780.8502	834.8714	871.4482	894.0335	923.2315	958.1487	998.1636	1038.3735	1052.6238	1074.2765	1111.133	1128.9356	1163.5289	1172.8684	1233.2859	1248.6362	1289.0517	1327.2671	1341.5878	1408.6365	1412.2074	1475.7273	1479.3505	1493.7049	1500.8148	1527.0221	1720.3217	3018.4879	3024.3776	3047.796	3063.3184	3072.3467	3079.9575	3105.6187	3119.7337	3156.6851	3183.2377
CC1=CCCC11CO1	CC1=CCC[C@]21CO2	
InChI=1S/C7H10O/c1-6-3-2-4-7(6)5-8-7/h3H,2,4-5H2,1H3	InChI=1S/C7H10O/c1-6-3-2-4-7(6)5-8-7/h3H,2,4-5H2,1H3/t7-/m1/s1
