15
gdb 17713	6.84325	1.51176	1.45571	3.6514	66.16	-0.2493	-0.0148	0.2345	870.3511	0.118683	-362.575774	-362.569251	-362.568307	-362.606275	25.16	
C	-0.1582720556	 1.5935091993	 0.0195440033	-0.420999
C	-0.0172851795	 0.088777566	-0.0560854512	 0.065282
C	 0.9087339096	-0.589833657	-1.0639224396	-0.065839
C	 2.1513510417	-0.2267281901	-0.1748778547	-0.177983
N	 1.0293685495	-0.5484589692	 0.8758925972	-0.16874
C	 1.0595614629	-1.796246783	-0.070406334	-0.167413
C	 2.5726449223	-1.688078026	-0.15446351	 0.495905
O	 3.5464855234	-2.3701104661	-0.2236615036	-0.323218
H	 0.7956179808	 2.1088425666	-0.1252560757	 0.121316
H	-0.8544308752	 1.9493217328	-0.747571886	 0.125187
H	-0.5581537333	 1.8855163449	 0.9960684637	 0.135864
H	-0.9937895628	-0.3932033708	 0.0755824583	 0.081856
H	 0.8751072375	-0.6396404899	-2.1567908634	 0.085602
H	 2.7181625903	 0.7001308298	-0.1384527534	 0.10767
H	 0.3716708584	-2.6263618572	 0.0798598892	 0.105509
143.5781	198.3003	208.074	305.0268	437.5043	550.8633	648.1719	680.3452	732.9058	785.7361	805.2597	810.2229	837.4945	884.0524	1007.7702	1019.7636	1040.3569	1057.7886	1067.5028	1109.2804	1124.31	1137.27	1157.9719	1196.9496	1236.2158	1253.9907	1276.2746	1404.4341	1422.1204	1491.2765	1492.2328	1926.3258	3032.3665	3037.486	3056.6329	3103.6804	3114.8107	3144.2667	3157.2988
CC1C2C3N1C2C3=O	C[C@H]1[C@H]2[C@H]3N1[C@@H]2C3=O	
InChI=1S/C6H7NO/c1-2-3-4-6(8)5(3)7(2)4/h2-5H,1H3	InChI=1S/C6H7NO/c1-2-3-4-6(8)5(3)7(2)4/h2-5H,1H3/t2-,3-,4+,5-/m0/s1
