19
gdb 109065	3.91951	1.20879	1.09265	1.5033	80.33	-0.2097	0.0274	0.2371	1156.6776	0.160612	-385.853621	-385.845967	-385.845023	-385.885917	30.328	
O	-0.0049442738	 1.4129678954	-0.0381708544	-0.413394
C	-0.0416962784	-0.0028031307	-0.0469943931	-0.19357
C	-1.4527441204	-0.47054909	 0.0810906625	 0.329181
C	-2.5667772832	 0.2658634524	 0.1633354978	-0.187138
C	-3.7687022481	-0.6492803442	 0.0940278825	-0.099347
C	-3.8149167094	-1.2527723733	-1.3690423445	-0.225411
C	-2.94780891	-2.4033817424	-0.8738261387	-0.068954
C	-3.2390111997	-2.046974332	 0.5651492445	-0.069289
C	-1.8228544228	-1.9194762545	 0.081124467	-0.146986
H	 0.9150844939	 1.6876129353	-0.0822392296	 0.288265
H	 0.3933100156	-0.4109549176	-0.9773023866	 0.096321
H	 0.5595395435	-0.4237104342	 0.7796050391	 0.091675
H	-2.6148043756	 1.3445986241	 0.1023426545	 0.106301
H	-4.7076416344	-0.2659202704	 0.4903777768	 0.065559
H	-4.8183561991	-1.6163868469	-1.6062663346	 0.099708
H	-3.4500527102	-0.6157371714	-2.1818161785	 0.089995
H	-2.8668277388	-3.3823136392	-1.3318564547	 0.081701
H	-3.5759154484	-2.651628324	 1.3985357267	 0.081857
H	-1.0983314707	-2.6818091764	 0.3489125834	 0.073527
72.9312	164.0586	189.8766	233.6739	372.9792	388.6039	441.5323	566.5667	655.2598	696.4693	750.7252	772.9269	801.1865	822.0556	872.4742	876.1702	919.0002	950.3031	976.6575	1004.8962	1019.1651	1038.962	1044.5019	1057.7669	1082.5024	1094.2853	1136.4853	1163.9205	1195.3905	1208.1582	1228.5856	1247.2381	1259.6108	1281.7786	1309.3088	1336.1173	1384.0006	1467.6568	1488.1302	1508.1703	1695.6604	2932.6207	2943.6921	3038.8355	3098.2151	3121.6269	3162.7844	3172.6151	3187.2654	3229.1655	3838.1492
OCC1=CC2CC3C2C13	OCC1=C[C@H]2C[C@@H]3[C@H]2[C@H]13	
InChI=1S/C8H10O/c9-3-5-1-4-2-6-7(4)8(5)6/h1,4,6-9H,2-3H2	InChI=1S/C8H10O/c9-3-5-1-4-2-6-7(4)8(5)6/h1,4,6-9H,2-3H2/t4-,6+,7-,8+/m0/s1
