16
gdb 127931	4.79943	1.05958	0.87272	1.8842	79.45	-0.1973	-0.05	0.1473	1275.974	0.125551	-434.080595	-434.07254	-434.071596	-434.113079	30.613	
C	-0.0075242099	 1.418431641	 0.0256862817	-0.34073
N	 0.0475444153	-0.0277829389	 0.0127334076	-0.328194
C	-1.0724171053	-0.6615432913	 0.0173862472	 0.417262
N	-2.3369273473	-0.0790688134	 0.0332522868	-0.336855
N	-3.5423563574	-0.7183445869	 0.0383480382	-0.309639
C	-3.5052393347	-2.0082734149	 0.0275020569	 0.435582
O	-4.666390402	-2.7005171719	 0.0320724227	-0.417447
C	-2.2874708206	-2.777276123	 0.0107741413	-0.170718
C	-1.1152192633	-2.1141596898	 0.0059761342	-0.111679
H	 1.0079262914	 1.8225374241	 0.021084013	 0.124359
H	-0.5285931989	 1.8363247547	-0.8545259861	 0.102035
H	-0.5146644033	 1.8211849135	 0.92093875	 0.102017
H	-2.422375414	 0.9227441306	 0.0416124524	 0.268993
H	-5.382847135	-2.051125086	 0.0432393488	 0.304218
H	-2.3514123819	-3.8585713093	 0.0025040973	 0.126478
H	-0.155409383	-2.6154459486	-0.0064423019	 0.13432
86.6832	199.9579	205.9852	213.1117	337.2002	370.4802	378.6158	460.5976	465.7214	511.241	557.3045	616.2179	631.7333	748.8958	792.954	827.7251	859.8103	991.3139	1019.8935	1049.9526	1103.3627	1116.2575	1166.4608	1185.8274	1266.9155	1305.3122	1377.9195	1422.5865	1462.3371	1493.4357	1502.8052	1505.4302	1620.6115	1673.8852	1709.7963	2930.2765	2966.7178	3096.0165	3206.5957	3226.0092	3670.9515	3775.6014
CN=C1NN=C(O)C=C1	CN=c1[nH]nc(O)cc1	
InChI=1S/C5H7N3O/c1-6-4-2-3-5(9)8-7-4/h2-3H,1H3,(H,6,7)(H,8,9)	InChI=1S/C5H7N3O/c1-6-4-2-3-5(9)8-7-4/h2-3H,1H3,(H,6,7)(H,8,9)
