16
gdb 123743	5.01481	1.01392	0.93028	3.0933	70.35	-0.3034	-0.0675	0.2359	1243.8615	0.125045	-434.00479	-433.997347	-433.996403	-434.038301	27.091	
C	-0.0181751692	 1.5774080506	-0.0372996045	-0.215082
C	 1.5281928175	 1.5011940007	 0.0615620333	-0.22351
C	 1.3732750594	 0.0281376261	 0.5717239875	-0.070869
C	-0.0615986891	 0.0255930988	-0.0242781381	-0.234296
C	 2.356347522	-0.9831277848	 0.115930809	 0.40431
N	 2.276655626	-1.6922685196	-0.9750073348	-0.158314
O	 3.4035528286	-2.4429075352	-0.986852306	-0.139226
N	 4.1521937873	-2.1454686133	 0.1488218896	 0.042041
N	 3.5275603638	-1.2766040188	 0.8048329963	-0.208194
H	-0.4605870429	 2.0039759911	 0.8670634241	 0.11036
H	-0.4409371395	 2.085823422	-0.9054476118	 0.108897
H	 1.9997258843	 1.5238903395	-0.9243529318	 0.118699
H	 2.0447172859	 2.2016743263	 0.7201134311	 0.114371
H	 1.3529027497	 0.0149148947	 1.6645124325	 0.107316
H	-0.8391878946	-0.4658005419	 0.563683506	 0.110066
H	-0.0659184393	-0.3906887561	-1.0340594025	 0.133429
26.4149	107.939	143.3403	229.6108	375.1232	415.2617	565.2288	674.379	694.028	717.7694	765.1888	801.5376	870.6959	918.1045	937.1106	953.1077	960.3541	1012.3649	1040.2308	1062.4206	1097.9346	1136.1827	1205.4963	1223.5065	1248.6103	1256.6275	1260.457	1283.0212	1292.0409	1387.8374	1479.6197	1487.9306	1490.2383	1510.8696	1589.4336	3065.9867	3068.0235	3075.2688	3078.9825	3115.2091	3127.552	3137.49
C1CC(C1)C1=NON=N1	C1CC(C1)c1nonn1	
InChI=1S/C5H7N3O/c1-2-4(3-1)5-6-8-9-7-5/h4H,1-3H2	InChI=1S/C5H7N3O/c1-2-4(3-1)5-6-8-9-7-5/h4H,1-3H2
