21
gdb 39628	3.81297	1.16456	1.10145	1.5648	82.81	-0.2399	0.0821	0.322	1199.5472	0.184274	-387.020777	-387.012921	-387.011977	-387.054027	30.485	
C	-0.0308998644	 1.2360735291	-0.2077021643	-0.055471
C	 1.473518883	 1.4751170392	 0.0228291054	-0.300767
C	 1.4342620374	 0.102429026	 0.7367520725	-0.006834
O	 0.0401742269	-0.0820292508	 0.3740829703	-0.294021
C	 2.3047911902	-0.999452338	 0.215305653	 0.374801
C	 3.851898115	-1.1402945461	 0.372358159	-0.2649
C	 3.390757294	-2.3974015857	-0.4209662855	-0.046185
C	 2.2102961357	-2.5139776131	 0.5836692125	-0.25452
C	 2.4901200236	-1.4533493961	-1.266827384	-0.255691
H	-0.6982498773	 1.8968886493	 0.3607221329	 0.098627
H	-0.368495352	 1.2058616721	-1.2502274129	 0.103788
H	 2.0777420771	 1.484767482	-0.8861435705	 0.11007
H	 1.7391268689	 2.3317749864	 0.6432838109	 0.108944
H	 1.5414776042	 0.1718067329	 1.8297708053	 0.067779
H	 4.4680496391	-0.415345628	-0.1679508655	 0.087368
H	 4.2277124735	-1.3081661333	 1.3859409551	 0.088578
H	 4.0218906583	-3.2054118365	-0.7917936966	 0.070847
H	 2.4646846	-2.7816392131	 1.6134438782	 0.085989
H	 1.3160410941	-3.0392236287	 0.2398864485	 0.099884
H	 1.618175639	-1.9029546297	-1.7479897493	 0.09782
H	 3.0063965939	-0.758085978	-1.935839305	 0.083892
61.8077	67.8498	154.6417	202.3935	357.2412	410.6065	537.7479	553.1154	645.8876	776.5246	798.2374	802.2624	834.8461	880.5806	918.0541	937.9766	944.8851	961.8066	966.8129	991.4117	996.2057	1027.3363	1040.536	1080.1899	1098.1128	1104.2717	1138.1241	1144.2578	1158.9689	1159.2894	1174.4803	1217.3478	1229.9476	1234.8945	1240.2851	1258.0565	1276.9173	1320.4613	1357.5127	1395.5632	1491.2149	1497.4445	1498.7225	1530.7352	1555.2523	2985.7873	3012.0836	3040.3003	3045.7308	3052.5195	3054.075	3081.0962	3105.4701	3108.0987	3114.7378	3119.6127	3136.7999
C1CC(O1)C12CC(C1)C2	C1C[C@@H](O1)[C@@]12C[C@@H](C1)C2	
InChI=1S/C8H12O/c1-2-9-7(1)8-3-6(4-8)5-8/h6-7H,1-5H2	InChI=1S/C8H12O/c1-2-9-7(1)8-3-6(4-8)5-8/h6-7H,1-5H2/t6-,7-,8-/m1/s1
