19
gdb 41416	3.22647	1.92334	1.52633	1.3896	77.39	-0.2271	0.0955	0.3226	913.284	0.162233	-385.843472	-385.837057	-385.836113	-385.873816	27.642	
C	-0.0187116836	 1.4885027147	 0.0012701236	-0.242247
C	 1.5495851079	 1.5263747222	-0.019619366	-0.333804
C	 1.5239138107	 0.0479433453	-0.3708316293	 0.471167
O	 2.4342191512	-0.8965877236	 0.122035752	-0.312662
C	 1.8614627383	-2.1546690314	-0.2887176564	-0.11651
C	 0.921196556	-1.8246661469	-1.4593953627	-0.09405
C	-0.2295052941	-0.8270264609	-1.2527284393	-0.076791
C	 1.1223890999	-0.3868256054	-1.8007732301	-0.148919
C	 0.0065435358	-0.0770169048	 0.0420735345	-0.098685
H	-0.4796243823	 1.9669931452	 0.8666711163	 0.104132
H	-0.4764152517	 1.8908528608	-0.9051662448	 0.104523
H	 2.0477772116	 2.208953032	-0.7131631573	 0.098186
H	 1.9539749152	 1.6807465969	 0.9846199724	 0.11483
H	 2.6747561295	-2.8190764241	-0.5981913757	 0.107086
H	 1.3377458603	-2.6170932247	 0.5584641211	 0.100308
H	 0.7909189073	-2.5542029301	-2.2497667751	 0.092728
H	-1.1589087106	-0.9386296065	-1.8022125164	 0.080575
H	 1.423892144	 0.0285643452	-2.7531196515	 0.085532
H	-0.2921240554	-0.519832544	 0.9954292049	 0.0646
197.8112	244.7618	315.158	413.2565	428.1233	525.5119	651.0276	695.1288	731.4937	750.1232	780.8929	797.6524	856.347	874.3664	890.2467	916.162	930.6596	965.0916	994.6904	1025.2358	1033.2067	1045.1455	1062.1631	1096.2211	1103.9818	1120.8489	1137.0912	1186.6444	1210.8906	1216.824	1224.5474	1244.2828	1276.7051	1299.5766	1324.4704	1341.5953	1349.8687	1395.1783	1474.3634	1493.0075	1515.6059	3012.8721	3056.4773	3069.8739	3072.041	3076.575	3106.8515	3130.4058	3158.4863	3188.712	3203.6499
C1CC23OCC4C(C24)C13	C1C[C@]23OC[C@H]4[C@H]([C@@H]24)[C@H]13	
InChI=1S/C8H10O/c1-2-8-5(1)6-4(3-9-8)7(6)8/h4-7H,1-3H2	InChI=1S/C8H10O/c1-2-8-5(1)6-4(3-9-8)7(6)8/h4-7H,1-3H2/t4-,5-,6-,7-,8+/m0/s1
