17
gdb 47730	2.50755	1.7022	1.14874	2.701	68.67	-0.2494	-0.0324	0.217	1053.9486	0.136207	-458.956021	-458.948263	-458.947319	-458.98858	29.372	
O	 0.0457103595	-0.0044977559	 0.2437648207	-0.301998
C	-0.0061839311	 1.1878581309	 0.068345093	 0.30445
C	-1.3093647846	 1.9567838928	-0.102878779	-0.31346
C	-1.1601937889	 3.1420275464	-1.0678531858	-0.095386
O	-0.0755440555	 3.9704640306	-0.6873949754	-0.233729
C	 1.1616827361	 3.3014956413	-0.8258541708	-0.178665
C	 1.2367073011	 2.0589971942	 0.053851325	 0.301509
C	 2.1139896636	 2.0099776048	 1.242564241	-0.208074
O	 2.4835042184	 1.3786245828	 0.0231692701	-0.252452
H	-2.0936217501	 1.2617342074	-0.4150150376	 0.129299
H	-1.5827547212	 2.3496920939	 0.885672786	 0.137778
H	-1.0193124458	 2.7798112469	-2.0994144393	 0.102617
H	-2.0544752485	 3.7699108677	-1.0512909412	 0.120644
H	 1.3225461799	 2.9960142464	-1.8733613247	 0.109104
H	 1.9482445507	 4.0109600923	-0.5571209903	 0.120663
H	 2.6828447555	 2.8990769495	 1.5126217503	 0.12284
H	 1.8668498111	 1.3306270879	 2.0564100179	 0.134861
68.5028	134.5137	244.5434	279.7091	300.9953	377.9114	401.3778	441.5584	509.2967	586.4417	652.6358	711.8704	840.493	870.5137	892.3762	934.7008	951.4841	996.7637	1031.0044	1095.7668	1108.3619	1132.7289	1153.9968	1177.782	1219.1916	1233.9706	1283.0423	1303.6449	1342.2001	1361.3705	1404.2371	1421.6927	1446.2896	1492.0889	1506.8544	1515.7902	1821.7014	2970.5525	2976.9931	3030.3861	3083.0202	3095.9995	3098.7099	3105.0581	3179.6511
O=C1CCOCC11CO1	O=C1CCOC[C@]21CO2	
InChI=1S/C6H8O3/c7-5-1-2-8-3-6(5)4-9-6/h1-4H2	InChI=1S/C6H8O3/c7-5-1-2-8-3-6(5)4-9-6/h1-4H2/t6-/m1/s1
