24
gdb 7832	3.80277	1.01328	0.90648	0.0878	86.03	-0.2609	0.0843	0.3452	1420.3557	0.222121	-314.2718	-314.261774	-314.26083	-314.306835	37.216	
C	-0.4198263939	 1.4076852349	-0.1771843318	-0.382464
C	 0.0532237172	-0.0400134633	 0.0131331669	 0.058792
C	 0.7778808955	-0.5390255478	-1.2443360589	-0.389455
C	 0.9540570693	-0.2075073906	 1.2545264388	-0.203076
C	 0.2685022421	 0.0864817394	 2.5740302518	 0.004969
C	-0.6082843811	-0.9488030464	 3.2443873132	-0.291786
C	 0.694090741	-0.535174657	 3.8880672031	-0.004562
C	 1.8481459369	-1.5057004797	 4.0191370487	-0.403815
H	 0.4346097726	 2.0842316868	-0.3033671379	 0.108186
H	-1.0478273754	 1.4994721949	-1.0696831925	 0.107683
H	-1.0056338639	 1.7642679311	 0.6749471473	 0.113608
H	-0.8354802834	-0.6684841306	 0.1660287177	 0.073004
H	 1.6825597964	 0.0513244163	-1.4351601509	 0.109691
H	 1.0815462487	-1.586584748	-1.1427365631	 0.10664
H	 0.1390436851	-0.4593967952	-2.1303286184	 0.107032
H	 1.3385528581	-1.2338525574	 1.2618413092	 0.08655
H	 1.8336178469	 0.4439723107	 1.1430709723	 0.087864
H	-0.0812185564	 1.1112660821	 2.6674132103	 0.079772
H	-1.5459714833	-0.6412571713	 3.6948652015	 0.104239
H	-0.6411764484	-1.9359663519	 2.7909935486	 0.103754
H	 0.5930814344	 0.1263481378	 4.7455275139	 0.078671
H	 1.8994405129	-2.2016974892	 3.1771782169	 0.11596
H	 2.8094774418	-0.9821738901	 4.0759254641	 0.114176
H	 1.7439959868	-2.1062621556	 4.9297749392	 0.114567
43.0783	90.8778	122.9485	192.0719	213.3337	231.345	253.257	306.4986	347.9657	397.5888	402.768	454.166	506.8289	758.1925	814.2741	826.6684	862.1671	870.6497	916.1207	927.7473	956.6624	961.6371	972.3431	1036.8391	1060.1225	1093.531	1111.4401	1146.7909	1158.0515	1186.1556	1196.244	1200.2729	1248.4361	1272.7503	1303.7895	1360.2248	1371.6466	1397.0606	1400.2992	1417.8755	1419.6196	1431.2493	1475.8772	1488.881	1492.4358	1494.1169	1497.5711	1504.7832	1506.6443	1511.4775	2995.7504	3008.1036	3020.3924	3026.7003	3028.2123	3055.1208	3084.1926	3084.4652	3090.9226	3095.2649	3103.1892	3104.4208	3119.0697	3127.1148	3140.9206	3202.7302
CC(C)CC1CC1C	CC(C)C[C@H]1C[C@H]1C	
InChI=1S/C8H16/c1-6(2)4-8-5-7(8)3/h6-8H,4-5H2,1-3H3	InChI=1S/C8H16/c1-6(2)4-8-5-7(8)3/h6-8H,4-5H2,1-3H3/t7-,8+/m1/s1
