13
gdb 20768	3.41119	1.86188	1.21356	1.6431	61.81	-0.2647	-0.0643	0.2004	917.5811	0.095037	-398.611594	-398.604446	-398.603502	-398.643302	25.078	
C	-0.027976054	 1.4884343544	 0.0312981484	-0.50088
C	-0.0109354376	-0.0064780754	 0.0450541596	 0.321984
N	-0.0357693101	-0.670848303	-1.0833386572	-0.19206
O	-0.0106976645	-2.0315977212	-0.7288115236	-0.157088
C	 0.028082883	-2.1337041776	 0.5919910905	 0.04034
C	 0.0311064765	-0.8957919082	 1.1725262163	-0.020177
C	 0.0686800764	-0.5925780115	 2.6022461849	 0.06444
O	 0.1023593825	-1.4307948621	 3.4753687796	-0.270528
H	 0.8637492662	 1.8950483051	 0.5188023212	 0.147399
H	-0.0588812894	 1.8481467622	-0.9986350638	 0.159884
H	-0.9020586419	 1.8752568322	 0.564741631	 0.147479
H	 0.0509011835	-3.1298911932	 1.0062786978	 0.184667
H	 0.0634560894	 0.4911108785	 2.8489985553	 0.07454
130.2906	140.1521	163.9244	234.9878	303.9426	317.0442	520.4149	615.9333	637.5819	683.4738	813.0383	878.5904	896.2947	936.7549	1029.1943	1036.8249	1070.1733	1168.5853	1193.7895	1318.5036	1396.3423	1420.408	1457.4996	1478.3505	1482.5214	1520.0221	1618.6572	1791.4295	2896.0695	3046.0062	3104.4787	3143.9037	3271.4
CC1=NOC=C1C=O	Cc1nocc1C=O	
InChI=1S/C5H5NO2/c1-4-5(2-7)3-8-6-4/h2-3H,1H3	InChI=1S/C5H5NO2/c1-4-5(2-7)3-8-6-4/h2-3H,1H3
