17
gdb 9297	3.45269	1.15126	0.91265	2.5478	74.45	-0.2495	0.0198	0.2693	1278.8912	0.138686	-363.82035	-363.810699	-363.809755	-363.855437	33.129	
C	 0.3502315194	 0.9452031576	-0.4464459427	-0.250951
O	-0.1329514016	 0.2353725289	 0.6880722587	-0.195829
C	 0.6269392696	-0.8034992229	 1.0853396227	 0.134896
N	 0.2752522932	-1.4896378619	 2.0809270477	-0.246069
C	 1.0864301335	-2.6259854473	 2.512952678	-0.083477
C	 0.1939594395	-3.8816199915	 2.5503558284	-0.36933
C	 2.3128106675	-2.8816094381	 1.7428049086	 0.319428
C	 3.308658558	-3.0897408428	 1.1005349693	-0.497418
H	 0.409148717	 0.2984359954	-1.3302240711	 0.128186
H	-0.3669841103	 1.7445022655	-0.6364631269	 0.145628
H	 1.3361778961	 1.3857950358	-0.2552162195	 0.128416
H	 1.5296515548	-0.9733725847	 0.4851567773	 0.093408
H	 1.3871396417	-2.4084930013	 3.5476350144	 0.118924
H	-0.1212743719	-4.1504992276	 1.5386502785	 0.125204
H	 0.7346781063	-4.7263355562	 2.985139083	 0.119923
H	-0.6954322427	-3.6712108315	 3.1487245658	 0.13028
H	 4.1953830499	-3.2848495674	 0.5493080077	 0.198779
48.0258	84.9046	117.0638	152.0959	188.5999	217.571	232.0309	279.9863	383.1125	422.94	508.9489	552.1099	622.4228	651.0584	668.3862	811.3406	939.6048	1000.0219	1044.8646	1063.5789	1095.5204	1137.2167	1176.915	1181.4409	1279.3418	1316.2699	1340.0252	1399.1603	1411.8544	1484.5931	1485.5435	1494.706	1494.7583	1500.9852	1769.1593	2221.7789	3003.557	3013.6856	3045.2712	3048.5614	3078.4718	3127.4856	3135.5445	3144.8448	3500.6308
COC=NC(C)C#C	COC=N[C@@H](C)C#C	
InChI=1S/C6H9NO/c1-4-6(2)7-5-8-3/h1,5-6H,2-3H3	InChI=1S/C6H9NO/c1-4-6(2)7-5-8-3/h1,5-6H,2-3H3/t6-/m0/s1
