19
gdb 50756	3.15307	1.18235	0.89936	3.1618	78.38	-0.2458	-0.0279	0.2178	1283.1198	0.15915	-423.033475	-423.025027	-423.024083	-423.06712	31.604	
O	-0.8607551894	 0.915394856	-0.621928197	-0.241443
C	 0.263639519	 0.6308747718	-0.3077532892	 0.142722
C	 1.3544901864	 1.6491689803	 0.0295707689	-0.032336
O	 2.572538155	 0.9655681345	-0.1654702054	-0.255604
C	 3.7190151635	 1.5606880322	 0.417775879	-0.06916
C	 4.2932108111	 2.7025049032	-0.4183440327	-0.194435
C	 3.4719859394	 3.9995715159	-0.4065434222	-0.256995
C	 2.0501933332	 3.9169724541	-0.9065166085	-0.08297
C	 1.1590910254	 2.944757947	-0.7199799053	-0.046944
H	 0.6129293535	-0.4191068816	-0.2103188567	 0.098371
H	 1.2192696349	 1.8480178302	 1.115088295	 0.103345
H	 3.4880320993	 1.9040959465	 1.4407371664	 0.085696
H	 4.4560822959	 0.7549757035	 0.497705005	 0.108368
H	 5.3007383749	 2.9244093831	-0.0441526894	 0.096043
H	 4.4051628387	 2.3425177904	-1.4474109053	 0.11351
H	 3.4562581427	 4.4004983073	 0.6196617174	 0.113144
H	 4.0062064645	 4.75143504	-0.9979650186	 0.107182
H	 1.7078282219	 4.7928676197	-1.4545863303	 0.094877
H	 0.1492192799	 3.0666811158	-1.1027615311	 0.116628
52.7673	103.1121	185.9304	212.2209	267.9399	336.6647	343.3998	417.6797	497.048	515.0108	612.0228	715.0586	726.6857	779.7828	823.0149	893.0728	917.3753	968.3829	999.4432	1016.0895	1051.1157	1078.3558	1095.1764	1112.4379	1175.5527	1218.7965	1236.5064	1280.2505	1288.021	1302.4495	1338.4607	1377.8422	1385.1772	1398.1512	1417.6482	1424.6205	1469.8621	1478.3728	1494.6818	1731.7218	1842.6559	2870.2869	2915.8799	2963.0499	2985.4781	3026.1315	3057.7841	3071.5224	3077.1564	3138.6481	3172.323
O=CC1OCCCC=C1	O=C[C@H]1OCCCC=C1	
InChI=1S/C7H10O2/c8-6-7-4-2-1-3-5-9-7/h2,4,6-7H,1,3,5H2	InChI=1S/C7H10O2/c8-6-7-4-2-1-3-5-9-7/h2,4,6-7H,1,3,5H2/t7-/m0/s1
