20
gdb 96685	4.0922	0.65861	0.57537	1.4983	85.27	-0.2467	0.0312	0.2779	1921.3235	0.166865	-403.123698	-403.112536	-403.111592	-403.161666	38.087	
C	 0.0995700521	 1.5000101503	 0.0848073148	-0.326006
N	 0.0708866532	 0.0537304639	 0.0591856616	-0.28397
C	 0.5023334613	-0.5814092681	-0.9460810085	 0.404952
C	 1.092922412	-0.0548147951	-2.2351841619	-0.488122
O	 0.4731363291	-1.9377810384	-0.9653939169	-0.253466
C	-0.0611579116	-2.5857874999	 0.1898934846	-0.046286
C	 0.0192799457	-4.0904268156	-0.0840973309	-0.356571
C	-0.5000748791	-4.8733240043	 1.0293572247	 0.287384
C	-0.9339439427	-5.4951402815	 1.9615679336	-0.445284
H	 0.6864380546	 1.8370296093	 0.9477459341	 0.125933
H	 0.5135516334	 1.9797736216	-0.8128307757	 0.099939
H	-0.9180914408	 1.8814800681	 0.2314836989	 0.125939
H	 1.9875682949	 0.5427610794	-2.0378162119	 0.144628
H	 1.3618953918	-0.8858140428	-2.8869031123	 0.141389
H	 0.3770671766	 0.5861390007	-2.7578714476	 0.144639
H	 0.5160413966	-2.3089825476	 1.0771118631	 0.126098
H	-1.0932232494	-2.2640751859	 0.3580516752	 0.126093
H	-0.5405808402	-4.3171119084	-0.9994133588	 0.138087
H	 1.0630433932	-4.3618595787	-0.2828852148	 0.138088
H	-1.3149088306	-6.054970277	 2.7792390885	 0.196539
50.4304	62.9318	70.5652	76.2116	85.0503	180.2223	203.5831	279.063	279.1415	342.4539	353.8608	430.7128	551.0718	575.6504	622.856	636.8532	648.6027	788.033	821.1235	961.2026	991.999	1053.4854	1056.3927	1071.8677	1084.9733	1134.5235	1135.1555	1157.6002	1228.6683	1289.8501	1291.7155	1308.1175	1390.9136	1409.8359	1448.5544	1476.6269	1478.9766	1479.8974	1499.3496	1506.6006	1515.6986	1759.7124	2242.754	2998.4783	3030.9333	3052.1891	3057.4321	3061.7532	3062.9636	3067.4821	3104.8987	3113.3633	3154.8619	3507.898
CN=C(C)OCCC#C	CN=C(C)OCCC#C	
InChI=1S/C7H11NO/c1-4-5-6-9-7(2)8-3/h1H,5-6H2,2-3H3	InChI=1S/C7H11NO/c1-4-5-6-9-7(2)8-3/h1H,5-6H2,2-3H3
