19
gdb 115256	3.67531	0.92604	0.76901	0.9607	89.43	-0.2313	-0.0217	0.2096	1483.673	0.158043	-385.864676	-385.85543	-385.854486	-385.899122	34.005	
C	 0.0290282924	 1.3815781935	-0.0828382745	-0.238645
O	-0.1223306347	-0.0083072621	 0.0863845298	-0.241308
C	 0.6463937625	-0.551113365	 1.149868815	 0.112856
C	 0.1383293463	-1.9753158304	 1.4581997677	-0.254624
C	 1.3946681324	-2.8175690728	 1.7710585513	-0.325645
C	 2.5225471746	-1.9973571396	 1.1613925845	 0.200374
C	 2.1078269771	-0.7665688936	 0.8272081622	-0.209356
C	 3.8340042446	-2.5140135191	 1.0278305645	 0.204214
C	 4.9329267587	-2.9996374888	 0.9322374654	-0.410574
H	 1.0514296812	 1.662823497	-0.3769075687	 0.10645
H	-0.6551055912	 1.686276726	-0.8787574653	 0.127955
H	-0.2267543259	 1.9334767091	 0.8357610454	 0.103633
H	 0.5473640596	 0.1150148082	 2.0263304955	 0.068963
H	-0.602087809	-1.9929698322	 2.2605563511	 0.102383
H	-0.3464360367	-2.339134706	 0.5477916071	 0.125724
H	 1.5549990121	-2.9304774361	 2.8505925066	 0.117062
H	 1.3512035204	-3.8290861026	 1.355781718	 0.116896
H	 2.7432583472	 0.0033793929	 0.4069816141	 0.10114
H	 5.9068959584	-3.4124128282	 0.8414456002	 0.192501
70.4604	98.7746	120.4468	148.6158	199.2854	270.1742	307.9238	421.8194	466.6309	523.5881	541.2434	571.8977	603.2212	633.1331	648.0495	839.7978	870.9934	903.5415	905.3552	971.6813	991.1007	1043.7771	1083.9168	1132.0061	1162.5688	1175.7172	1184.2196	1229.9125	1245.5834	1271.4071	1298.9004	1321.8945	1338.2605	1381.1418	1478.1977	1483.4196	1491.0117	1499.6502	1509.3614	1671.2103	2221.3015	2928.8145	2972.8847	3019.3647	3031.3414	3066.3949	3078.365	3111.9533	3118.4502	3210.5938	3503.4894
COC1CCC(=C1)C#C	CO[C@H]1CCC(=C1)C#C	
InChI=1S/C8H10O/c1-3-7-4-5-8(6-7)9-2/h1,6,8H,4-5H2,2H3	InChI=1S/C8H10O/c1-3-7-4-5-8(6-7)9-2/h1,6,8H,4-5H2,2H3/t8-/m0/s1
