15
gdb 47976	5.2517	0.73361	0.68704	5.1759	84.28	-0.2479	-0.0647	0.1832	1585.2953	0.110855	-420.554376	-420.546097	-420.545153	-420.588337	29.398	
O	-0.16475657	 0.1290311357	-0.4855557994	-0.23325
C	 0.055222776	 1.135918038	 0.1497247647	 0.005554
C	 1.2708569338	 1.8961392705	 0.0851183639	 0.123243
C	 2.2768865829	 2.5705778636	 0.0604372981	-0.00278
C	 3.4598405212	 3.3379799656	 0.0271538592	 0.273396
C	 4.0327087324	 4.1145151821	 1.1917241138	-0.325821
C	 3.7053237208	 4.8516460191	-0.0744370091	-0.171134
C	 4.701250808	 4.4687768754	-1.1612462876	-0.094185
O	 4.4941566036	 3.0493201368	-0.9214376589	-0.309356
H	-0.6953593047	 1.5557459638	 0.8512330353	 0.097546
H	 3.3509100482	 4.2870725775	 2.0171172203	 0.137597
H	 5.0643442156	 3.9107287493	 1.4641764968	 0.133824
H	 2.9771976923	 5.648831167	-0.1249031372	 0.124313
H	 4.3731343716	 4.7365086439	-2.1707601011	 0.124794
H	 5.7453892982	 4.7652520317	-1.0134992387	 0.11626
64.4007	78.506	121.1809	204.2144	227.3947	354.3298	377.8581	466.5275	492.849	563.838	699.1958	754.8746	815.0322	848.5536	918.4318	973.2711	977.6836	1002.9179	1008.8393	1015.6063	1060.3856	1077.4819	1119.1674	1149.1582	1185.7009	1302.4138	1340.5761	1387.8133	1421.0161	1469.7145	1518.629	1760.2899	2297.3816	2909.9002	3037.1748	3089.5013	3124.3074	3216.4498	3226.9926
O=CC#CC12CC1CO2	O=CC#C[C@]12C[C@H]1CO2	
InChI=1S/C7H6O2/c8-3-1-2-7-4-6(7)5-9-7/h3,6H,4-5H2	InChI=1S/C7H6O2/c8-3-1-2-7-4-6(7)5-9-7/h3,6H,4-5H2/t6-,7-/m0/s1
