22
gdb 122842	6.75592	0.47218	0.45331	2.39	81.4	-0.2426	0.0368	0.2795	2402.4061	0.192216	-441.517979	-441.506396	-441.505452	-441.556989	39.062	
C	 0.0820424401	 1.441743678	-0.1441231333	-0.332948
N	 0.2722779239	 0.0103192656	-0.0190514208	-0.313222
C	 0.353556941	-0.6205029616	 1.1896063601	 0.417461
O	 0.3024212359	-0.0245170598	 2.2520376193	-0.377021
C	 0.4888627899	-2.1402883868	 1.1116202516	-0.321792
C	 1.3480565263	-2.7018508294	 2.2483629826	-0.169979
C	 1.3601460238	-4.2314603216	 2.2845183578	-0.171234
C	 2.2089922246	-4.7861936093	 3.4207038796	-0.075045
O	 2.1566257058	-6.2041061882	 3.3562607585	-0.422638
H	 0.9025799449	 1.9063907589	-0.7022796085	 0.123449
H	-0.8619786763	 1.6798592744	-0.64773863	 0.123608
H	 0.060077556	 1.8527797934	 0.8657845422	 0.171688
H	 0.3221830271	-0.5463902995	-0.8555533553	 0.243151
H	-0.5252344703	-2.5576867599	 1.179330798	 0.127919
H	 0.8845578945	-2.4471417165	 0.1355434348	 0.092596
H	 2.3733669638	-2.3232506048	 2.1454855208	 0.098219
H	 0.9682654249	-2.2945500289	 3.1908058257	 0.127195
H	 0.338444843	-4.6159536135	 2.3958705279	 0.103591
H	 1.7426651321	-4.6362652123	 1.3388623043	 0.099812
H	 3.2449152756	-4.4211605326	 3.3231369837	 0.083106
H	 1.8246582654	-4.4155722264	 4.3849840142	 0.087398
H	 2.6796646781	-6.556863059	 4.0817698768	 0.284685
26.3752	51.1758	82.1027	85.2589	111.2361	134.0757	161.4669	227.8013	264.4052	266.2969	334.5224	432.6024	448.0328	496.3676	624.7622	719.0003	748.2846	808.25	895.7589	928.5899	1002.693	1038.6538	1059.5274	1072.0517	1096.5764	1123.3371	1154.978	1170.4754	1199.8856	1215.4491	1242.3676	1276.7499	1294.0804	1316.0862	1328.1099	1366.0415	1400.3159	1437.4685	1463.8318	1464.7895	1490.1138	1492.7449	1500.6918	1505.0069	1529.3217	1558.7082	1776.3919	2958.5138	2984.3189	3014.8829	3021.0438	3024.8355	3030.1413	3053.0562	3060.5512	3075.6056	3091.9973	3153.1925	3651.604	3830.7143
CNC(=O)CCCCO	CNC(=O)CCCCO	
InChI=1S/C6H13NO2/c1-7-6(9)4-2-3-5-8/h8H,2-5H2,1H3,(H,7,9)	InChI=1S/C6H13NO2/c1-7-6(9)4-2-3-5-8/h8H,2-5H2,1H3,(H,7,9)
