17
gdb 77358	2.76664	1.3366	1.01263	2.3109	69.9	-0.2364	-0.0414	0.1951	1159.0239	0.136114	-455.19797	-455.188981	-455.188037	-455.232725	31.315	
C	 0.2424928287	 1.4773593664	 0.0035591784	-0.348176
N	 0.1079089238	 0.039417268	-0.0259889801	-0.098646
C	-1.1457190229	-0.6599651586	 0.1618604375	-0.079874
C	-0.7301775739	-2.1358537037	-0.105541288	-0.201948
N	 0.6967398328	-2.1005477151	 0.1745688904	-0.36085
C	 1.199920647	-0.8102839117	 0.0167944794	 0.451318
O	 2.3658563812	-0.4914990317	-0.0534318862	-0.414789
C	-1.6777302127	-0.4946153878	 1.5863332343	 0.150966
O	-2.8224816771	-0.2425587153	 1.8526440012	-0.235929
H	 1.3040160741	 1.7035104913	-0.1112709551	 0.170623
H	-0.3169730063	 1.9403161003	-0.8176177778	 0.127638
H	-0.1123763502	 1.9090668076	 0.9484545668	 0.127027
H	-1.9251291758	-0.3222610993	-0.5288366168	 0.106056
H	-1.2601872919	-2.8353507148	 0.5484340123	 0.130498
H	-0.9543579958	-2.4036730306	-1.1468702525	 0.122108
H	 1.2936694763	-2.8442696805	-0.1519756111	 0.256832
H	-0.9026771172	-0.6332430544	 2.3747920675	 0.097146
46.7919	75.368	122.2322	162.2347	200.2116	271.6958	310.49	358.8171	428.7642	500.6607	527.4966	678.682	736.0827	760.29	835.1627	914.1504	934.8025	1030.9242	1053.3751	1098.3967	1123.3966	1161.4528	1177.8081	1223.9339	1255.6691	1289.8648	1318.0639	1334.1998	1410.8974	1415.6553	1431.5961	1460.1516	1492.423	1522.9539	1530.0252	1837.6509	1838.4368	2876.9986	3007.9362	3012.5395	3060.5149	3065.056	3070.9258	3143.5573	3638.6525
CN1C(CNC1=O)C=O	CN1[C@@H](CNC1=O)C=O	
InChI=1S/C5H8N2O2/c1-7-4(3-8)2-6-5(7)9/h3-4H,2H2,1H3,(H,6,9)	InChI=1S/C5H8N2O2/c1-7-4(3-8)2-6-5(7)9/h3-4H,2H2,1H3,(H,6,9)/t4-/m0/s1
