21
gdb 79830	2.17413	1.77529	1.36727	1.902	81.4	-0.2397	0.0812	0.321	1064.9153	0.183937	-387.07739	-387.06923	-387.068286	-387.109551	32.853	
C	-0.0594872609	 1.5149807855	 0.0684647253	-0.517375
C	 0.0221667456	 0.0179099562	 0.0503851433	 0.33177
C	-0.0401913687	-0.8788364916	-1.1520176194	-0.0898
C	 1.1656992465	-1.8155162937	-1.2366477189	-0.238064
C	 1.9065151976	-1.5840422362	 0.1099586892	-0.220221
C	 0.845693045	-0.9191576561	 0.9964322847	-0.126882
C	-0.4265463794	-1.817880126	 1.1483964908	 0.153614
O	-1.1262738556	-1.6461518686	 2.3651575369	-0.444343
C	-1.0517921558	-1.0694190737	-0.0260403067	-0.166841
H	 0.9081872668	 1.9711740709	-0.1740201076	 0.120647
H	-0.7862760938	 1.8767090153	-0.6668987975	 0.120396
H	-0.364304096	 1.8977896819	 1.04989821	 0.111302
H	-0.4618703161	-0.4753300389	-2.067641012	 0.079197
H	 0.862244787	-2.8603898538	-1.3619709131	 0.102954
H	 1.797121046	-1.5642924688	-2.094400212	 0.097296
H	 2.2908610987	-2.5114288366	 0.5470627513	 0.097854
H	 2.7591200783	-0.9102113645	-0.0313119728	 0.096248
H	 1.2087187671	-0.5123922838	 1.9419631807	 0.064069
H	-0.2742404306	-2.8992307026	 1.0557186572	 0.075155
H	-1.3728925244	-0.7163313202	 2.4291235279	 0.274201
H	-2.1188383372	-0.9787792145	-0.2064019374	 0.078824
134.2444	197.6511	212.1522	224.5765	288.7391	305.2304	369.3008	402.5452	491.1288	579.7443	644.5281	709.2567	769.8652	821.2415	851.4199	860.123	886.3326	910.639	934.4192	975.2281	1011.266	1015.9944	1033.2202	1059.7161	1073.3461	1103.174	1116.5879	1147.4321	1169.5843	1207.2187	1230.133	1252.4053	1254.1268	1270.6032	1300.1968	1304.4378	1326.057	1341.0175	1414.8244	1432.1687	1459.938	1485.1362	1487.7061	1498.6348	1506.8913	3016.0436	3034.5122	3040.8765	3046.7174	3071.0933	3071.8378	3089.4074	3090.0203	3100.8701	3151.6003	3163.6512	3792.3907
CC12C3CCC1C(O)C23	C[C@@]12[C@H]3CC[C@@H]1[C@@H](O)[C@@H]23	
InChI=1S/C8H12O/c1-8-4-2-3-5(8)7(9)6(4)8/h4-7,9H,2-3H2,1H3	InChI=1S/C8H12O/c1-8-4-2-3-5(8)7(9)6(4)8/h4-7,9H,2-3H2,1H3/t4-,5+,6-,7+,8+/m0/s1
