20
gdb 17358	4.239	1.3055	1.1053	0.0001	76.94	-0.211	0.0929	0.304	1134.8413	0.176262	-345.111581	-345.102847	-345.101903	-345.145233	32.124	
C	-0.1496703715	 1.5499880703	-0.1595353809	-0.309711
N	-0.0188503248	 0.1074860996	-0.0079976075	-0.089366
C	 1.2950085065	-0.4871838602	-0.2079171257	-0.261993
C	 0.6780149233	-0.455130313	 1.1533182147	 0.000734
C	 1.265044563	 0.4033153354	 2.2329306735	 0.000743
C	 0.6482112433	 0.4351787911	 3.5942392685	-0.261997
N	 1.9621343991	-0.1592964192	 3.3941194612	-0.089369
C	 2.0931475041	-1.6017995612	 3.5455005988	-0.309709
H	 0.7635460635	 2.1242341877	 0.059290309	 0.102921
H	-0.4350596481	 1.7626248754	-1.1948315078	 0.123775
H	-0.9493153647	 1.91354083	 0.4935064351	 0.125136
H	 1.3276026282	-1.4060648193	-0.7882645223	 0.113329
H	 2.1370603034	 0.1852330324	-0.3757320004	 0.106037
H	 0.2023545238	-1.3650401583	 1.5120256245	 0.08914
H	 1.7405396725	 1.3133149693	 1.8742346672	 0.089136
H	 0.6155570701	 1.3540098217	 4.1746624783	 0.11333
H	-0.1937273142	-0.2373679597	 3.7621038016	 0.106036
H	 1.1800086325	-2.1761440554	 3.3266140258	 0.102918
H	 2.8928395248	-1.9651749668	 2.8924171778	 0.125136
H	 2.3785702352	-1.8145085397	 4.5807724786	 0.123774
37.508	129.5242	178.4438	212.1183	230.5036	246.1584	338.5595	391.8243	430.6469	442.8971	552.1352	724.1136	748.8816	851.616	883.2565	927.1079	939.8094	1032.0674	1036.1293	1080.6661	1092.7321	1114.5514	1123.9692	1131.878	1137.5186	1158.1679	1166.4422	1201.2062	1205.1554	1219.8425	1315.2104	1333.6869	1343.0481	1448.6748	1449.8928	1455.5924	1488.705	1490.0338	1502.4903	1502.7666	1510.3238	1513.4848	2981.1538	2982.2792	3066.972	3067.3671	3079.0353	3079.2586	3102.5977	3102.7332	3120.788	3132.8826	3167.42	3168.3518
CN1CC1C1CN1C	CN1C[C@H]1[C@H]1CN1C	
InChI=1S/C6H12N2/c1-7-3-5(7)6-4-8(6)2/h5-6H,3-4H2,1-2H3	InChI=1S/C6H12N2/c1-7-3-5(7)6-4-8(6)2/h5-6H,3-4H2,1-2H3/t5-,6+,7?,8?
