19
gdb 81147	2.59389	1.64343	1.25855	4.0628	80.13	-0.2299	0.0129	0.2428	1052.4268	0.161131	-382.054718	-382.046823	-382.045878	-382.086743	31.232	
C	-0.2310809232	 1.4464119495	-0.0161533857	-0.344931
N	 0.0063599343	 0.007422946	 0.007097918	-0.127697
C	 1.1645079281	-0.4862283272	-0.8353221873	-0.001858
C	 2.1471151734	-0.1291867396	 0.3095317673	-0.276579
C	 0.8839144944	-0.5105074117	 1.1365303909	 0.244593
C	 0.7571816157	-2.0336622292	 0.8804476693	-0.247589
C	 0.9788806987	-2.0049661717	-0.6681972796	-0.214136
C	 0.6545790522	-0.0214850354	 2.4778115713	 0.170608
N	 0.4771594215	 0.3796433492	 3.5476920375	-0.346542
H	 0.6626766102	 2.0855357148	 0.0654804145	 0.103385
H	-0.7357184735	 1.692196153	-0.955612445	 0.126968
H	-0.9054207448	 1.706584486	 0.8048670666	 0.143213
H	 1.2613183189	-0.0777685772	-1.8406037752	 0.079571
H	 3.0501375922	-0.7301832096	 0.4456785411	 0.107637
H	 2.3875184125	 0.9308137947	 0.3690959936	 0.125154
H	 1.5148342697	-2.603418933	 1.4223503018	 0.113421
H	-0.2325521564	-2.3939948966	 1.1617498527	 0.125748
H	 0.1069582657	-2.3641421745	-1.2165731644	 0.1157
H	 1.8576259305	-2.5726560876	-0.9836819073	 0.103334
135.8353	156.5143	208.2988	276.7667	286.0492	326.8013	443.1115	488.1465	534.9561	544.2109	587.1701	678.3349	763.6514	820.5576	842.8276	869.0412	901.8082	943.1363	964.2304	973.8612	1028.1335	1083.1874	1107.7573	1142.6936	1161.3877	1172.4453	1201.7941	1208.0534	1228.0171	1239.0474	1264.0928	1281.5762	1311.7797	1329.6508	1450.0644	1480.5235	1481.2565	1499.356	1501.4454	1520.3891	2352.9218	2974.634	3069.8218	3072.0017	3072.8531	3084.3938	3111.6281	3124.2972	3129.6573	3143.6009	3154.7486
CN1C2CC1(CC2)C#N	CN1[C@H]2C[C@@]1(CC2)C#N	
InChI=1S/C7H10N2/c1-9-6-2-3-7(9,4-6)5-8/h6H,2-4H2,1H3	InChI=1S/C7H10N2/c1-9-6-2-3-7(9,4-6)5-8/h6H,2-4H2,1H3/t6-,7+/m1/s1
