17
gdb 37587	3.51905	1.98123	1.96985	1.3061	73.08	-0.2369	0.0188	0.2556	791.1494	0.140761	-384.688017	-384.682718	-384.681774	-384.717281	24.142	
O	-0.0405429267	 1.4538801047	 0.0110033882	-0.240807
C	 1.324623419	 1.8041325728	-0.0004778859	 0.062545
C	 2.1122050293	 0.7496945233	 0.7460833035	-0.10849
C	 2.0972800476	 0.7579013097	-0.7737031292	-0.108483
C	 1.0646590487	-0.3366619277	-1.1503398187	-0.098028
C	 1.5445821666	-1.6916831524	-0.6914683986	-0.087021
C	 1.557670438	-1.6989015301	 0.6484098631	-0.087023
C	 1.0870182075	-0.3489284807	 1.131127268	-0.098021
C	 0.0764754202	 0.0533096574	 0.0023175747	 0.067591
H	 1.5173911901	 2.8682370126	 0.0033739367	 0.10446
H	 2.9930316652	 0.9633769358	 1.3360934945	 0.08979
H	 2.9663670128	 0.9780461446	-1.3785600677	 0.08979
H	 0.6794677169	-0.2619655653	-2.1676132941	 0.06717
H	 1.8744946785	-2.4816464107	-1.3539475655	 0.096068
H	 1.9003894744	-2.4959144443	 1.2957714486	 0.096068
H	 0.721855231	-0.2851963716	 2.1565014211	 0.067171
H	-0.900239479	-0.425361798	 0.0093155113	 0.087218
357.8239	404.0656	513.0124	576.7596	601.1336	705.2539	727.3969	735.9977	796.7144	809.1377	818.0353	835.9589	890.3398	908.8106	935.9632	950.5962	964.3642	989.7311	1004.5015	1016.0312	1017.1133	1036.3353	1064.6946	1066.1252	1108.942	1128.1983	1150.6164	1224.6729	1233.5233	1242.0076	1252.5075	1284.4859	1293.114	1337.826	1358.1001	1378.6871	1634.2373	3110.808	3112.1128	3156.1052	3200.4086	3203.9653	3206.3085	3219.5055	3225.0765
O1C2C3C2C2C=CC3C12	O1[C@H]2[C@@H]3[C@H]2[C@H]2C=C[C@@H]3[C@@H]12	
InChI=1S/C8H8O/c1-2-4-6-5-3(1)7(4)9-8(5)6/h1-8H	InChI=1S/C8H8O/c1-2-4-6-5-3(1)7(4)9-8(5)6/h1-8H/t3-,4+,5-,6+,7+,8-
