23
gdb 112921	3.14275	0.9918	0.79589	1.3662	88.08	-0.233	0.0319	0.2649	1496.9571	0.206508	-388.310842	-388.301333	-388.300389	-388.344946	36.431	
C	-0.010796523	 1.5597301919	 0.0141583907	-0.404269
C	 0.0252889163	 0.0294011908	 0.0044851818	 0.023342
C	 0.7070032178	-0.5141529677	-1.2626934363	-0.237743
C	 1.0078237024	-1.987634447	-1.1723569936	-0.087483
C	 0.9585482347	-2.6831481251	-0.0372382634	-0.033579
C	 0.6351332301	-2.0716751468	 1.3043987743	-0.031554
C	 1.5430088216	-2.6353105319	 2.4009281722	-0.093067
O	 1.2820481955	-4.0267515802	 2.5229976986	-0.42262
C	 0.7164163991	-0.5383554329	 1.253036897	-0.20908
H	 1.0038073429	 1.9752227002	 0.0425693033	 0.110549
H	-0.5039309371	 1.9519966814	-0.8819834919	 0.109402
H	-0.5509502695	 1.9405337263	 0.8876022959	 0.108517
H	-1.0106002592	-0.339416454	 0.005567385	 0.073863
H	 0.0758672245	-0.3154865953	-2.1393279648	 0.098329
H	 1.6397287354	 0.0423122741	-1.4483731127	 0.099647
H	 1.2732223153	-2.4912468799	-2.0996484034	 0.080051
H	 1.1665597347	-3.7491581883	-0.0334074945	 0.09654
H	-0.3885240973	-2.3653411412	 1.5849296531	 0.088457
H	 2.5963052111	-2.4487654692	 2.1364573235	 0.085636
H	 1.3399466676	-2.1107236648	 3.3488395281	 0.081812
H	 1.9251476827	-4.4027962598	 3.1304821086	 0.286583
H	 1.7724660019	-0.229973341	 1.2447296397	 0.089266
H	 0.2727724624	-0.1087331193	 2.1595546789	 0.087402
89.0873	120.5708	145.837	213.0238	240.7445	255.8489	295.4982	307.4613	376.4255	421.7844	438.2992	516.0211	550.5957	701.414	744.2859	835.6034	860.2782	896.1064	918.8307	953.7844	997.7299	1013.1958	1017.5545	1040.2161	1068.9484	1106.4431	1115.1303	1119.3102	1158.1695	1173.8303	1227.2321	1240.467	1253.9796	1281.701	1301.364	1325.1671	1341.8389	1364.2135	1377.9344	1394.9014	1409.0378	1418.284	1452.8012	1474.8101	1490.8554	1498.821	1499.7223	1519.2835	1722.9379	2959.8067	2978.2556	2980.52	2993.4866	2998.7769	3006.9684	3022.958	3029.3251	3050.9505	3088.5796	3095.0303	3141.8817	3178.5643	3833.8457
CC1CC=CC(CO)C1	C[C@H]1CC=C[C@@H](CO)C1	
InChI=1S/C8H14O/c1-7-3-2-4-8(5-7)6-9/h2,4,7-9H,3,5-6H2,1H3	InChI=1S/C8H14O/c1-7-3-2-4-8(5-7)6-9/h2,4,7-9H,3,5-6H2,1H3/t7-,8+/m0/s1
