19
gdb 56979	2.84675	1.24723	0.97865	4.2959	79.29	-0.2415	0.0435	0.285	1232.3555	0.160065	-382.043436	-382.034837	-382.033893	-382.076969	32.333	
C	 0.0282476543	 1.4878182274	 0.1541825608	-0.400954
C	-0.0714123699	-0.0415608328	 0.0037724247	-0.145224
C	-1.4745182223	-0.4644083023	-0.0674327702	 0.266006
N	-2.5782477279	-0.7992170092	-0.1487712001	-0.334699
C	 0.6853426212	-0.5665214744	-1.2279552885	 0.023839
C	 2.2573080961	-0.4477635488	-1.2363295168	-0.261062
C	 2.3257394016	-1.9704434281	-1.3838997438	-0.040973
N	 1.6458602585	-2.5218961897	-0.1877673211	-0.332546
C	 0.8428718635	-2.0885562432	-1.3575446007	-0.06662
H	 1.0772775589	 1.7845227276	 0.236418955	 0.128411
H	-0.4072022358	 1.995746187	-0.7114419138	 0.132543
H	-0.4974255151	 1.829831639	 1.0490727377	 0.13659
H	 0.3682396639	-0.5253723159	 0.8836109475	 0.144791
H	 0.2606219309	-0.133777502	-2.1378272846	 0.091181
H	 2.6256122417	 0.0985013943	-2.1065017382	 0.109721
H	 2.7241319591	-0.0531777712	-0.3299227718	 0.109428
H	 3.0605077175	-2.5539164909	-1.9239174872	 0.09929
H	 1.7160749258	-3.5376488728	-0.2344915752	 0.234297
H	 0.1788635481	-2.7781921639	-1.8627013239	 0.10598
67.8469	122.2575	148.9672	214.8856	231.0007	276.0656	363.1825	400.4038	491.3509	545.9875	607.0566	698.4738	791.8371	815.3508	835.3286	870.5903	912.6091	955.5887	965.6902	974.9364	1009.4862	1033.0467	1084.9625	1092.2476	1110.6337	1117.5817	1147.0292	1176.0097	1219.4667	1256.2348	1265.7638	1300.8435	1324.7709	1344.1548	1375.0232	1383.4161	1412.5101	1476.8088	1494.8868	1499.9422	2352.0109	3046.554	3052.9936	3065.0501	3076.0789	3121.2846	3126.3515	3127.7085	3191.5856	3205.1421	3481.5415
CC(C#N)C1CC2NC12	C[C@@H](C#N)[C@H]1C[C@H]2N[C@@H]12	
InChI=1S/C7H10N2/c1-4(3-8)5-2-6-7(5)9-6/h4-7,9H,2H2,1H3	InChI=1S/C7H10N2/c1-4(3-8)5-2-6-7(5)9-6/h4-7,9H,2H2,1H3/t4-,5+,6+,7-/m0/s1
