20
gdb 121000	4.13387	0.96454	0.87201	2.4453	76.32	-0.2089	0.0699	0.2788	1363.6093	0.17065	-440.217232	-440.208448	-440.207503	-440.251276	32.491	
O	 0.2110993236	 1.3581029506	-0.0925354411	-0.412019
C	 0.0469584589	-0.0494392981	 0.0220916196	-0.074845
C	-1.4405223216	-0.3488528768	 0.1417567092	-0.137288
N	-2.1551218486	-0.0775337953	-1.087106772	-0.082266
C	-2.4833842379	 1.3325238196	-1.4353906585	-0.178754
C	-3.9243327661	 0.9090026368	-1.769838311	 0.098145
O	-4.098344856	 0.3341117063	-3.0807754352	-0.299066
C	-3.9407490374	-1.0144744052	-2.5686899359	-0.07222
C	-3.5773867009	-0.4770760411	-1.1751837585	-0.046789
H	 1.1234347302	 1.5378571176	-0.3356666448	 0.288728
H	 0.442308871	-0.5716816506	-0.8607774168	 0.09602
H	 0.5656229853	-0.435889752	 0.9143908222	 0.082008
H	-1.5542382147	-1.4150073043	 0.3733674973	 0.098708
H	-1.8396437871	 0.2193884494	 1.0054640722	 0.081974
H	-2.4401780176	 2.0074461381	-0.5690401569	 0.09925
H	-1.889630789	 1.7554688229	-2.249990331	 0.109463
H	-4.7510523222	 1.5624175329	-1.4836446745	 0.080137
H	-4.8881088377	-1.5680744306	-2.6204911304	 0.092614
H	-3.1483791285	-1.5695582766	-3.0813758761	 0.104741
H	-4.0198294738	-0.9260208836	-0.2827692977	 0.071459
63.9389	99.7917	121.2082	212.1832	240.9297	257.7019	328.0873	386.3848	410.3407	491.3588	670.4638	752.3234	809.8194	828.638	894.4765	940.6435	951.2949	963.0695	991.8702	1008.1143	1043.9313	1067.3233	1072.1265	1089.221	1122.7983	1158.5089	1164.1799	1194.7813	1213.6025	1218.9832	1247.0372	1270.3827	1291.2746	1310.1508	1331.4479	1345.9624	1358.8439	1404.7533	1457.9297	1473.4839	1493.7476	1504.1339	1510.8293	2907.5459	2970.0494	3005.5157	3007.2265	3022.1587	3051.5635	3074.9719	3079.3907	3090.9672	3091.6101	3837.7888
OCCN1CC2OCC12	OCCN1C[C@H]2OC[C@@H]12	
InChI=1S/C6H11NO2/c8-2-1-7-3-6-5(7)4-9-6/h5-6,8H,1-4H2	InChI=1S/C6H11NO2/c8-2-1-7-3-6-5(7)4-9-6/h5-6,8H,1-4H2/t5-,6-/m1/s1
