19
gdb 106148	2.44472	1.52332	1.20053	0.8564	74.9	-0.2154	0.0704	0.2857	1116.8875	0.158205	-422.955843	-422.947373	-422.946428	-422.988951	32.596	
C	 0.1478629173	 1.4549782735	-0.2589943505	-0.373325
C	-0.0958901307	-0.0249799359	 0.0656447519	-0.335875
C	 0.6240118099	-0.4930220587	 1.2899476658	 0.267603
C	 2.0593308503	-0.7367837008	 1.6522607819	-0.042415
O	 2.0538450076	 0.0528339469	 2.840066596	-0.294804
C	 0.6040891174	-0.1031295258	 2.8255358263	 0.015125
C	 0.3786230645	-1.5935555901	 3.1913425576	-0.302386
C	 1.0124700876	-1.8635875892	 1.8255073469	 0.267894
O	 1.0243567459	-3.0280581314	 1.0885025571	-0.459023
H	 1.2124774277	 1.6509588224	-0.4197835488	 0.122857
H	-0.393936509	 1.7518115917	-1.1622094004	 0.112057
H	-0.1875092083	 2.0994403909	 0.5600919889	 0.11884
H	-1.1728909639	-0.2061090804	 0.1819079545	 0.103693
H	 0.2228515452	-0.6517165192	-0.7764423715	 0.115303
H	 2.9616827371	-0.8184501521	 1.0587514939	 0.104907
H	 0.0691854238	 0.7115048282	 3.3090777907	 0.087907
H	 0.8700752091	-1.9507294693	 4.102366087	 0.095092
H	-0.6827064418	-1.855744515	 3.1909092728	 0.106944
H	 1.76942733	-3.5669169059	 1.3779397101	 0.289605
76.6935	116.8489	181.1412	240.9637	282.3998	296.3187	361.8303	412.8479	474.2834	567.9371	609.427	644.9397	739.0778	779.0463	818.2112	848.077	917.9869	930.6001	946.4974	955.5877	982.7676	1021.128	1040.766	1094.988	1112.9039	1127.6528	1159.8537	1179.9906	1217.9598	1230.8067	1272.3974	1303.0153	1310.4505	1349.1294	1369.4977	1410.8497	1468.1069	1478.6197	1497.2668	1501.1375	1508.8708	3016.0068	3036.8075	3044.193	3052.4963	3106.1147	3110.5227	3111.3991	3143.5693	3196.5374	3787.4887
CCC12C3OC1CC23O	CC[C@@]12[C@H]3O[C@@H]1C[C@@]23O	
InChI=1S/C7H10O2/c1-2-6-4-3-7(6,8)5(6)9-4/h4-5,8H,2-3H2,1H3	InChI=1S/C7H10O2/c1-2-6-4-3-7(6,8)5(6)9-4/h4-5,8H,2-3H2,1H3/t4-,5-,6+,7+/m1/s1
