14
gdb 131273	5.92548	0.95645	0.82352	2.87	67.68	-0.2108	0.0157	0.2265	1295.6897	0.103432	-466.211965	-466.204003	-466.203059	-466.245003	28.997	
O	 0.0657678767	 1.3637142329	-0.0250411248	-0.419849
C	 0.0631226412	 0.0277697955	-0.0279194752	 0.468691
N	 0.125569252	-0.7647361619	-1.0740501452	-0.443098
C	 0.086487125	-2.0078368931	-0.4855452685	 0.471228
N	 0.1344273034	-3.1105739236	-1.3172608887	-0.375753
C	 0.1137910338	-4.4531148553	-1.0051721886	 0.070853
N	 0.0415094575	-4.9127215641	 0.1768457695	-0.415436
N	 0.0058474407	-2.0258899839	 0.8301370146	-0.280784
N	-0.0077109431	-0.6741930459	 1.1099967136	-0.253238
H	 0.1238035895	 1.6462501525	-0.9464184833	 0.320561
H	 0.1947592826	-2.8649876857	-2.2913669175	 0.262203
H	 0.1683029772	-5.053897498	-1.9221539739	 0.086596
H	 0.0416628516	-5.9303727528	 0.1485001506	 0.221602
H	-0.0656903782	-0.3509688767	 2.0598841675	 0.286426
48.1169	158.189	170.7183	265.8764	299.6162	372.4779	402.6893	465.0794	474.4977	500.94	587.2768	716.7664	760.9417	768.7824	806.2069	844.2813	992.0839	1047.4245	1086.6022	1117.3488	1143.4088	1195.5119	1253.8249	1311.3893	1372.3316	1424.0235	1516.4552	1582.524	1627.3578	1654.1847	1738.6074	3032.608	3504.9109	3662.0364	3688.6004	3807.6764
OC1=NC(NC=N)=NN1	Oc1nc(NC=N)n[nH]1	
InChI=1S/C3H5N5O/c4-1-5-2-6-3(9)8-7-2/h1H,(H4,4,5,6,7,8,9)	InChI=1S/C3H5N5O/c4-1-5-2-6-3(9)8-7-2/h1H,(H4,4,5,6,7,8,9)
