19
gdb 91435	2.21392	1.73342	1.26381	3.7287	75.21	-0.243	-0.0265	0.2164	1063.2722	0.158212	-422.995154	-422.986737	-422.985793	-423.028713	31.47	
C	-0.8795890094	 1.2284905917	-0.1277122104	-0.43358
C	-0.0154771757	-0.0247650134	-0.097912558	 0.034522
C	 1.4102828411	-0.0040963455	-0.7417065944	-0.268716
C	 1.9641973374	-0.7489938645	 0.4979070922	 0.131462
O	 2.6269399672	 0.1268717656	 1.4312501102	-0.283572
C	 1.4185464538	 0.3250424011	 2.172470243	 0.041803
C	 1.017769325	 1.765185375	 2.3765246833	 0.147436
O	 1.6116223308	 2.7200422473	 1.9493059138	-0.245819
C	 0.5934592604	-0.5960121873	 1.2187888354	-0.147707
H	-0.3362992865	 2.112217286	 0.2147827454	 0.145655
H	-1.2163280842	 1.4305920064	-1.1504017854	 0.119389
H	-1.7734383414	 1.1115618759	 0.4956662692	 0.113171
H	-0.5848649795	-0.8491322702	-0.5424654616	 0.083557
H	 1.4999669534	-0.5205358227	-1.7001995768	 0.101454
H	 1.8526643839	 0.9915658545	-0.8248180731	 0.128928
H	 2.4976699315	-1.6917109558	 0.3591990548	 0.082583
H	 1.4893291951	-0.1217343876	 3.1794421781	 0.096876
H	 0.0982760258	 1.8742146163	 3.0007008122	 0.071724
H	 0.0562896214	-1.4064377026	 1.7101230323	 0.080831
46.8196	109.7076	177.6673	230.0174	244.2428	282.4089	350.5898	407.6	538.4532	598.959	673.4659	716.844	791.424	836.5404	857.0799	874.8473	929.1499	948.6193	977.514	1020.9637	1024.8698	1087.2706	1114.0549	1119.9067	1133.7722	1170.4006	1190.2145	1210.7623	1233.9239	1267.5164	1296.2505	1307.6591	1331.0807	1360.2603	1371.7425	1414.0116	1418.4001	1472.3594	1494.1426	1509.2737	1832.7308	2842.7281	2956.8588	3029.9257	3035.1464	3064.4821	3085.8783	3090.653	3114.2727	3124.8541	3128.84
CC1CC2OC(C=O)C12	C[C@H]1C[C@H]2O[C@@H](C=O)[C@@H]12	
InChI=1S/C7H10O2/c1-4-2-5-7(4)6(3-8)9-5/h3-7H,2H2,1H3	InChI=1S/C7H10O2/c1-4-2-5-7(4)6(3-8)9-5/h3-7H,2H2,1H3/t4-,5+,6-,7-/m0/s1
