16
gdb 86869	3.252	1.17765	0.94318	1.3376	67.66	-0.2585	-0.05	0.2085	1217.8384	0.122547	-475.041825	-475.033144	-475.0322	-475.076196	30.62	
C	-0.2466163226	 1.5369896723	-0.0187503528	-0.398682
C	 0.2828751854	 0.1155175478	-0.0991733377	 0.031759
O	 1.4356312743	 0.0551487125	-0.9506980701	-0.271203
C	 2.3786195264	-0.8070800158	-0.3699466881	 0.106342
O	 2.045519855	-0.9413176907	 1.0086001084	-0.23918
C	 0.7939540789	-0.4271805472	 1.2212635538	 0.387445
N	 0.1785201552	-0.4024711122	 2.3171259534	-0.529386
C	 2.3123289359	-2.1895636852	-1.0286843884	 0.150742
O	 3.2425909792	-2.7009416608	-1.5876952746	-0.220951
H	 0.5326217965	 2.2149244241	 0.3385316007	 0.132327
H	-0.5854285186	 1.8725558014	-1.0018431173	 0.132325
H	-1.08562643	 1.5657219874	 0.6805734258	 0.151813
H	-0.4992422645	-0.5548682884	-0.4830339697	 0.11725
H	 3.3864578251	-0.3924655974	-0.4699900071	 0.123984
H	 0.7219097876	-0.8359045666	 3.0642705459	 0.235661
H	 1.3129234962	-2.6745940811	-0.9566392323	 0.089753
64.9001	69.5198	91.3145	216.5983	242.9837	293.0541	357.5911	381.6191	454.19	467.4727	607.0313	686.4398	785.7332	821.2055	885.3477	890.4909	972.0882	1015.562	1027.3304	1075.5439	1088.5176	1098.1888	1138.6577	1166.4911	1269.3354	1312.848	1340.145	1352.0699	1382.7012	1405.0367	1414.6211	1483.1929	1493.9416	1799.9374	1849.5623	2886.967	3005.8809	3054.0808	3079.2511	3134.3338	3140.6854	3489.4714
CC1OC(OC1=N)C=O	C[C@H]1O[C@@H](O[C]1[NH])C=O	
InChI=1S/C5H7NO3/c1-3-5(6)9-4(2-7)8-3/h2-4,6H,1H3	InChI=1S/C5H7NO3/c1-3-5(6)9-4(2-7)8-3/h2-4,6H,1H3/t3-,4+/m1/s1
