17
gdb 62531	2.38539	1.41854	1.2049	2.8861	75.15	-0.2488	0.0031	0.2519	1100.1737	0.135862	-414.188904	-414.179671	-414.178727	-414.222632	34.083	
C	-0.1373071983	 1.5302580884	-0.1044474126	-0.436561
C	-0.0231729705	 0.0143489049	 0.0092740744	 0.217724
N	-1.3318624776	-0.579711525	 0.1211875369	-0.545143
C	 0.9066824162	-0.6210388664	-1.117489536	-0.17167
N	 1.9498260346	-0.7487450038	-0.0863492969	-0.335939
C	 1.0949596156	-0.4404046883	 0.9762407878	 0.344234
N	 1.1297828946	-0.5009339574	 2.23484814	-0.546939
C	 0.4359508597	-1.8928838587	-1.6607152906	 0.304175
N	 0.0886538721	-2.9165731044	-2.0707279412	-0.32673
H	 0.8375647013	 1.9871166892	-0.2929879161	 0.131751
H	-0.8250095409	 1.7965219636	-0.9118923155	 0.1365
H	-0.5221835917	 1.9410454894	 0.8342867426	 0.139333
H	-1.2711334705	-1.5683772492	 0.3460928353	 0.246773
H	-1.8421220788	-0.1374315076	 0.8795125455	 0.244303
H	 1.1706757351	 0.0521286062	-1.9383890762	 0.128143
H	 2.6802977209	-1.4479055611	-0.0910390221	 0.252921
H	 2.0018331584	-0.8992867998	 2.5869718347	 0.217126
74.3505	140.8202	175.0792	207.68	224.3772	251.5224	286.7365	331.1335	379.6504	440.3583	475.4452	550.7694	608.6898	693.7816	699.3522	766.9346	830.6102	850.3645	885.5405	976.4549	1000.3692	1030.3633	1045.2642	1076.7524	1137.4354	1177.0269	1274.4978	1294.396	1326.0347	1353.9108	1372.4198	1406.5815	1487.3977	1494.0119	1666.2776	1805.1393	2352.2744	3043.0387	3067.819	3116.1487	3128.1771	3462.7817	3501.023	3578.6278	3589.3178
CC1(N)C(NC1=N)C#N	C[C@@]1(N)[C@@H](N[C]1[NH])C#N	
InChI=1S/C5H8N4/c1-5(8)3(2-6)9-4(5)7/h3H,8H2,1H3,(H2,7,9)	InChI=1S/C5H8N4/c1-5(8)3(2-6)9-4(5)7/h3H,8H2,1H3,(H2,7,9)/t3-,5+/m0/s1
