21
gdb 112025	3.17083	1.28166	1.04311	1.4418	83.8	-0.2412	0.0169	0.2581	1227.1645	0.183927	-387.086342	-387.078009	-387.077065	-387.119533	32.02	
C	-0.1568560108	 1.4983352324	-0.0931963421	-0.390423
C	-0.0500393162	-0.0253665004	 0.0165850784	-0.167035
C	 0.7292393661	-0.5024712701	 1.2561755047	-0.050017
C	 0.0685282274	-0.2147432891	 2.5918535053	-0.065098
C	 0.0014169019	-1.281672476	 3.3889387396	-0.093069
C	 0.5741262761	-2.5140819441	 2.7454511177	-0.124769
C	-0.4498093194	-3.4297361666	 2.0335583702	-0.073536
O	-0.1990437558	-2.7843227848	 0.7679061559	-0.289702
C	 0.9163798741	-2.0345602438	 1.3098424937	 0.100168
H	 0.8332552653	 1.9677556994	-0.1212520412	 0.1109
H	-0.6862177816	 1.7873712914	-1.0065169087	 0.113372
H	-0.7034260907	 1.9309020729	 0.7513992167	 0.11501
H	-1.0454458442	-0.4786293557	 0.0314387091	 0.113703
H	 0.4491667788	-0.4177464385	-0.8781696886	 0.097305
H	 1.7214619743	-0.0241667757	 1.2291885753	 0.071942
H	-0.2960260677	 0.7720860599	 2.8564199139	 0.094966
H	-0.4273535665	-1.2904727684	 4.3855559739	 0.092813
H	 1.3403460511	-3.0198570895	 3.3379340316	 0.079229
H	-0.1706354031	-4.491751454	 2.0074662888	 0.094286
H	-1.4964217864	-3.3370946478	 2.3460113972	 0.101825
H	 1.8604845076	-2.3704062915	 0.8660971184	 0.068128
78.8535	102.29	175.096	210.5429	249.2678	298.6716	365.4994	458.6161	531.8852	683.3643	738.5388	760.5206	806.2651	820.297	860.5211	878.2452	894.1046	945.8796	958.9248	980.1818	1008.6834	1029.3288	1055.5202	1073.264	1081.2926	1124.1232	1132.5878	1149.1904	1166.0215	1223.1625	1249.3696	1270.8923	1287.5051	1309.0609	1320.9202	1344.7003	1357.6917	1374.4806	1395.1253	1412.5903	1487.201	1501.2738	1507.3897	1521.7829	1675.7433	2971.7803	3004.4606	3029.4244	3031.9462	3038.8565	3058.6686	3079.8931	3080.3599	3101.2421	3103.1214	3176.5242	3201.7188
CCC1C=CC2COC12	CC[C@H]1C=C[C@H]2CO[C@@H]12	
InChI=1S/C8H12O/c1-2-6-3-4-7-5-9-8(6)7/h3-4,6-8H,2,5H2,1H3	InChI=1S/C8H12O/c1-2-6-3-4-7-5-9-8(6)7/h3-4,6-8H,2,5H2,1H3/t6-,7-,8-/m0/s1
