19
gdb 40106	2.9296	1.64357	1.21849	1.4313	81.34	-0.236	0.005	0.2409	1052.5596	0.160457	-385.838308	-385.830867	-385.829923	-385.870097	29.858	
C	-0.0755647026	 1.4588104004	-0.0299064382	-0.292889
C	 1.284914075	 0.8039680371	 0.0300068641	-0.33351
C	 0.0425882335	-0.0408312514	 0.0167233171	 0.318468
C	-0.4558087252	-0.8449902305	 1.2465975808	-0.328579
C	-1.6652318712	-1.5944566389	 0.6863233384	-0.20105
C	-1.5582186113	-1.6518163447	-0.6360172574	 0.190059
C	-2.2832918785	-1.3974892939	-1.933520417	-0.15315
O	-1.2952130152	-0.3609035769	-2.2305040348	-0.310147
C	-0.4019291908	-0.8776237534	-1.1771963643	 0.029248
H	-0.4374226892	 1.9694803923	 0.8568026892	 0.108069
H	-0.3969628624	 1.8980268219	-0.9675996917	 0.131402
H	 1.9029788997	 0.8210823799	-0.8621999495	 0.113576
H	 1.8432654928	 0.8744487652	 0.95818969	 0.1082
H	 0.3226863725	-1.5172786328	 1.6340754447	 0.110048
H	-0.7420011477	-0.1896066709	 2.0773773123	 0.107542
H	-2.5122312983	-1.8906570345	 1.2937388199	 0.099901
H	-2.2434137175	-2.2005086478	-2.6812573204	 0.106848
H	-3.3035046446	-1.0050980675	-1.8684917788	 0.120007
H	 0.420835211	-1.4292954738	-1.6528403443	 0.075956
91.9431	202.2046	239.6903	264.9565	319.0449	392.8063	468.6513	502.501	649.6082	753.4235	772.8294	788.1176	832.8452	873.8721	890.4564	908.4319	931.0798	952.5709	967.2345	979.6973	1006.2707	1018.8167	1031.4055	1055.6256	1078.6846	1112.8405	1139.1216	1173.6435	1189.2261	1227.6534	1252.1381	1275.4308	1296.4059	1331.6841	1339.3346	1375.7586	1467.684	1488.3351	1504.7218	1510.8483	1742.4444	3001.4268	3006.4001	3013.5903	3056.9458	3074.0456	3122.2874	3131.1764	3201.5703	3202.3553	3222.5634
C1CC11CC=C2COC12	C1CC21C[CH][C]1CO[C@@H]21	
InChI=1S/C8H10O/c1-2-8(3-4-8)7-6(1)5-9-7/h1,7H,2-5H2	InChI=1S/C8H10O/c1-2-8(3-4-8)7-6(1)5-9-7/h1,7H,2-5H2/t7-/m1/s1
