18
gdb 83715	2.74298	1.69325	1.19488	4.783	71.82	-0.2423	0.0575	0.2998	1048.859	0.1492	-439.130015	-439.122023	-439.121079	-439.163004	29.61	
C	-0.0236803858	 1.4485734728	 0.0368983804	-0.345836
N	-0.0037818339	 0.0091881704	-0.0722155377	-0.123908
C	-1.1855616129	-0.8150314781	-0.1021916383	-0.02554
C	-1.841378561	-1.0168088185	-1.4985883283	-0.243331
C	-0.9695855158	-2.2934436621	-1.7062321424	-0.25076
C	-0.5326288018	-2.2199305532	-0.2186772907	 0.107355
O	 0.8598266187	-2.0544727583	 0.0197946207	-0.252533
C	 1.1592714414	-0.7146141815	 0.056718088	 0.477633
O	 2.2769325784	-0.2925671798	 0.1816536953	-0.401158
H	 1.0109782708	 1.7894816682	 0.0988924851	 0.169472
H	-0.5009272035	 1.9073509391	-0.836655453	 0.125586
H	-0.5639143843	 1.772761091	 0.936258812	 0.122568
H	-1.8587822714	-0.5953400855	 0.7351218872	 0.0797
H	-2.9097099166	-1.2341768695	-1.4226838461	 0.11061
H	-1.6990534132	-0.2026337173	-2.2119982257	 0.11206
H	-1.4994069157	-3.199925082	-2.0044456366	 0.112124
H	-0.1210684846	-2.145966782	-2.3771304649	 0.127075
H	-0.9081041687	-3.0113579236	 0.4302014652	 0.098886
84.5171	110.2381	149.2049	160.1142	282.7303	357.8151	422.1391	512.3735	620.7943	694.2644	699.0189	762.4923	779.4346	787.8559	888.239	920.2871	946.2613	967.468	1019.3847	1071.3591	1110.7168	1113.9208	1145.3066	1163.9404	1189.8916	1235.8315	1250.1591	1268.2703	1285.4338	1312.0048	1335.6436	1368.2966	1421.6769	1452.4991	1468.8302	1485.4302	1491.9558	1522.4688	1871.2605	3011.5013	3026.5791	3064.3756	3067.9289	3078.7942	3109.7117	3118.3345	3139.0233	3145.37
CN1C2CCC2OC1=O	CN1[C@H]2CC[C@H]2OC1=O	
InChI=1S/C6H9NO2/c1-7-4-2-3-5(4)9-6(7)8/h4-5H,2-3H2,1H3	InChI=1S/C6H9NO2/c1-7-4-2-3-5(4)9-6(7)8/h4-5H,2-3H2,1H3/t4-,5+/m0/s1
