19
gdb 47790	2.40626	1.74343	1.17092	2.9661	77.75	-0.2478	0.0114	0.2592	1079.3495	0.162523	-419.194488	-419.186753	-419.185809	-419.226919	30.252	
N	-0.0530720239	 1.2130069444	 0.7223060862	-0.497612
C	 0.0350448661	 0.1110364829	 0.0980628826	 0.376073
O	 1.2404070005	-0.484589945	-0.1305851258	-0.251268
C	 1.6038658645	-0.9053108136	-1.4516190246	-0.084347
C	 0.9265082821	-2.1822473777	-1.9393164177	-0.2057
C	-0.505373032	-1.9830721914	-2.4388077842	-0.221489
C	-1.4990927052	-1.5396880409	-1.3874255542	-0.02588
N	-1.3275340125	-2.0446616415	-0.0278451564	-0.332919
C	-1.2343674949	-0.587414931	-0.263992006	-0.069275
H	 0.8863315005	 1.5652792289	 0.9199708718	 0.218502
H	 1.4340041426	-0.0785897292	-2.1566458423	 0.100837
H	 2.6832890878	-1.06353796	-1.382318367	 0.117893
H	 1.5312361678	-2.5804175458	-2.7632824474	 0.097208
H	 0.9462619022	-2.9196666993	-1.1317788004	 0.134821
H	-0.5147132831	-1.2513109315	-3.2582546717	 0.102421
H	-0.8690081845	-2.9257619633	-2.8676198591	 0.104792
H	-2.5194769486	-1.4769354377	-1.7671929553	 0.087599
H	-2.2166291379	-2.2709187992	 0.4077004164	 0.239354
H	-2.0800447215	 0.0229933108	 0.0382621951	 0.108992
65.0807	158.557	236.1598	277.2718	330.0679	359.3063	421.9103	468.01	562.5148	638.9689	685.0557	754.9354	772.9832	839.865	887.2031	913.2576	933.2151	942.2461	967.0325	990.3608	1042.0217	1080.4485	1083.1451	1127.6159	1158.2469	1182.3354	1209.4632	1226.2942	1266.4638	1289.7146	1320.459	1341.5897	1393.841	1399.5981	1406.066	1432.6279	1458.8149	1477.0459	1483.171	1503.4246	1721.2387	3003.1721	3013.7529	3037.1082	3049.1425	3092.2456	3097.1984	3102.8771	3159.6358	3460.2975	3516.2164
N=C1OCCCC2NC12	[NH][C]1OCCC[C@H]2N[C@@H]12	
InChI=1S/C6H10N2O/c7-6-5-4(8-5)2-1-3-9-6/h4-5,7-8H,1-3H2	InChI=1S/C6H10N2O/c7-6-5-4(8-5)2-1-3-9-6/h4-5,7-8H,1-3H2/t4-,5-/m1/s1
