18
gdb 7448	2.96499	1.66729	1.12212	5.2681	64.19	-0.2417	0.0266	0.2682	1048.3781	0.154248	-418.291638	-418.282659	-418.281715	-418.325241	32.736	
C	 0.0016803334	 1.5880304332	-0.0443106876	-0.380044
C	 0.0050936394	 0.0614623594	 0.064609668	 0.010968
N	 0.6347915638	-0.4217987672	 1.3172274722	-0.529611
H	 0.0010689885	-2.0219362911	 1.1916697966	 0.316584
H	 1.6340636259	-0.2425719879	 1.3039350421	 0.247687
H	 0.2573120265	 0.0920160333	 2.1104253104	 0.242727
C	-1.4164504345	-0.5438470133	-0.0299812461	-0.111705
N	-2.1435969773	 0.019463611	-1.1627204572	-0.508033
C	-1.4353061275	-2.1001614788	-0.040819921	 0.389323
O	-0.5845533264	-2.7161957851	 0.7802199382	-0.375105
O	-2.2122727637	-2.705087151	-0.7370591409	-0.344603
H	 1.023363236	 1.976688122	 0.0267073303	 0.104774
H	-0.4400135829	 1.9187720293	-0.9850993941	 0.14693
H	-0.5893488293	 2.0281000787	 0.7677505877	 0.115449
H	 0.6053185448	-0.3548504038	-0.755996742	 0.098804
H	-1.9515557661	-0.2454542785	 0.886443532	 0.102034
H	-1.6505933505	-0.2377290107	-2.0168789022	 0.22752
H	-3.0218363401	-0.4896841792	-1.2346658564	 0.246301
66.6554	97.2157	159.1193	221.9561	267.038	299.1717	325.9742	355.5091	376.5171	415.8046	474.1071	547.6175	595.9581	733.5885	853.5107	870.9891	925.1587	949.3183	987.1712	1008.62	1025.9154	1105.4531	1114.2408	1165.8783	1183.4769	1243.8692	1295.812	1309.3848	1362.7985	1398.1809	1404.0539	1417.7797	1484.4166	1497.7164	1513.9769	1648.7878	1676.6303	1842.3997	2978.2712	3020.8258	3031.5054	3094.0558	3144.3354	3159.8312	3468.9164	3483.063	3537.463	3567.1487
CC([NH3+])C(N)C([O-])=O	C[C@@H](N)[C@@H](N)C(=O)O	
InChI=1S/C4H10N2O2/c1-2(5)3(6)4(7)8/h2-3H,5-6H2,1H3,(H,7,8)	InChI=1S/C4H10N2O2/c1-2(5)3(6)4(7)8/h2-3H,5-6H2,1H3,(H,7,8)/t2-,3-/m1/s1
