18
gdb 133608	2.9212	1.21137	1.07883	2.1757	63.72	-0.3295	0.0742	0.4037	1150.7833	0.146035	-533.487363	-533.479169	-533.478225	-533.521102	30.72	
F	-0.0382360703	-0.2093081333	 0.4552555295	-0.090085
C	-0.0546196377	 1.1039333758	 0.1525718976	 0.270125
F	 1.2227353988	 1.4791744058	-0.0327390159	-0.08357
F	-0.680522047	 1.2279035046	-1.0303744327	-0.084604
C	-0.7301214314	 1.9245633396	 1.2317952849	-0.107206
C	-2.2216383852	 1.5129142615	 1.4146098692	-0.234065
C	-2.4101034378	 1.3281189507	 2.9331676955	-0.197873
C	-1.035150521	 0.8412450964	 3.4124801228	-0.196275
C	-0.0556683604	 1.7219694016	 2.6188333093	-0.229918
H	-0.6421634294	 2.9634266923	 0.9037273815	 0.099861
H	-2.9037906109	 2.2495203015	 0.9850107532	 0.106833
H	-2.4096473416	 0.5658227917	 0.9004314422	 0.12089
H	-2.64774732	 2.2894729743	 3.4051521193	 0.09876
H	-3.2244240495	 0.6390275218	 3.1729889662	 0.100115
H	-0.8971547351	 0.9222628568	 4.4940343421	 0.096817
H	-0.8957101298	-0.2103341277	 3.1371723406	 0.110426
H	 0.9461369639	 1.294828205	 2.5358233837	 0.115957
H	 0.0513970545	 2.6952647416	 3.1080127911	 0.103813
49.5363	77.0866	185.8473	244.543	270.5931	344.4232	403.9455	512.7144	543.4884	576.004	639.8717	661.2454	779.262	832.3789	875.195	912.7477	921.8984	940.0504	951.6191	1032.4044	1047.2666	1087.6031	1110.9837	1182.3194	1195.8079	1201.5782	1230.5643	1256.6013	1286.5931	1301.3353	1319.716	1342.9508	1348.1066	1360.7623	1401.9662	1488.3956	1492.4271	1494.0607	1513.6647	3031.6889	3044.603	3052.9303	3063.2883	3077.9355	3092.1532	3097.3975	3110.0203	3114.3457	49.5349	77.0861	185.8471	244.5428	270.5929	344.4232	403.9456	512.7144	543.4883	576.004	639.8717	661.2454	779.262	832.379	875.1951	912.7476	921.8984	940.0504	951.6191	1032.4046	1047.2666	1087.6031	1110.9838	1182.3194	1195.808	1201.5782	1230.5647	1256.6014	1286.5932	1301.3356	1319.7162	1342.9512	1348.1066	1360.7624	1401.9664	1488.3959	1492.4274	1494.0608	1513.6649	3031.6888	3044.603	3052.9303	3063.2883	3077.9355	3092.1532	3097.3975	3110.0203	3114.3457
FC(F)(F)C1CCCC1	FC(F)(F)C1CCCC1	
InChI=1S/C6H9F3/c7-6(8,9)5-3-1-2-4-5/h5H,1-4H2	InChI=1S/C6H9F3/c7-6(8,9)5-3-1-2-4-5/h5H,1-4H2
