18
gdb 80492	2.20456	1.44097	1.24467	3.2065	78.02	-0.2676	0.0136	0.2812	1112.0411	0.147599	-401.938286	-401.929558	-401.928613	-401.971381	32.919	
C	-0.0624914803	 1.5612255337	-0.0487386289	-0.428317
C	 0.0825099941	 0.0554099854	 0.0318874599	-0.059227
C	 1.3254771467	-0.7321807647	-0.2326528657	-0.117892
C	 2.5850415298	-0.0217142824	 0.2743866788	-0.257092
C	 2.0140516405	-0.0493602241	 1.7175322181	 0.04485
O	 1.9575592637	 1.2072543136	 2.3426711156	-0.415136
C	 0.7066168405	-0.6985430611	 1.1974402972	 0.158171
C	 0.004701561	-1.7177241934	 1.9027869689	 0.174367
N	-0.5505124981	-2.5377918738	 2.5045104608	-0.352935
H	 0.784343414	 2.0875421486	 0.3892015517	 0.150636
H	-0.1720840802	 1.8707797022	-1.0938870115	 0.120205
H	-0.9610296123	 1.8804176893	 0.4889939591	 0.126546
H	-0.7988403423	-0.4765120245	-0.3220305535	 0.112124
H	 1.3267697766	-1.585959037	-0.898369182	 0.114122
H	 3.4948998921	-0.6145973649	 0.1738437382	 0.119066
H	 2.7654986647	 0.9760255189	-0.1315409972	 0.120767
H	 2.5530994747	-0.7773079502	 2.3363475792	 0.096804
H	 1.5666044449	 1.1003205841	 3.2165409213	 0.292941
123.5687	141.9643	156.7011	198.1502	236.2985	282.276	328.0032	374.5982	458.3176	525.6823	529.4582	560.3557	651.7605	714.9411	761.969	852.649	881.4144	957.7213	965.4172	1007.6888	1049.0543	1058.9626	1101.8562	1119.9893	1127.3991	1165.3476	1225.8365	1237.6919	1249.9515	1273.4545	1311.2946	1347.3937	1418.9493	1424.9875	1455.2125	1486.8732	1496.6263	1512.5955	2334.4044	3025.5773	3041.7788	3078.5768	3098.423	3129.2267	3132.5843	3166.1226	3198.9079	3810.4933
CC1C2CC(O)C12C#N	C[C@H]1[C@H]2C[C@@H](O)[C@@]12C#N	
InChI=1S/C7H9NO/c1-4-5-2-6(9)7(4,5)3-8/h4-6,9H,2H2,1H3	InChI=1S/C7H9NO/c1-4-5-2-6(9)7(4,5)3-8/h4-6,9H,2H2,1H3/t4-,5+,6+,7-/m0/s1
