21
gdb 114880	3.82163	1.07896	0.94809	1.3831	85.5	-0.2347	0.0088	0.2435	1332.1892	0.183193	-387.068589	-387.060067	-387.059122	-387.101926	32.719	
C	-0.2841802816	 1.3519058359	 0.0538113609	-0.380676
C	 0.1896236745	-0.1019613237	-0.0359392618	-0.190153
C	 0.9513212747	-0.5381104966	 1.2024542226	 0.071397
O	 0.1315463365	-0.5321437133	 2.426031824	-0.33344
C	 0.6880694661	-1.8290276997	 2.83759847	 0.118795
C	-0.1906326751	-3.0693220856	 3.0637273965	-0.250467
C	 0.4558758951	-4.1149060509	 2.0899002652	-0.243118
C	 1.0172790378	-3.2346261211	 0.9707294684	-0.207929
C	 1.1982490255	-2.0085052401	 1.4472155588	 0.171864
H	 0.5623569193	 2.0412253219	 0.1464973548	 0.113158
H	-0.851377531	 1.6363882091	-0.8373321382	 0.11126
H	-0.9267357922	 1.4910216201	 0.927693184	 0.138889
H	-0.6649929432	-0.7737979263	-0.169730093	 0.102416
H	 0.8467879958	-0.2373591773	-0.9050128367	 0.098716
H	 1.8335025655	 0.101551456	 1.3576888499	 0.07643
H	 1.4238802357	-1.6680758785	 3.6372833636	 0.075185
H	-0.2319350163	-3.4110227565	 4.1016876891	 0.094728
H	-1.2090676723	-2.843981618	 2.7318960123	 0.117347
H	 1.2331669193	-4.7040661446	 2.5953782463	 0.10987
H	-0.276859223	-4.8339011051	 1.7090614668	 0.10756
H	 1.1216135088	-3.5721489956	-0.0535942335	 0.098169
83.1191	114.5352	134.5486	211.4643	253.0306	302.3678	363.4389	445.4697	472.9628	597.8073	674.9636	727.9402	792.3391	819.8873	852.8145	867.5943	879.0479	905.5771	922.4863	956.7021	966.2832	1019.756	1050.6782	1066.7999	1092.8896	1110.3158	1150.8479	1168.6406	1207.3123	1231.6648	1260.5352	1272.1158	1289.6	1307.691	1322.7936	1341.9293	1358.9059	1405.3128	1412.3091	1474.74	1479.7443	1495.0421	1497.1522	1508.3401	1738.2609	2984.4918	3006.8053	3015.7719	3026.8614	3036.8425	3054.3763	3071.2499	3073.8569	3104.4824	3108.5994	3119.9042	3201.2357
CCC1OC2CCC=C12	CC[C@H]1O[C@H]2CC[CH][C]12	
InChI=1S/C8H12O/c1-2-7-6-4-3-5-8(6)9-7/h4,7-8H,2-3,5H2,1H3	InChI=1S/C8H12O/c1-2-7-6-4-3-5-8(6)9-7/h4,7-8H,2-3,5H2,1H3/t7-,8+/m1/s1
