20
gdb 122916	5.18007	0.52478	0.49096	3.4518	77.72	-0.2617	0.0109	0.2725	2180.9662	0.168463	-440.281769	-440.270927	-440.269983	-440.319069	36.948	
C	-0.0545414715	 1.3946955035	 0.0395562995	-0.22931
O	-0.0233379011	-0.0119027466	 0.006234141	-0.229604
C	 0.6440795366	-0.520672658	-1.1251936622	-0.05569
C	 0.6157492599	-2.0420785854	-1.0550661325	-0.203305
C	 1.323963781	-2.691469473	-2.2460932093	-0.210789
C	 1.2545421439	-4.2283519001	-2.1937814214	-0.02406
O	-0.0685709036	-4.7318307252	-2.1782094895	-0.404515
C	 2.0307431253	-4.8182887207	-3.3057876282	 0.256813
N	 2.6148282588	-5.2618613847	-4.1988032979	-0.314473
H	 0.9587658923	 1.8263701663	 0.0673126231	 0.104389
H	-0.5800646458	 1.8133728038	-0.8336361431	 0.103979
H	-0.5880091307	 1.6888752206	 0.9465136997	 0.129447
H	 0.1562386413	-0.169266975	-2.0521699171	 0.084145
H	 1.6859078973	-0.1545347179	-1.1562019264	 0.085247
H	 1.0903104066	-2.3582201792	-0.1182504413	 0.111958
H	-0.4236716448	-2.380173846	-1.0107643653	 0.12538
H	 0.8782088132	-2.3555809579	-3.1921196139	 0.109028
H	 2.3792320922	-2.3948272881	-2.279832402	 0.123426
H	 1.7013267538	-4.5758978791	-1.255069612	 0.142513
H	-0.4877308545	-4.5070237072	-3.0172923112	 0.295421
54.3069	57.4196	82.0208	119.2205	142.6046	174.6866	224.5536	236.0368	272.1749	331.2052	367.1591	405.823	504.1015	581.0017	593.065	763.2284	846.5411	899.8707	970.805	993.6519	1058.1192	1067.1322	1112.0791	1119.2226	1166.5288	1178.4847	1217.4641	1222.675	1265.6793	1277.7171	1307.1829	1326.6049	1342.0455	1389.5569	1420.437	1430.7485	1480.5628	1482.4252	1485.7204	1499.2286	1507.4213	1533.057	2354.6477	2937.2652	2962.1826	2969.7252	3012.0412	3020.2774	3043.4227	3053.8125	3068.5764	3101.8409	3115.9938	3797.5107
COCCCC(O)C#N	COCCC[C@@H](O)C#N	
InChI=1S/C6H11NO2/c1-9-4-2-3-6(8)5-7/h6,8H,2-4H2,1H3	InChI=1S/C6H11NO2/c1-9-4-2-3-6(8)5-7/h6,8H,2-4H2,1H3/t6-/m1/s1
