20
gdb 16764	4.78856	1.38611	1.22167	1.3483	74.64	-0.2332	0.0874	0.3206	1065.08	0.177847	-349.000578	-348.992764	-348.99182	-349.032886	30.037	
C	 0.0946134787	 1.5191277597	-0.0986154693	-0.382875
C	 0.0940442943	-0.010918929	-0.0436854857	-0.186645
C	 0.7243620401	-0.5678118203	 1.2249517989	 0.168393
C	 0.7534726363	-2.1103390307	 1.333814156	-0.273736
C	 2.0599605315	-2.3855922923	 2.0761818271	-0.064956
C	 3.3478949532	-2.2786898118	 1.2800941402	-0.302279
C	 2.8225680621	-1.0912797994	 2.0390449036	 0.102603
O	 2.1007108482	-0.1521208753	 1.2873799904	-0.276274
H	 1.1155618787	 1.9040494302	-0.0352358124	 0.137178
H	-0.35332631	 1.8812683938	-1.0289546223	 0.107778
H	-0.4762941284	 1.9443328063	 0.734519515	 0.110398
H	-0.9334994271	-0.3912376797	-0.108748764	 0.093785
H	 0.6386684198	-0.4190492205	-0.9043312576	 0.098148
H	 0.1987932236	-0.1556341626	 2.1034494763	 0.06265
H	-0.1143258166	-2.487456793	 1.8819512004	 0.102725
H	 0.7417153908	-2.5719549566	 0.3394058062	 0.100496
H	 2.0449683057	-3.0095867604	 2.9615295368	 0.089321
H	 4.2226543041	-2.7899427788	 1.6693244798	 0.108041
H	 3.2811014789	-2.2394434248	 0.1976261282	 0.114073
H	 3.3568355359	-0.6815143147	 2.8908988724	 0.091177
73.6489	110.3933	196.8146	238.2637	296.1918	390.26	442.4674	450.7784	611.962	703.3038	756.2116	795.0614	809.1403	843.166	914.2882	925.9674	963.3431	981.0813	998.7229	1030.1573	1040.1298	1065.9878	1098.6908	1110.5166	1131.9687	1149.0656	1164.7749	1203.8859	1224.8874	1280.0295	1299.1337	1319.254	1339.0797	1366.2463	1388.3071	1406.3109	1411.8567	1470.6751	1473.1292	1494.5229	1497.0167	1508.9394	2950.8428	3021.8456	3035.9056	3036.2319	3060.3108	3091.2992	3100.5078	3123.2196	3124.3435	3149.9588	3180.1088	3215.444
CCC1CC2CC2O1	CC[C@H]1C[C@H]2C[C@H]2O1	
InChI=1S/C7H12O/c1-2-6-3-5-4-7(5)8-6/h5-7H,2-4H2,1H3	InChI=1S/C7H12O/c1-2-6-3-5-4-7(5)8-6/h5-7H,2-4H2,1H3/t5-,6-,7+/m0/s1
