21
gdb 94549	2.58601	1.41277	1.19184	2.5931	77.68	-0.2487	0.0739	0.3226	1147.499	0.181618	-424.197308	-424.188209	-424.187265	-424.231007	35.037	
C	 0.0065049494	 1.5750350643	-0.5226665049	-0.464125
C	-0.0561922755	 0.131488387	-0.0752208237	 0.401572
C	 1.1416246753	-0.717596155	-0.1554380693	-0.233528
O	 0.7358065966	-0.1614949049	 1.1010801977	-0.289352
C	-1.4339181248	-0.4934994104	-0.0626488667	-0.088165
C	-1.6162819002	-1.9268830166	 0.5125563482	-0.259684
C	-2.8325318693	-1.4259673895	 1.3385145615	-0.249945
C	-2.4302126655	 0.044813306	 1.0309380666	 0.130234
O	-1.8343258749	 0.7570375934	 2.0920121852	-0.437637
H	 1.0312189936	 1.9518666135	-0.4747714965	 0.123279
H	-0.3556350877	 1.6774681006	-1.5512731524	 0.117278
H	-0.6204860182	 2.1906228666	 0.1285299296	 0.149407
H	 1.0419412531	-1.7981962951	-0.2416742451	 0.11467
H	 2.0641917354	-0.3048992249	-0.5610736038	 0.115017
H	-1.8743253213	-0.3993834948	-1.0611002534	 0.073367
H	-1.7999240451	-2.7244547261	-0.2103805681	 0.097036
H	-0.7778942641	-2.2158594286	 1.1509674301	 0.115028
H	-3.7946859755	-1.6991897479	 0.8965041285	 0.100005
H	-2.8498841871	-1.6817715347	 2.4005627567	 0.104744
H	-3.2361989419	 0.6855850633	 0.664033557	 0.08272
H	-0.9991609925	 0.3267577936	 2.3149438927	 0.298078
74.4659	100.2051	173.8167	204.9278	226.2806	325.9617	344.9825	392.7038	401.0944	454.3379	475.9292	552.9341	688.2659	725.192	769.7394	814.7412	857.5515	908.9771	922.0476	941.1428	955.2269	999.5805	1018.1584	1045.1228	1096.0316	1101.4998	1133.3325	1144.6978	1171.9367	1194.0699	1235.4852	1239.6057	1262.8605	1264.5137	1287.1666	1329.7197	1371.18	1389.0831	1410.7341	1446.7294	1471.1265	1481.257	1489.062	1503.1958	1528.8495	3039.3597	3048.7873	3057.43	3065.1827	3076.4122	3087.0712	3108.3036	3111.1445	3125.565	3126.8842	3172.8056	3776.7188
CC1(CO1)C1CCC1O	C[C@]1(CO1)[C@H]1CC[C@H]1O	
InChI=1S/C7H12O2/c1-7(4-9-7)5-2-3-6(5)8/h5-6,8H,2-4H2,1H3	InChI=1S/C7H12O2/c1-7(4-9-7)5-2-3-6(5)8/h5-6,8H,2-4H2,1H3/t5-,6+,7-/m0/s1
