25
gdb 57352	2.1993	1.39183	1.24875	1.8755	87.15	-0.2421	0.0652	0.3074	1217.2187	0.226836	-389.476784	-389.466218	-389.465274	-389.511758	40.542	
C	 0.286058587	 1.5079506019	 0.1738334371	-0.414135
C	 0.0075948748	-0.002961339	 0.0052266542	 0.19465
C	 0.6281541678	-0.7335912782	 1.2142330208	-0.415587
C	-1.5220258959	-0.2043489451	 0.0229051073	-0.415593
C	 0.6081014243	-0.5622267995	-1.3270570289	 0.311639
C	 0.3558126179	-2.0583036842	-1.5367104655	-0.479847
C	 0.3113384063	 0.2945516457	-2.590957937	-0.124751
O	 1.6706390434	 0.7649840118	-2.6547364722	-0.276297
C	 2.0779692144	-0.140502067	-1.6120265254	-0.124754
H	 1.3546008696	 1.7344995421	 0.2087532895	 0.118603
H	-0.1552607105	 2.1060207764	-0.627340989	 0.118587
H	-0.1506403595	 1.8542770053	 1.1163169953	 0.106952
H	 0.2680333987	-0.2904657528	 2.1485694448	 0.111009
H	 0.3671940157	-1.7951352057	 1.236018724	 0.113278
H	 1.720890178	-0.6538329437	 1.2145423354	 0.111232
H	-1.9988707954	 0.2615633052	-0.8465675656	 0.11123
H	-1.8011132757	-1.2614293832	 0.0348564825	 0.11328
H	-1.953095281	 0.2564215551	 0.9178356908	 0.111008
H	-0.71178574	-2.2927440766	-1.5806050347	 0.119315
H	 0.799820953	-2.3841709563	-2.4826114279	 0.116658
H	 0.8002981595	-2.665214065	-0.7425140646	 0.119312
H	 0.0419508804	-0.2971953354	-3.4768554942	 0.089475
H	-0.4044203035	 1.1178164597	-2.4931825655	 0.097632
H	 2.6260983511	 0.3715180585	-0.8138880734	 0.09763
H	 2.7072756198	-0.9535520601	-1.9999337177	 0.089477
65.9535	71.5013	177.5495	211.1071	237.152	255.9844	283.7467	296.3463	321.9634	367.6971	380.0475	387.9241	428.6915	470.5511	479.1522	601.0851	770.9743	848.8793	889.814	898.9358	931.0364	933.6472	956.157	976.1907	980.8216	1003.3008	1038.9365	1041.8419	1050.2713	1162.9337	1164.1558	1168.1306	1182.1301	1211.4965	1248.4374	1264.2561	1295.7403	1310.7594	1378.82	1397.9097	1400.7575	1414.2423	1434.285	1478.2934	1483.7904	1483.8186	1496.7536	1497.096	1506.5622	1511.0751	1518.617	1530.6538	1543.0576	2997.1429	3007.3737	3030.2928	3032.7257	3040.153	3045.7484	3058.5472	3061.3532	3093.588	3094.8956	3100.5934	3103.6141	3106.7092	3113.4681	3116.5627	3125.7937
CC(C)(C)C1(C)COC1	CC(C)(C)C1(C)COC1	
InChI=1S/C8H16O/c1-7(2,3)8(4)5-9-6-8/h5-6H2,1-4H3	InChI=1S/C8H16O/c1-7(2,3)8(4)5-9-6-8/h5-6H2,1-4H3
