21
gdb 111600	3.74164	1.19058	1.14767	1.6011	81.4	-0.2528	0.0712	0.324	1161.7583	0.185565	-387.049336	-387.041835	-387.040891	-387.081409	30.635	
O	 0.6358617002	 0.0576572066	 1.4293304468	-0.420977
C	 0.1441983913	 0.0995344551	 0.0933999009	-0.111704
C	-1.2251457373	-0.5560156392	-0.0213063238	 0.023375
C	-2.0246681909	-0.6476548061	-1.35602259	-0.080804
C	-1.0584787207	-1.4040458112	-2.2907478844	-0.211036
C	-1.0382359507	-2.6956964434	-1.4428054616	-0.042654
C	-2.5164180156	-3.1505471084	-1.5749542938	-0.237124
C	-2.7925945496	-1.8988558294	-0.7305699586	-0.02184
C	-1.4169734007	-2.0847190862	-0.0157297885	-0.058545
H	 0.712368256	-0.8689508385	 1.6787070234	 0.281241
H	 0.0749648838	 1.1636196814	-0.1611528012	 0.107177
H	 0.8685795345	-0.3536868225	-0.5982367446	 0.084461
H	-1.8656536418	-0.1282673733	 0.7598293762	 0.076568
H	-2.5589120598	 0.2154395929	-1.7531851809	 0.059298
H	-1.4691695284	-1.5790639263	-3.28958147	 0.091877
H	-0.0906289002	-0.9120912716	-2.4055943707	 0.094436
H	-0.2097639996	-3.3911219979	-1.5740325505	 0.059165
H	-2.9370590488	-3.2422676092	-2.5819707096	 0.087395
H	-2.7327414448	-4.0564762771	-1.0006530963	 0.094807
H	-3.7219558386	-1.7047370192	-0.1963817101	 0.065647
H	-1.2857104481	-2.7242943665	 0.8579300771	 0.059237
77.4543	179.1598	186.9086	299.4381	355.6278	458.3592	492.6296	524.6078	650.8113	699.125	767.3573	828.4279	830.5704	842.9923	890.6016	915.3551	927.2583	955.8719	970.3629	990.5395	1005.3252	1030.5832	1032.21	1059.5311	1079.413	1089.6748	1123.3516	1132.6531	1162.8757	1180.6945	1196.808	1205.6065	1229.3462	1235.951	1264.138	1268.6352	1286.3551	1324.1707	1327.8865	1355.5059	1401.9627	1426.4361	1494.2121	1505.9007	1520.9191	2999.3445	3037.3833	3038.1221	3058.7509	3062.674	3094.5025	3102.1505	3106.8996	3111.0272	3118.5362	3126.3433	3814.3218
OCC1C2CC3CC2C13	OC[C@H]1[C@H]2C[C@@H]3C[C@H]2[C@H]13	
InChI=1S/C8H12O/c9-3-7-5-1-4-2-6(5)8(4)7/h4-9H,1-3H2	InChI=1S/C8H12O/c9-3-7-5-1-4-2-6(5)8(4)7/h4-9H,1-3H2/t4-,5+,6-,7+,8-/m1/s1
