19
gdb 83008	2.56461	1.79317	1.59181	3.0569	73.25	-0.2322	0.0652	0.2974	943.3821	0.161575	-422.990231	-422.982943	-422.981998	-423.021674	29.493	
O	-0.0884387657	 1.5332619773	 0.2006341613	-0.402752
C	-0.0637831457	 0.1416189856	 0.071815536	 0.098853
C	-0.4441886531	-0.7552407399	 1.2171000689	-0.110207
C	-1.1609297031	-0.1025605882	 2.4055048191	-0.254345
C	-2.5582729219	 0.329833944	 1.9093070566	-0.067688
C	-2.8206399554	 1.7661679914	 1.3997776884	-0.072358
O	-2.971013448	 1.3087929651	 0.0383144283	-0.290261
C	-2.6766392535	-0.0550248398	 0.4147173675	 0.128005
C	-1.343863788	-0.6429517899	-0.0205010755	-0.107719
H	 0.7020090278	 1.7896330566	 0.6881498199	 0.287168
H	 0.7305500728	-0.2245324637	-0.5798438503	 0.087247
H	 0.1530524915	-1.6415651997	 1.4047313823	 0.083119
H	-1.2482155552	-0.8293450936	 3.2182510757	 0.10163
H	-0.5955657273	 0.7488228829	 2.8028703206	 0.094022
H	-3.352213243	-0.0491352287	 2.555046813	 0.077353
H	-3.7435500861	 2.2296116467	 1.7690532625	 0.090473
H	-1.9860775762	 2.4663219861	 1.5036371673	 0.100766
H	-3.4955773707	-0.7222529015	 0.1212678312	 0.071896
H	-1.3666816891	-1.4321996307	-0.7639396027	 0.084797
151.0879	168.3705	208.5073	318.4923	333.2476	364.4333	515.0651	600.2594	669.0378	682.0705	736.4195	771.659	800.1244	855.3075	891.6256	900.2281	930.1298	981.714	1011.4389	1031.2021	1038.0575	1047.8897	1088.6948	1102.736	1119.133	1123.831	1163.5476	1209.3111	1227.3174	1242.8416	1264.2838	1284.5944	1312.4577	1324.7057	1345.2464	1351.9038	1371.0364	1377.305	1459.3638	1486.6063	1510.4017	3021.5851	3031.1206	3033.7431	3074.7513	3079.8815	3087.5304	3097.8449	3156.9181	3169.1589	3798.9036
OC1C2CC3COC3C12	O[C@H]1[C@H]2C[C@H]3CO[C@H]3[C@@H]12	
InChI=1S/C7H10O2/c8-6-4-1-3-2-9-7(3)5(4)6/h3-8H,1-2H2	InChI=1S/C7H10O2/c8-6-4-1-3-2-9-7(3)5(4)6/h3-8H,1-2H2/t3-,4-,5+,6-,7+/m0/s1
