18
gdb 97310	3.3611	1.07065	0.82691	3.0391	79.57	-0.2313	0.0104	0.2417	1380.716	0.149554	-435.324487	-435.315731	-435.314787	-435.358321	31.464	
C	 0.2436785598	 1.5619540135	 0.7668315859	-0.309778
N	 0.3361879677	 0.180079123	 1.1915860776	-0.25284
C	 0.3078932384	-0.7074301706	 0.2861452271	 0.103606
N	 0.4038781065	-2.0460902572	 0.5923792269	-0.142312
C	 0.4637020628	-2.5690297608	 1.9488138864	-0.156824
C	 0.7437986363	-4.0695930276	 1.7079103749	-0.184497
N	 0.2747588959	-4.2498382368	 0.3399714838	-0.367615
C	 0.2656484381	-3.0608177307	-0.3619470176	 0.475979
O	 0.1456734916	-2.9089160031	-1.5562806528	-0.407573
H	 1.1315611487	 2.1123722343	 1.1003312947	 0.123648
H	 0.1486670182	 1.6874941704	-0.3235625263	 0.101084
H	-0.6204829969	 2.0384423181	 1.2447535732	 0.124368
H	 0.2141979471	-0.5314592877	-0.7910292058	 0.124991
H	 1.2452823882	-2.0710298534	 2.5250444252	 0.140054
H	-0.489525714	-2.4050916448	 2.4646752833	 0.128405
H	 1.8150961099	-4.2917909319	 1.8061502233	 0.116579
H	 0.1969737621	-4.7042145982	 2.4098875225	 0.124254
H	 0.4822372596	-5.0854968665	-0.1826098224	 0.258472
79.2077	140.7934	148.434	178.5227	200.9106	221.7774	360.6305	372.4022	374.3857	501.7417	609.3288	678.9462	724.7516	762.423	856.2324	902.364	966.5173	1004.6301	1026.7746	1081.4655	1130.1209	1142.6614	1148.6588	1159.5082	1221.456	1242.7227	1274.1388	1331.9668	1372.9905	1380.4313	1433.8098	1439.6636	1457.1508	1481.1388	1504.9979	1524.6137	1536.1549	1749.6587	1843.5644	2974.8682	3008.7578	3040.4562	3055.5655	3070.2409	3077.0567	3086.684	3114.4333	3651.0746
CN=CN1CCNC1=O	CN=CN1CCNC1=O	
InChI=1S/C5H9N3O/c1-6-4-8-3-2-7-5(8)9/h4H,2-3H2,1H3,(H,7,9)	InChI=1S/C5H9N3O/c1-6-4-8-3-2-7-5(8)9/h4H,2-3H2,1H3,(H,7,9)
