15
gdb 53866	4.38177	0.74164	0.63919	5.3135	67.01	-0.2595	-0.0816	0.1779	1615.5771	0.110959	-454.012423	-454.002892	-454.001948	-454.048313	32.675	
N	-0.0197646951	 1.3151125696	 0.0080127258	-0.518401
C	 0.0765994507	-0.030837113	 0.0008092715	 0.338278
O	 1.1022296197	-0.6831775723	-0.0122997394	-0.344846
C	-1.3085905219	-0.7185479452	 0.0105276909	 0.288799
O	-2.3263868679	-0.0636295449	 0.0236012103	-0.307992
C	-1.279527715	-2.2280703008	 0.0023224575	-0.294446
C	-2.6952075366	-2.8219428999	 0.0128279475	-0.349835
C	-2.6796456726	-4.2821159487	 0.0049888508	 0.258036
N	-2.6567705394	-5.4372164202	-0.001418461	-0.299568
H	 0.8130610363	 1.8793083484	 0.0029696654	 0.274958
H	-0.9324046924	 1.7410165502	 0.0190230439	 0.282184
H	-0.705493951	-2.5576839839	-0.8710219075	 0.169421
H	-0.6888170181	-2.5667774354	 0.8609364132	 0.16942
H	-3.2432737141	-2.474413436	 0.8944253376	 0.166992
H	-3.2601333725	-2.4651534479	-0.8543186866	 0.166999
42.7449	67.4474	86.7905	98.539	220.5269	271.7565	323.267	364.0501	388.3833	417.9391	495.5159	565.7726	609.3895	621.6875	699.4398	801.9787	806.1184	959.8898	1022.4799	1027.1182	1086.0101	1104.9945	1167.8161	1291.8326	1292.3505	1364.069	1399.6386	1433.3548	1462.8067	1592.3403	1798.718	1810.7646	2366.2358	3056.7716	3065.6267	3083.4309	3103.9182	3597.0918	3736.6589
NC(=O)C(=O)CCC#N	NC(=O)C(=O)CCC#N	
InChI=1S/C5H6N2O2/c6-3-1-2-4(8)5(7)9/h1-2H2,(H2,7,9)	InChI=1S/C5H6N2O2/c6-3-1-2-4(8)5(7)9/h1-2H2,(H2,7,9)
