18
gdb 33110	6.64005	0.75677	0.68577	1.9644	76.81	-0.1815	0.0449	0.2263	1621.0239	0.147	-439.09578	-439.08639	-439.085445	-439.130862	33.363	
C	-0.3249339927	 1.4432730525	-0.5063438055	-0.221571
O	-0.3011397554	 0.0397364576	-0.5861649471	-0.230751
C	-0.9695810631	-0.5795394254	 0.4903688641	-0.171441
C	-0.9118978581	-2.0625337532	 0.3228689672	 0.252124
C	-0.349860679	-2.7423496004	-0.7036925845	-0.114741
O	-0.496419767	-4.099643812	-0.5071163978	-0.18342
C	-1.1572708128	-4.2584523528	 0.6610885489	 0.40117
N	-1.4660377467	-5.570815785	 0.9942371946	-0.593366
C	-1.4434876121	-3.0519304228	 1.2269281054	-0.400277
H	 0.2135028084	 1.8299848353	-1.374887377	 0.127015
H	-1.3539395479	 1.8372496583	-0.5216324534	 0.103657
H	 0.1670871859	 1.8099449319	 0.409027324	 0.102916
H	-0.5085262059	-0.2828240769	 1.4502044868	 0.093629
H	-2.0199778719	-0.2385353482	 0.536167383	 0.095779
H	 0.1676256691	-2.4467468809	-1.5975650865	 0.139657
H	-0.7701350627	-6.2263393039	 0.6612573063	 0.254813
H	-1.6259505314	-5.6941652561	 1.9844147502	 0.254136
H	-1.9607587968	-2.881421368	 2.1579703212	 0.090671
43.7329	71.7824	122.8242	174.8957	195.8421	224.5321	327.841	338.0693	346.4399	453.4724	611.6812	652.581	675.5591	685.8692	735.8913	750.4139	779.5627	964.3854	993.0665	1008.4619	1046.5501	1089.8518	1141.2654	1157.9147	1184.5982	1185.4094	1227.1474	1250.8176	1251.4168	1314.3897	1415.5714	1462.6504	1483.0899	1483.8804	1501.6078	1525.3358	1608.8358	1641.2132	1675.1974	2931.2533	2944.7311	2967.0614	3008.6033	3114.4051	3252.328	3312.7254	3544.9443	3645.7987
COCC1=COC(N)=C1	COCc1coc(N)c1	
InChI=1S/C6H9NO2/c1-8-3-5-2-6(7)9-4-5/h2,4H,3,7H2,1H3	InChI=1S/C6H9NO2/c1-8-3-5-2-6(7)9-4-5/h2,4H,3,7H2,1H3
