16
gdb 44163	3.86129	1.01382	0.99436	1.9997	75.12	-0.2485	-0.0314	0.2171	1221.4925	0.12279	-400.677058	-400.6689	-400.667956	-400.710484	30.654	
O	-0.08277969	 0.0659572894	-0.1793240951	-0.302281
C	-0.0963850844	 1.2544932566	-0.0409160897	 0.402022
C	-1.1859443864	 2.3416196342	-0.1159373268	-0.295209
N	-0.1167843741	 3.4000460346	-0.2070515063	-0.124596
C	 0.663297776	 3.3410980563	 1.0241430212	 0.019384
C	 0.1149318094	 3.0230631756	 2.4139582618	-0.411567
C	-0.6968234401	 4.1106719202	 2.9497384058	 0.316426
C	-1.3672330302	 5.0156831421	 3.3679086358	-0.441844
C	 0.9666375402	 2.3165871584	-0.0217752622	-0.196097
H	-1.7295275784	 2.2786568955	-1.0624230977	 0.147161
H	-1.897270638	 2.4637994409	 0.7037763791	 0.140584
H	 1.3854138192	 4.1551567609	 1.0455754753	 0.12275
H	-0.4586270302	 2.0914087506	 2.4198743139	 0.148193
H	 0.9750099477	 2.8432822583	 3.0712726609	 0.146567
H	-1.9597120665	 5.8121797159	 3.7452755386	 0.204364
H	 1.9027889357	 2.3010054507	-0.5690784947	 0.124141
48.261	89.7944	151.6892	289.0926	336.379	357.6041	439.4774	460.0898	550.0567	585.4102	633.4024	650.7652	665.067	707.6115	799.682	871.6555	925.6078	942.4272	974.2936	979.9072	1024.1945	1052.8355	1079.9635	1120.5752	1158.2708	1228.3031	1245.8852	1255.6822	1313.0206	1325.2753	1426.5941	1459.0963	1483.2583	1890.6822	2242.0399	3036.4836	3070.2338	3080.0872	3127.3538	3131.6901	3183.2511	3505.4774
O=C1CN2C(CC#C)C12	O=C1CN2[C@@H](CC#C)[C@@H]12	
InChI=1S/C7H7NO/c1-2-3-5-7-6(9)4-8(5)7/h1,5,7H,3-4H2	InChI=1S/C7H7NO/c1-2-3-5-7-6(9)4-8(5)7/h1,5,7H,3-4H2/t5-,7-,8?/m0/s1
