13
gdb 133160	2.36097	1.88035	1.05347	0.6852	64.41	-0.266	-0.0839	0.1821	1020.1172	0.088877	-494.045387	-494.037819	-494.036875	-494.077906	27.243	
C	-0.0132598007	 1.5498151525	 0.0045866389	-0.493122
C	-0.0150310234	 0.0549941394	-0.0057329918	-0.053525
C	-0.1609069004	-0.7208993614	-1.1119308937	 0.339614
F	-0.3177293322	-0.1709064945	-2.3043170751	-0.047121
N	-0.1681578169	-2.0857727455	-1.1638870604	-0.261785
N	-0.025290448	-2.7405684488	-0.0773583059	-0.027143
N	 0.1241773642	-2.0557790058	 1.0561779487	-0.275433
C	 0.1495432032	-0.6578109185	 1.2458966124	 0.436847
O	 0.2956004781	-0.1834368256	 2.3541722653	-0.368268
H	 0.9263121623	 1.9224404987	 0.425716334	 0.158504
H	-0.1450521533	 1.9542784603	-0.9987801793	 0.144224
H	-0.8119294363	 1.9229640156	 0.6541291303	 0.1585
H	 0.2324564633	-2.6354518363	 1.8798774464	 0.288708
88.807	124.1866	193.607	261.0189	274.6085	362.7986	496.9515	531.0714	549.2619	568.6143	685.9106	692.0232	769.4344	784.3524	907.3851	943.0172	1055.4835	1108.154	1139.9766	1178.5351	1277.3257	1353.0091	1407.7192	1430.87	1475.3934	1475.4661	1532.7406	1656.3838	1800.7055	3045.7851	3097.5028	3156.7814	3587.465
CC1=C(F)N=NNC1=O	C[C]1C(=N[N]NC1=O)F	
InChI=1S/C4H4FN3O/c1-2-3(5)6-8-7-4(2)9/h1H3,(H,6,7,9)	InChI=1S/C4H4FN3O/c1-2-3(5)6-8-7-4(2)9/h1H3,(H,6,7,9)
