15
gdb 22801	2.72697	1.50418	1.08882	2.1054	67.09	-0.2565	-0.0456	0.2108	1071.1745	0.11307	-491.03189	-491.023938	-491.022994	-491.065087	29.089	
O	-0.1764785603	 1.0651996067	 0.9494531082	-0.349501
N	-0.1097089192	-0.2115969826	 0.4382376406	-0.178874
C	-1.1612760919	-0.6033192199	-0.1745973259	 0.21759
C	-1.0984257881	-2.0035300518	-0.7589071353	-0.126829
O	-2.3943083074	-2.5969187219	-0.8453011103	-0.233024
C	-3.2806214253	-2.0465556737	 0.0697064258	-0.004176
O	-3.5541585423	-0.6796748296	-0.2388998319	-0.244723
C	-2.4513504923	 0.126764552	-0.3481712965	 0.357768
N	-2.5318101496	 1.3595334402	-0.6129220486	-0.496374
H	 0.6740466316	 1.1517932843	 1.3961013716	 0.314422
H	-0.7122438861	-1.9712515968	-1.783766339	 0.141355
H	-0.421286433	-2.6203778685	-0.15575138	 0.127849
H	-4.2307362388	-2.5727999838	-0.0225291594	 0.136942
H	-2.9006699735	-2.1155788072	 1.1015211241	 0.109183
H	-3.5138860038	 1.6281104025	-0.7143141433	 0.228392
54.9981	89.5886	221.1425	271.8767	302.0694	355.1623	427.5659	458.0045	477.5871	520.0944	621.0526	708.9107	733.3934	795.1969	902.2083	965.6189	977.7327	1017.4871	1048.0889	1056.2134	1141.8776	1194.0963	1224.901	1239.3797	1297.9838	1324.0504	1382.7792	1426.9868	1444.1546	1498.6676	1518.9662	1716.5636	1745.7446	2980.392	3028.8887	3071.0886	3137.6315	3456.2948	3797.6125
ON=C1COCOC1=N	ON=C1COCO[C]1[NH]	
InChI=1S/C4H6N2O3/c5-4-3(6-7)1-8-2-9-4/h5,7H,1-2H2	InChI=1S/C4H6N2O3/c5-4-3(6-7)1-8-2-9-4/h5,7H,1-2H2
