17
gdb 19095	3.64136	2.76558	2.75089	1.7426	68.94	-0.2108	0.0678	0.2787	651.5102	0.146295	-326.643261	-326.638223	-326.637279	-326.671949	22.362	
C	-0.0249852191	 1.5326895153	 0.1030746842	-0.24439
C	 1.5162760417	 1.4988814558	-0.0317237397	-0.060862
C	 2.1963762231	 0.7624878923	 1.1751101632	 0.004711
C	 1.2082005527	 0.2888618764	 2.2546708307	-0.244276
C	 0.7205287173	-0.6956690823	 1.178037301	 0.004711
C	-0.0100324416	-0.0091314666	-0.028696643	-0.060862
C	 1.3999718645	 0.0888473565	-0.6926964568	 0.020146
N	 2.0803241555	-0.5974190981	 0.4729085478	-0.16783
H	-0.4744280342	 1.9893665275	 0.9903213388	 0.095724
H	-0.4723331777	 1.9836755908	-0.7883532021	 0.101596
H	 2.0441402291	 2.3520693413	-0.4567843801	 0.066526
H	 3.1915639494	 1.1099092118	 1.4601565365	 0.070159
H	 1.7368350209	-0.2445914678	 3.0490831987	 0.111528
H	 0.5075296856	 0.9989290105	 2.7007780802	 0.09972
H	 0.3617071627	-1.6860268679	 1.4657696526	 0.070159
H	-0.8703734207	-0.5275102774	-0.4510039564	 0.066526
H	 1.6538508323	-0.1701760164	-1.7213790056	 0.066715
388.391	394.2996	446.337	660.0729	681.5513	722.6013	775.0205	784.4225	805.0969	850.4092	914.2431	931.0211	935.9106	947.4546	976.2304	977.6644	983.8945	999.5486	1052.9133	1053.912	1108.1454	1108.573	1142.4682	1176.0366	1197.2554	1200.2607	1232.0854	1233.5299	1261.08	1263.05	1285.8217	1293.0253	1327.1343	1343.7099	1470.7765	1502.1085	3042.3509	3059.3692	3080.5098	3082.8001	3091.3073	3093.8302	3110.0752	3113.0398	3116.5919
C1C2C3CC4C1C2N34	C1[C@H]2[C@H]3C[C@H]4[C@@H]1[C@@H]2N34	
InChI=1S/C7H9N/c1-3-5-2-6-4(1)7(3)8(5)6/h3-7H,1-2H2	InChI=1S/C7H9N/c1-3-5-2-6-4(1)7(3)8(5)6/h3-7H,1-2H2/t3-,4+,5+,6-,7+
