23
gdb 57801	4.14549	0.59337	0.54264	0.128	96.04	-0.2391	0.0596	0.2987	2138.5726	0.204094	-351.126238	-351.115455	-351.114511	-351.1642	38.802	
C	-0.1109629925	 1.5339861234	-0.0484403246	-0.371783
C	-0.0555562482	-0.0065740809	-0.0719919974	-0.120258
C	-1.4707851194	-0.6163717862	-0.111412933	-0.371746
C	 0.7583200494	-0.4877346724	-1.1897296979	 0.115413
C	 1.4152354273	-0.8695784433	-2.1251666155	 0.019845
C	 2.2191795739	-1.3630739441	-3.2418233851	-0.376194
C	 2.1582607068	-2.8753651688	-3.406436982	 0.049406
C	 1.0502267746	-3.5064373557	-4.2051983151	-0.246381
C	 2.4612920592	-3.4958044536	-4.7450788604	-0.278771
H	 0.8930812184	 1.9625727294	 0.0083736725	 0.121349
H	-0.590529538	 1.9154951254	-0.9553175826	 0.121519
H	-0.6857635951	 1.8814481219	 0.8162825091	 0.108964
H	 0.4231847784	-0.3361664405	 0.8612129657	 0.099985
H	-1.9974038225	-0.3073584169	-1.0197920592	 0.121399
H	-1.4283717699	-1.7086485121	-0.1009996013	 0.121697
H	-2.0537197011	-0.2835260949	 0.7536843498	 0.108534
H	 1.8857821059	-0.8887966253	-4.1751435959	 0.118678
H	 3.2642474803	-1.0519209733	-3.1059039446	 0.124648
H	 2.4911265601	-3.42486459	-2.5308917561	 0.09026
H	 0.6354522008	-4.4475592017	-3.8618707602	 0.110871
H	 0.3248238124	-2.8470879236	-4.6708084514	 0.112613
H	 2.6809710073	-2.8306959699	-5.5743567691	 0.109046
H	 3.0138378317	-4.4285482969	-4.7696289957	 0.110905
13.7558	53.9977	77.3853	137.8192	162.898	225.082	260.9565	284.254	312.7851	348.1661	365.139	459.3762	520.5516	552.1875	709.9472	770.1409	799.4016	841.573	882.587	893.9208	930.6617	953.5472	963.463	998.7785	1057.3041	1067.5424	1078.3039	1120.6122	1135.5901	1146.9684	1149.3362	1197.0499	1208.0119	1227.2356	1264.0803	1324.4219	1326.8037	1350.6771	1395.277	1407.9802	1417.8147	1465.7847	1473.5891	1484.9853	1488.9251	1497.7874	1507.3535	1510.3728	2361.9814	2999.8931	3004.8167	3033.264	3034.5165	3038.0488	3104.6677	3109.7806	3117.3228	3119.3143	3128.1915	3133.4671	3152.0729	3206.0707	3221.516
CC(C)C#CCC1CC1	CC(C)C#CCC1CC1	
InChI=1S/C9H14/c1-8(2)4-3-5-9-6-7-9/h8-9H,5-7H2,1-2H3	InChI=1S/C9H14/c1-8(2)4-3-5-9-6-7-9/h8-9H,5-7H2,1-2H3
