18
gdb 39841	2.90099	1.8071	1.43546	0.9974	75.04	-0.2236	0.0647	0.2883	950.9623	0.148961	-401.887215	-401.88034	-401.879395	-401.918198	28.551	
C	-0.0021758499	 1.4488789727	-0.0225328854	-0.250206
C	 1.2754167472	 0.6906441679	 0.0274895732	-0.064445
C	 1.9038484393	 0.5093749252	 1.391884263	 0.027849
O	 1.157092746	 1.0924999802	 2.4679826695	-0.257331
C	 0.9866668698	-0.3105029925	 2.1975535137	-0.055475
C	-0.1938679766	-0.6409984833	 1.329055324	 0.364096
C	-0.790608238	-2.0248620637	 1.3617803477	-0.318922
C	-1.5853013256	-0.8412808216	 1.8605509456	-0.311804
N	-0.0224694002	-0.0241462772	 0.0109230187	-0.161368
H	-0.2812870853	 1.9922946638	 0.8734582603	 0.140061
H	-0.3402306426	 1.8741497469	-0.9633319052	 0.111542
H	 1.9159670464	 0.5833766859	-0.8430031172	 0.092619
H	 2.9837064746	 0.5096812024	 1.5065436646	 0.101003
H	 1.2990935407	-0.9811815463	 2.995076709	 0.098413
H	-1.0644291073	-2.4479090812	 0.4026608661	 0.126501
H	-0.4085793296	-2.735435908	 2.0875867788	 0.111653
H	-1.7485414889	-0.7323431073	 2.9270747538	 0.12022
H	-2.39838368	-0.483543104	 1.2391012499	 0.125595
135.0441	216.79	285.7144	340.0568	382.7811	482.9791	548.2555	586.4979	713.5555	726.2785	777.0242	810.3166	820.6163	865.7927	880.9705	904.1823	935.8908	954.8404	980.2592	997.583	1024.0708	1050.5556	1062.0633	1079.8826	1086.9845	1107.6222	1122.424	1159.2829	1191.6198	1220.0767	1253.5074	1286.4514	1298.7297	1348.1266	1371.7305	1424.2989	1457.1114	1489.7806	1500.1201	3116.9678	3132.0967	3135.7671	3138.0436	3148.9162	3166.1035	3216.8275	3219.0057	3232.7582
C1C2C3OC3C3(CC3)N12	C1[C@H]2[C@H]3O[C@H]3C3(CC3)N12	
InChI=1S/C7H9NO/c1-2-7(1)6-5(9-6)4-3-8(4)7/h4-6H,1-3H2	InChI=1S/C7H9NO/c1-2-7(1)6-5(9-6)4-3-8(4)7/h4-6H,1-3H2/t4-,5+,6+,8?/m0/s1
