18
gdb 92998	3.05613	1.19331	0.95776	2.8013	76.2	-0.2559	-0.0026	0.2533	1239.6343	0.147828	-439.086862	-439.078228	-439.077284	-439.12119	31.783	
O	-0.2144140941	 0.9452470458	-0.7905703372	-0.435426
C	-0.1962183477	-0.1871254408	 0.0405313681	 0.122725
C	 0.2593610636	 0.0447923771	 1.5050715763	-0.292542
C	-0.5463874968	-0.9739419399	 2.268553787	-0.055604
C	-1.5412215076	-1.4890111905	 1.5451516907	-0.084369
C	-1.582840307	-0.8907672394	 0.1673328625	 0.035701
O	-2.6302103261	 0.0981113513	 0.108831812	-0.215626
C	-3.2868848389	 0.2467917258	-1.0614071587	 0.12701
N	-4.06754995	 1.2245224649	-1.2226446479	-0.446992
H	-0.9266649515	 1.5173604167	-0.4782703624	 0.297529
H	 0.4948432971	-0.8932722185	-0.4311459883	 0.100061
H	 1.3407759487	-0.0754910477	 1.6258647566	 0.112682
H	 0.0191736461	 1.0654810168	 1.8317376116	 0.120167
H	-0.3321654294	-1.235926689	 3.2991322365	 0.105736
H	-2.2725452018	-2.2106302843	 1.8884474871	 0.10532
H	-1.7508043678	-1.6207609678	-0.633401235	 0.081698
H	-3.0737687694	-0.5495922021	-1.7872010886	 0.091611
H	-4.5029776674	 1.1738760817	-2.1412190003	 0.230319
45.7407	72.8478	113.144	199.6849	274.4466	333.7743	398.4919	433.2068	453.3023	545.1079	598.757	715.198	744.2624	784.8977	820.459	843.3803	936.0788	970.1204	984.0857	1019.0945	1024.7264	1043.8507	1076.7633	1106.5783	1128.7751	1139.5968	1153.6393	1255.9976	1284.4775	1294.7738	1313.9008	1336.0734	1367.343	1387.0067	1426.8006	1434.01	1481.028	1680.9834	1741.5647	3023.5974	3025.1665	3035.1545	3058.9793	3078.6732	3187.4096	3214.9896	3518.6517	3782.2158
OC1CC=CC1OC=N	O[C@H]1CC=C[C@H]1O[CH][NH]	
InChI=1S/C6H9NO2/c7-4-9-6-3-1-2-5(6)8/h1,3-8H,2H2	InChI=1S/C6H9NO2/c7-4-9-6-3-1-2-5(6)8/h1,3-8H,2H2/t5-,6+/m0/s1
