14
gdb 30235	3.71977	1.32927	1.04524	3.8859	64.39	-0.2209	0.0043	0.2252	1070.404	0.101887	-473.824644	-473.817361	-473.816417	-473.856841	27.135	
O	 0.4692011984	 1.2363464061	 0.2774976972	-0.403657
C	 0.073151147	-0.087376398	 0.1054462911	-0.001593
C	-1.4798676113	-0.4153087457	-0.0280381816	-0.211111
N	-1.1357246105	-1.1398817898	-1.2679563747	-0.13877
C	 0.1920548117	-0.7257742313	-1.2773735853	 0.215647
C	 0.6692615174	-0.9230173521	-2.511327806	-0.177321
O	-0.3555544837	-1.4666395302	-3.2755658708	-0.227427
C	-1.5434295029	-1.5191614622	-2.5251936742	 0.478789
O	-2.6028321266	-1.8596510782	-2.9661918326	-0.392042
H	 0.1917304543	 1.7421906081	-0.4952308244	 0.290725
H	 0.5491764839	-0.6597161559	 0.9045532257	 0.130961
H	-1.9286933508	-1.0377579955	 0.747786089	 0.141618
H	-2.0868243614	 0.4783422771	-0.1992000118	 0.136492
H	 1.6058065644	-0.7473537925	-3.0096287715	 0.157689
84.0964	120.1702	209.3151	309.9467	359.7436	411.9202	461.5143	608.24	625.3926	694.6156	704.8173	737.9743	751.9799	793.3848	868.4654	948.7891	991.3275	1028.7781	1081.1499	1136.6497	1163.1171	1213.4721	1229.8124	1276.9353	1294.6084	1330.0661	1371.2069	1434.929	1504.7923	1691.1312	1898.3292	3063.6789	3096.4024	3132.1524	3299.2846	3794.9124
OC1CN2C1=COC2=O	O[C@H]1CN2[C]1[CH]OC2=O	
InChI=1S/C5H5NO3/c7-4-1-6-3(4)2-9-5(6)8/h2,4,7H,1H2	InChI=1S/C5H5NO3/c7-4-1-6-3(4)2-9-5(6)8/h2,4,7H,1H2/t4-/m0/s1
