15
gdb 44555	3.587	1.56162	1.49589	6.2789	63.8	-0.249	0.06	0.309	900.0868	0.115562	-453.940685	-453.934266	-453.933321	-453.971513	25.752	
O	 0.0304839229	 0.0003157247	 0.1860742661	-0.383678
C	-0.0193269658	 1.1896120152	 0.071782944	 0.48299
N	-1.149087664	 1.9836754538	-0.0481678323	-0.349768
C	-0.842310225	 3.3827067606	 0.0360820718	-0.044148
C	-0.7639825979	 4.0821269221	 1.4177672643	-0.073954
N	-0.0319615909	 3.1593111699	 2.3007582262	-0.323317
C	 0.7339457071	 4.0332729299	 1.3905671866	-0.072599
C	 0.7188949647	 3.3491459812	 0.0133884969	 0.095664
O	 1.0998618133	 1.9871632999	-0.03758741	-0.239877
H	-2.018994408	 1.5853591289	 0.2651903725	 0.260251
H	-1.3260164417	 3.985859962	-0.7353621178	 0.095588
H	-1.4273541616	 4.8430450881	 1.8092664204	 0.103286
H	 0.0071116106	 3.5747027329	 3.2297010903	 0.242098
H	 1.466290214	 4.7348224539	 1.7689814718	 0.104259
H	 1.2140736521	 3.9080364969	-0.7810729807	 0.103206
120.223	193.2559	327.55	427.1655	439.1508	538.1296	614.9268	665.8739	724.6591	759.7808	767.2549	820.5645	867.2666	882.8769	908.9582	916.8398	954.2828	975.1295	1017.8867	1085.3762	1093.9741	1118.0295	1122.9218	1188.0024	1195.9658	1247.6402	1258.4832	1325.9179	1369.5818	1373.1016	1378.2692	1400.6933	1900.537	3081.6462	3112.9792	3191.1699	3204.7786	3496.7751	3658.2595
O=C1NC2C3NC3C2O1	O=C1N[C@H]2[C@H]3N[C@H]3[C@H]2O1	
InChI=1S/C5H6N2O2/c8-5-7-3-1-2(6-1)4(3)9-5/h1-4,6H,(H,7,8)	InChI=1S/C5H6N2O2/c8-5-7-3-1-2(6-1)4(3)9-5/h1-4,6H,(H,7,8)/t1-,2+,3-,4+/m0/s1
