16
gdb 13188	4.52174	1.33703	1.09639	2.3235	61.49	-0.2556	-0.0394	0.2162	1048.0805	0.129197	-420.859593	-420.851568	-420.850624	-420.892879	28.203	
O	-0.033950398	 1.4879401949	 0.0210916103	-0.435292
C	 0.0360193955	 0.0926134925	 0.096975028	 0.027278
C	 0.6643650161	-0.482168587	-1.1566456536	 0.128392
O	 1.0230587414	 0.2371632368	-2.0597504767	-0.264805
C	 0.8414262806	-0.3330059446	 1.3348738656	 0.129987
C	 0.1615853519	-0.1320325562	 2.7039997616	-0.292151
C	 0.2356794006	-1.6706424365	 2.8027411987	-0.063833
O	 0.8471105946	-1.7676854759	 1.4938152261	-0.297954
H	 0.3493509541	 1.7178465666	-0.8414707595	 0.296806
H	-0.9709197348	-0.3535106201	 0.1870232016	 0.093252
H	 0.7812551092	-1.5805626801	-1.1910778519	 0.124284
H	 1.8573769535	 0.0754751826	 1.2581272614	 0.089313
H	 0.7470880413	 0.4181528534	 3.4404734966	 0.120003
H	-0.8428230416	 0.2908611183	 2.6542657686	 0.124836
H	 0.89500115	-2.0639777286	 3.5849319248	 0.110325
H	-0.7216231145	-2.2024678662	 2.8441118883	 0.109558
72.4946	75.4852	117.1651	186.3823	295.2125	351.6374	379.238	439.6087	487.9907	746.9297	783.4163	809.7041	847.4583	919.8199	946.406	980.4705	1011.1547	1040.6607	1095.1958	1138.6095	1158.8941	1172.0212	1211.0133	1256.947	1268.0612	1272.5954	1304.282	1357.7935	1376.0031	1382.9778	1440.3511	1491.3141	1531.1622	1805.1608	2948.6441	2981.3944	3022.1177	3028.4993	3068.2527	3089.5095	3145.8749	3673.0475
OC(C=O)C1CCO1	O[C@@H](C=O)[C@H]1CCO1	
InChI=1S/C5H8O3/c6-3-4(7)5-1-2-8-5/h3-5,7H,1-2H2	InChI=1S/C5H8O3/c6-3-4(7)5-1-2-8-5/h3-5,7H,1-2H2/t4-,5+/m0/s1
