18
gdb 44391	3.56641	1.5516	1.3919	2.4711	75.09	-0.2304	-0.0274	0.203	963.7309	0.150043	-401.9176	-401.911036	-401.910092	-401.94846	27.372	
O	-0.0623481033	 0.0304057346	 0.224766496	-0.292709
C	-0.0672735738	 1.2137324814	 0.0609828899	 0.39322
C	-1.1376154182	 2.2668746904	-0.2772569228	-0.313494
N	-0.0757873231	 3.3189619215	-0.3210361403	-0.106132
C	 0.0059873226	 4.2119075864	 0.8620737933	 0.005662
C	 1.5407402074	 4.4289243962	 0.9412355561	-0.215474
C	 1.5079849369	 2.9220223972	 1.3733428529	-0.046069
C	 0.1840411897	 3.2841784695	 2.1069601466	-0.258213
C	 1.0080566171	 2.3147645206	 0.0494194734	-0.111706
H	-1.6190886631	 2.1142816019	-1.2491898095	 0.135199
H	-1.9168584364	 2.4016026608	 0.4818478232	 0.128706
H	-0.7092668741	 5.0332602353	 0.8335287516	 0.074355
H	 2.0519360776	 4.692089692	 0.0124941896	 0.107121
H	 1.8409443267	 5.0894777566	 1.7562556519	 0.10523
H	 2.3416339002	 2.4292252978	 1.8705603471	 0.080928
H	 0.3673081182	 3.856087023	 3.0180488825	 0.105777
H	-0.5452044096	 2.4973790529	 2.3116996472	 0.104655
H	 1.7981656852	 2.182149612	-0.6964221586	 0.102947
106.8752	236.6692	321.4099	427.5883	464.9082	524.7266	562.2943	594.2763	708.7625	750.7347	827.2978	831.2209	839.8771	862.265	897.6043	940.2022	968.0588	980.5621	1004.1027	1031.0665	1058.9672	1071.436	1081.8234	1092.4291	1107.655	1132.7075	1178.9733	1204.8227	1216.4334	1239.7453	1244.5897	1253.8904	1282.4233	1285.8603	1315.7549	1455.7378	1484.5187	1523.7254	1901.3994	3034.0834	3061.041	3069.711	3073.3789	3083.2581	3123.925	3128.2728	3134.749	3139.4089
O=C1CN2C3CC(C3)C12	O=C1CN2[C@@H]3C[C@@H](C3)[C@@H]12	
InChI=1S/C7H9NO/c9-6-3-8-5-1-4(2-5)7(6)8/h4-5,7H,1-3H2	InChI=1S/C7H9NO/c9-6-3-8-5-1-4(2-5)7(6)8/h4-5,7H,1-3H2/t4-,5+,7-/m0/s1
