23
gdb 60103	3.52831	0.90914	0.85301	1.8812	85.43	-0.2281	0.0697	0.2978	1483.9981	0.204548	-388.253326	-388.243714	-388.242769	-388.288032	36.495	
C	-0.1422366133	 1.5982840647	-0.0419740903	-0.37971
C	-0.076094994	 0.0659705332	-0.0012264626	 0.049653
C	-1.4846491559	-0.5411771404	 0.028706099	-0.391666
C	 0.7359650607	-0.5186772155	-1.1777167495	-0.318508
C	 2.1887410681	-0.1311538426	-1.1922257769	 0.294035
C	 2.7780175101	 1.0610801693	-1.9314835892	-0.336232
C	 3.2828153752	-0.3169435153	-2.2221626118	 0.034264
O	 4.2529529194	-0.7146677889	-1.2497542016	-0.288828
C	 3.2450315145	-0.6374477331	-0.2063066634	-0.125
H	 0.8536746525	 2.0484741633	-0.01979828	 0.121965
H	-0.6435827212	 1.9424192353	-0.95502125	 0.108176
H	-0.7075860217	 1.9877804895	 0.8111590386	 0.109073
H	 0.4343027065	-0.2252318231	 0.9286844685	 0.073633
H	-2.0384930239	-0.2860854752	-0.8829578672	 0.111731
H	-1.4497707344	-1.6334046881	 0.1015407403	 0.109505
H	-2.0600539475	-0.1655316827	 0.8811266389	 0.110074
H	 0.6609447121	-1.6143949238	-1.1402150187	 0.094541
H	 0.267440134	-0.2128934421	-2.1233391208	 0.092824
H	 2.1205492587	 1.4891158087	-2.6826347176	 0.112174
H	 3.4308363812	 1.7718316344	-1.4306058571	 0.111141
H	 3.3094169336	-0.7962371399	-3.1946339735	 0.102653
H	 3.5443135348	 0.0244692715	 0.6155549208	 0.101805
H	 3.0245499202	-1.6375646193	 0.1874010541	 0.102699
58.1575	81.4616	125.876	224.2849	243.3443	256.0873	309.1337	336.5324	357.4292	411.6494	430.8393	464.4456	704.6215	757.8726	806.3046	863.6352	875.1823	914.9301	931.0421	932.3247	955.5401	969.6916	988.1511	999.363	1017.5269	1053.8629	1064.3644	1081.8112	1133.1889	1148.2226	1163.0188	1192.816	1224.0304	1270.7705	1289.4797	1320.7742	1328.6078	1371.6469	1376.5252	1401.6978	1413.2371	1423.6062	1475.9028	1483.6075	1487.3509	1495.8484	1504.9856	1509.4534	1517.2593	2993.0156	3002.9387	3013.168	3023.2358	3028.8173	3041.9039	3061.0476	3087.0882	3092.7174	3099.0494	3107.6217	3114.002	3172.8039	3201.1858
CC(C)CC12CC1OC2	CC(C)C[C@]12C[C@H]1OC2	
InChI=1S/C8H14O/c1-6(2)3-8-4-7(8)9-5-8/h6-7H,3-5H2,1-2H3	InChI=1S/C8H14O/c1-6(2)3-8-4-7(8)9-5-8/h6-7H,3-5H2,1-2H3/t7-,8-/m1/s1
