15
gdb 35390	4.27848	1.29684	1.17812	4.0611	68.28	-0.2462	0.0152	0.2614	1015.7042	0.114636	-416.737935	-416.731374	-416.73043	-416.769106	25.965	
N	-0.114938859	-1.1726415085	-0.1655270968	-0.322267
C	-0.0787396743	-0.0222183779	-0.0657311643	 0.311652
C	-0.0121095888	 1.4426509029	 0.0330237607	-0.181845
N	-0.4766352806	 1.9340942356	 1.3616862874	-0.312655
C	 0.6459512307	 2.7429589378	 1.7941755826	-0.019967
C	 1.3938338133	 3.4320722348	 0.5994362472	 0.026523
O	 2.6835511774	 3.2280429805	 1.2608168076	-0.309564
C	 1.9571268292	 1.9753112073	 1.4852160767	 0.070902
C	 1.4226409801	 1.98621269	 0.0188063193	-0.053189
H	-0.6008925361	 1.8594344805	-0.7934290116	 0.12779
H	-1.3352459816	 2.4662227442	 1.2795061255	 0.235274
H	 0.5258541711	 3.2616939824	 2.7427215376	 0.104155
H	 1.2193082473	 4.3798891867	 0.0897743348	 0.099997
H	 2.4489178347	 1.1760331817	 2.0368394018	 0.114641
H	 2.0862062067	 1.737379242	-0.8058093083	 0.108554
100.3506	162.1641	320.9112	398.9191	472.6788	484.8169	573.6444	683.0871	703.8636	766.7486	780.0324	844.6091	874.4932	901.0274	918.1529	937.6943	977.2274	990.6026	1016.23	1044.6929	1083.2608	1135.4793	1146.7775	1157.9847	1178.4482	1224.5626	1248.1991	1261.4603	1283.2881	1330.2858	1379.4385	1419.0846	2360.8465	3032.6067	3117.8658	3140.0423	3158.5742	3165.1072	3544.3114
N#CC1NC2C3OC2C13	N#C[C@H]1N[C@@H]2[C@H]3O[C@@H]2[C@@H]13	
InChI=1S/C6H6N2O/c7-1-2-3-5-4(8-2)6(3)9-5/h2-6,8H	InChI=1S/C6H6N2O/c7-1-2-3-5-4(8-2)6(3)9-5/h2-6,8H/t2-,3-,4+,5-,6+/m1/s1
