15
gdb 81719	3.29843	1.31154	1.03795	2.7606	74.82	-0.246	-0.0379	0.2081	1134.9533	0.109351	-420.566404	-420.557907	-420.556963	-420.599522	31.334	
C	 0.0034266119	 1.6407408262	-0.0920849093	-0.413602
C	 0.0325519064	 0.1209615469	-0.0123477952	-0.137988
C	 0.6963006927	-0.6694126676	-1.1533358169	-0.06964
O	 2.0622929067	-0.2880893754	-1.1735317667	-0.272052
C	 1.6757149401	-1.3514057859	-0.2528281977	 0.209179
C	 2.3258820208	-2.6092108671	-0.3044528768	 0.160675
C	 2.8637766863	-3.6841680757	-0.282588798	-0.385193
C	 1.0632204639	-0.5762373591	 0.9323956853	 0.343565
O	 1.2253135392	-0.5950324347	 2.1117751253	-0.282561
H	 0.9727567781	 2.0240846702	-0.4197264109	 0.142115
H	-0.7637601834	 1.9857933799	-0.7922538491	 0.12368
H	-0.2204412787	 2.0655370348	 0.8908234825	 0.139507
H	-0.9552838805	-0.2881133338	 0.2371383367	 0.112453
H	 0.2623539938	-1.0655692859	-2.063708783	 0.130096
H	 3.3428489428	-4.6322959026	-0.2722249261	 0.199764
92.3594	122.7046	170.4475	205.2112	232.8805	255.5082	374.3957	452.6534	530.8893	569.913	612.437	623.6913	667.0831	672.091	750.2653	806.3265	839.4139	895.91	920.3738	1001.0839	1049.3209	1073.2326	1140.5919	1151.4434	1222.4972	1253.0324	1340.5072	1395.0747	1411.9043	1493.3089	1501.8625	1907.6008	2242.3845	3037.5414	3043.9034	3110.9684	3130.0968	3199.7699	3498.9759
CC1C2OC2(C#C)C1=O	C[C@H]1[C@H]2O[C@@]2(C#C)C1=O	
InChI=1S/C7H6O2/c1-3-7-5(8)4(2)6(7)9-7/h1,4,6H,2H3	InChI=1S/C7H6O2/c1-3-7-5(8)4(2)6(7)9-7/h1,4,6H,2H3/t4-,6-,7+/m1/s1
