17
gdb 76828	2.90949	1.5924	1.31101	1.8087	69.83	-0.246	-0.0091	0.2369	990.6911	0.136698	-458.922023	-458.914454	-458.91351	-458.953875	29.767	
O	 0.1097071757	 1.2629462892	 0.3827249036	-0.4416
C	 0.1045367945	-0.1231962881	 0.1483064737	 0.048846
C	 0.1529687757	-0.9013158677	 1.5379416569	 0.057764
O	 0.7341529284	-0.2256089075	 2.6020968097	-0.423594
C	-1.3683225778	-0.9219270115	 1.4178308706	 0.147191
C	-2.4225050654	-0.3249589306	 1.9637465947	-0.227407
C	-3.2779633399	 0.2252246136	 0.8329345931	-0.118347
O	-2.3939833449	 0.2591494018	-0.3169433442	-0.286209
C	-1.3531799808	-0.6720179799	-0.0618367732	 0.038009
H	-0.7718537244	 1.5785210876	 0.1307750428	 0.296934
H	 0.8630477666	-0.3959426185	-0.5923904251	 0.079662
H	 0.6290438195	-1.8808636963	 1.4393830307	 0.098825
H	 0.5594914127	 0.7115788972	 2.4270136871	 0.289252
H	-2.5970694431	-0.0947517015	 3.0066407398	 0.118153
H	-4.1606095692	-0.3887100649	 0.5979287995	 0.116202
H	-3.6236472912	 1.2459861219	 1.0319951429	 0.119804
H	-1.4028317165	-1.5264053447	-0.7462101325	 0.086515
133.4135	150.0286	245.5737	252.5266	282.6199	408.1412	500.2219	512.7744	540.6573	617.9235	679.3929	720.4288	793.1032	819.2512	844.579	864.5891	920.8742	953.0529	969.6242	1012.433	1048.4349	1089.5937	1114.5839	1156.3683	1166.4274	1201.1585	1213.6087	1234.8146	1277.3069	1314.9826	1320.7364	1342.9274	1370.1185	1396.2949	1445.2802	1514.023	1708.6475	2990.986	3039.3744	3054.9917	3057.8021	3077.6808	3221.6529	3701.5421	3723.0784
OC1C(O)C2=CCOC12	O[C@H]1[C@@H](O)[C]2[CH]CO[C@@H]12	
InChI=1S/C6H8O3/c7-4-3-1-2-9-6(3)5(4)8/h1,4-8H,2H2	InChI=1S/C6H8O3/c7-4-3-1-2-9-6(3)5(4)8/h1,4-8H,2H2/t4-,5-,6+/m0/s1
