14
gdb 27036	2.42228	1.47018	0.92013	3.8652	69.98	-0.2357	-0.0677	0.168	1176.1346	0.100384	-473.90349	-473.895376	-473.894432	-473.936456	29.085	
C	 0.1405663743	 1.5053367904	 0.054658995	-0.491623
C	-0.0368016627	 0.0348550536	 0.0489638675	 0.303366
C	-1.1242138065	-0.7713002237	-0.0514777921	 0.119426
N	-0.644622993	-2.0825938375	 0.0066215445	-0.428822
C	 0.7143688458	-2.0955281928	 0.1396243725	 0.491853
O	 1.5010131101	-2.9907842885	 0.2236363968	-0.378983
O	 1.0817453121	-0.7320109461	 0.1649757176	-0.240872
C	-2.533516612	-0.4797501779	-0.1916603987	 0.077029
O	-3.380596919	-1.3481456489	-0.2673785599	-0.300459
H	 0.7899682625	 1.8170614441	-0.7705945912	 0.162027
H	-0.8201451487	 2.0129901454	-0.0443760509	 0.148683
H	 0.6163740795	 1.8314027327	 0.9859105255	 0.162023
H	-1.2236702144	-2.9035854517	-0.0455891383	 0.292771
H	-2.7925214579	 0.5972357011	-0.2259127182	 0.08358
119.4249	146.3683	161.0333	198.0683	223.9177	274.0862	389.3994	466.8803	501.8651	578.1746	621.2879	642.6786	714.1306	761.0988	862.1863	885.707	995.6594	1006.5542	1059.0719	1101.0098	1222.5295	1279.6196	1333.856	1418.2929	1420.3917	1458.8108	1463.7449	1481.0595	1696.5313	1760.5582	1926.065	2930.9643	3040.2238	3094.8095	3144.2664	3683.3118
CC1=C(NC(=O)O1)C=O	Cc1c([nH]c(=O)o1)C=O	
InChI=1S/C5H5NO3/c1-3-4(2-7)6-5(8)9-3/h2H,1H3,(H,6,8)	InChI=1S/C5H5NO3/c1-3-4(2-7)6-5(8)9-3/h2H,1H3,(H,6,8)
