17
gdb 95571	2.49028	1.62735	1.06346	1.7035	70.28	-0.2575	-0.023	0.2344	1100.3483	0.137425	-455.171969	-455.163625	-455.162681	-455.205296	30.706	
N	 0.2076516846	 1.2373440633	 0.4282938682	-0.501848
C	 0.0169005962	-0.0955023896	-0.1239220111	-0.116507
C	-1.477451297	-0.4672990601	-0.1719236165	-0.234738
C	-1.7065218191	-1.9705110471	-0.0134248165	-0.155225
N	-0.9652679355	-2.8873401973	-0.8505087833	-0.232345
C	-0.053017069	-2.6442479858	-1.6717044081	 0.136542
O	 0.5588603725	-1.4816497019	-2.1253632549	-0.226412
C	 0.6084672993	-0.245250592	-1.5251237251	 0.4095
O	 1.1141790844	 0.6502158602	-2.1375797308	-0.30396
H	 1.1958542873	 1.4746278785	 0.3892255481	 0.238849
H	-0.2381796222	 1.913086826	-0.1887439781	 0.235863
H	 0.5306128219	-0.8119955906	 0.5321385645	 0.112771
H	-1.9732113454	 0.0527654817	 0.6531736596	 0.12797
H	-1.9287088434	-0.0995671757	-1.1016365076	 0.114435
H	-1.4851333946	-2.2585399197	 1.0233679412	 0.129681
H	-2.7689895034	-2.2012137315	-0.1562110133	 0.127357
H	 0.3981194233	-3.4600561283	-2.2335357363	 0.138068
66.1947	109.7221	172.7797	221.2989	279.7461	318.0658	367.3416	395.2963	462.9707	542.9548	582.9153	688.189	792.5296	822.979	855.8961	879.0594	936.7207	958.088	1004.0763	1047.9891	1059.8137	1095.9206	1116.3684	1169.9152	1207.9289	1227.7295	1303.1044	1334.2266	1369.5773	1386.8894	1415.0905	1445.5025	1473.3929	1496.0745	1672.8278	1782.8277	1851.9178	3016.1962	3018.8461	3034.0526	3056.5215	3092.5197	3157.8607	3482.6097	3550.1349
NC1CCN=COC1=O	N[C@H]1CCN=COC1=O	
InChI=1S/C5H8N2O2/c6-4-1-2-7-3-9-5(4)8/h3-4H,1-2,6H2	InChI=1S/C5H8N2O2/c6-4-1-2-7-3-9-5(4)8/h3-4H,1-2,6H2/t4-/m0/s1
