21
gdb 116488	3.16038	1.05894	0.83708	1.5351	81.62	-0.2384	0.022	0.2605	1389.6677	0.183435	-424.216875	-424.20782	-424.206876	-424.251098	34.004	
O	 0.3148118341	 1.3060594623	 0.2312362231	-0.420018
C	 0.1578977262	-0.105398426	 0.255759218	-0.093953
C	-1.287261147	-0.4423995694	-0.1365353495	-0.038048
C	-1.4176797996	-1.9541485503	-0.3659361719	-0.206743
C	-2.813533006	-2.4419397924	-0.7526089428	-0.08988
O	-3.6852641019	-2.5285744178	 0.3561328081	-0.23363
C	-4.3380797808	-1.3316165678	 0.714632448	-0.13102
C	-3.4860328407	-0.1820437125	 1.1918290414	-0.090887
C	-2.2490976261	 0.1786603594	 0.8495541975	-0.035086
H	 1.1709443763	 1.5220721964	 0.6112407217	 0.288224
H	 0.8492569552	-0.5890199965	-0.4522144031	 0.084624
H	 0.3682983741	-0.512924449	 1.2574714778	 0.090699
H	-1.4540303684	 0.0602109813	-1.1038708667	 0.096483
H	-0.7163997878	-2.2460715797	-1.1589526316	 0.090019
H	-1.1215773472	-2.4986113016	 0.5394163103	 0.106975
H	-3.2474836086	-1.8052888137	-1.5422597552	 0.083994
H	-2.7428904953	-3.4593045101	-1.1530723354	 0.102176
H	-4.9658883683	-0.9786359371	-0.1267564637	 0.096052
H	-5.0296907674	-1.614883642	 1.5158319241	 0.112109
H	-4.0143031516	 0.4697833989	 1.8873732566	 0.085691
H	-1.8613737991	 1.0928501776	 1.2925774734	 0.102219
47.3218	114.4739	168.3552	207.5009	241.0787	275.5632	322.1177	367.2388	402.383	471.7478	491.8857	551.5491	702.2376	733.2651	829.8103	859.0238	889.0965	956.3558	981.2464	1015.5847	1026.1359	1041.1656	1063.8558	1083.8955	1105.5399	1144.5623	1176.2162	1213.6277	1245.7167	1260.9993	1276.0298	1297.2113	1316.7271	1333.8278	1363.4042	1388.3324	1399.7746	1421.593	1431.0329	1456.0987	1473.6945	1478.4787	1497.9965	1519.2788	1735.6712	2915.7413	2963.6254	2965.8981	2969.928	3002.0399	3016.5513	3058.3534	3062.5226	3064.046	3123.4702	3162.183	3835.649
OCC1CCOCC=C1	OC[C@H]1CCOCC=C1	
InChI=1S/C7H12O2/c8-6-7-2-1-4-9-5-3-7/h1-2,7-8H,3-6H2	InChI=1S/C7H12O2/c8-6-7-2-1-4-9-5-3-7/h1-2,7-8H,3-6H2/t7-/m1/s1
