19
gdb 39463	2.47344	1.7521	1.14413	2.6781	75.95	-0.2473	0.0049	0.2521	1070.9124	0.162151	-419.176869	-419.169235	-419.168291	-419.208799	30.116	
C	-0.2272186667	 1.4144036319	-0.2196829996	-0.075511
C	 1.0042613509	 2.2671500897	 0.0999511359	-0.212971
C	 2.1322296738	 2.1681095717	-0.9104525467	-0.01974
N	 3.504986055	 2.0605195512	-0.3752782984	-0.344574
C	 2.9411203904	 0.9394347508	-1.1361925012	-0.000826
C	 2.6658855327	-0.357833933	-0.3997791392	-0.180787
N	 1.6277814283	-1.0985699154	-1.1192011951	-0.209706
C	 0.4251286852	-0.819499242	-0.8677419785	 0.099063
O	-0.0313118237	 0.0286768894	 0.1082592981	-0.237391
H	-1.0711123799	 1.7396985072	 0.396108787	 0.11595
H	-0.5210299471	 1.51253362	-1.2731606212	 0.102954
H	 0.6832725624	 3.3143706758	 0.1733012246	 0.10026
H	 1.3729915358	 1.9851367017	 1.090309045	 0.128455
H	 1.9977487845	 2.7975425464	-1.7896836946	 0.082146
H	 4.1609329721	 2.5855559775	-0.9468866574	 0.232179
H	 3.2986290817	 0.7916992497	-2.1543441467	 0.089128
H	 3.5720923605	-0.9716556199	-0.3868970846	 0.103878
H	 2.3853091571	-0.1401964701	 0.6355130659	 0.117265
H	-0.3743326932	-1.3311530125	-1.4090782935	 0.11023
142.8712	158.0165	207.5717	283.2653	308.0965	373.3921	410.1645	500.1248	513.0772	580.887	699.8775	760.513	818.322	861.6062	922.3353	945.9712	962.5881	973.4231	984.3645	1012.9284	1031.3737	1054.8347	1075.2668	1127.6307	1155.3891	1180.9375	1201.701	1261.348	1269.8326	1280.9662	1302.8534	1338.3913	1363.646	1391.6941	1410.0242	1422.0706	1474.1277	1477.4232	1497.6535	1508.7896	1730.1918	3018.6612	3030.6251	3044.1801	3083.6121	3086.5493	3095.105	3106.3225	3107.7049	3120.631	3506.9786
C1CC2NC2CN=CO1	C1C[C@H]2N[C@H]2CN=CO1	
InChI=1S/C6H10N2O/c1-2-9-4-7-3-6-5(1)8-6/h4-6,8H,1-3H2/b7-4-	InChI=1S/C6H10N2O/c1-2-9-4-7-3-6-5(1)8-6/h4-6,8H,1-3H2/b7-4-/t5-,6+/m1/s1
