17
gdb 22602	3.02778	1.2249	1.06119	2.9666	74.	-0.2322	-0.0006	0.2316	1173.1602	0.134517	-455.050021	-455.04122	-455.040276	-455.083317	33.211	
C	 0.0072206646	 1.5070956218	 0.0727031224	-0.516294
C	 0.1396536106	 0.020901045	-0.0234376565	 0.311784
N	-0.8066870535	-0.9166327627	 0.6116976004	-0.389973
C	 0.6611107648	-1.001492724	 0.9479244953	-0.222381
C	 1.2666711451	-1.7779706057	-0.1642254607	 0.442106
N	 2.0757941429	-2.7511741932	-0.1364111285	-0.271895
O	 2.4824674144	-3.1141591421	-1.4304209475	-0.38455
C	 0.6945373685	-0.7996552247	-1.2225921801	 0.007572
O	-0.2317026523	-1.2516262748	-2.1615498314	-0.429099
H	 0.9414516597	 2.0031208551	-0.2096471202	 0.134587
H	-0.7800924136	 1.8703538738	-0.5974001051	 0.141298
H	-0.2464844833	 1.8187699849	 1.0918511285	 0.120949
H	-1.2567306072	-0.4249715613	 1.3844893328	 0.233188
H	 1.0026805421	-0.8901586456	 1.9684132241	 0.111512
H	 3.0872085594	-3.8431790673	-1.255437352	 0.307381
H	 1.4983951279	-0.2897384615	-1.7617858786	 0.110313
H	-0.9628623602	-1.6211724077	-1.6472589029	 0.293503
79.7485	160.1415	195.6586	200.1074	235.5726	286.6598	329.9957	379.5357	441.5739	497.8813	525.3606	565.4814	631.6113	673.4263	716.3158	823.2404	841.0109	904.7059	951.4076	975.2743	998.055	1051.8053	1094.3935	1103.0309	1137.402	1159.3136	1183.9504	1269.2731	1291.0472	1331.6549	1400.4358	1420.6127	1428.9934	1449.1949	1481.4419	1496.1836	1787.0535	3027.3658	3080.6845	3092.856	3100.759	3211.6198	3463.1779	3753.7815	3817.5409
CC12NC1C(=NO)C2O	C[C@]12N[C@H]1C(=NO)[C@H]2O	
InChI=1S/C5H8N2O2/c1-5-3(6-5)2(7-9)4(5)8/h3-4,6,8-9H,1H3	InChI=1S/C5H8N2O2/c1-5-3(6-5)2(7-9)4(5)8/h3-4,6,8-9H,1H3/t3-,4+,5-/m0/s1
