16
gdb 50638	2.62299	1.42466	1.09589	3.6024	66.48	-0.255	-0.0467	0.2083	1102.0899	0.124289	-475.039274	-475.031144	-475.0302	-475.073619	29.121	
N	-0.3184259175	 1.2170227569	-0.2342085251	-0.548331
C	-0.0676576724	 0.082225953	 0.250416813	 0.456266
O	 1.0311715504	-0.6573781227	-0.0466447894	-0.249888
C	 1.2578149622	-1.8144380363	 0.7722185581	-0.086213
C	 0.0318643272	-2.7112640903	 0.711432379	-0.255293
C	-1.1913532833	-1.8651134656	 1.0996866488	 0.023463
O	-0.905655709	-0.4575650091	 1.1739820193	-0.24645
C	-2.3974630356	-2.0683438672	 0.1795261671	 0.134231
O	-2.5760911972	-3.0613505817	-0.4734599744	-0.227242
H	 0.4570859607	 1.5180156014	-0.8221585287	 0.230553
H	 2.1423436481	-2.2981816234	 0.355364397	 0.131216
H	 1.47962873	-1.5003601381	 1.79937043	 0.123615
H	-0.0974607891	-3.1021593246	-0.3012302362	 0.144254
H	 0.1418623992	-3.5673434015	 1.3818831552	 0.124329
H	-1.5325160681	-2.1118843738	 2.1127714231	 0.127122
H	-3.1033762958	-1.211551727	 0.1796108031	 0.118366
29.2561	71.8121	111.4371	233.638	287.1409	383.5605	435.6153	498.6188	534.0664	591.2579	694.9985	761.4122	779.1729	839.652	853.9109	919.5545	949.0874	989.4056	1019.0183	1087.1414	1097.6398	1118.2965	1161.3517	1226.5167	1264.0352	1289.0406	1321.0263	1359.4355	1374.3661	1403.4923	1423.7458	1494.2649	1511.0682	1772.0441	1836.7967	2927.3081	3037.3293	3037.811	3070.8804	3115.9725	3126.0337	3518.1505
N=C1OCCC(O1)C=O	[NH][C]1OCC[C@@H](O1)C=O	
InChI=1S/C5H7NO3/c6-5-8-2-1-4(3-7)9-5/h3-4,6H,1-2H2	InChI=1S/C5H7NO3/c6-5-8-2-1-4(3-7)9-5/h3-4,6H,1-2H2/t4-/m1/s1
