17
gdb 114166	4.24045	1.00001	0.89186	2.4425	76.91	-0.2383	0.0093	0.2476	1296.1453	0.134144	-421.740381	-421.731823	-421.730879	-421.77366	32.574	
O	-0.0753511616	 1.3687141482	-0.2996332592	-0.418516
C	 0.0325537988	 0.0367858028	 0.1654992751	-0.086216
C	-1.3145075297	-0.6584178878	 0.0934438381	 0.112093
O	-1.8488895946	-0.6376581533	-1.2692816243	-0.348529
C	-2.1161049533	-2.0505944823	-1.2042146368	 0.318666
C	-0.8284900505	-2.8138434933	-1.0680355644	-0.340604
C	-1.4362735589	-2.1775522838	 0.1598822094	-0.213665
C	-3.3378634829	-2.5526271122	-1.7246340516	 0.219807
C	-4.3695174339	-2.9776567371	-2.1742669582	-0.412214
H	-0.4702577986	 1.3174297825	-1.1785074566	 0.296584
H	 0.7844431545	-0.5308995298	-0.4023920766	 0.088519
H	 0.3684593358	 0.0868821294	 1.2072954274	 0.112147
H	-2.0302199403	-0.158338975	 0.7566096262	 0.099672
H	-0.9285171801	-3.8933207752	-1.1055204479	 0.13395
H	 0.0648563244	-2.4136556145	-1.5367164035	 0.125354
H	-1.7494542361	-2.7489424193	 1.022260457	 0.116579
H	-5.2819731929	-3.3502084693	-2.569764534	 0.196372
87.2515	109.7333	138.4187	213.6874	260.6654	393.4188	432.9047	444.5845	482.8887	512.4714	558.1637	577.0089	623.1958	693.2344	736.8546	842.2207	863.7259	904.4161	944.8122	991.7774	1007.6797	1033.7335	1055.2122	1076.7809	1095.8204	1121.4759	1156.8011	1219.961	1274.8865	1295.5197	1345.2459	1367.3659	1402.3703	1437.0232	1474.2711	1499.5298	2236.0012	2995.6161	3042.05	3073.0608	3129.6416	3213.9463	3224.7952	3501.3159	3790.9023
OCC1OC2(CC12)C#C	OC[C@H]1O[C@]2(C[C@@H]12)C#C	
InChI=1S/C7H8O2/c1-2-7-3-5(7)6(4-8)9-7/h1,5-6,8H,3-4H2	InChI=1S/C7H8O2/c1-2-7-3-5(7)6(4-8)9-7/h1,5-6,8H,3-4H2/t5-,6+,7-/m0/s1
