19
gdb 26746	2.99667	1.49405	1.02294	3.4972	85.1	-0.198	0.0473	0.2453	1186.18	0.159933	-382.090785	-382.081816	-382.080871	-382.125579	31.947	
C	-0.2465182919	 1.4899055214	 0.1326054	-0.48824
C	 0.0831096881	 0.0406339684	-0.0381350591	 0.20411
C	 0.1327800758	-0.6883069197	-1.2210952004	 0.142125
C	-0.1107962191	-0.327813001	-2.6461851599	-0.499015
N	 0.520163256	-1.9435232965	-0.7878469425	-0.02948
C	 0.7542150587	-3.397623276	-0.8970818434	-0.173573
C	 0.950511997	-3.389968355	 0.6727849146	-0.369501
C	 0.6472147984	-1.9055065522	 0.5526897166	 0.35714
N	 0.3988223359	-0.735807851	 1.0794597975	-0.427216
H	 0.6098242264	 2.0477763748	 0.5283473597	 0.12966
H	-0.5402198979	 1.9522418306	-0.8136180909	 0.111619
H	-1.069266588	 1.6203092923	 0.8437631356	 0.131477
H	 0.7883307556	-0.4496064135	-3.2631432368	 0.127552
H	-0.8997915915	-0.9420019642	-3.0979538441	 0.12538
H	-0.4230406447	 0.7158408858	-2.7248180679	 0.137982
H	-0.1140675271	-3.960160807	-1.2509112864	 0.129417
H	 1.6351215297	-3.6638402291	-1.487315404	 0.127562
H	 0.2187795789	-3.9865705987	 1.2228605875	 0.132166
H	 1.9559913197	-3.6549307793	 1.0087962237	 0.130835
30.1845	87.0127	118.6634	177.6211	220.8374	254.8287	290.6911	309.3623	547.8939	583.9897	650.3236	653.5212	685.3868	810.1201	819.9615	846.3831	907.9658	977.3747	1052.4541	1057.2893	1064.3663	1068.6442	1111.0069	1134.4221	1173.4897	1186.8821	1225.2215	1265.0078	1302.084	1404.4492	1419.2216	1425.3471	1442.7299	1473.2377	1480.0445	1481.936	1490.5276	1497.523	1512.8312	1581.264	1600.2378	3017.0461	3031.3457	3056.0144	3059.4717	3069.1471	3083.0272	3105.3846	3113.1246	3121.4499	3124.1816
CC1=C(C)N2CCC2=N1	Cc1c(C)n2CCc2n1	
InChI=1S/C7H10N2/c1-5-6(2)9-4-3-7(9)8-5/h3-4H2,1-2H3	InChI=1S/C7H10N2/c1-5-6(2)9-4-3-7(9)8-5/h3-4H2,1-2H3
