23
gdb 76652	2.69336	0.90918	0.85542	2.4932	86.34	-0.2393	-0.0064	0.2329	1534.1669	0.20247	-388.307324	-388.296227	-388.295283	-388.345208	39.317	
C	-0.2293586505	 1.028529789	-1.8131270597	-0.413749
C	-0.0180325821	-0.1974371163	-0.949757459	-0.008888
C	 1.3430504349	-0.6328354947	-0.4415433805	-0.054225
C	 2.6218649323	 0.1216158238	-0.742971514	-0.404322
C	 0.2965555043	-0.1273452978	 0.5317353877	-0.005591
C	 0.437683395	 1.1794094999	 1.2774374185	-0.333636
C	-0.845558914	 1.6169804429	 1.9827204803	 0.385386
C	-0.8246538794	 3.0088309947	 2.5933583434	-0.474353
O	-1.8168635339	 0.9014086386	 2.061686205	-0.290128
H	 0.4624200865	 1.8423133681	-1.5808117934	 0.109604
H	-0.092683761	 0.7854616343	-2.8728095013	 0.117485
H	-1.246881804	 1.417327644	-1.6929808867	 0.122503
H	-0.6819138597	-1.0141706749	-1.2222530809	 0.083876
H	 1.4927960497	-1.7099643947	-0.4171830081	 0.080284
H	 2.48143115	 1.2049150416	-0.7731263623	 0.11064
H	 3.3850775009	-0.0861815132	 0.0157328399	 0.115092
H	 3.0331377055	-0.1801840458	-1.7127469911	 0.116436
H	-0.1915933751	-0.8851528627	 1.1361320291	 0.096304
H	 1.2113643724	 1.1020818782	 2.0575969871	 0.12147
H	 0.7716661495	 2.0030112509	 0.6371001917	 0.111056
H	 0.0745421288	 3.1594418279	 3.2002555279	 0.132817
H	-0.799073295	 3.7610757587	 1.7959317237	 0.140332
H	-1.7169220651	 3.1620534376	 3.2015290227	 0.141608
20.6203	44.8853	112.9305	121.8901	154.618	158.1416	212.3074	228.5047	270.4672	354.384	424.279	467.1428	510.6702	518.9608	589.7418	745.311	770.5325	818.8324	832.9921	869.0626	940.3021	946.3069	978.695	1029.364	1041.1757	1057.9277	1107.1183	1139.126	1157.7972	1159.8934	1180.4771	1189.7942	1237.5535	1275.4061	1324.9634	1378.3463	1381.0134	1400.9212	1416.904	1422.4851	1445.6981	1458.6929	1466.0617	1477.931	1489.9669	1494.7873	1502.4237	1516.6006	1814.607	2996.5114	3029.2461	3032.5724	3035.4308	3067.2379	3083.3964	3086.0451	3096.6618	3102.6223	3112.8034	3125.1258	3136.0488	3151.2421	3160.6535
CC1C(C)C1CC(C)=O	C[C@H]1[C@@H](C)[C@H]1CC(=O)C	
InChI=1S/C8H14O/c1-5(9)4-8-6(2)7(8)3/h6-8H,4H2,1-3H3	InChI=1S/C8H14O/c1-5(9)4-8-6(2)7(8)3/h6-8H,4H2,1-3H3/t6-,7+,8-
