21
gdb 109870	2.34866	1.44196	1.05154	2.1247	78.08	-0.2454	0.0749	0.3203	1227.7089	0.180812	-424.200083	-424.1906	-424.189655	-424.234074	35.917	
C	 0.0445035424	 1.5582202694	 0.1308692721	-0.386549
C	-0.131993495	 0.0543518543	-0.1075309517	-0.193244
C	 0.7067837009	-0.4645942111	-1.2696051334	-0.102123
C	 2.2908787122	-0.5159454346	-1.120816164	 0.11667
O	 2.8585408664	-0.1897757754	 0.11978698	-0.429967
C	 2.2174923164	-2.0145894303	-1.4436176692	-0.098855
O	 1.4098862487	-2.5727442137	-0.3877647952	-0.307418
C	 0.7466265885	-1.9815897234	-1.5297020714	 0.413389
C	-0.2250048968	-2.82739926	-2.2861972429	-0.506281
H	 1.0865001248	 1.7878109441	 0.3685918047	 0.139582
H	-0.2377327127	 2.1362388482	-0.7566270624	 0.106707
H	-0.5793571014	 1.9015779561	 0.9620120388	 0.108592
H	 0.1292607575	-0.5000548542	 0.8004530775	 0.098441
H	-1.1886640311	-0.1691461039	-0.306342441	 0.092441
H	 0.4509081559	 0.069368926	-2.1929760728	 0.069578
H	 2.8022054315	 0.0818301435	-1.8784292383	 0.089988
H	 2.5393302212	-0.8586245349	 0.7394017698	 0.29194
H	 2.9490471054	-2.6715935357	-1.9019712477	 0.10143
H	-1.1809042655	-2.8938532562	-1.7548913686	 0.133761
H	-0.4203452253	-2.3978490812	-3.2741109202	 0.126491
H	 0.1643471062	-3.8409883873	-2.4130232941	 0.135426
96.389	115.4142	157.2856	192.8857	215.8817	237.1751	275.1857	316.1409	344.0804	477.5677	512.6645	552.9684	603.6513	702.8867	712.8265	766.2434	824.8914	849.5524	892.4226	933.751	963.3153	1003.6964	1018.9527	1060.4478	1062.8708	1096.1028	1137.052	1152.6848	1194.0013	1208.7289	1250.0288	1262.8662	1284.9661	1310.9615	1335.2216	1379.8726	1404.3849	1406.5933	1434.5354	1466.8867	1483.4508	1490.8222	1495.4324	1500.7013	1513.842	3019.6737	3032.132	3033.5243	3036.6927	3065.6033	3093.8379	3097.6017	3097.9582	3121.1745	3123.0169	3175.5842	3772.2899
CCC1C(O)C2OC12C	CC[C@H]1[C@@H](O)[C@H]2O[C@@]12C	
InChI=1S/C7H12O2/c1-3-4-5(8)6-7(4,2)9-6/h4-6,8H,3H2,1-2H3	InChI=1S/C7H12O2/c1-3-4-5(8)6-7(4,2)9-6/h4-6,8H,3H2,1-2H3/t4-,5+,6+,7-/m0/s1
