19
gdb 104566	2.13731	1.31351	0.9696	3.4124	76.57	-0.2491	-0.0343	0.2148	1268.4138	0.155889	-423.047797	-423.038234	-423.03729	-423.083266	34.505	
C	 0.3556688365	 1.4996258645	 0.4250522179	-0.398069
C	 0.1389853858	 0.0343543202	 0.028172444	-0.251023
C	 0.6231550189	-0.3643179392	-1.3791019054	 0.219225
C	 2.196208172	-0.3486761577	-1.5323943499	-0.406727
C	 2.1381430543	-1.8868555308	-1.586235593	 0.418894
O	 2.9796409569	-2.7345539661	-1.5376722489	-0.285572
C	 0.6098397446	-1.9015176283	-1.6384459427	-0.402954
C	-0.0428997508	 0.4390240052	-2.4742029059	 0.103387
O	-0.6106021156	-0.0335167363	-3.4269442448	-0.248365
H	 1.4024937589	 1.7993236189	 0.308029667	 0.123493
H	-0.2558740871	 2.1864867308	-0.166755966	 0.126638
H	 0.0867152502	 1.648603021	 1.4748539409	 0.126561
H	 0.6603281418	-0.6109389153	 0.7467924361	 0.110207
H	-0.9251824991	-0.2186684127	 0.1151187349	 0.114954
H	 2.5645112449	 0.0928354965	-2.4646681489	 0.139925
H	 2.7676178685	 0.0711245951	-0.700007791	 0.135222
H	 0.1111837676	-2.5311095839	-0.8968768013	 0.1289
H	 0.2211342604	-2.1458860431	-2.6323934651	 0.158426
H	 0.0505693115	 1.5417709212	-2.3662490078	 0.086879
35.9706	63.6188	102.5926	194.5662	238.3709	253.2034	298.0476	324.7579	383.1334	418.0269	480.7137	569.4383	655.2618	686.9024	749.5576	781.0687	843.7024	901.3325	916.7642	999.6569	1012.5916	1026.1961	1052.3659	1085.297	1124.5207	1156.463	1176.2878	1200.78	1244.2089	1262.864	1328.2371	1372.8875	1413.804	1425.1143	1428.5082	1443.3405	1487.9051	1499.9771	1507.9762	1818.8231	1896.976	2891.93	3020.1973	3041.0656	3051.3833	3053.9471	3060.0642	3106.6492	3109.925	3114.2863	3116.1925
CCC1(CC(=O)C1)C=O	CCC1(CC(=O)C1)C=O	
InChI=1S/C7H10O2/c1-2-7(5-8)3-6(9)4-7/h5H,2-4H2,1H3	InChI=1S/C7H10O2/c1-2-7(5-8)3-6(9)4-7/h5H,2-4H2,1H3
