20
gdb 39649	4.56451	1.02629	0.98729	2.2529	80.04	-0.2192	0.0789	0.2981	1270.2515	0.171889	-403.043509	-403.035829	-403.034885	-403.076314	29.844	
C	-0.0630969875	 1.6252283697	-0.0592014316	-0.227055
C	 1.4769951363	 1.5028825266	 0.027679946	-0.161851
N	 1.3108835779	 0.0977229069	 0.4655166647	-0.080806
C	-0.0727025182	 0.0778771083	-0.062746639	-0.161851
C	 2.2385712649	-0.8806780998	-0.014486104	 0.058614
C	 3.6012595114	-1.0861638823	 0.7088826643	 0.022658
C	 2.8726158635	-1.69348014	 1.9296602938	-0.222612
C	 2.2860427616	-2.2955898815	 0.6321832916	 0.022657
O	 3.6602758725	-2.4338565136	 0.0976773571	-0.309733
H	-0.5033204816	 2.0465199431	 0.8461756511	 0.114319
H	-0.475547798	 2.1292327983	-0.9332180987	 0.106859
H	 1.955821408	 1.5889654952	-0.9614257363	 0.088068
H	 2.0119697698	 2.1449175682	 0.7348553591	 0.103114
H	-0.7996468615	-0.4404683575	 0.5707940434	 0.103114
H	-0.1350108682	-0.3336351982	-1.0834280033	 0.088068
H	 2.3393259725	-0.9206315376	-1.1122098034	 0.062258
H	 4.5042252429	-0.4761728632	 0.6650618227	 0.089766
H	 3.4716260468	-2.3826744709	 2.5255065445	 0.102611
H	 2.2321090755	-1.0340378791	 2.514497354	 0.112036
H	 1.6083301014	-3.1391332226	 0.4961815039	 0.089766
62.655	117.5596	155.1046	227.5613	339.9606	432.8246	465.8732	564.9854	715.4659	740.642	825.0824	843.5706	846.9014	883.9653	905.2607	917.2486	929.5003	941.3312	947.7962	1016.9514	1017.4356	1059.0612	1076.0581	1118.88	1133.1832	1134.1106	1149.8	1179.0478	1204.0778	1212.9951	1215.7313	1234.7018	1255.5844	1264.1654	1268.7295	1286.9633	1294.0908	1340.176	1380.9385	1471.0729	1487.8094	1505.0818	1532.8099	2965.2568	2967.601	2977.2993	3061.5691	3062.5106	3086.0836	3087.9543	3109.4724	3116.9949	3143.4394	3169.4092
C1CN(C1)C1C2CC1O2	C1CN(C1)[C@H]1[C@H]2C[C@@H]1O2	
InChI=1S/C7H11NO/c1-2-8(3-1)7-5-4-6(7)9-5/h5-7H,1-4H2	InChI=1S/C7H11NO/c1-2-8(3-1)7-5-4-6(7)9-5/h5-7H,1-4H2/t5-,6+,7+
