20
gdb 9285	6.33784	0.73097	0.6898	3.2676	73.44	-0.2473	-0.0174	0.2299	1630.8574	0.173942	-386.156462	-386.146455	-386.145511	-386.1922	34.76	
C	 0.1125212779	 1.5928846402	 0.1418674521	-0.380976
C	 0.0037421423	 0.0711489546	 0.0178442781	-0.193484
C	 0.6602877157	-0.4805792115	-1.2530839627	 0.140472
O	 2.0403437009	-0.1251276176	-1.3296940573	-0.425529
C	 0.4730594503	-1.9991673323	-1.390910499	-0.217716
C	 1.0748993496	-2.552136771	-2.692943127	-0.271736
C	 1.1230211744	-4.059693879	-2.7023332935	 0.158322
O	 0.6405189259	-4.7682604377	-3.547777306	-0.239644
H	 1.1573394996	 1.9108107475	 0.0968558054	 0.126958
H	-0.4201123272	 2.0921405786	-0.6748411106	 0.117491
H	-0.3161880967	 1.9446040619	 1.0847858109	 0.112156
H	 0.4708781052	-0.4115119687	 0.8896025086	 0.086152
H	-1.0496082691	-0.2348280849	 0.0318413567	 0.100965
H	 0.2097917636	 0.0099321512	-2.1262910313	 0.091102
H	 2.4722259317	-0.4607217191	-0.5352313607	 0.277651
H	 0.9439362405	-2.4905085001	-0.5259815341	 0.09014
H	-0.5953778386	-2.2400661424	-1.3390505545	 0.111712
H	 0.5191871127	-2.2112910588	-3.5713858295	 0.119086
H	 2.1046913471	-2.1776389776	-2.7722082422	 0.133313
H	 1.6605727643	-4.5011971632	-1.8279194234	 0.063564
53.1549	68.6908	95.5352	123.4018	156.1159	221.9089	271.4214	294.192	316.7453	376.3908	457.8922	529.9426	538.517	763.5493	781.9542	835.4583	878.745	969.8334	995.7581	1008.3616	1051.8002	1065.3498	1100.7492	1116.8248	1151.3103	1185.9115	1247.6158	1260.838	1295.8875	1319.2571	1360.4755	1376.5528	1389.5405	1408.4274	1422.0585	1431.3458	1464.2902	1477.7051	1489.7832	1496.1531	1508.5919	1836.3607	2835.7725	2995.4975	2999.7405	3026.0031	3030.6683	3039.5776	3050.2051	3064.3173	3101.174	3104.7135	3123.3958	3786.382
CCC(O)CCC=O	CC[C@@H](O)CCC=O	
InChI=1S/C6H12O2/c1-2-6(8)4-3-5-7/h5-6,8H,2-4H2,1H3	InChI=1S/C6H12O2/c1-2-6(8)4-3-5-7/h5-6,8H,2-4H2,1H3/t6-/m1/s1
