18
gdb 103116	2.38379	1.25361	1.04035	4.422	73.54	-0.2359	0.0255	0.2615	1207.2536	0.147414	-435.245002	-435.235081	-435.234137	-435.279568	36.157	
N	 0.1727242035	 1.3562633477	-0.1591327433	-0.527686
C	 0.0368901711	-0.0530158927	-0.0005425896	-0.03779
C	-0.5871199075	-0.7177483765	 1.2635078336	-0.283843
C	-1.0426366743	 0.1377405136	 2.3091687035	 0.297584
N	-1.4300274489	 0.876891761	 3.1135136511	-0.354621
C	-1.3250122052	-0.6700622182	-0.0908436909	 0.314485
N	-2.4565268235	 0.1985169098	-0.2803944074	-0.577008
C	-1.4676231266	-1.9678929551	-0.8483348068	-0.14102
O	-2.6437899814	-2.6179337034	-0.3874612603	-0.421188
H	-0.7112242112	 1.7774274807	-0.4237907949	 0.24812
H	 0.5275002699	 1.8206662939	 0.6685251447	 0.247026
H	 0.8606314751	-0.6398883165	-0.4045935787	 0.10231
H	-0.1689212805	-1.6658633141	 1.583506072	 0.125927
H	-3.2854411505	-0.3869749181	-0.3393274028	 0.250578
H	-2.5941705224	 0.8068982538	 0.5217459116	 0.251577
H	-1.5357861905	-1.7363972638	-1.9217147356	 0.112211
H	-0.5740791253	-2.5888947221	-0.6908082097	 0.096478
H	-2.8648196718	-3.32203891	-1.0037893663	 0.296859
87.9893	114.4551	137.9044	166.0828	211.4923	240.6493	258.9808	304.4718	338.6865	367.3156	411.4178	432.0039	578.9198	618.1512	667.6363	698.8215	800.1342	831.9097	853.7214	924.2118	961.6239	1024.1832	1039.4959	1054.432	1086.2291	1115.4927	1224.9631	1237.9957	1245.7452	1256.7816	1312.6912	1358.8579	1361.4585	1441.3453	1480.8155	1509.4314	1651.48	1668.6184	2334.6975	2987.5053	3025.1024	3106.8295	3170.7089	3492.9263	3513.3134	3563.9738	3598.1674	3837.2568
NC1C(C#N)C1(N)CO	N[C@H]1[C@@H](C#N)[C@]1(N)CO	
InChI=1S/C5H9N3O/c6-1-3-4(7)5(3,8)2-9/h3-4,9H,2,7-8H2	InChI=1S/C5H9N3O/c6-1-3-4(7)5(3,8)2-9/h3-4,9H,2,7-8H2/t3-,4+,5-/m1/s1
