15
gdb 94152	1.99688	1.58317	1.28409	0.8727	74.04	-0.2629	-0.0117	0.2512	1063.8457	0.108841	-420.520895	-420.51192	-420.510976	-420.554488	33.343	
O	 0.3373040274	 1.0889720648	-0.5079872038	-0.414117
C	 0.1279880319	-0.1315362569	 0.109240364	 0.05326
C	-0.0834477088	-0.2204882334	 1.6347095615	-0.117721
O	-1.2348159775	-1.0775976928	 1.4642657238	-0.295718
C	-1.3093269916	-0.812261131	 0.036269954	 0.001127
C	-2.3467932354	 0.1672462873	-0.2826113172	 0.30105
C	-3.1319563942	 1.0452343656	-0.5268388968	-0.4392
C	-1.4290935615	-2.02125984	-0.7608665165	 0.260197
C	-1.4847467321	-3.0194401597	-1.4269548077	-0.402481
H	-0.4495101471	 1.6345168353	-0.3721780465	 0.287217
H	 0.8898676665	-0.8210096506	-0.2562874411	 0.126061
H	 0.6993479085	-0.7026039787	 2.2273253317	 0.119598
H	-0.3504038748	 0.7433994107	 2.0882801406	 0.104889
H	-3.8634766222	 1.7838528285	-0.7479911919	 0.211424
H	-1.546788549	-3.903133849	-2.0133026739	 0.204416
84.8795	122.3699	139.3836	154.5518	242.3533	319.9324	397.9282	404.853	478.0338	505.7606	546.402	576.8137	623.7002	634.8831	663.7118	670.5591	675.8978	747.9202	910.3929	955.0805	1001.1786	1039.0568	1087.2721	1142.0462	1158.3015	1176.7958	1258.2196	1313.0723	1353.7286	1445.6594	1515.1502	2224.3587	2239.4702	3015.7072	3087.217	3117.9325	3495.3292	3500.158	3749.8053
OC1COC1(C#C)C#C	O[C@H]1COC1(C#C)C#C	
InChI=1S/C7H6O2/c1-3-7(4-2)6(8)5-9-7/h1-2,6,8H,5H2	InChI=1S/C7H6O2/c1-3-7(4-2)6(8)5-9-7/h1-2,6,8H,5H2/t6-/m0/s1
