15
gdb 42580	3.06717	2.13804	1.64542	3.611	67.03	-0.231	-0.0264	0.2046	814.2282	0.115741	-416.743824	-416.738046	-416.737102	-416.773818	24.228	
O	 0.0075801633	 0.0387613332	 0.0784838437	-0.331649
C	 0.0080538508	 1.2399269862	 0.0319063594	 0.514412
C	-1.1800780684	 2.1497243391	 0.0082759544	-0.185695
C	-1.0260171437	 3.5029765447	 0.6384103573	-0.016367
C	 0.4516297342	 3.8965013916	 0.819859595	-0.038064
N	 1.3020167784	 2.7834181795	 1.3281054191	-0.330784
C	 1.2153662236	 2.1773933428	-0.0578858606	-0.182027
C	 0.6115409955	 3.4828270664	-0.6539867301	-0.009477
N	-0.9081394349	 3.3370566203	-0.8481179138	-0.159458
H	-2.1733976498	 1.7244761976	-0.0713455725	 0.118153
H	-1.8832776585	 3.9891238484	 1.0923491159	 0.110048
H	 0.6302591473	 4.8940312278	 1.2199789917	 0.089997
H	 2.2482941972	 3.1227438755	 1.485259723	 0.227846
H	 2.1170013582	 1.7156940008	-0.4565621461	 0.098968
H	 1.1140844966	 4.042279646	-1.4389770662	 0.094096
157.4999	317.3311	433.9894	465.5782	563.0857	654.2595	718.9017	739.6897	752.1699	778.7379	805.274	847.776	852.3432	884.5058	911.3318	942.9393	970.5273	989.9966	1021.0134	1044.7666	1072.3572	1153.4249	1160.6973	1175.2045	1187.9914	1206.4297	1240.3927	1252.6164	1310.7779	1342.721	1350.5416	1385.0236	1856.0444	3119.7605	3134.186	3149.184	3168.0856	3197.3664	3489.81
O=C1C2C3C4NC1C4N23	O=C1[C@H]2[C@H]3[C@H]4N[C@@H]1[C@H]4N23	
InChI=1S/C6H6N2O/c9-6-2-3-1(7-2)4-5(6)8(3)4/h1-5,7H	InChI=1S/C6H6N2O/c9-6-2-3-1(7-2)4-5(6)8(3)4/h1-5,7H/t1-,2+,3-,4+,5+,8?/m0/s1
