15
gdb 49945	2.23591	1.26352	0.97897	2.6626	80.82	-0.247	-0.0362	0.2107	1223.0251	0.108342	-383.412695	-383.403539	-383.402595	-383.44667	33.623	
O	-0.0013215588	-0.0355090472	-0.3395337714	-0.259307
C	 0.0401543362	 1.099310043	 0.0643258636	 0.162592
C	 1.2742631028	 1.927474065	 0.0547217453	-0.140442
C	 1.1727908272	 3.4103906461	-0.1819804892	-0.3168
C	 1.5299291024	 2.9376800078	 1.2160845774	-0.019125
C	 0.5386301724	 3.0730914502	 2.2559860722	 0.259113
C	-0.2776382854	 3.2029701259	 3.1281460815	-0.442532
C	 2.901756098	 3.0605135109	 1.6404435856	 0.259074
C	 4.0489858976	 3.1603956073	 1.9833952923	-0.427245
H	-0.8608132898	 1.6099547052	 0.4663613944	 0.089868
H	 2.1588224328	 1.4153637068	-0.3042801209	 0.132571
H	 1.9570967834	 3.8818375138	-0.7607391843	 0.14952
H	 0.1820797659	 3.8344408477	-0.3025426511	 0.144561
H	-0.9947952489	 3.3117145226	 3.9040503492	 0.204527
H	 5.0600136442	 3.2498281548	 2.2960779656	 0.203625
84.9101	104.5616	130.6274	182.4351	205.7067	299.8997	318.1292	435.165	464.134	474.4236	566.9966	593.5661	604.2002	617.3872	636.3781	665.7897	669.119	813.9466	867.5671	932.7989	975.5619	1038.3472	1066.1912	1088.1474	1170.9792	1220.2035	1277.6115	1341.5426	1438.3276	1470.0792	1819.2555	2241.2994	2242.6075	2908.1754	3145.5525	3197.8905	3243.8648	3500.816	3502.3653
O=CC1CC1(C#C)C#C	O=C[C@H]1CC1(C#C)C#C	
InChI=1S/C8H6O/c1-3-8(4-2)5-7(8)6-9/h1-2,6-7H,5H2	InChI=1S/C8H6O/c1-3-8(4-2)5-7(8)6-9/h1-2,6-7H,5H2/t7-/m1/s1
