13
gdb 5703	4.89945	2.1736	1.5346	1.7415	58.73	-0.2038	0.0127	0.2165	762.2774	0.098228	-398.608832	-398.602825	-398.601881	-398.639818	21.954	
C	 0.0449872396	 1.3555805758	-0.1298021138	-0.092473
C	 1.5302699523	 1.8463369077	 0.0997105487	-0.371627
C	 2.1248753961	 0.5732799792	 0.622088285	 0.143771
C	 1.1673198302	-0.362364453	 0.6555762193	 0.430445
O	-0.0727902874	-0.0712770602	 0.2586763211	-0.284123
O	 1.6373328734	-1.5282981439	 1.1153273929	-0.201683
C	 2.9742931556	-1.2116571052	 1.3583295049	 0.026817
N	 3.3057112508	 0.008902281	 1.0842244291	-0.324811
H	-0.6736668909	 1.9019651959	 0.4833281239	 0.135228
H	-0.2563787075	 1.4154961969	-1.1769496075	 0.135228
H	 1.9764495884	 2.1967428302	-0.8371287602	 0.12637
H	 1.5624681184	 2.6792949239	 0.8101140743	 0.12637
H	 3.577851591	-2.0151060483	 1.7453177223	 0.150488
40.5877	199.0752	299.8103	450.8496	620.9234	647.6447	700.0903	722.6994	745.3347	777.0759	832.3143	917.4538	926.0949	943.885	1028.1911	1074.5512	1136.261	1197.1666	1239.2371	1260.6236	1275.5487	1358.8871	1371.736	1482.8121	1502.4532	1518.9315	1525.0451	1707.4049	3036.078	3065.7701	3081.271	3135.4692	3295.9598
C1CC2=C(O1)OC=N2	C1Cc2c(O1)ocn2	
InChI=1S/C5H5NO2/c1-2-7-5-4(1)6-3-8-5/h3H,1-2H2	InChI=1S/C5H5NO2/c1-2-7-5-4(1)6-3-8-5/h3H,1-2H2
