19
gdb 38518	2.94064	1.96711	1.43165	1.3204	80.28	-0.2355	0.0047	0.2402	938.9815	0.161957	-385.849358	-385.842643	-385.841699	-385.880109	28.241	
C	-0.0210204239	 1.5629435926	-0.0965725984	-0.267719
C	 1.5395998187	 1.6044880314	 0.0226021049	-0.029957
C	 2.1061875446	 1.9594392543	 1.4381529113	-0.309761
C	 1.5712608068	 0.6059953294	 1.855580558	 0.262699
C	 0.7266075093	 0.1694707715	 2.7846594674	-0.211766
C	-0.1964627248	-0.9321387375	 2.3226121561	-0.105494
O	-0.8500942566	-0.5715116021	 1.0866642179	-0.282794
C	-0.0165134259	 0.0002216195	 0.0981536327	 0.150893
C	 1.4872849189	 0.0908004784	 0.4275804339	-0.150636
H	-0.5559046724	 2.1013045296	 0.6885377813	 0.106927
H	-0.404011246	 1.8857750423	-1.0669847187	 0.100528
H	 2.0844553517	 1.9697735148	-0.8481184895	 0.070754
H	 3.2006544686	 2.0116148743	 1.4000310682	 0.108362
H	 1.7221834044	 2.8417404669	 1.9591840777	 0.104162
H	 0.5468618469	 0.6845850612	 3.7233394035	 0.092753
H	 0.3430241666	-1.8805615695	 2.1804167754	 0.101159
H	-1.0045798351	-1.1145391797	 3.0345385086	 0.111612
H	-0.2295633499	-0.5186654713	-0.8432085159	 0.076676
H	 2.190187048	-0.6726716163	 0.0909079856	 0.071603
137.84	243.8206	343.8966	350.7269	388.9182	502.3576	517.9456	596.5939	727.7344	742.6662	764.9757	793.7535	849.9552	861.6493	898.8808	921.8264	950.2109	958.9464	979.1026	1017.1341	1038.4683	1057.2816	1070.9959	1103.3121	1120.6873	1153.1134	1160.3963	1195.905	1219.7146	1235.3214	1265.8757	1273.2131	1278.6385	1302.6149	1328.366	1361.7058	1388.5901	1467.9784	1478.4607	1499.2385	1732.4314	2985.8635	3030.9999	3035.1498	3070.1565	3087.9165	3093.2582	3099.9044	3105.7675	3128.2961	3172.4981
C1C2CC3=CCOC1C23	C1[C@H]2C[C]3[CH]CO[C@@H]1[C@@H]23	
InChI=1S/C8H10O/c1-2-9-7-4-6-3-5(1)8(6)7/h1,6-8H,2-4H2	InChI=1S/C8H10O/c1-2-9-7-4-6-3-5(1)8(6)7/h1,6-8H,2-4H2/t6-,7+,8-/m1/s1
