17
gdb 66856	2.62509	2.10777	1.84517	1.1199	69.54	-0.2167	0.0716	0.2883	834.5812	0.138895	-417.931302	-417.924997	-417.924053	-417.961481	26.977	
O	-0.0727214892	 1.3984118766	 0.0347098709	-0.497106
C	 0.0081947393	 0.0208380613	 0.0105130409	 0.433518
C	-1.3145261511	-0.7825752318	 0.0697892165	-0.119109
C	-0.7326217012	-1.773088185	-0.8993660424	-0.063201
C	 0.5067855609	-0.8644460872	-1.169077255	-0.108023
N	 1.7556328277	-1.164567674	-0.4456536187	-0.322697
C	 1.0868575585	-0.7992065324	 0.8375519958	-0.100948
C	 0.2721106732	-1.9641667765	 1.3985872606	-0.166156
N	-0.9139858685	-2.1003633316	 0.5283499833	-0.110516
H	 0.7915115257	 1.7590373715	-0.1928676346	 0.292091
H	-2.3183608038	-0.4024338415	 0.2163374722	 0.099399
H	-1.2245421594	-2.4190429232	-1.6186925068	 0.094909
H	 0.5906286724	-0.5073209245	-2.1985073616	 0.07637
H	 2.0669702353	-2.1333817374	-0.4915309607	 0.208514
H	 1.7241031477	-0.2792359818	 1.5590036275	 0.07082
H	 0.8398906556	-2.9008405577	 1.4204574506	 0.102656
H	-0.0892251633	-1.7606857249	 2.4131803515	 0.109477
243.5637	287.0338	331.4216	363.9544	439.2409	514.2988	606.0864	647.559	670.3223	741.2548	752.3794	827.7866	852.7522	870.647	923.0764	946.035	960.0439	979.7639	994.6067	1019.3017	1043.3902	1063.745	1069.222	1117.8774	1127.1154	1175.9893	1190.7068	1243.8295	1247.186	1265.2031	1288.7321	1319.0725	1332.5253	1357.8606	1370.9973	1408.9021	1492.1727	3033.584	3063.7567	3079.9124	3081.4183	3163.8936	3190.3649	3464.8298	3804.2306
OC12C3C4C1NC2CN34	O[C@@]12[C@H]3[C@H]4[C@@H]1N[C@@H]2CN34	
InChI=1S/C6H8N2O/c9-6-2-1-8-3(5(6)8)4(6)7-2/h2-5,7,9H,1H2	InChI=1S/C6H8N2O/c9-6-2-1-8-3(5(6)8)4(6)7-2/h2-5,7,9H,1H2/t2-,3-,4+,5-,6-,8?/m1/s1
