20
gdb 55284	2.4785	1.29749	1.16402	4.3488	75.12	-0.2423	0.0169	0.2593	1177.4551	0.168999	-440.312878	-440.302823	-440.301879	-440.348144	36.634	
C	-0.7751887905	 1.3403463295	 0.269805439	-0.436613
C	-0.2804666805	-0.0954764459	 0.1571337473	 0.422604
C	-1.4196707568	-1.0843195404	-0.0511691462	-0.425604
O	 0.7013049295	-0.21521018	-0.9083968038	-0.320967
C	 1.7564032284	-0.5348093094	 0.0188828742	-0.086547
C	 0.7930481207	-0.5552966541	 1.2154392324	-0.213808
C	 1.1135672042	 0.4005729522	 2.3497265859	 0.406074
N	 0.5136636892	 0.0997520052	 3.5386759312	-0.529147
O	 1.8195121473	 1.3826813138	 2.2095341711	-0.362959
H	 0.0563614182	 2.0270105008	 0.4371781972	 0.150301
H	-1.2818043215	 1.6204446351	-0.6589766662	 0.119831
H	-1.4874051564	 1.447210589	 1.0953987788	 0.108953
H	-1.9817309202	-0.8245703693	-0.9540011588	 0.127899
H	-1.0349803436	-2.1011126864	-0.171026528	 0.11673
H	-2.1122856319	-1.0676191103	 0.7978954868	 0.10871
H	 2.2427627177	-1.4864285528	-0.2228037751	 0.096586
H	 2.5035924546	 0.2623920425	 0.0869832175	 0.127319
H	 0.5778925338	-1.5566778118	 1.5966878742	 0.069667
H	-0.0136007481	-0.7436778096	 3.6781689928	 0.258718
H	 0.6893136159	 0.6996219818	 4.3282310897	 0.262253
48.16	72.4022	140.9272	165.3922	209.8282	243.9761	264.4489	302.701	346.452	399.9378	413.6979	442.8306	574.6663	624.9293	652.4079	702.712	806.3023	868.666	899.4876	937.5495	971.5552	1000.4925	1023.5768	1028.232	1076.1922	1106.5803	1166.0616	1179.4278	1184.4978	1250.1552	1269.0654	1288.1776	1353.2116	1396.8256	1413.0189	1414.4256	1475.0167	1482.4013	1494.9969	1505.6958	1522.1846	1615.8409	1787.0406	3029.3489	3030.1806	3039.3976	3067.584	3088.2668	3100.0322	3107.6975	3113.6291	3141.0242	3602.1712	3740.2954
CC1(C)OCC1C(N)=O	CC1(C)OC[C@H]1C(=O)N	
InChI=1S/C6H11NO2/c1-6(2)4(3-9-6)5(7)8/h4H,3H2,1-2H3,(H2,7,8)	InChI=1S/C6H11NO2/c1-6(2)4(3-9-6)5(7)8/h4H,3H2,1-2H3,(H2,7,8)/t4-/m0/s1
