20
gdb 32642	4.74063	0.86779	0.7864	1.6001	84.27	-0.1803	0.047	0.2273	1521.7725	0.170755	-403.171705	-403.16223	-403.161285	-403.20691	34.448	
C	-0.029667216	 1.5540661678	-0.0996547868	-0.367419
C	-0.0271262211	 0.0289553218	 0.0415394494	-0.154481
N	-1.358597336	-0.5503700726	 0.0540351934	 0.032541
C	-2.0715309187	-0.8811548277	 1.1709617565	-0.083044
C	-3.3287356268	-1.3051281702	 0.7893184449	-0.321692
C	-3.3683606385	-1.2181957842	-0.6307870671	 0.332246
O	-4.3822236782	-1.5327894457	-1.4839439802	-0.268023
C	-5.5640195016	-2.0150204067	-0.8814621624	-0.240158
C	-2.1457196563	-0.7472151326	-1.0617159459	-0.221203
H	 0.9960399594	 1.9364713046	-0.105379369	 0.116801
H	-0.5147952663	 1.858002564	-1.0313463839	 0.131427
H	-0.5682418287	 2.0191112348	 0.7310624961	 0.129505
H	 0.5386445934	-0.4259611691	-0.779098401	 0.118604
H	 0.4680326782	-0.2655784763	 0.971836684	 0.116674
H	-1.6296120864	-0.7923235508	 2.151026977	 0.112541
H	-4.1068758406	-1.6494652876	 1.4505108156	 0.095598
H	-6.269089216	-2.2132050369	-1.6912814565	 0.126021
H	-5.3851843954	-2.9452950235	-0.324586208	 0.115423
H	-6.0014298239	-1.275111788	-0.1968730505	 0.115402
H	-1.7823470203	-0.5497436712	-2.0561026255	 0.113237
45.8486	56.3609	110.7695	189.4944	208.873	239.8516	306.3617	341.8412	406.8262	487.9979	607.6369	615.579	634.1264	669.1702	698.4823	741.0643	771.5613	794.1863	946.724	981.9495	1022.6267	1076.913	1095.9725	1101.3748	1127.2007	1180.5374	1202.1117	1219.6344	1261.2441	1297.2611	1372.9378	1388.5292	1407.0627	1417.3101	1451.3647	1478.5782	1485.6904	1486.1647	1487.8028	1506.5793	1509.5901	1539.1192	1618.2195	2992.8691	3041.65	3042.9322	3046.0728	3085.7175	3115.3698	3124.4549	3125.4672	3249.2765	3269.1439	3271.353
CCN1C=CC(OC)=C1	CCn1ccc(OC)c1	
InChI=1S/C7H11NO/c1-3-8-5-4-7(6-8)9-2/h4-6H,3H2,1-2H3	InChI=1S/C7H11NO/c1-3-8-5-4-7(6-8)9-2/h4-6H,3H2,1-2H3
