15
gdb 132800	2.39077	1.81027	1.0336	1.6601	73.09	-0.2023	0.0013	0.2036	1062.2435	0.114972	-458.157446	-458.149865	-458.148921	-458.189142	29.849	
N	 0.0457578047	 1.3741641498	 0.1678058094	-0.576736
C	 0.0323460515	-0.0134923143	 0.0599828978	 0.319627
N	-1.1404975763	-0.6383355882	 0.1259239986	-0.342349
C	-1.1479165246	-1.975039695	 0.0601894055	-0.017185
C	-0.0038894025	-2.7454827466	-0.085430926	-0.270925
C	 1.206260647	-2.0655359751	-0.1381725999	 0.266931
F	 2.3596821207	-2.7421456873	-0.2560049193	-0.090138
C	 1.2691266277	-0.6848212006	-0.0584534386	 0.099105
N	 2.4714217407	 0.0386684776	-0.1342529444	-0.617574
H	 0.7224644746	 1.8241343986	-0.4364517225	 0.253694
H	-0.8821611433	 1.7641832507	 0.0691780556	 0.253631
H	-2.1230882553	-2.4504305908	 0.1153010497	 0.107756
H	-0.0328597141	-3.8254051009	-0.1494698582	 0.107283
H	 3.2807542034	-0.5677055658	-0.0934558994	 0.253009
H	 2.5332310056	 0.7485153778	 0.5880786719	 0.253871
152.6314	239.8473	256.5572	285.0942	315.0508	320.9748	482.7184	495.6068	536.8745	553.7324	567.0513	612.7442	717.4919	723.1361	765.5869	811.6661	830.3179	870.4728	947.2237	993.2267	1061.7409	1132.3334	1229.6259	1280.4384	1305.9197	1335.0843	1377.9684	1493.4123	1527.5645	1612.2368	1626.9577	1642.1496	1672.1727	3166.6624	3219.4908	3512.5404	3532.494	3616.9891	3643.0575
NC1=NC=CC(F)=C1N	Nc1nccc(F)c1N	
InChI=1S/C5H6FN3/c6-3-1-2-9-5(8)4(3)7/h1-2H,7H2,(H2,8,9)	InChI=1S/C5H6FN3/c6-3-1-2-9-5(8)4(3)7/h1-2H,7H2,(H2,8,9)
