19
gdb 76331	1.89057	1.78488	1.25116	2.2349	66.58	-0.2324	0.0407	0.2731	1074.4472	0.156946	-497.279999	-497.270402	-497.269458	-497.313624	36.955	
C	-0.2304738999	 1.5220238496	-0.0711699095	-0.444337
C	-0.0456587905	 0.0129542609	-0.0029929914	 0.32233
O	-1.2834056313	-0.6712551883	-0.0956814888	-0.482503
C	 1.1081044873	-0.5425762797	-0.9236834696	 0.080111
O	 1.6131826754	 0.2629421473	-1.9478820881	-0.436484
C	 2.0151581756	-0.6913580216	 0.3333376086	 0.026892
O	 2.8818111887	 0.423437688	 0.441308809	-0.450619
C	 0.7498897097	-0.5050909631	 1.2237329427	 0.039488
O	 0.905237707	 0.4295586102	 2.277782661	-0.426101
H	 0.7112848859	 2.055048668	 0.0739604907	 0.115876
H	-0.6153572067	 1.8012586859	-1.0578684707	 0.117417
H	-0.93499755	 1.8468484441	 0.6981125327	 0.127993
H	-1.7432280826	-0.3475465775	-0.8782508077	 0.278196
H	 0.8085845896	-1.5087892807	-1.3420884158	 0.082163
H	 2.2722234909	 0.8310332925	-1.5224814036	 0.293044
H	 2.5850166775	-1.6203069636	 0.4398781309	 0.071802
H	 2.5993921438	 0.8982532527	 1.2386178261	 0.294263
H	 0.3278321718	-1.4518492118	 1.5723296523	 0.092072
H	 1.1366932878	-0.0465043927	 3.0813008914	 0.298397
78.323	208.6463	224.3333	238.1654	260.6011	266.5817	273.9974	280.2284	310.0435	378.9646	437.1753	485.72	532.2426	555.4376	590.7443	673.6387	719.7883	833.2993	843.3542	869.4672	901.2654	971.0388	1064.8684	1112.2433	1129.633	1136.0905	1150.7889	1164.828	1206.3662	1232.2783	1258.7134	1278.6454	1321.997	1350.413	1362.6307	1398.2839	1408.059	1431.9235	1441.8004	1485.4355	1496.3894	3042.6985	3043.6983	3063.0906	3075.6914	3116.1133	3137.8549	3693.4197	3726.8082	3800.6887	3826.8568
CC1(O)C(O)C(O)C1O	C[C@@]1(O)[C@@H](O)[C@@H](O)[C@H]1O	
InChI=1S/C5H10O4/c1-5(9)3(7)2(6)4(5)8/h2-4,6-9H,1H3	InChI=1S/C5H10O4/c1-5(9)3(7)2(6)4(5)8/h2-4,6-9H,1H3/t2-,3+,4-,5-
