14
gdb 129984	5.93502	0.95641	0.82447	5.3523	67.44	-0.2179	0.0052	0.2231	1295.385	0.103382	-466.235176	-466.227077	-466.226132	-466.268374	29.211	
N	-0.0756002988	 1.3864352098	 0.1453263816	-0.600535
C	-0.0396403158	 0.0128707384	 0.0405266462	 0.432664
N	-1.0921925373	-0.7869075348	 0.0442897136	-0.397421
C	-0.5141155234	-2.0271443535	 0.002498521	 0.470442
N	-1.3506820627	-3.1360062309	-0.0042736764	-0.396478
C	-1.0117658303	-4.467741076	-0.0486810251	 0.146568
O	 0.1028539362	-4.9219830285	-0.0928339949	-0.276833
N	 0.8009155232	-2.0622547073	-0.0361677679	-0.27994
N	 1.0933305028	-0.7149421168	-0.0116611992	-0.247208
H	 0.6274437397	 1.8810003946	-0.3853504436	 0.25892
H	-1.0026273027	 1.7504479689	-0.0247977583	 0.27158
H	-2.3313014783	-2.9020295836	 0.0303873009	 0.263928
H	-1.927774616	-5.0928455162	-0.0387692554	 0.076304
H	 2.0534036132	-0.4203043341	 0.0344775276	 0.278009
46.054	150.6787	186.9763	268.0169	277.5337	289.5817	378.1753	439.6054	466.4639	586.2865	603.7949	640.4758	732.9801	766.4164	779.7657	882.9852	1002.8422	1019.8316	1068.1056	1115.6412	1127.0066	1193.9442	1306.9737	1371.1343	1440.7405	1484.025	1558.2423	1612.3314	1614.7792	1667.2537	1832.2832	2926.1674	3565.0611	3631.7755	3664.7836	3680.5973
NC1=NC(NC=O)=NN1	Nc1nc(NC=O)n[nH]1	
InChI=1S/C3H5N5O/c4-2-6-3(5-1-9)8-7-2/h1H,(H4,4,5,6,7,8,9)	InChI=1S/C3H5N5O/c4-2-6-3(5-1-9)8-7-2/h1H,(H4,4,5,6,7,8,9)
