16
gdb 44812	3.05028	1.36171	1.14497	2.221	68.97	-0.2496	0.0045	0.2541	1075.7008	0.124514	-437.848297	-437.840651	-437.839707	-437.881027	28.693	
O	-0.0341674047	 0.1998259454	 1.4111429769	-0.338019
C	 0.0095129297	 1.1416268836	 0.6732680601	 0.366159
N	-0.996172207	 1.854592446	-0.0090632128	-0.34673
C	-0.0324458837	 2.8230709743	-0.5459370351	-0.053135
C	 0.7588714534	 3.4776220052	 0.542368264	-0.324255
C	 1.0999205927	 2.0471895561	 0.0984085973	 0.162817
C	 2.4330203057	 1.6620477354	-0.4275357645	-0.051155
C	 2.6329780142	 1.2466493566	-1.8225469384	-0.171189
O	 3.003449676	 2.558448544	-1.3847500077	-0.237086
H	-1.8727510884	 2.1181180834	 0.4283071757	 0.244446
H	-0.107031478	 3.1773323762	-1.5649686684	 0.126773
H	 1.4926557637	 4.2122513397	 0.2234034318	 0.144383
H	 0.3061722631	 3.658775164	 1.5128149392	 0.124164
H	 3.1378594558	 1.2962084211	 0.3197226375	 0.10951
H	 3.4625762282	 0.5886548775	-2.0747876428	 0.123415
H	 1.7770047791	 1.2035688114	-2.4932175828	 0.119901
62.7416	133.6018	167.6101	211.4643	334.336	426.3989	461.7321	575.5972	596.3458	656.0476	716.4125	771.7876	855.955	866.1704	882.6465	924.2321	936.5662	981.7273	1022.8198	1034.4558	1068.3019	1090.2158	1103.5182	1129.8926	1155.3898	1171.5893	1226.5025	1273.2989	1296.0102	1323.3045	1372.1576	1450.6008	1485.1604	1525.9512	1896.6945	3091.5258	3107.0489	3118.3559	3182.5892	3210.5476	3217.9451	3540.095
O=C1NC2CC12C1CO1	O=C1N[C@H]2C[C@@]12[C@H]1CO1	
InChI=1S/C6H7NO2/c8-5-6(4-2-9-4)1-3(6)7-5/h3-4H,1-2H2,(H,7,8)	InChI=1S/C6H7NO2/c8-5-6(4-2-9-4)1-3(6)7-5/h3-4H,1-2H2,(H,7,8)/t3-,4+,6+/m0/s1
