23
gdb 98186	2.76921	0.96224	0.9225	2.4581	82.31	-0.2372	-0.0074	0.2298	1473.8478	0.201154	-425.459173	-425.447558	-425.446614	-425.496386	41.784	
C	-0.0172380685	 1.5625552753	 0.2349991413	-0.384712
C	-0.1169017693	 0.0448343056	 0.3567150551	-0.274913
C	-1.3991248347	-0.5176674486	-0.2251380887	 0.369627
O	-2.2426421948	 0.1828730196	-0.7400744807	-0.333894
C	-1.6317122778	-2.0419031416	-0.1460762487	 0.251327
C	-1.7840877583	-2.5743269497	-1.5788588075	-0.427897
O	-0.4851963571	-2.6144773978	 0.4840835868	-0.471542
C	-2.8998546947	-2.2647471395	 0.7149438011	-0.16922
C	-3.2553683285	-3.7324464145	 0.9663627058	-0.419356
H	 0.9239471723	 1.9215049997	 0.6608818934	 0.107488
H	-0.066056884	 1.8762508825	-0.8110565488	 0.12771
H	-0.8427568927	 2.0537262855	 0.7569935758	 0.127227
H	 0.7211830508	-0.4634835662	-0.1365842706	 0.131596
H	-0.0485576178	-0.2901606737	 1.3994613369	 0.132308
H	-0.8614487252	-2.4070999777	-2.1426117795	 0.122967
H	-1.9896009194	-3.6498085827	-1.5785158185	 0.107928
H	-2.6022883094	-2.0612599006	-2.0886528009	 0.143975
H	-0.5444309997	-3.5704049575	 0.3950295215	 0.282691
H	-2.7366356698	-1.7693918565	 1.6798080569	 0.100552
H	-3.7303272805	-1.7433656709	 0.229752374	 0.12101
H	-4.1256078909	-3.8043569013	 1.6252256264	 0.123573
H	-3.5013553104	-4.2654276299	 0.0427033382	 0.121583
H	-2.4343611494	-4.2637400492	 1.4606674105	 0.10997
27.5039	84.3392	97.4895	169.5303	188.541	209.1095	215.5521	244.4297	272.4421	282.3235	321.2086	324.4117	362.4774	436.2804	505.1606	566.02	628.1027	726.8349	783.7563	798.5051	818.7936	927.6723	987.3478	1004.0466	1010.0367	1042.219	1053.7506	1087.086	1110.886	1146.5438	1182.7196	1207.6841	1266.8959	1314.1035	1334.5227	1367.6259	1389.4783	1396.476	1411.4453	1412.7668	1436.519	1477.1673	1490.8745	1491.7232	1496.9422	1499.0821	1506.7487	1511.1211	1797.4392	3033.0773	3035.2122	3039.0461	3040.9662	3049.0928	3061.0897	3084.9952	3104.7239	3105.0911	3112.08	3119.8692	3123.3808	3136.6749	3827.2238
CCC(=O)C(C)(O)CC	CCC(=O)[C@@](C)(O)CC	
InChI=1S/C7H14O2/c1-4-6(8)7(3,9)5-2/h9H,4-5H2,1-3H3	InChI=1S/C7H14O2/c1-4-6(8)7(3,9)5-2/h9H,4-5H2,1-3H3/t7-/m0/s1
