19
gdb 81332	3.0109	1.38613	1.26854	2.6042	70.29	-0.2506	0.0687	0.3193	1067.2579	0.158593	-460.132971	-460.124686	-460.123742	-460.165108	33.284	
C	-0.13510498	 1.5290765539	-0.0005469141	-0.462138
C	 0.0505408835	 0.0118081236	 0.0035755729	 0.423561
O	-1.2137527697	-0.6338813834	 0.0173966228	-0.478313
C	 1.0074570933	-0.5441877632	-1.1158454019	-0.297861
C	 2.0195086636	-1.2464596785	-0.1982472888	 0.024312
O	 1.151827341	-1.9098276855	 0.7847296261	-0.320176
C	 0.8454840658	-0.5368278888	 1.2048217889	-0.012643
C	 2.3329073862	-0.196059302	 0.899204306	 0.186179
O	 3.2398614695	-0.6121145693	 1.8784169218	-0.454937
H	 0.8153437035	 2.0686307751	 0.0275795698	 0.121625
H	-0.6604263325	 1.84297485	-0.9106284667	 0.111891
H	-0.7382858682	 1.8381167812	 0.8585264856	 0.129341
H	-1.7093503553	-0.3321683865	-0.7514028934	 0.274534
H	 0.4818488017	-1.2566935038	-1.7549056401	 0.112972
H	 1.4587585019	 0.2372966175	-1.7343715755	 0.099139
H	 2.7834093503	-1.8963042964	-0.6264291424	 0.083433
H	 0.4021284332	-0.4583326158	 2.1974270321	 0.087166
H	 2.6122808174	 0.8178431034	 0.605037208	 0.083359
H	 2.9729980149	-1.5090335114	 2.1215991687	 0.288555
165.3019	200.3925	230.8833	236.5912	292.5454	298.0862	365.5988	426.3824	460.5402	485.0348	522.7077	591.2588	624.7826	791.1594	838.3732	861.8189	900.4437	927.543	929.3519	946.2675	954.3118	962.8155	1042.809	1064.4397	1101.3805	1131.2498	1167.8606	1197.7754	1208.0886	1214.8038	1240.6483	1253.8892	1289.4493	1315.1143	1329.7601	1382.9571	1409.6933	1449.7665	1475.6539	1493.3159	1495.7495	3029.9188	3060.2512	3089.8753	3096.6858	3117.2858	3120.925	3122.9688	3131.1994	3762.5769	3805.8073
CC1(O)CC2OC1C2O	C[C@@]1(O)C[C@@H]2O[C@H]1[C@H]2O	
InChI=1S/C6H10O3/c1-6(8)2-3-4(7)5(6)9-3/h3-5,7-8H,2H2,1H3	InChI=1S/C6H10O3/c1-6(8)2-3-4(7)5(6)9-3/h3-5,7-8H,2H2,1H3/t3-,4-,5-,6+/m0/s1
