21
gdb 63371	2.25539	1.35289	1.33494	1.0508	79.32	-0.2417	-0.0237	0.218	1168.6737	0.177723	-424.252245	-424.241575	-424.240631	-424.287295	38.821	
C	-0.124804922	 1.3658497922	-1.3497050936	-0.429523
C	 0.2201600818	-0.038717977	-0.8641731342	 0.296422
C	-0.7864633131	-1.082164502	-1.3390527734	-0.429491
O	 1.5910396939	-0.4108367726	-1.2002867333	-0.380716
C	 2.0304899102	-0.5236099429	 0.1871303189	 0.296421
C	 2.4476011222	-1.9482815483	 0.539091984	-0.429516
C	 3.1093661681	 0.4997041867	 0.5283621172	-0.429497
C	 0.6062999696	-0.1366175257	 0.6219005739	 0.264774
O	 0.0431927281	 0.0202297762	 1.6639035063	-0.301899
H	 0.6109332681	 2.0975286223	-1.0068778896	 0.124815
H	-0.143242384	 1.3859368464	-2.4441471276	 0.12921
H	-1.1101288929	 1.6644621121	-0.9792987455	 0.131738
H	-0.813255582	-1.1004047554	-2.4333530232	 0.129248
H	-0.519897553	-2.0817972691	-0.9870862312	 0.124797
H	-1.7876467585	-0.8397005086	-0.9701801501	 0.131705
H	 3.3548408732	-2.2160221186	-0.0120683698	 0.12922
H	 2.6541966455	-2.0298918749	 1.6104875538	 0.131729
H	 1.6662085493	-2.6672537426	 0.2808260045	 0.124811
H	 2.7956820252	 1.5124524371	 0.2635127571	 0.124801
H	 3.3321326061	 0.4741217539	 1.599318375	 0.131713
H	 4.0263253542	 0.2699447809	-0.0238518592	 0.129239
76.8856	153.67	158.9407	165.8615	175.0208	196.4725	199.5152	258.7117	298.4659	306.3959	322.4357	371.8972	463.5134	560.1134	600.0076	700.527	735.2917	792.4053	854.9213	930.0734	938.7037	940.6509	986.9401	987.9438	1012.4408	1017.6019	1135.3163	1158.8989	1212.2767	1235.1426	1265.5637	1293.8556	1387.5061	1394.5279	1406.8798	1410.7395	1467.5847	1473.9153	1474.7197	1481.4702	1488.5321	1497.6	1498.763	1505.1124	1909.9364	3037.5638	3038.4475	3041.198	3042.8817	3110.2416	3110.7943	3115.0575	3116.307	3120.1601	3123.4627	3124.4732	3126.9521
CC1(C)OC(C)(C)C1=O	CC1(C)OC(C)(C)C1=O	
InChI=1S/C7H12O2/c1-6(2)5(8)7(3,4)9-6/h1-4H3	InChI=1S/C7H12O2/c1-6(2)5(8)7(3,4)9-6/h1-4H3
