17
gdb 51411	4.94717	1.05699	1.03886	4.2778	76.4	-0.234	-0.0106	0.2234	1178.8537	0.137703	-417.942542	-417.935028	-417.934084	-417.975453	28.646	
N	-0.0165279152	 1.1203927311	-0.0583928114	-0.426114
C	-0.6569178902	 0.04910106	 0.137212475	 0.081556
O	-0.1471392427	-1.0967644266	-0.389905733	-0.238458
C	-0.753005202	-2.3516300021	-0.2488076705	 0.207402
C	-1.267446243	-2.8885521873	 1.1573420691	-0.105525
N	-2.5175012581	-2.1032294473	 0.8840008046	-0.305028
C	-2.3033011665	-2.5774176374	-0.5243542069	-0.105495
C	-2.3280753149	-4.1031027072	-0.400171528	-0.090326
C	-1.6332269207	-4.3118570069	 0.7281069673	-0.090333
H	-0.510590775	 1.8908187034	 0.3892846272	 0.22581
H	-1.5890392406	-0.0926354293	 0.685479449	 0.137932
H	-0.0913024154	-3.0310566232	-0.782121317	 0.106245
H	-0.7357435058	-2.7127751483	 2.0918313889	 0.083362
H	-3.3377723508	-2.5392749265	 1.3085727765	 0.207459
H	-2.8429997262	-2.0797749856	-1.3293000257	 0.083371
H	-2.7311111959	-4.8071094883	-1.1139053079	 0.11407
H	-1.3114972371	-5.2335692384	 1.1911463528	 0.114071
42.9699	91.4407	199.9288	311.3975	331.7236	407.252	541.3998	561.4618	704.9884	717.6981	735.9533	840.1278	840.6292	860.0926	896.8709	914.124	933.3952	933.5286	967.5791	988.7871	1021.4617	1083.911	1096.9348	1110.7012	1146.0337	1181.7466	1197.4683	1235.7548	1239.0217	1277.4044	1289.3885	1306.1993	1334.0066	1394.7876	1439.8013	1597.653	1725.4054	3125.2027	3129.5279	3130.8289	3143.7154	3226.1657	3251.8721	3434.0913	3504.1
N=COC1C2NC1C=C2	[NH][CH]O[C@H]1[C@H]2N[C@@H]1C=C2	
InChI=1S/C6H8N2O/c7-3-9-6-4-1-2-5(6)8-4/h1-8H	InChI=1S/C6H8N2O/c7-3-9-6-4-1-2-5(6)8-4/h1-8H/t4-,5+,6-
