19
gdb 39062	2.54141	1.91466	1.28934	2.0711	80.	-0.2391	0.0157	0.2548	1011.0952	0.161417	-385.866061	-385.858806	-385.857861	-385.897741	29.186	
C	-0.0416810469	 1.4656321156	 0.1677576484	-0.372743
C	 1.2969875142	 0.7729569441	-0.0098193816	-0.080963
C	 2.2588509461	 0.5434368815	 1.1521563257	-0.288612
C	 2.0031555897	-0.7209117816	 1.9385092031	-0.047386
C	 0.9129243554	-1.4819258667	 1.8455610215	-0.08133
C	-0.2430760648	-1.1122028076	 0.9774936752	 0.046056
O	-0.5339637939	-2.0439353458	-0.1105803068	-0.305856
C	-0.4937371488	-0.9784174103	-1.0884103035	-0.152859
C	 0.0183699278	-0.0098497321	-0.0333584515	 0.280165
H	-0.3084268362	 1.8301608635	 1.1567028315	 0.112893
H	-0.3974474998	 2.0885048687	-0.6470319456	 0.113458
H	 1.773884401	 0.9379494643	-0.9718039402	 0.089034
H	 3.2839821984	 0.4982978863	 0.763958306	 0.114533
H	 2.2570946186	 1.4034293066	 1.8379716815	 0.114952
H	 2.7921309377	-1.0065312962	 2.6312722239	 0.090951
H	 0.8155993542	-2.3848100382	 2.4427384233	 0.094388
H	-1.1507031406	-0.9678990873	 1.5847191998	 0.074325
H	 0.1808894141	-1.2064547273	-1.9229429871	 0.10219
H	-1.4943344263	-0.7529530174	-1.4841539536	 0.096805
84.5199	181.548	244.1838	324.9651	378.1924	448.6772	487.2925	512.8839	580.3095	715.7647	765.2114	802.2289	854.1369	874.6085	901.4368	927.4016	941.0487	980.8346	996.9922	1005.6405	1022.858	1051.2784	1066.2225	1092.5707	1110.9857	1134.6752	1152.0474	1196.3977	1226.405	1240.5528	1278.1555	1308.3231	1339.0347	1357.4002	1386.8347	1413.8376	1438.7342	1471.5458	1502.7057	1521.8063	1716.4826	2970.5628	2995.5484	3000.152	3039.592	3044.2129	3112.5335	3142.2696	3143.7401	3169.8318	3198.6228
C1C2CC=CC3OCC123	C1[C@H]2CC=C[C@@H]3OC[C@]123	
InChI=1S/C8H10O/c1-2-6-4-8(6)5-9-7(8)3-1/h1,3,6-7H,2,4-5H2	InChI=1S/C8H10O/c1-2-6-4-8(6)5-9-7(8)3-1/h1,3,6-7H,2,4-5H2/t6-,7+,8-/m1/s1
