20
gdb 32846	6.23228	0.76544	0.69806	1.4302	85.62	-0.1752	0.0457	0.2209	1674.3742	0.170577	-403.18079	-403.171139	-403.170195	-403.216122	34.947	
C	 0.1274732147	 1.4368874248	 0.0491381658	-0.394256
C	-0.0673914334	-0.0468824304	-0.2421675725	-0.121015
N	-1.3874228763	-0.4861787372	 0.217721302	-0.401848
C	-1.7175611795	-1.826560748	 0.1324447354	 0.456967
C	-2.8870731255	-2.4853435941	-0.1153844065	-0.417502
C	-2.5996280397	-3.8890471283	 0.048393659	 0.284039
C	-3.557382062	-5.02739543	-0.1141736297	-0.499565
C	-1.2845346542	-3.9640596178	 0.3672385661	-0.131932
O	-0.7285208377	-2.7041937433	 0.4259717225	-0.186351
H	 1.120426037	 1.7627572663	-0.2732163566	 0.121511
H	-0.6100158809	 2.0471743603	-0.4855119292	 0.112625
H	 0.0225989831	 1.6390647349	 1.1188291085	 0.130859
H	 0.0790899491	-0.2448165567	-1.3168689385	 0.094597
H	 0.6809256466	-0.6372402719	 0.2923254803	 0.133177
H	-2.1360495328	 0.0959149367	-0.1334306096	 0.235415
H	-3.8325047579	-2.0397995636	-0.3831872601	 0.087855
H	-3.9878592719	-5.0490094084	-1.1221887792	 0.125302
H	-3.0637762077	-5.9879485504	 0.0582728408	 0.121337
H	-4.3946235378	-4.9508388812	 0.589320854	 0.126495
H	-0.6083362732	-4.7785926819	 0.5635431677	 0.122288
47.5658	58.1969	120.698	141.3703	210.3406	253.5343	282.9846	335.8716	359.3093	449.981	584.8663	620.4391	651.3251	665.7245	705.1193	740.1281	780.7589	816.4403	912.6961	976.3395	987.1796	1016.762	1063.695	1068.4084	1129.1865	1134.6238	1162.2951	1198.9365	1250.3019	1293.2047	1334.6512	1369.2258	1408.4918	1416.3626	1424.0132	1475.5739	1481.6651	1493.8087	1498.7564	1502.466	1523.6989	1624.7059	1663.8392	2965.9161	3025.6306	3033.6715	3074.5224	3087.9449	3107.7529	3108.614	3122.9104	3248.0229	3283.2051	3580.8464
CCNC1=CC(C)=CO1	CCNc1cc(C)co1	
InChI=1S/C7H11NO/c1-3-8-7-4-6(2)5-9-7/h4-5,8H,3H2,1-2H3	InChI=1S/C7H11NO/c1-3-8-7-4-6(2)5-9-7/h4-5,8H,3H2,1-2H3
