21
gdb 33189	5.44614	0.68011	0.65255	1.5574	86.96	-0.1847	0.0542	0.2389	1799.134	0.184059	-383.301999	-383.292516	-383.291572	-383.337621	34.821	
C	-0.6071964191	 1.2864670538	-0.0458635234	-0.380355
C	 0.2101349866	-0.0001834575	 0.0945202705	-0.18061
C	 0.5923025741	-0.6059733416	-1.2545492363	-0.122268
N	 1.3576804342	-1.8513072492	-1.0747903395	-0.40812
C	 1.7171370235	-2.5253171719	-2.2583126439	 0.297798
C	 2.8401134749	-2.4949636907	-3.0586501686	-0.216616
C	 2.6378331972	-3.4293697739	-4.1151770919	-0.134942
C	 1.3969714214	-3.9927721782	-3.9377402946	-0.09833
N	 0.8476911858	-3.4392703552	-2.806336134	-0.252817
H	-0.0531228586	 2.0515215136	-0.6005146568	 0.117351
H	-1.5448339519	 1.1037973205	-0.5823475436	 0.116068
H	-0.8607504126	 1.7034953832	 0.933248923	 0.115017
H	 1.1252099509	 0.2078821714	 0.6665219668	 0.091829
H	-0.3478362108	-0.7472342695	 0.6707495733	 0.105191
H	-0.3139036923	-0.8508615022	-1.8212359627	 0.101885
H	 1.1449437682	 0.135091067	-1.857336599	 0.088634
H	 2.1868305019	-1.6636629858	-0.5227086486	 0.226681
H	 3.7035122074	-1.8652764576	-2.9046253575	 0.079442
H	 3.3228307975	-3.6527559169	-4.9188067405	 0.087897
H	 0.8618125674	-4.7312096048	-4.512293122	 0.109818
H	-0.0195189256	-3.7056694544	-2.3733760407	 0.256446
40.7817	59.4023	89.3144	126.8152	236.8687	242.7474	329.9471	382.4194	412.2652	500.6114	632.6608	668.9577	701.2159	714.5526	756.4714	772.3004	790.0192	842.9354	892.6981	895.1279	920.4289	983.0241	1039.1773	1051.6498	1074.52	1111.066	1138.967	1144.5894	1163.4595	1253.1515	1275.2822	1296.2971	1314.2845	1327.6566	1399.9999	1410.8555	1423.9632	1435.9869	1489.3696	1492.1717	1499.9887	1505.1563	1520.029	1521.1986	1616.2675	2955.3004	3012.8466	3032.2481	3047.5627	3065.12	3099.2399	3106.4628	3236.8619	3250.3331	3271.5275	3538.0961	3680.2264
CCCNC1=CC=CN1	CCCNc1ccc[nH]1	
InChI=1S/C7H12N2/c1-2-5-8-7-4-3-6-9-7/h3-4,6,8-9H,2,5H2,1H3	InChI=1S/C7H12N2/c1-2-5-8-7-4-3-6-9-7/h3-4,6,8-9H,2,5H2,1H3
