18
gdb 111449	2.96035	1.50116	1.20067	3.1337	69.79	-0.2399	0.0635	0.3033	1050.4436	0.149011	-439.028771	-439.021074	-439.02013	-439.061185	29.955	
O	 0.1055484668	 1.3600714364	 0.1334266638	-0.428403
C	 0.0205607791	-0.0499212283	-0.0263119237	-0.078253
C	-1.431535921	-0.5470267904	-0.0598183058	-0.039668
C	-1.5545817749	-2.0746780495	-0.1584167628	-0.074954
N	-0.9077405011	-2.8212168909	 0.939923842	-0.313704
C	-2.3644089644	-2.5820521061	 0.9834048426	-0.081324
C	-2.7682551842	-1.387147192	 1.8257066768	 0.050016
O	-1.6829833433	-0.6757580111	 2.4236253518	-0.24337
C	-2.2264123469	-0.1717385675	 1.195198774	-0.00051
H	-0.0282987182	 1.5518038063	 1.0666023684	 0.291263
H	 0.5113057527	-0.2806224234	-0.9780758599	 0.102004
H	 0.555210739	-0.5833858825	 0.7672209992	 0.128875
H	-1.9394531973	-0.0960616111	-0.9213677723	 0.081257
H	-1.5972205536	-2.5340924243	-1.1412974013	 0.090392
H	-0.741531491	-3.7780264168	 0.6354248751	 0.232563
H	-3.050031305	-3.4170345758	 0.8906686881	 0.089157
H	-3.6911346083	-1.4110550939	 2.3986891209	 0.096083
H	-2.7012387284	 0.8042141109	 1.2663852731	 0.098576
74.8478	152.8795	172.4683	312.0006	314.9291	325.9439	453.0962	555.2978	575.5461	701.3664	710.7954	788.0162	827.8843	858.791	870.8674	886.9128	910.5634	936.1174	987.8901	1006.4882	1047.8772	1068.8857	1076.2936	1090.8671	1117.5484	1146.3483	1163.799	1206.9551	1225.9171	1259.8671	1295.07	1310.5313	1339.7583	1376.7934	1395.296	1407.4317	1423.6674	1427.3986	1504.6305	3036.8386	3039.5702	3088.0901	3135.3147	3152.0733	3152.8117	3177.3246	3491.9666	3826.7239
OCC1C2NC2C2OC12	OC[C@H]1[C@H]2N[C@H]2[C@H]2O[C@@H]12	
InChI=1S/C6H9NO2/c8-1-2-3-4(7-3)6-5(2)9-6/h2-8H,1H2	InChI=1S/C6H9NO2/c8-1-2-3-4(7-3)6-5(2)9-6/h2-8H,1H2/t2-,3+,4+,5-,6+/m0/s1
