15
gdb 49634	3.41333	1.63232	1.44254	2.3726	63.33	-0.2561	-0.0276	0.2284	899.3221	0.112627	-457.705017	-457.698374	-457.69743	-457.7367	25.467	
O	-0.6085437139	 0.9052121963	 0.6786038521	-0.24626
C	 0.0948631744	 1.1696528159	-0.2624975202	 0.150209
C	 1.3318062296	 2.0271110565	-0.172612218	-0.091825
C	 1.2310801195	 3.3405928222	-0.9866719171	-0.000913
O	 0.0191666828	 3.9266709829	-0.4340438602	-0.28047
C	 0.7907708437	 4.1466908909	 0.7477874475	 0.061429
C	 2.1131783083	 4.2628942382	-0.012842501	 0.061466
O	 2.827089352	 3.4350470471	 0.8979509964	-0.289953
C	 1.5419341569	 2.7893210636	 1.1489690368	 0.024228
H	-0.124832234	 0.7666078324	-1.2768802974	 0.081767
H	 2.221039581	 1.4396538828	-0.4284674414	 0.113298
H	 1.2735612758	 3.3390406275	-2.0736206593	 0.095906
H	 0.3605499071	 4.8092834567	 1.4945162499	 0.108424
H	 2.6257794174	 5.1507253274	-0.3770424648	 0.105099
H	 1.4619698594	 2.2800791497	 2.1042575066	 0.107595
62.6592	149.1312	196.1512	401.4896	508.1891	559.5493	659.536	734.6478	744.0236	772.068	817.9641	847.1024	876.426	906.4229	944.9004	953.2337	984.1492	1000.5987	1021.1381	1046.692	1094.0705	1125.7012	1150.9786	1160.675	1191.4006	1216.8361	1228.2223	1271.2429	1304.3244	1324.2646	1349.6173	1423.9499	1825.6058	2877.3702	3060.1841	3146.0857	3153.6635	3163.9294	3183.4019
O=CC1C2OC3C2OC13	O=C[C@H]1[C@H]2O[C@@H]3[C@H]2O[C@H]13	
InChI=1S/C6H6O3/c7-1-2-3-5-6(8-3)4(2)9-5/h1-6H	InChI=1S/C6H6O3/c7-1-2-3-5-6(8-3)4(2)9-5/h1-6H/t3-,4-,5+,6+/m1/s1
