21
gdb 92578	2.61884	1.60499	1.33214	1.1033	83.67	-0.2378	0.019	0.2568	1069.4555	0.184169	-387.087898	-387.079891	-387.078947	-387.120172	31.974	
C	-0.3619364748	 1.4968012414	-0.1372895652	-0.393828
C	-0.0738802936	 0.0021941619	-0.0560731437	-0.001496
C	 1.1621155774	-0.4673013047	-0.8861032366	-0.249948
C	 1.9954741376	-0.5575877077	 0.4090667627	 0.107373
O	 2.775854398	 0.6179486914	 0.5488741966	-0.263984
C	 3.1102544516	 0.9189853736	 1.8924863958	-0.12274
C	 1.9090841338	 0.9546923829	 2.8016305372	-0.07659
C	 0.7736786379	 0.3387011345	 2.4769392192	-0.079079
C	 0.6859290017	-0.4902342994	 1.2373322095	-0.055135
H	 0.5416987788	 2.080910215	 0.054605908	 0.13173
H	-0.731594668	 1.7603364873	-1.1347586463	 0.107533
H	-1.1220010406	 1.7985561896	 0.5916057871	 0.106616
H	-0.989512529	-0.5614369602	-0.2576148626	 0.063741
H	 1.0167181362	-1.4447306335	-1.3532651018	 0.09624
H	 1.5513310055	 0.2322507972	-1.6295344719	 0.107122
H	 2.624465933	-1.4484528802	 0.5531079737	 0.056175
H	 3.8620392742	 0.2047544432	 2.2762073751	 0.097056
H	 3.5959773143	 1.9009136599	 1.8647761496	 0.114399
H	 2.0096638901	 1.5128482115	 3.7285375872	 0.091123
H	-0.0984252708	 0.402551974	 3.1234045254	 0.087488
H	 0.3457483067	-1.5017645778	 1.488470891	 0.076204
91.2379	167.1255	216.9991	241.4776	322.5315	364.1601	375.131	477.7428	501.7187	533.8998	697.4894	750.8367	786.0534	807.0483	851.0273	878.9185	912.2342	926.1306	968.7084	983.4482	1001.3314	1026.0116	1056.0456	1085.8716	1095.7096	1111.3569	1142.5745	1170.2179	1210.4706	1223.3996	1258.1254	1269.9916	1277.9878	1298.2667	1334.8339	1359.4659	1364.8977	1402.1216	1408.9952	1414.0386	1468.9383	1487.3632	1492.6553	1501.9841	1714.1391	2936.0904	2985.2342	3029.6644	3032.0631	3053.1928	3057.506	3066.0245	3090.2531	3118.7238	3123.0784	3145.6562	3172.6051
CC1CC2OCC=CC12	C[C@H]1C[C@H]2OCC=C[C@@H]12	
InChI=1S/C8H12O/c1-6-5-8-7(6)3-2-4-9-8/h2-3,6-8H,4-5H2,1H3	InChI=1S/C8H12O/c1-6-5-8-7(6)3-2-4-9-8/h2-3,6-8H,4-5H2,1H3/t6-,7-,8+/m0/s1
