17
gdb 36004	2.45878	1.21432	0.89813	4.9237	79.1	-0.254	0.016	0.2701	1282.3114	0.134303	-380.81264	-380.803437	-380.802493	-380.847233	33.202	
C	-0.2924831505	-1.2131420144	 0.4747837343	-0.447969
C	-0.1781903336	-0.0287035889	 0.3005697209	 0.310574
C	-0.050631467	 1.4140131566	 0.0547117909	-0.143235
C	 1.4373396482	 1.7669206437	-0.203719724	-0.338242
C	 1.6688112024	 3.207612545	-0.2722068612	 0.272902
N	 1.876988751	 4.3433657957	-0.3031949116	-0.306631
N	-0.85241637	 1.9542116232	-1.0458605156	-0.065923
C	-1.1190381722	 1.1240783959	-2.2184597663	-0.229948
C	-2.2053955827	 1.4550011143	-1.2535687143	-0.22555
H	-0.3935079693	-2.256800372	 0.6476128196	 0.208544
H	-0.3717962231	 1.9470344982	 0.9579872643	 0.136908
H	 2.0571476342	 1.3440173809	 0.5927431182	 0.161789
H	 1.7562766491	 1.3044006563	-1.143387529	 0.16142
H	-1.0477436219	 1.639600297	-3.1711759085	 0.126623
H	-0.7637683811	 0.0962051398	-2.2147747105	 0.125786
H	-2.5548778157	 0.6424918441	-0.6205065774	 0.126105
H	-2.9458053277	 2.2138148746	-1.4880610897	 0.126849
60.5314	89.5296	120.2636	143.7822	213.9745	257.4797	339.643	390.7014	407.0706	493.4586	570.1941	583.1021	646.3708	675.6231	725.6723	819.8758	887.4794	936.3026	945.8179	974.8682	1029.9351	1056.0957	1068.3397	1118.4407	1129.2027	1173.6615	1185.7643	1230.7632	1288.1248	1320.4928	1345.831	1360.9372	1459.4095	1483.6489	1511.7425	2224.7018	2367.8654	3036.7376	3060.7599	3103.9334	3108.0227	3110.3858	3192.1575	3205.3961	3498.0872
C#CC(CC#N)N1CC1	C#C[C@@H](CC#N)N1CC1	
InChI=1S/C7H8N2/c1-2-7(3-4-8)9-5-6-9/h1,7H,3,5-6H2	InChI=1S/C7H8N2/c1-2-7(3-4-8)9-5-6-9/h1,7H,3,5-6H2/t7-/m0/s1
