22
gdb 100537	2.72745	1.06159	0.86619	4.2673	80.14	-0.2448	0.0224	0.2673	1436.4496	0.192033	-441.519903	-441.508929	-441.507985	-441.556383	39.154	
C	-0.0922972414	 1.6254928936	 0.1688080439	-0.378504
C	-0.1072805239	 0.0989756032	 0.0602733386	-0.15544
N	-1.462745141	-0.4569030512	-0.0102090152	-0.082728
C	-2.0412872037	-0.579281254	-1.3365017874	-0.345959
C	-2.0868721012	-0.7715154502	 1.1539552161	 0.39501
O	-1.5606183508	-0.5682168455	 2.2460080088	-0.418094
C	-3.4771394748	-1.4427016942	 1.1432949497	 0.037203
C	-3.373057133	-2.9142840224	 0.70741264	-0.393901
O	-4.0053005831	-1.3539775729	 2.4413360856	-0.439661
H	 0.9383183446	 1.9936674018	 0.1789820236	 0.120161
H	-0.6083351886	 2.0962149741	-0.6744528897	 0.114862
H	-0.5797005706	 1.940382579	 1.0946809593	 0.147122
H	 0.4302940666	-0.2311995708	-0.8357177411	 0.10154
H	 0.3815437214	-0.3392378784	 0.9317046634	 0.14247
H	-3.1082623877	-0.7870536336	-1.2858287346	 0.14991
H	-1.9105210217	 0.3577546487	-1.8894638529	 0.133161
H	-1.5585783116	-1.3810929965	-1.9103176459	 0.131759
H	-4.1521118642	-0.9059306035	 0.4624978709	 0.082792
H	-3.0517698284	-3.0245852485	-0.3328248971	 0.107238
H	-2.6618332507	-3.4413788494	 1.3504435516	 0.128739
H	-4.351895629	-3.3868700279	 0.8213846261	 0.131672
H	-3.2430356472	-1.0988210113	 2.9908872462	 0.290647
52.9399	78.8125	88.0768	132.9611	180.7538	210.1991	230.4585	238.8598	281.1731	366.453	392.233	422.1064	430.9485	501.2583	532.4366	613.8405	725.0501	772.3614	786.0203	878.1798	922.4106	1012.8065	1045.8892	1088.2038	1097.0943	1104.4049	1143.8583	1154.0609	1190.0994	1258.2093	1272.9372	1331.3068	1359.9718	1390.7336	1397.5926	1408.0714	1427.8871	1464.4148	1470.1921	1484.1922	1486.0695	1493.	1495.61	1502.4197	1505.0494	1535.5709	1722.8221	3002.8536	3016.5029	3040.6392	3041.3566	3044.1604	3069.2618	3102.7607	3115.6526	3122.762	3125.6928	3134.6528	3165.5337	3630.7435
CCN(C)C(=O)C(C)O	CCN(C)C(=O)[C@@H](C)O	
InChI=1S/C6H13NO2/c1-4-7(3)6(9)5(2)8/h5,8H,4H2,1-3H3	InChI=1S/C6H13NO2/c1-4-7(3)6(9)5(2)8/h5,8H,4H2,1-3H3/t5-/m1/s1
