20
gdb 17542	4.15105	1.73652	1.62853	0.2016	77.64	-0.2555	0.094	0.3496	895.2315	0.179515	-311.860095	-311.853218	-311.852274	-311.890731	28.584	
C	-0.6261618251	 1.0974916804	 0.0135007156	-0.298666
C	 0.8807115269	 1.1926220929	-0.0003074929	-0.340365
C	 0.2185467543	-0.1556643523	-0.0010005496	 0.37705
C	 0.2578888545	-1.0744108656	 1.2243332126	-0.291403
C	-0.3984868802	-2.3643463578	 0.7516041923	-0.022201
C	-1.7062828765	-2.2489665166	 0.0064348844	-0.28911
C	-0.4128750789	-2.3565010418	-0.764572813	-0.022201
C	 0.2345364638	-1.0616784659	-1.2363013907	-0.291403
H	-1.1449766539	 1.3568163424	 0.9312402365	 0.107176
H	-1.1622742906	 1.3662490228	-0.8914948085	 0.107176
H	 1.363120063	 1.526197705	-0.9137294318	 0.107461
H	 1.3804012088	 1.5167743097	 0.9071978249	 0.107461
H	 1.2964093722	-1.2823247017	 1.5150898063	 0.095649
H	-0.2365224105	-0.6246265221	 2.0933002732	 0.093319
H	-0.2006781553	-3.2764680253	 1.3038260603	 0.076199
H	-2.3527253132	-3.1200384364	 0.0080611228	 0.103515
H	-2.2370110104	-1.3026407722	 0.0163684601	 0.115176
H	-0.2256715579	-3.2628408155	-1.3298570572	 0.076199
H	-0.27623367	-0.6029753716	-2.0910281	 0.093319
H	 1.267331339	-1.2664700986	-1.5488511453	 0.095649
118.2386	246.9232	285.7173	364.4433	372.1557	394.5449	521.5836	620.2451	768.3352	768.3569	787.4046	825.5589	860.1657	879.0189	883.6921	931.6692	935.3998	957.506	984.6211	1035.1423	1051.33	1061.1517	1062.8692	1081.2232	1083.7648	1107.5768	1119.417	1185.2966	1190.773	1201.1862	1215.127	1272.6892	1295.1044	1307.1782	1351.4813	1372.3735	1400.0544	1466.6586	1481.8054	1487.4021	1500.1571	1505.2583	3011.1118	3015.0149	3053.3508	3054.6938	3117.8375	3123.1359	3129.7599	3161.8351	3170.8796	3195.512	3210.7073	3213.7443
C1CC11CC2CC2C1	C1CC21C[C@H]1C[C@H]1C2	
InChI=1S/C8H12/c1-2-8(1)4-6-3-7(6)5-8/h6-7H,1-5H2	InChI=1S/C8H12/c1-2-8(1)4-6-3-7(6)5-8/h6-7H,1-5H2/t6-,7+
