17
gdb 42900	2.74237	1.57087	1.23904	2.8292	72.56	-0.2395	-0.0299	0.2096	1037.6874	0.135366	-421.784003	-421.776312	-421.775367	-421.816516	29.155	
O	-0.4532491339	 0.0763118383	-0.1996547121	-0.31047
C	-0.2586366338	 1.2445777107	-0.0375348386	 0.36344
C	-1.1339869757	 2.4969713022	-0.0509993995	-0.119026
O	-0.7273139143	 3.240957827	 1.1210512736	-0.23568
C	 0.101497188	 3.3239603253	-0.0314709101	-0.059557
C	 1.0333648641	 2.104519147	 0.0273810994	 0.223096
C	 2.1385676628	 1.999302569	 1.1043276231	-0.283268
C	 3.2080121952	 2.1959578609	-0.0055709551	-0.2107
C	 2.1169080766	 1.8934247071	-1.0694890947	-0.29399
H	-2.1241727837	 2.6872033337	-0.447464167	 0.124373
H	 0.2605987646	 4.295503483	-0.4846469215	 0.121288
H	 2.0933160004	 2.7292979068	 1.9150590063	 0.114802
H	 2.1682632591	 0.9952614683	 1.5368358398	 0.121247
H	 3.5617382394	 3.2288544957	-0.0603395521	 0.106113
H	 4.0761927671	 1.5341142792	 0.0139839768	 0.106872
H	 2.1305412202	 0.852065818	-1.4021349941	 0.126558
H	 2.0637534941	 2.5422075477	-1.9477922741	 0.104902
93.3699	114.6576	171.2871	231.8753	256.1174	372.2553	517.6355	597.6957	647.5756	699.6205	744.7039	800.1619	829.7384	846.9605	871.4973	874.2623	938.6983	943.7152	954.8413	1006.2974	1049.0432	1056.0823	1079.2161	1159.5689	1171.0099	1208.2632	1213.3689	1238.5416	1257.1454	1274.5413	1284.6779	1309.2922	1336.9139	1471.365	1482.0436	1501.884	1891.9014	3057.0213	3062.7213	3066.2708	3103.8581	3115.8884	3127.3883	3186.837	3200.9534
O=C1C2OC2C11CCC1	O=C1[C@H]2O[C@H]2C21CCC2	
InChI=1S/C7H8O2/c8-5-4-6(9-4)7(5)2-1-3-7/h4,6H,1-3H2	InChI=1S/C7H8O2/c8-5-4-6(9-4)7(5)2-1-3-7/h4,6H,1-3H2/t4-,6-/m1/s1
