19
gdb 30352	2.98502	1.62972	1.08914	1.2348	83.58	-0.1665	0.051	0.2175	1107.8628	0.162343	-382.097407	-382.089479	-382.088535	-382.129468	31.101	
C	-0.144347821	 1.4804242682	-0.0326588993	-0.328344
N	 0.0893466428	 0.053226458	 0.007535658	-0.169897
C	 0.7591685917	-0.5260773639	-1.1766162894	-0.155073
C	 1.3157918336	-1.9028113772	-0.7117981743	-0.371345
C	 1.5035173098	-1.6451519641	 0.7576524318	 0.227495
C	 2.0843050369	-2.1338005305	 1.8999462326	-0.233738
N	 1.7179324963	-1.2944083339	 2.9270790807	-0.248227
C	 0.9113643962	-0.2622727842	 2.457965371	-0.248738
C	 0.7676777117	-0.4866790649	 1.1114478271	 0.313975
H	 0.7894797044	 2.0708357	-0.07562612	 0.096463
H	-0.7488380337	 1.7317134497	-0.9100671498	 0.116914
H	-0.7030744605	 1.7891982437	 0.856135154	 0.12287
H	 0.0589975397	-0.6036697682	-2.0143825032	 0.098313
H	 1.5972906149	 0.1202847607	-1.4936469889	 0.084342
H	 0.5792054472	-2.6964564666	-0.8931891388	 0.110645
H	 2.2252221455	-2.1716615413	-1.2565954887	 0.106622
H	 2.7186021734	-2.9862799467	 2.0832786968	 0.115061
H	 2.0475232286	-1.3713471073	 3.8720230461	 0.254666
H	 0.5404724025	 0.5000048887	 3.1216760944	 0.107995
136.3965	164.1374	228.4751	235.9915	266.1435	334.6375	395.2243	497.6573	584.0691	606.9619	624.8013	630.8613	701.9949	732.2526	734.3266	837.6736	932.013	949.7624	997.8083	1052.147	1064.259	1074.1215	1143.7518	1154.146	1175.0418	1203.4453	1220.0628	1259.7653	1266.5163	1308.4627	1337.8557	1382.6979	1438.1645	1454.8795	1468.4255	1488.0678	1492.2276	1499.2698	1512.7127	1580.3456	1659.1148	2934.2329	2940.6001	3016.3271	3061.8275	3068.9481	3081.045	3103.4467	3257.6343	3272.3755	3697.2492
CN1CCC2=CNC=C12	CN1CCc2c[nH]cc12	
InChI=1S/C7H10N2/c1-9-3-2-6-4-8-5-7(6)9/h4-5,8H,2-3H2,1H3	InChI=1S/C7H10N2/c1-9-3-2-6-4-8-5-7(6)9/h4-5,8H,2-3H2,1H3
