23
gdb 59168	2.48105	1.26182	1.0656	1.453	85.66	-0.2303	0.0829	0.3133	1287.7988	0.204164	-388.256499	-388.246731	-388.245787	-388.290875	37.116	
C	-0.1023377958	 1.594004398	-0.2124904273	-0.391148
C	 0.0735633543	 0.0939779244	 0.0712601488	 0.00011
C	 0.7735122278	-0.1372327796	 1.4173664129	-0.385183
C	-1.2776107818	-0.599438396	 0.0211181422	 0.003887
C	-1.9202809207	-1.1292973942	-1.2168335313	 0.060375
O	-0.9605069045	-1.723823533	-2.09933074	-0.305582
C	-0.7382880133	-2.8059850095	-1.1443932384	 0.159227
C	 0.7133322222	-3.190233691	-0.9373764075	-0.4164
C	-1.5843591121	-2.0895599923	-0.0889816753	-0.206028
H	 0.8640765976	 2.108710709	-0.2197231433	 0.108422
H	-0.5806508449	 1.7590733111	-1.1828674831	 0.11831
H	-0.725372326	 2.0697936915	 0.5548937863	 0.106792
H	 0.6933403419	-0.3199005446	-0.7296993222	 0.090737
H	 0.1796676693	 0.273383256	 2.242982724	 0.107403
H	 0.9191505756	-1.2037033753	 1.6154067462	 0.113298
H	 1.7540762188	 0.3502292031	 1.4417790561	 0.108391
H	-2.017237419	-0.1334071844	 0.6753151639	 0.082609
H	-2.8621255104	-0.8072889469	-1.6476751784	 0.097453
H	-1.2929347411	-3.6854839323	-1.5020255607	 0.081619
H	 1.3129314547	-2.3727161303	-0.5352878657	 0.129873
H	 0.7718046781	-4.0353615884	-0.242585943	 0.117266
H	 1.1543003323	-3.5076466109	-1.8882175856	 0.126386
H	-2.2399095131	-2.5915246443	 0.6107746214	 0.092183
71.0626	128.3431	146.9729	204.8703	207.0632	223.0593	247.8284	313.4501	324.5084	417.0916	433.489	569.38	596.0581	725.5654	747.8695	800.3982	848.3395	869.2284	912.1039	929.5924	934.1664	965.2177	980.9941	1025.1276	1043.9973	1058.2125	1087.1787	1095.1366	1128.455	1149.7467	1157.3568	1186.2005	1228.6282	1265.0738	1298.5975	1314.094	1352.2773	1360.7806	1394.9012	1399.75	1409.8608	1415.5774	1451.567	1484.0651	1486.1419	1488.4922	1494.9252	1501.9708	1509.85	2994.9672	3021.4077	3025.7775	3040.858	3061.1262	3084.6557	3090.7809	3099.3939	3101.5179	3102.2605	3105.1914	3143.9849	3167.4396	3193.5601
CC(C)C1C2OC(C)C12	CC(C)[C@H]1[C@H]2O[C@@H](C)[C@@H]12	
InChI=1S/C8H14O/c1-4(2)6-7-5(3)9-8(6)7/h4-8H,1-3H3	InChI=1S/C8H14O/c1-4(2)6-7-5(3)9-8(6)7/h4-8H,1-3H3/t5-,6+,7-,8+/m0/s1
