17
gdb 18117	4.30268	2.0156	1.46638	3.8226	68.65	-0.2416	0.0318	0.2735	854.5583	0.146078	-363.889045	-363.882746	-363.881802	-363.919398	24.842	
C	-0.0217480065	 1.3884395647	 0.0383464452	-0.085527
C	 1.4124832396	 1.9629795038	-0.0497758589	-0.269916
C	 2.1423100615	 0.7924375632	-0.7188272843	-0.086647
C	 3.5718473332	 0.329175677	-0.4137906486	-0.261157
C	 3.3815301416	-1.2238961345	-0.3558585177	-0.155634
N	 1.9869181025	-1.4647512246	 0.0770262883	-0.320188
C	 1.3819341675	-0.3734134863	-0.1325724321	 0.447896
O	 0.1209197166	-0.0449756188	 0.2041689672	-0.25387
H	-0.5962774737	 1.7615749198	 0.8887807942	 0.125622
H	-0.5905707402	 1.5769488179	-0.8802140374	 0.11591
H	 1.4411651983	 2.9036087948	-0.6037750779	 0.111328
H	 1.8101743116	 2.1412552523	 0.9551439894	 0.117206
H	 1.967333985	 0.8237618479	-1.8040424905	 0.095252
H	 4.3142885347	 0.6461520713	-1.1497210202	 0.10092
H	 3.8883074662	 0.6975932349	 0.5686105402	 0.10684
H	 3.5537462755	-1.6848603732	-1.3385236971	 0.103137
H	 4.0725616466	-1.7022704201	 0.3445190502	 0.108828
153.3057	190.5946	274.4581	361.8651	451.6608	611.7998	618.5264	662.1278	707.7597	819.6066	850.0086	858.4383	918.4749	939.1894	980.3183	993.7052	999.9285	1055.9947	1111.5682	1125.2147	1180.5381	1190.0052	1216.3363	1232.6584	1257.1294	1288.8617	1301.1774	1324.2324	1330.0677	1364.1568	1415.7966	1486.0316	1494.1789	1507.9221	1520.4622	1765.4361	3003.2718	3011.7081	3035.1393	3045.4405	3053.4373	3078.4577	3106.9887	3108.8147	3117.88
C1CC2CCN=C2O1	C1C[C@H]2CC[N][C]2O1	
InChI=1S/C6H9NO/c1-3-7-6-5(1)2-4-8-6/h5H,1-4H2	InChI=1S/C6H9NO/c1-3-7-6-5(1)2-4-8-6/h5H,1-4H2/t5-/m1/s1
