17
gdb 74064	3.51105	1.18271	0.89451	6.6839	80.89	-0.239	-0.0369	0.2022	1265.2507	0.136115	-418.056726	-418.048156	-418.047211	-418.09021	31.076	
C	-0.0175407138	 1.4562878607	 0.0907645847	-0.491776
C	-0.0005104735	-0.0308079476	-0.0254623261	 0.297957
C	-0.0266903656	-0.7902169409	-1.1258006131	-0.2675
C	 0.0049936129	-2.2253775849	-0.7906894299	 0.381723
N	-0.0050803295	-3.2575902027	-1.5330346839	-0.507009
N	 0.0530877162	-2.2682361739	 0.6267835223	-0.122786
C	 0.0529380088	-0.9189783636	 1.1901214252	-0.264346
C	 0.0948231055	-3.3780482975	 1.4488077744	 0.162812
O	 0.0992032073	-4.5320241362	 1.1121725154	-0.276535
H	 0.8753763157	 1.821589186	 0.6128629126	 0.140886
H	-0.0579436805	 1.9320635428	-0.8915744373	 0.139599
H	-0.8825024999	 1.7967798614	 0.673193272	 0.140859
H	-0.066005494	-0.4424340968	-2.1502034073	 0.112926
H	-0.0420625356	-2.9692631413	-2.510989728	 0.218295
H	 0.9550170749	-0.730070953	 1.7893720298	 0.133703
H	-0.8117517322	-0.7551144202	 1.8488875505	 0.133707
H	 0.1254353033	-3.0603902326	 2.5134502385	 0.067485
69.1404	141.013	179.1578	205.4189	218.9931	252.9893	285.8539	434.2105	451.5613	486.2038	593.2562	704.0749	758.3355	800.0826	829.3903	893.3084	904.6761	982.5488	1014.8482	1029.2961	1067.5146	1082.274	1175.1226	1204.5295	1217.4938	1265.1776	1283.3294	1361.8582	1411.3267	1424.3839	1460.7451	1477.8588	1483.6406	1500.8828	1699.4031	1719.8462	1839.1379	2895.2898	2999.1652	3024.4622	3025.4137	3073.4353	3125.0969	3218.5569	3477.2292
CC1=CC(=N)N(C1)C=O	C[C]1C=C([NH])N(C1)C=O	
InChI=1S/C6H8N2O/c1-5-2-6(7)8(3-5)4-9/h2,4,7H,3H2,1H3	InChI=1S/C6H8N2O/c1-5-2-6(7)8(3-5)4-9/h2,4,7H,3H2,1H3
