21
gdb 100559	2.76537	1.04339	0.83974	2.4049	81.16	-0.2404	-0.0151	0.2253	1455.2922	0.179962	-424.225274	-424.214937	-424.213993	-424.26233	36.569	
C	 0.1773643955	 1.4782945833	-1.5324133608	-0.236896
O	-0.1202851329	 0.104531266	-1.4235660165	-0.243003
C	 0.9497702763	-0.6983256615	-0.9604141569	 0.043759
C	 1.2192118302	-0.543641271	 0.5391963981	-0.402358
C	 0.6709998158	-2.172141081	-1.313112326	 0.341384
O	 1.3689493275	-3.0381754055	-0.8233489106	-0.348581
C	-0.4207188145	-2.4827269846	-2.2718165781	-0.103317
C	-0.201573893	-3.6782542122	-3.1935186357	-0.250767
C	-1.1583463462	-3.8008948199	-2.0623548567	-0.246361
H	 0.3488220574	 1.9505376511	-0.5551761895	 0.11368
H	 1.0654625373	 1.6497875364	-2.1606792382	 0.106814
H	-0.6850798793	 1.9570668444	-2.0025541188	 0.12962
H	 1.8689813366	-0.4377825295	-1.5172197064	 0.092149
H	 1.6001761518	 0.4528251552	 0.7765292536	 0.112556
H	 0.2968841761	-0.7090900108	 1.1042337174	 0.125399
H	 1.957578122	-1.2856991729	 0.8475142727	 0.148266
H	-0.983202652	-1.6430630543	-2.650749013	 0.11089
H	-0.5853261361	-3.5923846016	-4.2036100487	 0.116895
H	 0.7555970661	-4.1767748862	-3.0926831489	 0.13592
H	-0.842642371	-4.3813806337	-1.2031135706	 0.13633
H	-2.2226616875	-3.8018639417	-2.2671223963	 0.117621
21.9032	48.3952	82.6682	161.1479	198.9076	213.613	249.4364	270.9113	313.0715	348.5462	425.9917	466.3922	596.5716	725.1043	772.1101	808.4644	829.0297	865.2932	891.1857	912.2581	1015.2743	1060.4827	1079.5641	1090.2367	1098.5836	1112.6608	1139.643	1142.4591	1178.0267	1184.042	1211.895	1219.6038	1226.6411	1323.1474	1360.9971	1390.2735	1402.9622	1453.4001	1477.5115	1484.276	1484.9136	1494.4809	1501.4745	1512.274	1776.5993	2936.8512	2980.5767	3034.8142	3050.3845	3114.0684	3120.8453	3140.131	3142.1708	3146.7257	3227.9015	3231.7644	3245.5033
COC(C)C(=O)C1CC1	CO[C@@H](C)C(=O)C1CC1	
InChI=1S/C7H12O2/c1-5(9-2)7(8)6-3-4-6/h5-6H,3-4H2,1-2H3	InChI=1S/C7H12O2/c1-5(9-2)7(8)6-3-4-6/h5-6H,3-4H2,1-2H3/t5-/m0/s1
