19
gdb 126242	2.29753	1.35231	0.91297	4.3984	79.81	-0.1953	0.0083	0.2036	1317.3161	0.16037	-415.387745	-415.378313	-415.377369	-415.422966	33.578	
C	-0.2981731249	 1.5740041028	 0.0090639508	-0.367534
C	-0.0280530088	 0.0572336551	 0.0186373491	-0.317942
C	 0.7556940432	-0.4324422018	-1.1540249537	 0.248773
C	 2.1057853361	-0.6822199077	-1.3425741186	 0.289423
N	 3.1397365737	-0.5862782479	-0.4169148866	-0.391657
C	 4.4969493558	-0.797729679	-0.9068516964	-0.31448
N	 2.304672967	-1.1256751642	-2.6147871696	-0.268365
N	 1.1537006472	-1.171198029	-3.2383839208	-0.136136
N	 0.2285923777	-0.7456985121	-2.3710543394	-0.227713
H	 0.6376598599	 2.1409352825	-0.0111837417	 0.12259
H	-0.878045537	 1.8666624953	-0.8719005259	 0.12006
H	-0.8596055971	 1.8741537969	 0.8991844311	 0.119454
H	 0.5235940686	-0.2120672951	 0.9267242702	 0.123183
H	-0.9824551198	-0.4812176224	 0.0774411849	 0.11229
H	 3.061832682	 0.2302209643	 0.172273229	 0.232953
H	 4.5758801551	-1.8007143299	-1.3315538807	 0.15038
H	 4.7998184132	-0.0848972335	-1.6871937343	 0.118476
H	 5.1867354087	-0.7197081159	-0.0627474513	 0.112373
H	-0.7357347807	-0.7113505083	-2.6615992963	 0.273871
39.1368	74.7416	151.0835	161.4518	176.3509	232.4905	291.3128	306.246	415.7333	486.1192	553.9952	577.0924	645.8167	713.8303	746.4768	781.6538	783.6212	966.6651	1008.2372	1057.5292	1076.1055	1085.371	1118.1318	1137.2272	1157.4483	1213.3753	1239.8649	1299.0359	1345.1649	1360.6219	1383.5045	1412.6782	1454.5492	1466.3515	1483.5161	1484.5847	1496.9281	1504.5389	1514.9315	1542.2125	1641.1604	3001.6353	3024.5225	3037.3867	3063.2882	3089.4434	3110.2729	3111.8132	3132.8149	3584.9785	3651.0639
CCC1=C(NC)N=NN1	CCc1c(NC)nn[nH]1	
InChI=1S/C5H10N4/c1-3-4-5(6-2)8-9-7-4/h3H2,1-2H3,(H2,6,7,8,9)	InChI=1S/C5H10N4/c1-3-4-5(6-2)8-9-7-4/h3H2,1-2H3,(H2,6,7,8,9)
