18
gdb 60029	2.31506	1.00774	0.84679	3.979	74.	-0.28	-0.0583	0.2216	1435.9397	0.143203	-439.094855	-439.084328	-439.083384	-439.132141	35.742	
C	-0.3064860757	 1.5799884687	 0.2951023443	-0.39265
C	-0.0535515453	 0.1182139905	-0.046397783	 0.136495
C	 1.0522358375	-0.5029315761	 0.8057336706	-0.398552
O	-1.3142581752	-0.5531060096	 0.1618240991	-0.264627
C	-1.4525475437	-1.8248703072	-0.4049665479	-0.091278
C	-2.8298544806	-2.3496270583	 0.063975419	 0.15516
O	-3.083460195	-3.5110082288	 0.1945952177	-0.218091
C	-1.4243133696	-1.7947676989	-1.8835920689	 0.263071
N	-1.4134357865	-1.7514824916	-3.0385555834	-0.314267
H	 0.5986482618	 2.1702437016	 0.1272018224	 0.123984
H	-1.1083011988	 1.9853921316	-0.3266659326	 0.131872
H	-0.5966137627	 1.6823100211	 1.3454675488	 0.128151
H	 0.2081345581	 0.0341236513	-1.110900396	 0.101563
H	 1.2374347846	-1.5495530724	 0.5460594479	 0.122562
H	 1.9901191146	 0.0393908189	 0.6529598642	 0.128992
H	 0.7903938989	-0.4501467905	 1.8670502971	 0.129928
H	-0.6952895511	-2.5443144773	-0.0640987873	 0.139255
H	-3.5451154014	-1.5295354129	 0.276253498	 0.118434
29.7488	45.8573	82.7637	130.6235	173.2511	205.6905	230.2938	259.5967	310.3927	353.5236	434.707	444.8937	483.683	530.9726	649.04	824.3019	861.3456	927.4727	932.8533	947.776	1036.0734	1057.3727	1119.8934	1143.7995	1163.3764	1200.9328	1264.065	1326.9778	1371.9959	1381.5337	1394.8431	1406.8157	1418.2556	1481.287	1484.2927	1495.6764	1508.7286	1856.3465	2348.6116	2941.2396	3008.4403	3022.7598	3040.7855	3046.7739	3110.7999	3115.4207	3122.7278	3130.0435
CC(C)OC(C=O)C#N	CC(C)O[C@@H](C=O)C#N	
InChI=1S/C6H9NO2/c1-5(2)9-6(3-7)4-8/h4-6H,1-2H3	InChI=1S/C6H9NO2/c1-5(2)9-6(3-7)4-8/h4-6H,1-2H3/t6-/m1/s1
