16
gdb 98138	4.76666	0.84155	0.71842	4.1743	70.71	-0.2598	-0.0764	0.1834	1490.5277	0.12394	-471.22701	-471.217757	-471.216812	-471.261702	32.584	
O	 0.4030433044	 1.3261334194	-0.0811831899	-0.424283
C	 0.3302136657	-0.0705866021	-0.0529374339	-0.123334
C	-1.1038363208	-0.5444327023	 0.0141271716	 0.334993
O	-2.0211951304	 0.2557690902	 0.0364453333	-0.355302
C	-1.3743977476	-2.0299152727	 0.0525328666	 0.281067
N	-0.3909772752	-2.8370923656	 0.0276963929	-0.501187
N	-2.7369004975	-2.296768354	 0.1124407594	-0.322647
C	-3.3377536674	-3.5319680682	 0.1599390112	 0.102852
N	-2.6784074907	-4.6229738007	 0.1533430282	-0.450772
H	-0.5114557987	 1.6434133914	-0.0506354616	 0.293272
H	 0.7975268796	-0.5221062841	-0.9405478576	 0.141577
H	 0.8691295146	-0.490306905	 0.8092803822	 0.141646
H	-0.7231456559	-3.8046332798	 0.0589387629	 0.263685
H	-3.316495951	-1.4681854544	 0.1205839696	 0.272322
H	-4.4296718426	-3.4528386975	 0.2030484588	 0.109785
H	-3.3054228064	-5.4223730145	 0.1939080464	 0.236328
64.5918	89.853	115.1381	153.1384	224.7281	271.3347	317.3757	330.1721	360.5444	433.1492	507.3638	600.5143	645.2964	681.3727	799.5259	818.8909	896.8365	960.6359	962.9119	1030.2569	1054.0329	1115.0582	1157.1305	1176.0198	1228.8078	1262.8218	1306.3678	1370.2713	1420.0343	1447.4862	1472.8041	1553.7054	1692.2129	1738.5508	1772.3767	3007.9438	3024.1444	3061.5166	3441.9421	3523.3995	3591.7175	3721.3263
OCC(=O)C(=N)NC=N	OCC(=O)C(=N)NC=N	
InChI=1S/C4H7N3O2/c5-2-7-4(6)3(9)1-8/h2,8H,1H2,(H3,5,6,7)	InChI=1S/C4H7N3O2/c5-2-7-4(6)3(9)1-8/h2,8H,1H2,(H3,5,6,7)
