18
gdb 124829	4.32091	0.91923	0.79147	2.8082	73.93	-0.2566	-0.0036	0.253	1424.8529	0.147127	-439.084416	-439.075661	-439.074717	-439.118633	32.225	
C	 0.1771963556	 1.4923658423	 0.0384060389	-0.405928
C	 0.0411067112	-0.0093095992	 0.2846071753	 0.130734
O	 0.1628425881	-0.3173212144	 1.6731287099	-0.424121
C	-1.2701961184	-0.5678131654	-0.3005043739	-0.326335
C	-1.3579017066	-2.0638987965	-0.2757755651	 0.387828
N	-1.6664887533	-2.711170289	-1.3770597789	-0.203984
O	-1.6736178117	-4.0618780883	-1.0385733698	-0.165585
C	-1.3648182325	-4.1808116501	 0.2607613565	 0.078393
C	-1.1514072345	-2.9626776532	 0.8145406937	-0.323953
H	 1.0945052988	 1.8673596258	 0.4998074288	 0.128162
H	 0.2070409096	 1.7183346706	-1.0318627744	 0.125013
H	-0.6726352683	 2.0367497712	 0.4700427958	 0.108591
H	 0.8838292124	-0.5301339521	-0.1840332429	 0.103776
H	-0.4838529419	 0.2183605784	 2.1469141057	 0.277451
H	-2.1080796379	-0.1375504141	 0.2670096884	 0.10488
H	-1.3881908395	-0.2380451849	-1.3371948094	 0.127336
H	-1.3334565116	-5.188971243	 0.6446775779	 0.147635
H	-0.8655333396	-2.7149781382	 1.8210153735	 0.130106
47.2929	85.0311	132.9844	242.5169	287.8339	310.0122	320.6547	328.9181	456.6214	477.4952	616.4551	674.969	754.9412	815.1243	842.5841	879.239	898.9775	913.5123	941.6466	951.4009	1004.2783	1054.0113	1070.2558	1091.8061	1148.0983	1157.9238	1195.7923	1289.8085	1312.2457	1325.6309	1380.6996	1403.3183	1421.1325	1446.791	1464.8634	1484.0288	1492.4134	1495.6012	1607.984	3007.2248	3023.985	3053.1183	3088.2	3099.0791	3122.9631	3262.903	3308.7361	3790.2589
CC(O)CC1=NOC=C1	C[C@@H](O)Cc1nocc1	
InChI=1S/C6H9NO2/c1-5(8)4-6-2-3-9-7-6/h2-3,5,8H,4H2,1H3	InChI=1S/C6H9NO2/c1-5(8)4-6-2-3-9-7-6/h2-3,5,8H,4H2,1H3/t5-/m1/s1
