19
gdb 33537	2.00605	1.6995	1.12771	3.4394	79.1	-0.26	0.0255	0.2854	1134.2955	0.160399	-382.043261	-382.034725	-382.033781	-382.076701	32.119	
N	 0.0510446976	-1.3406572052	-0.4555136732	-0.346022
C	 0.0091184657	-0.2037112456	-0.2472392126	 0.248918
C	-0.0317203612	 1.2306819499	 0.0229215733	 0.141582
C	-0.2202278361	 1.6130978277	 1.5330020939	-0.283233
C	 0.9797930354	 2.5894129155	 1.4256115974	-0.216094
C	 1.3752793486	 1.9336838172	 0.0767836099	-0.254248
C	-0.9885175242	 1.8852700716	-0.9699916191	-0.040327
C	-2.4499260621	 1.9314225875	-0.7362189072	-0.241519
N	-1.6468630111	 3.1688624768	-0.7076072362	-0.330496
H	-1.1925179923	 2.0249270926	 1.81530114	 0.110248
H	-0.0143869384	 0.7609135396	 2.1824065456	 0.132284
H	 0.6738244226	 3.6320631478	 1.3107103652	 0.116101
H	 1.7171965843	 2.5362849882	 2.227958252	 0.115672
H	 2.1886270557	 1.2127515568	 0.1745925597	 0.127353
H	 1.5879267536	 2.5992135196	-0.7620404161	 0.123737
H	-0.6402272326	 1.7884996284	-1.9967619291	 0.111885
H	-3.1368695405	 1.8458808829	-1.5724086373	 0.130831
H	-2.8275641748	 1.5341484	 0.2026695911	 0.119551
H	-1.5036952203	 3.4658055187	 0.2541462626	 0.233777
76.7438	117.3601	146.6426	185.496	224.2967	274.556	411.0884	446.7856	539.7434	552.8087	583.7357	704.8141	787.0888	806.9906	857.3497	871.0936	915.2716	951.02	953.4558	963.6066	971.3248	1037.8488	1072.0896	1088.5697	1130.6414	1162.5222	1192.6396	1217.2575	1220.2286	1250.2022	1262.8692	1270.7866	1278.3121	1292.8686	1306.7046	1409.3206	1475.4274	1486.3688	1506.9452	1512.9029	2347.0506	3066.6916	3072.8036	3078.4798	3112.2	3114.9574	3123.6477	3129.7572	3140.779	3199.417	3505.4284
N#CC1(CCC1)C1CN1	N#CC1(CCC1)[C@H]1CN1	
InChI=1S/C7H10N2/c8-5-7(2-1-3-7)6-4-9-6/h6,9H,1-4H2	InChI=1S/C7H10N2/c8-5-7(2-1-3-7)6-4-9-6/h6,9H,1-4H2/t6-/m1/s1
