12
gdb 7014	8.32324	0.93611	0.85115	5.9469	59.95	-0.3013	-0.063	0.2383	1217.423	0.081689	-377.556731	-377.548463	-377.547518	-377.59138	27.074	
O	 0.004199965	-0.1615210717	-0.0029649575	-0.225357
C	-0.0120361892	 1.0344906574	 0.0037548206	 0.38735
C	 1.2589193774	 1.898980629	-0.0686778474	-0.458849
C	 2.4906155181	 1.1252848967	 0.0120686434	 0.29379
N	 3.4792353601	 0.5337708439	 0.0785820202	-0.280323
C	-1.3059783692	 1.8632943698	 0.0857011139	-0.458849
C	-2.516231559	 1.0574061243	-0.0039190959	 0.293791
N	-3.4884410744	 0.4400592105	-0.0772235839	-0.280323
H	 1.2393348526	 2.4623252437	-1.0109099524	 0.1859
H	 1.2380640969	 2.6495537015	 0.7310734162	 0.178486
H	-1.3015485751	 2.4163427778	 1.0342051818	 0.1859
H	-1.3056268431	 2.623093817	-0.7055647391	 0.178486
28.2534	41.0031	104.8555	182.5045	309.1318	363.1821	367.9402	413.7352	445.6418	461.0845	711.41	796.2925	872.1934	906.443	988.9596	998.158	1054.0803	1187.1447	1256.777	1320.9751	1345.577	1429.3197	1441.6639	1856.2861	2380.4864	2380.6106	3031.9618	3039.0701	3067.8491	3074.841
O=C(CC#N)CC#N	O=C(CC#N)CC#N	
InChI=1S/C5H4N2O/c6-3-1-5(8)2-4-7/h1-2H2	InChI=1S/C5H4N2O/c6-3-1-5(8)2-4-7/h1-2H2
