16
gdb 14609	13.31497	0.61019	0.58987	5.2614	68.93	-0.2739	0.0105	0.2844	1756.9249	0.129517	-379.932161	-379.923029	-379.922085	-379.968247	29.778	
N	-0.1036454167	 1.3036796066	 0.009775662	-0.431556
C	-0.0463138444	 0.0443144399	 0.0029770911	 0.129007
O	-1.1842283941	-0.6804536923	 0.0088532148	-0.183339
C	-1.0300155625	-2.0962575717	 0.000234407	-0.077325
C	-2.4251469793	-2.705196655	 0.0100673976	-0.195658
C	-2.3620955641	-4.2441722377	 0.0015445357	-0.345411
C	-3.6887381587	-4.8561007088	 0.0106812331	 0.260819
N	-4.7425115864	-5.3294850536	 0.0181915327	-0.295933
H	 0.8354209462	 1.6961046764	 0.0040227401	 0.232552
H	 0.8657768337	-0.569236908	-0.007606413	 0.085625
H	-0.4757710856	-2.4125284162	-0.8954099918	 0.11168
H	-0.4592894277	-2.4215837511	 0.8821790436	 0.111669
H	-2.9637849041	-2.3579880515	 0.8964579451	 0.142773
H	-2.9801319695	-2.3489178656	-0.8625307264	 0.142783
H	-1.8241476791	-4.6015413696	-0.8847725909	 0.156155
H	-1.8078344778	-4.6106164517	 0.8739985593	 0.156158
19.3915	74.1257	86.9895	93.7328	146.0932	198.9489	313.0003	393.0541	396.5453	567.2502	634.1064	756.5241	821.4862	866.9614	939.4009	1001.3557	1044.0164	1044.1183	1087.1766	1121.5531	1145.6259	1218.9057	1273.6842	1296.7674	1304.4351	1320.0623	1374.5708	1413.8289	1437.1348	1471.4596	1498.6016	1521.387	1752.9318	2366.7297	2987.1248	3019.4416	3028.6162	3036.6054	3068.2764	3071.4211	3117.1002	3521.0412
N=COCCCC#N	[NH][CH]OCCCC#N	
InChI=1S/C5H8N2O/c6-3-1-2-4-8-5-7/h5,7H,1-2,4H2	InChI=1S/C5H8N2O/c6-3-1-2-4-8-5-7/h5,7H,1-2,4H2
