14
gdb 44518	4.72471	1.47573	1.29042	4.4738	61.21	-0.2707	0.0261	0.2967	923.6949	0.103535	-473.793667	-473.787722	-473.786777	-473.824102	23.812	
O	 0.0011986463	 0.0712394084	 0.5368685271	-0.353913
C	-0.0086134922	 1.1588869797	 0.0535433491	 0.475704
O	-1.162517839	 1.8130631153	-0.2287868525	-0.269531
C	-1.0958794366	 3.1054500219	-0.8036336212	 0.174843
C	-0.0588684959	 3.3365268169	-1.930523807	-0.120838
N	-0.1307343182	 4.8009166538	-1.5641408503	-0.320378
C	-0.0465329413	 4.0910968992	-0.2326379503	-0.120837
C	 1.0096252242	 3.1200963607	-0.8254429451	 0.132473
O	 1.1317603276	 1.8260785292	-0.2512537078	-0.268337
H	-2.1106600326	 3.4653461056	-0.9562047584	 0.124477
H	-0.0746012847	 2.97772164	-2.9586054603	 0.107328
H	 0.7695841898	 5.2460223163	-1.7684951811	 0.224791
H	-0.047853673	 4.6137752809	 0.7227396813	 0.107328
H	 2.0186525655	 3.496540082	-1.0000688336	 0.10689
120.9954	285.3019	411.5249	453.3484	462.6159	503.663	664.9353	770.7058	777.6052	789.7485	868.2642	869.0429	895.4714	909.6907	924.4409	1026.5076	1028.4715	1049.8936	1126.8125	1128.7034	1135.9461	1163.3997	1166.608	1206.2247	1215.7322	1258.8941	1297.7016	1303.4723	1381.6395	1400.3193	1906.7395	3114.259	3135.1344	3137.4835	3160.9948	3394.3986
O=C1OC2C3NC2C3O1	O=C1O[C@@H]2[C@H]3N[C@@H]2[C@H]3O1	
InChI=1S/C5H5NO3/c7-5-8-3-1-4(9-5)2(3)6-1/h1-4,6H	InChI=1S/C5H5NO3/c7-5-8-3-1-4(9-5)2(3)6-1/h1-4,6H/t1-,2+,3-,4+
