20
gdb 71701	3.50746	1.48977	1.40483	1.5768	81.61	-0.2182	0.0793	0.2975	1034.2722	0.171598	-365.969305	-365.961582	-365.960637	-366.000846	31.506	
C	-0.0758110998	 1.4643335773	 0.0632035436	-0.499144
C	-0.0210233868	-0.0391613804	-0.0196218657	 0.315192
C	-0.3657938657	-0.7969496758	-1.2915051391	-0.222805
N	-0.172057362	-2.1959706453	-0.8961202995	-0.168383
C	-0.5153388727	-2.3367426908	 0.5362630819	-0.129544
C	-0.4160545163	-0.9163606202	 1.1514567759	-0.128475
C	 1.0352878013	-0.8415030588	 0.7099793716	-0.187088
C	 0.9110849517	-2.2747986993	 0.10525981	 0.349008
C	 1.9981782284	-3.2953993029	-0.0036598893	-0.516071
H	 0.610978036	 1.9263204379	-0.6549912539	 0.120527
H	-1.0837309641	 1.8359373748	-0.1533770375	 0.120849
H	 0.2004605068	 1.8191477438	 1.0608121345	 0.120074
H	-1.4018737415	-0.639525945	-1.6120171881	 0.100365
H	 0.3010906613	-0.5507681997	-2.1255555938	 0.099978
H	-1.1433795925	-3.1579440028	 0.8595933767	 0.087324
H	-0.8795233717	-0.5613334786	 2.0611677332	 0.084501
H	 1.8920515368	-0.4221641153	 1.2197788821	 0.082738
H	 2.4583137458	-3.4867887455	 0.971908079	 0.118733
H	 1.5974356779	-4.236658123	-0.3890355993	 0.132678
H	 2.7878867172	-2.9578327204	-0.6858181923	 0.119544
187.7551	193.1603	213.0485	231.1592	288.7799	329.9416	428.1478	535.4213	573.3299	622.4786	727.6278	768.5025	779.5617	789.7577	837.307	853.4498	866.963	910.5443	946.3722	954.7634	991.4926	1011.1344	1025.3532	1051.5547	1094.0969	1103.8338	1127.8123	1148.1513	1169.8621	1210.326	1218.973	1249.6989	1281.3808	1308.371	1382.169	1410.2994	1420.1656	1449.487	1484.032	1491.7568	1493.0898	1498.2002	1502.9119	3025.61	3026.5824	3036.6059	3079.874	3084.5887	3085.9885	3100.8072	3117.5894	3183.4337	3203.3132	3216.1712
CC12CN3C4C1C2C34C	C[C@]12CN3[C@@H]4[C@H]1[C@H]2[C@]34C	
InChI=1S/C8H11N/c1-7-3-9-6-4(7)5(7)8(6,9)2/h4-6H,3H2,1-2H3	InChI=1S/C8H11N/c1-7-3-9-6-4(7)5(7)8(6,9)2/h4-6H,3H2,1-2H3/t4-,5-,6-,7+,8+,9?/m1/s1
