15
gdb 44026	3.46392	1.75799	1.53786	2.2758	71.96	-0.2389	-0.0206	0.2182	874.4843	0.112657	-416.618778	-416.612321	-416.611377	-416.649366	26.334	
N	-0.0268813286	 1.2153856242	-0.3594669945	-0.533605
C	-0.0311174154	 0.0108898379	-0.0334595055	 0.345532
O	 1.0519412463	-0.8431144287	 0.3373460883	-0.307159
C	 0.05990199	-1.8280496994	 0.8006177464	 0.263836
C	-0.6640564828	-1.7702224696	 2.1278522508	-0.215132
N	-1.8147478531	-2.0394102136	 1.1518926384	-0.186772
C	-0.9076988708	-2.9781425695	 0.2862449913	-0.054397
C	-1.2199185	-2.2287313022	-1.0044208813	-0.278545
C	-1.0351046652	-1.136609629	 0.0574609101	 0.132525
H	 0.9153882381	 1.6102946394	-0.3502796129	 0.243482
H	-0.5089619481	-2.5769366228	 2.8479866266	 0.114423
H	-0.7494912622	-0.7985352435	 2.6221155042	 0.126027
H	-0.8974299396	-4.0466482423	 0.5119579213	 0.099945
H	-0.4594736798	-2.2697520115	-1.7862755795	 0.125372
H	-2.2278788486	-2.3491679595	-1.4060346235	 0.124468
131.7514	273.5264	315.7725	382.4057	443.8213	493.8593	550.8134	631.3607	706.9516	739.4093	787.0588	828.9503	866.2274	884.2236	895.4996	910.5806	920.8513	951.3011	1011.9675	1068.6964	1092.6257	1121.7291	1130.0729	1155.7887	1178.4367	1204.2041	1216.7121	1234.2487	1255.5004	1272.1072	1487.4443	1513.4251	1806.8818	3060.7102	3075.0357	3100.4722	3128.6502	3143.6014	3478.0733
N=C1OC23CN4C2CC134	[NH][C]1O[C@]23CN4[C@H]2C[C@]134	
InChI=1S/C6H6N2O/c7-4-5-1-3-6(5,9-4)2-8(3)5/h3,7H,1-2H2	InChI=1S/C6H6N2O/c7-4-5-1-3-6(5,9-4)2-8(3)5/h3,7H,1-2H2/t3-,5-,6+/m0/s1
