18
gdb 112162	3.34397	1.15535	0.91175	2.4048	77.96	-0.2541	-0.0299	0.2242	1300.9913	0.146876	-439.112134	-439.103085	-439.102141	-439.146243	32.591	
C	 0.0549040041	 1.3893392582	 0.0610782089	-0.240994
O	-0.0334495836	-0.0239548791	-0.0450002583	-0.228067
C	 0.6495909521	-0.5500314433	-1.1318491174	 0.165048
O	 2.0767979809	-0.4166682101	-0.9795673708	-0.257997
C	 2.6498858183	-1.6619780282	-0.9486898705	 0.334873
N	 3.8856400023	-1.899924847	-0.8194911399	-0.540693
C	 1.5859117604	-2.6773920792	-1.1110603261	 0.278008
C	 1.8895711764	-4.1366322689	-1.1210134461	-0.487344
C	 0.4241063606	-2.0323968633	-1.2253793519	-0.252535
H	 1.0840229113	 1.7112177925	 0.2561243398	 0.132886
H	-0.3040561993	 1.8797924879	-0.8558237852	 0.110353
H	-0.5825168088	 1.683252614	 0.8969033417	 0.133749
H	 0.3846354125	 0.0011770541	-2.0497132635	 0.082637
H	 4.4134887085	-1.0318997754	-0.7170830358	 0.224302
H	 2.610540486	-4.3708445308	-1.9108209014	 0.149501
H	 2.3597909552	-4.4342094383	-0.1781409808	 0.15111
H	 0.9873238548	-4.7336204552	-1.2713743247	 0.122757
H	-0.5638880919	-2.4561077279	-1.3422242681	 0.122406
86.1016	118.6743	124.2986	144.9863	190.9339	260.243	302.4577	358.9326	404.4786	497.4124	569.6731	612.2565	729.8426	778.7084	804.6533	858.1052	888.2319	942.1473	1000.7761	1011.2909	1045.8599	1050.4573	1069.7937	1146.5089	1177.7642	1203.4551	1223.8506	1246.6619	1351.5961	1393.4045	1395.8212	1416.0596	1471.2026	1477.6536	1482.8449	1485.7001	1510.2717	1720.6995	1761.0408	2965.1805	2997.0806	3043.8619	3072.1605	3100.7418	3130.2321	3133.4639	3233.0301	3480.6253
COC1OC(=N)C(C)=C1	CO[C@H]1OC(=C(C)[CH]1)[NH]	
InChI=1S/C6H9NO2/c1-4-3-5(8-2)9-6(4)7/h3,5,7H,1-2H3	InChI=1S/C6H9NO2/c1-4-3-5(8-2)9-6(4)7/h3,5,7H,1-2H3/t5-/m0/s1
