18
gdb 50011	3.66894	1.13013	1.02461	3.6844	78.7	-0.2492	-0.0003	0.2489	1197.1835	0.147904	-401.953946	-401.945886	-401.944942	-401.987162	30.275	
O	 0.1172442521	 0.203970086	-0.5904092727	-0.290346
C	 0.0655891778	 1.3229867244	-0.1396954507	 0.133392
N	 1.084206899	 1.9477780188	 0.5534468237	-0.089545
C	 2.4877335386	 1.8317643916	 0.2268505576	-0.296769
C	 1.7999635667	 3.1635216957	 0.1809586485	 0.301866
C	 1.4895675309	 3.8819911482	-1.1437245353	-0.333158
C	 1.0798007998	 5.2600630687	-0.6824443716	-0.063709
C	 1.3324738431	 5.4546272464	 0.6113705853	-0.059453
C	 1.9553787792	 4.2431874625	 1.2615850194	-0.325497
H	-0.8483589269	 1.9470194825	-0.1726874123	 0.085482
H	 3.1507897876	 1.5947196481	 1.0553088934	 0.122868
H	 2.7335661927	 1.3443336777	-0.7141612105	 0.132564
H	 2.3811785676	 3.9288231689	-1.7844322954	 0.121618
H	 0.7181172172	 3.36893249	-1.7286204954	 0.121209
H	 0.6595412253	 5.995724209	-1.3583102483	 0.100049
H	 1.1466467095	 6.3741637928	 1.1542807362	 0.099735
H	 1.4645587318	 3.9387400949	 2.1917196174	 0.124197
H	 3.0129248681	 4.4211378337	 1.5019374008	 0.115497
59.4947	92.4243	167.0683	239.7612	331.5703	360.1517	394.6467	444.9652	506.9544	615.3114	709.1806	781.984	788.2314	863.7949	894.1298	940.4668	951.4767	976.4605	977.9526	985.9419	1037.0056	1045.3248	1119.3925	1130.3397	1137.4285	1159.7286	1194.592	1213.6052	1228.5711	1292.6145	1313.4209	1370.2957	1414.7525	1429.1228	1474.4765	1483.0263	1513.8201	1686.3157	1795.2544	2948.5445	3012.037	3013.0895	3060.247	3072.3337	3101.6068	3188.4119	3190.377	3214.6946
O=CN1CC11CC=CC1	O=CN1C[C@]21CC=CC2	
InChI=1S/C7H9NO/c9-6-8-5-7(8)3-1-2-4-7/h1-2,6H,3-5H2	InChI=1S/C7H9NO/c9-6-8-5-7(8)3-1-2-4-7/h1-2,6H,3-5H2
