23
gdb 120853	3.03661	0.72316	0.63044	1.0548	84.68	-0.2418	0.0903	0.332	1878.8816	0.203075	-425.391968	-425.381081	-425.380137	-425.429314	38.094	
C	-0.1323347514	 1.4902029652	 0.1520080956	-0.385696
C	-0.2816884888	 0.0124475362	 0.4690607319	-0.03106
O	-1.0938911993	-0.5807037119	-0.5329023567	-0.24908
C	-1.2912956828	-1.946366841	-0.3457356564	 0.114921
C	-2.3676984402	-2.4216406249	 0.5987859355	-0.314845
C	-2.5484011682	-2.5443901097	-0.9027863866	-0.06573
C	-3.5559321077	-1.6763912051	-1.6072967289	-0.066648
O	-4.8367218577	-2.2609425885	-1.4619839086	-0.232814
C	-5.838300313	-1.5360842714	-2.1302742908	-0.222857
H	 0.4939310904	 1.9793675208	 0.9039998381	 0.115248
H	 0.3304046285	 1.6283089502	-0.8292995706	 0.12704
H	-1.1095294637	 1.981622089	 0.1414550986	 0.125282
H	 0.7038963365	-0.4809795653	 0.4920681391	 0.087008
H	-0.7390103194	-0.133282341	 1.4598540826	 0.092115
H	-0.3764990645	-2.538215839	-0.4120052967	 0.08305
H	-2.2026654463	-3.3184061146	 1.1855487748	 0.110518
H	-2.9551289728	-1.6548511815	 1.0928734172	 0.119237
H	-2.455666729	-3.5417668488	-1.3225136421	 0.091838
H	-3.5405820711	-0.6586848229	-1.1899417445	 0.095004
H	-3.2999882081	-1.5883150328	-2.6775165524	 0.084648
H	-5.9254458725	-0.5058743939	-1.747841321	 0.099599
H	-5.6513111887	-1.4790350706	-3.2152132791	 0.099959
H	-6.7862861399	-2.0541189585	-1.963886749	 0.123262
50.5482	68.7895	81.1904	102.7139	117.9093	184.1708	231.8929	246.4286	280.4308	310.3702	370.0734	467.6943	498.1311	583.8185	786.5759	818.862	833.1496	884.6718	921.0775	944.8192	987.5194	1019.3971	1050.5621	1059.2445	1091.6378	1134.1279	1148.1902	1155.027	1176.3946	1185.8963	1192.2296	1197.4135	1229.1655	1251.5841	1271.1141	1294.8995	1360.8284	1384.9714	1405.8181	1436.7887	1440.3815	1481.109	1483.6775	1484.3802	1488.8146	1499.7958	1505.2205	1527.9502	1529.4049	2951.8488	2964.955	2968.5664	3001.5027	3002.6754	3011.2363	3044.8173	3080.7684	3109.0965	3119.1929	3121.0649	3132.8896	3152.6159	3221.6744
CCOC1CC1COC	CCO[C@H]1C[C@H]1COC	
InChI=1S/C7H14O2/c1-3-9-7-4-6(7)5-8-2/h6-7H,3-5H2,1-2H3	InChI=1S/C7H14O2/c1-3-9-7-4-6(7)5-8-2/h6-7H,3-5H2,1-2H3/t6-,7-/m0/s1
