18
gdb 127626	3.17069	1.59324	1.08678	3.152	79.43	-0.1873	0.0409	0.2282	1099.2981	0.151509	-398.140187	-398.132304	-398.13136	-398.172964	29.273	
C	 0.0268619214	 1.4075245208	 0.0055263035	-0.340265
N	 0.017274886	-0.0351810406	 0.0330595275	-0.089162
N	 0.1929707806	-0.7507886714	-1.1266398403	-0.293593
C	 0.1781396489	-2.0324361743	-0.7522763225	-0.154372
C	 0.0281455008	-2.1633005618	 0.6404257093	 0.165716
C	-0.0648472861	-0.8685167884	 1.0869601847	 0.433137
N	-0.3399051412	-0.7177672619	 2.4479724301	-0.416445
C	-0.0803677975	-2.083622087	 3.0089209431	-0.165239
C	-0.1906124843	-3.0857223105	 1.808200098	-0.354197
H	 1.0287505804	 1.8155834454	 0.1860610008	 0.132353
H	-0.3094286925	 1.7280954236	-0.9809065647	 0.160525
H	-0.6587039771	 1.7945744453	 0.764838587	 0.138033
H	 0.2839135019	-2.7964275058	-1.5092914997	 0.104039
H	 0.1889400634	 0.0043957549	 2.922369997	 0.23438
H	 0.9297938354	-2.1298209121	 3.4358558989	 0.106338
H	-0.7958811472	-2.3014499298	 3.8055617697	 0.1134
H	-1.1837210961	-3.5525206775	 1.7850397234	 0.114698
H	 0.5399431434	-3.894407689	 1.9084341641	 0.110653
78.6599	128.6818	140.4602	241.7585	255.8089	291.5755	500.2867	568.1192	630.9704	637.8446	673.4033	707.9591	794.7003	843.5762	866.7257	877.2849	939.2847	995.924	1017.6492	1074.3325	1096.6257	1149.3582	1190.409	1205.7202	1225.9278	1243.6827	1296.7734	1304.1367	1324.1776	1397.454	1410.8014	1444.1493	1475.12	1491.8991	1496.3628	1505.9885	1516.4865	1603.8113	1614.3976	3015.6699	3018.2701	3026.3405	3067.7888	3093.8369	3095.612	3151.9845	3236.1947	3540.7756
CN1N=CC2=C1NCC2	Cn1ncc2c1NCC2	
InChI=1S/C6H9N3/c1-9-6-5(4-8-9)2-3-7-6/h4,7H,2-3H2,1H3	InChI=1S/C6H9N3/c1-9-6-5(4-8-9)2-3-7-6/h4,7H,2-3H2,1H3
