16
gdb 40397	4.55119	1.20116	1.12716	2.8275	68.08	-0.2221	0.0462	0.2682	1078.9296	0.123596	-437.746688	-437.73951	-437.738566	-437.778554	27.959	
C	 0.4799970534	 1.4405619498	 0.1116185859	-0.178958
O	 1.1113929422	 0.2301047794	-0.3250163466	-0.235945
C	-0.2743513783	 0.1793671417	 0.0254740111	-0.085337
C	-0.6025646645	-0.6156612029	 1.2306366393	 0.329029
N	 0.3757485332	-0.86646888	 2.3064019657	-0.359934
C	-0.2531111888	-2.0092668523	 1.5977108365	-0.170412
C	-1.6950639213	-2.2132238496	 2.1875747955	 0.0244
O	-1.9335164323	-1.2292178403	 3.1941451831	-0.209287
C	-2.0502727478	-0.8418141688	 1.8288429085	-0.044571
H	 0.796058498	 1.8020349942	 1.0879386926	 0.131672
H	 0.3532767584	 2.1993492257	-0.6582774375	 0.12325
H	-0.9466132396	 0.0467836857	-0.8237726601	 0.100559
H	 1.2880261643	-0.7405830584	 1.8607220225	 0.243649
H	 0.3299792248	-2.7421023732	 1.0563827647	 0.10996
H	-2.2747608487	-3.1273511473	 2.2135301037	 0.113146
H	-2.977415733	-0.3909028036	 1.4953108951	 0.108778
84.2072	161.9272	184.8857	338.6453	367.9238	420.7131	511.0221	627.3051	685.8866	763.4326	812.1293	817.7668	841.6546	863.7006	883.5435	900.6857	932.379	955.5911	980.4462	992.0138	1031.923	1079.5301	1100.6355	1133.1259	1156.6908	1172.5651	1200.9591	1217.5637	1264.8316	1284.1423	1310.0859	1360.6871	1400.4602	1468.9034	1523.4565	3092.8459	3098.0662	3183.8234	3188.2608	3200.6579	3211.8084	3445.6785
C1OC1C12NC1C1OC21	C1O[C@H]1[C@]12N[C@H]1[C@H]1O[C@@H]21	
InChI=1S/C6H7NO2/c1-2(8-1)6-4(7-6)3-5(6)9-3/h2-5,7H,1H2	InChI=1S/C6H7NO2/c1-2(8-1)6-4(7-6)3-5(6)9-3/h2-5,7H,1H2/t2-,3-,4+,5-,6+/m1/s1
