17
gdb 23411	3.82829	1.25703	1.02483	1.8776	81.13	-0.1938	-0.0192	0.1746	1146.1513	0.137689	-417.956083	-417.948495	-417.947551	-417.988272	29.301	
O	-0.1304533689	 1.3645190181	-0.0746911931	-0.399536
N	 0.0002797161	-0.0401172763	-0.1323860139	-0.268416
C	-1.1368083032	-0.6088339457	 0.0226926607	 0.385186
C	-2.4740692674	-0.0717508394	 0.2359987721	-0.226405
C	-3.3300789195	-1.1070890154	 0.3830817116	-0.04372
N	-2.7151038389	-2.3593531322	 0.4089626148	-0.095853
C	-2.9057852432	-3.2666305965	-0.7748206133	-0.172422
C	-1.4862150422	-2.9066151416	-1.2824547292	-0.244954
C	-1.2789019044	-2.1143893678	 0.0438941018	-0.058843
H	 0.7806388344	 1.6542554238	-0.1861909856	 0.302477
H	-2.7132888467	 0.9783928962	 0.2803736019	 0.121513
H	-4.4085868895	-1.058146037	 0.4850585386	 0.121146
H	-3.0305107371	-4.3066405214	-0.4621711816	 0.117085
H	-3.7403788032	-2.9833983618	-1.4214013222	 0.114839
H	-0.8047338762	-3.7442881422	-1.4358393896	 0.116644
H	-1.4767093879	-2.2692433414	-2.1676331182	 0.124559
H	-0.578927862	-2.5882669594	 0.7354937451	 0.1067
88.3217	161.8202	212.2463	247.4064	324.0569	382.8531	424.077	492.4043	671.0391	689.4364	720.5627	745.5134	800.5062	821.1051	844.6468	907.6583	933.1612	956.0974	968.0868	1015.7557	1028.2122	1071.6192	1111.0694	1144.0913	1202.3221	1224.9804	1239.4232	1254.9507	1259.4513	1305.5792	1323.0758	1376.2662	1406.3075	1484.9559	1510.0445	1601.1872	1719.7424	3055.3918	3083.0334	3085.6112	3105.4061	3144.3894	3197.5753	3272.3922	3824.5303
ON=C1C=CN2CCC12	ON=C1C=CN2CC[C@@H]12	
InChI=1S/C6H8N2O/c9-7-5-1-3-8-4-2-6(5)8/h1,3,6,9H,2,4H2	InChI=1S/C6H8N2O/c9-7-5-1-3-8-4-2-6(5)8/h1,3,6,9H,2,4H2/t6-/m0/s1
