16
gdb 125665	2.43226	1.81474	1.04692	4.6648	78.59	-0.1964	-0.0274	0.169	1090.6749	0.126048	-434.108039	-434.099839	-434.098895	-434.140505	31.353	
C	-0.0236682028	 1.4718828489	 0.0213236672	-0.456957
C	-0.0196031196	-0.026366633	-0.0158051091	 0.221694
N	-0.0234743634	-0.6113979721	-1.1919081032	-0.253623
N	-0.0100483731	-1.9408346867	-1.2095279222	-0.218685
C	 0.0000900049	-2.7494832892	-0.1104625066	-0.082222
C	 0.0001850544	-2.1993507476	 1.1400450842	 0.196758
N	-0.0424762305	-2.8897737298	 2.3304971733	-0.58479
C	 0.0003269285	-0.743673356	 1.2534341025	 0.27823
O	 0.0274526793	-0.1857781505	 2.3568171596	-0.421231
H	 0.8497627594	 1.8415573842	 0.5686683445	 0.140629
H	-0.0232225198	 1.8785327355	-0.9910403666	 0.125482
H	-0.9007592883	 1.8382005131	 0.5652549651	 0.141024
H	-0.010576747	-2.3405552271	-2.1335835079	 0.278271
H	 0.0044502952	-3.8148721578	-0.3094110823	 0.122246
H	 0.3978458894	-3.7954187384	 2.368309368	 0.246901
H	 0.1735004835	-2.2758960735	 3.1079984336	 0.266274
113.3407	125.4305	254.2098	276.1767	309.3955	316.8906	379.5224	465.7418	486.803	512.2815	531.375	568.2977	624.9621	635.5753	702.6932	801.7251	837.1761	892.4092	973.3053	1023.8283	1055.0506	1093.1443	1145.9533	1295.2565	1344.6971	1356.7347	1409.8711	1436.6311	1468.1792	1472.4643	1538.9498	1587.3932	1605.1631	1677.5982	1687.993	3042.0598	3094.2549	3145.5071	3195.0307	3529.8921	3649.24	3666.5955
CC1=NNC=C(N)C1=O	Cc1n[nH]cc(N)c1=O	
InChI=1S/C5H7N3O/c1-3-5(9)4(6)2-7-8-3/h2H,1H3,(H2,6,8)(H,7,9)	InChI=1S/C5H7N3O/c1-3-5(9)4(6)2-7-8-3/h2H,1H3,(H2,6,8)(H,7,9)
