20
gdb 102108	1.81526	1.51595	1.00352	2.414	76.32	-0.2339	0.0231	0.257	1262.4683	0.16917	-440.283538	-440.273522	-440.272578	-440.319077	35.944	
C	-0.2178331013	 1.5763087542	 0.1249667354	-0.376763
C	-0.062193532	 0.0661851646	-0.0777989461	-0.169927
N	-1.3314734267	-0.6667695467	-0.0522708156	-0.057182
C	-1.9621079315	-0.9859222211	-1.227559543	 0.144665
O	-3.0762586514	-1.4473182913	-1.339436468	-0.33462
C	-2.0155860413	-0.7739169576	 1.2060551822	-0.023936
C	-2.6492914182	-2.0993688406	 1.5786815368	-0.33907
C	-1.3951062255	-1.6664319396	 2.269195305	 0.114114
O	-0.1724941584	-2.3076741332	 2.0501332942	-0.416566
H	 0.7618004998	 2.0629070548	 0.0871866469	 0.122191
H	-0.8495486644	 2.0151533516	-0.6537523335	 0.125114
H	-0.6648597108	 1.8050799704	 1.096843179	 0.127892
H	 0.4102520578	-0.129444278	-1.0464466117	 0.112309
H	 0.5866439027	-0.3591571755	 0.6923312475	 0.135779
H	-1.3036333838	-0.7926549819	-2.0992530362	 0.070605
H	-2.524688971	 0.1288167321	 1.537351591	 0.101761
H	-3.5919576706	-2.0787529601	 2.1132957974	 0.125873
H	-2.5783097432	-2.8907463458	 0.8411938757	 0.136381
H	-1.4507976396	-1.3274460754	 3.2979340729	 0.11311
H	-0.2197190906	-2.7633648908	 1.2032593102	 0.288271
54.8696	65.7294	126.2256	162.3025	192.3601	229.3411	235.1903	304.5252	337.5841	376.9843	422.913	495.3441	597.9348	690.0785	743.8056	790.6205	801.9154	831.4958	954.5599	983.7028	1031.9434	1037.3071	1062.7875	1069.0268	1099.0287	1120.0437	1129.067	1141.5542	1207.6291	1244.9141	1295.327	1324.3071	1371.0489	1396.2334	1410.0163	1429.6684	1439.9887	1443.9911	1485.0244	1490.5311	1496.5666	1508.1882	1798.5975	2919.0501	3039.5276	3050.0731	3095.7617	3112.5377	3115.8197	3122.3435	3144.8454	3174.2181	3230.969	3821.6232
CCN(C=O)C1CC1O	CCN(C=O)[C@H]1C[C@H]1O	
InChI=1S/C6H11NO2/c1-2-7(4-8)5-3-6(5)9/h4-6,9H,2-3H2,1H3	InChI=1S/C6H11NO2/c1-2-7(4-8)5-3-6(5)9/h4-6,9H,2-3H2,1H3/t5-,6+/m0/s1
