20
gdb 112955	3.62814	0.93451	0.85551	18.7103	79.92	-0.1367	-0.0458	0.0909	1392.1293	0.17197	-440.209902	-440.200592	-440.199648	-440.245407	33.735	
N	-0.7581890945	 0.604376802	-0.2736251516	-0.410129
H	-0.4103905826	-0.2148689363	 0.2387914822	 0.340713
H	-0.0895348111	 0.8703465816	-0.998091149	 0.326108
H	-1.6400439655	 0.3197935269	-0.7096839385	 0.345193
C	-1.0459031578	 1.6961077453	 0.7666857398	-0.278432
C	-1.939480031	 1.0290254915	 1.773668721	 0.091245
C	-1.3754691277	-0.175662533	 2.577024277	-0.278029
C	-2.3743028043	 0.2424098092	 3.7006192323	-0.116996
C	-2.3480516567	 1.6892215959	 3.1100569178	-0.268203
C	-3.7906174904	-0.436735863	 3.4936818624	 0.356097
O	-4.4276224759	-0.6328657835	 4.5327590735	-0.461399
O	-4.0907511993	-0.6699024675	 2.2895993695	-0.508417
H	-0.0688484015	 1.9967896484	 1.157824266	 0.151363
H	-1.4967818886	 2.5310002764	 0.2230191366	 0.158123
H	-2.8703001313	 0.6615782373	 1.3169792957	 0.134261
H	-1.5339486384	-1.1744325454	 2.1587952084	 0.101473
H	-0.3230764066	-0.0269008487	 2.8641713266	 0.060543
H	-2.0472219075	 0.1309396025	 4.7332919962	 0.065925
H	-1.5393819053	 2.3005451268	 3.5312247209	 0.073777
H	-3.2784538742	 2.2611271237	 3.1176841831	 0.116784
30.1978	58.0789	123.4912	164.4576	222.1909	264.2092	290.5144	370.3605	406.9239	446.216	581.3758	682.0241	767.1167	815.2165	825.5902	833.2322	847.8148	895.8509	938.412	953.28	965.1586	995.5653	1057.5945	1064.4714	1123.2199	1152.4583	1189.5949	1203.357	1241.2488	1253.0679	1262.5015	1294.707	1310.7627	1344.0157	1352.5425	1376.3578	1449.4888	1466.6563	1494.0382	1500.2859	1629.3066	1655.1058	1757.5409	2979.1993	2992.1105	3017.9158	3059.5059	3075.2968	3103.3177	3119.4296	3119.691	3380.8798	3465.1389	3518.1096
[NH3+]CC1CC(C1)C([O-])=O	[NH3]C[C@H]1C[C@@H](C1)C(=O)[O]	
InChI=1S/C6H11NO2/c7-3-4-1-5(2-4)6(8)9/h4-5H,1-3,7H2,(H,8,9)	InChI=1S/C6H11NO2/c7-3-4-1-5(2-4)6(8)9/h4-5H,1-3H2,7H3/t4-,5-
