13
gdb 133308	2.34435	1.89503	1.04889	4.7786	68.53	-0.2211	-0.0607	0.1604	1027.2678	0.088763	-494.003747	-493.996128	-493.995183	-494.035837	28.732	
N	 0.0509509204	 1.4003252006	 0.1553968981	-0.595101
C	-0.0065541859	 0.0255339993	 0.0513791109	 0.169842
C	-1.1573886708	-0.684486118	 0.0347800845	 0.147793
F	-2.3306661403	-0.0558092435	 0.0531848344	-0.058677
C	-1.1720172292	-2.1267255943	-0.004329652	 0.324552
N	-2.2296352532	-2.8237864446	-0.0186225576	-0.535019
O	 0.0875349889	-2.7335510026	-0.0363837377	-0.29364
N	 1.2826514097	-2.0354893299	-0.0240275433	-0.06479
C	 1.2114133427	-0.7538509654	 0.0212149312	 0.000399
H	 0.8510651023	 1.8449544723	-0.2689258306	 0.263505
H	-0.8173719593	 1.8770041435	-0.0395592162	 0.271062
H	-2.0057909959	-3.8184745076	-0.0541884068	 0.231583
H	 2.1753283806	-0.2518596699	 0.0400942851	 0.138492
109.9877	157.6334	275.1428	280.1487	306.6873	335.3005	482.1387	513.2362	520.9923	546.3472	577.6811	651.4044	678.8258	721.1565	824.786	865.9509	899.1575	942.2661	983.4881	1053.6284	1190.7793	1250.5549	1315.4852	1385.6448	1420.0546	1631.8729	1648.2662	1729.9943	1746.3645	3171.7833	3495.6044	3572.5045	3677.4029
NC1=C(F)C(=N)ON=C1	N[C]1C(=C([NH])ON=C1)F	
InChI=1S/C4H4FN3O/c5-3-2(6)1-8-9-4(3)7/h1,7H,6H2	InChI=1S/C4H4FN3O/c5-3-2(6)1-8-9-4(3)7/h1,7H,6H2
