17
gdb 69065	2.60256	1.65875	1.25422	2.0464	80.64	-0.223	0.0145	0.2375	1033.0631	0.13513	-380.83862	-380.830207	-380.829263	-380.871092	32.745	
C	-0.0589004666	 1.5274468036	-0.0953835401	-0.460129
C	 0.0284109952	 0.0263381673	-0.0283480874	 0.277921
C	-0.8099796135	-0.7577693253	 0.9474175802	-0.346798
C	 0.6918362424	-0.7908941037	 1.1483162246	 0.138969
N	 1.3411624348	-1.87672548	 0.4431293108	-0.348302
C	 1.1421925394	-1.6596436458	-0.9066908421	 0.031269
N	 0.4163979987	-0.6535905623	-1.234998678	-0.280544
C	 1.3322930856	-0.2511210734	 2.3000197081	 0.227626
C	 1.8795766123	 0.210634307	 3.2679351462	-0.437321
H	 0.8515528047	 1.9495460014	-0.5304164395	 0.126469
H	-0.9056461093	 1.8296143856	-0.7205663593	 0.130463
H	-0.1962864129	 1.9539440533	 0.9019062038	 0.121375
H	-1.3680569399	-0.1806198316	 1.6761035549	 0.124676
H	-1.2850272721	-1.6752121614	 0.6144943113	 0.120032
H	 2.2217251291	-2.2286715473	 0.7877255865	 0.252519
H	 1.5662871904	-2.354753273	-1.6240384088	 0.128332
H	 2.3580847516	 0.6200805958	 4.1228210387	 0.193443
120.057	140.0656	168.0603	247.2274	310.2229	350.7951	405.349	431.0396	508.6712	527.7514	548.5537	581.9038	614.1927	648.4437	680.4042	742.767	792.1522	912.9541	926.4393	955.269	972.9897	982.4714	1064.1787	1094.2986	1115.1864	1169.5587	1235.9745	1278.352	1336.6582	1353.963	1417.0503	1429.4812	1469.2026	1479.4192	1496.5731	1642.892	2229.589	3039.4216	3106.8588	3121.7093	3127.0512	3196.4473	3224.0886	3501.739	3617.7395
CC12CC1(NC=N2)C#C	C[C@]12C[C@]1(NC=N2)C#C	
InChI=1S/C7H8N2/c1-3-7-4-6(7,2)8-5-9-7/h1,5H,4H2,2H3,(H,8,9)	InChI=1S/C7H8N2/c1-3-7-4-6(7,2)8-5-9-7/h1,5H,4H2,2H3,(H,8,9)/t6-,7+/m0/s1
