19
gdb 106104	3.82776	1.1481	1.08884	1.7593	75.01	-0.2329	0.0748	0.3077	1188.6381	0.158756	-422.953926	-422.945544	-422.9446	-422.98695	32.034	
C	 0.0996551797	 1.6275032233	-0.0424525367	-0.421507
C	 0.0645698583	 0.1076029466	-0.0385530847	 0.027559
C	 0.8136418138	-0.6954502241	-1.1103884159	-0.197531
C	 2.233965645	-0.8677417878	-0.5450704212	 0.019845
O	 2.3103422121	-0.1635011568	 0.6925472033	-0.289197
C	 0.9698164785	-0.6663760351	 0.9657513777	-0.005028
C	 1.1498573211	-1.805270103	-0.1137969494	 0.27969
C	 0.9801676376	-3.2854919978	-0.1229345336	-0.215348
O	 1.7592087845	-3.940072227	 0.8679222535	-0.410178
H	 1.1322566162	 1.9840044072	-0.0335243025	 0.134216
H	-0.3985063687	 2.0284122866	-0.9317754786	 0.11175
H	-0.4122912541	 2.0350426355	 0.8365861941	 0.112172
H	-0.9587303265	-0.2743124439	 0.04375033	 0.076454
H	 0.591731802	-0.795621001	-2.1661759042	 0.089303
H	 3.1304500045	-0.99532878	-1.1385854538	 0.107116
H	 0.7511773367	-0.7595529313	 2.0274455082	 0.089059
H	-0.0588055069	-3.5593907474	 0.0940306897	 0.115213
H	 1.2046943119	-3.6630990382	-1.1349918282	 0.090853
H	 2.6641836845	-3.6231687857	 0.7768075225	 0.285561
89.6698	112.7594	194.8377	201.7582	256.2408	298.3326	336.0143	405.995	567.3187	600.0853	650.2781	715.1182	768.3544	801.0929	868.4053	897.6261	915.8646	924.4667	955.8947	1006.6578	1027.0317	1034.6778	1053.4593	1056.3735	1093.3129	1119.6088	1132.0744	1156.2026	1207.2472	1226.9227	1239.9164	1266.1265	1318.3469	1361.1984	1378.5082	1403.7386	1419.5655	1458.8921	1489.9874	1497.5221	1502.2272	2962.2528	3032.8476	3053.9108	3056.4558	3092.9806	3128.2796	3147.601	3188.8603	3203.0569	3809.8222
CC1C2C3OC1C23CO	C[C@H]1[C@H]2[C@H]3O[C@@H]1[C@@]23CO	
InChI=1S/C7H10O2/c1-3-4-6-7(4,2-8)5(3)9-6/h3-6,8H,2H2,1H3	InChI=1S/C7H10O2/c1-3-4-6-7(4,2-8)5(3)9-6/h3-6,8H,2H2,1H3/t3-,4-,5-,6+,7+/m0/s1
