23
gdb 95269	2.4606	1.6704	1.19306	0.183	89.52	-0.2329	0.0299	0.2628	1139.8326	0.20906	-351.191941	-351.183839	-351.182894	-351.224705	32.79	
C	-0.0975681973	 1.5683787189	-0.1068834677	-0.414777
C	 0.1103642032	 0.0549153835	-0.0746253052	 0.048778
C	 1.0290342643	-0.4935211264	-1.1787275827	-0.204028
C	 1.3126386074	-1.9310955724	-0.7194643619	-0.22513
C	 1.5088103411	-1.8223151126	 0.8124256932	-0.004129
C	 2.9878632102	-1.6126437844	 1.2582793022	-0.266171
C	 3.0057058387	-0.238833903	 1.8758359717	-0.07512
C	 1.807940818	 0.3414248485	 1.866343146	-0.058589
C	 0.7375381014	-0.5162295297	 1.2358846134	-0.068928
H	 0.8560483965	 2.1015414011	-0.0331039921	 0.116797
H	-0.5781744755	 1.8756280456	-1.0418314733	 0.108474
H	-0.7346850464	 1.9061116991	 0.7182699108	 0.107647
H	-0.8703611282	-0.4263980219	-0.1960457271	 0.064783
H	 0.5778532237	-0.43840401	-2.1744993556	 0.087617
H	 1.9594136115	 0.0885641183	-1.2084706407	 0.097961
H	 0.4420776396	-2.5606487123	-0.9403374387	 0.090475
H	 2.1714086277	-2.3882454368	-1.2205388589	 0.088753
H	 1.0994650213	-2.7037755676	 1.3110240524	 0.0653
H	 3.311210451	-2.3786206266	 1.9752787307	 0.100411
H	 3.6845329147	-1.6852472398	 0.4118707344	 0.099037
H	 3.9087126909	 0.2014718818	 2.2865598375	 0.086762
H	 1.5952891888	 1.3252917173	 2.271062852	 0.088417
H	-0.0594707225	-0.7173242103	 1.9625841494	 0.06566
49.5451	177.2097	198.9291	251.2529	300.1288	390.7959	400.888	483.0424	555.6514	569.1555	713.3812	744.9206	786.6736	795.4986	821.2112	880.7566	899.5526	936.8657	947.2571	973.1544	979.4451	987.0163	998.9856	1014.8603	1056.3201	1090.6075	1130.1547	1132.6813	1149.9813	1166.79	1197.0812	1206.0848	1249.8637	1290.1229	1294.	1311.997	1321.5574	1326.9678	1347.5648	1355.4076	1378.8479	1390.4464	1412.3316	1483.124	1488.6346	1499.6658	1501.4732	1503.1567	1692.8548	2994.5993	3007.7964	3019.1706	3024.6047	3027.7225	3029.1976	3031.4972	3074.2815	3076.7807	3084.9266	3091.2256	3100.057	3172.3674	3198.5994
CC1CCC2CC=CC12	C[C@H]1CC[C@H]2CC=C[C@@H]12	
InChI=1S/C9H14/c1-7-5-6-8-3-2-4-9(7)8/h2,4,7-9H,3,5-6H2,1H3	InChI=1S/C9H14/c1-7-5-6-8-3-2-4-9(7)8/h2,4,7-9H,3,5-6H2,1H3/t7-,8+,9-/m0/s1
