18
gdb 32199	2.50352	1.49994	0.94901	2.5616	81.81	-0.2396	-0.0097	0.2298	1209.7753	0.148524	-402.009058	-402.000453	-401.999509	-402.042563	31.76	
C	-0.0297148433	 1.5011143539	-0.0149418287	-0.488769
C	-0.0081337191	-0.0065012205	 0.0152701397	 0.257848
N	-0.0224461895	-0.6225160891	-1.1717668028	-0.315606
C	-0.0042935986	-1.9581502777	-1.1953773848	-0.009075
C	 0.0286584316	-2.7422697692	-0.0503501977	-0.130718
C	 0.0435898356	-2.1031293323	 1.185403435	-0.143252
C	 0.0251932321	-0.7132309419	 1.2320000157	 0.208189
C	 0.0399420785	 0.0260433104	 2.5478498835	-0.179943
O	 0.0779815859	-0.9021872856	 3.6164051616	-0.417791
H	 0.8562595227	 1.9286408778	 0.4705808787	 0.126128
H	-0.0574911477	 1.8386743694	-1.0513724802	 0.141628
H	-0.9043540401	 1.9044271007	 0.5101704118	 0.125957
H	-0.0168567361	-2.4173388773	-2.1813031477	 0.102765
H	 0.0422932309	-3.8242082927	-0.122347308	 0.096835
H	 0.069361581	-2.6648196698	 2.1105817151	 0.125659
H	 0.9117956634	 0.70121299	 2.5787436492	 0.103705
H	-0.8526919604	 0.6708274693	 2.6153422946	 0.103766
H	 0.087460653	-0.4088265155	 4.4409395452	 0.292677
70.087	127.6727	161.7401	218.5614	218.915	265.6237	328.5154	453.1057	473.949	525.0285	546.4181	603.9975	758.9983	763.7118	818.2915	858.8822	966.4723	987.5638	987.8791	1037.7574	1067.4612	1075.0087	1091.5981	1140.4103	1195.3155	1204.9681	1260.9745	1268.4159	1303.3609	1312.5892	1402.6173	1446.8969	1468.1578	1476.8634	1486.2887	1496.6489	1509.6076	1612.8871	1632.8214	2952.2037	2969.1361	3022.819	3070.1947	3146.2439	3150.6217	3191.3162	3221.8042	3844.2539
CC1=NC=CC=C1CO	Cc1ncccc1CO	
InChI=1S/C7H9NO/c1-6-7(5-9)3-2-4-8-6/h2-4,9H,5H2,1H3	InChI=1S/C7H9NO/c1-6-7(5-9)3-2-4-8-6/h2-4,9H,5H2,1H3
