17
gdb 125606	1.95236	1.8843	0.97042	2.2648	84.74	-0.217	0.0067	0.2237	1192.5416	0.135004	-380.883994	-380.874571	-380.873627	-380.918665	33.764	
C	-0.0343664324	 1.4785779275	-0.054779606	-0.505159
C	-0.0045879779	-0.0121746444	 0.0259823601	 0.26293
N	-0.00030623	-0.764330093	-1.0650386904	-0.281743
N	 0.0288777479	-2.0386032035	-0.6044623195	-0.260801
C	 0.0433218674	-2.1329583662	 0.7441546297	 0.277776
C	 0.0765240006	-3.4259363524	 1.4857137969	-0.517407
C	 0.0224556653	-0.8202112186	 1.205379168	-0.046042
C	 0.0262930691	-0.3910559833	 2.5496440874	 0.239374
C	 0.029087858	-0.0121696928	 3.6942223579	-0.46742
H	 0.8462428064	 1.9184888316	 0.4255138903	 0.135088
H	-0.0582877455	 1.794177122	-1.0995690141	 0.138792
H	-0.9138380556	 1.884809774	 0.4561396648	 0.135106
H	 0.0364629298	-2.7936454446	-1.2692687076	 0.271386
H	 0.982410823	-4.0004933708	 1.2608859637	 0.139275
H	 0.0593853382	-3.227540793	 2.5590631412	 0.15801
H	-0.7859811059	-4.056558383	 1.2419694809	 0.13836
H	 0.0317677017	 0.3228260704	 4.7013261169	 0.182475
58.6281	83.3486	123.2531	139.5858	201.6544	249.4843	332.9449	365.6801	473.1865	504.1065	525.8717	539.0852	562.0708	652.9206	659.0395	670.2117	730.7111	782.6983	990.4698	1015.1633	1048.9818	1059.6861	1067.9933	1165.4077	1233.6233	1312.7514	1395.7423	1413.7761	1427.1372	1466.9359	1479.3556	1481.86	1484.2449	1512.4178	1525.7524	1608.158	2226.525	3030.694	3038.7078	3082.1596	3090.8385	3135.1067	3136.9238	3504.7056	3670.1502
CC1=NNC(C)=C1C#C	Cc1n[nH]c(C)c1C#C	
InChI=1S/C7H8N2/c1-4-7-5(2)8-9-6(7)3/h1H,2-3H3,(H,8,9)	InChI=1S/C7H8N2/c1-4-7-5(2)8-9-6(7)3/h1H,2-3H3,(H,8,9)
