19
gdb 116061	2.98701	1.27477	0.98424	3.4976	73.95	-0.2516	0.0111	0.2627	1219.5265	0.159385	-460.147508	-460.138828	-460.137884	-460.18127	32.22	
O	 0.3788732539	 1.1039124956	 0.07216367	-0.418234
C	-0.0068626091	-0.2417983063	-0.0764580164	-0.063621
C	-1.5257285861	-0.4153120333	-0.0511445452	 0.177504
O	-1.9625662732	 0.2231422063	 1.1286903042	-0.258268
C	-3.2054834756	-0.1847915206	 1.6622639581	-0.133493
C	-4.4021546033	-0.1413576255	 0.7529195575	-0.065876
C	-4.4613763997	-0.1685157922	-0.5770359107	-0.063737
C	-3.3495681477	-0.2461769857	-1.5869662222	-0.133753
O	-2.0675421376	 0.1908484105	-1.1884659292	-0.232247
H	-0.1582081069	 1.4586945753	 0.7906216166	 0.292906
H	 0.3756642624	-0.5908412427	-1.0398617316	 0.112369
H	 0.4150058052	-0.8810636847	 0.7163680932	 0.0839
H	-1.7876827675	-1.4892973874	-0.0213412754	 0.055758
H	-3.1193797809	-1.2098652224	 2.0691491724	 0.10658
H	-3.3783685138	 0.4712324682	 2.5227223164	 0.122257
H	-5.3440509837	-0.1446337031	 1.2998955792	 0.095119
H	-5.4491237085	-0.1916779098	-1.0356313913	 0.09532
H	-3.2954305357	-1.2885073778	-1.9557853219	 0.103486
H	-3.6052293221	 0.3710880757	-2.4551612436	 0.124029
68.7357	97.4561	151.3688	178.4047	293.565	315.0637	360.0121	397.7104	408.078	455.6569	606.6247	659.2768	721.1365	815.9364	840.6839	882.7576	923.4839	955.0643	1006.9312	1018.3137	1034.0194	1056.5127	1086.3239	1121.0689	1147.0718	1168.995	1237.5645	1267.3274	1279.6428	1296.3246	1373.4495	1376.314	1395.3404	1412.4654	1418.6631	1423.782	1449.0059	1483.3402	1484.5654	1496.3376	1748.4685	2924.1192	2930.48	2936.6409	2974.6705	3059.603	3063.3406	3091.0983	3125.8349	3149.0132	3794.2457
OCC1OCC=CCO1	OC[C@H]1OCC=CCO1	
InChI=1S/C6H10O3/c7-5-6-8-3-1-2-4-9-6/h1-2,6-7H,3-5H2	InChI=1S/C6H10O3/c7-5-6-8-3-1-2-4-9-6/h1-2,6-7H,3-5H2
