19
gdb 111898	2.98162	1.25115	0.97471	2.7643	78.07	-0.24	-0.0006	0.2394	1261.5265	0.157893	-422.998395	-422.989538	-422.988594	-423.032185	32.62	
C	-0.0693786761	 1.3982489857	 0.0206417646	-0.231851
O	 0.1929981959	 0.0204164112	-0.1079503253	-0.241155
C	 0.7003006231	-0.5804463953	 1.0675884242	 0.093602
C	-0.3299392589	-0.8591091264	 2.1561595741	-0.231415
C	-0.3455403449	-2.1395891283	 2.5385936969	 0.336976
C	-1.2028160653	-2.7904596482	 3.5754007795	-0.500747
C	 0.6345597193	-2.9149403347	 1.6991451775	-0.074013
O	 0.2758425698	-2.9115546634	 0.3002717958	-0.245203
C	 1.2484440423	-1.9723599865	 0.7589593856	 0.004204
H	 0.828022748	 1.956872796	 0.3321075598	 0.101604
H	-0.3844137398	 1.7575949531	-0.9620221459	 0.130219
H	-0.8724100398	 1.6094065536	 0.7423754735	 0.106422
H	 1.520418158	 0.0435404628	 1.468477831	 0.067588
H	-0.9913152989	-0.0896116788	 2.5386498109	 0.097472
H	-1.8594915652	-2.067271916	 4.0658507976	 0.127069
H	-1.8264777499	-3.5756564187	 3.1303218203	 0.13955
H	-0.5935167559	-3.2748829366	 4.3488834957	 0.127817
H	 1.1207013427	-3.8184774945	 2.0565440412	 0.094436
H	 2.2453812357	-2.0870594649	 0.3439101028	 0.097426
76.2571	117.7483	157.7411	183.0225	204.7905	243.9081	329.7414	352.0543	475.1278	500.5295	591.0095	595.7133	783.7513	812.6517	850.4291	866.8302	898.3862	939.9671	1002.9664	1010.0914	1016.3829	1064.9526	1078.0439	1103.738	1146.6817	1180.5783	1187.3582	1222.7546	1258.6431	1275.9634	1315.1475	1351.5705	1374.8628	1414.1087	1423.9298	1478.2693	1479.015	1487.4761	1490.5193	1508.832	1709.3321	2929.9643	2971.5861	3019.9024	3020.2982	3068.4213	3114.0265	3114.9682	3151.1792	3163.0452	3192.63
COC1C=C(C)C2OC12	CO[C@H]1C=C(C)[C@H]2O[C@@H]12	
InChI=1S/C7H10O2/c1-4-3-5(8-2)7-6(4)9-7/h3,5-7H,1-2H3	InChI=1S/C7H10O2/c1-4-3-5(8-2)7-6(4)9-7/h3,5-7H,1-2H3/t5-,6+,7-/m0/s1
