17
gdb 47826	2.48678	1.74262	1.15609	4.7733	68.92	-0.2676	-0.0173	0.2503	1047.6598	0.137243	-458.974141	-458.966479	-458.965535	-459.007105	28.736	
O	-0.0542685079	 0.4949383183	 1.2769055328	-0.310592
C	-0.1072988279	 1.2818398764	 0.368946486	 0.398621
O	-1.3054847158	 1.7626188709	-0.0229396074	-0.225468
C	-1.6291427627	 2.0810887264	-1.3842424893	-0.077127
C	-0.9295642524	 3.3063198234	-1.960364727	-0.219928
C	 0.4751697542	 3.0185724183	-2.4872398647	-0.249787
C	 1.466519456	 2.581712614	-1.4385062993	 0.057777
O	 1.4095370221	 3.2199987753	-0.1696035701	-0.236132
C	 1.1906797714	 1.7992992908	-0.2132152195	-0.080118
H	-1.4518079251	 1.1974848915	-2.0119514619	 0.11141
H	-2.7078714164	 2.2476954026	-1.3481688475	 0.131017
H	-1.543261606	 3.6825940472	-2.7867227111	 0.108182
H	-0.8986119965	 4.0897403689	-1.1973284448	 0.13696
H	 0.4376465942	 2.2481506487	-3.2691556635	 0.112443
H	 0.8787078848	 3.9192184462	-2.9663850125	 0.118709
H	 2.4839946843	 2.4605702902	-1.8192314935	 0.099916
H	 2.0122863937	 1.216075721	 0.1987023334	 0.124117
37.2046	141.6334	234.2828	262.0079	338.2385	344.977	429.4708	473.4589	575.4458	672.5093	704.0121	773.2479	805.3087	852.799	887.419	902.2351	970.49	982.1349	1062.5573	1077.0278	1111.6236	1146.9067	1158.6862	1215.5666	1248.0045	1285.9668	1304.9148	1324.5861	1383.0305	1395.7863	1399.465	1429.6369	1458.933	1478.0782	1481.8193	1506.2835	1818.2641	3019.624	3021.9942	3046.0123	3058.4341	3078.1059	3101.7419	3106.92	3136.0548
O=C1OCCCC2OC12	O=C1OCCC[C@H]2O[C@@H]12	
InChI=1S/C6H8O3/c7-6-5-4(9-5)2-1-3-8-6/h4-5H,1-3H2	InChI=1S/C6H8O3/c7-6-5-4(9-5)2-1-3-8-6/h4-5H,1-3H2/t4-,5-/m1/s1
