16
gdb 109526	1.93612	1.48762	1.1593	5.6252	74.77	-0.2465	-0.0102	0.2363	1138.1	0.124132	-396.927107	-396.918	-396.917056	-396.96141	32.127	
C	 0.3524869222	 1.2766099375	 0.2579709022	-0.327908
N	-0.2912222208	 0.1199654959	-0.362075762	-0.283409
C	 0.4876293555	-0.5384195839	-1.3399105239	 0.032985
C	 1.6019390424	-1.5592220033	-1.0130748528	-0.229778
C	 1.877384497	-1.8748074235	 0.3557785345	 0.310397
N	 2.1013229416	-2.0988081729	 1.4687429605	-0.329233
C	 0.2656264344	-1.9962451314	-1.6476838499	-0.236927
C	-0.6837425512	-2.7464892426	-0.8743380942	 0.312501
N	-1.4630597833	-3.3309161076	-0.2510450228	-0.326164
H	 1.2889972677	 1.0360281687	 0.7818972551	 0.128914
H	 0.5709129629	 2.0244118189	-0.5121198362	 0.127621
H	-0.3414064508	 1.725892678	 0.9720013773	 0.137638
H	-0.6584097133	-0.521581216	 0.3314482183	 0.253488
H	 0.7146590851	 0.0838402931	-2.2022354266	 0.128759
H	 2.461503058	-1.6027644764	-1.6735211303	 0.146647
H	 0.3256112926	-2.2990362045	-2.6874480693	 0.154469
91.9762	94.6547	104.1228	147.2609	207.1561	243.9881	272.0274	391.7251	413.3834	472.5766	641.9344	647.7176	660.3979	682.0031	724.9648	792.5337	865.1168	956.9169	997.0841	1048.0497	1078.471	1124.5995	1144.2232	1157.216	1199.8494	1289.5807	1350.9521	1366.899	1381.1651	1464.2457	1490.9742	1506.4882	1531.0441	2351.8692	2359.0655	2999.3121	3073.3578	3123.5801	3141.836	3169.2786	3178.1202	3549.7977
CNC1C(C#N)C1C#N	CN[C@H]1[C@@H](C#N)[C@H]1C#N	
InChI=1S/C6H7N3/c1-9-6-4(2-7)5(6)3-8/h4-6,9H,1H3	InChI=1S/C6H7N3/c1-9-6-4(2-7)5(6)3-8/h4-6,9H,1H3/t4-,5+,6-
