23
gdb 60107	3.54811	0.95518	0.85742	1.5857	86.25	-0.2375	0.0672	0.3046	1461.6381	0.20502	-388.266915	-388.257292	-388.256348	-388.301506	36.89	
C	-0.0835273678	 1.6091737704	-0.0401823372	-0.403203
C	-0.0436514535	 0.0822704887	-0.1054378607	 0.150188
O	 0.9507108371	-0.443860123	 0.7733864637	-0.427
C	-1.4191762149	-0.5528677665	 0.1574537927	-0.351729
C	-1.423815461	-2.0513742465	 0.0283936813	 0.427392
C	-1.5472874264	-2.7496904439	-1.3005598656	-0.316538
C	-2.582795696	-3.0200759555	-0.2413746437	-0.119746
C	-2.0274239788	-4.0128957929	 0.7855456827	-0.224463
C	-0.8387967084	-3.0333472664	 1.05690664	-0.274151
H	 0.9157967569	 2.02132753	-0.2044379418	 0.122827
H	-0.7598028908	 2.0232576848	-0.7952598793	 0.113816
H	-0.4356311374	 1.9481749396	 0.9426754598	 0.104223
H	 0.2932292131	-0.2255845443	-1.1028605131	 0.091433
H	 0.7116106151	-0.1851494631	 1.6705560297	 0.274173
H	-1.7522915241	-0.259608939	 1.1658133649	 0.079705
H	-2.1465509326	-0.1208294045	-0.5424320483	 0.0937
H	-1.8793353916	-2.1238587986	-2.124033446	 0.101786
H	-0.8418066675	-3.5260956451	-1.5910838857	 0.100865
H	-3.6315824859	-2.7997554607	-0.4075292129	 0.077848
H	-2.6706533745	-4.1367816207	 1.6598899169	 0.097649
H	-1.7735545416	-5.006249294	 0.3996001856	 0.092477
H	 0.1722790009	-3.3954745343	 0.8509882744	 0.101573
H	-0.8593805502	-2.6368818244	 2.0755929328	 0.087175
57.9814	90.5073	123.531	231.1875	241.2735	271.4624	299.4056	308.9801	375.5408	426.1053	462.1368	473.7406	682.7317	733.1372	783.0331	814.9701	865.1575	886.3455	893.9897	932.0222	945.1346	958.7196	971.6561	1010.328	1027.2563	1048.4223	1080.4607	1088.8805	1101.9691	1147.4996	1157.0867	1172.8764	1220.1357	1240.1815	1258.6914	1264.5192	1307.9957	1313.513	1340.7886	1379.2823	1402.8174	1405.3515	1422.8178	1469.6872	1481.7808	1485.6445	1492.6536	1496.0177	1511.8328	2982.3881	3021.992	3035.2713	3040.1398	3046.2544	3055.1664	3090.642	3091.9393	3096.7361	3109.5087	3117.0116	3167.0215	3187.2177	3794.825
CC(O)CC12CC1CC2	C[C@@H](O)C[C@]12C[C@H]1CC2	
InChI=1S/C8H14O/c1-6(9)4-8-3-2-7(8)5-8/h6-7,9H,2-5H2,1H3	InChI=1S/C8H14O/c1-6(9)4-8-3-2-7(8)5-8/h6-7,9H,2-5H2,1H3/t6-,7-,8-/m1/s1
