19
gdb 75918	2.79003	1.57044	1.11996	3.7703	76.42	-0.2177	0.0639	0.2816	1104.0729	0.160819	-419.241757	-419.233282	-419.232338	-419.274766	32.252	
C	-0.1100601725	 1.4114751136	 0.0307421186	-0.356018
N	-0.1192160036	-0.0297066953	 0.0373143942	-0.158232
C	 0.1446406124	-0.752820551	-1.113723732	 0.442661
O	 0.1989551873	-0.31633511	-2.2442655279	-0.426046
N	 0.344620611	-2.0750963847	-0.7267046814	-0.365192
C	-0.0957753895	-2.2775267959	 0.6465273958	-0.235681
C	 0.0022830878	-0.8584717853	 1.208718417	 0.383278
C	 0.9314960458	-0.524838904	 2.3503252358	-0.317976
C	-0.5773352635	-0.493207882	 2.5383750692	-0.331894
H	 0.7935100092	 1.8275543299	 0.4969837231	 0.118872
H	-0.1361077049	 1.7230655817	-1.0149450837	 0.168744
H	-0.9874597089	 1.8173571944	 0.5461933982	 0.122863
H	 0.1498764502	-2.7694590728	-1.4307146878	 0.251138
H	-1.131368353	-2.6466626849	 0.7017787583	 0.106627
H	 0.5495632615	-2.9771877726	 1.1858539851	 0.115744
H	 1.4943043241	-1.3353259306	 2.8013739696	 0.11816
H	 1.4513828473	 0.4263725873	 2.3364712596	 0.122048
H	-1.0470262305	 0.4779622417	 2.6483582268	 0.122016
H	-1.0466901401	-1.2797175391	 3.1210914813	 0.118887
89.2923	119.7282	189.5679	209.0552	259.2284	312.0323	335.6271	455.3295	501.3343	515.4758	538.728	703.4228	729.8221	761.0674	770.0424	837.681	903.3313	919.9338	954.2202	1003.3535	1052.6581	1065.5828	1079.7952	1095.396	1155.7642	1176.419	1187.928	1200.0109	1226.3884	1274.0198	1328.9514	1377.6302	1422.2731	1430.2949	1457.9452	1460.752	1496.3797	1506.8066	1521.5493	1528.8547	1830.7845	2981.5096	3007.1535	3064.4745	3071.3913	3129.4153	3135.1223	3141.244	3210.6149	3226.0337	3639.8466
CN1C(=O)NCC11CC1	CN1C(=O)NCC21CC2	
InChI=1S/C6H10N2O/c1-8-5(9)7-4-6(8)2-3-6/h2-4H2,1H3,(H,7,9)	InChI=1S/C6H10N2O/c1-8-5(9)7-4-6(8)2-3-6/h2-4H2,1H3,(H,7,9)
