20
gdb 62896	3.88047	1.13904	0.99406	4.484	84.68	-0.301	0.0277	0.3288	1237.0849	0.171056	-365.977655	-365.968972	-365.968028	-366.010724	33.593	
N	 1.2097719583	-0.8634192612	-1.3390149875	-0.339937
C	 0.9350885946	 0.192962684	-0.9560570225	 0.254869
C	 0.5543218363	 1.522659874	-0.5064904289	-0.139054
C	 0.5094585179	 1.8161324658	 1.0348781395	-0.079668
C	 2.0634607779	 1.7067317961	 1.0052714155	-0.263428
C	 1.6815879279	 2.5788631489	-0.2281483426	-0.079661
C	 0.6490172972	 3.3494230074	 0.6846663344	 0.348517
C	-0.5322759102	 4.0758675113	 0.0272108348	-0.473243
C	 1.1985761905	 4.2910693552	 1.7631698709	-0.471223
H	-0.2969209755	 1.8548507419	-1.0959125963	 0.109606
H	-0.1777470337	 1.3550876827	 1.7461960551	 0.084364
H	 2.6254358583	 2.1739208619	 1.808948438	 0.102777
H	 2.4665047705	 0.718168773	 0.7823018625	 0.130855
H	 2.3514173728	 3.00104564	-0.9790656378	 0.084359
H	-1.0352128822	 3.5278214921	-0.7699722192	 0.120457
H	-1.2887497721	 4.3143900346	 0.7828608594	 0.12307
H	-0.1934766736	 5.0269725898	-0.3979537677	 0.123072
H	 1.5063245103	 5.2386142198	 1.3072919973	 0.121436
H	 0.4110871336	 4.5257067296	 2.4878613771	 0.121435
H	 2.0509029311	 3.904907763	 2.320689828	 0.121397
98.9243	139.0796	154.4767	202.6438	210.4604	348.5836	379.8022	423.0846	488.9675	511.04	549.7109	566.7808	680.6325	732.9897	820.5056	866.5736	891.1104	898.0038	954.7182	959.8479	1005.6895	1008.3254	1024.094	1060.6049	1067.4264	1098.9415	1140.3268	1168.0472	1184.0168	1194.2703	1212.2092	1221.7655	1245.7015	1305.5104	1364.4177	1417.1328	1432.9717	1483.0842	1488.9436	1512.0688	1512.8245	1547.249	2348.8389	3036.2299	3042.6492	3088.7323	3095.483	3095.5653	3101.5579	3109.3059	3126.3901	3140.217	3148.5749	3177.8216
N#CC1C2CC1C2(C)C	N#C[C@H]1[C@H]2C[C@@H]1C2(C)C	
InChI=1S/C8H11N/c1-8(2)6-3-7(8)5(6)4-9/h5-7H,3H2,1-2H3	InChI=1S/C8H11N/c1-8(2)6-3-7(8)5(6)4-9/h5-7H,3H2,1-2H3/t5-,6+,7-
