17
gdb 38405	4.27253	1.31214	1.20573	1.6202	71.01	-0.2524	0.0807	0.3331	1032.2189	0.135622	-421.735655	-421.728635	-421.72769	-421.767151	27.977	
C	-0.0048882637	 1.5702192114	-0.0552827928	-0.335086
C	 1.5275747495	 1.5142335014	-0.1134427434	 0.03784
O	 1.9668903747	 0.8322727799	 1.0691122571	-0.247393
C	 1.5266717657	 0.0441893018	-0.0431199234	-0.069001
C	-0.0066329735	 0.0050721026	 0.0142214819	 0.349479
C	-0.72147692	-0.8623199796	 1.1056255337	-0.335071
C	-1.4207465951	-1.6215735081	-0.0299488685	 0.037833
O	-2.1533528978	-0.6528384175	-0.7924054949	-0.247392
C	-0.7533520574	-0.8036734326	-1.0554257501	-0.069006
H	-0.4143794031	 2.1020347377	 0.8064009832	 0.115068
H	-0.4726977941	 1.9389358576	-0.9714609248	 0.116067
H	 2.2282949516	 2.1976627084	-0.5783556706	 0.106396
H	 2.2175852139	-0.695683929	-0.4328087863	 0.101367
H	-0.0121637345	-1.4671756761	 1.6758869562	 0.116071
H	-1.3915198479	-0.338006304	 1.790570037	 0.115068
H	-1.7731640891	-2.6457191176	-0.0639441697	 0.106396
H	-0.4602387892	-1.0265716962	-2.0757358345	 0.101366
120.5151	131.9972	230.2592	373.8304	397.8588	406.36	557.4192	572.3357	761.965	800.8521	821.6374	844.64	848.0557	861.3301	862.6208	917.0588	943.0961	971.6682	983.2109	993.0617	1038.7412	1041.9822	1083.7339	1115.8131	1130.8716	1178.861	1192.3485	1227.3822	1228.7005	1233.1359	1259.6911	1270.0968	1311.2794	1374.8427	1389.0991	1469.2963	1469.7848	3067.2502	3068.3485	3124.2817	3126.0954	3171.0767	3173.1219	3192.2099	3193.5265
C1C2OC2C11CC2OC12	C1[C@H]2O[C@H]2[C@]21C[C@H]1O[C@@H]21	
InChI=1S/C7H8O2/c1-3-5(8-3)7(1)2-4-6(7)9-4/h3-6H,1-2H2	InChI=1S/C7H8O2/c1-3-5(8-3)7(1)2-4-6(7)9-4/h3-6H,1-2H2/t3-,4-,5-,6-,7+/m1/s1
