18
gdb 67249	3.06063	1.56601	1.29891	1.1876	75.85	-0.2239	0.0688	0.2927	1028.52	0.147719	-401.844819	-401.837285	-401.836341	-401.876557	29.987	
C	-0.0402434435	 1.5739364733	-0.0688765217	-0.531652
C	 0.0075811176	 0.0845006446	 0.0077758042	 0.301236
C	 0.068089583	-1.0333245479	-0.9723892882	 0.035569
O	 1.1920871289	-1.6947319902	-0.3827465502	-0.289686
C	 0.8685840117	-0.96492706	 0.8343558526	-0.115706
C	-0.4457410027	-1.6045910052	 1.2977089666	 0.438729
C	-0.6806269932	-2.8139035682	 2.0990906665	-0.320168
N	-1.0288837556	-1.4628557554	 2.6260384638	-0.384415
C	-1.0760732949	-1.0050366486	 0.0638188414	-0.271615
H	 0.9348194381	 1.9937074807	-0.3403143564	 0.128599
H	-0.764036398	 1.8937008789	-0.8261045493	 0.128557
H	-0.3468482445	 2.0151176919	 0.8859402282	 0.13021
H	-0.067498174	-1.0797246623	-2.0454508912	 0.109064
H	 1.7200615816	-0.7960764809	 1.4936109972	 0.081369
H	-1.5371005151	-3.4507273528	 1.8958086684	 0.120919
H	 0.1796822722	-3.3306794493	 2.5173987556	 0.114017
H	-0.3202980727	-1.1657805132	 3.2945317388	 0.227184
H	-2.1231009591	-0.9289676552	-0.1988085664	 0.097788
119.4872	199.3893	219.583	260.801	300.174	324.4405	483.7968	546.0188	598.1431	645.0409	759.7554	793.8274	847.128	867.9146	888.0683	905.4761	929.2061	936.7462	961.2351	974.6159	1002.7354	1019.8683	1057.8098	1077.3707	1116.5279	1127.4822	1146.6171	1165.0765	1187.5832	1215.3406	1259.2465	1268.4914	1300.1187	1412.2103	1443.8325	1462.3221	1484.3496	1496.6389	1520.8036	3025.5533	3088.3682	3096.1797	3106.0098	3123.8063	3191.077	3199.3251	3210.2937	3475.1129
CC12C3OC1C1(CN1)C23	C[C@@]12[C@H]3O[C@@H]1[C@]1(CN1)[C@@H]23	
InChI=1S/C7H9NO/c1-6-3-4(6)9-5(6)7(3)2-8-7/h3-5,8H,2H2,1H3	InChI=1S/C7H9NO/c1-6-3-4(6)9-5(6)7(3)2-8-7/h3-5,8H,2H2,1H3/t3-,4+,5+,6-,7+/m1/s1
