22
gdb 121943	5.16668	0.66252	0.63465	2.7613	80.14	-0.2372	0.0759	0.3131	1843.2018	0.193238	-441.448678	-441.43836	-441.437416	-441.484944	36.941	
C	-0.1356193052	 1.4325700702	-0.2460754531	-0.387064
C	-0.0586020936	-0.0803985591	-0.1379831616	-0.032235
O	-1.3655673708	-0.5873473391	 0.0676676431	-0.264411
C	-1.4283467126	-1.9980341824	 0.1591838013	-0.082063
C	-2.910659421	-2.3672771659	 0.2275562401	 0.08091
O	-3.5942033312	-1.78941931	-0.8724979845	-0.44564
C	-3.1082764791	-3.8693167719	 0.1931259618	 0.011534
C	-4.3701778856	-4.4518273031	-0.3155737031	-0.247028
N	-3.1225753531	-4.5723946996	-1.0983397351	-0.325608
H	 0.8623861395	 1.853170113	-0.3999040054	 0.120491
H	-0.7684731329	 1.7275605642	-1.0881349701	 0.125449
H	-0.5566499323	 1.8622375447	 0.6671886778	 0.130066
H	 0.3737710613	-0.5165664257	-1.0532885951	 0.093656
H	 0.5924660675	-0.3769179589	 0.7002367562	 0.09336
H	-0.9667133382	-2.4630675755	-0.7264838837	 0.100993
H	-0.8955057448	-2.3599217956	 1.0527431529	 0.093238
H	-3.3150732899	-1.9730067549	 1.1751870169	 0.077886
H	-3.2113477175	-0.9096634368	-0.9801719739	 0.293544
H	-2.5723752526	-4.3964563516	 0.9808658273	 0.086167
H	-4.7426645278	-5.3828915915	 0.1020235845	 0.111725
H	-5.1293346261	-3.7637185678	-0.6731342197	 0.128264
H	-3.1520512941	-3.8616186627	-1.8280748269	 0.236766
49.5224	72.7054	91.4739	121.6754	160.3772	226.5235	248.6488	277.3214	328.4067	356.6553	461.1155	480.859	545.1843	641.3678	788.1925	821.0973	855.6412	884.5495	918.2947	952.9039	996.0168	1003.9804	1048.6446	1090.7248	1107.5049	1130.1534	1146.7733	1155.5774	1169.0608	1186.9356	1205.4728	1254.747	1265.0237	1289.9209	1297.3224	1318.9555	1340.1448	1384.8454	1402.0384	1407.4127	1441.8501	1461.0971	1484.2831	1498.572	1505.431	1506.1394	1533.7588	2959.9696	2963.8351	2975.4934	2994.9195	3013.5412	3045.8156	3115.8522	3120.2306	3122.0308	3122.9269	3209.3405	3482.6319	3780.217
CCOCC(O)C1CN1	CCOC[C@@H](O)[C@H]1CN1	
InChI=1S/C6H13NO2/c1-2-9-4-6(8)5-3-7-5/h5-8H,2-4H2,1H3	InChI=1S/C6H13NO2/c1-2-9-4-6(8)5-3-7-5/h5-8H,2-4H2,1H3/t5-,6-/m1/s1
