21
gdb 82763	2.68265	1.86158	1.47906	1.5655	80.51	-0.233	0.0924	0.3254	984.8106	0.186342	-387.084009	-387.077025	-387.076081	-387.114958	29.565	
C	-0.0050826306	 1.5992875836	 0.0200119519	-0.436299
C	 0.0609395939	 0.0731861082	-0.0270066329	 0.039581
C	 0.9249597773	-0.5533238234	-1.1487446479	-0.056798
C	 2.3648298509	-0.1605218971	-0.7162975732	-0.248143
C	 2.0787465419	-1.1231842381	 0.4556006702	-0.041492
C	 1.2404684068	-1.9777764101	-0.5411960915	-0.03418
C	 0.1584753937	-2.6508987838	 0.2995379221	-0.11927
O	 0.076989056	-1.8370333363	 1.4809529198	-0.27405
C	 0.7861581835	-0.6353164016	 1.1638620914	 0.094098
H	 0.9727221635	 2.0648228276	 0.1721358782	 0.117807
H	-0.4221196298	 2.0034168756	-0.9092776354	 0.113549
H	-0.6515971149	 1.9257396083	 0.8416136801	 0.117629
H	-0.965062139	-0.3070718891	-0.0648381515	 0.077551
H	 0.5800624959	-0.4315884583	-2.1768477901	 0.057031
H	 3.1245629539	-0.5658247235	-1.3898675132	 0.097451
H	 2.5909762588	 0.8871869646	-0.5085254826	 0.092569
H	 2.8563129911	-1.5494992638	 1.0889381373	 0.065135
H	 1.803077486	-2.6293933965	-1.2099703098	 0.072749
H	-0.8155399176	-2.6970499105	-0.2077570525	 0.094399
H	 0.4353738026	-3.6703312188	 0.593589943	 0.100986
H	 0.8903292661	-0.0538066869	 2.0806447464	 0.069694
172.7233	221.6779	268.6878	308.4327	386.0726	434.8902	499.8262	594.9471	683.8341	735.7932	791.0478	813.2399	840.4803	877.8389	896.6741	925.96	940.7254	958.509	983.0142	1010.7578	1018.9898	1039.9629	1052.9436	1067.3612	1088.8233	1110.9829	1122.3522	1142.3779	1177.5936	1200.132	1226.3964	1234.6621	1249.8994	1266.4323	1293.1333	1309.585	1319.077	1339.3756	1377.5164	1395.9589	1413.242	1494.417	1499.7381	1522.8197	1525.3939	3001.3171	3032.2175	3046.0032	3049.7594	3064.4441	3092.7623	3098.8496	3106.3879	3109.8256	3114.5763	3119.0849	3125.0815
CC1C2CC3C2COC13	C[C@H]1[C@H]2C[C@@H]3[C@H]2CO[C@H]13	
InChI=1S/C8H12O/c1-4-5-2-6-7(5)3-9-8(4)6/h4-8H,2-3H2,1H3	InChI=1S/C8H12O/c1-4-5-2-6-7(5)3-9-8(4)6/h4-8H,2-3H2,1H3/t4-,5+,6+,7-,8+/m0/s1
