19
gdb 40589	5.63506	1.04827	1.02843	1.3509	80.58	-0.2175	0.0704	0.2879	1215.8691	0.160281	-381.925392	-381.918213	-381.917269	-381.957251	29.06	
C	-0.1220404488	 1.5375830999	-0.0276416607	-0.276446
C	 1.3077785257	 1.0723881094	 0.1075940315	-0.277647
C	 0.1965024421	 0.0660520991	-0.0315396262	 0.070906
N	-0.1566667878	-0.679874437	 1.1483774158	-0.134276
C	 0.3556228264	-2.0831954669	 1.2152421279	-0.031872
C	-0.8571967056	-2.5355498216	 2.0887719009	-0.038758
N	-1.2454111629	-3.7057894844	 1.2377433383	-0.34838
C	-0.7370522453	-2.6970114439	 0.2538642467	-0.049263
C	-1.394282902	-1.5139829065	 1.0505505621	 0.000278
H	-0.6037321212	 1.9249467426	 0.8626358003	 0.11886
H	-0.4333365689	 1.9998902064	-0.9575662734	 0.109198
H	 1.9825741561	 1.214006077	-0.7290761665	 0.108694
H	 1.7654427935	 1.1544486906	 1.0866609689	 0.118214
H	 0.1200387603	-0.4479600588	-0.9932833894	 0.070535
H	 1.4136120394	-2.3353225585	 1.3150218351	 0.081364
H	-0.9592100085	-2.5033587561	 3.1729625427	 0.090471
H	-0.5642226467	-4.4617235975	 1.3486996742	 0.208378
H	-0.707120871	-2.8881190052	-0.8191880946	 0.08703
H	-2.399973595	-1.1051761786	 0.9569479064	 0.092714
78.6648	151.153	183.7309	332.7706	410.1753	500.0894	531.8805	745.6691	752.3277	780.324	804.3624	812.2322	825.2825	833.8516	879.9743	907.331	914.6651	927.7019	969.2443	1013.4398	1038.5757	1048.3766	1055.529	1076.2226	1100.1896	1106.5267	1129.8407	1145.6104	1155.4637	1167.7111	1174.6003	1197.8981	1198.1747	1217.8557	1233.4858	1295.5783	1305.0656	1345.4387	1401.4132	1455.2537	1496.7794	3056.6943	3092.8827	3111.9519	3121.9165	3135.1601	3137.3686	3141.8334	3221.9148	3235.451	3399.4941
C1CC1N1C2C3NC2C13	C1CC1N1[C@H]2[C@@H]3N[C@H]2[C@H]13	
InChI=1S/C7H10N2/c1-2-3(1)9-6-4-7(9)5(6)8-4/h3-8H,1-2H2	InChI=1S/C7H10N2/c1-2-3(1)9-6-4-7(9)5(6)8-4/h3-8H,1-2H2/t4-,5+,6-,7+
