17
gdb 75371	2.82527	1.79082	1.434	2.4752	68.91	-0.2282	0.0214	0.2496	939.0229	0.139441	-455.157912	-455.150867	-455.149923	-455.18917	28.214	
N	 0.0045807152	 1.3513934083	 0.1219942384	-0.557614
C	-0.0601703094	-0.0236128465	-0.0016099415	 0.370108
N	-1.1798215094	-0.6303816247	-0.0553424915	-0.297249
C	-1.1556394617	-2.0900778154	-0.0300494125	-0.168236
C	 0.2509791388	-2.6861741648	 0.1051842665	 0.166464
O	 0.7489895279	-2.5275875833	 1.4337312757	-0.272601
C	 1.5259061811	-1.3307790579	 1.4482223162	-0.082766
C	 1.2734938368	-0.7589866598	 0.0386098917	-0.052825
O	 1.1379751515	-1.9558964161	-0.7227388982	-0.239836
H	 0.7727964209	 1.8097852165	-0.3458010416	 0.248744
H	-0.8866974402	 1.8085369885	-0.0197557765	 0.254388
H	-1.769302883	-2.4460484736	 0.8062760634	 0.115177
H	-1.6249545905	-2.4644581288	-0.9500894186	 0.105885
H	 0.2973049627	-3.7433642678	-0.1708786632	 0.09251
H	 1.1844705736	-0.6661700838	 2.2474847319	 0.123228
H	 2.5861963675	-1.5697935482	 1.5969225433	 0.105375
H	 2.1025893782	-0.1736798527	-0.3644241933	 0.089248
121.0147	226.6244	258.2823	354.08	365.5878	429.6646	466.2308	525.3266	593.8287	689.5117	716.7119	754.994	827.7663	840.2143	883.1788	909.1708	961.267	1006.5662	1010.7946	1028.153	1043.8637	1080.5705	1140.2676	1195.8673	1206.1857	1240.2619	1258.2343	1288.0744	1327.5887	1344.2597	1375.5444	1380.8305	1420.1903	1474.1785	1522.1963	1627.5699	1742.7272	3014.8488	3024.0815	3054.0975	3080.5796	3086.8476	3098.1024	3549.3875	3662.418
NC1=NCC2OCC1O2	NC1=NC[C@@H]2OC[C@H]1O2	
InChI=1S/C5H8N2O2/c6-5-3-2-8-4(9-3)1-7-5/h3-4H,1-2H2,(H2,6,7)	InChI=1S/C5H8N2O2/c6-5-3-2-8-4(9-3)1-7-5/h3-4H,1-2H2,(H2,6,7)/t3-,4-/m1/s1
