17
gdb 37729	3.22968	2.05388	1.67328	0.5173	69.06	-0.2325	0.0819	0.3144	832.4722	0.139746	-421.775806	-421.769988	-421.769044	-421.80588	24.823	
C	 0.0014332549	 1.5941403816	-0.1008264123	-0.100568
O	 1.2145599765	 2.2199745845	 0.300153131	-0.271832
C	 2.2035646902	 1.3463208161	 0.7462584825	 0.117492
C	 2.4714685651	-0.0039763801	 0.13684009	-0.123087
C	 1.9317792685	 0.1197558139	 1.5758129377	-0.1231
C	 0.5765362771	-0.5696459612	 1.3445139073	 0.048763
O	 0.9350884525	-1.7423222013	 0.5360890409	-0.300373
C	 1.2584532684	-0.7259571128	-0.4737232564	 0.048756
C	 0.0468838218	 0.0875056905	 0.045673999	-0.058735
H	-0.8188012022	 2.0062175926	 0.5046500845	 0.104792
H	-0.1993867753	 1.8642803638	-1.1476680322	 0.104801
H	 3.0774859619	 1.9274347038	 1.0240647175	 0.108611
H	 3.4763393949	-0.3375234366	-0.0918359881	 0.094885
H	 2.5222709811	-0.1187639861	 2.4520206894	 0.094885
H	-0.0490446291	-0.797629075	 2.2065456491	 0.081026
H	 1.3365595128	-1.1152453942	-1.4880111039	 0.081028
H	-0.8883171191	-0.3788781294	-0.2649750759	 0.092656
133.4782	332.4101	447.8746	526.0271	560.249	624.6868	690.9422	741.6087	757.0763	767.8093	834.8214	842.9813	870.8108	898.1678	898.6491	942.8999	971.395	1021.9775	1028.798	1066.3678	1075.3784	1080.6965	1101.012	1121.6273	1170.9453	1196.2445	1221.0642	1261.8493	1272.6111	1278.5987	1284.7212	1313.1338	1336.0129	1372.8833	1409.4095	1447.7317	1519.4486	2991.4335	3017.6646	3114.7378	3129.8318	3133.9253	3161.0331	3180.4107	3189.8915
C1OC2C3C2C2OC3C12	C1O[C@@H]2[C@H]3[C@@H]2[C@@H]2O[C@H]3[C@H]12	
InChI=1S/C7H8O2/c1-2-5-3-4(6(2)9-5)7(3)8-1/h2-7H,1H2	InChI=1S/C7H8O2/c1-2-5-3-4(6(2)9-5)7(3)8-1/h2-7H,1H2/t2-,3-,4+,5-,6+,7+
