23
gdb 101400	2.83241	1.0045	0.79243	2.6285	86.76	-0.2359	-0.0171	0.2188	1517.9447	0.203967	-388.312684	-388.302473	-388.301529	-388.348269	37.653	
C	-0.1366475577	 1.5892152797	-0.092127161	-0.3911
C	-0.0621946499	 0.063203756	 0.0245935993	-0.170243
C	 0.762954342	-0.4479588086	 1.221434205	 0.021903
C	 0.154331459	-0.0519689773	 2.5754133344	-0.408223
C	 0.9354332649	-1.9695623234	 1.1428754988	-0.085899
C	 1.7165755688	-2.6204303906	-0.0463652942	-0.257414
C	 2.5109583073	-3.5204010689	 0.9465638371	-0.33689
C	 1.952126669	-2.6504642215	 2.0826802961	 0.383944
O	 2.2664820021	-2.4825757601	 3.2270408203	-0.300597
H	 0.8647925519	 2.0300695286	-0.1545759315	 0.113899
H	-0.684979784	 1.884417933	-0.9921694118	 0.112282
H	-0.6451138457	 2.0409919857	 0.7645460963	 0.121276
H	-1.0781758406	-0.3504021791	 0.0942727584	 0.091369
H	 0.36637635	-0.3407645008	-0.9011368529	 0.095334
H	 1.7661785007	 0.0002147442	 1.1536548577	 0.06892
H	 0.7404517277	-0.468477252	 3.3977400862	 0.14791
H	 0.1182730331	 1.0342127257	 2.6966158543	 0.11176
H	-0.8711333365	-0.431944544	 2.6638595184	 0.106172
H	-0.042061921	-2.4569600297	 1.2699917344	 0.095895
H	 1.1162604947	-3.1393535476	-0.7942937219	 0.107935
H	 2.362789265	-1.8983214706	-0.5523457142	 0.112198
H	 2.1329901523	-4.5465071765	 1.0045012765	 0.131406
H	 3.599619947	-3.557680022	 0.859648924	 0.128162
63.4972	77.7275	102.7775	136.3413	213.4675	230.325	249.0108	295.301	346.3931	357.159	443.3081	479.2545	557.9665	681.9472	725.8531	771.6442	787.973	848.2671	908.6011	932.1979	961.7278	985.0914	998.7785	1002.7724	1047.3479	1053.7667	1089.7033	1153.1999	1171.8177	1186.2248	1199.2738	1224.2477	1235.5073	1260.2507	1275.8472	1304.855	1344.7462	1365.8263	1384.3713	1410.9818	1416.8389	1441.1637	1484.0208	1491.9644	1496.5196	1500.8479	1508.1475	1517.4043	1877.3608	2985.2954	3009.1245	3014.3112	3030.4279	3034.3504	3047.4243	3057.0953	3070.2799	3098.387	3098.8107	3111.5895	3111.6932	3130.7794	3132.0346
CCC(C)C1CCC1=O	CC[C@@H](C)[C@H]1CCC1=O	
InChI=1S/C8H14O/c1-3-6(2)7-4-5-8(7)9/h6-7H,3-5H2,1-2H3	InChI=1S/C8H14O/c1-3-6(2)7-4-5-8(7)9/h6-7H,3-5H2,1-2H3/t6-,7-/m1/s1
