20
gdb 120020	2.37701	1.26162	0.89454	3.6652	76.45	-0.249	0.0316	0.2806	1330.6255	0.169867	-440.296862	-440.28705	-440.286106	-440.332027	35.169	
C	 0.2877936672	 0.750677055	 0.6157826891	-0.257701
O	-0.3071894787	 0.4362797014	-0.6331275202	-0.236319
C	 0.5192363168	-0.2975137249	-1.5050392794	-0.093781
C	 0.5419564206	-1.7983246675	-1.1859403846	-0.190081
C	 1.2042106681	-2.7871414153	-2.213663052	 0.045174
C	 1.872676935	-2.2252854753	-3.4611381635	-0.399405
N	 2.1208943872	-3.1690182326	-1.1303564177	-0.332609
C	 1.5858015302	-2.3433750933	-0.1764011863	 0.438997
O	 1.854555259	-2.1586757968	 0.9833586751	-0.369097
H	 0.5661270037	-0.1443540645	 1.1844269725	 0.151924
H	 1.1900182204	 1.367490183	 0.4789766383	 0.099761
H	-0.4508619918	 1.3291589774	 1.1759127985	 0.119952
H	 0.0941544902	-0.1591899779	-2.5061015624	 0.10758
H	 1.5396616657	 0.1168631526	-1.5172702719	 0.092981
H	-0.4728691044	-2.1007896322	-0.9117431459	 0.111471
H	 0.5270463068	-3.6038562279	-2.4919356606	 0.088574
H	 2.5589878532	-1.4097085153	-3.2173641831	 0.127336
H	 2.4454407203	-3.0065510299	-3.9720820892	 0.119502
H	 1.1232163412	-1.8530747067	-4.1669822087	 0.128223
H	 2.8232740194	-3.8916084794	-1.064730238	 0.247519
68.931	73.6271	124.9113	163.0919	202.5542	219.9363	248.9237	309.8326	370.4882	410.6041	457.2193	493.4268	508.0496	697.5605	733.1604	802.7149	882.6245	910.204	947.0861	1019.8639	1050.0488	1077.0047	1127.5418	1134.5129	1153.2875	1184.3002	1186.8882	1205.2385	1229.5047	1288.1263	1294.8401	1350.884	1386.6054	1394.359	1405.8242	1415.9355	1477.9233	1489.0105	1494.7511	1499.5004	1503.4031	1519.9958	1876.8697	2977.0491	2983.9517	3025.9349	3037.8383	3054.4174	3064.4375	3081.5856	3102.2041	3120.3522	3121.4522	3602.5803
COCC1C(C)NC1=O	COC[C@H]1[C@@H](C)NC1=O	
InChI=1S/C6H11NO2/c1-4-5(3-9-2)6(8)7-4/h4-5H,3H2,1-2H3,(H,7,8)	InChI=1S/C6H11NO2/c1-4-5(3-9-2)6(8)7-4/h4-5H,3H2,1-2H3,(H,7,8)/t4-,5+/m1/s1
