19
gdb 56983	2.86122	1.31624	1.00417	4.193	79.78	-0.2296	0.0298	0.2594	1205.1261	0.159225	-382.033931	-382.025337	-382.024393	-382.067386	32.388	
C	-0.0214817714	 1.5471920586	 0.0044086585	-0.392663
C	-0.007589855	 0.0144402606	-0.1033231254	-0.111248
C	 0.7810657677	-0.4128876051	-1.2702840364	 0.297935
N	 1.390707715	-0.7485487121	-2.1923820801	-0.329517
N	 0.5777771741	-0.5776753302	 1.096797735	-0.082691
C	-0.1997858267	-0.5144220763	 2.3738312492	-0.189578
C	-0.0351234417	-2.0263253835	 2.5396587824	-0.073035
C	-0.6552074899	-2.7253964376	 1.3570713164	-0.292922
C	 0.6750974824	-2.0359854455	 1.1969845968	 0.000805
H	 0.9933964083	 1.9223151407	 0.1525660934	 0.146189
H	-0.4422359688	 1.9946278914	-0.8991698668	 0.136005
H	-0.6352033655	 1.8504142155	 0.8570179508	 0.127585
H	-1.0422146438	-0.3333654948	-0.2836689124	 0.101801
H	 0.3094888777	 0.096262591	 3.1247472937	 0.117377
H	-1.2369811601	-0.1652271732	 2.2720339458	 0.099347
H	 0.2372880915	-2.5319576792	 3.4554225555	 0.101217
H	-0.6027986652	-3.8092117764	 1.3779795482	 0.121753
H	-1.5580672135	-2.3320397737	 0.8963672969	 0.10895
H	 1.573997225	-2.5471039304	 0.8736853584	 0.112689
64.8136	129.0618	155.4813	217.0503	231.4608	292.3735	372.4602	388.2398	486.1825	517.2606	577.3913	711.3146	785.8075	790.7957	824.0576	872.2212	928.3816	957.1026	976.3718	999.9668	1035.1854	1061.6883	1067.986	1075.4269	1100.2884	1110.2837	1155.0941	1162.6798	1187.778	1239.1008	1273.6259	1306.1579	1330.7844	1351.3305	1371.2825	1406.8966	1480.6403	1488.2901	1496.0515	1508.0456	2362.0298	2921.9622	3003.849	3053.2208	3078.3667	3113.3641	3128.4127	3142.1873	3183.5751	3202.4558	3215.9633
CC(C#N)N1CC2CC12	C[C@@H](C#N)N1C[C@H]2C[C@@H]12	
InChI=1S/C7H10N2/c1-5(3-8)9-4-6-2-7(6)9/h5-7H,2,4H2,1H3	InChI=1S/C7H10N2/c1-5(3-8)9-4-6-2-7(6)9/h5-7H,2,4H2,1H3/t5-,6+,7+/m0/s1
