23
gdb 104686	2.2031	1.39844	1.05877	1.3116	85.52	-0.2475	0.0727	0.3202	1263.4605	0.205578	-388.256784	-388.247161	-388.246217	-388.291084	36.765	
C	 0.2513095426	-1.1033087606	 1.8660610269	-0.380971
C	 0.0363032672	-0.4489716447	 0.494409621	-0.269926
C	-1.3478870164	-0.6952353146	-0.0924067358	 0.376655
C	-2.4536686749	 0.0850250717	 0.592668554	-0.153885
O	-2.2192025004	 1.4749521875	 0.3866730248	-0.424199
C	-1.6142358951	-0.8701367499	-1.5707278256	-0.088321
C	-0.4967439013	-1.6344940871	-2.2896050911	-0.250024
C	-0.6793465511	-2.8189665961	-1.2861850139	-0.247233
C	-1.8114992013	-2.0416250386	-0.5974895336	-0.115956
H	 1.265747734	-0.9166459682	 2.2325926506	 0.108914
H	-0.4426179128	-0.7139410124	 2.6182379908	 0.112643
H	 0.106872711	-2.1877613824	 1.8144874893	 0.115927
H	 0.1782765141	 0.6342029107	 0.5736668582	 0.113053
H	 0.8080443468	-0.8072219094	-0.192562588	 0.094663
H	-3.4276854784	-0.2148529864	 0.1746241874	 0.080459
H	-2.4739094571	-0.1503187358	 1.6677860692	 0.086209
H	-2.8316730756	 1.9663309955	 0.941671947	 0.285014
H	-2.3615524186	-0.2599522634	-2.0648864316	 0.084738
H	-0.780518372	-1.9181427261	-3.3056182641	 0.100732
H	 0.4855068895	-1.1532865101	-2.3320507873	 0.098449
H	-1.0360644655	-3.7248258032	-1.7810009058	 0.101665
H	 0.1810403981	-3.084854968	-0.6639969421	 0.097024
H	-2.7364053527	-2.4874832082	-0.2471153205	 0.074372
68.1179	108.361	172.1259	193.2441	221.4899	248.4754	283.2054	295.9831	341.6212	390.3124	475.1384	554.9626	673.251	743.1659	783.1433	792.2126	839.2183	867.093	923.7657	946.0183	975.7808	995.6049	1001.7386	1027.4617	1035.8754	1058.8696	1070.7755	1099.6064	1109.6924	1115.3929	1196.3458	1220.9374	1237.382	1242.5734	1257.4631	1263.8566	1294.9863	1305.0339	1326.7725	1369.7292	1410.6028	1429.3555	1457.701	1479.9974	1490.7016	1498.0775	1505.811	1508.1007	1519.9114	2968.5154	2999.4086	3033.3088	3045.2947	3050.4683	3054.6931	3081.5909	3093.1735	3101.4748	3105.6929	3112.4664	3158.8564	3176.46	3830.0747
CCC1(CO)C2CCC12	CC[C@@]1(CO)[C@H]2CC[C@@H]12	
InChI=1S/C8H14O/c1-2-8(5-9)6-3-4-7(6)8/h6-7,9H,2-5H2,1H3	InChI=1S/C8H14O/c1-2-8(5-9)6-3-4-7(6)8/h6-7,9H,2-5H2,1H3/t6-,7+,8+
