16
gdb 21027	3.61193	1.84092	1.24062	1.212	69.4	-0.2043	0.0145	0.2188	968.5434	0.131439	-376.117896	-376.109409	-376.108465	-376.151773	29.457	
C	-0.0316121929	 1.3739508794	 0.0664246549	-0.307403
N	 0.0368560624	-0.0679945063	 0.0275843737	 0.145923
N	-0.0490394879	-0.7550913033	-1.1017291665	-0.287493
C	-0.0208698834	-2.0347639382	-0.7181415523	 0.269336
C	-0.092653689	-3.1734983741	-1.6800837912	-0.509544
C	 0.0844762643	-2.0546914217	 0.6907765256	 0.252368
N	 0.0823249153	-3.158128658	 1.5409185396	-0.593683
N	 0.1209414337	-0.8022776551	 1.143725891	-0.319445
H	 0.7786602114	 1.7656193548	 0.6858476023	 0.146886
H	 0.0707548971	 1.7350213028	-0.9561509355	 0.15747
H	-0.9883828435	 1.7081342515	 0.4808756319	 0.143273
H	 0.8302627389	-3.767397962	-1.6839296725	 0.121804
H	-0.9144875429	-3.8543426113	-1.4307372433	 0.134562
H	-0.2517524073	-2.7971178079	-2.6926149757	 0.144679
H	 0.6344317941	-3.9318970907	 1.1954975071	 0.247995
H	 0.3690439498	-2.9112982698	 2.4793581408	 0.253273
28.1244	99.3005	154.7673	227.9565	237.0546	264.1975	299.2375	352.8681	515.3323	637.9768	649.2218	654.8088	702.3612	779.8423	829.1706	1008.1633	1028.6641	1066.2008	1069.8193	1146.4616	1148.6417	1271.7561	1347.9592	1386.0833	1411.6972	1437.5714	1447.7405	1477.5833	1482.5545	1493.9826	1511.4393	1567.3249	1577.8509	1648.7408	3021.6491	3045.1909	3071.1296	3112.1935	3131.4922	3170.1917	3542.8893	3637.7999
CN1N=C(C)C(N)=N1	Cn1nc(C)c(N)n1	
InChI=1S/C4H8N4/c1-3-4(5)7-8(2)6-3/h1-2H3,(H2,5,7)	InChI=1S/C4H8N4/c1-3-4(5)7-8(2)6-3/h1-2H3,(H2,5,7)
