20
gdb 22506	3.21134	0.71325	0.64193	0.7599	75.81	-0.256	-0.0062	0.2497	1778.8657	0.168161	-477.360038	-477.349309	-477.348365	-477.397024	37.384	
C	 0.063620968	 1.3893904636	-0.1459339768	-0.230219
O	 0.0004038605	-0.0169170098	-0.144275868	-0.229354
C	 0.7545643632	-0.5997955663	-1.1823093941	-0.052224
C	 0.6364988349	-2.1215067393	-1.0516302875	-0.29619
C	 1.2653236015	-2.8326097048	-2.2171796099	 0.329224
C	 0.5903580208	-2.806557771	-3.5787693724	-0.14183
O	 1.3733941959	-2.1508553574	-4.5601190781	-0.421058
N	 2.3839134673	-3.4131911639	-2.0032339022	-0.164397
O	 2.8792346726	-4.0233657074	-3.1814587308	-0.413067
H	 1.0939972824	 1.7527548298	-0.0056656293	 0.105583
H	-0.3239195406	 1.8152910969	-1.0850753983	 0.105511
H	-0.5520240695	 1.7453237707	 0.6836843181	 0.127574
H	 0.3889864903	-0.2602426651	-2.1662564713	 0.100818
H	 1.814046096	-0.3026643313	-1.1139105093	 0.098933
H	 1.1100149909	-2.4435327874	-0.1214069142	 0.126803
H	-0.4292734831	-2.375586663	-0.9948208053	 0.118309
H	 0.3573291939	-3.8426950481	-3.8699438286	 0.113845
H	-0.3541780772	-2.2597890851	-3.5163405693	 0.112134
H	 2.2011457038	-2.6451496795	-4.6047177971	 0.297676
H	 3.7081582284	-4.4084303415	-2.8796891356	 0.311931
51.3471	61.4239	81.3794	109.7451	161.5252	232.083	247.6117	263.5632	321.8824	344.9758	366.1859	421.0538	455.0242	508.8217	628.7893	661.4139	803.2749	855.728	955.4842	963.431	1003.3857	1049.1794	1075.3441	1079.4571	1161.2797	1179.4994	1202.5822	1221.6498	1230.8719	1270.0956	1304.3528	1311.2342	1371.3811	1392.5052	1421.0637	1452.6452	1479.6078	1482.2794	1485.6855	1492.4962	1505.1557	1530.907	1725.5477	2957.222	2972.9244	2985.5276	2988.8208	3014.5913	3038.0791	3092.2245	3112.481	3114.5066	3784.9182	3830.0699
COCCC(CO)=NO	COCCC(=NO)CO	
InChI=1S/C5H11NO3/c1-9-3-2-5(4-7)6-8/h7-8H,2-4H2,1H3	InChI=1S/C5H11NO3/c1-9-3-2-5(4-7)6-8/h7-8H,2-4H2,1H3
