17
gdb 19703	5.73284	1.83884	1.67554	1.5551	72.15	-0.2128	-0.0049	0.2079	815.9107	0.143802	-326.643252	-326.637005	-326.636061	-326.673166	25.713	
C	-0.1444590745	 1.5754793169	 0.0843691697	-0.432801
C	 0.0266186994	 0.0716220028	-0.0175110493	 0.076963
C	 0.7925862093	-0.6091607365	-1.1642039497	-0.081431
C	 2.1219437686	-0.163170358	-0.4746966898	-0.039133
C	 3.1320736915	-1.2844311363	-0.5932546955	-0.090377
C	 2.3908872511	-2.3763064907	-0.4017981793	-0.097135
C	 1.0056144994	-1.8074530167	-0.1876969384	-0.024611
N	 1.2096123306	-0.5633396969	 0.7359272367	-0.162293
H	 0.7402161449	 2.1336897014	-0.2318578404	 0.117282
H	-0.9837233762	 1.9015808355	-0.5395521998	 0.11764
H	-0.3681191611	 1.858639348	 1.118250121	 0.129527
H	-0.911525543	-0.4244355003	 0.2604464451	 0.066045
H	 0.5668345719	-0.6440582662	-2.2388276875	 0.058003
H	 2.4639092901	 0.869579302	-0.4959740571	 0.072273
H	 4.1941455593	-1.1789287241	-0.7613541314	 0.109494
H	 2.6714478494	-3.4190602828	-0.3686093112	 0.110824
H	 0.1738476593	-2.4575838981	 0.0872952768	 0.06973
175.446	247.2246	261.6371	435.2515	498.1868	519.5907	672.5626	682.9391	754.9971	772.4098	795.156	817.1644	843.749	918.2733	920.6113	943.0912	956.2185	1007.442	1045.1313	1062.0983	1101.4365	1107.6532	1141.0551	1143.8236	1171.3198	1198.3319	1250.7304	1254.6465	1269.8226	1327.7918	1332.1326	1409.1066	1430.8789	1495.2414	1495.8859	1636.888	3009.0208	3027.084	3038.9079	3099.0687	3111.4601	3117.8128	3142.122	3226.6403	3253.6057
CC1C2C3C=CC2N13	C[C@H]1[C@H]2[C@@H]3C=C[C@H]2N13	
InChI=1S/C7H9N/c1-4-7-5-2-3-6(7)8(4)5/h2-7H,1H3	InChI=1S/C7H9N/c1-4-7-5-2-3-6(7)8(4)5/h2-7H,1H3/t4-,5-,6+,7-/m0/s1
