20
gdb 94289	2.89941	1.48301	1.20218	2.3329	78.26	-0.2353	0.0734	0.3086	1098.4124	0.171201	-403.080267	-403.072064	-403.07112	-403.11303	31.643	
C	-0.3593162513	 1.448656919	 0.0209885268	-0.402144
C	 0.0817678917	-0.0030230704	 0.014168678	 0.076733
O	 1.3196416806	-0.1816441927	-0.7215876261	-0.300317
C	 1.9742388847	-0.8222820289	 0.3947016253	-0.156576
C	 0.7390501714	-0.6179424749	 1.2598440703	 0.28865
C	 0.6954219833	-0.3080195027	 2.6954928265	-0.113935
C	-0.7115743108	 0.0201743403	 3.1875566322	-0.252484
C	-1.1564495445	-1.3028693586	 2.5128535688	-0.159527
N	 0.2609448346	-1.674666642	 2.1487390862	-0.189587
H	 0.3776559641	 2.08011617	 0.5256066177	 0.120827
H	-0.4638734157	 1.8000550201	-1.0103648936	 0.130599
H	-1.3273905958	 1.5668727581	 0.5179829175	 0.117136
H	-0.7079948114	-0.6431846201	-0.4068211185	 0.080192
H	 2.2137843697	-1.8737960462	 0.1962792964	 0.113681
H	 2.8837864166	-0.2892115778	 0.6982695085	 0.103375
H	 1.6053013328	-0.1952129989	 3.2788685716	 0.096426
H	-0.7928545284	-0.0262512692	 4.2750178844	 0.116363
H	-1.1529107113	 0.9594257534	 2.8445857238	 0.108398
H	-1.5682571573	-2.039844345	 3.2038439692	 0.115737
H	-1.8224021529	-1.2228001036	 1.6471706351	 0.106455
78.4358	153.7474	188.4169	237.4401	253.183	279.729	376.8626	447.0711	513.1593	570.9302	755.9113	779.3656	797.9615	818.9523	835.7596	883.5743	957.6913	965.0261	985.4593	1013.5689	1024.7978	1031.012	1068.4539	1090.7432	1116.4806	1137.8315	1145.4575	1157.8496	1210.7249	1219.0614	1264.7314	1269.1706	1292.5463	1304.2365	1350.0856	1375.9259	1402.396	1463.3428	1483.0105	1491.7986	1492.7241	1513.1858	1520.2778	2987.9541	3015.6308	3037.6046	3049.9115	3061.9929	3067.2293	3108.1116	3110.331	3117.7084	3126.2465	3147.7061
CC1OCC11C2CCN12	C[C@H]1OC[C@]21[C@H]1CCN21	
InChI=1S/C7H11NO/c1-5-7(4-9-5)6-2-3-8(6)7/h5-6H,2-4H2,1H3	InChI=1S/C7H11NO/c1-5-7(4-9-5)6-2-3-8(6)7/h5-6H,2-4H2,1H3/t5-,6-,7+,8?/m1/s1
