15
gdb 123465	5.16446	0.91084	0.88221	3.0763	66.34	-0.2707	-0.029	0.2417	1300.0422	0.114205	-450.084744	-450.077173	-450.076229	-450.118717	26.654	
C	-0.0631574359	 1.5914409855	 0.0250896963	-0.343521
C	-0.1987354916	 0.1198604561	 0.362074034	 0.101415
C	-1.3045600721	-0.6878221984	-0.1630562733	-0.180444
O	 0.0125307082	-0.8006361151	-0.7063937295	-0.226202
C	 1.3603795644	 2.0467991606	-0.0253644329	 0.401452
N	 2.2301116594	 1.8971717004	 0.970458372	-0.263677
N	 3.3155373544	 2.447473051	 0.4446592426	-0.063657
N	 3.1627900332	 2.9161119363	-0.7830536716	-0.098888
N	 1.9181530014	 2.6673255806	-1.0987300593	-0.246853
H	-0.5177370119	 1.7921930627	-0.9479542876	 0.141054
H	-0.6061695089	 2.1773817705	 0.7772652195	 0.131366
H	 0.258331477	-0.17929521	 1.3055386463	 0.110368
H	-1.6582945012	-1.5524574419	 0.3963894808	 0.118604
H	-2.0417023338	-0.2257223744	-0.8187567558	 0.116743
H	 4.1945027075	 2.5038152961	 0.9374123884	 0.302238
30.3257	61.6364	129.6587	286.1996	341.3903	358.7621	454.3209	586.5461	710.3257	742.677	788.2278	811.2852	864.799	944.5447	967.2654	1042.6494	1062.3893	1095.4888	1100.7585	1131.8069	1160.8002	1170.5762	1191.9528	1222.907	1276.1038	1292.7333	1314.0216	1366.077	1443.252	1458.3515	1486.0944	1531.9472	1536.2312	3037.3399	3083.9437	3106.5027	3121.5712	3171.0401	3647.66
C(C1CO1)C1=NNN=N1	C([C@H]1CO1)c1n[nH]nn1	
InChI=1S/C4H6N4O/c1(3-2-9-3)4-5-7-8-6-4/h3H,1-2H2,(H,5,6,7,8)	InChI=1S/C4H6N4O/c1(3-2-9-3)4-5-7-8-6-4/h3H,1-2H2,(H,5,6,7,8)/t3-/m0/s1
