20
gdb 61203	3.75788	0.8073	0.76706	2.2389	82.17	-0.2271	-0.0281	0.199	1533.9237	0.16652	-403.10245	-403.091763	-403.090818	-403.138515	38.013	
C	-0.1173661449	 1.4616336659	 0.2954476285	-0.404514
C	 0.0477204842	-0.0311771944	-0.0217086407	-0.052847
C	-1.2817231777	-0.7827822891	 0.042787955	 0.14927
O	-2.291813235	-0.3540570799	 0.5357710655	-0.244208
N	 0.7124838148	-0.3959983714	-1.2715322206	-0.068914
C	 0.0843074714	 0.1466845673	-2.4706138304	-0.342033
C	 2.1600432281	-0.1894317971	-1.2500964873	-0.318285
C	 2.8463844828	-0.9115208601	-2.3206670549	 0.302905
C	 3.4255353721	-1.4906058084	-3.1997496618	-0.419854
H	 0.8525805843	 1.9633320211	 0.3536870818	 0.115444
H	-0.7249340517	 1.9655466741	-0.460729522	 0.130107
H	-0.6280947824	 1.5788349942	 1.2537923092	 0.139129
H	 0.6440713851	-0.4930175094	 0.7828459597	 0.103412
H	-1.2251434626	-1.8004164259	-0.4040640301	 0.090511
H	 0.2166202378	 1.2364503854	-2.5858423975	 0.10334
H	 0.5122016579	-0.3394324138	-3.3507713924	 0.141396
H	-0.9894346384	-0.0637914369	-2.4551187221	 0.128256
H	 2.4383010891	 0.8800776381	-1.3173230939	 0.115344
H	 2.5388214294	-0.5458000509	-0.2844144337	 0.132033
H	 3.9370924858	-2.0101203588	-3.971907642	 0.199509
58.1469	78.6257	88.7375	148.3361	197.0821	245.7873	254.3808	259.3885	283.9356	340.0028	345.3412	411.5284	451.9889	581.6594	612.1619	647.5678	666.1256	792.5339	857.9927	917.8806	959.961	987.8005	1015.8391	1077.4551	1116.0349	1126.7379	1154.9792	1200.7112	1227.2279	1315.4697	1318.714	1351.7858	1386.6349	1403.3539	1410.6475	1462.7037	1477.0427	1486.2926	1489.6292	1497.0696	1519.7877	1834.8487	2240.6085	2891.4819	2915.1664	2958.2157	2975.9932	3043.2383	3052.5561	3073.7186	3120.4395	3123.6535	3133.6452	3505.2062
CC(C=O)N(C)CC#C	C[C@@H](C=O)N(C)CC#C	
InChI=1S/C7H11NO/c1-4-5-8(3)7(2)6-9/h1,6-7H,5H2,2-3H3	InChI=1S/C7H11NO/c1-4-5-8(3)7(2)6-9/h1,6-7H,5H2,2-3H3/t7-/m0/s1
