21
gdb 83588	2.48045	1.65441	1.55204	0.0959	76.29	-0.2362	0.0715	0.3078	999.2244	0.186229	-424.243765	-424.236235	-424.235291	-424.275139	31.288	
O	-0.0898916565	 1.4056700938	-0.0621301	-0.450797
C	-0.0043840601	-0.0117957051	-0.0278989289	 0.122392
C	-1.4153613804	-0.5912631112	-0.1806465258	-0.011892
C	-1.7575796268	-0.2570167451	-1.6572503653	-0.217201
C	-0.384000743	-0.2667902848	-2.3942156076	-0.231963
C	 0.6515957454	-0.5941633171	-1.2954227725	 0.08366
O	 0.8653287176	-1.9920606049	-1.1049260337	-0.271201
C	-0.3335534878	-2.7429101688	-0.9505991208	-0.06899
C	-1.3074422399	-2.1111620756	 0.0550837926	-0.236365
H	 0.8055595367	 1.7586826949	-0.0446907849	 0.282205
H	 0.5023833018	-0.3610928402	 0.8818686028	 0.061163
H	-2.1191968869	-0.1403802236	 0.5237734025	 0.068888
H	-2.464574682	-0.9769524387	-2.0807915208	 0.09099
H	-2.2197637635	 0.7297631068	-1.719571851	 0.111473
H	-0.3301177581	-0.9944175372	-3.2080649738	 0.10523
H	-0.1646158579	 0.7153994784	-2.8179665396	 0.104362
H	 1.6428866429	-0.1785363607	-1.5019932649	 0.06252
H	-0.8326961947	-2.8626126671	-1.9242631697	 0.092133
H	-0.0200348615	-3.7389906481	-0.6254067199	 0.106397
H	-0.9587847113	-2.2964328111	 1.0776689769	 0.10046
H	-2.2887491342	-2.5893540446	-0.0458095856	 0.096533
200.1485	208.445	286.6988	294.8419	304.4324	343.3165	419.11	457.0203	472.9842	621.8877	744.9566	755.6105	793.801	822.0038	855.9166	885.6327	895.5848	947.9025	978.1859	999.6457	1015.8234	1024.3899	1064.9547	1087.5173	1119.3526	1133.7221	1171.9225	1193.8	1211.5116	1233.453	1260.4861	1276.5037	1290.0573	1314.4855	1322.8092	1339.3184	1350.3322	1368.0095	1374.6024	1411.4666	1429.0005	1474.9206	1485.0028	1496.7419	1517.5037	2987.87	3012.1152	3030.5354	3055.1846	3058.9111	3071.5684	3072.7068	3078.3924	3085.512	3101.878	3121.1463	3813.3584
OC1C2CCC1OCC2	O[C@H]1[C@H]2CC[C@@H]1OCC2	
InChI=1S/C7H12O2/c8-7-5-1-2-6(7)9-4-3-5/h5-8H,1-4H2	InChI=1S/C7H12O2/c8-7-5-1-2-6(7)9-4-3-5/h5-8H,1-4H2/t5-,6-,7-/m0/s1
