21
gdb 96344	2.20899	1.62259	1.33446	2.1952	73.67	-0.2461	0.0648	0.3109	1078.3802	0.182471	-461.372167	-461.363118	-461.362173	-461.404978	35.917	
C	-0.0270607407	 1.5617858738	 0.0008510978	-0.450387
C	 0.0060174594	 0.0352439179	-0.006246072	 0.341585
O	-1.3238895824	-0.4959184436	 0.0712767998	-0.475064
C	 0.7293691783	-0.5169903571	-1.2530686038	-0.247291
C	 0.9077887313	-2.0351262935	-1.1647966246	-0.078353
O	 1.5610354187	-2.4131451921	 0.0440930785	-0.268824
C	 0.7887781176	-2.0412325834	 1.1827257122	-0.127208
C	 0.7127528446	-0.5166685118	 1.2588155236	 0.124224
O	 2.0193115902	 0.0248750641	 1.3885322492	-0.448533
H	 0.9821677186	 1.9689304563	 0.0887829373	 0.13929
H	-0.4772562903	 1.9455016083	-0.9232524154	 0.097173
H	-0.6215740631	 1.9191245742	 0.8474726422	 0.119664
H	-1.8494570527	-0.0781450667	-0.6188283888	 0.278297
H	 0.1626185806	-0.2575090775	-2.1565172165	 0.08533
H	 1.7102425169	-0.0363461186	-1.342444109	 0.106249
H	-0.072357576	-2.5306414176	-1.2247504908	 0.101007
H	 1.5340050886	-2.4077782682	-1.9801917583	 0.10572
H	-0.216771257	-2.4778661791	 1.1341734621	 0.116308
H	 1.316202126	-2.4362930824	 2.0554760973	 0.10954
H	 0.1396717678	-0.2085706818	 2.1401671468	 0.084068
H	 2.5985469036	-0.5563501912	 0.8788643025	 0.287203
141.6533	177.6021	222.4899	237.6667	255.9552	298.0186	315.8968	354.002	406.3673	451.4326	458.2971	477.8842	512.4555	572.3648	689.2624	738.7796	844.2271	875.5546	917.0525	926.2195	988.8716	998.064	1024.4465	1046.3536	1093.2377	1100.4354	1131.0095	1183.5111	1205.9716	1226.2105	1250.1696	1279.6707	1323.1642	1336.9003	1364.7987	1376.4705	1398.8713	1401.8614	1416.0035	1424.0801	1470.5327	1482.1832	1487.886	1499.48	1501.749	3001.2461	3023.0607	3028.0229	3028.8582	3058.3495	3071.6259	3091.1882	3095.1238	3098.5465	3136.1575	3766.8415	3811.3411
CC1(O)CCOCC1O	C[C@@]1(O)CCOC[C@H]1O	
InChI=1S/C6H12O3/c1-6(8)2-3-9-4-5(6)7/h5,7-8H,2-4H2,1H3	InChI=1S/C6H12O3/c1-6(8)2-3-9-4-5(6)7/h5,7-8H,2-4H2,1H3/t5-,6-/m1/s1
