17
gdb 32755	3.26119	1.09318	0.85293	2.961	72.61	-0.1903	0.0153	0.2056	1347.2806	0.135963	-455.163302	-455.154302	-455.153358	-455.197915	32.125	
C	 0.0161919973	 1.4693162485	 0.0025246089	-0.386757
C	-0.20765042	 0.0130037384	 0.3585094537	-0.061186
O	 1.0641001234	-0.5445125266	 0.7553194514	-0.280256
C	 1.0370742661	-1.8228795526	 1.1472833873	 0.317361
C	 1.3588286424	-2.445867817	 2.3118485855	 0.165571
N	 1.8369976409	-1.9172843488	 3.5094731909	-0.599802
N	 1.2312354398	-3.816509614	 2.1341452427	-0.300759
C	 0.850133209	-3.9519924692	 0.9046698743	 0.07431
O	 0.7166508164	-2.7997348454	 0.2197606352	-0.183105
H	 0.735497586	 1.5576173429	-0.8161583376	 0.136073
H	-0.9260919283	 1.9275209493	-0.3117762677	 0.122691
H	 0.4028301102	 2.0242014384	 0.8619203417	 0.128745
H	-0.9187747891	-0.0980169092	 1.1878704618	 0.102032
H	-0.5935455583	-0.5512389046	-0.4983956004	 0.120087
H	 1.5909888288	-0.9446874905	 3.6357859969	 0.246327
H	 1.5430411549	-2.470213986	 4.3042722579	 0.25267
H	 0.6228618805	-4.8644844434	 0.3766128575	 0.145998
57.2232	67.3356	123.2111	196.5215	239.5843	282.2344	294.2104	337.6329	401.9228	519.3703	633.9822	660.6318	702.7698	752.2327	784.2902	805.4513	816.8965	904.6847	953.4135	1032.8826	1054.1482	1116.7829	1139.534	1177.7275	1188.1769	1289.9103	1314.0219	1324.3462	1389.4366	1412.1768	1439.5805	1482.9634	1499.6837	1523.4893	1556.7757	1631.86	1737.5114	3014.8775	3047.9609	3063.2745	3123.0296	3127.2203	3274.1375	3542.9556	3642.7802
CCOC1=C(N)N=CO1	CCOc1c(N)nco1	
InChI=1S/C5H8N2O2/c1-2-8-5-4(6)7-3-9-5/h3H,2,6H2,1H3	InChI=1S/C5H8N2O2/c1-2-8-5-4(6)7-3-9-5/h3H,2,6H2,1H3
