15
gdb 42290	2.62942	1.49548	0.96495	1.0012	76.37	-0.26	-0.0559	0.2041	1151.7318	0.111813	-416.793307	-416.784818	-416.783874	-416.826954	30.526	
N	-0.1452787134	 1.222181838	 0.4966126606	-0.537893
C	-0.0688960295	 0.0240014166	 0.1256110973	 0.410343
C	-1.076390067	-0.9500429228	-0.474335979	-0.329296
C	 0.0721223004	-2.0022832571	-0.4984096171	-0.17433
N	 0.9473279354	-0.9726143486	 0.0827633363	-0.142543
C	 2.2729960224	-1.0856028368	 0.4162173865	 0.278878
O	 2.893669182	-2.1179883257	 0.2516233721	-0.338708
C	 2.8760892974	 0.1122935749	 0.9765778362	 0.212856
C	 3.4347525904	 1.0687585036	 1.4455786207	-0.395349
H	 0.7425423393	 1.5704850572	 0.8583071366	 0.235016
H	-1.9138832233	-1.1866850609	 0.1835229195	 0.142598
H	-1.4576604032	-0.6512949671	-1.4518612153	 0.142594
H	-0.057748577	-2.8693785277	 0.1528696121	 0.137573
H	 0.3995450282	-2.3327497004	-1.4865752137	 0.137566
H	 3.9374372779	 1.9085848467	 1.8610502474	 0.220696
74.2902	98.9743	132.9176	181.0602	226.3985	290.7233	372.9236	481.9196	506.5555	563.3508	668.4442	692.2206	693.3835	755.3473	756.575	797.7183	881.7925	929.1063	985.2016	1045.2232	1059.6356	1156.8765	1157.8007	1192.7795	1239.9298	1241.7885	1336.2273	1387.7005	1468.5758	1517.4054	1741.9401	1798.8466	2223.3568	3072.8128	3093.6851	3122.6322	3148.8258	3492.0587	3493.385
N=C1CCN1C(=O)C#C	[NH][C]1CCN1C(=O)C#C	
InChI=1S/C6H6N2O/c1-2-6(9)8-4-3-5(8)7/h1,7H,3-4H2	InChI=1S/C6H6N2O/c1-2-6(9)8-4-3-5(8)7/h1,7H,3-4H2
