17
gdb 17174	3.99511	1.81862	1.55483	1.5239	67.54	-0.2345	0.0566	0.2911	871.6288	0.141877	-363.748749	-363.741713	-363.740768	-363.780086	27.167	
C	-0.060978158	 1.5525256175	 0.0099585277	-0.387488
C	 0.1060924644	 0.0282120792	-0.0256201235	-0.328754
C	 0.7835547164	-0.4660289682	-1.2683657241	 0.327755
N	 2.2018376659	-0.1444525922	-1.6631832706	-0.384237
C	 1.7311994257	-1.0252606711	-2.7803402765	-0.076312
C	 0.9194342972	-1.9263929752	-1.8106153962	 0.053482
O	-0.3107999249	-1.8835073991	-2.5905797085	-0.330547
C	 0.2451926555	-0.5460983051	-2.7477548712	 0.036217
H	 0.9093855059	 2.0587494801	-0.0209287302	 0.123628
H	-0.6539706965	 1.9063988823	-0.840038481	 0.118191
H	-0.5693711338	 1.8677728449	 0.9255388655	 0.120315
H	 0.6849190532	-0.3050257036	 0.8442824835	 0.114156
H	-0.8730506494	-0.4627022962	 0.0341370529	 0.11894
H	 2.2684378287	 0.8240149225	-1.9868388994	 0.209524
H	 2.3495253444	-1.3123614777	-3.6306805367	 0.09112
H	 1.1950400964	-2.8474398321	-1.2990116492	 0.10178
H	-0.2900646711	 0.1789120942	-3.3637187224	 0.092228
84.7291	170.6708	194.3567	283.019	365.7076	487.2727	558.3626	656.6636	730.1653	767.6182	795.59	829.4917	834.7686	880.0349	894.844	921.607	962.4972	991.2781	1016.8585	1084.6832	1099.1357	1107.5802	1138.4718	1163.8391	1174.7842	1193.1756	1254.3634	1266.7622	1296.5726	1316.7379	1341.2748	1405.0585	1412.4074	1471.8934	1500.8095	1506.3379	3029.6533	3036.2849	3066.5233	3101.695	3105.62	3110.9811	3122.3324	3139.4208	3404.7289
CCC12NC3C1OC23	CC[C@@]12N[C@H]3[C@@H]1O[C@@H]23	
InChI=1S/C6H9NO/c1-2-6-4-3(7-6)5(6)8-4/h3-5,7H,2H2,1H3	InChI=1S/C6H9NO/c1-2-6-4-3(7-6)5(6)8-4/h3-5,7H,2H2,1H3/t3-,4-,5+,6+
