16
gdb 108891	4.54856	0.73209	0.63524	4.0513	84.82	-0.2382	-0.0923	0.1459	1696.3771	0.120489	-434.07046	-434.059673	-434.058729	-434.107975	35.657	
N	 0.2221588655	 3.0408543298	 0.3628868426	-0.716209
H	 0.6660806822	 3.2098622301	-0.5356333444	 0.236961
H	 0.2150639734	 3.9350930932	 0.8458532003	 0.23696
H	-0.7494375575	 2.8137930111	 0.1648954077	 0.252606
C	-0.7225153608	 0.0238000974	 1.640787352	-0.446351
C	-1.9756501432	 0.100912186	 1.1909259128	 0.435835
N	-2.9591872992	-0.8704419783	 1.3806005331	-0.271067
C	-4.0257425464	-0.4407636623	 0.8061814788	 0.178403
C	-3.8291051751	 0.9142238458	 0.1577376042	-0.182234
O	-2.4678327929	 1.174659578	 0.4653603234	-0.25868
C	-5.2586682461	-1.1522484155	 0.7776259634	 0.23614
N	-6.289224687	-1.6758515832	 0.7163687133	-0.305352
H	-0.4312081191	-0.8546878316	 2.1980473265	 0.136473
H	-0.0155238558	 0.8228788946	 1.4513481617	 0.172864
H	-3.9861404571	 0.8910163343	-0.9288184452	 0.146829
H	-4.480796711	 1.6874927506	 0.5857329799	 0.146822
31.3635	63.324	107.3109	115.7664	132.9053	160.3096	162.8961	175.3277	289.9066	359.3746	388.2712	530.4751	576.0994	580.9388	681.5358	730.6745	753.1716	885.226	909.9547	918.772	985.3454	1031.8389	1082.1122	1100.3085	1185.3105	1187.8903	1268.6683	1372.8779	1423.8976	1504.7029	1613.2202	1676.8862	1691.0908	1719.5302	2344.8346	3012.4258	3046.0155	3169.0813	3286.5156	3463.5215	3583.5636	3585.2337
[NH3+]CC1=N[C-](CO1)C#N	N.C=C1N=C(CO1)C#N	
InChI=1S/C5H6N3O/c6-1-4-3-9-5(2-7)8-4/h2-3,7H2/q-1/p+1	InChI=1S/C5H4N2O.H3N/c1-4-7-5(2-6)3-8-4;/h1,3H2;1H3
