18
gdb 122468	4.01043	0.7056	0.63468	3.2489	74.67	-0.2688	-0.0063	0.2626	1752.099	0.145156	-439.061769	-439.052013	-439.051068	-439.097874	33.477	
C	 0.1895397268	 1.5310056694	-0.0021367066	-0.386292
C	-0.0123327123	 0.0263904447	-0.031378732	-0.030599
O	 0.6170477736	-0.4881924644	-1.1924280531	-0.24864
C	 0.4836408503	-1.8813940792	-1.3238745051	-0.092732
C	 1.1849049005	-2.2859806791	-2.5925982245	 0.06203
O	 2.5697875932	-2.6174386878	-2.5125103307	-0.22303
C	 1.6564317725	-3.6659468946	-2.8312252324	-0.10644
C	 1.4792076866	-4.70564608	-1.8379451319	 0.303381
N	 1.3234666085	-5.5534449519	-1.0679716515	-0.325328
H	 1.2553248371	 1.7741352738	 0.0227093348	 0.132494
H	-0.2481165503	 1.9948032235	-0.8905912287	 0.127684
H	-0.2862440496	 1.960273338	 0.8844154867	 0.119134
H	 0.4177437366	-0.4423553683	 0.8687718032	 0.096133
H	-1.0866671208	-0.2235030968	-0.0440548587	 0.089789
H	 0.9257154272	-2.4159100981	-0.469309317	 0.117952
H	-0.5797790936	-2.1732926686	-1.3870101291	 0.101387
H	 0.9154350419	-1.6988072013	-3.4704899931	 0.119779
H	 1.7075020217	-4.0360678792	-3.8535537404	 0.143297
47.266	73.2603	83.4362	131.974	158.1754	222.7157	246.5736	310.0923	338.0417	460.4271	467.7745	578.2491	623.1609	812.1838	821.8845	829.6685	901.0467	955.2994	1012.9031	1044.651	1060.5785	1121.3468	1149.5907	1156.0053	1171.133	1190.8171	1264.8881	1284.3488	1298.338	1350.1721	1387.3276	1405.0474	1434.1237	1480.2236	1483.4315	1497.5729	1501.7158	1532.7317	2360.5499	2951.1005	2963.0321	2989.5888	3011.7531	3047.1443	3121.929	3122.1905	3124.7021	3136.1488
CCOCC1OC1C#N	CCOC[C@H]1O[C@H]1C#N	
InChI=1S/C6H9NO2/c1-2-8-4-6-5(3-7)9-6/h5-6H,2,4H2,1H3	InChI=1S/C6H9NO2/c1-2-8-4-6-5(3-7)9-6/h5-6H,2,4H2,1H3/t5-,6+/m0/s1
