18
gdb 69992	3.04836	1.74559	1.63225	2.7191	69.7	-0.2388	0.0707	0.3095	913.5485	0.149852	-439.050424	-439.043555	-439.042611	-439.081286	28.357	
C	 0.0128847072	 1.5165527504	 0.0032685868	-0.510361
C	 0.0253571378	 0.0138860273	 0.03179706	 0.344007
N	-0.8518620721	-0.7609287678	 0.9310194072	-0.360188
C	 0.6219982477	-0.8331573528	 1.0920044376	-0.116503
C	 1.2998815239	-1.9531157946	 0.2797636537	 0.026207
C	 0.2314096356	-2.8542247807	-0.3691373978	-0.085118
O	-0.314066551	-1.9746782581	-1.3732725538	-0.256764
C	 0.4398479599	-0.7865053551	-1.2437365137	 0.114096
O	 1.74566858	-1.2257813772	-0.8953086367	-0.2563
H	 0.9239037553	 1.9029978634	-0.4659943559	 0.136833
H	-0.8450298914	 1.8981167546	-0.5620411623	 0.131354
H	-0.0414532235	 1.9281148471	 1.0168597785	 0.116691
H	-1.2317189771	-0.1360437197	 1.6419425969	 0.226024
H	 1.0954597261	-0.4290339483	 1.9801569735	 0.092526
H	 2.1401376514	-2.4563783374	 0.753430382	 0.086448
H	 0.684914006	-3.7247147272	-0.8546772548	 0.100164
H	-0.5546763235	-3.1601040714	 0.3229389389	 0.123367
H	 0.4444244177	-0.2350256823	-2.1836243601	 0.087517
184.2741	212.1091	268.92	311.0606	374.441	466.2769	539.5491	588.165	614.5975	732.326	779.3962	816.2443	859.6714	870.7666	893.5092	921.4215	944.6568	951.4054	964.0298	994.3255	1017.969	1048.2251	1064.7831	1109.271	1121.403	1150.3359	1197.6368	1237.0234	1274.827	1284.067	1307.773	1327.307	1337.1413	1381.8987	1411.4787	1435.3112	1485.3602	1496.9807	1501.3502	3025.518	3045.8652	3090.7752	3098.9136	3122.2024	3132.7472	3148.3824	3171.2072	3464.3215
CC12NC1C1COC2O1	C[C@]12N[C@H]1[C@H]1CO[C@@H]2O1	
InChI=1S/C6H9NO2/c1-6-4(7-6)3-2-8-5(6)9-3/h3-5,7H,2H2,1H3	InChI=1S/C6H9NO2/c1-6-4(7-6)3-2-8-5(6)9-3/h3-5,7H,2H2,1H3/t3-,4+,5-,6+/m1/s1
