17
gdb 100523	2.12911	1.3828	0.89078	0.6311	67.36	-0.2435	-0.0708	0.1727	1263.3823	0.134904	-492.290666	-492.280996	-492.280052	-492.325592	35.33	
N	 0.0814579442	 1.0841392331	 0.4366851571	-0.512071
C	 0.0980177257	-0.2240321276	 0.0316331395	 0.250048
N	 1.1799168416	-0.8375171302	-0.2569317492	-0.513063
C	-1.3012435529	-0.8183788634	 0.0023033667	 0.322436
O	-2.2717943126	-0.0859075618	 0.054167236	-0.343937
C	-1.5446834746	-2.3336551519	-0.0587307185	 0.008798
O	-2.908320668	-2.5767340175	 0.1607161438	-0.431693
C	-1.1467305651	-2.994710555	-1.4109404482	-0.116861
O	 0.2134890991	-3.3798731818	-1.4977306076	-0.38505
H	 0.9231555612	 1.6116714725	 0.2704244727	 0.261533
H	-0.7990362983	 1.5682941818	 0.369929515	 0.267623
H	 1.0141172817	-1.8050384805	-0.5316378318	 0.23973
H	-0.940122049	-2.8045130208	 0.7338160344	 0.09732
H	-3.3304261818	-1.7028349906	 0.1927800746	 0.298057
H	-1.8191633282	-3.8524426351	-1.524721993	 0.1304
H	-1.3313797022	-2.3120068292	-2.245601255	 0.130273
H	 0.3439049992	-4.1534841719	-0.9389566864	 0.296456
53.5286	74.8144	131.9491	202.5512	233.4136	289.214	353.6647	377.4958	385.6004	422.2919	442.1065	464.9293	505.7919	518.7159	575.6042	644.9969	759.8757	805.5639	922.8542	990.7022	1013.6906	1058.0072	1081.0753	1128.0604	1154.1744	1166.9563	1209.4558	1288.9204	1323.642	1383.1074	1402.4056	1424.834	1445.2179	1500.3651	1596.1777	1718.8065	1757.293	2976.1303	3041.171	3100.2193	3486.2902	3594.346	3675.6801	3720.2616	3814.1683
NC(=N)C(=O)C(O)CO	NC(=N)C(=O)[C@@H](O)CO	
InChI=1S/C4H8N2O3/c5-4(6)3(9)2(8)1-7/h2,7-8H,1H2,(H3,5,6)	InChI=1S/C4H8N2O3/c5-4(6)3(9)2(8)1-7/h2,7-8H,1H2,(H3,5,6)/t2-/m0/s1
