24
gdb 57388	2.61351	1.34684	1.23391	1.4918	88.12	-0.2272	0.0766	0.3038	1199.0661	0.216556	-368.379214	-368.369547	-368.368603	-368.413019	38.157	
C	-0.0847371789	 1.5284297025	-0.0675260959	-0.416255
C	-0.0048389581	-0.0102984979	 0.010642804	 0.152046
C	 0.8095865298	-0.3926668885	 1.2596423614	-0.426176
C	-1.4243178419	-0.6032375224	 0.1113020007	-0.408547
C	 0.6484874942	-0.5535640389	-1.2537311568	 0.384512
C	 1.5966571202	-1.6884006721	-1.3124865191	-0.299656
N	 2.1163125769	-0.3356076462	-1.6052482118	-0.177476
C	 1.6953304098	-0.0624375064	-3.0228431387	-0.148379
C	 0.1916935034	-0.2275113527	-2.6853872092	-0.325905
H	 0.9134846283	 1.9602447707	-0.1878159209	 0.127882
H	-0.7061555405	 1.8651787909	-0.9029084038	 0.107416
H	-0.5247706213	 1.9343321065	 0.84938272	 0.107722
H	 0.3959627275	 0.1022673917	 2.1441696063	 0.106787
H	 0.7860903641	-1.470734393	 1.445710743	 0.108771
H	 1.8537020539	-0.0824230195	 1.1535512429	 0.134836
H	-2.0339003016	-0.3330395466	-0.7577587856	 0.11232
H	-1.3925257381	-1.6961951278	 0.1735611469	 0.112019
H	-1.9359039075	-0.229475016	 1.0047369012	 0.110118
H	 1.9814914482	-2.0954750073	-0.3848334637	 0.117581
H	 1.530881679	-2.4099666541	-2.1259829774	 0.099809
H	 1.9734091315	 0.9547684958	-3.3061920915	 0.109153
H	 2.126901204	-0.7626902752	-3.7462866055	 0.101306
H	-0.3663653223	-1.013732616	-3.2023778519	 0.099563
H	-0.3643979507	 0.7065097425	-2.7739032547	 0.110551
60.0532	153.3443	205.3579	231.0063	255.5072	286.5285	291.3555	320.1791	338.2989	378.4551	445.8134	493.0736	494.8092	591.8208	745.4712	780.1656	799.7104	816.77	876.9327	930.4881	934.5186	939.8296	960.444	969.5649	1002.9095	1034.6254	1043.1216	1084.7124	1107.1169	1125.2325	1175.6546	1199.8808	1220.8238	1231.7956	1239.7571	1261.9991	1281.2299	1320.9087	1374.3621	1393.4619	1394.307	1427.0269	1477.062	1484.832	1488.3304	1490.95	1500.9467	1501.5351	1505.7931	1519.3303	1525.838	3025.4493	3030.8872	3037.229	3041.9017	3057.6928	3093.9743	3095.8548	3096.8878	3097.9375	3102.1043	3103.9193	3110.0431	3113.0166	3126.7627	3210.1803
CC(C)(C)C12CN1CC2	CC(C)(C)[C@]12CN1CC2	
InChI=1S/C8H15N/c1-7(2,3)8-4-5-9(8)6-8/h4-6H2,1-3H3	InChI=1S/C8H15N/c1-7(2,3)8-4-5-9(8)6-8/h4-6H2,1-3H3/t8-,9?/m0/s1
