19
gdb 93957	4.34582	1.04748	0.97811	2.8662	70.83	-0.2492	0.0838	0.333	1260.7111	0.158795	-460.138321	-460.129731	-460.128787	-460.172439	31.412	
C	 0.1918235532	 1.3706993619	-0.1337463815	-0.397876
C	-0.1001049684	-0.1267917962	-0.1118855488	 0.12748
C	 0.824297241	-0.9537011467	-1.0119441322	-0.121227
O	 1.9402393256	-1.2099798249	-0.1651792452	-0.25149
C	 1.4331615088	-1.3255341069	 1.1470628954	 0.169636
O	 0.1640211879	-0.6887597625	 1.1787120925	-0.286663
C	 1.2575456426	-2.7627960641	 1.6139881584	 0.046481
C	 1.5220093749	-3.9118106841	 0.7413813469	-0.172294
O	 2.4586915428	-3.5166373879	 1.7470716105	-0.235832
H	 1.261005661	 1.5575844604	 0.0056786284	 0.131734
H	-0.1149477598	 1.8089639244	-1.0894670128	 0.11418
H	-0.3560273139	 1.8735486808	 0.6674535612	 0.128804
H	-1.1558562395	-0.3136940069	-0.3342461021	 0.089096
H	 0.3403930168	-1.8892763444	-1.3264578438	 0.096767
H	 1.1846217904	-0.4188364182	-1.8934115523	 0.11853
H	 2.1414385707	-0.8123728503	 1.8129610645	 0.097537
H	 0.5505839077	-2.8677528708	 2.4375961099	 0.103108
H	 1.006892176	-4.8537304093	 0.9246408961	 0.114108
H	 1.8487050622	-3.7371278244	-0.2805196952	 0.127923
47.8475	79.4699	132.153	221.9871	245.9559	281.5298	333.8676	382.7903	468.3644	587.134	740.8509	767.1681	824.5038	834.3799	875.5051	923.6835	933.3386	952.7509	1002.6043	1014.5237	1038.2956	1077.7795	1109.6219	1117.0198	1157.073	1164.4277	1168.4209	1191.739	1244.9733	1275.4613	1307.6191	1336.44	1370.0952	1389.1924	1398.3757	1409.5215	1432.5145	1488.5032	1496.5725	1513.516	1520.1174	3001.9237	3009.5098	3038.2744	3056.7891	3092.9582	3107.6307	3111.6365	3112.739	3124.5898	3189.2986
CC1COC(O1)C1CO1	C[C@H]1CO[C@@H](O1)[C@H]1CO1	
InChI=1S/C6H10O3/c1-4-2-8-6(9-4)5-3-7-5/h4-6H,2-3H2,1H3	InChI=1S/C6H10O3/c1-4-2-8-6(9-4)5-3-7-5/h4-6H,2-3H2,1H3/t4-,5+,6-/m0/s1
