13
gdb 25377	3.28957	1.16997	0.86303	5.8195	75.6	-0.2673	-0.098	0.1693	1226.9264	0.088635	-456.611775	-456.604261	-456.603317	-456.644436	26.554	
O	 0.0754014937	-0.0560617142	-0.0020438073	-0.255722
C	 0.0604031369	 1.15093379	 0.0086072885	 0.072767
C	 1.2448622639	 2.0090304229	 0.0020055337	 0.260771
C	 1.3474486531	 3.3811859748	 0.0127410952	-0.22556
C	 2.7316951254	 3.670952288	-0.0012371449	-0.225559
C	 3.375744354	 2.4550900751	-0.0194317895	 0.260766
O	 2.4752027797	 1.4439003693	-0.0173710157	-0.166495
C	 4.8048076288	 2.1440814203	-0.0391262494	 0.072772
O	 5.2749685109	 1.0323657614	-0.0541000359	-0.255724
H	-0.885741506	 1.7335860885	 0.0247923079	 0.088675
H	 0.524756222	 4.0793528743	 0.02855967	 0.142318
H	 3.2054683579	 4.6405096685	 0.0014969521	 0.142318
H	 5.4380089896	 3.0573159211	-0.0386227647	 0.088673
117.228	125.8683	140.421	232.2119	243.8995	355.6556	467.1719	528.772	640.5019	674.4295	720.0935	815.2429	820.0619	883.9707	984.0531	1008.865	1014.2863	1023.0424	1050.5412	1199.5309	1260.8663	1307.697	1374.6992	1419.3995	1451.3534	1530.447	1596.2333	1790.5496	1803.7637	2901.4723	2902.6358	3254.1814	3267.0833
O=CC1=CC=C(O1)C=O	O=Cc1ccc(o1)C=O	
InChI=1S/C6H4O3/c7-3-5-1-2-6(4-8)9-5/h1-4H	InChI=1S/C6H4O3/c7-3-5-1-2-6(4-8)9-5/h1-4H
