20
gdb 13141	3.46811	1.31674	1.08749	2.4869	71.87	-0.246	0.0797	0.3256	1166.0381	0.176166	-386.123611	-386.114767	-386.113822	-386.157398	32.482	
C	 0.0474288434	 1.4880693284	 0.1944172409	-0.387814
C	 0.2609170848	-0.0047301198	 0.0107794389	-0.036255
O	 0.4630730437	-0.5906857262	 1.2847808997	-0.277086
C	 0.6346522221	-1.9944982653	 1.272060449	 0.08983
C	 2.1040963173	-2.4317494018	 1.0172325398	-0.253428
C	 2.3553244653	-2.3656490878	 2.5499162561	-0.253309
C	 0.8118883178	-2.4323935878	 2.7545905672	 0.152596
O	 0.1908404624	-1.6512387511	 3.7308765745	-0.437813
H	 0.9221600452	 1.947614063	 0.6634462694	 0.127129
H	-0.119611442	 1.9696382476	-0.7735642708	 0.118651
H	-0.8223655079	 1.6766727321	 0.8302407617	 0.127836
H	-0.6140645944	-0.4672793288	-0.4742822404	 0.092251
H	 1.1291688756	-0.1932407561	-0.6392863495	 0.093597
H	-0.1582323945	-2.4673485528	 0.6761210634	 0.059355
H	 2.1586011399	-3.4499442286	 0.6218977645	 0.103779
H	 2.702078974	-1.776325535	 0.3805173249	 0.103858
H	 2.9633238903	-3.1482256386	 3.0084708217	 0.096735
H	 2.7399334855	-1.3887706478	 2.8532836039	 0.107079
H	 0.4837085684	-3.4670627393	 2.8958585885	 0.084685
H	 0.1650819933	-0.7557355242	 3.3683107867	 0.288322
69.6029	94.169	128.424	152.0882	252.5569	286.8458	344.4174	401.3485	435.5722	469.4238	580.4531	676.7082	739.7786	820.5242	850.47	902.5946	914.8405	941.6466	961.4498	1026.1205	1077.4078	1103.6805	1130.0628	1149.1886	1166.4593	1189.1794	1190.933	1230.9071	1255.4536	1273.4148	1284.3305	1297.2363	1346.5066	1359.8103	1402.8805	1436.2379	1448.4352	1469.9943	1484.7402	1489.1814	1500.3558	1529.8301	2970.6483	3001.6855	3004.2309	3044.9436	3059.5305	3065.9329	3069.0175	3112.5168	3120.2896	3121.2388	3129.2459	3763.4087
CCOC1CCC1O	CCO[C@H]1CC[C@H]1O	
InChI=1S/C6H12O2/c1-2-8-6-4-3-5(6)7/h5-7H,2-4H2,1H3	InChI=1S/C6H12O2/c1-2-8-6-4-3-5(6)7/h5-7H,2-4H2,1H3/t5-,6+/m1/s1
