20
gdb 77379	2.43655	1.67222	1.33265	2.1581	78.28	-0.2236	0.0629	0.2865	1060.2636	0.169286	-403.088832	-403.079829	-403.078884	-403.121957	34.547	
C	 0.0241600052	 1.6438370001	 0.0431580865	-0.439212
C	 0.0967491352	 0.1211194791	 0.0225057488	-0.094904
C	 0.7649401934	-0.638654244	-1.1299483059	 0.347179
C	 0.3520980185	-0.67954014	-2.5676018801	-0.501435
C	 1.2330471345	-1.7171862668	-0.2282260278	-0.161537
N	 2.2455418984	-0.8016343999	-0.8342236741	-0.189553
C	 2.4717673097	-0.1706579965	 0.5086393343	-0.213833
C	 1.0819099694	-0.6734825408	 0.940364089	 0.339375
O	 0.756809927	-1.0121638175	 2.2443694012	-0.479848
H	 0.9899339318	 2.1115874165	-0.166261162	 0.125274
H	-0.6843878706	 2.0057394954	-0.7095396407	 0.123725
H	-0.3255921184	 2.011451769	 1.0156162116	 0.107536
H	-0.9015873727	-0.3070815837	 0.1729145838	 0.079921
H	 0.4616402131	 0.3045883993	-3.0371519014	 0.122952
H	 0.9767170874	-1.3851095705	-3.1219477131	 0.135018
H	-0.6945344261	-0.9873551012	-2.6665106262	 0.117253
H	 1.2614958053	-2.7974116967	-0.2859225718	 0.0976
H	 3.2769742906	-0.7132242989	 1.0110947496	 0.111264
H	 2.6905181762	 0.9030614521	 0.5041798278	 0.089308
H	 0.5366285823	-0.2077676551	 2.7271952504	 0.283919
113.8221	158.715	178.7096	196.429	198.0146	267.8816	288.9572	363.3166	393.3001	516.3786	573.3253	585.3853	638.2063	678.0719	769.3773	805.092	840.9113	889.5835	958.6237	971.8313	991.9998	1018.7592	1034.831	1062.058	1093.1881	1126.4674	1134.6901	1151.2186	1172.103	1180.3638	1254.9296	1259.0125	1301.5962	1371.1074	1376.7371	1404.8864	1409.4802	1443.5126	1485.107	1490.438	1494.7756	1496.7037	1517.3569	3027.1909	3030.3929	3037.4339	3040.3911	3086.7165	3091.13	3102.2667	3114.1577	3116.9783	3202.7546	3801.3184
CC1C2(C)C3N2CC13O	C[C@H]1[C@]2(C)[C@H]3N2C[C@@]13O	
InChI=1S/C7H11NO/c1-4-6(2)5-7(4,9)3-8(5)6/h4-5,9H,3H2,1-2H3	InChI=1S/C7H11NO/c1-4-6(2)5-7(4,9)3-8(5)6/h4-5,9H,3H2,1-2H3/t4-,5+,6+,7+,8?/m0/s1
