19
gdb 110003	2.08462	1.52608	1.06435	2.2776	72.16	-0.2469	-0.0353	0.2116	1190.252	0.155999	-460.141355	-460.131584	-460.13064	-460.176652	34.251	
C	-0.270993705	 1.4939575744	 0.3915519076	-0.25757
O	-0.1632008224	 0.1791902616	-0.1370469223	-0.235887
C	-1.3306733372	-0.5715760049	-0.0239901693	 0.057814
C	-1.2767076445	-1.9399084609	-0.7476484332	 0.10979
C	 0.0273480904	-2.340965573	-1.4052817479	-0.391347
O	-1.5185466693	-2.6442856443	 0.5019701827	-0.306765
C	-1.5315310116	-1.4319686055	 1.2690944935	-0.007194
C	-0.3999015004	-1.3752798562	 2.2771631667	 0.142061
O	-0.2371117014	-0.4647134297	 3.0483979092	-0.244215
H	 0.6839457483	 1.9885972788	 0.2031651686	 0.132958
H	-1.071359605	 2.0543901805	-0.1140993101	 0.108091
H	-0.4650334124	 1.4786688555	 1.4699287735	 0.143902
H	-2.2126756374	 0.0333299818	-0.2718716439	 0.081216
H	-2.1180318755	-2.0964361039	-1.4340468292	 0.083875
H	 0.8797148956	-2.1351520913	-0.7544453685	 0.131036
H	 0.0055197285	-3.4105854315	-1.6345583367	 0.126145
H	 0.1677484285	-1.7885182495	-2.3393911085	 0.12472
H	-2.4845684918	-1.2706848452	 1.7896654984	 0.105089
H	 0.2766424324	-2.2576690166	 2.2397908895	 0.096282
44.5825	98.1386	143.9381	163.4577	180.1855	203.3233	209.6648	294.0478	328.3668	411.1563	451.785	525.1949	584.0482	789.1823	818.3209	853.4782	913.7524	976.69	995.8822	1043.7007	1075.4495	1091.9767	1096.4016	1142.8592	1182.7685	1187.868	1213.091	1240.1773	1266.2879	1308.6495	1318.3545	1378.6067	1392.5825	1396.5797	1410.9662	1480.7725	1484.0706	1486.0087	1493.3855	1513.3658	1824.6122	2895.8071	2993.576	3010.0294	3023.94	3034.7782	3046.6879	3073.6937	3116.7058	3130.9787	3135.6392
COC1C(C)OC1C=O	CO[C@H]1[C@@H](C)O[C@H]1C=O	
InChI=1S/C6H10O3/c1-4-6(8-2)5(3-7)9-4/h3-6H,1-2H3	InChI=1S/C6H10O3/c1-4-6(8-2)5(3-7)9-4/h3-6H,1-2H3/t4-,5+,6+/m1/s1
