16
gdb 54107	3.04766	1.56981	1.17931	1.8249	65.13	-0.2497	0.012	0.2617	1016.1375	0.123913	-474.980218	-474.972416	-474.971472	-475.012993	30.641	
N	 0.2239749406	 0.9794737088	 1.0432546429	-0.519896
C	 0.1950124636	 0.0149886343	 0.0909406803	 0.3337
O	 1.1336732815	-0.2228852565	-0.6491654965	-0.370586
C	-1.1234542315	-0.7678419657	 0.0592614205	 0.365087
O	-2.0993246597	-0.0497538405	 0.7566172255	-0.510376
C	-1.617362162	-1.4868200232	-1.2405181782	-0.003058
C	-0.5307271217	-2.5688826925	-1.0972210492	-0.235261
C	-1.154629878	-2.3240231678	 0.2885587761	-0.018289
O	-2.5016709131	-2.309335329	-0.3536066912	-0.349495
H	 1.0356958603	 1.5727177004	 1.0902463326	 0.261874
H	-0.612824268	 1.2129354242	 1.5497843274	 0.28056
H	-2.8855263348	-0.6167942167	 0.7163650932	 0.2912
H	-2.0724886404	-1.0500442981	-2.1293545897	 0.105867
H	-0.8126369192	-3.5271822294	-1.5329016967	 0.110072
H	 0.5016654772	-2.2749768923	-1.2626906546	 0.15535
H	-1.0556699847	-2.8771172161	 1.2231812175	 0.103251
34.2311	175.4428	258.8522	342.6231	378.2658	389.4093	404.0183	444.8904	567.8224	602.0711	611.3442	651.7229	699.0561	726.1721	743.7843	842.0368	870.4081	911.9755	933.8379	1011.9419	1032.7774	1051.3997	1103.2099	1128.0694	1137.1026	1175.0597	1194.3338	1214.7528	1270.6363	1277.0291	1319.0179	1431.74	1476.0739	1595.4124	1788.6514	3101.8518	3118.7616	3128.6613	3202.5309	3600.1939	3703.0239	3741.3318
NC(=O)C1(O)C2CC1O2	NC(=O)[C@@]1(O)[C@H]2C[C@@H]1O2	
InChI=1S/C5H7NO3/c6-4(7)5(8)2-1-3(5)9-2/h2-3,8H,1H2,(H2,6,7)	InChI=1S/C5H7NO3/c6-4(7)5(8)2-1-3(5)9-2/h2-3,8H,1H2,(H2,6,7)/t2-,3+,5-
