19
gdb 89686	2.54813	1.35521	1.0906	4.6348	78.78	-0.2424	-0.025	0.2174	1186.6044	0.156429	-423.005674	-422.996483	-422.995539	-423.039392	34.102	
C	-0.077379699	 1.5377232582	-0.0335042065	-0.414487
C	 0.1144932597	 0.0378984473	 0.0397835136	 0.107621
O	 1.1818940831	-0.4587244703	-0.8231789595	-0.326776
C	 1.7371706063	-1.2011880194	 0.2479756702	 0.353661
C	 2.1984865089	-0.2674117294	 1.3495730417	-0.394647
C	 0.7438885496	-0.6223720122	 1.2774359503	 0.187591
C	-0.0289843943	-1.2657673583	 2.3913697339	-0.494182
C	 2.2204260257	-2.5734303148	 0.0678849783	 0.06031
O	 2.2318594756	-3.1784433842	-0.9757362093	-0.267159
H	 0.8234075424	 2.0763328466	 0.2718516761	 0.123899
H	-0.3214523431	 1.8327518867	-1.0586267208	 0.137949
H	-0.9056475877	 1.8441693063	 0.6142875814	 0.121732
H	-0.8163104789	-0.4811982205	-0.2253532642	 0.090567
H	 2.7366632828	-0.7339788158	 2.1696540191	 0.126126
H	 2.574072768	 0.7048250257	 1.0457449516	 0.129391
H	-0.4527535058	-0.5032058589	 3.0561431837	 0.131692
H	-0.8554573242	-1.8725115074	 2.0071842917	 0.131927
H	 0.6091033815	-1.9108551651	 3.0023715647	 0.129289
H	 2.5899305194	-3.0275670943	 1.017150844	 0.065495
92.3805	141.1951	179.1785	186.678	208.5769	216.4269	289.2538	319.5869	412.8365	441.1078	519.4966	553.9617	622.8266	711.601	772.6228	821.7892	875.8534	909.1836	952.7207	974.4429	1025.8113	1057.149	1061.0055	1085.277	1100.0587	1135.0452	1148.2697	1244.3413	1275.4237	1337.423	1363.9315	1397.6071	1413.3519	1420.0362	1441.8249	1482.6558	1485.5779	1486.9649	1493.514	1498.2033	1809.5235	2854.8784	3016.4862	3026.9681	3040.8278	3087.3948	3108.8775	3110.3784	3119.4527	3124.2619	3210.2718
CC1OC2(CC12C)C=O	C[C@H]1O[C@]2(C[C@@]12C)C=O	
InChI=1S/C7H10O2/c1-5-6(2)3-7(6,4-8)9-5/h4-5H,3H2,1-2H3	InChI=1S/C7H10O2/c1-5-6(2)3-7(6,4-8)9-5/h4-5H,3H2,1-2H3/t5-,6+,7-/m1/s1
