15
gdb 78158	2.11561	1.76462	1.03463	1.1837	69.21	-0.2557	-0.018	0.2377	1093.2548	0.114004	-453.979031	-453.971515	-453.970571	-454.011009	29.046	
O	-0.0301545442	 1.307206735	 0.1188886807	-0.418054
C	-0.0071276665	-0.0758506474	 0.0151286806	 0.097453
C	-1.3608687493	-0.7220322355	 0.0113732077	-0.118613
C	-0.5402423741	-0.6983558139	-1.2701374756	-0.235492
C	-0.1059417043	-2.1119696408	-1.5148488417	 0.414745
O	 0.501725043	-2.5673031403	-2.4518532135	-0.36095
N	-0.5472131493	-2.8458180752	-0.4099990908	-0.375835
C	-1.3963123725	-2.1488506506	 0.4595839547	 0.38455
N	-2.0881322633	-2.5809139954	 1.4308518101	-0.537348
H	 0.7601818552	 1.6569564597	-0.3071433263	 0.298258
H	 0.8103021663	-0.5793081745	 0.5308651163	 0.112965
H	-2.2270554712	-0.0970575087	 0.1763158666	 0.135669
H	-0.7517451046	-0.0542055861	-2.112006903	 0.127276
H	-0.3720198545	-3.837475582	-0.3453801644	 0.261741
H	-1.9710575807	-3.5866832243	 1.5653464487	 0.213634
135.7186	172.3621	211.0185	292.194	312.2837	351.9578	447.9448	520.8112	567.2642	615.1699	633.1683	702.9794	745.8572	847.6216	868.0481	907.5052	923.8544	940.2859	973.4896	1027.2366	1087.4563	1105.2834	1128.1282	1180.5712	1204.7594	1259.0047	1298.3694	1317.1399	1354.9783	1385.3392	1454.3637	1764.371	1848.8732	3106.3645	3222.9894	3230.7955	3460.4186	3630.8958	3804.9319
OC1C2C1C(=O)NC2=N	O[C@H]1[C@H]2[C@@H]1C(=O)N[C]2[NH]	
InChI=1S/C5H6N2O2/c6-4-1-2(3(1)8)5(9)7-4/h1-3,8H,(H2,6,7,9)	InChI=1S/C5H6N2O2/c6-4-1-2(3(1)8)5(9)7-4/h1-3,8H,(H2,6,7,9)/t1-,2+,3+/m1/s1
