14
gdb 133649	3.39328	0.68454	0.64719	2.4492	59.47	-0.2896	-0.004	0.2856	1672.2212	0.09484	-568.153286	-568.143756	-568.142812	-568.191319	32.629	
C	 0.0397937061	 1.5253128916	-0.1015395339	-0.392616
C	 0.0172041805	 0.0075157439	 0.1253937971	-0.036166
O	 0.6640484327	-0.3667448621	 1.3336219621	-0.404143
C	-1.3537252182	-0.5196776385	 0.0664256152	 0.176849
C	-2.4824936399	-0.931904731	 0.0536228337	-0.216948
C	-3.8505271343	-1.4406487558	 0.0314963667	 0.263872
F	-3.9223362007	-2.6326459535	-0.5754146362	-0.067973
F	-4.3325281216	-1.5896302004	 1.2734653772	-0.07104
F	-4.6709144252	-0.6059907299	-0.6224100555	-0.070823
H	 1.0727247529	 1.8785511853	-0.0545203433	 0.135196
H	-0.3833518425	 1.7812521053	-1.0769399065	 0.135348
H	-0.5454390555	 2.0379549428	 0.6685953068	 0.124881
H	 0.6031310764	-0.4786903224	-0.663569178	 0.134215
H	 0.1480353692	-0.0135886553	 2.0675305045	 0.289348
3.5244	76.6699	85.4208	188.9675	201.3655	252.1067	306.9293	336.1214	437.9063	446.5328	462.777	550.725	597.9632	618.6589	628.239	747.8222	873.7125	961.1558	1044.6861	1091.255	1131.6871	1181.3113	1183.8255	1282.3269	1289.0637	1332.2543	1401.6767	1416.5345	1488.0736	1491.1509	2379.9973	3041.2271	3047.9066	3117.8192	3132.9447	3799.7787
CC(O)C#CC(F)(F)F	C[C@@H](O)C#CC(F)(F)F	
InChI=1S/C5H5F3O/c1-4(9)2-3-5(6,7)8/h4,9H,1H3	InChI=1S/C5H5F3O/c1-4(9)2-3-5(6,7)8/h4,9H,1H3/t4-/m1/s1
