15
gdb 125089	3.30025	1.28811	0.93301	3.4283	76.94	-0.2227	-0.0347	0.188	1177.6137	0.114203	-413.032592	-413.02392	-413.022976	-413.065893	31.302	
C	-0.0443921736	 1.5803831428	 0.0390330446	-0.530813
C	-0.0082409618	 0.0878718874	 0.0068055808	 0.047845
C	 0.0022191324	-0.7545156323	-1.0975329934	 0.237195
N	 0.0142154985	-2.0328520318	-0.6268800017	-0.298525
N	 0.0259754331	-2.084577516	 0.716652812	-0.281704
C	 0.0052733094	-0.8092997896	 1.1055946865	 0.320444
N	-0.071189597	-0.4667806721	 2.4512812707	-0.591906
C	-0.0078384667	-0.4525014736	-2.4782343011	 0.225469
N	-0.0154988383	-0.2043440554	-3.6101297608	-0.347813
H	 0.8734664864	 2.0015549956	 0.4684574803	 0.13125
H	-0.1540629385	 1.9935598763	-0.9665546272	 0.148605
H	-0.881229847	 1.9403961069	 0.6480655792	 0.144334
H	 0.021314049	-2.8846030326	-1.1610482369	 0.287241
H	 0.1366807911	-1.2513079104	 3.0553866421	 0.256867
H	 0.4884691929	 0.3376406647	 2.699817885	 0.25151
107.8437	118.8694	134.9911	231.2171	237.1321	281.9968	321.5453	405.7994	414.2468	521.455	529.1051	596.7635	672.4903	689.2181	699.2587	759.6713	795.9912	960.7875	1063.7999	1088.9819	1144.6792	1212.6762	1261.1135	1298.7885	1421.1833	1438.6406	1481.7962	1491.7266	1501.4504	1550.0783	1613.6583	1649.6393	2341.1478	3022.4257	3073.4915	3121.1715	3547.086	3643.7906	3683.5067
CC1=C(NN=C1N)C#N	Cc1c([nH]nc1N)C#N	
InChI=1S/C5H6N4/c1-3-4(2-6)8-9-5(3)7/h1H3,(H3,7,8,9)	InChI=1S/C5H6N4/c1-3-4(2-6)8-9-5(3)7/h1H3,(H3,7,8,9)
