16
gdb 34718	5.22871	1.23907	1.13556	4.1975	77.6	-0.2402	-0.0135	0.2266	1050.1241	0.126456	-363.569591	-363.56308	-363.562135	-363.600437	26.475	
N	-0.077739042	-1.1934692256	-0.1344778894	-0.338122
C	-0.050410148	-0.0388553066	-0.0716883144	 0.26982
C	-0.0204855187	 1.4131992354	 0.002793877	-0.178904
C	 0.0193301271	 2.0847006854	 1.4065696486	-0.038912
C	 1.5299953232	 1.6732318867	 1.5794926652	-0.071636
C	 2.2122775818	 2.8213009328	 2.3047605741	-0.105601
C	 1.6558494633	 3.912822045	 1.7750046084	-0.11357
C	 0.6681871275	 3.3636166725	 0.7589419106	-0.073218
C	 1.361686145	 2.1250812283	 0.0798818123	-0.038912
H	-0.734053667	 1.8418990311	-0.7061566787	 0.113614
H	-0.7638435369	 2.0539577382	 2.1673816105	 0.090478
H	 1.7863764875	 0.6396563752	 1.8074419253	 0.095613
H	 2.9704837773	 2.7311216783	 3.0691885645	 0.113314
H	 1.8348388528	 4.9569022284	 1.9878866853	 0.112677
H	 0.0548480885	 4.036777908	 0.1588525283	 0.072881
H	 2.1318509186	 2.1410264169	-0.6945426475	 0.090479
131.5599	155.7254	372.3542	379.2751	496.6613	504.7533	570.4292	682.4909	718.9042	776.4438	790.1052	817.5451	857.0021	914.739	921.4344	930.0607	935.1963	953.1833	992.92	1027.2275	1035.6421	1082.4955	1090.5872	1139.2376	1148.2623	1176.4873	1194.5625	1206.5423	1239.7237	1259.6984	1318.1652	1327.6449	1374.5733	1633.6296	2350.0416	3075.347	3094.7673	3096.4201	3117.3448	3137.371	3227.3943	3253.7298
N#CC1C2C3C=CC2C13	N#C[C@H]1[C@H]2[C@@H]3C=C[C@H]2[C@H]13	
InChI=1S/C8H7N/c9-3-6-7-4-1-2-5(7)8(4)6/h1-2,4-8H	InChI=1S/C8H7N/c9-3-6-7-4-1-2-5(7)8(4)6/h1-2,4-8H/t4-,5+,6-,7-,8+
