16
gdb 11291	4.01643	1.53596	1.34824	1.5854	65.95	-0.2598	0.0338	0.2935	956.4088	0.129382	-383.703372	-383.695402	-383.694458	-383.736312	28.818	
C	-0.1271896029	 1.3923764522	-0.0151983946	-0.414862
C	 0.1583223048	-0.0924065801	 0.0957630281	 0.111936
C	 0.7737024589	-0.7493654736	-1.1585913433	-0.096877
O	 1.7831690976	-1.6256465795	-0.6567144132	-0.250938
C	 1.7432931513	-1.5531586804	 0.7589096108	-0.012472
O	 1.1719908861	-0.3116575527	 1.0829875212	-0.240181
C	 0.9803175049	-2.6819323745	 1.3283031381	 0.345788
C	 0.3707491508	-3.602289092	 1.8028253998	-0.455242
H	 0.782204491	 1.9372195097	-0.2852492408	 0.129886
H	-0.8870789251	 1.5758107562	-0.7813535418	 0.122564
H	-0.4990993165	 1.784514079	 0.9349387208	 0.134343
H	-0.7509815297	-0.636059302	 0.3900919434	 0.087942
H	 0.0331363623	-1.3126787963	-1.736680993	 0.110976
H	 1.2486239225	-0.0087844224	-1.8133301166	 0.106516
H	 2.7707835708	-1.5630954271	 1.1374953379	 0.119511
H	-0.1646681969	-4.4178981065	 2.2231972532	 0.201112
47.9142	94.2436	186.1597	228.1007	264.3942	313.2855	432.6833	523.0146	571.2837	645.2578	658.334	669.0329	805.0647	852.7174	902.376	940.7368	954.7017	970.6234	1037.4844	1099.3863	1121.9437	1157.8065	1173.4995	1226.3787	1311.6814	1357.8707	1363.51	1375.8909	1402.522	1415.6557	1485.2154	1498.533	1526.7336	2232.6117	2999.8514	3025.8158	3043.5859	3061.2832	3071.9579	3116.8761	3125.1949	3500.737
CC1COC(O1)C#C	C[C@H]1CO[C@@H](O1)C#C	
InChI=1S/C6H8O2/c1-3-6-7-4-5(2)8-6/h1,5-6H,4H2,2H3	InChI=1S/C6H8O2/c1-3-6-7-4-5(2)8-6/h1,5-6H,4H2,2H3/t5-,6-/m0/s1
