16
gdb 23517	4.66029	1.31316	1.24611	1.2622	75.47	-0.2372	0.0154	0.2525	1008.5528	0.125393	-400.621017	-400.614449	-400.613504	-400.651914	27.014	
O	-0.1141355118	 1.3543510651	-0.0247426188	-0.399675
N	 0.0416223331	-0.0518573323	-0.0442762326	-0.297697
C	-1.08072124	-0.6328424064	-0.0656144498	 0.477425
C	-2.5524250076	-0.2837784082	 0.0699851813	-0.16929
C	-3.2734168981	-1.0449387875	-1.0722319042	-0.06439
C	-3.6959416347	-2.2099433143	-0.2077914048	-0.115228
C	-2.4773884578	-2.3606385185	-1.0889041078	-0.067699
C	-1.456820677	-2.0935253143	 0.0479517626	-0.16165
C	-2.7323213764	-1.6390620516	 0.8771322032	-0.042707
H	 0.8010228562	 1.6528079234	 0.0030220168	 0.303519
H	-2.9102004917	 0.6885011482	 0.3945529731	 0.089225
H	-3.7421744085	-0.6395000116	-1.9583273757	 0.095063
H	-4.6196554493	-2.7697341532	-0.1619097287	 0.093009
H	-2.34604401	-2.9477605485	-1.9875059301	 0.09512
H	-0.7601180868	-2.8699189415	 0.3524417417	 0.081468
H	-2.8013232698	-1.6934661186	 1.9594196938	 0.083507
116.4024	190.2389	306.309	399.8269	441.5735	574.6311	668.5597	701.4281	725.2482	784.6138	787.974	800.5742	813.2278	845.8147	869.1281	895.0736	922.1392	965.4595	982.0258	993.7997	1019.4664	1024.3624	1044.4119	1075.6043	1132.988	1172.442	1173.815	1178.0463	1201.6127	1229.615	1249.7203	1267.8929	1349.9535	1405.224	1795.8473	3156.1013	3163.2454	3171.3719	3203.0881	3203.9106	3219.5917	3818.8783
ON=C1C2C3C4C3C1C24	ON=C1[C@H]2[C@@H]3[C@H]4[C@@H]3[C@@H]1[C@@H]24	
InChI=1S/C7H7NO/c9-8-7-5-2-1-3(2)6(7)4(1)5/h1-6,9H	InChI=1S/C7H7NO/c9-8-7-5-2-1-3(2)6(7)4(1)5/h1-6,9H/t1-,2+,3-,4+,5-,6+
