20
gdb 90973	3.80086	1.35649	1.26254	1.4497	79.21	-0.2349	0.0661	0.301	1077.9303	0.17259	-403.04975	-403.042365	-403.041421	-403.081517	30.416	
C	-0.2005379194	 1.5468051986	 0.0229970778	-0.391111
C	 0.0683290238	 0.0521535227	 0.0252156959	 0.131897
C	 0.7259020667	-0.4916849381	-1.3087871323	-0.34001
C	 1.5591190156	-1.6301399582	-0.7259782577	 0.030683
N	 3.1143648478	-1.9216958854	-0.6772784987	-0.178213
C	 3.2526666053	-0.4991209837	-0.1274298469	-0.235332
C	 1.9782435036	-1.0305944642	 0.5816296089	 0.380245
C	 2.8150311678	-2.3212360209	 0.794626899	-0.240812
O	 0.9575270737	-0.2759754388	 1.1468669875	-0.335286
H	 0.7264144482	 2.1064665996	-0.1361939254	 0.121255
H	-0.9041462158	 1.805777778	-0.775464894	 0.116432
H	-0.6325836849	 1.8622477503	 0.9765249088	 0.129865
H	-0.8689631998	-0.490684323	 0.2042471462	 0.085507
H	-0.0416738441	-0.8196960271	-2.0129698634	 0.108978
H	 1.3072013996	 0.2964918324	-1.7914517309	 0.118089
H	 1.0059363999	-2.5721026288	-0.6935409324	 0.078682
H	 4.1545281294	-0.3569749864	 0.4723495612	 0.10012
H	 3.1610183029	 0.2804009268	-0.8840071841	 0.10209
H	 2.2821258653	-3.2696246682	 0.8922720743	 0.109177
H	 3.7037813045	-2.2781187055	 1.4277863761	 0.107743
67.2824	233.897	258.431	350.5344	367.5439	434.8991	452.017	517.1542	600.0448	632.9167	713.2237	729.1059	784.9616	807.5657	856.5428	887.9483	906.0723	935.9079	975.995	998.0984	1039.5639	1047.5554	1057.8371	1086.6271	1128.0383	1140.147	1160.7859	1162.2315	1179.2196	1205.1114	1216.3257	1233.8716	1252.7533	1290.6739	1357.7437	1377.2265	1404.4405	1409.4296	1482.4229	1487.637	1496.8314	1513.1488	1553.4834	3015.4835	3037.4712	3062.6259	3067.2489	3072.8858	3079.8413	3108.8546	3118.5346	3122.6655	3138.3009	3141.0947
CC1CC2N3CC2(C3)O1	C[C@H]1C[C@H]2N3C[C@@]2(C3)O1	
InChI=1S/C7H11NO/c1-5-2-6-7(9-5)3-8(6)4-7/h5-6H,2-4H2,1H3	InChI=1S/C7H11NO/c1-5-2-6-7(9-5)3-8(6)4-7/h5-6H,2-4H2,1H3/t5-,6+/m0/s1
