20
gdb 61011	2.73541	1.25098	0.96191	3.6244	78.89	-0.2376	-0.0197	0.2179	1258.4287	0.16985	-403.108916	-403.099872	-403.098928	-403.143401	33.272	
C	 0.0495096114	 1.5145632742	 0.0514693383	-0.414089
C	 0.1003062023	-0.0259934693	 0.0568046138	-0.091477
C	 0.7333254935	-0.4947555875	 1.356189115	 0.17917
O	 1.8309460191	-0.9768974493	 1.4530054126	-0.251239
C	-1.306271728	-0.6090985619	-0.0718419789	 0.061285
C	-2.0899183265	-0.5070031955	-1.4120686592	-0.291908
C	-2.1911280032	-2.0305375774	-1.3500523273	-0.011159
C	-0.853247483	-2.6417512635	-1.2858023751	-0.239232
N	-1.4327080011	-2.114896015	-0.03371127	-0.145624
H	 1.0561139645	 1.9396496762	 0.0881606016	 0.13512
H	-0.4421766348	 1.8791368381	-0.8555757094	 0.129711
H	-0.5120986092	 1.8951599126	 0.9121093407	 0.124144
H	 0.7477871355	-0.3680772407	-0.7561997705	 0.093308
H	 0.0951317374	-0.3280352546	 2.256822317	 0.072611
H	-1.9153520897	-0.2285545455	 0.7552968202	 0.087196
H	-3.0436762866	 0.0129000455	-1.3110819191	 0.114535
H	-1.5597316496	-0.1030512937	-2.2807422425	 0.105253
H	-3.0942429236	-2.6072369386	-1.5196381401	 0.099057
H	-0.7892126014	-3.7251510829	-1.2787255588	 0.126744
H	-0.0045212371	-2.1465427613	-1.7504383683	 0.116595
51.2983	75.723	155.9467	171.1061	211.3577	282.489	317.0578	361.4334	415.4603	490.0972	552.1042	727.4568	763.5193	784.2105	840.6339	891.7222	928.2409	941.734	958.6193	995.0407	1005.6401	1056.2593	1072.3487	1103.7331	1107.0392	1132.5486	1133.2493	1155.6045	1202.2273	1229.9264	1267.04	1275.4042	1293.9679	1316.3053	1365.8645	1394.6179	1405.493	1428.4879	1487.591	1496.1331	1499.36	1505.2722	1837.6088	2847.9283	3033.6385	3042.0385	3048.9441	3069.3899	3102.9721	3115.2189	3117.7574	3119.7734	3167.5576	3203.3575
CC(C=O)C1CC2CN12	C[C@@H](C=O)[C@H]1C[C@H]2CN12	
InChI=1S/C7H11NO/c1-5(4-9)7-2-6-3-8(6)7/h4-7H,2-3H2,1H3	InChI=1S/C7H11NO/c1-5(4-9)7-2-6-3-8(6)7/h4-7H,2-3H2,1H3/t5-,6-,7+,8?/m0/s1
