17
gdb 57023	2.45043	1.36306	0.91698	7.0508	73.35	-0.2606	0.0184	0.279	1232.8095	0.135739	-418.043798	-418.034682	-418.033738	-418.078358	32.254	
C	 0.0630613265	 1.6120191797	-0.0879868646	-0.396943
C	 0.0196316714	 0.0720845869	-0.0058535183	-0.162123
C	 0.6254400535	-0.5057085622	-1.2119261458	 0.290551
N	 1.1105858431	-0.9120456455	-2.1784489463	-0.317891
C	 0.7152302134	-0.4614332372	 1.2557199964	-0.142473
C	 0.0233675673	-0.1686561348	 2.6227925181	-0.1916
N	-0.0798202461	-1.6170114799	 2.8049243696	-0.320627
C	 0.4831682794	-1.963404178	 1.6005196408	 0.422464
O	 0.684641284	-3.012986877	 1.0577562011	-0.342177
H	 1.096589155	 1.9675247176	-0.1214720772	 0.141392
H	-0.4492786036	 1.9665208758	-0.985429572	 0.14436
H	-0.427089099	 2.0499610449	 0.7857677381	 0.126656
H	-1.0293463776	-0.2516697225	 0.0153379206	 0.132366
H	 1.7766944698	-0.2010763038	 1.2434852976	 0.121561
H	 0.6467796924	 0.339744281	 3.3642137942	 0.121897
H	-0.9436249259	 0.3413721769	 2.5481555261	 0.115404
H	-0.4748666738	-2.1786279518	 3.5443965617	 0.257182
55.6987	93.5763	122.1752	185.7205	214.6411	228.4837	295.5211	315.4475	449.08	509.6141	529.0821	568.7633	694.376	762.2052	822.3099	883.7891	909.3968	978.681	994.4242	1059.6558	1082.177	1103.7635	1149.6556	1165.3151	1176.6846	1208.2926	1268.8364	1299.458	1325.8844	1371.8574	1398.7162	1413.6193	1493.0527	1498.1267	1528.8262	1903.8322	2362.1348	3026.8289	3035.6736	3049.3758	3081.2539	3094.2275	3125.5041	3131.3072	3615.3721
CC(C#N)C1CNC1=O	C[C@@H](C#N)[C@H]1CNC1=O	
InChI=1S/C6H8N2O/c1-4(2-7)5-3-8-6(5)9/h4-5H,3H2,1H3,(H,8,9)	InChI=1S/C6H8N2O/c1-4(2-7)5-3-8-6(5)9/h4-5H,3H2,1H3,(H,8,9)/t4-,5+/m0/s1
