17
gdb 44359	3.49809	1.6528	1.37772	3.4356	72.66	-0.2411	0.0224	0.2634	944.2325	0.138896	-417.973224	-417.966611	-417.965667	-418.004285	26.972	
N	-0.0059555912	 1.0776856653	 0.991323587	-0.519293
C	 0.0376947513	 0.1335024175	 0.1499016332	 0.388647
C	-1.248719441	-0.5033019276	-0.3492701987	-0.254961
N	-1.1598957602	-1.9218075003	-0.7276380059	-0.088474
C	-0.6481694822	-2.3123552779	-2.0315392414	-0.039087
C	 0.3867172966	-1.3118215863	-2.5602244326	-0.285723
C	 1.1569723697	-1.4740861874	-1.2084540192	 0.089889
O	 1.2169252152	-0.3392016705	-0.3453481035	-0.2482
C	 0.1487558971	-2.5433580052	-0.7744921594	-0.083355
H	 0.9389718327	 1.4050330429	 1.2034562667	 0.219007
H	-1.9819927124	-0.3970858588	 0.4520793209	 0.149833
H	-1.6249514561	 0.0783618771	-1.1991419564	 0.133438
H	-1.2268927399	-3.017769428	-2.6156622628	 0.104168
H	 0.9675065509	-1.7030698668	-3.3986030578	 0.11669
H	 0.0359702625	-0.3067676755	-2.8116197516	 0.112564
H	 2.1880564978	-1.8054481266	-1.3269481256	 0.103009
H	 0.3432397492	-3.4360029817	-0.1913219128	 0.101848
82.4633	238.1022	361.5769	406.2544	431.9289	475.2681	541.63	569.5243	720.3054	747.7412	791.2699	846.9528	855.455	888.4579	908.5604	914.631	968.4793	974.2239	1023.2039	1037.9401	1045.2663	1064.703	1093.0312	1129.9421	1171.6822	1206.416	1233.3666	1251.0281	1269.1747	1279.1089	1309.4467	1340.7749	1377.5755	1411.5031	1472.2556	1494.2373	1750.3348	3042.6536	3061.2531	3111.6604	3112.943	3124.4708	3177.3645	3191.7969	3462.1513
N=C1CN2C3CC(O1)C23	[NH][C]1CN2[C@H]3C[C@@H](O1)[C@@H]23	
InChI=1S/C6H8N2O/c7-5-2-8-3-1-4(9-5)6(3)8/h3-4,6-7H,1-2H2	InChI=1S/C6H8N2O/c7-5-2-8-3-1-4(9-5)6(3)8/h3-4,6-7H,1-2H2/t3-,4+,6-,8?/m0/s1
