21
gdb 86385	2.57873	1.45196	1.10326	1.7748	77.62	-0.2484	0.0811	0.3295	1184.353	0.181838	-424.234183	-424.225008	-424.224064	-424.267657	35.343	
C	 0.1187000481	 1.5777345261	-0.0214359087	-0.401001
C	 0.0203105836	 0.0513050456	 0.0139385395	-0.003668
C	 0.6329356365	-0.652725831	-1.221460015	-0.268277
C	 1.1451820029	-2.0328228521	-0.7378084005	 0.08873
O	 2.2769595082	-2.5148775426	-1.4404375938	-0.441028
C	 1.4053740181	-1.8394510863	 0.7538810121	 0.373241
C	 1.7168242046	-3.0194761294	 1.6282905021	-0.49354
O	 2.1941089058	-0.6436153698	 0.9704662588	-0.316068
C	 0.7687897121	-0.5889310202	 1.1730634827	-0.022324
H	 1.1676215764	 1.8900227375	-0.0499177118	 0.129217
H	-0.381832026	 1.9855593354	-0.9054885746	 0.115467
H	-0.344976353	 2.0286725233	 0.8625317201	 0.111775
H	-1.0355796215	-0.2371186855	 0.1148477989	 0.075181
H	-0.0728027437	-0.7412384265	-2.0505270145	 0.10243
H	 1.4895215883	-0.0765648256	-1.5853713855	 0.104231
H	 0.3762967688	-2.803705424	-0.869469536	 0.086836
H	 2.9904247241	-1.8873882669	-1.271601688	 0.285736
H	 2.5817647883	-3.5614921842	 1.2327268911	 0.136614
H	 1.9408550406	-2.6989057252	 2.6484242941	 0.127496
H	 0.871338877	-3.715423676	 1.6543000866	 0.121817
H	 0.4597038005	-0.4074634824	 2.2010327825	 0.087135
91.8256	132.0421	192.1208	223.1389	233.3785	243.382	300.103	380.4478	403.5076	443.7406	488.7356	568.6558	599.6732	629.0823	697.4444	828.2134	856.3628	889.6709	927.3251	941.9204	997.2388	1008.5997	1043.3486	1048.8224	1097.2575	1101.7302	1125.8493	1146.3733	1199.8223	1240.8182	1260.1927	1299.7646	1324.1888	1332.7655	1336.2214	1368.2059	1405.6384	1407.5227	1431.6836	1465.7621	1482.1989	1486.1833	1496.6031	1501.8517	1502.3142	3007.9882	3031.4746	3037.3942	3043.2342	3056.7783	3098.2302	3102.1044	3106.3937	3110.3982	3126.7119	3130.6818	3784.3931
CC1CC(O)C2(C)OC12	C[C@H]1C[C@@H](O)[C@@]2(C)O[C@@H]12	
InChI=1S/C7H12O2/c1-4-3-5(8)7(2)6(4)9-7/h4-6,8H,3H2,1-2H3	InChI=1S/C7H12O2/c1-4-3-5(8)7(2)6(4)9-7/h4-6,8H,3H2,1-2H3/t4-,5+,6-,7+/m0/s1
