14
gdb 129732	2.32571	1.92493	1.05899	3.4652	67.52	-0.2276	-0.0375	0.1901	1033.3991	0.103115	-470.035135	-470.027236	-470.026292	-470.068555	28.889	
N	-0.2774833293	 1.3929451294	 0.068420895	-0.627318
C	-0.0688964852	-0.0230244625	 0.0191959526	-0.03415
C	-1.1984920124	-0.7972574262	 0.022138661	 0.491674
O	-2.4318705091	-0.2884500569	 0.0676395051	-0.408449
N	-1.1202170519	-2.1493364989	-0.0219639828	-0.291822
N	 0.0410059194	-2.8338185314	-0.0711878424	-0.187171
C	 1.1315633344	-2.1331476368	-0.0754389564	-0.078681
C	 1.2255820961	-0.6566543394	-0.0315787398	 0.289256
O	 2.2977628658	-0.0555917741	-0.0384630177	-0.407245
H	 0.2094326355	 1.7796121143	 0.8749077031	 0.258319
H	 0.1701332184	 1.8298380499	-0.7351866289	 0.258311
H	-2.2802205509	 0.678129378	 0.0942824226	 0.312308
H	-1.9593277443	-2.7076786707	-0.0192716337	 0.285745
H	 2.0583876636	-2.6975848647	-0.1152911076	 0.139224
25.6178	159.6943	224.0329	265.8849	270.2756	326.4014	473.1993	499.2304	523.3011	591.3509	591.785	671.2115	691.9775	735.1434	776.8147	868.7786	930.445	944.4291	1090.0355	1114.188	1209.3867	1219.3506	1298.3594	1334.5571	1377.6319	1407.3678	1563.4206	1619.1165	1636.2727	1698.8956	1725.1862	3184.9146	3472.142	3522.6704	3574.1254	3645.1115
NC1=C(O)NN=CC1=O	Nc1c(O)[nH]ncc1=O	
InChI=1S/C4H5N3O2/c5-3-2(8)1-6-7-4(3)9/h1H,(H2,5,6)(H2,7,8,9)	InChI=1S/C4H5N3O2/c5-3-2(8)1-6-7-4(3)9/h1H,(H2,5,6)(H2,7,8,9)
