21
gdb 116202	2.2763	1.50773	1.16597	1.742	74.75	-0.2539	0.0696	0.3235	1167.4746	0.180833	-461.367819	-461.357964	-461.357019	-461.40226	36.369	
C	-0.4219043897	 1.2989001768	 0.2508546955	-0.241391
O	-0.2930255507	-0.110365665	 0.223757998	-0.254096
C	 0.7947528734	-0.5872224606	 0.9734018871	 0.226156
O	 0.6513410997	-0.3141181855	 2.3467821788	-0.270249
C	 0.1254342823	-1.460710587	 3.0321983404	-0.072082
C	-0.1654795051	-2.508910214	 1.9518928596	-0.275887
C	 0.8351024353	-2.1220497894	 0.8464752499	 0.334877
C	 0.5126885699	-2.6625613089	-0.5404733451	-0.453422
O	 2.1672442641	-2.4684523103	 1.2347989724	-0.481747
H	 0.4716630078	 1.788338794	-0.1656440585	 0.105505
H	-1.2863059951	 1.5535716073	-0.3663452361	 0.122469
H	-0.5790977735	 1.6673226719	 1.2709746536	 0.127042
H	 1.7289379513	-0.1144918471	 0.6398614745	 0.078172
H	 0.8831736062	-1.8140503989	 3.740489408	 0.106596
H	-0.7669280326	-1.167099075	 3.5946139835	 0.102039
H	-0.0200613369	-3.5344246974	 2.3029009111	 0.090313
H	-1.1869513746	-2.4109290492	 1.5741177977	 0.116534
H	-0.469384465	-2.3272615946	-0.8766901829	 0.1383
H	 1.2631689644	-2.3238207615	-1.2605351428	 0.124129
H	 0.5215813655	-3.7593019822	-0.5307854953	 0.099815
H	 2.2366121134	-3.4284148633	 1.2108014205	 0.276927
83.5165	120.0276	145.2957	185.8329	201.2601	222.3579	262.3614	292.3179	344.2481	352.5547	406.2415	497.8129	548.8327	614.2176	723.8648	783.6876	893.9149	938.0972	944.8931	951.7352	997.7574	1004.0009	1025.2653	1071.8231	1113.928	1144.6556	1176.6923	1180.6435	1205.2051	1208.9812	1232.0572	1237.5573	1316.5994	1334.8922	1374.9565	1394.0737	1405.8227	1412.4283	1472.6114	1476.204	1483.5508	1488.7669	1498.2012	1514.6513	1523.4992	2990.7412	3019.4278	3031.7517	3034.3493	3059.2148	3066.337	3072.6375	3100.7907	3111.1125	3123.2115	3144.9146	3814.0881
COC1OCCC1(C)O	CO[C@H]1OCC[C@]1(C)O	
InChI=1S/C6H12O3/c1-6(7)3-4-9-5(6)8-2/h5,7H,3-4H2,1-2H3	InChI=1S/C6H12O3/c1-6(7)3-4-9-5(6)8-2/h5,7H,3-4H2,1-2H3/t5-,6-/m0/s1
