16
gdb 20287	4.07875	3.01573	2.78113	0.0193	68.51	-0.2414	0.0835	0.3249	610.9598	0.134143	-309.406376	-309.401725	-309.400781	-309.434667	21.402	
C	 0.0213572616	 1.4783968862	 0.0616257627	-0.070802
C	-0.2471869578	 1.8839935275	 1.5068408537	-0.070802
C	 0.8919029166	 1.415571486	 2.3859129628	-0.084424
C	-0.4216059275	 0.6451959488	 2.3581207363	-0.084424
C	 0.2042734719	-0.4350169948	 1.4371013709	-0.065682
C	 0.025779201	-0.0306486492	-0.0500099571	-0.084424
C	 1.3393139502	 0.7396802181	-0.0221610623	-0.084423
C	 1.558159828	 0.3589864969	 1.4658033416	-0.06568
H	-0.3154793136	 2.0828210548	-0.7705609684	 0.080796
H	-0.7843003042	 2.790907914	 1.7524787222	 0.080796
H	 1.3436137471	 2.0044725719	 3.1751516301	 0.079632
H	-1.1805132045	 0.5240658806	 3.1217509416	 0.079632
H	 0.1665522865	-1.4830094519	 1.7242167062	 0.065269
H	-0.4425663453	-0.5907335752	-0.8504484605	 0.079632
H	 2.081608542	 0.8895826907	-0.7969333671	 0.079632
H	 2.4818308272	-0.1251805735	 1.7733112215	 0.065271
548.5447	560.1901	689.3805	697.4466	753.7745	764.4182	769.5835	782.0385	815.0417	817.0138	859.7339	900.4606	912.1389	915.4951	941.8747	951.9853	955.448	1010.0814	1015.223	1043.9923	1050.4126	1052.7742	1053.7953	1070.4482	1137.3322	1185.2543	1212.6199	1222.3982	1236.4483	1237.0798	1283.6612	1309.4763	1333.3322	1381.4615	3139.8183	3148.0962	3173.8239	3174.6948	3180.8829	3185.5435	3198.3841	3210.2805
C12C3C4C3C3C1C2C43	[C@@H]12[C@@H]3[C@H]4[C@@H]3[C@H]3[C@@H]1[C@@H]2[C@@H]43	
InChI=1S/C8H8/c1-2-5(1)6-3-4(6)8(2)7(1)3/h1-8H	InChI=1S/C8H8/c1-2-5(1)6-3-4(6)8(2)7(1)3/h1-8H/t1-,2+,3+,4-,5-,6+,7-,8+
