23
gdb 65917	3.08648	1.11612	1.10138	1.8783	84.4	-0.242	0.0735	0.3155	1261.912	0.20589	-388.257907	-388.248682	-388.247738	-388.292407	34.864	
C	-0.1988793661	 1.7422987565	-0.0171884487	-0.469493
C	 0.0558471174	 0.236485577	-0.0056918643	 0.331158
C	 1.0836390588	-0.283374424	-1.0683604393	-0.256066
C	 1.7965237128	-1.1027537478	 0.0401394997	-0.208945
C	 1.032466841	-0.275289405	 1.1077740668	-0.256104
C	-1.2215064544	-0.611584583	-0.0326797412	-0.060972
C	-2.3432153526	-0.2565630332	 0.9727096876	-0.097587
O	-3.1919260896	 0.236472711	-0.0839070267	-0.273466
C	-2.2933960685	-0.2658359023	-1.0939357107	-0.097582
H	 0.7526915112	 2.2835629636	 0.0008196904	 0.10733
H	-0.7404437692	 2.0621057512	-0.9134160942	 0.121014
H	-0.7776491368	 2.0690518925	 0.8529258259	 0.120893
H	 0.6779678488	-0.8358073318	-1.9212731089	 0.093184
H	 1.7107709811	 0.5260115245	-1.4528892992	 0.095821
H	 1.505776912	-2.1565482082	 0.037204272	 0.103337
H	 2.8873014242	-1.0548402163	 0.065601631	 0.097708
H	 1.6409603886	 0.5370579176	 1.5153131658	 0.095817
H	 0.5870558585	-0.8214893538	 1.9447132765	 0.093179
H	-0.9448558931	-1.6694985704	-0.0213390324	 0.071092
H	-2.7892965129	-1.1216334556	 1.4819492309	 0.093434
H	-2.121954064	 0.5142399046	 1.7198145304	 0.101408
H	-2.0362810974	 0.4982114529	-1.8364941832	 0.101398
H	-2.7146486297	-1.1355294899	-1.6162827181	 0.09344
58.639	72.6819	121.6287	187.8607	213.0902	285.1162	319.221	337.0768	419.1709	460.8959	627.3488	687.2153	784.2707	802.7272	848.2142	873.7255	876.1933	906.1952	945.4627	957.4153	970.2066	993.5787	1015.207	1038.418	1065.073	1080.1989	1083.867	1156.8482	1159.391	1162.5449	1184.1587	1217.3355	1217.8252	1255.9568	1257.4042	1277.5904	1285.8533	1305.0816	1323.6383	1366.2623	1386.0256	1416.0115	1476.8382	1482.7445	1488.3632	1489.5879	1508.0953	1516.6196	1536.5893	2999.4927	3008.9621	3030.7586	3046.4686	3048.2977	3052.7077	3053.109	3062.7774	3068.9979	3089.6874	3096.6233	3097.2433	3100.7589	3118.0891
CC1(CCC1)C1COC1	CC1(CCC1)C1COC1	
InChI=1S/C8H14O/c1-8(3-2-4-8)7-5-9-6-7/h7H,2-6H2,1H3	InChI=1S/C8H14O/c1-8(3-2-4-8)7-5-9-6-7/h7H,2-6H2,1H3
