23
gdb 92854	2.73462	1.49341	1.11453	0.3309	90.96	-0.2212	0.0284	0.2496	1189.4347	0.208767	-351.188116	-351.179926	-351.178982	-351.220628	33.19	
C	-0.1309747496	 1.5534717383	-0.159060878	-0.388802
C	-0.0053050815	 0.0314392629	-0.0341770752	-0.021175
C	 0.935233131	-0.5442910587	-1.1443868886	-0.254395
C	 2.2819617898	-0.6489419849	-0.4544643631	-0.251723
C	 2.1393314192	-0.5997786961	 0.8672060798	 0.397434
C	 3.0420243011	-0.5066202296	 2.0704613622	-0.339456
C	 2.0628249287	-0.1619835842	 3.2337745111	-0.203244
C	 0.7963347491	 0.4157188878	 2.5535399144	-0.240795
C	 0.6893213443	-0.4366622597	 1.2751630527	-0.038968
H	 0.8504231878	 2.037970212	-0.1106836852	 0.11724
H	-0.5855230466	 1.8209107469	-1.1187560241	 0.107553
H	-0.7556554866	 1.9760411508	 0.6343876715	 0.111021
H	-1.0067319404	-0.4035095217	-0.1174407578	 0.06072
H	 0.5869274519	-1.5282268713	-1.4914712093	 0.09674
H	 0.9614796864	 0.0996982666	-2.0323040025	 0.092692
H	 3.2159292789	-0.7439297675	-0.998254776	 0.081463
H	 3.5956788168	-1.4312308715	 2.267551356	 0.10877
H	 3.7930479239	 0.2800212236	 1.9333336199	 0.112665
H	 1.7984203122	-1.0788539249	 3.7729507234	 0.099994
H	 2.5009858482	 0.5219934911	 3.9657561713	 0.094354
H	-0.0851754789	 0.364913083	 3.1994932064	 0.089512
H	 0.9598494426	 1.4685207271	 2.2982860187	 0.099478
H	 0.2804880619	-1.4190781599	 1.5632902322	 0.068925
81.4581	164.8502	216.5573	260.2558	283.5493	326.7054	400.2835	433.9818	550.5617	587.9638	646.1699	705.3305	765.4622	819.9021	839.1467	850.989	894.1124	903.3864	920.0173	937.6252	977.0058	996.8145	1010.8824	1040.8747	1073.5962	1078.1534	1114.9108	1162.768	1172.9423	1183.9459	1222.7777	1228.6928	1251.2884	1269.0228	1290.4908	1308.3002	1321.1272	1338.5965	1351.4774	1355.7747	1376.9516	1406.6918	1475.4551	1486.3573	1490.9523	1500.0716	1502.1929	1507.3227	1733.6243	2959.3002	2995.1496	3028.8928	3033.235	3039.3894	3040.3805	3045.3808	3047.1848	3063.9923	3087.1415	3096.3842	3099.3792	3100.7403	3184.2541
CC1CC=C2CCCC12	C[C@H]1CC=C2CCC[C@@H]12	
InChI=1S/C9H14/c1-7-5-6-8-3-2-4-9(7)8/h6-7,9H,2-5H2,1H3	InChI=1S/C9H14/c1-7-5-6-8-3-2-4-9(7)8/h6-7,9H,2-5H2,1H3/t7-,9-/m0/s1
