19
gdb 97840	3.64339	0.72378	0.64809	1.7112	81.42	-0.2495	0.0198	0.2693	1743.7647	0.157432	-422.968314	-422.95822	-422.957276	-423.005765	34.749	
C	-0.1367065953	 1.5447407634	-0.3104104733	-0.408383
C	 0.0569298379	 0.045101565	-0.1616101767	-0.03854
C	 1.4215988003	-0.5394915151	-0.5836721241	-0.07403
O	 1.6903934103	-1.0285372753	 0.746724996	-0.279634
C	 0.42688421	-0.5231021549	 1.2503831921	-0.068013
C	 0.5676319976	 0.4092356665	 2.3548326596	 0.089465
C	 0.6670686692	 1.1863356133	 3.2716734622	 0.058219
C	 0.8159337096	 2.0775662228	 4.4209611442	-0.194693
O	 0.3750934954	 1.5086768495	 5.6453901582	-0.400783
H	 0.6995259621	 2.0974632976	 0.1276426673	 0.129538
H	-0.2096334384	 1.8166046068	-1.3689239928	 0.116257
H	-1.0532540394	 1.8774086496	 0.1865964259	 0.125282
H	-0.7901647244	-0.4925947987	-0.5942270169	 0.086028
H	 1.3917562432	-1.3520499966	-1.3194836817	 0.101425
H	 2.1653129306	 0.202668616	-0.9021219475	 0.102185
H	-0.2187159505	-1.3549886844	 1.5630413387	 0.102367
H	 1.8653469303	 2.4076228055	 4.4846119684	 0.122602
H	 0.2112095526	 2.9800777012	 4.2774494559	 0.141494
H	 0.8154853589	 0.6577744481	 5.7422783643	 0.289214
25.2769	33.3481	80.3772	116.4159	166.2193	220.0754	280.5809	303.93	348.5401	376.9584	471.4597	544.5311	567.5445	737.6971	777.9738	882.587	899.8066	926.0368	972.4514	989.4853	1017.3041	1044.7403	1064.4249	1127.5508	1151.2894	1174.7479	1190.1524	1215.7882	1246.1326	1272.7413	1344.1367	1355.2409	1358.3181	1381.1568	1415.6422	1418.1341	1487.7613	1492.5555	1494.6361	1526.7933	2348.0273	2976.8067	3004.6502	3011.916	3036.1153	3051.6872	3061.776	3078.1195	3103.2468	3116.2436	3815.6869
CC1COC1C#CCO	C[C@H]1CO[C@H]1C#CCO	
InChI=1S/C7H10O2/c1-6-5-9-7(6)3-2-4-8/h6-8H,4-5H2,1H3	InChI=1S/C7H10O2/c1-6-5-9-7(6)3-2-4-8/h6-8H,4-5H2,1H3/t6-,7-/m0/s1
