19
gdb 50862	2.06081	1.26667	0.86944	2.1399	76.91	-0.2461	-0.043	0.2031	1345.3329	0.156777	-423.03709	-423.027442	-423.026497	-423.0737	33.787	
O	-0.2638340839	 3.3089398083	 0.6022009239	-0.233919
C	 0.1150069655	 2.4592759034	-0.1592236337	 0.164716
C	 1.578952001	 2.129839755	-0.4154187188	-0.359023
C	 1.8624284516	 2.1768817367	-1.9229271652	 0.356876
O	 1.3653518512	 1.3536900193	-2.6552961424	-0.303821
C	 2.7060721034	 3.3316157118	-2.4427752006	-0.311163
C	 1.921402333	 4.6347482347	-2.4008956168	 0.021097
C	 1.9222035799	 5.5247256654	-1.1806499712	-0.249182
C	 2.6369058564	 5.9624016087	-2.4328272655	-0.280166
H	-0.5910195207	 1.8411207309	-0.7532785209	 0.105274
H	 2.208338511	 2.7984100299	 0.1717201874	 0.124063
H	 1.7371624745	 1.0911519856	-0.1007776517	 0.150458
H	 3.6146187749	 3.4303776734	-1.8361942517	 0.108687
H	 2.9966465398	 3.0899408287	-3.469482095	 0.125361
H	 0.9870971889	 4.5933182089	-2.9544796497	 0.100871
H	 0.9963891661	 6.0151877433	-0.9041369882	 0.129635
H	 2.5316441564	 5.2326828463	-0.332099335	 0.116062
H	 3.7220248828	 5.9520958475	-2.4263984082	 0.114497
H	 2.2048328681	 6.7592802821	-3.0275325668	 0.119679
30.8335	38.9551	100.6597	113.3442	148.613	231.208	305.0136	324.231	428.2662	477.2405	558.2038	631.0009	772.4756	780.0192	813.8833	839.4774	867.6601	903.6725	923.5108	984.8129	1034.0935	1045.1989	1065.0068	1090.1022	1099.0986	1144.0063	1156.3413	1198.2585	1206.3906	1229.6796	1250.9292	1289.6151	1302.5417	1400.8118	1408.2597	1446.2265	1466.4734	1475.1447	1506.8951	1793.0975	1837.8407	2915.3752	3033.5804	3047.6918	3095.2987	3133.3616	3140.9114	3144.1799	3144.7583	3213.4269	3229.5954
O=CCC(=O)CC1CC1	O=CCC(=O)CC1CC1	
InChI=1S/C7H10O2/c8-4-3-7(9)5-6-1-2-6/h4,6H,1-3,5H2	InChI=1S/C7H10O2/c8-4-3-7(9)5-6-1-2-6/h4,6H,1-3,5H2
