15
gdb 60997	3.41241	1.09733	0.93615	6.2641	67.48	-0.2748	-0.051	0.2237	1208.5948	0.111014	-453.922559	-453.913767	-453.912823	-453.956837	31.005	
O	-0.5535087918	 1.1514420241	-0.0285737006	-0.40382
C	-0.0892045724	-0.1568541713	-0.0913690086	 0.026437
C	 0.9647711551	-0.3040553946	-1.1829106109	 0.144277
O	 1.3884770559	 0.6505955252	-1.7819335285	-0.243198
C	 0.529482842	-0.6438321719	 1.2220475957	-0.05121
N	 1.4195665232	 0.2862627762	 1.9064018653	-0.305347
C	 0.1565581619	-0.0983419663	 2.5639641683	-0.190694
C	-0.8330416514	 0.9268669106	 2.8036958777	 0.350725
N	-1.6430125844	 1.6944636966	 3.1030832788	-0.335125
H	 0.1037043959	 1.6976718854	-0.4864008033	 0.304588
H	-0.9240713078	-0.834250734	-0.335512098	 0.114001
H	 1.3359264198	-1.3319051943	-1.3776556058	 0.097649
H	 0.7882943028	-1.7032240543	 1.2201353726	 0.104041
H	 2.202171662	-0.189199029	 2.3468006678	 0.250646
H	 0.2128755992	-0.8101124727	 3.3850915097	 0.137029
51.4791	91.2096	122.8473	216.8177	228.5809	290.7746	296.7695	360.1264	397.6655	554.7901	561.4384	681.3229	724.3426	794.8982	826.396	863.1798	901.2408	973.0135	984.415	1039.425	1085.8799	1155.5021	1196.572	1218.5175	1246.5401	1270.7753	1338.884	1391.8147	1406.5816	1428.5149	1461.1286	1826.3135	2366.2904	2918.4696	2985.2953	3103.6446	3133.2778	3517.6516	3717.2523
OC(C=O)C1NC1C#N	O[C@@H](C=O)[C@H]1N[C@H]1C#N	
InChI=1S/C5H6N2O2/c6-1-3-5(7-3)4(9)2-8/h2-5,7,9H	InChI=1S/C5H6N2O2/c6-1-3-5(7-3)4(9)2-8/h2-5,7,9H/t3-,4-,5-/m0/s1
