21
gdb 115822	4.30175	0.98889	0.89754	0.9651	79.6	-0.2453	0.0897	0.335	1388.6	0.181871	-424.220486	-424.211396	-424.210452	-424.254973	33.893	
C	-0.0173015536	 1.4527406164	 0.1725833795	-0.384201
C	 0.0761357706	-0.0407951725	-0.1480834198	-0.203941
C	-1.2796486815	-0.7179719809	-0.1534084807	 0.222311
O	-2.1120159681	-0.1700947099	-1.1670163036	-0.273969
C	-2.9324145079	-1.2209669176	-1.6679585417	-0.153918
C	-2.4106057818	-2.4640471191	-0.9520903589	 0.410084
C	-3.2807666047	-3.3721490981	-0.1246702055	-0.327405
C	-2.6049164372	-3.8697786126	-1.3951658073	-0.344881
O	-1.1479377596	-2.0906871551	-0.4607775214	-0.280661
H	 0.9744072351	 1.9136711678	 0.1700563745	 0.113729
H	-0.6373744512	 1.9685801527	-0.5652227823	 0.137126
H	-0.4601484419	 1.6211370801	 1.1605024202	 0.114046
H	 0.5287473632	-0.2010842054	-1.1322378048	 0.109647
H	 0.7023277747	-0.5561147032	 0.588839443	 0.106033
H	-1.7843764885	-0.6073332594	 0.8257510174	 0.058446
H	-3.9907027267	-1.0301617559	-1.4484345247	 0.103525
H	-2.8029290374	-1.2793330897	-2.7556427308	 0.108703
H	-2.8759067692	-3.7187179079	 0.8194853567	 0.123887
H	-4.3550170833	-3.2176173756	-0.1375238141	 0.113261
H	-3.2163458411	-4.0533402142	-2.2726916865	 0.117931
H	-1.7606440499	-4.54067686	-1.2825960892	 0.130244
53.9863	78.018	113.3089	184.3993	235.2449	272.3506	310.6975	405.1707	431.4808	505.5293	551.4294	712.8796	767.5261	782.0584	810.8252	875.5142	888.2623	911.7964	937.002	956.8808	991.1162	1032.3585	1050.1587	1056.4378	1077.7661	1101.5909	1124.1944	1139.6704	1176.0456	1188.8811	1207.8676	1269.0833	1284.1988	1327.7496	1339.5793	1367.9901	1401.1475	1412.8586	1441.5951	1452.0673	1477.952	1498.5353	1503.9654	1511.1327	1528.2836	2915.853	3012.296	3039.0527	3045.2731	3048.8805	3086.009	3107.2863	3124.9916	3128.5491	3133.2969	3215.0723	3228.927
CCC1OCC2(CC2)O1	CC[C@H]1OCC2(CC2)O1	
InChI=1S/C7H12O2/c1-2-6-8-5-7(9-6)3-4-7/h6H,2-5H2,1H3	InChI=1S/C7H12O2/c1-2-6-8-5-7(9-6)3-4-7/h6H,2-5H2,1H3/t6-/m0/s1
