15
gdb 16687	4.4406	1.77322	1.65328	3.3789	62.29	-0.2504	0.0274	0.2778	806.9553	0.120611	-399.780786	-399.774408	-399.773464	-399.811032	25.423	
O	-0.0045757495	 1.3796525397	-0.1277699034	-0.434703
C	 0.0233318579	-0.0184809036	-0.0328896683	 0.131291
C	 0.0196080096	-0.627806932	 1.4048317762	 0.041597
C	-1.461798319	-0.2102943568	 1.5077292534	-0.244486
C	-1.425538031	-0.6216482572	-0.0085836126	-0.147854
C	-1.0565055292	-2.0741743206	 0.134758272	 0.446282
N	-1.5073468462	-3.0879718281	-0.4576234836	-0.574491
O	-0.0611383898	-2.0481582322	 1.1000538288	-0.262982
H	 0.8953904886	 1.7072262019	-0.030722389	 0.29245
H	 0.7337784341	-0.4747554395	-0.7336830562	 0.088329
H	 0.7807178022	-0.4553659758	 2.1636437311	 0.089705
H	-2.0975992705	-0.7879019689	 2.1808634391	 0.115147
H	-1.5952051999	 0.8613656313	 1.6402504623	 0.131132
H	-2.1887699714	-0.361421628	-0.7353745997	 0.105017
H	-1.0383691358	-3.9347510603	-0.1298403903	 0.223567
164.9376	283.0971	300.9655	307.3968	443.7697	461.1975	533.4174	628.8535	700.8427	810.4822	854.7713	873.8904	887.9824	907.6182	933.308	953.9697	1002.3219	1015.3375	1079.0175	1099.6811	1116.9774	1132.8947	1192.6713	1231.3107	1232.5161	1251.4044	1259.792	1316.5172	1340.5806	1424.0066	1486.7834	1812.5952	3031.6835	3091.4879	3142.6732	3172.5632	3178.3374	3467.2118	3817.2968
OC1C2CC1C(=N)O2	O[C@H]1[C@H]2C[C@@H]1[C]([NH])O2	
InChI=1S/C5H7NO2/c6-5-2-1-3(8-5)4(2)7/h2-4,6-7H,1H2	InChI=1S/C5H7NO2/c6-5-2-1-3(8-5)4(2)7/h2-4,6-7H,1H2/t2-,3+,4+/m0/s1
