16
gdb 55882	2.49437	1.23593	1.02047	3.7659	70.14	-0.2831	-0.0014	0.2817	1212.0651	0.122281	-437.920751	-437.911588	-437.910643	-437.956214	31.778	
C	-0.0658191896	 1.3697699861	-0.2988714085	-0.485926
C	 0.1280788998	-0.1128580323	-0.1316610148	 0.435526
O	 0.778282061	-0.6639727053	 0.7135920934	-0.336404
O	-0.557835216	-0.79131638	-1.1038395677	-0.239154
C	-0.3889411263	-2.1818763834	-1.1034157009	 0.146153
C	-0.8717279858	-2.8831477067	-2.3190424291	-0.330105
C	 0.6334383113	-2.7711317246	-2.0659901765	-0.20485
C	 1.4142795894	-1.8829997462	-2.8767211814	 0.295151
N	 2.0459728732	-1.1589503007	-3.5208762471	-0.33696
H	 0.4052729812	 1.6918935522	-1.2324884463	 0.170328
H	-1.1296481085	 1.6107308465	-0.3682992341	 0.152272
H	 0.3882872089	 1.891764953	 0.5421814019	 0.153516
H	-0.4633694048	-2.6418207461	-0.1255680649	 0.138399
H	-1.3213358934	-3.8632126637	-2.2153835874	 0.140294
H	-1.2738927812	-2.2650410107	-3.1124955691	 0.156705
H	 1.1566842808	-3.661356888	-1.7349224577	 0.145054
36.0797	62.9022	95.3078	154.1067	171.8801	235.0425	348.588	391.706	427.412	551.7208	594.2766	619.8432	691.233	776.2742	797.868	834.6842	912.0503	969.8865	1026.7678	1048.4517	1065.7008	1074.0572	1110.7497	1118.9665	1168.876	1226.4286	1240.7484	1366.7136	1392.0434	1408.1745	1468.8853	1474.3023	1481.5132	1844.7345	2357.0571	3058.9858	3125.6762	3153.3302	3172.6942	3176.3399	3194.0615	3249.2161
CC(=O)OC1CC1C#N	CC(=O)O[C@H]1C[C@H]1C#N	
InChI=1S/C6H7NO2/c1-4(8)9-6-2-5(6)3-7/h5-6H,2H2,1H3	InChI=1S/C6H7NO2/c1-4(8)9-6-2-5(6)3-7/h5-6H,2H2,1H3/t5-,6-/m0/s1
