13
gdb 21702	8.11627	1.20778	1.05141	4.3815	70.65	-0.2109	-0.0257	0.1852	1043.2445	0.096431	-394.78652	-394.779187	-394.778243	-394.818704	25.672	
N	-0.0539571977	 1.3367471397	 0.0424685882	-0.492848
C	 0.0879082166	 0.0008249991	 0.1745066084	 0.121366
N	 1.0676454117	-0.6263190629	-0.3762716731	-0.369998
C	 1.1567765935	-1.982639131	-0.2403481061	 0.526649
C	 2.0973146907	-2.8543044265	-0.7193199554	-0.366859
C	 1.654386656	-4.1141053409	-0.2532143651	 0.04485
N	 0.5476219713	-4.039003772	 0.4468518233	-0.159129
O	 0.2232007293	-2.6755756073	 0.4586962775	-0.228437
H	 0.6644175413	 1.8596394396	-0.4320842752	 0.272318
H	-0.7533572516	 1.8355481378	 0.5608994251	 0.272633
H	-0.6951114966	-0.4832960687	 0.7630644258	 0.140049
H	 2.9633192315	-2.6129824237	-1.3105115853	 0.114281
H	 2.1054109738	-5.085589173	-0.4031365982	 0.125126
67.5519	130.1269	160.3049	169.1419	354.3857	428.8419	476.9693	611.0432	638.2043	729.6973	758.7774	800.6435	920.5762	924.8796	932.2661	995.4731	1021.3832	1049.7523	1091.5833	1221.0179	1271.9252	1316.0696	1357.542	1400.0131	1520.0681	1612.3335	1654.253	1718.8658	3106.1303	3235.7276	3290.2487	3610.5535	3751.8262
NC=NC1=CC=NO1	NC=Nc1ccno1	
InChI=1S/C4H5N3O/c5-3-6-4-1-2-7-8-4/h1-3H,(H2,5,6)	InChI=1S/C4H5N3O/c5-3-6-4-1-2-7-8-4/h1-3H,(H2,5,6)
