19
gdb 81752	3.17041	1.25621	1.05841	1.82	83.34	-0.2421	0.0214	0.2635	1197.7357	0.156583	-385.826383	-385.817207	-385.816263	-385.859837	34.945	
C	-0.3939833597	 1.5701464112	 0.3062406382	-0.407163
C	-0.1491357426	 0.069108275	 0.2402175684	-0.024252
C	 0.2650341968	-0.5105871589	-1.1196790415	-0.073197
O	 1.5381413617	 0.0405731667	-1.4583690102	-0.287418
C	 1.5086408993	-1.0924055822	-0.5630227467	 0.301028
C	 2.2476689714	-2.2604679259	-0.8985132066	 0.180079
C	 2.8814318234	-3.257272122	-1.1256461661	-0.385031
C	 1.1881074877	-0.5396443888	 0.8439119463	-0.093875
C	 2.2294668505	 0.3725268483	 1.4748132715	-0.41274
H	 0.4197749796	 2.1194694184	-0.1733322586	 0.135414
H	-1.3272112647	 1.8332354799	-0.2036223142	 0.115202
H	-0.4758591208	 1.9131580855	 1.3427154244	 0.11655
H	-1.0085367227	-0.477844502	 0.6408941166	 0.079541
H	-0.3540647909	-0.860583036	-1.9387927858	 0.109982
H	 3.4390862933	-4.1351843415	-1.3401115285	 0.18993
H	 0.9410238234	-1.3647687745	 1.5182674286	 0.08365
H	 2.5518366916	 1.1456403652	 0.7729523279	 0.13461
H	 1.8329673717	 0.8633096171	 2.369624649	 0.115314
H	 3.1119066108	-0.2026378156	 1.7743452273	 0.122374
98.1205	129.6003	177.9276	211.1644	218.9614	242.3549	276.7708	352.1134	451.1514	516.4849	549.1358	595.9201	611.7077	643.8939	668.1883	698.5775	756.371	849.9407	867.2191	918.2768	998.4821	1014.78	1037.5884	1054.36	1069.6061	1128.454	1165.276	1174.6182	1210.3397	1259.3498	1279.7708	1353.6502	1358.1402	1402.3408	1406.4707	1429.5176	1484.6859	1497.3348	1499.2271	1511.1207	2238.8669	3035.2872	3038.6768	3052.7835	3071.1229	3096.2459	3100.178	3120.9105	3127.9714	3178.9748	3502.0469
CC1C2OC2(C#C)C1C	C[C@H]1[C@H]2O[C@@]2(C#C)[C@H]1C	
InChI=1S/C8H10O/c1-4-8-6(3)5(2)7(8)9-8/h1,5-7H,2-3H3	InChI=1S/C8H10O/c1-4-8-6(3)5(2)7(8)9-8/h1,5-7H,2-3H3/t5-,6+,7-,8+/m1/s1
