20
gdb 60647	2.97527	1.13011	0.95032	5.1448	75.73	-0.2444	0.0202	0.2646	1291.5227	0.171009	-440.30147	-440.292377	-440.291433	-440.335753	33.435	
C	-0.0090564415	 1.4702479148	-0.1373246525	-0.404925
C	 0.0730128851	-0.0617978247	-0.0922045008	-0.109775
N	 0.8220484506	-0.5235568238	 1.0697845632	-0.101122
H	-0.9577353064	-0.7582069582	 1.7869394035	 0.299033
C	 2.1678337017	 0.025754258	 1.3753283015	-0.164167
C	 2.6008957044	-1.3832830134	 1.8442718616	-0.232327
C	 1.3754447051	-1.9047553969	 1.0601251847	-0.169305
C	-1.3617923208	-0.6191186099	-0.0191156931	 0.428929
O	-2.0815801645	-0.728425258	-0.9734781952	-0.341968
O	-1.7488257419	-0.9262427825	 1.231222534	-0.369685
H	 0.983315809	 1.9133355925	-0.2565001583	 0.122963
H	-0.6272504254	 1.7756304583	-0.9841152604	 0.15053
H	-0.456746823	 1.8621863416	 0.7812627356	 0.129038
H	 0.5093380935	-0.4254550062	-1.0365109778	 0.088731
H	 2.7120226939	 0.3409622158	 0.4730981641	 0.101279
H	 2.1767513961	 0.8443309588	 2.0999706365	 0.11375
H	 3.5822345155	-1.7329367775	 1.5251767929	 0.114637
H	 2.498545385	-1.517357546	 2.9223676054	 0.120015
H	 0.7356240581	-2.6592695598	 1.5262798367	 0.11882
H	 1.6387248356	-2.240215173	 0.0457231282	 0.105548
65.765	105.2463	134.6848	170.1519	229.3104	253.4421	262.2758	367.1382	429.9847	444.9476	621.2781	699.8551	744.9675	775.3174	830.2817	839.2032	846.2124	922.2819	942.9159	968.0459	1018.1478	1052.0613	1074.5205	1122.5264	1137.1389	1152.7318	1209.6552	1220.3701	1231.5604	1237.0294	1269.5372	1292.7315	1316.4139	1331.3961	1361.8847	1399.5147	1411.8974	1489.9343	1495.0489	1498.2806	1505.3375	1533.3265	1875.7771	2976.764	2992.6812	3000.2602	3045.5231	3079.6049	3083.4717	3093.2429	3116.9112	3136.5944	3148.5174	3500.5838
CC([NH+]1CCC1)C([O-])=O	C[C@@H](N1CCC1)C(=O)O	
InChI=1S/C6H11NO2/c1-5(6(8)9)7-3-2-4-7/h5H,2-4H2,1H3,(H,8,9)	InChI=1S/C6H11NO2/c1-5(6(8)9)7-3-2-4-7/h5H,2-4H2,1H3,(H,8,9)/t5-/m1/s1
