19
gdb 106607	2.58323	1.56009	1.2792	2.3577	74.88	-0.243	-0.0114	0.2317	1077.1728	0.159064	-423.028941	-423.020561	-423.019617	-423.061952	31.867	
C	 0.0422079158	 1.5660559788	 0.1041137692	-0.396498
C	-0.0108620416	 0.0366428426	 0.0165239015	-0.298716
C	-1.4069001426	-0.5176053844	-0.0550889681	 0.303784
C	-1.6517693186	-2.0422971073	-0.0917356096	-0.273339
C	-3.2090853912	-2.0492002442	 0.0729134634	-0.236254
C	-3.4266420853	-0.5280319925	 0.1556949285	-0.035681
O	-2.3300347337	-0.0948881859	 1.0237204891	-0.330233
C	-2.5339465392	 0.0119552019	-0.9807978997	 0.412295
O	-2.6349532103	 0.698676168	-1.9497287528	-0.323656
H	 1.0771514269	 1.911970379	 0.1754666979	 0.111595
H	-0.4107104337	 2.023910647	-0.7796098732	 0.141273
H	-0.5005216895	 1.9203394605	 0.9841206039	 0.135428
H	 0.5258406238	-0.3137677694	-0.8740425966	 0.115297
H	 0.498386114	-0.4144627202	 0.8779938924	 0.111109
H	-1.3123925041	-2.495618746	-1.0272587295	 0.113416
H	-1.1406168326	-2.5348775364	 0.7390588178	 0.11452
H	-3.7355889161	-2.5048397107	-0.7700934623	 0.115585
H	-3.5293615892	-2.5419456755	 0.9931132235	 0.118045
H	-4.4001516528	-0.1198494252	 0.4190574347	 0.10203
78.3188	151.4078	164.9317	197.5844	242.38	275.0026	389.4743	468.318	479.0741	625.6032	642.1965	722.2546	750.9035	783.3406	829.0695	851.3407	909.5942	911.6643	954.9181	961.9267	1003.309	1005.7551	1063.1159	1105.8053	1127.0332	1158.2208	1192.1733	1231.9167	1251.903	1262.2415	1305.8021	1312.3566	1347.0079	1392.3745	1413.1603	1468.2497	1478.1442	1496.5304	1497.165	1511.5041	1911.5518	3024.4704	3049.2915	3059.1159	3060.413	3070.5348	3105.5047	3120.1665	3123.6936	3128.9221	3154.1798
CCC12CCC(O1)C2=O	CC[C@@]12CC[C@@H](O1)C2=O	
InChI=1S/C7H10O2/c1-2-7-4-3-5(9-7)6(7)8/h5H,2-4H2,1H3	InChI=1S/C7H10O2/c1-2-7-4-3-5(9-7)6(7)8/h5H,2-4H2,1H3/t5-,7+/m1/s1
