16
gdb 53848	4.05191	0.8308	0.69538	2.8088	74.2	-0.253	-0.0578	0.1952	1558.7932	0.120292	-437.85976	-437.84988	-437.848936	-437.89585	34.15	
C	 0.0322905937	 1.4560015454	 0.0073221601	-0.469378
C	 0.0057197792	-0.0538606401	-0.0008814487	 0.335171
O	 0.9951446373	-0.7420469697	-0.0146853241	-0.274137
C	-1.3828779514	-0.6979195684	 0.0104214986	 0.331182
N	-2.4143907438	 0.0426933515	 0.0250509782	-0.519759
O	-1.2847713237	-2.0422098963	 0.0023869979	-0.215181
C	-2.5079724617	-2.7823384271	 0.0113161826	-0.270734
C	-2.2060980506	-4.2031470292	 0.0007317806	 0.281811
C	-1.9958511074	-5.3843931625	-0.0076260266	-0.378981
H	 1.0694667277	 1.7920363859	-0.0020067579	 0.13737
H	-0.5062204048	 1.8501379152	-0.8592350391	 0.154341
H	-0.4871795201	 1.8402352366	 0.8898223618	 0.154349
H	-3.2947113448	-0.4705803132	 0.0315862488	 0.234531
H	-3.0919458604	-2.5229258365	 0.9059455411	 0.144598
H	-3.1105048713	-2.513654089	-0.8681400612	 0.144597
H	-1.7994802879	-6.4283341225	-0.0150548821	 0.210218
34.6809	77.9161	101.1433	128.6536	134.4893	226.1931	313.9806	337.2053	355.5477	415.6001	478.7232	563.0442	604.7568	625.7326	690.4313	694.7607	812.0428	867.6094	951.6865	992.8476	1020.9322	1036.7087	1049.186	1130.985	1182.9307	1258.8877	1343.8304	1387.5085	1416.2014	1455.4016	1463.4723	1498.5398	1706.5111	1821.34	2255.5827	2996.2185	3028.9549	3055.7154	3120.7092	3161.5056	3499.6784	3504.3436
CC(=O)C(=N)OCC#C	CC(=O)[C]([NH])OCC#C	
InChI=1S/C6H7NO2/c1-3-4-9-6(7)5(2)8/h1,7H,4H2,2H3	InChI=1S/C6H7NO2/c1-3-4-9-6(7)5(2)8/h1,7H,4H2,2H3
