17
gdb 9098	6.01877	0.8239	0.76143	1.1888	68.08	-0.25	-0.038	0.212	1424.1267	0.139925	-401.028953	-401.019612	-401.018667	-401.064722	30.861	
C	-0.1420718638	 1.4280455253	-0.0310975094	-0.350664
N	 0.0303456601	-0.0153540044	-0.0386331992	-0.029363
C	 0.0349641776	-0.7286454216	 1.2216499261	-0.186642
C	-1.3472663575	-0.7811142426	 1.9110932619	-0.273829
C	-1.3113912246	-1.675977143	 3.1306171278	 0.156494
O	-1.5068010102	-1.3074564049	 4.2589600624	-0.225754
C	 0.2104647278	-0.6703976922	-1.2243717085	 0.153215
O	 0.2190849491	-0.1551593455	-2.3210362264	-0.33553
H	 0.597849082	 1.8981056765	 0.6272308654	 0.127878
H	-0.0018633832	 1.7821458808	-1.0523533793	 0.172993
H	-1.1429246196	 1.714148682	 0.3112032584	 0.131473
H	 0.3852385662	-1.7489408496	 1.0287840933	 0.123089
H	 0.7605105171	-0.2632471735	 1.9017637327	 0.127194
H	-1.6815517155	 0.2125552043	 2.2184148619	 0.131254
H	-2.0731795632	-1.196165155	 1.1993700697	 0.128711
H	-1.0702870503	-2.7428197617	 2.9103505059	 0.077412
H	 0.3559067881	-1.7582416749	-1.0704044529	 0.07207
42.5761	59.2138	76.127	107.6959	149.8205	276.3341	307.1049	334.6997	368.1006	395.6002	525.7455	698.5133	785.9868	857.3065	877.5457	978.7356	1026.8203	1080.1721	1091.6753	1104.6355	1157.4502	1206.5071	1266.9648	1282.9794	1315.1948	1399.0456	1425.0784	1436.9887	1440.5149	1443.4065	1468.2245	1492.5875	1497.8995	1521.6356	1799.8515	1837.9288	2854.7757	2932.0956	3016.0931	3025.9081	3033.3882	3068.7787	3077.897	3116.4647	3157.9112
CN(CCC=O)C=O	CN(CCC=O)C=O	
InChI=1S/C5H9NO2/c1-6(5-8)3-2-4-7/h4-5H,2-3H2,1H3	InChI=1S/C5H9NO2/c1-6(5-8)3-2-4-7/h4-5H,2-3H2,1H3
