18
gdb 17003	3.67398	2.1818	1.95566	1.8431	69.86	-0.222	0.0696	0.2916	778.9434	0.156178	-347.761319	-347.754987	-347.754043	-347.791293	26.296	
C	 0.0759075518	 1.4146719659	-0.1674002722	-0.378485
C	 1.416211838	 0.7092337426	-0.0362167967	 0.169654
C	 1.5666749046	 0.1912633751	 1.3983034846	-0.142446
O	 0.2627606001	-0.4635837661	 1.359591378	-0.330033
C	 0.1245154858	-0.0704319165	-0.0170722171	 0.4044
C	 0.0776977562	-1.0274962424	-1.1810587232	-0.293774
C	 1.1264874446	-0.4188726892	-2.1639641631	-0.219269
C	 2.1916666621	 0.2999720367	-1.2724593645	-0.288595
H	-0.2919018533	 2.0045383717	 0.6660647611	 0.118396
H	-0.1660463446	 1.8130058089	-1.1468986108	 0.118301
H	 2.3701779158	-0.5468412315	 1.5107921903	 0.103315
H	 1.6289009829	 0.9279115483	 2.2082810598	 0.10342
H	 0.4054490907	-2.0099561361	-0.8243201096	 0.114968
H	-0.9038637422	-1.1524438542	-1.6488519769	 0.103227
H	 1.5704891692	-1.1759789174	-2.8161235532	 0.103916
H	 0.6388607171	 0.3085786653	-2.8213987975	 0.109007
H	 2.6796971917	 1.121085442	-1.8079202219	 0.101132
H	 2.9783256696	-0.4067330432	-0.9825418471	 0.102867
209.5855	228.4013	323.2094	362.3514	429.5297	541.751	582.3332	625.1004	746.1153	753.2858	841.8087	852.0565	876.4932	907.2845	916.7214	952.7252	972.5576	981.2399	1004.8052	1035.1925	1048.1235	1071.0948	1150.8069	1186.5258	1210.6505	1222.9097	1248.0886	1270.4388	1305.7319	1328.9798	1333.6676	1358.3154	1384.1067	1473.9007	1488.3137	1491.7174	1507.7193	1517.0971	3014.3979	3034.353	3045.4054	3050.1625	3063.8947	3073.6458	3085.1015	3101.7363	3127.4442	3217.4571
C1C23COC12CCC3	C1[C@@]23CO[C@@]12CCC3	
InChI=1S/C7H10O/c1-2-6-4-7(6,3-1)8-5-6/h1-5H2	InChI=1S/C7H10O/c1-2-6-4-7(6,3-1)8-5-6/h1-5H2/t6-,7-/m0/s1
