14
gdb 26644	3.39392	1.28008	0.93412	4.6822	72.3	-0.2126	-0.007	0.2056	1156.4645	0.102574	-432.913234	-432.904779	-432.903834	-432.946329	30.846	
N	 0.1706229817	 1.4241898347	-0.0077737795	-0.614466
C	 0.0232671219	 0.024115839	-0.0202705833	 0.188497
C	-1.0663078171	-0.8159105739	-0.0173559769	 0.185783
O	-2.3565162335	-0.3981183055	 0.0003184415	-0.444186
C	-0.5823356485	-2.1644617001	-0.0359095631	 0.060933
C	 0.8070689029	-2.097638358	-0.0498977472	-0.170251
N	 1.1478030513	-0.7900203907	-0.0401519598	-0.252499
C	-1.406420216	-3.3091572579	-0.0387618977	 0.178783
N	-2.1481315456	-4.201489875	-0.0400487624	-0.373247
H	-0.2522040796	 1.8382539854	 0.8171686536	 0.252499
H	-0.2698737668	 1.8546532402	-0.8148804569	 0.252508
H	-2.9336454029	-1.1708328608	-0.0015485802	 0.311609
H	 1.5380838305	-2.8879979649	-0.0655524243	 0.1501
H	 2.0821633518	-0.4166045125	-0.0461632539	 0.273936
111.7948	118.8518	123.8774	265.5161	266.6806	307.3354	322.8697	440.5368	506.1335	511.0617	568.1446	604.5203	643.2864	709.3274	729.4652	746.2381	776.4517	816.5523	1011.7582	1114.7713	1219.0157	1230.2239	1240.3032	1304.4337	1373.6951	1431.3903	1503.8073	1541.3985	1658.7344	1682.9439	2329.5187	3282.3642	3498.2816	3558.7261	3674.1075	3800.8681
NC1=C(O)C(=CN1)C#N	Nc1c(O)c(c[nH]1)C#N	
InChI=1S/C5H5N3O/c6-1-3-2-8-5(7)4(3)9/h2,8-9H,7H2	InChI=1S/C5H5N3O/c6-1-3-2-8-5(7)4(3)9/h2,8-9H,7H2
