18
gdb 112360	3.27477	1.14272	0.88584	1.8996	73.44	-0.2564	-0.0191	0.2373	1293.3834	0.148457	-439.181271	-439.172622	-439.171678	-439.215441	31.73	
C	 0.1005348273	 1.6097859942	 0.1364198906	-0.3925
C	-0.010357819	 0.0864264179	 0.0300752572	-0.185397
C	 0.6039736844	-0.5044366758	-1.2530017588	-0.116488
C	 0.6941353589	-2.0443046557	-1.2716127003	-0.375063
C	 0.115932403	-2.4875748664	-2.612088455	 0.417487
O	 0.0692011667	-3.5974493604	-3.0756307752	-0.341411
N	-0.3855007815	-1.3423542254	-3.2221582746	-0.350482
C	-0.1934714032	-0.158818882	-2.5184261754	 0.422594
O	-0.5911913741	 0.9215141517	-2.8788541734	-0.347836
H	 1.1500638714	 1.925278849	 0.1395747087	 0.112447
H	-0.3935467088	 2.0979236448	-0.7053925083	 0.156171
H	-0.3557685326	 1.9641708049	 1.065614712	 0.11245
H	 0.4947831725	-0.3813668039	 0.8839912188	 0.104236
H	-1.0626215616	-0.2199738638	 0.0932591524	 0.105996
H	 1.6000227148	-0.0660357136	-1.3938427114	 0.11607
H	 1.7089499658	-2.4332353594	-1.1637149826	 0.144845
H	 0.0918188399	-2.4997634436	-0.4780999287	 0.145068
H	-0.8615103841	-1.3675017525	-4.113304886	 0.271813
38.1446	117.4304	134.9811	196.0446	243.3241	311.0023	344.5483	404.4199	544.8713	557.2232	630.5238	641.5742	678.589	723.7324	756.2956	830.7044	876.2105	933.2936	957.6706	1024.0603	1062.9801	1114.898	1132.7801	1175.3947	1202.9355	1257.0511	1285.8404	1296.0143	1336.868	1354.7917	1363.2864	1373.1625	1414.4506	1463.8645	1489.0957	1496.5334	1514.1457	1827.5076	1872.8456	3019.5473	3033.4432	3037.6745	3057.8473	3062.224	3101.0578	3115.1183	3143.1068	3616.1714
CCC1CC(=O)NC1=O	CC[C@H]1CC(=O)NC1=O	
InChI=1S/C6H9NO2/c1-2-4-3-5(8)7-6(4)9/h4H,2-3H2,1H3,(H,7,8,9)	InChI=1S/C6H9NO2/c1-2-4-3-5(8)7-6(4)9/h4H,2-3H2,1H3,(H,7,8,9)/t4-/m0/s1
