18
gdb 39081	3.52684	1.76647	1.52395	1.649	73.91	-0.2459	0.0088	0.2546	903.8106	0.151874	-401.935244	-401.929106	-401.928161	-401.965338	26.403	
C	-0.0782660031	 1.5790758426	 0.1484242811	-0.267305
C	 1.4503825066	 1.4230719326	-0.0241044348	-0.087429
C	 1.7955753317	 0.6090234041	 1.2647024384	-0.214559
C	 0.6102661463	-0.4429613284	 1.2880587472	-0.316609
C	-0.035967973	 0.010366653	-0.0117351712	 0.385174
N	-1.0839096735	-0.5983846787	-0.8133259219	-0.354926
C	-0.7226065914	-0.3116605596	-2.0009856397	 0.077774
O	 0.4703127655	 0.3367584449	-2.2209815534	-0.262179
C	 1.1670636817	 0.2287030692	-0.9582565426	 0.11365
H	-0.4470924107	 1.9827570847	 1.094021686	 0.094948
H	-0.56790474	 2.0656039698	-0.6939739513	 0.115793
H	 2.1142260723	 2.2507081435	-0.2724999036	 0.071018
H	 2.7723843218	 0.1210646679	 1.2005066537	 0.105183
H	 1.800319304	 1.2552408226	 2.1459002063	 0.107992
H	 0.9677189317	-1.4749712553	 1.2461238783	 0.106827
H	-0.0354444036	-0.3348743825	 2.1625282083	 0.109172
H	-1.2840360956	-0.5208680352	-2.9047808698	 0.138625
H	 1.9478704291	-0.5319101251	-1.0679200809	 0.076849
270.2568	274.1264	326.544	423.5223	436.2228	546.8183	580.6218	667.309	710.9041	816.8425	845.1257	851.0844	864.2536	901.3984	918.9432	945.4126	956.7461	960.136	1000.0309	1025.0071	1046.3139	1065.5014	1097.5358	1116.3791	1140.392	1189.2823	1220.5084	1228.784	1236.706	1275.4829	1285.3994	1298.0184	1327.4782	1333.674	1379.608	1488.863	1497.5291	1520.4939	1643.8334	3045.331	3057.1718	3067.3452	3075.8911	3099.68	3117.8049	3119.1513	3152.7122	3216.7055
C1C2CCC11N=COC21	C1[C@H]2CC[C@]31[N][CH]O[C@@H]23	
InChI=1S/C7H9NO/c1-2-7-3-5(1)6(7)9-4-8-7/h4-6H,1-3H2	InChI=1S/C7H9NO/c1-2-7-3-5(1)6(7)9-4-8-7/h4-6H,1-3H2/t5-,6+,7-/m1/s1
