17
gdb 34444	3.00463	1.76993	1.29677	4.5318	76.6	-0.2397	0.022	0.2616	968.8633	0.139252	-380.835307	-380.828555	-380.82761	-380.866296	27.444	
N	-0.0619866013	-1.1278506841	 0.0216191732	-0.34386
C	-0.0306078502	 0.0275225668	 0.0400473479	 0.201543
C	-0.0043674206	 1.47682223	 0.0327172848	 0.273352
N	-0.8228143205	 2.1086243909	 1.0637664752	-0.374748
C	-0.6395934139	 3.5484199712	 0.7374940303	-0.201078
C	 0.3763953596	 3.441754177	-0.3940575685	-0.052312
C	 1.3477794333	 2.2571412494	-0.058206413	-0.072874
C	 1.4430034135	 1.9276308853	-1.5649674524	-0.262228
C	-0.0465042145	 2.2668991231	-1.3372839824	-0.101987
H	-1.79315363	 1.824324916	 0.9803548658	 0.229522
H	-1.5725708945	 4.0272556958	 0.4182273553	 0.106191
H	-0.2527305266	 4.0991647526	 1.601959533	 0.115703
H	 0.7852897072	 4.3521571009	-0.8314966201	 0.082993
H	 2.1307507532	 2.2414278312	 0.6997738272	 0.092064
H	 2.0097018142	 2.6361775184	-2.1725676129	 0.103007
H	 1.6825667778	 0.896223129	-1.8331966369	 0.120897
H	-0.8661863567	 2.2591414665	-2.0569807864	 0.083816
152.2542	161.6382	288.5028	386.7934	403.4465	525.8317	536.996	563.5497	697.2776	703.4137	745.127	826.2867	845.8952	900.2279	918.2089	924.5705	966.5373	990.9806	1025.1308	1037.6636	1051.3413	1065.7701	1107.3657	1132.3027	1152.6828	1178.2304	1211.7105	1216.3668	1237.9605	1252.2646	1266.4999	1309.1032	1355.8467	1412.1001	1516.9139	1521.4835	2357.7078	3030.7765	3066.2828	3067.8036	3107.4092	3119.0952	3128.5749	3130.0353	3528.6288
N#CC12NCC3C1CC23	N#C[C@@]12NC[C@H]3[C@@H]1C[C@@H]23	
InChI=1S/C7H8N2/c8-3-7-5-1-6(7)4(5)2-9-7/h4-6,9H,1-2H2	InChI=1S/C7H8N2/c8-3-7-5-1-6(7)4(5)2-9-7/h4-6,9H,1-2H2/t4-,5-,6+,7+
