13
gdb 132113	3.11258	1.47254	1.00038	4.2163	71.41	-0.2023	-0.0625	0.1397	1065.8567	0.088903	-494.047281	-494.039758	-494.038814	-494.079263	28.624	
N	 0.0995958556	 1.3659416418	-0.1640347693	-0.565656
C	-0.015150935	 0.008401507	-0.058775135	 0.289347
C	-1.1705900768	-0.7048949373	-0.0125278233	 0.191735
F	-2.340802759	-0.0425184405	-0.0007349786	-0.092193
N	-1.2054390727	-2.044329588	 0.0199111851	-0.252469
C	-0.085353889	-2.6968883893	 0.0123049284	-0.065849
C	 1.2165254778	-2.0500599681	-0.0240950626	 0.355126
N	 2.326796946	-2.6614478542	-0.023923498	-0.527564
O	 1.1660254649	-0.6436914608	-0.0562438357	-0.252683
H	 0.9578588706	 1.7608027207	 0.1917272378	 0.2716
H	-0.7360716887	 1.880745226	 0.0688691063	 0.278822
H	-0.0919250967	-3.780675569	 0.0382806278	 0.143956
H	 3.114114883	-2.0144776982	-0.0549909429	 0.225828
100.3873	183.6045	272.5803	321.775	340.045	365.0337	446.6983	473.9571	509.7966	535.9197	600.3324	656.3783	726.4556	731.0796	793.3371	825.9527	894.4014	895.8349	1039.2381	1088.4198	1237.1503	1247.4122	1314.0434	1407.0222	1435.4463	1561.3417	1624.5541	1683.4138	1745.4632	3199.4255	3501.4898	3574.9763	3691.0855
NC1=C(F)N=CC(=N)O1	NC1=C(F)[N]C=C([NH])O1	
InChI=1S/C4H4FN3O/c5-3-4(7)9-2(6)1-8-3/h1,6H,7H2	InChI=1S/C4H4FN3O/c5-3-4(7)9-2(6)1-8-3/h1,6H,7H2
