23
gdb 109833	2.98066	0.8414	0.78796	2.6727	86.84	-0.2429	-0.0172	0.2257	1587.8755	0.203187	-388.293714	-388.282849	-388.281905	-388.330969	38.39	
C	-1.4797960318	 1.7235288679	-2.3169369937	-0.377338
C	-0.9076931495	 0.3415404638	-1.9763202068	-0.192246
C	-1.8485548103	-0.4746300502	-1.1104547911	-0.029586
C	-2.9489893538	-1.3572433543	-1.669709202	-0.012767
C	-3.2099684095	-1.5247569203	-3.1531323873	-0.412705
C	-1.7571146352	-1.9810292254	-0.9667714608	-0.065463
C	-0.7185727528	-2.8164145138	-1.7006715027	-0.301832
C	-1.173661017	-4.2547369023	-1.834806255	 0.171492
O	-1.2208757261	-4.8721037519	-2.8672708434	-0.241794
H	-0.7724904673	 2.3095154535	-2.9120186382	 0.111387
H	-2.4098287809	 1.6357670606	-2.8876932353	 0.120891
H	-1.7028384623	 2.2928180809	-1.4077861122	 0.11429
H	-0.6685998222	-0.1874451382	-2.9040596556	 0.09721
H	 0.04692515	 0.4643870245	-1.4475220811	 0.096788
H	-2.1104114302	 0.0438321603	-0.1895575679	 0.080274
H	-3.864608534	-1.3629756254	-1.0829135046	 0.082423
H	-2.2995936843	-1.4835847239	-3.7553841395	 0.121636
H	-3.6882397768	-2.488510618	-3.3582586225	 0.128003
H	-3.879375359	-0.7383653241	-3.5185754003	 0.118079
H	-1.9578489277	-2.3587152694	 0.0338379116	 0.08401
H	-0.485467313	-2.4395664175	-2.6976617247	 0.120389
H	 0.2161175463	-2.8197909587	-1.119612528	 0.118421
H	-1.4837690827	-4.7270111181	-0.872129449	 0.068437
44.2395	55.7366	70.1585	115.6882	140.989	191.2864	232.3545	259.2874	282.4569	287.3008	449.1278	507.6855	527.2282	561.8125	726.5091	765.03	768.0382	816.7168	871.123	937.9769	955.8246	993.6373	1042.2974	1048.6585	1054.4144	1077.0468	1105.1682	1138.167	1159.1408	1171.2204	1194.7987	1227.6694	1270.0429	1286.5708	1296.3827	1339.7392	1389.9086	1401.134	1410.8532	1421.4925	1429.5566	1458.2079	1461.6509	1484.6026	1497.2121	1497.8099	1502.1915	1510.1934	1834.9512	2848.2464	3004.102	3020.4836	3032.4492	3036.2807	3070.3135	3091.8508	3100.0606	3106.8861	3108.9475	3111.6643	3120.7017	3126.6484	3138.6878
CCC1C(C)C1CC=O	CC[C@H]1[C@@H](C)[C@H]1CC=O	
InChI=1S/C8H14O/c1-3-7-6(2)8(7)4-5-9/h5-8H,3-4H2,1-2H3	InChI=1S/C8H14O/c1-3-7-6(2)8(7)4-5-9/h5-8H,3-4H2,1-2H3/t6-,7+,8-/m1/s1
