19
gdb 32896	5.485	0.7432	0.69425	4.0205	79.48	-0.2162	0.0309	0.2471	1638.6413	0.160078	-419.242248	-419.232816	-419.231871	-419.277684	33.236	
C	-0.0337617851	 1.4484217807	 0.026928591	-0.337643
N	-0.0048374095	 0.0006938984	 0.0208790361	 0.024677
C	 0.0182911667	-0.8125115616	-1.0724364021	-0.003693
N	 0.0531729453	-2.0842435626	-0.7484962042	-0.324453
C	 0.0544211285	-2.1125949662	 0.6317927548	 0.27386
C	 0.0602780546	-3.40613079	 1.382213224	-0.321749
C	-1.2608528327	-4.1770921818	 1.2269336046	-0.052967
O	-1.2579765585	-5.4136010579	 1.9231459617	-0.42009
C	 0.0171975569	-0.8304471836	 1.1214439137	-0.218624
H	 0.8543451933	 1.8570502735	 0.5191959451	 0.144836
H	-0.0552710252	 1.8067222836	-1.0040728007	 0.145842
H	-0.9243716243	 1.8200626298	 0.5431422899	 0.145037
H	 0.011152946	-0.410906057	-2.075833435	 0.123584
H	 0.8777241137	-4.0374807403	 1.0083334815	 0.100211
H	 0.2472873028	-3.2309616178	 2.4467284388	 0.102541
H	-2.0808633198	-3.5929387365	 1.6578130421	 0.10677
H	-1.4787506349	-4.3096284872	 0.1577699156	 0.108588
H	-0.6054056025	-5.9824072902	 1.5024134518	 0.280099
H	 0.0088966345	-0.4381566734	 2.1255534412	 0.123173
46.661	84.745	93.1605	102.7396	196.7283	269.4461	299.9849	358.7644	362.5085	413.7046	633.531	653.9899	709.5253	734.3024	781.8141	791.6568	821.0824	991.9413	1014.4072	1042.9614	1059.7145	1072.897	1081.0508	1146.6313	1151.3919	1186.9425	1258.0038	1291.8547	1303.1394	1332.9784	1390.7784	1392.3719	1412.9146	1420.9567	1456.6527	1476.6728	1482.3572	1512.5076	1518.54	1541.9858	1597.1591	3008.4751	3016.5672	3038.8828	3068.5386	3089.1347	3099.1519	3136.1816	3239.1202	3264.0243	3815.0293
CN1C=NC(CCO)=C1	Cn1cnc(CCO)c1	
InChI=1S/C6H10N2O/c1-8-4-6(2-3-9)7-5-8/h4-5,9H,2-3H2,1H3	InChI=1S/C6H10N2O/c1-8-4-6(2-3-9)7-5-8/h4-5,9H,2-3H2,1H3
