20
gdb 51659	4.1612	0.94352	0.87135	3.2752	81.95	-0.2544	0.0267	0.2811	1387.804	0.171638	-403.118367	-403.109845	-403.108901	-403.153426	31.587	
N	-0.179307124	 1.3019560016	 0.1911216589	-0.443776
C	-0.082555264	 0.0500004549	 0.0615629678	 0.121373
O	-1.188912168	-0.7142117037	 0.017053962	-0.187319
C	-1.0316636176	-2.1254207253	 0.0063364322	 0.146464
C	-1.3506839833	-2.887198074	 1.3228449466	-0.278809
C	-2.2798702818	-3.8505608555	 0.5248546182	-0.012019
C	-3.7818797611	-3.5013103875	 0.6191981906	-0.21905
C	-3.5865404146	-2.4002306101	-0.467333751	-0.231685
C	-2.135614495	-2.9028702911	-0.7276577843	-0.062647
H	 0.7476626821	 1.7222510093	 0.182776462	 0.227309
H	 0.849369498	-0.5257084211	-0.0360038101	 0.081911
H	-0.0369172406	-2.3815159809	-0.3791271691	 0.079796
H	-0.4885796396	-3.3430065539	 1.8149026039	 0.10244
H	-1.8822056896	-2.2693007996	 2.051744734	 0.116103
H	-1.9865912228	-4.9003336875	 0.5172691478	 0.065492
H	-4.4220641906	-4.3163261416	 0.2703332866	 0.099787
H	-4.1431960178	-3.1777018807	 1.5999784973	 0.097906
H	-4.2503173462	-2.4875561568	-1.3294221126	 0.103787
H	-3.6325278294	-1.3715255158	-0.1056184692	 0.128356
H	-1.9160540339	-3.2491416906	-1.7382808116	 0.064579
19.4009	70.3339	110.5318	166.0143	302.3432	347.4126	375.3254	436.3578	600.9327	667.6329	738.0912	746.2243	808.2199	819.0366	850.5363	892.6898	900.8332	951.0454	956.1082	1008.68	1038.4034	1045.0477	1052.1946	1082.8762	1118.7017	1131.3159	1149.1409	1191.9449	1213.0256	1224.9881	1250.1791	1263.064	1280.4435	1294.0854	1301.1101	1308.9128	1328.6878	1387.8221	1428.4756	1475.8276	1481.5674	1499.0989	1742.9394	3007.5499	3023.5367	3048.4655	3061.1571	3077.1679	3091.9499	3097.8203	3105.8486	3119.5138	3132.3507	3517.4814
N=COC1CC2CCC12	[NH][CH]O[C@H]1C[C@H]2CC[C@@H]12	
InChI=1S/C7H11NO/c8-4-9-7-3-5-1-2-6(5)7/h4-8H,1-3H2	InChI=1S/C7H11NO/c8-4-9-7-3-5-1-2-6(5)7/h4-8H,1-3H2/t5-,6-,7+/m1/s1
