17
gdb 67512	2.36181	1.57386	1.19991	2.3245	73.32	-0.2211	-0.0271	0.194	1064.0639	0.133942	-421.744911	-421.736837	-421.735893	-421.777872	31.14	
O	-0.1018644897	 1.2707374315	-0.2037487279	-0.450694
C	-0.0598400562	-0.1036561022	-0.1528129089	 0.373308
C	 0.3856584275	-0.9380753396	-1.3857079882	-0.120528
C	 0.6594522136	-2.3801731474	-1.0917811476	-0.313518
C	-0.7676883819	-1.8962741934	-1.1153727922	-0.051243
C	-1.2178508214	-1.0340981221	 0.1034863789	-0.164368
C	-0.17640911	-0.8446526106	 1.1839229249	-0.175249
C	 0.6959990549	-1.8613072545	 1.8588279621	 0.101855
O	 1.6288125695	-1.5630127001	 2.5645384528	-0.264974
H	 0.782830759	 1.6094095136	-0.0196204268	 0.293743
H	 0.6539132543	-0.4520436555	-2.3146594275	 0.101052
H	 0.9337441251	-2.9669560202	-1.9647670771	 0.121273
H	 1.1734966236	-2.7017679782	-0.1934023925	 0.123456
H	-1.4844068001	-2.2833978545	-1.827187219	 0.100016
H	-2.2579455027	-0.783508759	 0.2686082183	 0.104244
H	-0.5011991435	-0.1004030434	 1.9110445263	 0.130138
H	 0.3977462779	-2.9239798844	 1.7235925243	 0.091491
53.9752	115.2469	219.037	301.2365	310.2334	353.7093	383.0113	452.587	529.6493	557.5342	641.49	692.8209	755.8397	771.4995	843.7671	894.2893	918.6906	935.922	976.955	1000.0647	1010.9361	1030.7251	1052.2926	1059.4183	1085.0186	1123.039	1175.036	1200.1528	1224.5893	1288.3937	1300.2429	1320.8876	1332.7135	1414.9291	1464.9637	1495.4064	1801.3612	2882.7983	3122.5803	3125.8114	3191.7713	3197.4783	3200.9487	3209.8196	3774.9424
OC12C3CC3C1C2C=O	O[C@]12[C@H]3C[C@H]3[C@H]1[C@H]2C=O	
InChI=1S/C7H8O2/c8-2-5-6-3-1-4(3)7(5,6)9/h2-6,9H,1H2	InChI=1S/C7H8O2/c8-2-5-6-3-1-4(3)7(5,6)9/h2-6,9H,1H2/t3-,4+,5-,6+,7+/m1/s1
