15
gdb 12581	3.11297	2.11044	1.27884	6.4572	66.02	-0.225	-0.0102	0.2148	908.1798	0.119189	-399.863199	-399.855317	-399.854373	-399.895534	28.54	
C	 0.0081544489	 1.5541076246	 0.0303533135	-0.525812
C	-0.0346929547	 0.0594138292	 0.023658596	 0.03995
C	-1.0912157428	-0.7785275746	 0.030675389	 0.240955
N	-2.428558976	-0.5035246761	 0.1028078449	-0.584826
C	-0.5904138412	-2.200138671	 0.0257997476	-0.158547
O	 0.8223003641	-2.0980337432	 0.000702636	-0.239048
C	 1.1828921699	-0.7572332265	 0.0018229693	 0.408343
O	 2.3350949581	-0.4196997847	-0.0225380668	-0.365647
H	 1.0191511919	 1.8852384826	-0.2197806286	 0.158765
H	-0.6848045918	 1.9905622412	-0.6998703438	 0.112572
H	-0.2442298969	 1.9724010609	 1.0124803447	 0.131829
H	-2.7140545965	 0.4419045382	-0.1019168826	 0.264803
H	-3.0700919155	-1.2037969338	-0.235744724	 0.260062
H	-0.908210182	-2.7491773147	 0.921741357	 0.133759
H	-0.9345414156	-2.7588406023	-0.855674102	 0.122843
68.5388	142.8574	228.6512	231.3478	263.0046	322.9839	372.1366	462.9286	552.9512	584.4558	594.0927	680.6541	750.407	763.6345	912.4406	1010.8108	1030.0708	1055.4863	1059.983	1096.3607	1203.4392	1224.8446	1263.5588	1362.8646	1396.849	1434.6484	1487.3885	1496.4423	1502.1488	1650.8038	1732.0343	1860.6943	3010.5515	3017.1381	3045.4261	3064.1738	3121.1342	3577.2826	3682.8227
CC1=C(N)COC1=O	CC1=C(N)COC1=O	
InChI=1S/C5H7NO2/c1-3-4(6)2-8-5(3)7/h2,6H2,1H3	InChI=1S/C5H7NO2/c1-3-4(6)2-8-5(3)7/h2,6H2,1H3
