14
gdb 132527	3.14575	1.34055	0.94546	3.5343	67.32	-0.2493	-0.0303	0.219	1128.9262	0.100281	-486.015167	-486.007694	-486.006749	-486.047517	27.689	
C	-0.0281153113	 1.5300973432	 0.0248256662	-0.500366
C	-0.0063476694	 0.0271072671	-0.0265213614	 0.114842
C	-0.0380187107	-0.7124867186	-1.2075706792	-0.130256
C	-0.0153717533	-2.1041901573	-1.1805693984	-0.276377
C	 0.0398023778	-2.7017348394	 0.0697103752	 0.343095
F	 0.0635470849	-4.0265170112	 0.1556870909	-0.067195
N	 0.0714940237	-2.0485130251	 1.2139723094	-0.372048
C	 0.0482747128	-0.7364863939	 1.1415628813	 0.296961
F	 0.0808656193	-0.091385166	 2.3055313088	-0.063964
H	 0.8605886723	 1.9246871539	 0.5281696809	 0.144991
H	-0.0657474756	 1.9528096089	-0.9820150935	 0.126201
H	-0.8961154546	 1.8975283133	 0.5821114792	 0.144971
H	-0.0808873885	-0.1922139695	-2.1592628112	 0.118261
H	-0.0388771475	-2.7060892155	-2.0791767683	 0.120883
89.1224	133.1805	245.4585	273.2525	337.3357	355.6409	476.5002	482.9911	550.6752	577.5521	692.2679	745.8534	772.5199	783.6011	840.293	967.437	995.2046	1028.0306	1067.2897	1124.4903	1208.8809	1278.5619	1333.8073	1353.2979	1417.4612	1452.9533	1480.3579	1498.0102	1506.9077	1632.0246	1651.9841	3039.5193	3094.8644	3122.7017	3183.4897	3224.7252
CC1=CC=C(F)N=C1F	Cc1ccc(F)nc1F	
InChI=1S/C6H5F2N/c1-4-2-3-5(7)9-6(4)8/h2-3H,1H3	InChI=1S/C6H5F2N/c1-4-2-3-5(7)9-6(4)8/h2-3H,1H3
