15
gdb 20376	6.15693	1.54699	1.37147	0.6284	68.03	-0.2449	-0.0011	0.2438	898.2333	0.121665	-358.831783	-358.825301	-358.824357	-358.863247	24.071	
C	-0.1238630488	 1.4394806692	-0.1108316857	-0.27749
C	 1.2790078649	 0.9197322146	 0.0948087177	-0.277479
C	 0.1181989543	-0.0345888342	 0.0569299763	 0.097678
N	-0.3023622674	-0.6926185851	 1.2629016039	 0.13169
N	-0.2616810275	-0.1109697497	 2.4539544954	-0.236039
C	-0.7310724074	-1.0528143519	 3.2787293268	-0.056381
C	-1.0418521014	-2.1888403341	 2.5254851927	-0.065148
N	-0.760568362	-1.9383703337	 1.2423331747	-0.22904
H	-0.5855427217	 1.9499078291	 0.7257845371	 0.144588
H	-0.4196067719	 1.7914884936	-1.0925179882	 0.123229
H	 1.967191992	 0.9072077344	-0.7426439302	 0.123228
H	 1.7289128029	 1.0924188881	 1.065054592	 0.144576
H	-0.0061438783	-0.7027728412	-0.7835494337	 0.126916
H	-0.8179633436	-0.8686808189	 4.3374453916	 0.124641
H	-1.4400721741	-3.1433894301	 2.8292417895	 0.125031
41.7062	161.589	208.6809	420.3971	432.2888	652.6825	677.8821	702.9271	778.4458	818.5449	841.7429	889.8196	917.1309	949.9625	982.0171	995.8159	1067.4041	1084.1106	1085.6325	1107.1289	1123.3694	1191.5813	1200.8428	1225.0032	1280.3378	1297.9863	1389.1067	1441.8926	1449.3273	1453.0139	1486.7504	1512.382	3143.9429	3145.6326	3221.5188	3232.875	3246.3751	3264.5045	3282.5629
C1CC1N1N=CC=N1	C1CC1n1nccn1	
InChI=1S/C5H7N3/c1-2-5(1)8-6-3-4-7-8/h3-5H,1-2H2	InChI=1S/C5H7N3/c1-2-5(1)8-6-3-4-7-8/h3-5H,1-2H2
