21
gdb 108541	2.67333	1.64701	1.23716	1.2428	82.26	-0.2626	0.0743	0.3369	1077.2059	0.184725	-387.05082	-387.043028	-387.042084	-387.083017	31.43	
O	-0.0934675111	 1.4172431911	 0.2782092618	-0.424281
C	-0.0087750883	 0.0295015158	-0.0368260525	-0.200268
C	-1.409445927	-0.5325936386	-0.0089609796	 0.404041
C	-2.3985282094	 0.0659868454	-1.0198727796	-0.281672
C	-3.6741704279	-0.747934878	-0.6834197689	-0.255713
C	-3.1254787821	-1.6229479134	 0.4398310807	 0.005651
C	-1.6700154587	-2.0788856765	 0.0893068671	-0.113556
C	-1.3343270618	-2.0486999103	 1.6000062157	-0.256637
C	-2.1736153568	-0.7746681292	 1.3449704743	-0.079692
H	 0.7904726443	 1.791133795	 0.2203835818	 0.286572
H	 0.4184107092	-0.119657988	-1.042720314	 0.081555
H	 0.6462489151	-0.4934148111	 0.6746487903	 0.084796
H	-2.5173766855	 1.1414668696	-0.8684416723	 0.11312
H	-2.0589798953	-0.0842637551	-2.0509946086	 0.087452
H	-4.5032190632	-0.1176158633	-0.3459779564	 0.09595
H	-4.0368541507	-1.3404338762	-1.5297237234	 0.093149
H	-3.7894901521	-2.3453426093	 0.9193029235	 0.057542
H	-1.3844767226	-2.8337880065	-0.6481111156	 0.05883
H	-1.8063475673	-2.8222348171	 2.2127506795	 0.086228
H	-0.2886749898	-1.9216921507	 1.8888678062	 0.088493
H	-2.467813069	-0.0083782434	 2.0645464801	 0.068439
84.4113	160.239	239.5409	243.9009	334.4379	345.3682	414.0958	490.5877	631.1903	681.9349	717.0202	746.1575	818.7483	838.7078	887.4466	904.1371	913.3646	947.1497	959.2457	1006.101	1013.2807	1035.7397	1057.5098	1062.0558	1074.3029	1106.1258	1114.5447	1169.4524	1172.7297	1185.4031	1203.6516	1222.2435	1231.5951	1253.3819	1264.4828	1270.4941	1287.9284	1300.4189	1333.4951	1361.3294	1463.1549	1489.7885	1509.3581	1510.6191	1534.1814	2960.7619	3006.8895	3037.918	3047.6131	3052.8342	3073.9392	3078.2191	3090.6212	3100.7571	3104.3222	3110.0734	3830.0993
OCC12CCC3C1CC23	OC[C@@]12CC[C@H]3[C@@H]1C[C@@H]23	
InChI=1S/C8H12O/c9-4-8-2-1-5-6(8)3-7(5)8/h5-7,9H,1-4H2	InChI=1S/C8H12O/c9-4-8-2-1-5-6(8)3-7(5)8/h5-7,9H,1-4H2/t5-,6-,7+,8-
