17
gdb 51753	2.72998	1.01574	0.79846	0.9845	75.09	-0.256	-0.0305	0.2255	1388.1519	0.133041	-421.771164	-421.761864	-421.76092	-421.8071	32.318	
O	-0.2092640265	-0.0293469198	-0.1986971299	-0.235034
C	-0.0366937603	 1.1577529311	-0.1000192599	 0.158962
C	 1.312679236	 1.8411576056	-0.1329458463	-0.306453
C	 1.3868928527	 2.8905249443	-1.2405891761	-0.064622
C	 0.5558817316	 4.1863754481	-1.1069392519	-0.084361
O	 1.7230870939	 5.0130617458	-1.2863523168	-0.271212
C	 2.6102330095	 3.8669953759	-1.2721633626	-0.07874
C	 3.5109165289	 3.8517310926	-0.130357852	 0.361152
C	 4.2576577611	 3.8328432538	 0.8118003809	-0.464879
H	-0.903071798	 1.849336422	 0.0256419538	 0.075767
H	 1.4720724711	 2.3307713579	 0.837504759	 0.133285
H	 2.0862741897	 1.078400076	-0.2578642354	 0.130345
H	 1.2545101358	 2.4158096471	-2.2156783242	 0.104674
H	-0.1980313454	 4.3686438695	-1.8800619111	 0.11417
H	 0.0997497851	 4.3397102428	-0.1194427516	 0.105714
H	 3.1931221626	 3.8175638534	-2.1999684247	 0.112947
H	 4.9238726624	 3.8242259038	 1.6393687989	 0.208287
38.2866	58.943	76.5683	116.034	199.3529	225.6994	322.8146	388.3473	479.3494	529.3267	568.2323	636.5879	677.946	760.7209	806.7925	850.9711	903.3927	950.6416	970.644	1018.3045	1027.7097	1088.8259	1116.2631	1139.6902	1166.681	1212.5539	1248.2545	1266.3619	1303.192	1348.7501	1359.111	1385.1732	1433.0844	1461.2817	1525.6265	1835.6766	2231.4168	2852.0827	3008.3152	3026.111	3029.3343	3064.149	3084.7104	3105.2258	3499.624
O=CCC1COC1C#C	O=CC[C@H]1CO[C@H]1C#C	
InChI=1S/C7H8O2/c1-2-7-6(3-4-8)5-9-7/h1,4,6-7H,3,5H2	InChI=1S/C7H8O2/c1-2-7-6(3-4-8)5-9-7/h1,4,6-7H,3,5H2/t6-,7-/m0/s1
