21
gdb 59202	2.88818	1.06327	1.02778	1.4554	79.22	-0.2337	0.0761	0.3098	1319.5917	0.180531	-424.154269	-424.144856	-424.143912	-424.188491	35.614	
C	 0.5143153863	 0.8885790752	 0.6177790556	-0.408236
C	 0.2223354905	-0.6131236688	 0.6069733662	 0.085045
O	 0.5659432158	-1.2160256368	 1.8581527203	-0.44738
C	-1.2546270246	-0.9048249306	 0.4155592497	 0.048775
C	-1.8702815672	-0.8406553584	-1.0083908498	 0.003041
O	-1.0998725991	-2.0535045441	-1.3723456133	-0.31525
C	-1.6791882057	-2.3286306535	-0.032627223	 0.012382
C	-3.0341521518	-1.7767442029	-0.5660771123	 0.046404
C	-4.186974588	-1.3427558184	 0.3239277622	-0.444074
H	 1.5820222234	 1.0746695041	 0.7817248124	 0.104722
H	 0.2429107135	 1.3508363108	-0.3371653061	 0.117045
H	-0.0435475275	 1.3850702332	 1.4186191224	 0.119483
H	 0.7771538031	-1.0895748896	-0.2110516816	 0.086019
H	 1.5088392447	-1.0846343574	 1.9986536301	 0.280025
H	-1.8375292306	-0.4584509533	 1.2250589966	 0.07356
H	-1.8775451531	-0.019425802	-1.727768205	 0.086827
H	-1.4475618826	-3.2904068768	 0.425382176	 0.095821
H	-3.382185074	-2.3734769897	-1.4133690156	 0.083744
H	-3.8754402834	-0.7395489603	 1.1798343975	 0.124293
H	-4.9101343731	-0.7552606422	-0.2520808661	 0.122693
H	-4.7159177866	-2.2200488684	 0.7115476638	 0.125063
60.7222	133.6067	162.5809	173.7364	233.5772	258.7741	289.9122	303.1061	375.4661	450.3536	481.1058	580.5324	605.9733	748.1321	802.1455	806.1984	872.3407	877.1398	886.9152	918.1063	994.995	1031.1702	1042.8989	1080.1992	1099.0359	1113.4067	1116.8993	1136.1092	1154.6775	1156.7007	1189.5133	1228.6471	1243.2186	1264.3508	1276.0369	1357.7917	1385.9684	1392.7699	1404.2087	1415.6733	1444.9007	1491.7884	1495.3768	1498.4569	1501.8869	3025.7488	3029.2675	3036.9042	3078.1651	3081.5661	3092.1671	3095.1086	3098.8232	3108.2319	3120.8805	3121.6405	3818.2474
CC(O)C1C2OC1C2C	C[C@@H](O)[C@H]1[C@H]2O[C@@H]1[C@H]2C	
InChI=1S/C7H12O2/c1-3-6-5(4(2)8)7(3)9-6/h3-8H,1-2H3	InChI=1S/C7H12O2/c1-3-6-5(4(2)8)7(3)9-6/h3-8H,1-2H3/t3-,4-,5-,6-,7+/m1/s1
