13
gdb 99448	3.4326	0.72286	0.61406	3.28	77.32	-0.3015	-0.0661	0.2354	1665.5124	0.088269	-415.592514	-415.583398	-415.582454	-415.627426	31.008	
O	 0.0762490814	 1.4084064803	 0.0446148343	-0.398124
C	 0.0635499289	 0.0101181683	 0.037149573	-0.066913
C	-1.4055356847	-0.5455875549	 0.0216407875	-0.367382
C	-2.0926520259	-0.0520519239	-1.1803283323	 0.284733
N	-2.578627033	 0.386472818	-2.1320025221	-0.305963
C	-1.4296444815	-1.9998146153	 0.1036505852	 0.110793
C	-1.3953329473	-3.2022155225	 0.1954911277	 0.080183
C	-1.3635765587	-4.5641182468	 0.2983493281	 0.217358
N	-1.3334179819	-5.7213055307	 0.3883851495	-0.321867
H	-0.1747763501	 1.7280639624	-0.8298930606	 0.307886
H	 0.6107281121	-0.4235174153	-0.8094088288	 0.131826
H	 0.5337132064	-0.3268578965	 0.9640212799	 0.145231
H	-1.9158603258	-0.1205571229	 0.8959353686	 0.182239
66.8085	79.1284	113.2456	169.9107	207.5667	233.6218	356.1677	370.0779	384.7495	447.765	520.4365	565.526	583.1528	591.5591	796.0327	835.3648	1000.4788	1024.4167	1102.5236	1170.6026	1195.3719	1268.9819	1327.4352	1391.984	1412.7577	1502.2225	2273.2364	2364.0071	2408.6405	3027.1881	3040.1728	3114.2975	3800.1758
OCC(C#N)C#CC#N	OC[C@@H](C#N)C#CC#N	
InChI=1S/C6H4N2O/c7-3-1-2-6(4-8)5-9/h6,9H,5H2	InChI=1S/C6H4N2O/c7-3-1-2-6(4-8)5-9/h6,9H,5H2/t6-/m1/s1
