16
gdb 13554	4.27054	1.32725	1.1565	1.37	65.35	-0.2406	0.0141	0.2548	1022.4638	0.131318	-379.903646	-379.895654	-379.89471	-379.936181	29.782	
N	-0.9165442015	-0.0635673862	-0.096908409	-0.521637
C	 0.370959916	-0.6578462582	-0.4973284085	-0.142102
C	 1.2333294658	 0.3071285296	-1.212838956	 0.261069
N	 1.8838312546	 1.0869794594	-1.7654385756	-0.316486
C	 1.1186151835	-1.2711326706	 0.6850692045	-0.052155
C	 0.9213055117	-0.7808328293	 2.1115494626	-0.337705
C	 0.3793586418	-2.1245169296	 1.6893170545	 0.13083
O	-0.9834888232	-2.3720405269	 1.5802901722	-0.429972
H	-0.7563715461	 0.8129636108	 0.391309108	 0.255864
H	-1.4657608911	 0.1584818289	-0.9216635648	 0.256611
H	 0.1381355186	-1.4651779879	-1.2031749585	 0.145954
H	 2.1225624484	-1.5858972562	 0.4172085206	 0.110393
H	 1.79191314	-0.724903336	 2.7558187831	 0.121571
H	 0.1861630252	-0.0042069047	 2.2943125542	 0.113522
H	 0.8934254941	-3.0088450169	 2.0527084351	 0.109334
H	-1.3735682478	-1.6109099964	 1.1179407774	 0.29491
59.1401	144.0456	223.0514	234.5371	289.0405	333.0992	379.4778	444.0128	560.5097	574.9048	625.4399	644.2803	761.8713	803.7842	862.5452	892.6283	966.5344	972.7774	1020.5602	1056.3982	1065.3665	1125.4481	1145.2471	1164.2943	1205.608	1242.3897	1308.3433	1362.2318	1385.0086	1399.8377	1464.9501	1500.6464	1655.7689	2347.7357	3035.9179	3134.3303	3152.9021	3163.9155	3219.9293	3500.792	3579.1883	3633.4608
NC(C#N)C1CC1O	N[C@@H](C#N)[C@H]1C[C@H]1O	
InChI=1S/C5H8N2O/c6-2-4(7)3-1-5(3)8/h3-5,8H,1,7H2	InChI=1S/C5H8N2O/c6-2-4(7)3-1-5(3)8/h3-5,8H,1,7H2/t3-,4+,5-/m1/s1
