20
gdb 9256	3.49415	0.9855	0.8095	1.1026	80.4	-0.2371	0.0632	0.3003	1475.1346	0.173421	-348.977834	-348.96717	-348.966226	-349.015811	35.815	
C	-0.1991238098	 1.3761888855	 0.0164996515	-0.234338
O	 0.0212435546	-0.0133154774	-0.013077892	-0.237036
C	 0.693801632	-0.5336057778	 1.1228453853	 0.149088
C	-0.2645911617	-0.7475894505	 2.2976021721	-0.402527
C	 1.3417459917	-1.857288978	 0.6782541774	-0.362999
C	 2.3992712779	-1.6852047953	-0.3106751851	 0.046861
C	 3.2829655457	-1.5357892318	-1.1143232401	 0.094666
C	 4.3452388314	-1.3592058058	-2.0944285048	-0.496932
H	 0.7439382123	 1.9344395012	 0.1241411398	 0.105841
H	-0.6608201949	 1.6481850729	-0.9361519189	 0.126664
H	-0.8752604588	 1.684136476	 0.8284183863	 0.101929
H	 1.4936953364	 0.1620557931	 1.4234901478	 0.071332
H	-1.0449264088	-1.4657260666	 2.0256933618	 0.123182
H	 0.2713645594	-1.1294884916	 3.1724572383	 0.114352
H	-0.7496867338	 0.1882305104	 2.5886505952	 0.116623
H	 1.7377807377	-2.3686371644	 1.5646954479	 0.119149
H	 0.5467977865	-2.4983712931	 0.2755808081	 0.131143
H	 4.3188909555	-2.1461186848	-2.8566416377	 0.145292
H	 4.253668492	-0.3976227867	-2.6119563042	 0.145216
H	 5.3349729448	-1.3883134754	-1.6247862486	 0.142495
11.9019	54.647	68.3043	102.936	188.9108	210.1129	221.4558	263.7697	290.1766	331.2524	385.2308	414.0093	470.2252	546.152	773.7455	813.7198	891.5576	923.4039	1051.1219	1053.4814	1065.9612	1110.7187	1118.7379	1164.8215	1170.7691	1183.4455	1207.7356	1270.6795	1313.3171	1379.5462	1384.6051	1404.1902	1415.4566	1458.6289	1479.158	1479.4672	1479.9693	1483.3559	1493.945	1500.1609	1511.4606	2376.3972	2970.2916	2978.4929	3019.5218	3019.8725	3023.5714	3038.21	3055.7359	3082.2831	3083.3381	3109.1232	3109.349	3114.5654
COC(C)CC#CC	CO[C@@H](C)CC#CC	
InChI=1S/C7H12O/c1-4-5-6-7(2)8-3/h7H,6H2,1-3H3	InChI=1S/C7H12O/c1-4-5-6-7(2)8-3/h7H,6H2,1-3H3/t7-/m0/s1
