16
gdb 47170	2.41524	1.94737	1.14121	5.1839	71.35	-0.2321	-0.0067	0.2254	1023.7511	0.12611	-437.886257	-437.878903	-437.877959	-437.918271	27.954	
O	-0.0439254052	-0.0501893324	 0.1724473846	-0.363007
C	-0.0263180864	 1.1570539516	 0.0640939416	 0.366119
N	-1.1561342644	 1.9183294286	-0.1158477941	-0.322832
C	-1.2877206829	 3.3768729131	-0.0383853531	-0.193095
C	-0.1305024638	 4.0045681058	 0.7081005946	-0.239925
C	 1.0179885584	 3.3537545756	 0.6772583566	 0.261515
C	 2.3032355676	 3.1241266515	 1.4309191935	-0.160387
O	 2.2941953392	 1.7357154171	 0.9828274079	-0.289701
C	 1.2305196375	 2.0168446842	 0.0404704935	-0.030654
H	-2.0071384248	 1.378846964	-0.1773426717	 0.251899
H	-1.393568924	 3.8135398925	-1.044076622	 0.127039
H	-2.2210492507	 3.6006380829	 0.4908871769	 0.12683
H	-0.3094743661	 4.905937672	 1.2836292382	 0.10968
H	 3.1848920581	 3.6592082285	 1.0531024233	 0.116243
H	 2.2621902042	 3.2133684269	 2.5219324382	 0.129675
H	 1.6189507531	 2.034599448	-0.9899866181	 0.1106
98.741	137.7983	227.8901	255.0758	339.7533	473.4451	486.4106	498.3517	550.4447	642.837	710.3943	769.709	827.8502	886.7726	933.3415	936.9069	991.5758	1016.0682	1022.2718	1049.9294	1120.1319	1134.5456	1138.5317	1225.6608	1246.3876	1276.6001	1305.2537	1328.2602	1351.9422	1385.6237	1465.7795	1506.9221	1512.2311	1798.102	1810.0135	2975.948	2980.045	3011.0461	3051.3665	3069.7318	3192.2263	3614.09
O=C1NCC=C2COC12	O=C1NC[CH][C]2CO[C@@H]12	
InChI=1S/C6H7NO2/c8-6-5-4(3-9-5)1-2-7-6/h1,5H,2-3H2,(H,7,8)	InChI=1S/C6H7NO2/c8-6-5-4(3-9-5)1-2-7-6/h1,5H,2-3H2,(H,7,8)/t5-/m1/s1
