19
gdb 111779	3.09475	1.30293	1.18801	2.8331	75.27	-0.2317	-0.0115	0.2202	1119.9732	0.160176	-423.019138	-423.011027	-423.010083	-423.051915	30.885	
C	 0.0604405629	 1.2994997407	-0.2442902034	-0.246612
O	-0.020131656	 0.0235010268	 0.3582519544	-0.249113
C	-1.2699875496	-0.5786129214	 0.2124294362	 0.154148
C	-1.6430180307	-1.254954666	-1.1657487066	-0.199807
C	-0.4082080639	-2.1567549707	-1.3997057376	-0.219045
C	-0.2096871616	-2.7340742777	 0.0493903832	-0.217188
C	-1.3721229637	-2.0234009079	 0.7845995412	-0.195965
C	-2.4868739811	-2.1749877581	-0.2675530654	 0.43166
O	-3.567432574	-2.6826507354	-0.3187010451	-0.321463
H	 1.061281384	 1.6879101944	-0.0436017316	 0.132511
H	-0.0925110105	 1.248906966	-1.3318712575	 0.113522
H	-0.6827088428	 1.9919976246	 0.1787854522	 0.112274
H	-2.0736870042	 0.0770540933	 0.5750440973	 0.082475
H	-2.0674472904	-0.7116283558	-2.0070995142	 0.080295
H	-0.6046773215	-2.9328604488	-2.1429789906	 0.110583
H	 0.4564354054	-1.5761032076	-1.7262636864	 0.113822
H	-0.3096991881	-3.8211993865	 0.089654548	 0.10961
H	 0.756174645	-2.4544278458	 0.4714481449	 0.122804
H	-1.5251304992	-2.2246735942	 1.8422485209	 0.08549
91.1558	135.6839	185.8342	201.8379	261.1274	288.8958	394.2902	498.7311	524.7122	663.855	669.5196	753.9135	782.7582	836.92	873.5308	895.5747	902.5075	972.3027	995.8345	1013.3768	1042.0949	1080.4423	1123.7212	1134.8791	1153.8657	1179.9952	1185.5918	1194.8621	1232.2341	1247.4974	1253.2554	1256.3842	1319.8017	1331.0608	1402.3173	1483.3939	1486.4471	1487.9634	1506.0714	1509.5979	1905.8909	2984.3948	3013.6167	3036.2814	3068.8739	3077.8097	3113.9258	3122.175	3133.233	3146.837	3152.3989
COC1C2CCC1C2=O	CO[C@H]1[C@H]2CC[C@@H]1C2=O	
InChI=1S/C7H10O2/c1-9-7-4-2-3-5(7)6(4)8/h4-5,7H,2-3H2,1H3	InChI=1S/C7H10O2/c1-9-7-4-2-3-5(7)6(4)8/h4-5,7H,2-3H2,1H3/t4-,5+,7-
