16
gdb 78786	2.6943	1.77815	1.34627	4.0349	68.07	-0.2432	0.0028	0.246	957.548	0.123036	-437.840298	-437.832288	-437.831344	-437.872581	30.263	
C	 0.0715426037	 1.6012509237	-0.0158437356	-0.519258
C	 0.0795116757	 0.1023025393	-0.0792564334	 0.133482
C	 0.6290797228	-0.8866100095	-1.195174302	-0.080776
C	 0.8845557119	-1.854623635	-0.1289513421	-0.085312
C	 0.8729718294	-0.7603193712	 0.9516425659	 0.079258
O	 2.1401179428	-0.1851468031	 1.161897744	-0.431982
N	-0.4615602665	-1.8861248461	-0.8128714507	-0.212442
C	-1.1748739071	-0.7492921624	-0.2292334006	 0.403563
O	-2.3481437185	-0.5802025732	-0.1230489926	-0.319202
H	 1.0878997535	 1.9898973526	 0.0858135774	 0.143466
H	-0.3869210386	 2.031572196	-0.9109275459	 0.132628
H	-0.5105564576	 1.935315445	 0.8492613138	 0.139186
H	 0.9422654716	-0.7638974134	-2.2208222262	 0.127893
H	 1.440638554	-2.7840459517	-0.1470053185	 0.11325
H	 0.3640571841	-0.9782386028	 1.9016409003	 0.083554
H	 2.6423360487	-0.7577410084	 1.7507615162	 0.292693
123.712	160.1712	209.6989	228.4267	242.9722	267.2568	345.8965	485.6977	546.2675	630.2111	661.5806	728.3301	773.9149	816.376	842.9658	875.1764	903.6267	919.4238	962.8811	1026.1413	1036.0668	1106.9401	1116.8494	1150.5197	1175.9845	1203.0497	1238.5837	1270.7312	1333.5936	1357.2648	1413.3789	1428.1763	1483.3204	1490.9006	1916.7485	3002.751	3043.3723	3109.8668	3125.6698	3193.0406	3241.5542	3817.4016
CC12C3C(C1O)N3C2=O	C[C@@]12[C@H]3[C@@H]([C@H]1O)N3C2=O	
InChI=1S/C6H7NO2/c1-6-3-2(4(6)8)7(3)5(6)9/h2-4,8H,1H3	InChI=1S/C6H7NO2/c1-6-3-2(4(6)8)7(3)5(6)9/h2-4,8H,1H3/t2-,3+,4+,6+,7?/m0/s1
