14
gdb 73951	3.28065	1.26497	0.91821	3.2253	70.77	-0.2447	-0.077	0.1678	1164.0372	0.100844	-473.890781	-473.882395	-473.881451	-473.924288	29.466	
N	 0.1108343815	 1.3812630218	 0.0068191372	-0.601672
C	-0.0544736524	 0.0497843357	 0.0006775539	 0.113112
C	-1.1215156167	-0.7931197541	 0.0027569138	 0.114951
C	-0.5950174079	-2.2048590819	-0.0080309814	-0.177205
O	 0.8409298195	-2.0796023789	-0.0162022389	-0.227804
C	 1.1935333885	-0.779619888	-0.0115800458	 0.458451
O	 2.3221184831	-0.3674923603	-0.0160447717	-0.362709
C	-2.5344010806	-0.497856742	 0.0130670331	 0.063163
O	-3.4040838627	-1.3489049937	 0.0136789762	-0.288021
H	 1.0585470759	 1.7259443364	 0.0027468117	 0.284888
H	-0.6529623935	 2.0320359834	 0.0150440913	 0.277229
H	-0.8841768386	-2.7801252848	 0.877238548	 0.147874
H	-0.8950967524	-2.7706647654	-0.8957598005	 0.147869
H	-2.7989406238	 0.5843775318	 0.0203163028	 0.049876
74.9315	116.86	159.2356	190.6583	224.8155	282.2683	331.5703	417.9107	487.1283	578.8267	580.3632	657.2114	716.7611	799.2328	802.8499	902.74	1002.0326	1045.3526	1049.0939	1157.4232	1187.2847	1188.886	1251.858	1380.4493	1414.563	1465.5996	1506.4969	1613.1998	1725.7046	1757.3422	1858.6429	2858.0665	3053.4001	3091.3117	3596.2317	3739.2097
NC1=C(COC1=O)C=O	NC1=C(COC1=O)C=O	
InChI=1S/C5H5NO3/c6-4-3(1-7)2-9-5(4)8/h1H,2,6H2	InChI=1S/C5H5NO3/c6-4-3(1-7)2-9-5(4)8/h1H,2,6H2
