18
gdb 104260	2.24331	1.32272	1.09591	4.8434	72.15	-0.2769	-0.0029	0.274	1189.7439	0.145403	-439.074764	-439.065138	-439.064194	-439.109607	34.297	
C	 0.0817087418	 1.5989278719	 0.0990205584	-0.419839
C	 0.1059612245	 0.067562967	 0.0263281898	-0.237272
C	 0.7234065942	-0.4721659007	-1.2615684431	 0.319921
O	 0.0129864196	-0.1057777292	-2.4159352408	-0.473483
C	 2.2738238995	-0.3632852654	-1.3426877617	-0.114988
O	 2.4204107573	-1.7824211633	-1.0975500278	-0.279721
C	 1.0124999043	-2.0055655979	-1.2777532846	-0.032267
C	 0.4214949066	-2.8467967325	-0.2385237943	 0.285185
N	-0.0663405918	-3.4966212769	 0.5832329371	-0.330886
H	 1.084269266	 2.0265493044	-0.0072289512	 0.129039
H	-0.5574147939	 2.0457788039	-0.6722867154	 0.114291
H	-0.3187697978	 1.9274736695	 1.0615065264	 0.137148
H	 0.6730394936	-0.329823565	 0.8748134548	 0.130115
H	-0.9110635412	-0.3307248687	 0.1168744122	 0.126184
H	-0.3149854967	 0.7928477464	-2.3103123702	 0.288372
H	 2.6265388895	-0.0819004568	-2.3413032267	 0.11285
H	 2.7834318037	 0.2311862723	-0.5776722374	 0.112301
H	 0.7837236609	-2.4310084389	-2.2632180454	 0.133052
62.9346	99.9746	117.5615	168.6009	195.3353	214.9037	268.4588	329.7036	360.2878	409.1274	444.5659	544.4181	600.5762	679.9101	781.6693	799.2001	912.1574	950.2014	984.8108	1004.2949	1021.8342	1036.3986	1064.2858	1105.3958	1152.373	1185.3111	1195.4458	1266.0899	1310.7196	1313.704	1358.8983	1367.9278	1401.5564	1420.7376	1475.5511	1498.4541	1511.5351	1512.0836	2356.9578	3027.2693	3029.283	3035.7794	3044.7307	3076.874	3088.167	3099.3637	3117.0351	3822.2267
CCC1(O)COC1C#N	CC[C@@]1(O)CO[C@H]1C#N	
InChI=1S/C6H9NO2/c1-2-6(8)4-9-5(6)3-7/h5,8H,2,4H2,1H3	InChI=1S/C6H9NO2/c1-2-6(8)4-9-5(6)3-7/h5,8H,2,4H2,1H3/t5-,6+/m0/s1
