21
gdb 76741	2.03216	1.80342	1.15081	2.1887	78.59	-0.2411	0.0794	0.3205	1156.0985	0.179742	-424.21098	-424.201064	-424.200119	-424.245055	37.281	
C	-0.1836337357	 1.5485087915	 0.0281024734	-0.411957
C	-0.0554733987	 0.0344174552	-0.046478303	-0.097746
C	 1.0410781924	-0.5814666311	-1.0140141726	 0.073154
O	 1.906957362	 0.294709085	-1.6838125456	-0.433998
C	 1.6382122373	-1.3156606889	 0.2016323695	 0.298687
C	 2.4253819567	-2.5839269257	 0.2454844867	-0.513994
O	 2.0250859041	-0.2390689206	 1.0889975948	-0.346486
C	 0.6497473905	-0.6964009292	 1.1095567454	 0.352141
C	 0.0837675951	-1.1345712585	 2.4212686074	-0.505738
H	 0.7556660156	 2.0054324742	 0.3513849405	 0.120076
H	-0.4424011834	 1.9656139265	-0.9496909368	 0.125792
H	-0.9626781956	 1.8442412225	 0.738762296	 0.111339
H	-1.0268894717	-0.4281320795	-0.2554306684	 0.070084
H	 0.6089514841	-1.2449443678	-1.7676955672	 0.08484
H	 2.4056701508	 0.7483613438	-0.9917525927	 0.289285
H	 3.3961996796	-2.4506409896	-0.2445841935	 0.13757
H	 2.6051910769	-2.8964802156	 1.2777742202	 0.131144
H	 1.8936908856	-3.3856616235	-0.2773322174	 0.125362
H	-0.1404285608	-0.2705059089	 3.0567220148	 0.133695
H	-0.8476184046	-1.6903884349	 2.2713206553	 0.124868
H	 0.7913759698	-1.7726007052	 2.9576502834	 0.131883
100.7891	170.4526	180.1614	181.9577	192.3591	214.073	235.9828	247.4299	320.1882	359.3797	489.4756	522.1249	563.877	595.8434	658.6192	705.6092	733.3086	812.6321	839.133	859.7037	942.0571	999.8993	1034.6355	1080.5607	1089.0751	1118.3774	1140.8991	1151.6715	1198.1864	1207.4878	1230.0535	1288.4962	1318.4207	1357.6547	1404.413	1407.4914	1411.4774	1432.8705	1474.6435	1476.5305	1487.1451	1489.1011	1494.9415	1502.3447	1525.3123	3033.6636	3035.1273	3037.252	3043.2517	3082.7678	3096.207	3098.2153	3103.0675	3116.3113	3116.6903	3118.6184	3769.7523
CC1C(O)C2(C)OC12C	C[C@H]1[C@@H](O)[C@@]2(C)O[C@@]12C	
InChI=1S/C7H12O2/c1-4-5(8)7(3)6(4,2)9-7/h4-5,8H,1-3H3	InChI=1S/C7H12O2/c1-4-5(8)7(3)6(4,2)9-7/h4-5,8H,1-3H3/t4-,5+,6-,7+/m0/s1
