20
gdb 109631	2.02785	1.31617	1.04432	3.8573	81.33	-0.2535	0.0356	0.2892	1270.6685	0.168594	-403.146807	-403.136415	-403.135471	-403.182022	36.881	
C	-0.0229705777	 1.1539065434	 0.4690397626	-0.243094
O	-0.1667041621	 0.0756900817	-0.4430719281	-0.232872
C	-1.3569195281	-0.6105218075	-0.2929885337	 0.080363
C	-1.4524142594	-1.9654331041	-0.9086271383	-0.1002
C	-0.3164973209	-2.5630234785	-1.7092221659	-0.416835
C	-1.3814286081	-1.8521924976	 0.6278821485	 0.092955
C	-0.1228082839	-2.2629408953	 1.3766551095	-0.469402
C	-2.6140116007	-2.08681411	 1.3309235058	 0.234472
N	-3.6107313886	-2.262462965	 1.8939492384	-0.352086
H	 0.9251398448	 1.6424463762	 0.2363690836	 0.1356
H	-0.8401583309	 1.8798598553	 0.3551965512	 0.12068
H	-0.0066690801	 0.8047047094	 1.5097301853	 0.121436
H	-2.2467773682	 0.0194385915	-0.2802989205	 0.107317
H	-2.4409506035	-2.2189554703	-1.2799029471	 0.113392
H	 0.653691762	-2.1766840174	-1.3954609548	 0.138905
H	-0.3057774644	-3.6538114685	-1.6211570908	 0.126831
H	-0.4411108912	-2.3146309261	-2.7680224558	 0.130689
H	 0.7594075037	-1.8268747155	 0.9064063431	 0.141157
H	-0.1644448716	-1.9163854168	 2.412981496	 0.135658
H	-0.0095223012	-3.3510041449	 1.3915095408	 0.135035
108.1187	113.8593	144.2113	154.5552	162.0818	169.0956	182.2426	235.5649	290.9241	329.9574	416.2822	487.1736	561.7936	568.7895	579.0982	696.3609	781.3739	870.0612	947.5572	977.8836	1022.6864	1052.3739	1087.9458	1107.7472	1125.19	1169.2685	1182.3126	1184.293	1238.9278	1260.6208	1298.638	1368.3025	1406.4453	1421.7117	1438.816	1485.1328	1485.8035	1488.3848	1493.017	1501.9641	1508.5644	1513.728	2338.8873	2999.2202	3045.7743	3049.9599	3057.1429	3100.0048	3103.5922	3111.115	3131.2275	3140.6503	3148.2671	3159.7136
COC1C(C)C1(C)C#N	CO[C@H]1[C@@H](C)[C@]1(C)C#N	
InChI=1S/C7H11NO/c1-5-6(9-3)7(5,2)4-8/h5-6H,1-3H3	InChI=1S/C7H11NO/c1-5-6(9-3)7(5,2)4-8/h5-6H,1-3H3/t5-,6+,7+/m1/s1
