22
gdb 100352	2.3486	1.17134	1.00227	3.2486	78.78	-0.2515	0.0221	0.2736	1316.8057	0.19225	-441.514008	-441.503108	-441.502164	-441.549777	39.711	
C	-0.1582012167	 1.5077959812	 0.1918071666	-0.404226
C	 0.0476306457	 0.0055222792	-0.0167737761	-0.211316
C	 0.7695026053	-0.4081248151	-1.3189269955	 0.251013
C	 0.0287223184	 0.074519387	-2.5758051508	-0.429313
C	 2.2238399335	 0.1184334184	-1.3384676813	-0.085986
O	 2.9684011392	-0.2745396498	-0.1985182419	-0.428969
N	 0.8035082881	-1.8899255303	-1.2882159777	-0.309305
C	 1.3205144639	-2.7077209317	-2.2416722784	 0.146243
O	 1.9153136254	-2.3585974662	-3.2420300165	-0.331239
H	 0.7932653708	 2.0443778248	 0.2442146985	 0.133655
H	-0.7601978528	 1.9564578756	-0.60351102	 0.121664
H	-0.6813650148	 1.6824832967	 1.1366557775	 0.118749
H	 0.6305245053	-0.3924536453	 0.8212585324	 0.11204
H	-0.9308158843	-0.4940157028	-0.0014242221	 0.089882
H	 0.0546861806	 1.165516814	-2.6454946195	 0.118031
H	 0.4945195212	-0.3401639575	-3.4712771133	 0.155798
H	-1.0191717204	-0.2411343005	-2.5498808888	 0.110025
H	 2.704536296	-0.2081810152	-2.2670384408	 0.128353
H	 2.2069907811	 1.2119061495	-1.3301900558	 0.108499
H	 3.0917100027	-1.2276333257	-0.2570304867	 0.284726
H	 0.3018071313	-2.3403464726	-0.5379133715	 0.243814
H	 1.1468135404	-3.7757853835	-1.9942907884	 0.077862
62.4159	77.0346	148.4377	165.3612	209.0796	230.6997	241.6818	278.3326	285.4121	306.434	348.7854	369.5225	406.2224	476.4082	523.8748	584.5756	702.3906	792.0073	837.1052	860.6435	929.6234	979.4394	1014.853	1031.0206	1040.0864	1071.4526	1088.2369	1153.581	1189.8867	1216.9927	1246.6663	1270.2008	1330.805	1370.8585	1397.6157	1408.8093	1412.3786	1420.907	1435.361	1481.8825	1485.772	1497.0232	1506.0115	1514.3615	1515.5602	1521.7091	1795.376	2915.0597	3011.7889	3043.9332	3045.8411	3050.732	3067.9435	3100.0272	3109.6459	3114.7067	3121.6944	3144.1126	3614.1995	3815.5359
CCC(C)(CO)NC=O	CC[C@@](C)(CO)NC=O	
InChI=1S/C6H13NO2/c1-3-6(2,4-8)7-5-9/h5,8H,3-4H2,1-2H3,(H,7,9)	InChI=1S/C6H13NO2/c1-3-6(2,4-8)7-5-9/h5,8H,3-4H2,1-2H3,(H,7,9)/t6-/m0/s1
