27
gdb 118060	3.25416	0.68095	0.59509	1.3582	93.12	-0.2617	0.0792	0.3409	1987.6517	0.249713	-390.698556	-390.686354	-390.68541	-390.73685	44.013	
C	-0.0287289055	 1.633788351	-0.0240892055	-0.378963
C	 0.068935951	 0.1063353882	 0.0351771268	-0.173075
C	 0.5687542982	-0.5067383662	-1.2796527048	-0.166867
C	 0.6960958786	-2.0464912408	-1.2742593158	 0.031824
C	-0.7019182272	-2.6897355241	-1.3036547908	-0.411382
C	 1.6151878672	-2.5363757402	-2.4273526373	 0.035181
C	 3.0812129282	-2.1224996185	-2.2179322451	-0.402518
C	 1.5443757631	-4.0551053902	-2.6279973949	-0.093579
O	 2.3962878379	-4.4043333533	-3.7133765629	-0.423201
H	 0.9442187499	 2.0848308939	-0.2494441147	 0.113118
H	-0.7284303909	 1.9556868306	-0.8035720655	 0.112995
H	-0.3761708701	 2.0499704858	 0.9268386613	 0.109298
H	 0.7490698076	-0.1848975235	 0.8467693751	 0.093635
H	-0.9124470628	-0.3043714886	 0.3007847816	 0.096742
H	-0.1041588737	-0.2124608973	-2.0983238082	 0.087485
H	 1.5378997109	-0.0529593296	-1.5125057354	 0.093099
H	 1.1802587212	-2.3390392131	-0.3295923982	 0.063647
H	-0.6714717065	-3.764091388	-1.1035180994	 0.113176
H	-1.3549473475	-2.2443013512	-0.5479716131	 0.111826
H	-1.1802239347	-2.5425813767	-2.2796598187	 0.113026
H	 1.2564318298	-2.082474528	-3.3631755448	 0.074625
H	 3.7020980713	-2.5197614244	-3.0224755271	 0.136534
H	 3.2089982776	-1.0377292025	-2.1954293551	 0.110204
H	 3.4619859062	-2.5234204507	-1.2700899135	 0.103471
H	 1.8584163629	-4.5634917998	-1.699364525	 0.078673
H	 0.5139430177	-4.3659879392	-2.8427241913	 0.086382
H	 2.3342624794	-5.3541792636	-3.8466837476	 0.284643
35.9624	56.0023	88.1692	106.5962	159.7576	200.2638	233.0404	246.7107	251.5754	270.4091	299.8992	330.3808	354.0975	380.1385	428.8143	504.4813	539.2216	739.8549	815.6164	852.9104	872.8082	911.2409	929.5616	951.2509	980.3477	1009.7408	1043.7897	1063.2301	1068.1394	1081.2052	1140.4993	1168.4351	1186.0062	1190.9478	1234.2964	1268.6014	1276.9732	1297.4096	1322.2387	1330.7129	1358.2618	1363.0536	1380.212	1393.0317	1405.5197	1410.2097	1413.8923	1459.7301	1479.8266	1491.5059	1494.5192	1498.7083	1500.0389	1505.6948	1509.1437	1515.053	1526.6706	2949.7653	2981.0296	2999.8974	3007.7358	3020.9061	3026.7838	3028.2416	3032.1094	3035.1506	3047.9475	3070.973	3095.6329	3098.7987	3100.1524	3105.9317	3110.4695	3138.5158	3834.8889
CCCC(C)C(C)CO	CCC[C@@H](C)[C@@H](C)CO	
InChI=1S/C8H18O/c1-4-5-7(2)8(3)6-9/h7-9H,4-6H2,1-3H3	InChI=1S/C8H18O/c1-4-5-7(2)8(3)6-9/h7-9H,4-6H2,1-3H3/t7-,8+/m1/s1
