19
gdb 67266	2.66814	2.14211	1.71435	1.2467	77.54	-0.2411	0.0772	0.3184	877.4815	0.161905	-385.842388	-385.835909	-385.834965	-385.872672	28.217	
O	-0.0428593822	 1.3752299129	-0.0581300751	-0.496716
C	 0.009784991	-0.0091030315	-0.088479519	 0.440932
C	 0.4489624387	-0.8438112873	 1.1962980123	-0.111805
C	-1.0491501104	-0.9885890725	 1.570109351	-0.254611
C	-1.2806183536	-0.8699446697	 0.0532920978	-0.092801
C	-0.3796864725	-1.9409540877	-0.636610605	-0.038212
C	 0.8153360123	-2.1025079701	 0.3935368407	-0.029356
C	 1.8033128709	-1.6325135597	-0.7070620967	-0.254016
C	 0.5849294954	-0.8720793566	-1.2582248755	-0.123812
H	 0.8445910182	 1.7124942655	 0.1085591754	 0.278445
H	 1.186039294	-0.4612882487	 1.9051861807	 0.054864
H	-1.3629275396	-1.9019385523	 2.0860189293	 0.086071
H	-1.424712531	-0.1115471965	 2.1034954806	 0.105885
H	-2.2350590138	-0.6124629591	-0.4040310495	 0.066916
H	-0.759681459	-2.8066353392	-1.1737419606	 0.066009
H	 0.9818253543	-3.0241581571	 0.9528345616	 0.060864
H	 2.6901496528	-1.0667421674	-0.3966597925	 0.079638
H	 2.1087751091	-2.4518161683	-1.3646810133	 0.097151
H	 0.5032956853	-0.4856303646	-2.2737450325	 0.064553
233.7719	260.2344	320.197	361.1503	435.3461	485.1465	592.8355	667.6869	691.0653	778.3526	800.9951	834.014	840.1116	880.4725	902.5462	935.1983	939.9287	965.7725	966.1329	989.0175	1002.2348	1033.2791	1044.1974	1081.3774	1090.1383	1111.0237	1133.3568	1152.2448	1189.856	1198.086	1227.4027	1229.9776	1237.8737	1249.3438	1266.0881	1293.4472	1305.4052	1328.5036	1386.068	1490.2852	1494.3363	3026.6511	3045.431	3088.0881	3091.8776	3101.9857	3108.6375	3120.4567	3125.0454	3144.8992	3790.5896
OC12C3CC1C1C3CC21	O[C@@]12[C@H]3C[C@@H]1[C@@H]1[C@H]3C[C@H]21	
InChI=1S/C8H10O/c9-8-4-2-6(8)7-3(4)1-5(7)8/h3-7,9H,1-2H2	InChI=1S/C8H10O/c9-8-4-2-6(8)7-3(4)1-5(7)8/h3-7,9H,1-2H2/t3-,4-,5-,6+,7+,8+/m0/s1
