23
gdb 104392	2.30874	1.38709	1.13381	2.2892	80.2	-0.2492	0.0613	0.3106	1214.7572	0.205692	-425.440744	-425.430751	-425.429807	-425.475862	37.949	
C	 0.3700781385	 1.6924326123	-0.0658619654	-0.40087
C	 0.0235857993	 0.2072615066	 0.1020357078	-0.022934
C	 0.5407416316	-0.6534836575	-1.0733010325	-0.221608
C	 1.9692868165	-1.1271005069	-0.6700504379	-0.205453
C	 2.1350345188	-0.7666001535	 0.8257959421	-0.267389
C	 0.7156809935	-0.4170765454	 1.3379920176	 0.427832
O	 0.7287004	 0.5029415055	 2.4191362469	-0.501191
C	-0.0315118274	-1.6736595476	 1.8045477624	-0.133344
O	 0.6372369203	-2.1370010479	 2.9779483171	-0.436467
H	 1.4446027473	 1.8429353797	-0.2149839844	 0.112503
H	-0.1460707723	 2.1005544277	-0.940963761	 0.102645
H	 0.0742527787	 2.2651220646	 0.8151058475	 0.133575
H	-1.0656134921	 0.1227034854	 0.1988507912	 0.059632
H	-0.1143916255	-1.5163219338	-1.2314188898	 0.092385
H	 0.5394174186	-0.0902225947	-2.0109994786	 0.093982
H	 2.0821695646	-2.2017570457	-0.8398430152	 0.09585
H	 2.7378795009	-0.6399267663	-1.2759987874	 0.100879
H	 2.5885462266	-1.566857584	 1.4156994694	 0.104472
H	 2.7584317886	 0.1225843524	 0.9528716632	 0.104246
H	 0.9310071579	-0.0217231817	 3.2041700957	 0.281873
H	-1.0719640589	-1.4027038521	 2.0323835604	 0.093941
H	-0.0345305996	-2.4475007655	 1.0240116901	 0.091692
H	 0.0797233641	-2.7869672715	 3.4136668908	 0.293751
30.9088	118.1645	139.8351	189.8938	237.4046	240.5611	293.3479	320.4788	338.7192	411.9548	428.4426	455.8436	528.5791	622.9256	686.7229	748.5739	774.6696	851.6108	868.6206	910.0154	936.7913	977.0101	1006.0791	1023.91	1045.4189	1058.2728	1085.1101	1108.0117	1152.2062	1171.425	1218.2749	1222.789	1245.8166	1259.2839	1275.4708	1290.5086	1306.0787	1332.6878	1350.5774	1359.5085	1404.8793	1419.0553	1445.029	1488.659	1491.2453	1502.6674	1503.8233	1508.1187	1517.5072	2991.2423	3022.4079	3035.0323	3038.031	3045.1733	3055.6631	3064.9719	3074.7547	3093.8674	3099.1051	3112.7358	3133.086	3773.4433	3845.533
CC1CCCC1(O)CO	C[C@H]1CCC[C@]1(O)CO	
InChI=1S/C7H14O2/c1-6-3-2-4-7(6,9)5-8/h6,8-9H,2-5H2,1H3	InChI=1S/C7H14O2/c1-6-3-2-4-7(6,9)5-8/h6,8-9H,2-5H2,1H3/t6-,7-/m0/s1
