23
gdb 58127	2.71784	0.94848	0.87493	3.3216	82.17	-0.2457	-0.0215	0.2242	1449.395	0.201445	-425.4399	-425.428583	-425.427639	-425.476387	41.344	
C	-0.1271499729	 1.5431513578	-0.1398127251	-0.436732
C	-0.0291566161	 0.0253249831	 0.0267199528	 0.140158
O	 0.3899622119	-0.5778955667	-1.1962662245	-0.439234
C	 0.8420556672	-0.473181972	 1.2253948561	 0.239237
C	 0.706150006	-2.0073444628	 1.2932715555	-0.420485
C	 2.3211864286	-0.0967772096	 1.0167407845	-0.441006
C	 0.2843394167	 0.1572107275	 2.5327123957	-0.308098
C	 0.8474569325	-0.4380028945	 3.8038409742	 0.15591
O	 0.1849891418	-0.9542266471	 4.6677827731	-0.243731
H	 0.8594643005	 1.9984158984	-0.2865087434	 0.112452
H	-0.7348082851	 1.7662759381	-1.0210033163	 0.12955
H	-0.5938544288	 2.0263106555	 0.7221700634	 0.126314
H	-1.0406016489	-0.3685857924	 0.1897318875	 0.088463
H	 1.1396723938	-0.0766577657	-1.5331453657	 0.280424
H	 0.9697659374	-2.4503472514	 0.3308693911	 0.133937
H	 1.357799543	-2.4350291675	 2.0621728475	 0.112742
H	-0.3220215576	-2.2999790396	 1.5323833084	 0.118389
H	 2.4776720777	 0.9869050736	 1.0102629657	 0.112775
H	 2.9544242499	-0.5141505029	 1.8047196353	 0.122025
H	 2.6887858136	-0.5028947592	 0.0689901635	 0.114403
H	 0.5212031525	 1.229848692	 2.5529700775	 0.113517
H	-0.8045082532	 0.0474311922	 2.5778599964	 0.115872
H	 1.9532780294	-0.3583557871	 3.9139212067	 0.073119
52.5695	75.0486	82.2659	179.3992	216.1987	243.7252	255.552	278.2694	280.6281	323.1037	330.6373	360.9498	373.9008	418.8587	475.5136	511.8878	588.6785	712.4242	817.8658	858.1648	922.6368	939.5329	961.745	982.1314	1007.1198	1050.1923	1064.9108	1085.6119	1121.9069	1174.722	1204.9763	1240.4501	1275.3853	1301.1515	1322.2365	1367.9489	1400.0183	1406.4581	1419.0379	1427.149	1432.5836	1461.8386	1481.7407	1494.1671	1496.942	1501.2298	1510.5479	1517.8595	1828.6713	2864.787	3016.9155	3025.1134	3033.9309	3037.0544	3040.5533	3082.1599	3097.6683	3102.5726	3105.6523	3108.3099	3124.4162	3134.1156	3814.5437
CC(O)C(C)(C)CC=O	C[C@@H](O)C(C)(C)CC=O	
InChI=1S/C7H14O2/c1-6(9)7(2,3)4-5-8/h5-6,9H,4H2,1-3H3	InChI=1S/C7H14O2/c1-6(9)7(2,3)4-5-8/h5-6,9H,4H2,1-3H3/t6-/m1/s1
