17
gdb 34428	3.0616	1.72451	1.27985	1.1342	78.26	-0.2428	0.0369	0.2797	980.0808	0.136835	-384.610729	-384.603737	-384.602792	-384.641859	28.68	
C	-0.0094420227	-1.1818332868	 0.0400977715	-0.377986
C	-0.0002989033	 0.0211807065	 0.030186517	 0.141747
C	-0.0042707861	 1.4587644961	 0.0354435208	 0.194704
C	-0.8881408486	 2.1882953069	 1.0542996124	-0.155845
O	-0.6098315441	 3.557275114	 0.7342441925	-0.28121
C	 0.3117229252	 3.4405935061	-0.3277469979	 0.113325
C	 1.3338422975	 2.2994972262	-0.0574642432	-0.123902
C	 1.3938902382	 2.0206229682	-1.575435296	-0.26474
C	-0.10036073	 2.3000865102	-1.3020740399	-0.123901
H	-0.0151426744	-2.2436807363	 0.0460805853	 0.184583
H	-1.9544007209	 1.9719069207	 0.9209437794	 0.111993
H	-0.6060394989	 1.97135243	 2.0910600921	 0.111993
H	 0.6256902609	 4.4183244893	-0.6890779635	 0.092378
H	 2.1420175031	 2.2859221087	 0.6742040694	 0.082258
H	 1.924132148	 2.7560802378	-2.1861015388	 0.096345
H	 1.6488578264	 1.0015755987	-1.869724695	 0.116
H	-0.9385690505	 2.2871880937	-1.9991468163	 0.082258
142.1808	157.9402	294.9895	388.1304	416.6851	497.5757	504.9803	562.6043	621.0439	648.5467	688.5347	732.6486	738.7134	831.9303	891.0998	908.5344	941.7283	965.8542	1007.1156	1025.6446	1054.3736	1073.5605	1087.6613	1105.2775	1150.7834	1151.2934	1173.832	1202.9038	1212.2168	1235.7815	1240.1861	1266.3693	1317.5861	1383.0098	1515.2787	1520.588	2233.4811	3028.2754	3063.4377	3070.919	3112.9661	3115.5043	3132.0587	3147.3324	3502.4008
C#CC12COC3C1CC23	C#C[C@@]12CO[C@H]3[C@@H]1C[C@@H]23	
InChI=1S/C8H8O/c1-2-8-4-9-7-5(8)3-6(7)8/h1,5-7H,3-4H2	InChI=1S/C8H8O/c1-2-8-4-9-7-5(8)3-6(7)8/h1,5-7H,3-4H2/t5-,6+,7-,8+
