21
gdb 93822	2.34044	1.4167	1.05761	1.7482	81.75	-0.24	0.0149	0.2549	1233.7327	0.182056	-424.241947	-424.232635	-424.231691	-424.275656	35.559	
C	 0.0274977467	 1.5193930532	-0.1025097921	-0.39627
C	 0.0270559866	-0.0051294637	-0.0263265568	 0.087415
O	 0.6616919162	-0.4814156895	-1.2081778546	-0.272978
C	 0.9097638271	-1.8774695877	-1.1532320716	-0.118479
C	 1.9761189852	-2.1684828455	-0.1009333926	 0.047994
O	 3.2675763642	-1.7440677621	-0.5404574739	-0.437849
C	 1.6078863251	-1.5022021256	 1.2124075872	 0.267965
C	 2.3420330562	-1.9745823757	 2.4343565504	-0.483695
C	 0.7046608924	-0.519857527	 1.2195329889	-0.15917
H	 1.0524172998	 1.9015537101	-0.0877726198	 0.121402
H	-0.4544208108	 1.8479688756	-1.0270277647	 0.126373
H	-0.51572501	 1.9456306622	 0.7460038929	 0.116037
H	-1.0243766439	-0.3536062327	-0.0281626936	 0.07471
H	-0.017037991	-2.4313589917	-0.9307309271	 0.08757
H	 1.2687170669	-2.1725863198	-2.1429196744	 0.111552
H	 2.0657995335	-3.2527089295	 0.0404147605	 0.081629
H	 3.1729260571	-0.8083736197	-0.7580165478	 0.280023
H	 3.4239138305	-1.90704252	 2.2722995921	 0.142084
H	 2.0836624955	-1.3860889946	 3.3188266913	 0.116618
H	 2.1208032549	-3.0286075697	 2.6467459273	 0.122257
H	 0.4229776776	-0.0348274767	 2.1524335185	 0.084814
80.2839	147.5749	194.3227	205.1214	230.8081	243.1579	307.4633	349.8747	399.9046	424.0499	445.7732	489.4666	614.2124	628.1184	697.503	821.9167	859.8086	868.2228	909.5435	940.4165	1004.4629	1027.9428	1052.1005	1067.2435	1090.6237	1111.5352	1138.4552	1175.8399	1187.6808	1259.7459	1298.0583	1309.157	1342.9364	1362.5904	1374.1792	1402.1658	1405.8116	1406.827	1425.7833	1475.4261	1483.7844	1485.9139	1493.8192	1498.4745	1736.5672	2907.7704	2974.3849	3019.4265	3039.8021	3043.5777	3074.7856	3094.71	3113.2957	3119.1259	3124.9011	3143.2238	3783.5723
CC1OCC(O)C(C)=C1	C[C@H]1OC[C@@H](O)C(=C1)C	
InChI=1S/C7H12O2/c1-5-3-6(2)9-4-7(5)8/h3,6-8H,4H2,1-2H3	InChI=1S/C7H12O2/c1-5-3-6(2)9-4-7(5)8/h3,6-8H,4H2,1-2H3/t6-,7-/m1/s1
