19
gdb 115439	4.5051	0.8989	0.85413	1.9712	76.99	-0.2555	0.037	0.2925	1381.5029	0.158683	-422.986797	-422.977589	-422.976644	-423.021671	33.873	
O	-0.1105977525	 1.3795876885	-0.3370304759	-0.423421
C	-0.0206464712	-0.0339107609	-0.2430265475	-0.086398
C	-1.3717213452	-0.560853856	 0.2332545954	 0.025392
C	-2.4649465034	-0.3316791362	-0.8246331145	-0.101488
O	-2.4196849994	-1.489363899	-1.6543108863	-0.241711
C	-2.2686486836	-2.6059269287	-0.7807428189	-0.064139
C	-1.359483653	-2.1035305762	 0.3841199345	-0.283522
C	-3.5656411494	-3.1003930573	-0.3028518921	 0.351705
C	-4.6280925033	-3.5014499984	 0.0918728715	-0.489371
H	 0.6967669284	 1.7091993246	-0.7416542785	 0.288638
H	 0.2171071622	-0.4877000566	-1.218525442	 0.096774
H	 0.7657378058	-0.3365349913	 0.4669147473	 0.085264
H	-1.6217701928	-0.0612312756	 1.1732049468	 0.085881
H	-3.4551849438	-0.2309540881	-0.3574793455	 0.097453
H	-2.274950684	 0.5415265782	-1.4508299953	 0.123551
H	-1.7826246676	-3.3936788561	-1.3649637638	 0.109018
H	-0.3481260451	-2.505619245	 0.2736419065	 0.105806
H	-1.7418457336	-2.4302616943	 1.3515826092	 0.121041
H	-5.5680561985	-3.8613514916	 0.4308326191	 0.199526
26.7581	106.1199	146.6954	178.0979	238.9659	253.9767	281.3464	351.3586	428.6172	522.6704	561.557	622.8284	666.5897	710.0889	769.1127	806.3306	844.7118	915.7684	934.9326	961.1996	1007.2734	1028.7354	1057.8349	1085.4687	1098.0513	1148.318	1185.8277	1234.4379	1238.9271	1269.6152	1275.6381	1308.471	1312.4182	1355.6973	1373.0078	1381.437	1453.6761	1494.8948	1515.9494	1521.0065	2229.8439	2965.4176	2998.4853	3002.3298	3054.4568	3066.4625	3076.2273	3122.9428	3125.918	3502.7612	3834.4784
OCC1COC(C1)C#C	OC[C@H]1CO[C@@H](C1)C#C	
InChI=1S/C7H10O2/c1-2-7-3-6(4-8)5-9-7/h1,6-8H,3-5H2	InChI=1S/C7H10O2/c1-2-7-3-6(4-8)5-9-7/h1,6-8H,3-5H2/t6-,7+/m0/s1
