19
gdb 65213	3.14415	1.35848	1.13868	1.6951	74.16	-0.2469	0.0745	0.3215	1111.0499	0.158325	-422.96263	-422.954417	-422.953473	-422.995471	32.291	
O	 0.8161923248	 0.3237715319	 1.6581161301	-0.466629
C	 0.12637755	-0.045439431	 0.4857094098	 0.394135
C	 0.6047120032	 0.56035994	-0.8083969663	-0.331034
C	 0.9379264335	-0.8789278184	-0.4601160154	-0.302762
C	-1.3290096496	-0.3555302173	 0.7429575371	-0.065858
C	-2.3558242633	 0.8208780697	 0.9882218252	-0.292023
C	-3.2357059268	 0.2075338467	-0.1087626349	 0.033028
O	-2.4712686366	 0.2079864511	-1.3183016039	-0.235342
C	-2.2547552639	-0.8562855653	-0.3811593807	-0.011458
H	 0.5493356671	 1.2221524135	 1.8824898803	 0.280019
H	-0.124597074	 0.7523229021	-1.5850828617	 0.140741
H	 1.4122735973	 1.2802713108	-0.732238247	 0.10705
H	 1.953769449	-1.100203936	-0.1542361222	 0.120881
H	 0.4432207772	-1.6698785857	-1.0129860349	 0.110904
H	-1.380181921	-1.0526183291	 1.5862617674	 0.090105
H	-2.8012148872	 0.795637241	 1.9848139683	 0.109834
H	-2.0043494492	 1.8314863235	 0.7635864659	 0.107058
H	-4.3145710257	 0.2124939034	-0.2086039381	 0.107225
H	-2.3874722447	-1.866777851	-0.7506507491	 0.104126
60.9601	161.3508	179.0175	281.2547	297.4655	328.3839	384.7819	412.237	504.2066	554.2486	690.5301	754.9807	782.747	829.6081	849.2708	886.1101	890.5675	930.0557	939.078	949.8218	975.0825	1003.6311	1024.9894	1042.0919	1051.2069	1077.2587	1081.005	1150.4402	1193.0861	1206.5165	1233.5079	1239.9536	1246.358	1276.3846	1306.4049	1366.5459	1377.4942	1391.4372	1452.8848	1472.1909	1499.0642	3054.5907	3064.3092	3125.1798	3137.7477	3142.8095	3179.1756	3196.0418	3225.1945	3244.1185	3793.4192
OC1(CC1)C1CC2OC12	OC1(CC1)[C@H]1C[C@H]2O[C@@H]12	
InChI=1S/C7H10O2/c8-7(1-2-7)4-3-5-6(4)9-5/h4-6,8H,1-3H2	InChI=1S/C7H10O2/c8-7(1-2-7)4-3-5-6(4)9-5/h4-6,8H,1-3H2/t4-,5+,6-/m0/s1
