19
gdb 106981	2.80378	1.34026	1.05157	3.1995	76.35	-0.2417	-0.0155	0.2263	1189.9035	0.158313	-423.017573	-423.008532	-423.007588	-423.051427	33.634	
C	-0.0426267076	 1.6140585562	 0.0791805614	-0.418057
C	 0.0482146096	 0.1088515894	-0.1429422639	-0.097662
C	 0.7832862709	-0.466560609	-1.3710208628	-0.112036
C	 2.2300945789	-0.1236868219	-1.3327054038	-0.341706
C	 1.7654334635	-1.2813822129	-0.4655782806	 0.20666
C	 2.3340050342	-2.6741423171	-0.5275528045	-0.181344
O	 1.4822880629	-3.6262033697	 0.0811350677	-0.420675
C	 1.0007078774	-0.7726542293	 0.7111647678	 0.348657
O	 0.9534853345	-1.1519189581	 1.854328357	-0.347694
H	 0.9272357584	 2.1071267678	-0.0322515505	 0.119501
H	-0.7361688397	 2.0737252325	-0.6323373272	 0.123015
H	-0.4083807388	 1.8231303873	 1.0891560683	 0.136836
H	-0.9480692779	-0.3401212491	-0.0465447393	 0.109083
H	 0.2952420707	-0.8406283694	-2.2618211661	 0.110818
H	 2.8160025581	-0.440639776	-2.1912414581	 0.127678
H	 2.5832855209	 0.7999270293	-0.8842924031	 0.123851
H	 2.4628793062	-2.9852259825	-1.5706108805	 0.112334
H	 3.3351497393	-2.6776013756	-0.066204773	 0.101125
H	 1.3560960385	-3.3432482018	 0.9956012611	 0.299616
75.3325	117.3006	145.1068	189.1525	202.6494	262.2469	280.5504	439.7004	456.761	496.1325	512.2311	605.5663	627.0349	735.5869	770.4322	845.2452	905.0023	938.0897	944.6794	975.3654	1013.7866	1028.3751	1073.8008	1085.151	1095.4538	1113.45	1142.3031	1191.9406	1223.8533	1272.361	1307.5625	1348.6844	1373.8825	1385.1203	1412.436	1436.7122	1490.2078	1496.0763	1496.4328	1508.0031	1842.3538	2970.2937	3039.2719	3041.8947	3060.1195	3106.2978	3113.837	3120.0321	3194.9528	3204.5877	3777.8618
CC1C2CC2(CO)C1=O	C[C@H]1[C@H]2C[C@@]2(CO)C1=O	
InChI=1S/C7H10O2/c1-4-5-2-7(5,3-8)6(4)9/h4-5,8H,2-3H2,1H3	InChI=1S/C7H10O2/c1-4-5-2-7(5,3-8)6(4)9/h4-5,8H,2-3H2,1H3/t4-,5+,7-/m0/s1
