18
gdb 73226	2.24508	1.92918	1.36024	2.7258	71.21	-0.2237	-0.0244	0.1993	996.4495	0.147638	-439.079315	-439.07108	-439.070135	-439.11214	31.053	
C	-0.1732293077	 1.4588655467	 0.1073945805	-0.494258
C	 0.0790823497	-0.0300759511	 0.0278642296	 0.176061
N	-1.0793564799	-0.9506758596	 0.250651616	-0.350543
C	-0.4908179437	-1.4604783141	 1.5132362012	-0.194074
C	 0.850136792	-0.7806422135	 1.1418917771	 0.073216
O	 1.8230896204	-1.6211035114	 0.5308199784	-0.276129
C	 1.6259435457	-1.6955485215	-0.8740202435	-0.191875
C	 0.7627673285	-0.4951888381	-1.2628905802	 0.387477
O	 0.6344128415	-0.0230002232	-2.3609328281	-0.317327
H	 0.7683567068	 2.0172027855	 0.0856646251	 0.131924
H	-0.7659452392	 1.7807969939	-0.7550493937	 0.144052
H	-0.7079285637	 1.7232606651	 1.0253275962	 0.115525
H	-1.9787744099	-0.4896277204	 0.3228222331	 0.224416
H	-0.9354856185	-1.0450801778	 2.4269229614	 0.0993
H	-0.463285762	-2.5518249388	 1.5927622551	 0.112408
H	 1.3472965606	-0.2077575494	 1.9266351903	 0.091155
H	 2.5954896863	-1.6633228947	-1.3799229043	 0.135558
H	 1.1128938929	-2.6235121474	-1.166877684	 0.133114
90.7056	112.6992	198.2185	209.3225	263.8823	296.7688	373.8257	465.0043	527.9343	596.9559	619.1198	663.5985	696.5803	813.6738	852.9628	905.6843	943.116	987.7618	1008.943	1010.7108	1065.9539	1084.4999	1097.0935	1136.6701	1183.3708	1197.484	1211.9301	1239.4611	1248.8577	1318.4941	1331.216	1368.903	1394.8466	1404.5942	1483.8829	1485.1474	1489.488	1505.39	1858.4443	3002.1836	3014.1545	3032.2323	3076.2394	3085.2332	3095.9443	3104.6509	3108.1935	3543.4412
CC12NCC1OCC2=O	C[C@]12NC[C@H]1OCC2=O	
InChI=1S/C6H9NO2/c1-6-4(8)3-9-5(6)2-7-6/h5,7H,2-3H2,1H3	InChI=1S/C6H9NO2/c1-6-4(8)3-9-5(6)2-7-6/h5,7H,2-3H2,1H3/t5-,6-/m1/s1
