21
gdb 87966	3.69216	1.06573	0.97733	1.0493	79.6	-0.2394	0.0869	0.3262	1322.6717	0.181278	-424.223428	-424.214134	-424.21319	-424.257993	34.626	
C	 0.0569109254	 1.619789993	-0.2335011372	-0.411584
C	-0.0264889392	 0.1265545692	-0.006921708	-0.080007
C	 1.2228926398	-0.7458517959	-0.0170619119	-0.359925
C	 0.4533064752	-0.5063214826	 1.2560589297	 0.404263
C	 1.0381926908	 0.2241060472	 2.4699985674	-0.163277
O	 0.7024718297	-0.61386796	 3.5699693575	-0.265467
C	 0.2929197228	-1.8586196189	 3.0306154319	 0.218511
C	-0.6865410395	-2.5393173971	 3.9570469668	-0.406639
O	-0.3193925978	-1.5532239621	 1.7940999623	-0.282581
H	 0.9664488002	 2.0445514238	 0.2044520825	 0.115765
H	 0.0716598112	 1.8510175555	-1.3039439626	 0.121743
H	-0.7992173815	 2.1407264761	 0.2090605254	 0.123427
H	-0.9109096575	-0.3497116617	-0.422371928	 0.09993
H	 1.1500620996	-1.7293507339	-0.4676860605	 0.119326
H	 2.1859766389	-0.2558279475	-0.1332578452	 0.107253
H	 2.126350574	 0.3473062842	 2.3854591006	 0.100974
H	 0.5866524644	 1.2080335055	 2.6379030497	 0.11235
H	 1.1836151319	-2.490728045	 2.8509785988	 0.058717
H	-1.5572148057	-1.8965041357	 4.106157449	 0.131667
H	-1.0089744344	-3.4909665769	 3.5270685996	 0.126678
H	-0.2118910484	-2.7315198274	 4.9224052322	 0.128875
37.1038	111.5268	160.4364	198.9561	206.3723	231.4602	279.5332	391.3089	409.5018	440.651	530.4855	547.7249	704.0164	778.0316	831.5955	863.0794	867.1827	898.2682	924.4228	935.7195	1008.6311	1033.3564	1057.6762	1090.27	1108.8694	1120.6064	1133.6731	1144.2388	1165.4356	1183.3682	1219.0994	1235.7613	1315.6262	1358.2144	1382.2624	1394.7188	1410.3648	1424.2173	1442.0439	1482.3627	1486.2311	1489.4662	1493.0438	1507.5212	1528.6084	2918.3618	3007.0114	3028.5255	3055.2452	3058.4471	3092.7193	3094.4274	3118.1529	3134.7094	3140.5881	3145.6825	3215.1037
CC1CC11COC(C)O1	C[C@H]1C[C@]21CO[C@@H](C)O2	
InChI=1S/C7H12O2/c1-5-3-7(5)4-8-6(2)9-7/h5-6H,3-4H2,1-2H3	InChI=1S/C7H12O2/c1-5-3-7(5)4-8-6(2)9-7/h5-6H,3-4H2,1-2H3/t5-,6+,7+/m0/s1
