16
gdb 125481	5.0041	1.02518	0.85995	2.4238	74.62	-0.2276	-0.0643	0.1633	1306.9062	0.123751	-434.077936	-434.069193	-434.068249	-434.11265	30.484	
C	-0.0133500217	 1.4747806498	 0.0378953684	-0.454164
C	 0.0001854728	-0.0245568469	-0.0070734269	 0.385363
N	 0.1073801946	-0.6142108642	-1.2102101845	-0.273402
C	 0.1151864762	-1.937367414	-1.2011325989	-0.04619
C	 0.0163872001	-2.6449095641	 0.0022290996	 0.301025
C	 0.019527174	-4.15039728	 0.0798592098	-0.146767
O	 0.1354173895	-4.6724439674	-1.2299114084	-0.418723
N	-0.0872698433	-1.9978525322	 1.1593611404	-0.24083
N	-0.096081772	-0.6700451693	 1.161533586	-0.228532
H	 0.9049555545	 1.8745336445	-0.4035663796	 0.143775
H	-0.8479182137	 1.8632400816	-0.5541892284	 0.143776
H	-0.1040582574	 1.8203017857	 1.0677707211	 0.144435
H	 0.1999602793	-2.4585401222	-2.148744643	 0.146547
H	 0.8533825139	-4.4655867465	 0.7254445992	 0.122365
H	-0.9080373693	-4.4770685374	 0.5741733285	 0.122367
H	 0.1369140324	-5.6317073873	-1.1751393935	 0.298954
35.7412	68.9983	103.6509	198.3031	215.7476	322.2562	350.3737	397.9216	438.7162	495.2075	572.7253	664.6927	748.7542	802.5581	868.4208	957.6624	1005.6003	1048.741	1070.1269	1074.9758	1094.3382	1133.8089	1208.8668	1240.9956	1245.7125	1308.2101	1363.3965	1401.0353	1433.5983	1467.5631	1478.2942	1481.0261	1505.1796	1559.0778	1606.1094	2983.9262	3010.9794	3048.8705	3106.4736	3158.0827	3195.1809	3848.3934
CC1=NC=C(CO)N=N1	Cc1ncc(CO)nn1	
InChI=1S/C5H7N3O/c1-4-6-2-5(3-9)8-7-4/h2,9H,3H2,1H3	InChI=1S/C5H7N3O/c1-4-6-2-5(3-9)8-7-4/h2,9H,3H2,1H3
