18
gdb 37200	2.71587	2.04825	1.73306	1.8395	73.73	-0.2255	0.0561	0.2815	870.7443	0.14931	-401.83009	-401.823408	-401.822464	-401.860663	28.094	
C	-0.0562646278	 1.5566001038	-0.0369258242	-0.285296
C	 1.5215221821	 1.560133315	 0.0030852848	-0.290628
C	 1.48607191	 0.0059098107	-0.0285986428	 0.407413
O	 1.5811416894	-0.7050508179	 1.2160438247	-0.334932
C	 0.1248125338	-0.7520371363	 1.3044313692	-0.143998
C	-0.0409807393	-0.0049023588	-0.0332071364	 0.180301
C	-0.005042743	-0.8689251127	-1.2998899025	-0.129579
N	 0.7598936573	-0.0898500686	-2.3017385719	-0.334759
C	 1.5075767648	-0.8666957147	-1.2889546678	-0.141459
H	-0.5535600602	 2.0136250241	 0.8225030565	 0.095998
H	-0.4629119972	 1.9802232335	-0.9554451469	 0.121296
H	 1.9911000445	 2.0243575485	-0.8649925815	 0.117109
H	 1.9658768392	 1.9548312003	 0.9188186365	 0.108875
H	-0.2454515869	-1.7838553851	 1.3351236464	 0.103874
H	-0.2435960914	-0.2142214627	 2.186654703	 0.104884
H	-0.7040513821	-1.6318670039	-1.626766455	 0.089358
H	 0.7695498242	-0.6308259929	-3.1649792113	 0.235163
H	 2.2229314327	-1.6267728522	-1.5816614207	 0.096381
182.4007	259.4137	289.0776	345.3976	350.1016	518.864	537.1036	676.6894	703.4249	719.962	732.981	811.3686	855.63	869.9797	888.2209	912.7119	917.0199	941.4142	965.8227	1006.3103	1023.8805	1071.2261	1095.593	1143.9426	1145.2088	1151.5853	1169.0141	1195.5611	1231.4547	1241.4763	1245.2538	1269.9955	1289.1273	1329.0976	1344.7006	1365.2688	1447.8605	1464.3079	1512.4931	3013.1404	3059.5344	3065.3492	3077.6477	3130.0036	3146.1264	3159.0993	3180.1256	3487.3366
C1CC23OCC12C1NC31	C1C[C@@]23OC[C@@]12[C@H]1N[C@@H]31	
InChI=1S/C7H9NO/c1-2-7-5-4(8-5)6(1,7)3-9-7/h4-5,8H,1-3H2	InChI=1S/C7H9NO/c1-2-7-5-4(8-5)6(1,7)3-9-7/h4-5,8H,1-3H2/t4-,5+,6+,7-/m0/s1
