13
gdb 21644	5.81031	1.65348	1.28883	2.3921	66.9	-0.1976	-0.0696	0.128	876.134	0.098494	-390.967383	-390.960691	-390.959747	-390.998126	25.663	
N	-0.0093852917	 1.3773458886	 0.0821747527	-0.554338
C	-0.0371346931	 0.0023332569	-0.0415429179	 0.442245
N	-1.1746220325	-0.6236063081	-0.0292286937	-0.264113
N	-1.1118890689	-1.9609956377	-0.2533197822	-0.252996
C	 0.0262136932	-2.7056038902	-0.4728656963	 0.359771
N	-0.0446919821	-3.9715684755	-0.6837663662	-0.565315
C	 1.2229999359	-1.8580898451	-0.4133938775	-0.042507
N	 1.209907751	-0.5875147016	-0.2161603904	-0.265441
H	 0.8495983949	 1.734889394	 0.471423585	 0.261686
H	-0.8474635849	 1.7815036997	 0.4722273269	 0.261364
H	-2.001395371	-2.4371498874	-0.2521619252	 0.275234
H	 0.8868981208	-4.3589997604	-0.8207186907	 0.212918
H	 2.1874133783	-2.3501999732	-0.5432565744	 0.131493
87.3823	286.3596	331.6439	356.1041	392.1857	461.9348	504.2412	523.8068	595.977	642.0915	658.6229	739.3331	790.8555	823.4659	841.3448	979.1615	997.5359	1072.4218	1140.1116	1270.9574	1344.696	1386.891	1428.8709	1466.8003	1577.9873	1625.12	1665.3522	1710.3966	3131.0996	3500.7345	3579.7393	3625.9301	3694.779
NC1=NNC(=N)C=N1	Nc1n[nH]c([NH])cn1	
InChI=1S/C3H5N5/c4-2-1-6-3(5)8-7-2/h1H,(H2,4,7)(H2,5,6,8)	InChI=1S/C3H10N5/c4-2-1-6-3(5)8-7-2/h2-4,6-8H,1,5H2
