17
gdb 95657	2.37115	1.63835	1.0827	1.9433	64.23	-0.2692	-0.0073	0.2619	1086.6268	0.136522	-496.132169	-496.123796	-496.122852	-496.165606	31.426	
O	-0.0449979678	 1.4725028498	 0.0082110999	-0.446779
C	-0.0760184051	 0.0646783841	 0.0389119184	 0.13834
C	-1.4813528007	-0.5257158844	-0.073001246	-0.258116
C	-1.3869677082	-2.0335433769	 0.0960929086	-0.077469
O	-0.5085650743	-2.6605345455	-0.8641035115	-0.223137
C	 0.5284526146	-2.0089798487	-1.4124289324	 0.400639
O	 1.2166981606	-2.5570963081	-2.235633378	-0.344603
C	 0.7960964374	-0.5308822901	-1.0723628042	-0.0359
O	 0.5120317802	 0.2153858646	-2.2539989256	-0.449726
H	-0.0399749303	 1.72416133	-0.9243761259	 0.297553
H	 0.3498935809	-0.2341578902	 1.0060108822	 0.090778
H	-2.1297292538	-0.111526556	 0.7043759398	 0.119248
H	-1.9144834621	-0.2754474422	-1.0478268506	 0.123163
H	-1.0224923295	-2.2902503145	 1.0988269118	 0.12125
H	-2.3515755967	-2.5245028599	-0.0475731851	 0.132813
H	 1.8604784314	-0.4477566627	-0.8158709542	 0.105993
H	 0.9911350934	-0.2078012092	-2.9766688372	 0.305954
42.4586	124.8008	247.5429	261.1204	295.2054	331.9436	389.0243	419.0559	421.8257	442.4228	520.4827	636.918	658.6866	728.3719	822.7202	882.7447	927.4092	957.4879	1014.7614	1086.9917	1104.5535	1110.682	1129.1775	1193.0168	1236.8708	1252.8617	1270.083	1300.1429	1337.9024	1349.6472	1395.72	1418.0156	1428.7595	1452.288	1479.2461	1516.4411	1821.7157	3014.9772	3028.5504	3032.1364	3052.6506	3105.5117	3110.8335	3774.6042	3797.8737
OC1CCOC(=O)C1O	O[C@H]1CCOC(=O)[C@H]1O	
InChI=1S/C5H8O4/c6-3-1-2-9-5(8)4(3)7/h3-4,6-7H,1-2H2	InChI=1S/C5H8O4/c6-3-1-2-9-5(8)4(3)7/h3-4,6-7H,1-2H2/t3-,4-/m0/s1
