19
gdb 65147	3.96762	1.01531	0.99485	2.9019	77.25	-0.2555	0.0282	0.2836	1268.2297	0.159382	-419.184081	-419.175415	-419.174471	-419.21796	32.694	
C	-0.1910332252	 1.4540135045	-0.4092009597	-0.494132
C	-0.0182993996	-0.0193864969	-0.1090627104	 0.313419
C	 1.2089735578	-0.7095741384	-0.5899561067	-0.276457
N	 1.0183047794	-0.4528936551	 0.8484770831	-0.349521
C	-1.272989045	-0.8467997986	 0.028172839	 0.105639
C	-2.4336187652	-0.355878194	 0.9241670463	-0.390656
C	-3.2143141248	-0.321197274	-0.3715775187	 0.44013
N	-4.3933636101	-0.0400454483	-0.6902985237	-0.541541
O	-2.1498546313	-0.7354609872	-1.1499659727	-0.270908
H	 0.7810645662	 1.9319392415	-0.5631305458	 0.117117
H	-0.7864281943	 1.5967039614	-1.3154600178	 0.146932
H	-0.6937778271	 1.9789940609	 0.4104253249	 0.126699
H	 1.1740423263	-1.7572104785	-0.8765570599	 0.122784
H	 1.9376318997	-0.1161848163	-1.1355613568	 0.115807
H	 1.5754346473	 0.3475293425	 1.1373887696	 0.232635
H	-1.0039487335	-1.8928027223	 0.1928528616	 0.097599
H	-2.7972896129	-1.072424881	 1.6614931503	 0.141575
H	-2.297889627	 0.6149846061	 1.4023908579	 0.136164
H	-4.5410571206	-0.1516443562	-1.6950258406	 0.226714
47.6809	80.5357	203.0024	205.4084	265.2598	320.9776	355.4717	424.4216	445.9542	497.2807	533.9374	694.9977	754.1428	840.6243	851.0119	869.0968	932.4101	941.74	949.7116	964.2008	986.6649	1022.4591	1033.6598	1053.1857	1062.3109	1115.8835	1128.2261	1158.9805	1221.2622	1234.0864	1263.5126	1315.233	1320.7985	1367.0854	1412.5822	1429.8243	1463.3927	1489.3083	1506.0233	1516.3404	1825.9716	3035.4724	3084.2412	3094.6401	3099.6228	3108.9587	3117.5306	3148.0817	3194.0191	3473.9514	3499.253
CC1(CN1)C1CC(=N)O1	C[C@]1(CN1)[C@H]1C[C]([NH])O1	
InChI=1S/C6H10N2O/c1-6(3-8-6)4-2-5(7)9-4/h4,7-8H,2-3H2,1H3	InChI=1S/C6H10N2O/c1-6(3-8-6)4-2-5(7)9-4/h4,7-8H,2-3H2,1H3/t4-,6+/m1/s1
