19
gdb 66193	2.26706	1.51825	1.40535	4.3391	79.82	-0.2409	0.0132	0.2541	1066.9535	0.16061	-382.089996	-382.081463	-382.080519	-382.122744	32.949	
C	 0.0027088269	 1.525574686	 0.0305763929	-0.423738
C	-0.0189142153	-0.0118698359	-0.0030575307	 0.076233
C	 0.6917038087	-0.5503455461	-1.2755681353	-0.273519
C	 1.0481360523	-2.0083373481	-1.1471510907	-0.06444
C	 1.0231565937	-2.6567382731	 0.0147934265	-0.038621
C	 0.6554461619	-1.981780773	 1.3105460185	-0.234523
N	 0.5929274888	-0.5162640924	 1.2376006065	-0.305932
C	-1.4301564633	-0.4575598481	-0.0211695338	 0.31683
N	-2.5361158769	-0.7900560942	-0.0550624381	-0.350621
H	 1.040294149	 1.8734347987	 0.0730430077	 0.117821
H	-0.4611944338	 1.9414194807	-0.8673119679	 0.135593
H	-0.5262428822	 1.8944695589	 0.9112906773	 0.146564
H	 0.0561420509	-0.3893045987	-2.154590787	 0.12473
H	 1.5951833245	 0.0533921573	-1.4440233822	 0.10754
H	 1.3239850563	-2.5276077791	-2.0608511926	 0.094923
H	 1.2496926599	-3.7190121794	 0.0591404773	 0.093872
H	-0.3170001064	-2.3585761735	 1.6593321728	 0.141285
H	 1.3738364639	-2.2423540955	 2.0962379902	 0.11391
H	 1.5357051211	-0.1400474644	 1.2787919187	 0.222095
102.9023	144.1169	196.4243	229.0356	251.3314	313.709	380.9015	402.5678	434.1143	507.4127	597.9195	606.0733	657.9596	682.221	759.7485	847.9071	878.4819	905.1921	919.4522	992.1239	999.2284	1008.3828	1030.3754	1107.1001	1139.1747	1151.6574	1168.8011	1221.4119	1246.0272	1313.7301	1351.3997	1375.0795	1406.2589	1410.6345	1469.6498	1470.4866	1477.8983	1491.8735	1503.1501	1727.7022	2357.6582	3003.6575	3009.2256	3043.73	3052.7017	3057.6178	3117.4075	3143.0315	3151.7729	3174.3745	3509.0516
CC1(CC=CCN1)C#N	C[C@]1(CC=CCN1)C#N	
InChI=1S/C7H10N2/c1-7(6-8)4-2-3-5-9-7/h2-3,9H,4-5H2,1H3	InChI=1S/C7H10N2/c1-7(6-8)4-2-3-5-9-7/h2-3,9H,4-5H2,1H3/t7-/m0/s1
