18
gdb 20135	4.39113	1.67973	1.52583	2.2984	71.51	-0.213	0.0781	0.2911	890.7406	0.155434	-343.895776	-343.888775	-343.887831	-343.927165	27.356	
C	 1.1614715487	-0.9524447641	-0.4219134985	-0.22456
C	 0.0055320023	-0.1919716416	-0.9742877164	-0.222073
N	 0.5470172121	 0.1250228524	 0.3464826657	-0.093988
C	-0.1935218439	-0.2358580377	 1.5349381224	 0.070792
C	-1.3550102892	 0.7118116092	 1.9964376978	-0.249371
C	-2.2227302309	-0.533481822	 2.2028384247	-0.042584
N	-2.3937999219	-1.1402083076	 0.8646610317	-0.32359
C	-1.1683690647	-1.4352598804	 1.6565356751	-0.096866
H	 0.9716012392	-1.9780309592	-0.1086893365	 0.104242
H	 2.1720279981	-0.7667199879	-0.7760837678	 0.110597
H	 0.1759011175	 0.5719881766	-1.7286262702	 0.107799
H	-0.953739188	-0.6939698173	-1.0255935871	 0.146779
H	 0.536222713	-0.3243683746	 2.3474414061	 0.085258
H	-1.1183032398	 1.2668430368	 2.9056262973	 0.103648
H	-1.7302811021	 1.394269811	 1.2310775792	 0.114285
H	-2.9415104138	-0.7216982986	 2.9901035114	 0.094223
H	-3.0084603871	-1.9466586601	 0.9739281732	 0.227889
H	-0.9277155697	-2.456129405	 1.9297364817	 0.08752
67.8725	183.842	203.9186	293.1337	403.166	443.8566	581.9092	664.3185	756.4758	796.2337	814.4228	836.0006	870.7726	900.9983	918.8617	961.2393	979.5995	997.0296	1030.2913	1062.9489	1080.7106	1101.7623	1122.5103	1124.2028	1127.0826	1158.2941	1180.42	1192.9776	1216.6144	1256.5904	1290.6354	1322.2521	1338.2446	1374.8161	1384.1655	1474.4722	1492.9625	1521.5553	3043.9265	3075.5557	3091.8983	3115.7335	3134.5215	3173.8891	3176.8636	3198.5408	3221.6787	3468.0189
C1CN1C1CC2NC12	C1CN1[C@H]1C[C@H]2N[C@@H]12	
InChI=1S/C6H10N2/c1-2-8(1)5-3-4-6(5)7-4/h4-7H,1-3H2	InChI=1S/C6H10N2/c1-2-8(1)5-3-4-6(5)7-4/h4-7H,1-3H2/t4-,5+,6-/m1/s1
