16
gdb 18257	4.37552	1.6276	1.34404	0.7804	64.68	-0.2445	0.0014	0.2459	910.5062	0.130953	-383.714844	-383.707685	-383.706741	-383.746325	27.016	
O	-0.0380093357	 1.4378913374	-0.0473120294	-0.424111
C	 0.0382835554	 0.0225620253	 0.0540003472	-0.081379
C	-1.3894676092	-0.5235432553	-0.009054322	-0.062523
C	-2.0974382106	-0.2221263692	-1.3194928416	-0.072767
C	-2.5673815834	-1.3238167966	-1.9101990801	-0.094952
C	-2.1981418521	-2.5313677071	-1.1119080061	-0.000026
O	-0.7650427975	-2.7217827991	-0.9957630859	-0.259509
C	-1.4539641893	-2.0490999605	 0.0629015736	 0.008515
H	 0.8569855826	 1.7829504046	-0.1124797726	 0.288798
H	 0.6215134522	-0.4150366636	-0.7671387954	 0.109763
H	 0.5069310492	-0.2833133592	 1.0030621959	 0.086062
H	-1.9470869732	-0.0891056262	 0.8323576374	 0.092616
H	-2.1501882672	 0.7859072649	-1.7115294141	 0.116129
H	-3.1058020376	-1.3679543527	-2.8487947035	 0.101425
H	-2.7789168431	-3.4484206413	-1.1261026993	 0.097396
H	-1.4472473406	-2.5610754312	 1.021741906	 0.094562
102.7954	153.098	198.2038	252.2492	343.359	434.4425	481.7304	577.0913	718.8816	753.8942	806.6864	830.033	863.8605	874.16	946.6735	966.8628	975.8657	1030.6717	1067.413	1074.4877	1101.759	1109.7619	1132.8438	1232.6407	1241.8845	1253.4319	1298.786	1310.9812	1328.975	1374.8693	1410.3034	1451.528	1525.5998	1658.9609	2972.4887	3013.0842	3037.7591	3143.6874	3166.52	3202.7694	3226.8956	3833.5417
OCC1C=CC2OC12	OC[C@H]1C=C[C@H]2O[C@@H]12	
InChI=1S/C6H8O2/c7-3-4-1-2-5-6(4)8-5/h1-2,4-7H,3H2	InChI=1S/C6H8O2/c7-3-4-1-2-5-6(4)8-5/h1-2,4-7H,3H2/t4-,5-,6+/m1/s1
