12
gdb 130913	2.75592	1.5885	1.00768	4.2927	64.93	-0.2555	-0.1048	0.1507	1055.2654	0.076682	-472.611342	-472.604009	-472.603064	-472.643993	25.981	
O	-0.0700110045	-0.0042933581	-0.0008888803	-0.232227
C	-0.0064558502	 1.1961547533	 0.0060923929	 0.125443
C	 1.2917292417	 1.9741284756	-0.0013159977	 0.104151
N	 2.3711174657	 1.2645560305	-0.018652071	-0.077607
O	 3.5759587327	 1.9312698553	-0.0259836269	-0.214831
C	 3.6167854172	 3.2775841638	-0.0152392089	 0.116928
C	 2.5348152049	 4.0747079968	 0.0028039916	-0.261594
C	 1.2208105198	 3.4633424637	 0.0115852708	 0.340746
O	 0.1547804428	 4.0570496461	 0.0278727978	-0.349402
H	-0.8957840368	 1.8498130073	 0.0188873212	 0.135585
H	 4.6465351782	 3.6171000613	-0.0233099239	 0.167007
H	 2.6355435584	 5.1523125243	 0.0106769246	 0.145802
63.1663	105.2958	206.1387	264.25	358.0047	426.4628	457.2767	500.6166	566.9103	631.3781	771.1657	773.8058	865.992	871.9679	971.6627	983.2812	1017.7503	1038.5993	1139.5989	1249.5419	1315.1997	1400.4261	1427.6501	1583.9172	1654.0975	1759.686	1823.1342	2996.388	3206.4703	3229.5174
O=CC1=NOC=CC1=O	O=Cc1noccc1=O	
InChI=1S/C5H3NO3/c7-3-4-5(8)1-2-9-6-4/h1-3H	InChI=1S/C5H3NO3/c7-3-4-5(8)1-2-9-6-4/h1-3H
