22
gdb 100978	2.63979	1.02808	0.92616	3.3546	78.71	-0.2293	0.057	0.2862	1394.9147	0.19152	-441.445101	-441.434428	-441.433484	-441.480803	39.304	
C	-0.261660343	 1.4465328354	 0.0989052895	-0.3178
N	-0.0415978535	 0.0137920352	 0.2200178634	-0.10233
C	 1.2328099097	-0.5309115399	-0.2340352182	-0.295307
C	 0.8863074047	-0.5287956095	 1.2194574806	 0.310351
C	 1.6688305522	 0.3755580416	 2.1563029087	-0.499852
C	 0.3540410187	-1.8257752449	 1.8245552249	 0.047858
O	 1.3892496198	-2.6488871404	 2.3773585718	-0.447661
C	-0.7422750779	-1.6211307275	 2.8733045813	-0.074277
O	-1.1955918884	-2.8642680843	 3.3674549097	-0.425637
H	 0.6455055569	 2.0630223049	 0.1906893016	 0.099703
H	-0.7015928307	 1.6463492817	-0.8833698066	 0.128983
H	-0.9780884029	 1.7727908441	 0.8598202362	 0.124363
H	 1.1869291751	-1.4481498916	-0.8164443521	 0.116427
H	 1.9982050011	 0.1740403313	-0.5587610657	 0.102334
H	 2.0764637717	 1.2452210845	 1.6382599694	 0.128871
H	 1.0550078359	 0.7371885348	 2.9881448	 0.129049
H	 2.5243348809	-0.1636562501	 2.5784193223	 0.119781
H	-0.0723391063	-2.4254990331	 1.0153019195	 0.102256
H	 1.8029421025	-2.1625486341	 3.0998016796	 0.281835
H	-0.3626626361	-0.9844370272	 3.6936041929	 0.067283
H	-1.5950772781	-1.1060343469	 2.4208187029	 0.120775
H	-0.4031512523	-3.4108966238	 3.4490126685	 0.282995
45.1368	115.7219	130.1351	168.799	175.1092	232.8573	268.3971	291.3203	310.2022	333.2085	349.216	439.3875	484.9146	500.3735	520.6615	547.9168	759.8123	775.2073	858.5095	915.6306	939.9857	1000.8958	1048.759	1060.8118	1071.5812	1086.3586	1110.4217	1118.7953	1148.1517	1168.3941	1196.375	1209.2423	1278.9598	1290.7942	1309.2204	1373.688	1393.0488	1411.327	1421.1325	1441.2804	1451.0416	1484.8155	1489.6682	1498.2745	1508.4641	1509.7561	1514.1268	2934.0124	2985.3042	3035.048	3067.6592	3076.0396	3079.3379	3087.251	3090.4736	3100.8261	3128.4192	3167.1505	3764.3286	3793.9876
CN1CC1(C)C(O)CO	CN1C[C@]1(C)[C@@H](O)CO	
InChI=1S/C6H13NO2/c1-6(4-7(6)2)5(9)3-8/h5,8-9H,3-4H2,1-2H3	InChI=1S/C6H13NO2/c1-6(4-7(6)2)5(9)3-8/h5,8-9H,3-4H2,1-2H3/t5-,6+,7?/m0/s1
