20
gdb 15068	2.65507	1.47963	1.04292	2.7342	75.81	-0.2415	-0.0172	0.2243	1180.4325	0.175078	-349.006007	-348.996691	-348.995746	-349.040973	32.997	
C	-0.1515140299	 1.5343667362	-0.0510748533	-0.392217
C	-0.0135723687	 0.0098679668	-0.1025962814	-0.193391
C	 0.8289598484	-0.4978752275	-1.2912839286	-0.072971
C	 2.2766304434	-0.073335659	-1.1276315961	 0.172919
O	 2.8889418697	 0.6377018986	-1.8816859736	-0.256609
C	 0.7776712053	-2.0148170737	-1.4078869545	 0.009581
C	-0.3140937208	-2.6753249669	-2.2125699489	-0.273309
C	 1.1085923136	-2.6920484004	-2.7141530705	-0.274548
H	 0.8229857964	 2.0279506956	 0.0250764243	 0.129066
H	-0.6403260279	 1.9158068403	-0.9538722267	 0.121689
H	-0.7507572835	 1.8443838264	 0.8102375404	 0.115764
H	 0.4332113952	-0.3565709247	 0.8320260704	 0.098516
H	-1.00392243	-0.4552098923	-0.1663139172	 0.107877
H	 0.4660841814	-0.0477785995	-2.2230914807	 0.085807
H	 2.764776976	-0.4941943491	-0.2141661666	 0.065304
H	 1.0864626939	-2.5390491787	-0.5061542404	 0.086138
H	-0.7410119425	-3.5993589562	-1.8387319546	 0.115458
H	-1.0241409774	-2.0333947847	-2.7238050327	 0.115231
H	 1.3552367363	-2.0581700381	-3.559457084	 0.124327
H	 1.655366541	-3.6278533633	-2.6867683053	 0.115369
46.2412	73.631	90.6563	158.6841	192.26	230.5616	287.4941	375.7106	409.6933	429.6482	514.8449	769.6548	779.6577	826.4782	853.4313	889.3032	922.6131	953.9132	985.2357	1019.6258	1048.1068	1062.1477	1080.9313	1118.6324	1137.4722	1154.2695	1192.6161	1198.3631	1223.6729	1261.9552	1279.244	1330.4117	1366.7615	1409.1047	1419.816	1426.0495	1472.1237	1486.5606	1499.7342	1504.22	1506.0676	1833.2305	2829.7833	3015.0345	3035.3585	3044.0258	3060.7778	3103.2818	3108.0679	3129.0293	3131.4783	3137.3713	3210.0785	3225.2317
CCC(C=O)C1CC1	CC[C@@H](C=O)C1CC1	
InChI=1S/C7H12O/c1-2-6(5-8)7-3-4-7/h5-7H,2-4H2,1H3	InChI=1S/C7H12O/c1-2-6(5-8)7-3-4-7/h5-7H,2-4H2,1H3/t6-/m0/s1
