13
gdb 23927	3.78971	1.55457	1.42284	1.532	46.48	-0.2621	0.067	0.329	855.7697	0.092261	-530.085764	-530.078593	-530.077649	-530.118327	24.984	
F	 0.1407741326	 0.0536093032	 0.1011932125	-0.079412
C	-0.0125276254	 1.386424187	 0.0414224249	 0.272643
F	 1.2077235307	 1.9240134702	-0.1160015541	-0.079658
F	-0.7231349812	 1.6593827157	-1.0646195845	-0.079659
C	-0.6922158765	 1.9296563261	 1.273342659	-0.182137
C	-1.9756710544	 1.1952866736	 1.7185437452	-0.086558
O	-1.3648823854	 0.793269394	 2.9594658234	-0.265476
C	-0.1261191144	 1.4487520022	 2.6272354025	-0.086558
H	-0.7842715812	 3.0099682578	 1.1593772896	 0.115693
H	-2.8483414287	 1.8387343457	 1.8752992204	 0.112156
H	-2.2639908213	 0.338045798	 1.1002369529	 0.123405
H	 0.7117255667	 0.7458421629	 2.562217908	 0.123405
H	 0.1240465987	 2.2460751137	 3.3356446201	 0.112156
64.8387	73.7751	188.0372	252.0204	355.2931	414.9459	520.293	577.0766	626.3512	768.0877	849.9561	886.5745	958.0554	1032.4796	1038.2857	1053.0604	1100.8853	1158.0973	1166.2227	1187.394	1202.6999	1248.3441	1288.0876	1315.8658	1383.0423	1409.7469	1508.2315	1534.8575	3026.4435	3036.3316	3076.5702	3076.7851	3119.0831
FC(F)(F)C1COC1	FC(F)(F)C1COC1	
InChI=1S/C4H5F3O/c5-4(6,7)3-1-8-2-3/h3H,1-2H2	InChI=1S/C4H5F3O/c5-4(6,7)3-1-8-2-3/h3H,1-2H2
