17
gdb 102274	2.4403	1.16353	0.99653	2.4846	65.83	-0.2622	-0.0314	0.2308	1259.4934	0.131817	-496.137435	-496.127288	-496.126344	-496.173721	34.303	
C	-0.2376292936	 1.4091119383	-0.0691916913	-0.485686
C	 0.0188217394	-0.07305668	-0.0074948203	 0.45474
O	 1.0891066258	-0.6144377713	-0.0761853743	-0.348589
O	-1.1521575429	-0.7538556393	 0.1481316514	-0.258503
C	-1.0728540753	-2.174808872	 0.0515197982	-0.007057
C	-2.3218097638	-2.736290336	 0.7294521432	-0.090403
O	-3.5032908659	-2.3260057791	 0.0754301161	-0.414044
C	-1.00403213	-2.5983054515	-1.4122113291	 0.17157
O	-0.9330806687	-1.8336499927	-2.33375725	-0.237174
H	 0.7075593464	 1.9448674947	 0.007635795	 0.153056
H	-0.7143377221	 1.6462676026	-1.0253820152	 0.165819
H	-0.9195338148	 1.7184400447	 0.7264869867	 0.145841
H	-0.1661896871	-2.540174576	 0.5509194355	 0.129359
H	-2.2979414946	-3.8301829086	 0.6857587886	 0.122774
H	-2.3088224177	-2.442244418	 1.7891770815	 0.109621
H	-3.4804988381	-1.3633594241	 0.0281647527	 0.297795
H	-1.021985487	-3.7015755017	-1.5567194189	 0.090882
62.806	78.572	89.6492	98.5461	116.6383	180.915	256.8577	266.481	336.5154	394.2249	428.8483	589.1753	594.4975	646.6696	714.145	825.5052	873.2434	931.9193	974.3814	1014.5813	1062.8427	1068.6688	1086.0969	1137.0606	1235.1513	1239.7286	1276.3046	1349.5631	1390.7322	1397.9283	1409.2238	1426.5056	1469.4807	1475.7831	1496.6894	1834.2887	1852.9154	2888.46	3002.6127	3043.7096	3058.5727	3081.5388	3126.1812	3171.3275	3805.6175
CC(=O)OC(CO)C=O	CC(=O)O[C@@H](CO)C=O	
InChI=1S/C5H8O4/c1-4(8)9-5(2-6)3-7/h2,5,7H,3H2,1H3	InChI=1S/C5H8O4/c1-4(8)9-5(2-6)3-7/h2,5,7H,3H2,1H3/t5-/m1/s1
