20
gdb 82139	3.00746	1.05614	0.88917	3.6657	79.09	-0.2368	-0.0208	0.216	1345.7153	0.169803	-403.108727	-403.099613	-403.098669	-403.143587	33.33	
C	-0.2782815012	 1.6188694594	 0.0626742804	-0.411082
C	-0.0155068615	 0.1192520799	 0.13898916	-0.027517
C	 0.3417787734	-0.6394032745	-1.1420884508	-0.028858
C	 1.6643702591	-0.2507011096	-1.6602183047	-0.248142
N	 1.6167774601	-1.2244517792	-0.5511336912	-0.143119
C	 1.3241212591	-0.4533593807	 0.7167576754	 0.026859
C	 2.4271406862	 0.4697260816	 1.2380946496	-0.300511
C	 3.6633675168	-0.3119665429	 1.6363968452	 0.158508
O	 4.2113994755	-0.2182821597	 2.705128369	-0.242476
H	 0.521362031	 2.1578512247	-0.4534790612	 0.115874
H	-1.2100586241	 1.8157762644	-0.4784146935	 0.121851
H	-0.380089627	 2.0516863916	 1.0634726869	 0.122134
H	-0.8557794333	-0.3627373294	 0.646278891	 0.087619
H	-0.3455799981	-1.2550035079	-1.7138942801	 0.097356
H	 1.9923876364	-0.70689115	-2.5890526681	 0.12609
H	 2.0507153388	 0.7518475981	-1.4991281274	 0.110564
H	 1.1083340926	-1.1979304634	 1.4885707031	 0.09664
H	 2.726054086	 1.1952186862	 0.4703459326	 0.116381
H	 2.0799967418	 1.0334381543	 2.1094713763	 0.124092
H	 4.0432082386	-1.004069203	 0.8533850375	 0.097737
48.8922	61.4739	140.1322	179.5342	198.8122	242.6525	304.3939	412.7815	447.76	536.2764	547.3506	694.4318	747.0995	760.7245	798.8219	831.2215	907.4693	911.7753	984.3007	1027.3061	1036.7444	1057.7066	1081.0762	1095.2309	1109.5023	1122.2123	1153.2168	1168.8879	1216.8448	1221.425	1261.2986	1284.9602	1310.5233	1368.9194	1377.5728	1389.6634	1416.3419	1426.8655	1456.7713	1492.1604	1497.057	1507.3769	1830.4555	2899.1282	3030.0291	3035.0904	3052.8483	3069.8848	3095.3617	3098.7809	3109.222	3118.3775	3158.9976	3201.3133
CC1C2CN2C1CC=O	C[C@H]1[C@H]2CN2[C@H]1CC=O	
InChI=1S/C7H11NO/c1-5-6(2-3-9)8-4-7(5)8/h3,5-7H,2,4H2,1H3	InChI=1S/C7H11NO/c1-5-6(2-3-9)8-4-7(5)8/h3,5-7H,2,4H2,1H3/t5-,6+,7-,8?/m1/s1
