18
gdb 29550	3.13379	1.65058	1.09586	1.6783	87.42	-0.1825	-0.0029	0.1797	1091.4016	0.150169	-364.869202	-364.861715	-364.860771	-364.900932	29.539	
C	-0.0217777078	 1.5082547943	 0.0276958879	-0.501213
C	-0.0077075368	 0.0131405757	 0.0082965697	 0.212638
C	-0.0240983957	-0.8026956926	-1.0640497989	-0.21553
C	-1.6203*^-6	-2.2570308421	-0.6389219231	-0.248366
N	 0.0317365502	-2.1320233738	 0.8095967876	-0.015481
C	 0.06474507	-2.9516732075	 1.9015868781	-0.130692
C	 0.0821523898	-2.1393686895	 3.0209918605	-0.137264
C	 0.0593683747	-0.7819763062	 2.5881732719	-0.325368
C	 0.0278764651	-0.8132435736	 1.2079289334	 0.313335
H	 0.8674010512	 1.9012146199	 0.5340892036	 0.135248
H	-0.0514356485	 1.9200934652	-0.9838883331	 0.124902
H	-0.8915537845	 1.8840858248	 0.5787752897	 0.135206
H	-0.0508361151	-0.5012504798	-2.1022966306	 0.098905
H	-0.8875445729	-2.8089892149	-0.9748649507	 0.130133
H	 0.8820770846	-2.791478228	-1.0151579077	 0.130139
H	 0.0730838445	-4.0260863083	 1.8078596317	 0.112375
H	 0.1087362226	-2.486672802	 4.0430166777	 0.091057
H	 0.065238889	 0.0968776685	 3.2140793823	 0.089977
145.9826	176.3303	184.5647	238.4712	269.5724	493.9699	510.156	588.3176	607.6927	668.3491	706.2161	709.7302	752.4766	762.4796	781.4676	825.3136	916.9288	959.9165	989.0167	1007.9296	1036.0653	1066.4053	1081.2168	1105.9697	1183.7536	1191.3708	1242.9355	1288.8284	1316.5069	1345.4997	1406.4322	1413.0653	1446.4869	1477.6698	1481.1293	1490.6419	1514.6199	1594.6352	1663.8306	3015.8977	3030.1948	3042.6781	3081.074	3120.7212	3227.4837	3237.8727	3253.0195	3265.735
CC1=CCN2C=CC=C12	CC1=CCn2cccc12	
InChI=1S/C8H9N/c1-7-4-6-9-5-2-3-8(7)9/h2-5H,6H2,1H3	InChI=1S/C8H9N/c1-7-4-6-9-5-2-3-8(7)9/h2-5H,6H2,1H3
