18
gdb 30616	4.42904	0.97184	0.80483	5.0096	81.03	-0.2237	-0.0201	0.2036	1407.3956	0.148367	-402.015621	-402.006855	-402.005911	-402.049954	32.026	
C	 0.0378635069	 1.5381150568	 0.0103426478	-0.377684
C	-0.0440722708	 0.0136005645	 0.0037952979	-0.290427
C	-1.4802060091	-0.5112482372	 0.0123954798	 0.284422
O	-2.4288053139	 0.2519690441	 0.0232225276	-0.336997
C	-1.6754470171	-1.9692486415	 0.0078187931	 0.2009
C	-0.7092976668	-2.9632997336	-0.0037221505	-0.170681
N	-1.3484349606	-4.1658905117	-0.0039057746	-0.245282
C	-2.7150778108	-3.97424112	 0.0074494612	-0.064991
C	-2.9466607377	-2.6262289833	 0.0148243009	-0.235508
H	 1.0801224352	 1.8703722217	 0.0036001	 0.101407
H	-0.467042136	 1.9587325611	-0.8627653689	 0.129902
H	-0.4529976239	 1.9504522447	 0.8953341497	 0.129882
H	 0.4649196479	-0.4024866046	-0.8760691595	 0.115002
H	 0.4785098059	-0.410742423	 0.8716637852	 0.115
H	 0.3671358041	-2.9063146577	-0.0117379043	 0.129885
H	-0.8911360928	-5.0612816093	-0.0111718031	 0.266584
H	-3.3893705089	-4.8152636986	 0.0091135408	 0.127834
H	-3.9013718916	-2.1262490124	 0.0242249068	 0.120752
47.4403	77.5406	147.0751	165.3367	207.2785	284.4052	362.3161	499.2408	515.7592	547.5162	643.659	673.2779	704.22	710.6844	783.1657	825.045	879.1846	900.469	907.7456	990.133	1018.7095	1070.1659	1087.9824	1098.9985	1122.988	1160.8047	1267.9704	1277.6422	1314.3713	1377.7815	1409.6223	1413.785	1455.763	1461.2066	1489.7755	1497.1098	1531.4781	1586.4853	1760.4051	3018.2505	3047.9497	3049.692	3119.5517	3128.2531	3262.0164	3266.8845	3282.1128	3676.3387
CCC(=O)C1=CNC=C1	CCC(=O)c1c[nH]cc1	
InChI=1S/C7H9NO/c1-2-7(9)6-3-4-8-5-6/h3-5,8H,2H2,1H3	InChI=1S/C7H9NO/c1-2-7(9)6-3-4-8-5-6/h3-5,8H,2H2,1H3
