16
gdb 18358	3.43844	2.24475	1.65737	2.532	66.62	-0.2365	0.006	0.2425	800.5655	0.131059	-383.691229	-383.684357	-383.683413	-383.72209	26.48	
O	-0.130016742	 1.4391875244	 0.1063740482	-0.417056
C	 0.02331323	 0.038308549	 0.0224265764	 0.059985
C	 0.5575450255	-0.5722205787	 1.370335366	-0.279349
C	-0.7089874643	-0.7040182403	 2.2173785812	-0.19857
C	-1.7452179006	-0.7867011924	 1.3938956993	 0.204823
C	-3.1274424297	-0.2863687873	 1.0580472052	-0.155883
O	-2.6103066582	 0.1610365997	-0.2341643329	-0.296851
C	-1.3833830695	-0.6067866334	-0.0415309684	 0.123292
H	 0.7458606689	 1.8241935172	 0.2092956788	 0.28366
H	 0.6581751545	-0.240201947	-0.8316092492	 0.059356
H	 1.0656849761	-1.5307815851	 1.1959305901	 0.108452
H	 1.295292277	 0.0948495426	 1.8321939183	 0.09848
H	-0.7182477038	-0.6095814947	 3.296326323	 0.100756
H	-3.9064341484	-1.0485318221	 0.9254046118	 0.107569
H	-3.5164955777	 0.5375544115	 1.6656102192	 0.124128
H	-1.3854961378	-1.4916886235	-0.6930514971	 0.077207
121.0011	209.5552	259.1971	275.436	335.4623	396.2669	490.3569	665.0708	742.2832	761.9491	832.7479	850.0408	867.2146	910.3485	923.0345	969.4901	980.0349	1004.6759	1046.2934	1092.2568	1118.678	1137.9786	1186.8797	1193.281	1237.8399	1264.9814	1286.0132	1325.4845	1351.1502	1358.0035	1429.7238	1469.9376	1506.8861	1748.2761	2985.5524	3005.2567	3013.417	3018.2904	3057.252	3073.4809	3206.3762	3820.8435
OC1CC=C2COC12	O[C@H]1C[CH][C]2CO[C@@H]12	
InChI=1S/C6H8O2/c7-5-2-1-4-3-8-6(4)5/h1,5-7H,2-3H2	InChI=1S/C6H8O2/c7-5-2-1-4-3-8-6(4)5/h1,5-7H,2-3H2/t5-,6+/m0/s1
