18
gdb 49761	3.71182	1.2738	1.04557	3.9028	80.72	-0.2115	-0.0038	0.2077	1145.9922	0.149675	-401.974486	-401.96692	-401.965976	-402.006983	28.987	
O	-0.0892111535	-0.0175713093	-0.1207631729	-0.332648
C	-0.0002879814	 1.1919619945	-0.0808329697	 0.136544
N	 1.1657014454	 1.885523829	 0.0611441754	-0.039007
C	 2.4341783867	 1.3010017687	 0.2222619728	 0.003919
C	 3.3808982341	 2.2081428027	 0.4779401639	-0.174437
C	 2.7927175949	 3.5973976989	 0.5287197542	-0.072315
C	 3.0016762815	 4.4961763234	-0.7291791667	-0.225572
C	 1.6195066919	 4.0330800653	-1.2769943835	-0.230591
C	 1.3124112429	 3.3411826377	 0.0842275524	-0.012274
H	-0.8719694496	 1.8708108234	-0.1577158657	 0.071546
H	 2.5023855108	 0.2266785295	 0.1374639574	 0.154112
H	 4.4247870809	 1.9831409614	 0.6463402513	 0.108291
H	 2.9658590623	 4.0919072697	 1.4902097584	 0.082816
H	 3.031436576	 5.5610176355	-0.4840484015	 0.104765
H	 3.8703715704	 4.257338196	-1.3463002152	 0.1065
H	 0.9273499533	 4.8260974822	-1.5686039076	 0.107999
H	 1.6887845003	 3.3131926646	-2.0951643431	 0.117451
H	 0.5185540231	 3.8068292769	 0.67043002	 0.092899
68.8064	118.5219	214.8914	248.5374	320.9256	380.5032	472.0412	562.8548	697.2111	712.0096	759.7157	775.6633	796.886	867.8908	885.5735	907.8203	948.5335	959.4298	979.1927	1021.3435	1034.3391	1060.3141	1103.6557	1135.6298	1188.774	1221.7972	1244.4132	1250.3219	1272.2094	1276.482	1300.0396	1323.2372	1339.721	1437.0005	1438.4854	1472.3001	1493.4602	1667.4662	1787.578	2942.047	3044.0977	3063.1679	3071.1866	3095.9659	3111.2175	3131.4265	3229.6607	3265.3794
O=CN1C=CC2CCC12	O=CN1C=C[C@H]2CC[C@@H]12	
InChI=1S/C7H9NO/c9-5-8-4-3-6-1-2-7(6)8/h3-7H,1-2H2	InChI=1S/C7H9NO/c9-5-8-4-3-6-1-2-7(6)8/h3-7H,1-2H2/t6-,7-/m1/s1
