14
gdb 124195	4.46396	0.7953	0.74474	2.9397	71.35	-0.2645	-0.0711	0.1935	1508.6604	0.099029	-432.788805	-432.780123	-432.779179	-432.825138	28.911	
C	-0.0022331947	 1.4884540591	-0.0525263508	-0.496613
C	 0.0022411784	 0.0335992083	-0.0180213892	 0.070835
C	 0.0091516261	-1.1687750392	 0.0084811775	 0.066621
C	 0.003347463	-2.628769497	 0.0412489699	-0.435629
C	-1.3830759787	-3.1971586883	 0.0587840814	 0.423887
N	-1.8924421597	-3.8887822435	 1.0357815854	-0.140786
O	-3.1439827351	-4.1968949617	 0.6232463169	-0.139129
N	-3.3433773148	-3.6535872501	-0.6457282789	 0.049757
N	-2.2902920311	-3.0575477822	-0.9790036449	-0.191193
H	 1.0170566925	 1.8871060145	-0.0100658918	 0.153417
H	-0.467732697	 1.8604472098	-0.9714125409	 0.155992
H	-0.557767617	 1.9032624313	 0.7952770104	 0.154396
H	 0.5285939858	-3.0289203116	-0.8353890179	 0.162497
H	 0.5285259121	-3.0028909496	 0.9262210229	 0.165947
16.3984	40.1008	66.9126	197.9962	221.1317	309.6556	339.2512	374.5296	451.2073	667.4235	686.3316	696.8237	763.2501	816.7897	927.2819	964.6074	1053.0155	1053.2462	1061.7164	1091.2938	1169.067	1208.4611	1320.786	1342.9539	1414.9811	1457.491	1476.3608	1477.7929	1486.4653	1597.9686	2382.6513	3031.2627	3031.8708	3081.3131	3094.6485	3095.4958
CC#CCC1=NON=N1	CC#CCc1nonn1	
InChI=1S/C5H5N3O/c1-2-3-4-5-6-8-9-7-5/h4H2,1H3	InChI=1S/C5H5N3O/c1-2-3-4-5-6-8-9-7-5/h4H2,1H3
