17
gdb 127872	2.44751	1.56853	0.96737	0.8383	82.85	-0.2267	-0.0551	0.1716	1191.3075	0.135227	-417.984961	-417.976326	-417.975382	-418.018507	31.377	
C	-0.1345475824	 1.4023695031	 0.0133866077	-0.330839
N	-0.1041550725	-0.0499373648	-0.043071508	-0.299192
C	 0.5731002744	-0.6341001215	-0.9655387671	 0.211186
C	 1.3586004168	 0.0209733165	-2.0216984473	-0.026973
N	 2.0423674325	-0.5453936078	-2.9529455019	-0.070327
O	 2.0505816474	-1.9291049755	-2.9788944965	-0.242584
C	 1.3543146406	-2.6231376688	-2.0443976992	 0.020725
C	 0.624541862	-2.0867003124	-1.051189469	 0.166594
C	-0.1185579807	-2.9215221064	-0.0550313104	-0.478824
H	 0.863000733	 1.8422119036	 0.1602628827	 0.119167
H	-0.5644996739	 1.8532544113	-0.8932389728	 0.119197
H	-0.7556494725	 1.7100464883	 0.8581702452	 0.126388
H	 1.4042436858	 1.1043032643	-2.0713539568	 0.13827
H	 1.4708762974	-3.6877240486	-2.2136214375	 0.139356
H	 0.0156876682	-3.9893545464	-0.2462002328	 0.115349
H	 0.2196121463	-2.6934011306	 0.9608955688	 0.146278
H	-1.1869606825	-2.6839753844	-0.0803009954	 0.146229
79.2139	111.8195	167.8622	197.9365	209.6632	294.4573	302.2624	453.2229	486.0738	492.4843	516.1461	609.2998	753.1819	756.9294	857.8032	873.3312	893.7026	947.5001	1013.6712	1051.7181	1064.9637	1094.6984	1143.5688	1158.3734	1180.5759	1309.8559	1345.5337	1415.015	1428.0677	1433.8262	1463.8945	1482.6336	1490.7725	1508.6908	1624.7151	1675.5454	1700.4645	2980.8116	3031.4557	3039.8992	3097.7282	3100.9001	3123.1305	3190.0218	3204.512
CN=C1C=NOC=C1C	CN=c1cnocc1C	
InChI=1S/C6H8N2O/c1-5-4-9-8-3-6(5)7-2/h3-4H,1-2H3	InChI=1S/C6H8N2O/c1-5-4-9-8-3-6(5)7-2/h3-4H,1-2H3
