18
gdb 38105	2.6034	2.24211	1.65246	1.6195	80.35	-0.2072	0.005	0.2123	871.5713	0.151236	-364.757139	-364.750835	-364.749891	-364.787197	27.646	
C	 0.0049339158	 1.5129843804	-0.0040159398	-0.226543
C	 1.5339978973	 1.7235908092	-0.0159941969	-0.102058
C	 1.9371537319	 0.6647150949	 1.0449921747	-0.076793
C	 1.0317729642	-0.3241369065	 1.0813465887	-0.183507
C	 0.0655873805	-0.0118086366	-0.0357107052	 0.263046
N	-0.8822558505	-0.6823539328	-0.9207054937	-0.437577
C	 0.5571380594	-0.5726763523	-1.3234635038	-0.034244
C	 1.3267838456	 0.4027356002	-2.1476784928	-0.119793
C	 1.93430203	 1.3887470787	-1.4631816533	-0.048913
H	-0.4584360496	 1.8591459488	 0.9259777185	 0.09079
H	-0.5061268138	 1.9464555834	-0.8629255617	 0.106949
H	 1.871052011	 2.7277249482	 0.2490548037	 0.063649
H	 2.8429737898	 0.7275261778	 1.6349694488	 0.098774
H	 1.0598239701	-1.2234849494	 1.6837064047	 0.100374
H	-1.0522407114	-1.6519019515	-0.6581609198	 0.231325
H	 1.08748133	-1.5223785762	-1.2242963848	 0.094093
H	 1.5588942286	 0.2077598871	-3.1919400679	 0.086604
H	 2.6549130711	 2.0373185665	-1.9540156892	 0.093826
251.372	309.3556	363.5172	437.3556	457.2608	495.2984	562.9314	614.9304	678.8459	708.0871	727.235	792.2245	846.1988	848.6516	871.2191	891.5542	916.8165	945.1061	967.6321	982.0255	990.1273	1044.3909	1058.1313	1081.8846	1117.3485	1144.0544	1179.7569	1194.4226	1230.518	1253.8072	1290.559	1307.6704	1328.0886	1360.0494	1384.8943	1450.136	1494.0698	1610.8461	1640.5854	3048.444	3068.5419	3085.0619	3139.3498	3143.3315	3171.0378	3197.4735	3222.3854	3480.3387
C1C2C=CC11NC1C=C2	C1[C@H]2C=C[C@]31N[C@H]3[CH][CH]2	
InChI=1S/C8H9N/c1-2-7-8(9-7)4-3-6(1)5-8/h1-4,6-7,9H,5H2	InChI=1S/C8H9N/c1-2-7-8(9-7)4-3-6(1)5-8/h1-4,6-7,9H,5H2/t6-,7+,8-/m1/s1
