17
gdb 87087	3.83136	0.7112	0.66432	4.1278	84.32	-0.2584	-0.0553	0.2031	1678.4276	0.132553	-421.788494	-421.7785	-421.777555	-421.824251	34.8	
C	-0.0661195258	 1.5681238241	-0.0428845895	-0.458923
C	-0.019210393	 0.0478652673	-0.009697503	 0.10049
C	 1.3363687481	-0.6496597127	-0.2129098896	-0.3529
C	 0.7075222798	-0.6437423689	 1.1446468103	 0.089756
O	 1.203143042	 0.1932164162	 2.1409772476	-0.418506
C	-1.1676217023	-0.6323457492	-0.5244051664	 0.044415
C	-2.1372046626	-1.2136048023	-0.9582122782	 0.060508
C	-3.2993930116	-1.8741230825	-1.480337435	 0.010817
O	-3.4452084855	-3.0757103921	-1.5365311555	-0.238904
H	 0.8077119599	 1.9836754412	 0.4605893007	 0.135609
H	-0.0907649177	 1.9293310585	-1.0750173977	 0.127053
H	-0.9592632016	 1.9360857473	 0.4699589382	 0.133911
H	 1.356129207	-1.572265573	-0.7802537803	 0.136229
H	 2.1767472196	 0.0179244999	-0.3718515405	 0.126342
H	 0.2597844987	-1.5705651753	 1.4986826818	 0.113862
H	 2.0657242494	-0.1399057725	 2.4103730314	 0.295882
H	-4.0863407245	-1.181140366	-1.8435324143	 0.09436
56.5431	74.6074	98.5504	171.6636	199.3322	217.9691	238.7731	263.8105	309.0826	387.3902	467.332	519.3336	559.431	601.6952	707.3398	789.0619	837.9625	916.5638	958.0205	1018.6685	1020.4126	1051.9467	1088.2885	1104.7519	1125.2184	1186.0138	1275.2996	1295.6954	1330.2919	1408.748	1420.3121	1424.551	1475.8403	1489.0368	1500.3818	1758.2955	2309.4349	2910.3252	3049.5662	3114.8961	3123.3787	3138.9546	3146.4429	3236.7221	3805.9658
CC1(CC1O)C#CC=O	C[C@]1(C[C@H]1O)C#CC=O	
InChI=1S/C7H8O2/c1-7(3-2-4-8)5-6(7)9/h4,6,9H,5H2,1H3	InChI=1S/C7H8O2/c1-7(3-2-4-8)5-6(7)9/h4,6,9H,5H2,1H3/t6-,7-/m1/s1
