19
gdb 119753	5.13812	0.74321	0.68703	5.5558	80.14	-0.2628	-0.0368	0.226	1654.7291	0.159341	-423.087966	-423.079011	-423.078067	-423.122708	32.327	
C	-0.0197142023	 1.5650582778	-0.102342359	-0.380804
C	-0.0043717342	 0.0350876585	-0.1213674546	-0.168275
C	-1.4047289506	-0.5682966994	 0.1189474897	-0.303306
C	-1.4179167793	-2.0632824649	 0.1265510564	 0.321984
C	-1.6660626985	-2.9073820775	 1.1320752605	-0.377334
C	-1.55894633	-4.3009567633	 0.6508464889	 0.459504
O	-1.7057230768	-5.3379370382	 1.2323069494	-0.351454
O	-1.2370586053	-4.2484741962	-0.689967678	-0.234308
C	-1.1276914191	-2.8919714926	-1.1008762516	-0.166127
H	 0.9821195274	 1.9710631344	-0.2700243739	 0.120873
H	-0.6773768477	 1.9651841397	-0.8817759699	 0.119002
H	-0.3773523581	 1.9454492235	 0.8605816292	 0.121152
H	 0.3871666207	-0.3159650983	-1.0836516819	 0.104955
H	 0.6812324636	-0.3422923001	 0.6463875985	 0.11265
H	-1.8004603116	-0.1989763692	 1.0712475349	 0.116652
H	-2.0831077427	-0.204260406	-0.6657643805	 0.114631
H	-1.9187874611	-2.6738188248	 2.1562082114	 0.12535
H	-1.8463711375	-2.6967529721	-1.908138969	 0.131285
H	-0.1207305269	-2.7180634414	-1.5008316705	 0.133569
44.8624	82.676	108.8231	203.7587	246.7547	259.3865	302.0574	308.7414	481.7744	529.5369	655.6362	709.767	742.9392	748.3216	867.2851	875.2121	890.474	908.9959	930.3522	1010.6353	1039.6432	1063.1399	1104.0338	1113.7208	1142.725	1183.7542	1208.2123	1250.8358	1308.7417	1316.9832	1344.7787	1376.7321	1380.4349	1415.3767	1480.5877	1490.6079	1494.2567	1499.986	1510.2991	1696.3979	1873.1137	3009.4834	3019.2482	3031.5	3034.424	3051.8079	3058.6201	3078.0508	3102.9912	3109.526	3244.7154
CCCC1=CC(=O)OC1	CCCC1=CC(=O)OC1	
InChI=1S/C7H10O2/c1-2-3-6-4-7(8)9-5-6/h4H,2-3,5H2,1H3	InChI=1S/C7H10O2/c1-2-3-6-4-7(8)9-5-6/h4H,2-3,5H2,1H3
