16
gdb 87337	2.4193	1.27631	0.96312	2.2294	70.6	-0.2725	-0.0431	0.2294	1212.8887	0.121096	-437.883241	-437.873925	-437.872981	-437.918072	32.519	
C	 0.5847998151	 1.4427810668	 0.2288569206	-0.447856
C	 0.2277507626	-0.0187919706	 0.2097020193	 0.05415
O	 1.2889011591	-0.9772886334	 0.221618323	-0.259012
C	 0.4286907114	-0.9216012765	 1.3734860817	 0.203615
C	 1.0646696698	-0.4343204375	 2.678166042	-0.392026
C	 2.5747901874	-0.2802372704	 2.5343670326	 0.178137
O	 3.1515943751	 0.7659120159	 2.6685969099	-0.234778
C	-0.4676090403	-2.0574131236	 1.5034508433	 0.253244
N	-1.1900048564	-2.9494318072	 1.639668323	-0.326282
H	 1.373410729	 1.6682545118	 0.9485221882	 0.161197
H	 0.9287437605	 1.7479807526	-0.7643550569	 0.146539
H	-0.3015966984	 2.0376893402	 0.4724401448	 0.137184
H	-0.5833982432	-0.2939745302	-0.4653039732	 0.120039
H	 0.6391272641	 0.5210208644	 2.9942337042	 0.145144
H	 0.8779960577	-1.1702047463	 3.4680427934	 0.151372
H	 3.1178410863	-1.2207589859	 2.3095577341	 0.109332
56.9844	77.5133	149.1372	166.3617	185.736	224.9831	250.2325	368.7758	423.5155	466.9912	501.309	560.1353	600.6674	680.0041	796.021	852.7442	892.8147	976.4219	993.4983	1054.095	1067.0258	1130.0288	1153.8754	1201.6304	1225.7031	1311.2871	1331.8849	1414.5596	1423.4539	1442.778	1471.3398	1493.761	1503.3402	1834.5011	2356.1867	2928.7101	3046.6043	3054.7544	3109.7185	3109.8946	3116.4379	3149.6269
CC1OC1(CC=O)C#N	C[C@H]1O[C@]1(CC=O)C#N	
InChI=1S/C6H7NO2/c1-5-6(4-7,9-5)2-3-8/h3,5H,2H2,1H3	InChI=1S/C6H7NO2/c1-5-6(4-7,9-5)2-3-8/h3,5H,2H2,1H3/t5-,6-/m1/s1
