21
gdb 60599	3.77245	0.99685	0.92176	1.6271	78.51	-0.2617	0.0787	0.3405	1351.6307	0.182658	-424.189524	-424.180656	-424.179711	-424.223544	33.615	
O	-0.4209430841	 1.2888133601	-0.0582057335	-0.43791
C	-0.0985174319	-0.0905888229	-0.018065712	 0.052781
C	 0.6620267753	-0.4819112039	-1.2794042015	 0.067876
C	 0.3861930698	 0.1494152371	-2.5724455372	-0.189633
O	 1.5286468592	 0.5417017113	-1.7917421617	-0.249133
C	 0.6778589284	-0.4738989403	 1.2445473659	 0.043062
C	 1.9879865545	 0.2860128324	 1.6066686603	-0.225464
C	 1.551184394	 0.2417587861	 3.0953841207	-0.210367
C	 0.1011894456	-0.0468621012	 2.622066734	-0.242759
H	 0.3563937417	 1.7256532304	-0.434341809	 0.292926
H	-1.0564605898	-0.6299638099	-0.010565872	 0.090186
H	 1.1037119945	-1.4787471514	-1.2741835471	 0.09634
H	 0.6216378445	-0.3799889244	-3.4934994909	 0.119888
H	-0.4012822397	 0.8960438749	-2.6374516118	 0.129741
H	 0.8609234006	-1.5554667877	 1.2258624343	 0.063701
H	 2.9393134538	-0.1749637033	 1.3316489721	 0.096114
H	 1.9724949914	 1.3088730592	 1.2202783079	 0.100078
H	 1.9858530568	-0.6147864638	 3.6191184275	 0.098589
H	 1.7182538938	 1.1372651871	 3.6984330259	 0.096137
H	-0.4782641659	 0.8739692573	 2.5179112297	 0.118374
H	-0.4869983225	-0.7804738569	 3.1791937784	 0.089474
71.6818	90.592	120.81	181.797	256.2455	295.6034	311.9362	373.9308	498.6382	564.7908	644.3328	701.4639	750.3035	791.859	793.5582	875.4394	897.1767	930.3942	935.9386	955.12	974.6318	1000.0513	1042.458	1055.333	1102.6797	1136.2025	1153.3739	1162.8955	1171.9556	1202.4851	1245.6956	1256.0056	1259.9124	1261.1145	1276.1954	1281.1858	1297.562	1338.6419	1372.4891	1420.0204	1440.1971	1472.2458	1486.1859	1508.2002	1516.7787	3010.4742	3030.1732	3054.4253	3058.5744	3063.4468	3098.8073	3099.4991	3112.2637	3113.4367	3123.7705	3195.1126	3741.5985
OC(C1CO1)C1CCC1	O[C@@H]([C@H]1CO1)C1CCC1	
InChI=1S/C7H12O2/c8-7(6-4-9-6)5-2-1-3-5/h5-8H,1-4H2	InChI=1S/C7H12O2/c8-7(6-4-9-6)5-2-1-3-5/h5-8H,1-4H2/t6-,7-/m1/s1
