21
gdb 120703	3.1608	0.85227	0.76258	2.6709	81.64	-0.2233	0.0156	0.2389	1589.7987	0.181541	-420.415984	-420.405636	-420.404692	-420.452081	37.081	
C	 0.3326453163	 1.3750791745	-0.848667385	-0.381818
C	 0.0886252457	-0.0445554649	-0.3303616211	-0.163624
C	-1.3638746014	-0.4872862684	-0.510850929	-0.135016
N	-1.5174225293	-1.8720126546	-0.0521052919	-0.090187
C	-1.8508802673	-2.1100267679	 1.3358217211	-0.240665
C	-2.8458689651	-2.417832188	 0.261974908	-0.115968
C	-4.087128627	-1.5676541619	 0.1968514711	 0.416675
N	-5.1362594331	-2.1654020295	-0.441364425	-0.535512
O	-4.1699590388	-0.4491434602	 0.6752599831	-0.372293
H	 1.374155546	 1.676675537	-0.7018018503	 0.111723
H	 0.1129662879	 1.4509031304	-1.9195870599	 0.113075
H	-0.3016602056	 2.102185943	-0.3299621165	 0.118814
H	 0.7446733359	-0.7565606361	-0.8441969696	 0.101701
H	 0.347797957	-0.0985835548	 0.7347062062	 0.096987
H	-2.0425440994	 0.2041583095	 0.0038337324	 0.12951
H	-1.6249760934	-0.4680470352	-1.5767880221	 0.093053
H	-1.3256515585	-2.9244371574	 1.8283038318	 0.11302
H	-2.0956437722	-1.2517900944	 1.9590536516	 0.135945
H	-2.972021173	-3.4502644427	-0.060420624	 0.08093
H	-5.040882001	-3.0365683129	-0.9322239199	 0.261351
H	-5.9811737937	-1.6315339255	-0.5628900611	 0.262298
54.5942	77.7881	92.9784	124.9365	182.1981	225.3357	240.5405	246.6018	348.1353	376.6734	419.2653	468.4066	585.6985	637.4118	754.7215	760.9968	778.9841	828.295	888.0957	910.7191	923.0826	1006.9114	1034.6464	1056.3257	1088.787	1109.394	1123.3951	1135.3511	1142.0129	1205.8736	1281.8457	1290.5069	1320.4376	1334.7153	1337.0295	1405.8092	1414.0676	1428.6521	1487.906	1493.4936	1500.2448	1505.9191	1521.5044	1615.0524	1778.7363	3016.0073	3027.957	3031.6789	3051.3651	3072.1601	3095.7461	3098.4711	3104.546	3110.576	3187.9514	3605.1932	3741.7673
CCCN1CC1C(N)=O	CCCN1C[C@H]1C(=O)N	
InChI=1S/C6H12N2O/c1-2-3-8-4-5(8)6(7)9/h5H,2-4H2,1H3,(H2,7,9)	InChI=1S/C6H12N2O/c1-2-3-8-4-5(8)6(7)9/h5H,2-4H2,1H3,(H2,7,9)/t5-,8?/m0/s1
