16
gdb 87539	2.65054	1.55853	1.15556	1.5178	70.57	-0.246	-0.0376	0.2084	1066.5789	0.122909	-437.826882	-437.818831	-437.817887	-437.859643	29.872	
C	-0.0162905884	 1.5689434143	-0.0429842952	-0.394374
C	-0.0460479405	 0.0670086952	 0.0879615133	-0.064552
N	 1.2168109678	-0.6522814667	-0.1552521682	-0.391883
C	 0.6451934196	-0.6445215692	 1.1867524486	 0.246927
C	 1.3281032054	-0.1781357626	 2.4680969758	-0.09427
O	 0.2810287395	-0.0926106085	 3.4319952258	-0.229176
C	 0.8836888056	-1.3852582768	 3.2166714635	-0.115157
C	 0.2449287491	-1.9224095333	 1.9287973558	 0.354623
O	-0.1896357172	-2.9762843734	 1.5663241338	-0.314306
H	 0.935606967	 1.9694560376	 0.3152036005	 0.126414
H	-0.1355802341	 1.8664474387	-1.0898229222	 0.128287
H	-0.8269873508	 2.0221251345	 0.5361003825	 0.13122
H	-0.9565014542	-0.4179137969	-0.262898727	 0.105503
H	 1.0445018237	-1.5591307571	-0.5879285138	 0.248687
H	 2.2275369061	 0.4070296146	 2.6072353091	 0.133835
H	 1.3131782914	-1.8974093204	 4.0686631578	 0.128221
105.2368	134.204	169.9859	186.6813	251.3334	285.1377	431.7216	450.48	556.1239	634.7844	687.5927	784.4051	814.6381	849.0189	856.7078	887.4584	923.0586	937.2857	999.8738	1034.5172	1055.8353	1069.7715	1078.4474	1124.8453	1202.253	1218.2176	1233.7418	1243.2718	1328.9104	1363.7989	1413.3828	1472.9	1488.3531	1505.1816	1888.4981	3040.3579	3106.8057	3111.9156	3129.5107	3201.5883	3218.415	3474.4481
CC1NC11C2OC2C1=O	C[C@H]1N[C@]21[C@H]1O[C@H]1C2=O	
InChI=1S/C6H7NO2/c1-2-6(7-2)4(8)3-5(6)9-3/h2-3,5,7H,1H3	InChI=1S/C6H7NO2/c1-2-6(7-2)4(8)3-5(6)9-3/h2-3,5,7H,1H3/t2-,3+,5+,6+/m1/s1
