21
gdb 73816	2.67681	1.4616	1.04297	1.7584	87.96	-0.2015	0.0274	0.229	1216.8905	0.180781	-387.095249	-387.085794	-387.08485	-387.129498	35.402	
C	 0.0811854608	 1.5048750871	-0.100222317	-0.497655
C	-0.0100221115	 0.0144285582	-0.0508843172	 0.173539
C	-1.0781152231	-0.7781902537	 0.0943305352	 0.13969
C	-2.5160857939	-0.4014893292	 0.2523129783	-0.513314
C	-0.6258699024	-2.1959986386	 0.0782918805	 0.403719
C	-1.2036316864	-3.2913432987	 0.9382719733	-0.327723
C	-1.3795656864	-3.3304254342	-0.568369518	-0.327715
O	 0.7771131222	-2.1877199109	-0.0857221935	-0.314568
C	 1.2254906463	-0.8404240998	-0.1728993776	-0.170415
H	 0.7278272926	 1.8889308641	 0.6995510764	 0.128065
H	 0.5226107295	 1.8437173041	-1.0465953029	 0.128083
H	-0.895832539	 1.9828980686	 0.0022132659	 0.125766
H	-2.6554165889	 0.6817802032	 0.2413778841	 0.127353
H	-3.130155634	-0.8239876051	-0.5523581657	 0.131667
H	-2.9265687274	-0.7801624138	 1.1963365351	 0.131651
H	-0.4879222769	-3.9787772083	 1.374999313	 0.123319
H	-2.0676225997	-3.0771415545	 1.5586022606	 0.109188
H	-2.3644403579	-3.1430481648	-0.9831997677	 0.109187
H	-0.7795775613	-4.0435760062	-1.122415109	 0.123318
H	 1.7498176596	-0.680975609	-1.130054367	 0.098424
H	 1.9549900978	-0.6354273586	 0.628537733	 0.098421
57.1839	123.8937	157.1544	160.6404	219.6816	239.1466	280.7841	329.3779	421.1152	429.5639	486.1922	593.9531	633.2559	664.0226	762.2582	860.7597	864.1644	881.732	917.1389	966.0391	981.7711	985.7003	1048.2981	1058.713	1064.8866	1091.1075	1093.1005	1121.5226	1159.6336	1191.32	1198.5172	1210.5952	1314.7552	1383.404	1389.7902	1414.0057	1421.0788	1445.6953	1477.5239	1481.7747	1487.6556	1488.5287	1494.0677	1524.4574	1747.1052	2956.3983	2969.1722	3015.4066	3024.0723	3057.1776	3069.4426	3115.2185	3120.6167	3128.9237	3131.6107	3213.7186	3228.7512
CC1=C(C)C2(CC2)OC1	CC1=C(C)C2(CC2)OC1	
InChI=1S/C8H12O/c1-6-5-9-8(3-4-8)7(6)2/h3-5H2,1-2H3	InChI=1S/C8H12O/c1-6-5-9-8(3-4-8)7(6)2/h3-5H2,1-2H3
