18
gdb 41754	2.22849	2.16441	1.88755	2.228	74.46	-0.2371	-0.004	0.2331	873.6133	0.152078	-401.964507	-401.957824	-401.95688	-401.995263	27.47	
C	 0.0225917465	 1.5338347022	-0.1486054126	-0.218771
C	 1.4351058644	 2.1197550578	 0.1151532473	-0.211316
C	 2.461528731	 1.0029871993	 0.3986990222	-0.03279
C	 1.9237763655	 0.0856320845	 1.4808931361	-0.06335
C	 0.6963138913	-0.4024837638	 1.3063595953	-0.076263
C	-0.0160730661	 0.0116596265	 0.0440334108	 0.062677
O	 0.5711447932	-0.6579451601	-1.1144838208	-0.241208
C	 1.8819584914	-0.4592130381	-1.3912778082	 0.135624
N	 2.7721629824	 0.2384315935	-0.8239665797	-0.266423
H	-0.7094009941	 1.9764304152	 0.5345092592	 0.107337
H	-0.3181459987	 1.7571617724	-1.1642789177	 0.112442
H	 1.7800057338	 2.6985268998	-0.7466392276	 0.11087
H	 1.4134631703	 2.8005922346	 0.9723628135	 0.100697
H	 3.4004944358	 1.4595209574	 0.7217684645	 0.073472
H	 2.5429034242	-0.1705314485	 2.3349943559	 0.100783
H	 0.2216629488	-1.0910585509	 1.9969773248	 0.099323
H	-1.0473574253	-0.3445848645	 0.0251747019	 0.086671
H	 2.1410464358	-1.0418314872	-2.2757701249	 0.120226
130.3041	277.7694	315.6336	333.8422	345.7129	536.713	571.9927	581.6873	652.2532	734.9166	764.9702	797.8531	800.5077	863.9685	915.3869	955.0998	966.0726	977.4619	979.4472	994.9878	1037.7597	1085.4862	1091.4819	1148.5572	1162.232	1215.1861	1266.5909	1281.2307	1334.2617	1348.3451	1362.9871	1380.0307	1388.3082	1402.2461	1423.5047	1473.9328	1495.4415	1699.3386	1722.1991	3040.8593	3051.9397	3068.3045	3079.1718	3097.9151	3100.438	3135.9112	3169.5728	3194.683
C1CC2C=CC1OC=N2	C1C[C@H]2C=C[C@@H]1OC=N2	
InChI=1S/C7H9NO/c1-3-7-4-2-6(1)8-5-9-7/h1,3,5-7H,2,4H2	InChI=1S/C7H9NO/c1-3-7-4-2-6(1)8-5-9-7/h1,3,5-7H,2,4H2/t6-,7+/m1/s1
