19
gdb 80659	2.53392	1.87915	1.3381	2.6187	76.19	-0.2264	0.0193	0.2457	1000.4635	0.16145	-419.186459	-419.178925	-419.17798	-419.218286	30.297	
C	-0.3941343772	 1.4326206458	 0.0615549406	-0.399226
C	 0.0633678491	-0.0227478561	-0.0276112425	-0.048549
N	 0.7408326582	-0.3014849301	-1.3120808114	-0.127538
C	 1.2359065928	-1.7276195172	-1.2513178048	-0.197388
C	 2.4474872566	-1.2164672627	-0.4577025386	 0.104807
C	 2.189453879	 0.1157344529	-1.1772980166	-0.204246
O	 2.0921868513	-1.081894653	 0.9279955941	-0.262941
C	 0.9158901804	-0.4288241971	 1.1901787184	 0.387116
N	 0.5351170957	-0.1909662021	 2.3718053589	-0.528501
H	 0.4535731661	 2.1231579017	 0.0098320926	 0.115258
H	-1.0697760791	 1.6556391926	-0.7678015974	 0.122286
H	-0.9047021056	 1.5995029549	 1.0112234689	 0.149355
H	-0.8296284511	-0.6591744474	-0.0048257044	 0.113052
H	 0.5697900238	-2.4401601195	-0.7573569911	 0.117017
H	 1.4889562209	-2.0825553076	-2.254068397	 0.114959
H	 3.4166683571	-1.7184835772	-0.4782299617	 0.087534
H	 2.65345219	 0.1778311557	-2.1648607932	 0.117066
H	 2.3761866351	 1.0360919416	-0.619131308	 0.121078
H	 1.217199997	-0.5458655352	 3.045552363	 0.218861
83.7715	217.5532	243.6244	276.56	401.9121	408.1423	436.8019	479.8608	502.1639	592.9218	657.3518	760.983	809.44	838.6268	899.6827	902.9416	918.0065	924.0418	947.4287	1007.6808	1041.9133	1047.8794	1090.3573	1105.6374	1125.669	1161.1008	1162.7624	1250.3246	1256.0306	1258.5659	1281.0547	1307.9039	1325.5378	1350.9281	1392.9482	1402.2903	1481.6367	1492.6736	1495.74	1511.0834	1750.3278	3034.409	3049.4817	3054.2853	3064.7246	3095.4707	3115.6312	3118.347	3125.4983	3149.6334	3459.1716
CC1N2CC(C2)OC1=N	C[C@H]1N2C[C@@H](C2)O[C]1[NH]	
InChI=1S/C6H10N2O/c1-4-6(7)9-5-2-8(4)3-5/h4-5,7H,2-3H2,1H3	InChI=1S/C6H10N2O/c1-4-6(7)9-5-2-8(4)3-5/h4-5,7H,2-3H2,1H3/t4-/m1/s1
