17
gdb 26970	2.98783	1.41484	1.01426	2.4542	74.38	-0.1948	0.0457	0.2405	1148.2016	0.137724	-418.027585	-418.019547	-418.018603	-418.060533	30.616	
O	-0.6515752311	 1.1373734082	-0.1137350027	-0.435631
C	-0.1788920796	-0.1311550416	-0.115485188	 0.30786
C	 0.2685524077	-0.9791887557	-1.0979960315	 0.146748
N	 0.6416378743	-2.1821242731	-0.5144045257	-0.305841
C	 0.4175984582	-2.0531685467	 0.7660615084	-0.008979
N	-0.0897422068	-0.8115527843	 1.069230965	-0.296675
C	 0.3792528527	-0.6951239295	-2.545359337	-0.138906
C	-0.4465692436	-1.4740883307	-3.5368366376	-0.240877
C	-0.7752739879	-0.0271518614	-3.2780673726	-0.289554
H	-0.6261991763	 1.4506311626	-1.0251065723	 0.311805
H	 0.5908040311	-2.7996506756	 1.52613692	 0.12573
H	-0.3517161999	-0.4507729667	 1.9712752687	 0.270143
H	 1.370256981	-0.4148386732	-2.8972414102	 0.095642
H	 0.009780822	-1.7329240542	-4.485457879	 0.11148
H	-1.1177369746	-2.2253201105	-3.138088727	 0.124332
H	-1.6844881902	 0.181355113	-2.722778404	 0.111869
H	-0.543565007	 0.7008016093	-4.0479575044	 0.110852
56.8713	148.8432	156.6558	283.8088	322.04	335.7707	391.1993	483.1329	505.064	620.9663	671.8647	715.1876	729.6676	769.7124	807.2711	833.1374	911.0502	923.7085	954.9661	1056.33	1075.0169	1083.8857	1094.619	1129.1501	1135.3305	1198.5919	1203.5525	1216.1216	1280.976	1303.0141	1388.5683	1423.133	1468.4494	1500.9451	1507.8958	1556.5846	1650.9024	3113.9587	3126.0368	3143.9087	3208.5868	3233.2628	3253.893	3665.9794	3814.1677
OC1=C(N=CN1)C1CC1	Oc1c(nc[nH]1)C1CC1	
InChI=1S/C6H8N2O/c9-6-5(4-1-2-4)7-3-8-6/h3-4,9H,1-2H2,(H,7,8)	InChI=1S/C6H8N2O/c9-6-5(4-1-2-4)7-3-8-6/h3-4,9H,1-2H2,(H,7,8)
