19
gdb 26203	3.93475	1.05833	0.85467	1.8411	81.58	-0.1647	0.0498	0.2145	1362.159	0.159243	-419.217435	-419.207956	-419.207012	-419.25163	35.04	
C	-0.0419927189	 1.3924094432	 0.067101614	-0.327544
N	-0.2810886948	-0.0359933852	 0.0167590895	-0.162267
C	 0.2245232698	-0.7943552471	 1.1533880209	-0.341516
C	-0.1682420701	-0.6094227104	-1.2342405333	 0.482949
C	 0.0201451142	-0.0801961367	-2.4820567554	-0.39173
C	-0.0455604867	-1.1929619019	-3.3942595643	 0.240922
N	 0.0171237127	-1.087101076	-4.791795639	-0.606987
C	-0.2473193381	-2.3035187675	-2.6375955351	-0.119501
O	-0.3328911167	-1.9479438083	-1.2996543948	-0.20737
H	 1.0106874856	 1.6622874823	-0.124924555	 0.107279
H	-0.6668583548	 1.8977183339	-0.6744198255	 0.13641
H	-0.3167976805	 1.7649035765	 1.0574439987	 0.123521
H	-0.1945727963	-0.3772174655	 2.0735956181	 0.120469
H	-0.0888161553	-1.8344500191	 1.0684076889	 0.152629
H	 1.3245718975	-0.7655702991	 1.2288853977	 0.107552
H	 0.1835915179	 0.953613832	-2.7369253976	 0.092381
H	 0.6919102553	-0.3963285842	-5.0954149281	 0.241085
H	 0.2249442873	-1.9695316359	-5.2415258582	 0.239769
H	-0.3501620282	-3.352785431	-2.8502432116	 0.11195
60.372	126.4337	178.0262	193.57	220.1874	234.712	273.9611	349.759	378.148	379.9559	526.3997	567.6442	571.4252	630.04	692.7582	709.0891	718.0089	776.2044	920.9926	996.4091	1010.046	1083.072	1097.8283	1127.4994	1132.8811	1173.7789	1177.802	1239.826	1280.4605	1301.997	1383.2891	1443.121	1458.5088	1474.3754	1484.797	1493.5302	1504.6419	1514.1531	1623.4216	1651.4963	1676.7796	2958.2727	2966.2612	3073.8361	3081.4483	3118.4243	3153.8961	3265.8193	3291.4997	3531.7996	3620.7405
CN(C)C1=CC(N)=CO1	CN(C)c1cc(N)co1	
InChI=1S/C6H10N2O/c1-8(2)6-3-5(7)4-9-6/h3-4H,7H2,1-2H3	InChI=1S/C6H10N2O/c1-8(2)6-3-5(7)4-9-6/h3-4H,7H2,1-2H3
