16
gdb 18435	2.99898	2.12744	1.63756	3.1716	68.58	-0.2531	0.0085	0.2616	834.9102	0.131217	-342.750549	-342.743253	-342.742308	-342.781867	27.489	
C	-0.4858454636	 1.4896049893	 0.003654386	-0.425239
C	-0.0086257536	 0.0501427749	-0.0104897192	 0.083834
C	 1.0494085567	-0.4776986871	-1.024353157	-0.29846
C	 1.7861061375	-1.0320863123	 0.1920797272	-0.020557
C	 2.1918253198	 0.0494214119	 1.123478634	-0.151317
C	 2.6089839638	 1.3499326633	 0.6622865099	 0.30632
N	 2.9939641157	 2.3817814241	 0.3069565174	-0.350285
N	 0.7937074836	-0.4587376019	 1.177887737	-0.16399
H	 0.3309355796	 2.2111043407	-0.0314747012	 0.157579
H	-1.1317583654	 1.6679368272	-0.8629325366	 0.122417
H	-1.0765923958	 1.6774491174	 0.9062138049	 0.131413
H	-0.8803491271	-0.6100751978	-0.0343464108	 0.101313
H	 0.6650666669	-1.2418071751	-1.7007514005	 0.118507
H	 1.6018378516	 0.2666992921	-1.6039877735	 0.13223
H	 2.1886795494	-2.0341228727	 0.2993831649	 0.111919
H	 2.732011121	-0.265180384	 2.0123702574	 0.144317
137.4592	154.4763	204.6935	238.1702	306.9582	397.3083	449.3102	570.9788	600.8014	707.3127	751.9843	760.4741	851.1303	870.3183	908.9129	963.6775	993.1456	1052.3748	1061.4153	1101.1307	1132.1587	1136.0257	1203.7887	1228.1694	1266.091	1296.2966	1339.7898	1386.2354	1399.7927	1414.848	1491.4591	1492.4246	1501.9306	2345.3638	3042.2327	3061.4964	3069.4939	3103.157	3131.3446	3152.0143	3152.5322	3168.8687
CC1CC2C(C#N)N12	C[C@H]1C[C@H]2[C@@H](C#N)N12	
InChI=1S/C6H8N2/c1-4-2-5-6(3-7)8(4)5/h4-6H,2H2,1H3	InChI=1S/C6H8N2/c1-4-2-5-6(3-7)8(4)5/h4-6H,2H2,1H3/t4-,5-,6+,8?/m0/s1
