15
gdb 130133	3.2527	1.40002	0.98033	3.5788	74.5	-0.1972	-0.026	0.1712	1125.9253	0.115688	-450.180258	-450.172394	-450.17145	-450.21217	30.863	
N	 0.0375414732	 1.3881109061	-0.1024545332	-0.578029
C	-0.0772740964	 0.0389692368	-0.0359198852	 0.278848
C	-1.2243372391	-0.7002551834	 0.0214632854	-0.298458
C	-1.1364068626	-2.1261738009	 0.0360130428	 0.404924
N	-2.3076606186	-2.8754667971	 0.148900982	-0.56847
N	-0.0100918855	-2.7886469758	 0.0024030836	-0.318601
N	 1.1147722404	-2.0154257406	-0.0115487421	-0.291979
C	 1.2254320289	-0.6571321182	-0.039327623	 0.405467
O	 2.3006122376	-0.0599997779	-0.0515401508	-0.42588
H	 0.9785328829	 1.7335028054	 0.0276998512	 0.276252
H	-0.734888173	 1.9833259353	 0.1396879628	 0.258988
H	-2.1999320823	-0.2260094462	 0.0649506239	 0.087373
H	-3.0843899332	-2.5155423079	-0.3879199829	 0.247651
H	-2.147145649	-3.8566235326	-0.0379600847	 0.253139
H	 1.9795234068	-2.537153083	-0.0090999398	 0.268773
132.4476	195.7154	292.9136	309.1456	328.9896	365.4114	377.0975	443.4425	474.6918	529.7654	556.5874	602.5704	633.0188	687.9236	735.4537	746.6551	789.2502	822.7267	860.7459	985.0695	1073.6865	1122.4381	1241.0839	1274.2733	1305.6664	1405.6616	1451.8212	1488.7483	1579.5337	1617.0436	1645.4415	1682.7864	1752.399	3169.5052	3549.8275	3567.2272	3615.4831	3651.9731	3717.0966
NC1=CC(N)=NNC1=O	Nc1cc(N)n[nH]c1=O	
InChI=1S/C4H6N4O/c5-2-1-3(6)7-8-4(2)9/h1H,(H,8,9)(H4,5,6,7)	InChI=1S/C4H6N4O/c5-2-1-3(6)7-8-4(2)9/h1H,(H,8,9)(H4,5,6,7)
