19
gdb 53390	2.89595	1.00198	0.81715	1.9508	85.2	-0.2377	0.0483	0.286	1460.1327	0.15754	-385.836871	-385.827435	-385.826491	-385.873097	33.724	
C	 0.1920752897	 1.5024677832	-0.4206692752	-0.499531
C	 0.1061373201	 0.0651067851	-0.2046730128	 0.087979
C	 0.0465342173	-1.1258011669	-0.0286356354	 0.055725
C	-0.0528600215	-2.5525476609	 0.1952697719	-0.257258
C	-0.0199476944	-3.1147260629	 1.6613050245	-0.230614
C	-1.1495834826	-4.1179998988	 1.2877482446	-0.324974
C	-1.4221607687	-3.2568123831	 0.0546291616	 0.458658
C	-2.679011964	-2.6809180132	-0.415530429	-0.262032
O	-1.9808234876	-3.6973619149	-1.1600617573	-0.271817
H	 1.1548143465	 1.8986289864	-0.0787214761	 0.148535
H	 0.0919299418	 1.7517197727	-1.4829541298	 0.149224
H	-0.5962330912	 2.0374233564	 0.1206289664	 0.145946
H	 0.6767228639	-3.0918441749	-0.4209249121	 0.109147
H	 0.9308625257	-3.5321404449	 1.9942486231	 0.109992
H	-0.3537516995	-2.3620279564	 2.3775214082	 0.116191
H	-0.7577253058	-5.0999554208	 1.0062557462	 0.117545
H	-1.965870521	-4.2528008802	 2.0001151353	 0.109266
H	-3.6207833692	-2.9975064975	 0.0310182527	 0.11252
H	-2.6761359795	-1.6908514684	-0.8675053466	 0.125499
15.8424	75.1781	85.0552	143.7498	239.2186	272.2083	322.9383	353.4827	380.9783	468.0098	517.4764	568.6456	687.3606	767.016	853.4172	877.7122	894.9048	912.8976	946.0971	974.2531	1052.1594	1053.8753	1067.5406	1094.5003	1129.3456	1149.4882	1163.1434	1192.9461	1212.4356	1230.6729	1255.4226	1266.0951	1354.1332	1414.9686	1429.5011	1477.906	1478.4036	1478.9878	1496.1911	1535.295	2365.1966	3025.5576	3034.9593	3061.9605	3082.7083	3084.8154	3085.5144	3086.1473	3115.9876	3142.6726	3177.3096
CC#CC1CCC11CO1	CC#C[C@H]1CC[C@]21CO2	
InChI=1S/C8H10O/c1-2-3-7-4-5-8(7)6-9-8/h7H,4-6H2,1H3	InChI=1S/C8H10O/c1-2-3-7-4-5-8(7)6-9-8/h7H,4-6H2,1H3/t7-,8+/m0/s1
