20
gdb 107153	4.32533	1.04204	0.97483	1.0633	80.59	-0.234	0.0846	0.3186	1285.1588	0.170376	-403.075394	-403.066732	-403.065788	-403.10878	33.183	
C	-0.295731714	 1.3222474196	-0.0973513203	-0.257643
O	 0.1546233846	-0.010908324	 0.0809887645	-0.280328
C	 0.7875859178	-0.5244365369	-1.0277696174	 0.454726
C	 0.0328032417	-1.0716299379	-2.206158445	-0.346213
C	 0.9184806033	-1.9979017101	-1.3843960123	-0.247813
C	 2.3658632285	-1.7588964474	-1.7553814963	 0.387371
C	 3.499656227	-2.6807449884	-1.5583795843	-0.316875
N	 3.0815538906	-2.2753477233	-2.9206992145	-0.365886
C	 2.2641096844	-0.2634380128	-1.3838755923	-0.377863
H	 0.5394587634	 2.011105337	-0.286855991	 0.114265
H	-1.0068311957	 1.3968399037	-0.9317801551	 0.112175
H	-0.7941961623	 1.6165028604	 0.8287566513	 0.127616
H	-1.0291683406	-1.2068024151	-2.0265925539	 0.115737
H	 0.2977233713	-0.8144652993	-3.2288729561	 0.112642
H	 0.5194738774	-2.866914436	-0.8746568592	 0.096153
H	 4.4684570658	-2.2987583451	-1.2462516592	 0.117754
H	 3.2851099639	-3.6936973659	-1.2251134052	 0.110972
H	 2.5443669057	-3.0233448635	-3.354335364	 0.228908
H	 2.4695867141	 0.4531800815	-2.1841911528	 0.102422
H	 2.8586056531	-0.0152793965	-0.5006065269	 0.11188
76.2505	97.5783	171.2424	217.4729	271.3725	306.094	383.6041	393.7978	426.0104	478.8553	570.2815	678.2507	772.7867	822.0996	854.5065	902.3205	909.8668	931.7152	960.3717	981.5178	995.3423	1007.1055	1049.1709	1068.9096	1088.7156	1102.0601	1129.8179	1142.2829	1180.2312	1196.9977	1217.505	1228.8541	1248.0707	1272.3893	1301.6157	1375.2985	1425.1295	1469.7585	1478.0175	1487.0483	1500.8787	1506.6095	1517.7971	2992.9792	3046.5785	3053.1472	3098.5332	3108.3228	3110.8912	3122.8116	3181.9901	3183.1519	3204.9363	3487.3173
COC12CC1C1(CN1)C2	CO[C@]12C[C@H]1[C@]1(CN1)C2	
InChI=1S/C7H11NO/c1-9-7-2-5(7)6(3-7)4-8-6/h5,8H,2-4H2,1H3	InChI=1S/C7H11NO/c1-9-7-2-5(7)6(3-7)4-8-6/h5,8H,2-4H2,1H3/t5-,6+,7-/m0/s1
