23
gdb 78747	2.77254	1.54282	1.19937	0.1536	89.01	-0.2449	0.0974	0.3424	1154.4058	0.207432	-351.15184	-351.143559	-351.142615	-351.183933	33.962	
C	-0.055841279	 1.4884267889	-0.0086022664	-0.407566
C	-0.0084985591	-0.0352159981	-0.0170307512	 0.010382
C	 0.7355602561	-0.60907553	-1.2268497871	-0.092905
C	 1.9691017724	-0.8926368857	-0.3810405271	-0.115571
C	 1.118493188	-0.6363365525	 0.8943876828	-0.049223
C	 0.728460513	-2.0280744143	 1.4080079069	-0.217867
C	 0.4885919154	-2.8424169779	 0.108609351	-0.289193
C	 1.2028238008	-2.0394366188	-0.986107362	 0.354188
C	 1.7592281543	-2.7798980754	-2.1796346173	-0.492312
H	 0.9413041392	 1.911822481	-0.1741244527	 0.113786
H	-0.71453939	 1.8704195251	-0.7968256913	 0.10893
H	-0.4280283013	 1.8654481746	 0.9505307251	 0.108451
H	-1.0143728688	-0.4363524909	 0.1686345128	 0.054586
H	 0.6852059759	-0.2127077067	-2.2368929278	 0.068562
H	 3.0143679087	-0.670866391	-0.5553575891	 0.074262
H	 1.5123315368	 0.041993736	 1.6531644483	 0.058915
H	 1.5543400552	-2.4616903994	 1.9836228175	 0.092451
H	-0.1499417208	-2.0010834386	 2.0616022296	 0.091041
H	 0.9091605114	-3.851094166	 0.1809304365	 0.090731
H	-0.5789317888	-2.9623087253	-0.1090947583	 0.096142
H	 0.9618894271	-3.2688219766	-2.7519393325	 0.115597
H	 2.2857488383	-2.1027356809	-2.860266198	 0.113593
H	 2.466476935	-3.5576900574	-1.8683910695	 0.11302
161.487	205.4441	220.4227	242.1245	253.1409	307.1177	337.7709	382.4199	465.152	563.1214	640.8449	740.5672	747.2428	826.3453	853.0438	854.1695	864.9032	903.1447	914.745	946.191	963.4753	996.2023	1022.583	1034.4668	1046.2667	1074.6599	1079.2565	1107.9002	1131.221	1151.959	1182.9704	1222.9661	1224.4007	1252.6615	1261.542	1283.5739	1288.8	1316.5149	1344.3984	1379.1102	1405.0341	1413.2006	1417.3047	1486.0934	1490.5396	1495.2051	1499.7107	1501.624	1508.0164	3001.4379	3019.4257	3022.2768	3029.4093	3037.6319	3063.2187	3077.3998	3083.038	3088.0618	3092.8958	3093.9323	3096.4715	3146.906	3188.758
CC1C2C3C1CCC23C	C[C@H]1[C@H]2[C@H]3[C@@H]1CC[C@@]23C	
InChI=1S/C9H14/c1-5-6-3-4-9(2)7(5)8(6)9/h5-8H,3-4H2,1-2H3	InChI=1S/C9H14/c1-5-6-3-4-9(2)7(5)8(6)9/h5-8H,3-4H2,1-2H3/t5-,6-,7+,8-,9+/m1/s1
