15
gdb 35013	2.95699	1.32655	1.10904	1.8735	80.9	-0.2333	0.0088	0.242	1108.17	0.109888	-383.370978	-383.362739	-383.361795	-383.403659	31.459	
C	 0.0442850786	-1.2134268943	 0.0065140396	-0.431276
C	 0.0394778447	-0.0111446997	 0.0308087468	 0.344508
C	 0.0277806934	 1.4204990383	 0.0663895775	-0.310109
C	 0.4415385424	 2.2330084036	 1.2860581809	-0.20091
C	 1.6452061811	 1.5769523869	 1.9471089464	-0.108286
O	 2.3768010723	 1.559932017	 0.6880782104	-0.315021
C	 1.3116889206	 2.2534780676	 0.0395194419	 0.293996
C	 1.598267576	 3.2415670045	-0.939300491	 0.225474
C	 1.8346325918	 4.0716642849	-1.7770649021	-0.392593
H	 0.0550294251	-2.274684474	-0.0261971731	 0.199205
H	-0.7759659674	 1.8972121029	-0.4890534225	 0.130986
H	-0.1910405778	 3.0027097044	 1.7059616519	 0.119563
H	 2.1503400061	 2.2239741167	 2.6708295859	 0.120997
H	 1.5071510781	 0.5718132065	 2.3566025662	 0.125506
H	 2.0487662649	 4.8037413646	-2.5161289087	 0.197961
100.7947	131.1947	164.9308	196.325	337.4829	353.8488	446.0821	486.5056	539.0121	568.0664	584.1919	599.8561	660.0864	691.6297	700.4537	785.0258	805.9334	883.326	962.2139	971.1377	982.1252	1011.7609	1061.5287	1098.0772	1147.1009	1166.1803	1236.8496	1308.5104	1335.458	1425.6593	1507.9537	2234.2912	2238.8588	3046.102	3101.945	3147.793	3212.6325	3500.4146	3503.9036
C#CC1C2COC12C#C	C#C[C@H]1[C@H]2CO[C@@]12C#C	
InChI=1S/C8H6O/c1-3-6-7-5-9-8(6,7)4-2/h1-2,6-7H,5H2	InChI=1S/C8H6O/c1-3-6-7-5-9-8(6,7)4-2/h1-2,6-7H,5H2/t6-,7+,8-/m0/s1
