17
gdb 30434	2.30836	1.51399	0.92563	1.869	74.92	-0.1731	0.0506	0.2237	1236.1163	0.133798	-455.156368	-455.146372	-455.145428	-455.192658	33.765	
C	-0.0564647152	 1.4048947114	 0.0391537093	-0.315391
N	-0.0063193225	-0.0441326995	-0.0062216641	-0.389703
C	-1.0947830753	-0.6862936606	 0.0218545028	 0.515576
O	-2.377822911	-0.1321184671	 0.0658405856	-0.263346
C	-3.2811081169	-1.1707025811	 0.0217896335	 0.36696
O	-4.5797081911	-0.8508804449	 0.0986877873	-0.421215
C	-2.6460119769	-2.343759922	-0.0311623713	-0.240672
N	-1.2669476962	-2.0498346977	 0.0113867679	-0.128217
C	-0.182835704	-2.9900949826	-0.1372286762	-0.342204
H	 0.947765114	 1.8013647176	-0.1332293127	 0.115375
H	-0.7240703293	 1.834489527	-0.7222908713	 0.104568
H	-0.3979435623	 1.7807289768	 1.0152041927	 0.109666
H	-4.6913238164	 0.0477245015	-0.2351412542	 0.312789
H	-3.026343953	-3.3479385161	-0.0659088249	 0.145411
H	-0.2823883053	-3.8082979106	 0.5836451926	 0.129245
H	-0.1447755558	-3.4137369806	-1.1492567387	 0.127692
H	 0.7456259473	-2.4507953216	 0.0535680516	 0.173466
36.326	63.4023	98.534	130.291	179.0586	181.9163	215.7039	277.061	306.6004	399.3502	572.0334	605.6668	635.1534	640.3258	682.4223	718.8362	837.2708	977.4504	1033.0926	1081.187	1095.5355	1124.2349	1156.4424	1171.0237	1175.5288	1240.7092	1349.7887	1360.2652	1429.8295	1448.085	1467.4027	1492.3738	1495.4068	1501.3204	1516.4962	1769.24	1822.2449	2980.2861	3014.3139	3022.4696	3074.4408	3093.5816	3152.0705	3305.9869	3799.8594
CN=C1OC(O)=CN1C	CN=c1oc(O)cn1C	
InChI=1S/C5H8N2O2/c1-6-5-7(2)3-4(8)9-5/h3,8H,1-2H3	InChI=1S/C5H8N2O2/c1-6-5-7(2)3-4(8)9-5/h3,8H,1-2H3
