17
gdb 98574	4.36906	1.02485	0.84626	0.9725	72.24	-0.2236	-0.0397	0.1839	1348.606	0.136905	-455.184189	-455.175413	-455.174469	-455.218466	30.717	
C	-0.049433871	 1.3640188554	-0.0247572957	-0.242403
O	-0.0370946706	-0.0698048146	-0.0551674627	-0.208267
C	-1.2360874407	-0.6448625474	-0.1324333455	 0.421351
O	-2.2891801138	-0.05151883	-0.1847154363	-0.384225
C	-1.166917335	-2.1411065881	-0.1318370009	 0.24952
N	-0.1198304044	-2.8397519008	 0.0964186113	-0.295516
C	-0.5620707028	-4.2451378255	 0.0059278513	-0.165539
C	-2.1177325922	-4.2056019106	-0.0064893563	-0.182068
N	-2.3442193551	-2.8124366791	-0.4017079133	-0.335199
H	 0.9959901121	 1.6644712572	 0.0345261498	 0.14164
H	-0.5147671726	 1.7631562864	-0.9295068013	 0.144205
H	-0.6037064337	 1.724822415	 0.8453851231	 0.143199
H	-0.1667320165	-4.6759202176	-0.9233508333	 0.119156
H	-0.1538049411	-4.8307055013	 0.8337507661	 0.116861
H	-2.5593808698	-4.9050707049	-0.7208123848	 0.115216
H	-2.5380970764	-4.4164183845	 0.9872585076	 0.105936
H	-3.2089970163	-2.3391897895	-0.1861321891	 0.256133
60.7904	107.9312	125.2684	155.8479	182.3388	230.8285	317.1148	384.0547	485.7187	562.9883	580.2132	733.5205	809.1318	817.8319	861.843	912.7431	970.4766	995.5072	1023.0981	1054.134	1105.8687	1177.8654	1187.638	1199.1474	1221.8182	1242.6934	1302.2862	1312.4964	1369.3268	1465.156	1482.0167	1487.1582	1490.8359	1495.6921	1529.6726	1691.0204	1795.82	2998.3012	3023.1287	3053.0804	3082.6451	3092.5445	3127.5857	3166.732	3622.3588
COC(=O)C1=NCCN1	COC(=O)[C]1[N]CCN1	
InChI=1S/C5H8N2O2/c1-9-5(8)4-6-2-3-7-4/h2-3H2,1H3,(H,6,7)	InChI=1S/C5H8N2O2/c1-9-5(8)4-6-2-3-7-4/h2-3H2,1H3,(H,6,7)
