21
gdb 92562	2.43761	1.75423	1.67324	1.3602	79.87	-0.2503	0.0693	0.3196	970.8146	0.186575	-387.098256	-387.090976	-387.090032	-387.129764	30.45	
O	 0.0075914638	 1.4169229873	-0.1638417354	-0.428635
C	 0.0400625478	-0.0053693479	-0.0308049419	 0.094147
C	 0.741101188	-0.5187206607	 1.2585573334	-0.238372
C	-0.3701547063	-0.98600652	 2.2309403534	-0.036264
C	-0.9274123659	 0.1619174759	 3.1031143457	-0.196784
C	-1.9013975251	 0.93965843	 2.1838825195	-0.234632
C	-2.3326203065	-0.0894489129	 1.1364308969	-0.030608
C	-1.3746034113	-0.5555622709	 0.0490731939	-0.042272
C	-1.5517559021	-1.3688281404	 1.3092268182	-0.086613
H	 0.9149820906	 1.7219462137	-0.2623801892	 0.278705
H	 0.5394222018	-0.4291223591	-0.914656107	 0.060614
H	 1.3749507659	-1.3730251087	 0.9966549696	 0.093244
H	 1.3933310243	 0.2477654836	 1.6922712774	 0.085266
H	-0.0255592627	-1.8209618051	 2.8459644286	 0.062739
H	-1.4838223212	-0.2685847215	 3.9435630231	 0.091088
H	-0.1374105314	 0.7912387819	 3.526503172	 0.086247
H	-2.7683515786	 1.3078907882	 2.740681934	 0.086056
H	-1.4161215152	 1.798519138	 1.7177063902	 0.125762
H	-3.3815254312	-0.1314763563	 0.8624431152	 0.077546
H	-1.8375541781	-0.876130009	-0.8781253672	 0.0774
H	-1.9973656864	-2.3560281762	 1.3260687096	 0.075367
83.5736	211.7171	310.1154	313.9693	356.9919	407.211	511.4507	575.8497	677.8944	682.1322	746.0729	762.3271	802.251	817.8288	850.8999	888.0542	922.2337	932.667	953.374	996.6705	997.8215	1023.3127	1034.6129	1046.5788	1095.0529	1099.095	1104.6643	1170.0417	1183.4355	1203.0098	1229.9004	1236.3679	1268.6068	1289.4359	1298.0435	1321.9807	1328.4384	1347.5588	1358.8885	1368.5699	1412.3247	1431.594	1475.8563	1489.8173	1508.3719	2977.8967	3031.764	3034.2942	3059.5229	3072.13	3073.7839	3081.7868	3122.0181	3155.4088	3163.6995	3181.797	3816.3123
OC1CC2CCC3C1C23	O[C@H]1C[C@H]2CC[C@H]3[C@@H]1[C@@H]23	
InChI=1S/C8H12O/c9-6-3-4-1-2-5-7(4)8(5)6/h4-9H,1-3H2	InChI=1S/C8H12O/c9-6-3-4-1-2-5-7(4)8(5)6/h4-9H,1-3H2/t4-,5-,6+,7+,8+/m1/s1
