20
gdb 92032	2.83702	1.59671	1.2129	1.3964	77.86	-0.2193	0.072	0.2913	1061.704	0.173203	-403.105651	-403.098032	-403.097087	-403.13728	31.405	
O	-0.1061975752	 1.4218990858	 0.1032798638	-0.436462
C	 0.0016280936	 0.0027261077	 0.0389681189	 0.12186
C	 0.7795537401	-0.5518461102	 1.2460813608	-0.294896
C	 0.7314857642	-2.0734682267	 1.2980906263	-0.003187
C	-0.0878368485	-2.7848393183	 2.3228590301	-0.251852
N	-0.5134979967	-2.7504498668	 0.929352288	-0.091381
C	-1.6363831842	-1.9495158068	 0.4947432472	 0.005969
C	-2.2076162126	-0.75256479	 1.2253463626	-0.308486
C	-1.4007673291	-0.5573661742	-0.0382422487	-0.014651
H	 0.7846426775	 1.7866690192	 0.074035885	 0.277793
H	 0.529770692	-0.2908102952	-0.8840054439	 0.06689
H	 1.8225442618	-0.2210649598	 1.1853263462	 0.092713
H	 0.3649685615	-0.1000564057	 2.1527184539	 0.113488
H	 1.6179603969	-2.5741888838	 0.9119907681	 0.088448
H	 0.2105641893	-3.7616477426	 2.6957583463	 0.112416
H	-0.6218616664	-2.1699396677	 3.0448710571	 0.109624
H	-2.3612088875	-2.5557952764	-0.0405360775	 0.096126
H	-3.2809241833	-0.6063308255	 1.1732046013	 0.111555
H	-1.7718009552	-0.4396719529	 2.1661646067	 0.114993
H	-1.9394452582	-0.2648346802	-0.9337081922	 0.089038
130.044	221.8513	247.9922	286.682	356.0802	388.1002	415.5551	481.9606	517.2569	569.9574	630.5115	729.0443	780.0694	823.1745	842.9892	890.2566	919.2066	964.9339	979.2318	1007.2268	1015.9657	1046.9259	1062.3066	1090.1726	1112.2583	1121.8426	1137.6717	1148.0067	1158.1954	1167.9487	1216.3151	1223.8014	1258.6595	1301.8227	1348.5887	1366.7308	1374.7443	1408.0258	1412.7757	1442.3828	1481.9272	1499.3986	1516.1378	2953.338	3040.4899	3080.7433	3093.4541	3110.9582	3139.571	3143.7352	3160.4949	3176.2725	3226.6295	3806.9196
OC1CC2CN2C2CC12	O[C@H]1C[C@H]2CN2[C@H]2C[C@@H]12	
InChI=1S/C7H11NO/c9-7-1-4-3-8(4)6-2-5(6)7/h4-7,9H,1-3H2	InChI=1S/C7H11NO/c9-7-1-4-3-8(4)6-2-5(6)7/h4-7,9H,1-3H2/t4-,5+,6-,7-,8?/m0/s1
