16
gdb 18670	3.23363	2.40125	1.53526	2.615	66.33	-0.2393	0.0124	0.2517	818.8143	0.132949	-379.900674	-379.894013	-379.893069	-379.931904	25.558	
N	-0.0674686493	 1.2555991478	 0.2538963303	-0.521349
C	-0.0070901933	 0.0166884889	 0.0078763357	 0.379939
O	 1.179539255	-0.6311393402	-0.1926132526	-0.248475
C	 1.1181019055	-1.8683752788	-0.9180926612	-0.087282
C	 0.1659029332	-2.8392730629	-0.2475207842	-0.1635
N	-1.1916807428	-2.2724693286	-0.1982644366	-0.102429
C	-1.6122665107	-1.7091156529	 1.0777685517	-0.236657
C	-1.2536228346	-0.8077619716	-0.0562510572	-0.084613
H	 0.8709218887	 1.6611528546	 0.2436893238	 0.221171
H	 0.8059868225	-1.6711491437	-1.9520151296	 0.120098
H	 2.1398284094	-2.2539505394	-0.9321725055	 0.124249
H	 0.1322639448	-3.7767280394	-0.8140334191	 0.116907
H	 0.5411846502	-3.0722327656	 0.7575613507	 0.110241
H	-2.6572501977	-1.8483809702	 1.3396478293	 0.125167
H	-0.9180054512	-1.7612045309	 1.914629349	 0.121856
H	-2.0569875497	-0.326909267	-0.6049246942	 0.124678
53.0988	220.6984	260.4221	392.9906	420.3821	470.4562	504.8233	672.2026	688.4051	729.3881	778.4672	879.9631	906.3944	931.8035	968.4523	970.9329	1052.0687	1063.5983	1100.6371	1111.4549	1121.3946	1148.45	1173.2103	1254.4121	1283.659	1306.3956	1314.4319	1376.1577	1386.4996	1426.1869	1489.9501	1503.6648	1513.8563	1752.7435	3015.6027	3026.1622	3064.8704	3098.4242	3111.7198	3161.3303	3189.0662	3463.12
N=C1OCCN2CC12	[NH][C]1OCCN2C[C@@H]12	
InChI=1S/C5H8N2O/c6-5-4-3-7(4)1-2-8-5/h4,6H,1-3H2	InChI=1S/C5H8N2O/c6-5-4-3-7(4)1-2-8-5/h4,6H,1-3H2/t4-,7?/m0/s1
