17
gdb 47508	2.81607	1.51342	1.11417	3.5226	69.45	-0.2538	0.0067	0.2605	1087.1531	0.136137	-458.975673	-458.967937	-458.966993	-459.008213	29.561	
O	 0.0154235504	 0.1353126007	 0.6052396155	-0.31971
C	-0.0171445588	 1.2012607218	 0.0564901014	 0.367034
C	-1.3364244885	 1.924814793	-0.2133683087	-0.213544
O	-1.2734340001	 3.0348507339	-1.080748741	-0.237517
C	-0.1496389655	 3.8429391712	-0.7796565374	-0.172951
C	 1.1043614628	 3.0505180159	-1.0121681772	 0.444948
C	 1.7747177066	 3.0051718613	-2.3543790373	-0.313576
C	 2.4425684631	 3.692889388	-1.1774129003	-0.328008
O	 1.1353095905	 1.8284732769	-0.2768740761	-0.26076
H	-2.027811557	 1.1999905976	-0.6477088094	 0.154399
H	-1.7334037429	 2.21216851	 0.7751210355	 0.130675
H	-0.1860038618	 4.7096802573	-1.4434803239	 0.122257
H	-0.1948466043	 4.1987141241	 0.2634982153	 0.102549
H	 2.1803215699	 2.0493674392	-2.6639193917	 0.136399
H	 1.3644347813	 3.6120313654	-3.1540155931	 0.125489
H	 2.4989679038	 4.7760917256	-1.1633289131	 0.123173
H	 3.2803598105	 3.1853266582	-0.7136609585	 0.139142
87.9876	99.3095	231.1195	259.9742	360.209	401.9368	438.3134	469.1903	536.7575	553.5754	609.8367	763.3544	799.1015	827.3051	919.2698	938.0398	974.2397	992.8784	1007.4457	1025.0539	1056.8814	1072.579	1084.687	1141.0907	1188.0806	1223.7232	1266.2336	1290.83	1316.9175	1354.5949	1371.1553	1420.4206	1454.3773	1466.6942	1489.332	1502.08	1852.185	2968.2206	2974.2663	3106.5841	3117.4636	3138.433	3141.9944	3225.0014	3238.4805
O=C1COCC2(CC2)O1	O=C1COCC2(CC2)O1	
InChI=1S/C6H8O3/c7-5-3-8-4-6(9-5)1-2-6/h1-4H2	InChI=1S/C6H8O3/c7-5-3-8-4-6(9-5)1-2-6/h1-4H2
