19
gdb 72703	2.58521	1.98615	1.65279	1.5842	74.68	-0.2322	0.0759	0.3081	909.2867	0.160288	-422.972418	-422.965218	-422.964274	-423.003331	30.489	
O	-0.169339523	 1.3594806668	-0.1254053565	-0.486743
C	-0.0329202272	-0.0503000937	-0.0374609713	 0.39733
C	 0.1454608811	-0.5026842522	 1.4515794931	-0.301235
C	-1.4275018237	-0.5760832084	 1.5556819118	-0.347225
C	-1.4227819258	-0.7165159721	 0.0317122164	 0.410707
C	-2.0487337239	-0.4619204124	-1.344845079	-0.338
C	-0.8615057048	-1.4299584587	-1.6826360575	 0.068227
C	 0.4740280001	-0.6960026487	-1.3559153017	-0.308681
O	-1.0974305866	-2.0766659176	-0.3958968552	-0.329177
H	 0.6861534951	 1.7531948344	 0.0742377423	 0.280393
H	 0.6065411168	-1.4854411661	 1.5474058696	 0.121992
H	 0.649356968	 0.2126981876	 2.1059809798	 0.088842
H	-1.8748697353	-1.3954151963	 2.1205570733	 0.110653
H	-1.8453651024	 0.3780211132	 1.8799959037	 0.123667
H	-3.0049669344	-0.9612805305	-1.5054961792	 0.109201
H	-2.0429139259	 0.5602954412	-1.7263250985	 0.116852
H	-0.8967174388	-2.1059215312	-2.5372767375	 0.080319
H	 0.7674924396	 0.066560452	-2.0817670963	 0.096512
H	 1.2795779311	-1.4256515973	-1.2448443675	 0.106366
193.8801	257.6026	269.3008	310.0579	373.6378	412.8909	470.5764	513.126	564.938	616.0198	683.07	747.0243	809.6029	823.8728	870.6243	877.9871	892.5176	904.8976	936.788	965.7657	989.3763	1002.477	1049.2096	1092.1573	1123.2339	1150.3802	1170.4464	1192.3282	1206.6322	1213.6765	1240.1591	1245.1026	1250.4957	1272.1955	1300.1257	1329.0076	1360.5834	1456.6525	1466.0798	1474.8665	1481.829	3064.2631	3071.0289	3081.41	3084.7469	3119.9106	3121.8186	3137.8203	3152.3319	3154.2096	3809.5897
OC12CCC11CC(C2)O1	O[C@@]12CC[C@]31C[C@@H](C2)O3	
InChI=1S/C7H10O2/c8-6-1-2-7(6)4-5(3-6)9-7/h5,8H,1-4H2	InChI=1S/C7H10O2/c8-6-1-2-7(6)4-5(3-6)9-7/h5,8H,1-4H2/t5-,6-,7-/m1/s1
