21
gdb 86293	1.86326	1.60764	1.10665	2.1727	80.13	-0.2602	-0.0382	0.2219	1213.2363	0.179989	-424.239078	-424.229181	-424.228237	-424.27367	36.871	
C	-0.557496054	 0.9180116231	-1.6211915462	-0.407594
C	 0.35031695	-0.1852083399	-1.1066017179	-0.01808
C	 1.8760085515	-0.1128144331	-1.3776069139	-0.254514
C	 2.1357255213	-0.6315562244	 0.061091961	-0.018095
C	 3.268086949	-0.0382771989	 0.8807546239	-0.40756
C	 0.6633472234	-0.2094078829	 0.4396763324	 0.295728
O	 0.5899272847	 1.0548235658	 1.0353412173	-0.47483
C	-0.1168162752	-1.2023363821	 1.2529324573	 0.104444
O	-0.702094445	-0.8936419665	 2.2656507433	-0.279553
H	-0.2349897612	 1.8895934372	-1.2394733264	 0.136277
H	-0.5383327874	 0.9485116904	-2.7160587272	 0.11366
H	-1.5959023716	 0.7633732003	-1.3086722	 0.115271
H	-0.0320670412	-1.1682522872	-1.4073617682	 0.070471
H	 2.2721200841	-0.7018632859	-2.2085220444	 0.095434
H	 2.2094189873	 0.9236695783	-1.491132398	 0.10993
H	 2.200769681	-1.7264237728	 0.0529528881	 0.070474
H	 3.1491501257	 1.0438898824	 0.9727008875	 0.136265
H	 3.2966043325	-0.4590636566	 1.8916904854	 0.115277
H	 4.2328190974	-0.2449139374	 0.4047011232	 0.113651
H	 0.0416490513	 0.9357751373	 1.8277320555	 0.292587
H	-0.1270525038	-2.2442285971	 0.8704549376	 0.090758
77.2051	80.3757	191.3533	192.7544	214.1378	236.838	276.496	277.7509	338.7244	414.783	440.5015	464.1825	490.346	571.8058	654.2634	792.2222	837.664	882.1493	889.2468	908.9505	964.2628	1011.1109	1019.7275	1046.9868	1071.3488	1116.5168	1152.7391	1176.2788	1183.1993	1243.1495	1260.5728	1268.8877	1313.8636	1342.4298	1367.2004	1392.5777	1405.0573	1411.7321	1432.6105	1486.3418	1487.7693	1493.1544	1498.8186	1502.0272	1797.212	2920.0051	3025.8578	3029.1745	3034.9394	3036.197	3053.3541	3094.9228	3094.9391	3107.5467	3126.2989	3127.0852	3678.2358
CC1CC(C)C1(O)C=O	C[C@H]1C[C@@H](C)[C@]1(O)C=O	
InChI=1S/C7H12O2/c1-5-3-6(2)7(5,9)4-8/h4-6,9H,3H2,1-2H3	InChI=1S/C7H12O2/c1-5-3-6(2)7(5,9)4-8/h4-6,9H,3H2,1-2H3/t5-,6+,7-
