19
gdb 36688	4.82089	0.8133	0.77008	1.3735	82.2	-0.2487	0.0354	0.2841	1509.3807	0.15773	-385.808798	-385.799994	-385.79905	-385.843122	32.931	
C	-0.0514478646	-1.1763318218	-0.1246044755	-0.416429
C	 0.0419071004	 0.0098812841	 0.0366180973	 0.280968
C	 0.1244407889	 1.4488789501	 0.2499846032	-0.214056
O	 1.3208766467	 1.9545526593	-0.3122522049	-0.256891
C	 1.4555932838	 3.3474991922	-0.1447997205	 0.159326
C	 1.876670109	 3.9037451639	 1.2653231381	-0.273031
C	 3.1202131065	 4.5099616276	 0.6059919129	-0.043844
C	 3.9375067782	 3.4217398651	-0.0229040928	-0.267367
C	 2.7226247176	 3.9221071994	-0.7557220639	-0.08268
H	-0.1275027367	-2.2251744761	-0.2720247988	 0.199298
H	-0.752347518	 1.9416048884	-0.2052114961	 0.116822
H	 0.0791085405	 1.663190743	 1.3306999453	 0.121363
H	 0.5526521911	 3.8585436754	-0.5105419908	 0.068018
H	 1.1697477594	 4.6396026632	 1.6546983936	 0.102124
H	 2.071534498	 3.1505067293	 2.0359257029	 0.101016
H	 3.5247071494	 5.4916624184	 0.8166806317	 0.087731
H	 4.8833877001	 3.7337874965	-0.4534719467	 0.111128
H	 3.9440333585	 2.42149898	 0.4007327094	 0.12063
H	 2.7897738612	 4.359596072	-1.7439148445	 0.085876
47.906	90.9601	104.6583	180.3262	259.0782	333.713	358.6599	426.5906	462.8002	596.4843	607.3872	673.1957	680.3861	785.2243	810.0138	844.6725	920.3487	950.5543	968.6115	980.6643	1023.219	1031.2691	1036.8668	1047.8762	1064.5906	1085.347	1101.9518	1133.6339	1160.8261	1217.3362	1237.4647	1253.1187	1269.2753	1318.8175	1362.0253	1368.7743	1429.283	1476.9814	1496.8435	1500.9279	2248.1528	2951.841	2974.8562	2989.3081	3046.4548	3108.6574	3121.4135	3184.9949	3193.8365	3210.5968	3506.8005
C#CCOC1CC2CC12	C#CCO[C@H]1C[C@H]2C[C@@H]12	
InChI=1S/C8H10O/c1-2-3-9-8-5-6-4-7(6)8/h1,6-8H,3-5H2	InChI=1S/C8H10O/c1-2-3-9-8-5-6-4-7(6)8/h1,6-8H,3-5H2/t6-,7-,8+/m1/s1
