24
gdb 118484	2.29175	0.98046	0.72441	1.2276	86.22	-0.2339	0.0771	0.311	1623.7179	0.216015	-405.512038	-405.501286	-405.500342	-405.54824	39.231	
C	-0.1489833254	 1.3104215621	 0.3069780899	-0.39813
C	-0.0545960883	-0.170266264	-0.0721846075	-0.158089
C	 0.6647543002	-0.4922870101	-1.3950752577	 0.029362
C	 0.7953549848	-2.0191614854	-1.5347646563	-0.188731
C	 1.6188693386	-2.5353193315	-2.7169332277	-0.080271
O	 1.8488423036	-3.9358467138	-2.6293350985	-0.419
N	-0.0881302963	 0.0534755927	-2.5288587768	-0.063765
C	 0.1458536137	 1.4483276611	-2.8932991889	-0.225122
C	 0.6493141432	 0.3492053906	-3.7549246505	-0.225541
H	 0.8397458534	 1.7829129624	 0.331299924	 0.10898
H	-0.7749281521	 1.8726139213	-0.3902596301	 0.128666
H	-0.58840819	 1.4195783732	 1.3037253913	 0.111384
H	 0.4727151194	-0.7065810926	 0.7260876988	 0.093893
H	-1.0625559001	-0.5998960277	-0.1230046508	 0.103632
H	 1.6823663708	-0.0532078744	-1.3563476435	 0.050554
H	 1.2593211911	-2.4128124262	-0.6229567815	 0.102656
H	-0.2161927796	-2.4446301099	-1.5888674104	 0.093355
H	 1.1415571231	-2.2768570295	-3.6718451889	 0.098445
H	 2.6146320656	-2.0767069155	-2.7140321661	 0.104551
H	 0.9935811941	-4.3744303228	-2.6813336762	 0.279614
H	-0.7346517544	 2.0188776156	-3.1756384142	 0.114774
H	 0.8902062844	 2.0098965991	-2.3321753679	 0.111855
H	 1.7260960721	 0.1879208804	-3.7608195452	 0.112044
H	 0.1473824482	 0.0937719451	-4.6840618252	 0.114884
71.9131	80.1258	100.6927	137.0107	155.6151	209.4921	261.9271	284.8659	303.8674	315.126	340.9271	376.6569	478.967	584.2889	699.5668	769.4649	809.5421	859.473	894.8674	912.4908	978.1195	1003.6482	1022.6968	1031.1204	1055.6763	1078.6055	1108.0479	1112.9055	1121.915	1127.4299	1132.5548	1174.9832	1181.2992	1218.2717	1276.9898	1302.0725	1309.5481	1327.8541	1349.4932	1386.32	1387.679	1403.1869	1411.5133	1420.6333	1469.9267	1482.6422	1491.9209	1500.6612	1509.9033	1515.1353	1520.4483	2891.3396	3008.1259	3015.2505	3027.1815	3033.892	3054.5797	3063.7132	3078.851	3093.4385	3095.0967	3099.8945	3121.1463	3173.9656	3188.8745	3814.3033
CCC(CCO)N1CC1	CC[C@@H](CCO)N1CC1	
InChI=1S/C7H15NO/c1-2-7(3-6-9)8-4-5-8/h7,9H,2-6H2,1H3	InChI=1S/C7H15NO/c1-2-7(3-6-9)8-4-5-8/h7,9H,2-6H2,1H3/t7-/m0/s1
