20
gdb 96997	3.36431	1.31728	1.24763	2.6626	81.29	-0.2375	0.0384	0.2759	1119.5412	0.17374	-403.179543	-403.171668	-403.170724	-403.212471	30.443	
C	 0.0129952851	 1.4358401772	 0.0073214591	-0.335032
N	 0.043269665	-0.0190149276	 0.0238371152	-0.356114
C	 0.5636735837	-0.6384288671	-0.9390276392	 0.467332
O	 1.1335460923	-0.067857948	-2.0640560611	-0.274782
C	 1.6182385804	-1.169733751	-2.876137396	 0.102888
C	 2.8645320946	-1.7356128038	-2.1705229019	-0.216584
C	 2.2344707177	-2.4388297913	-0.9256204074	-0.220768
C	 0.7165447737	-2.1351885609	-1.0958768929	-0.122378
C	 0.5549153648	-2.2482287899	-2.6285609902	-0.239976
H	 0.6420172411	 1.8189298029	 0.8199671776	 0.121594
H	 0.3494305916	 1.8858617797	-0.9335104219	 0.121577
H	-1.0088172414	 1.7718739389	 0.2154565249	 0.120858
H	 1.7585451992	-0.8005000885	-3.8911348258	 0.083437
H	 3.3986842103	-2.4376928919	-2.8171892517	 0.102887
H	 3.5525936006	-0.9307566349	-1.9038607234	 0.115681
H	 2.40470573	-3.5189145822	-0.9456952285	 0.103229
H	 2.6211164075	-2.0571484169	 0.0213693918	 0.119196
H	 0.0494947377	-2.7068662671	-0.4555334597	 0.089429
H	-0.4342476237	-1.9602650578	-2.9918360172	 0.114188
H	 0.82962641	-3.2279435098	-3.0276333916	 0.10334
51.4938	106.0808	204.7951	231.9546	307.5364	396.8837	444.8939	496.2886	591.5538	704.8962	744.355	799.3662	824.1324	840.5371	873.5782	893.6749	945.9509	950.3561	962.4696	979.7271	1034.1122	1044.4899	1050.8023	1094.2625	1131.2711	1153.1037	1165.6778	1189.7813	1205.9094	1221.5321	1254.4423	1283.5239	1314.8434	1328.596	1343.0105	1357.7411	1438.28	1481.5677	1489.9428	1494.5883	1497.6913	1510.3343	1813.5875	3015.4159	3058.1753	3065.9319	3070.276	3073.3661	3087.5868	3106.0974	3122.6471	3126.3105	3132.2613	3155.5382
CN=C1OC2CCC1C2	CN=C1O[C@H]2CC[C@@H]1C2	
InChI=1S/C7H11NO/c1-8-7-5-2-3-6(4-5)9-7/h5-6H,2-4H2,1H3	InChI=1S/C7H11NO/c1-8-7-5-2-3-6(4-5)9-7/h5-6H,2-4H2,1H3/t5-,6+/m1/s1
