17
gdb 14982	4.53949	1.45955	1.1651	1.1957	64.97	-0.2512	0.0209	0.2721	1006.8511	0.144055	-401.010248	-401.002764	-401.001819	-401.042214	27.843	
O	 0.0636825607	 1.4101010464	 0.0674754614	-0.422516
C	 0.0582785723	-0.0005197789	 0.0211611776	-0.071368
C	-1.3531798452	-0.5639744915	-0.0765789238	 0.118203
C	-1.4305741948	-2.0848727188	-0.1181483054	-0.247563
C	-2.8988970737	-2.5149014033	-0.0189694218	-0.160912
N	-3.6305046229	-1.823988414	 1.0398061348	-0.262109
C	-3.1568084167	-0.7401606225	 1.4807905951	 0.132538
O	-2.0490357332	-0.0595084486	 1.0880272117	-0.258491
H	-0.517870318	 1.6611492561	 0.7942109532	 0.292792
H	 0.6266361657	-0.2936285384	-0.867748636	 0.112488
H	 0.5556742357	-0.440279842	 0.9008757869	 0.093049
H	-1.8483198086	-0.1318744186	-0.9568456944	 0.096354
H	-0.9691156582	-2.4574457647	-1.0385648312	 0.109137
H	-0.8645301787	-2.4975132238	 0.7256401979	 0.113912
H	-3.4161155074	-2.3363460459	-0.9711474228	 0.115359
H	-2.9718482398	-3.5914549859	 0.1685960522	 0.114857
H	-3.6425040573	-0.2085501657	 2.2973791845	 0.124269
99.8731	123.5873	184.0753	239.669	375.2062	416.7352	435.3174	506.1484	526.4258	550.0973	786.7216	808.3572	882.9084	928.4172	956.4208	964.3393	1014.681	1072.126	1091.7735	1113.4556	1133.1912	1158.9783	1219.4983	1244.2188	1257.343	1310.9554	1363.4381	1371.2866	1391.2682	1401.7121	1409.9502	1439.9454	1478.0459	1492.4313	1497.6779	1739.1588	2976.9004	3018.187	3022.1265	3037.4593	3063.7751	3078.4016	3089.3817	3156.7421	3804.3338
OCC1CCN=CO1	OC[C@H]1CCN=CO1	
InChI=1S/C5H9NO2/c7-3-5-1-2-6-4-8-5/h4-5,7H,1-3H2	InChI=1S/C5H9NO2/c7-3-5-1-2-6-4-8-5/h4-5,7H,1-3H2/t5-/m1/s1
