18
gdb 18125	3.38935	2.25122	1.74738	2.7831	65.56	-0.2507	0.0687	0.3194	806.6921	0.15743	-384.961347	-384.954728	-384.953784	-384.993142	25.405	
C	 0.3648749511	 1.1984713756	 0.5343818404	-0.090803
C	 1.3860651169	 1.9594409425	-0.3217523651	-0.229439
C	 2.1736838822	 0.8324848164	-1.0243087277	-0.08524
C	 3.4743112586	 0.3724160726	-0.3310297655	-0.229437
C	 3.0193212319	-0.8187278506	 0.5227960701	-0.090798
O	 1.9540889001	-1.4103628866	-0.2130482947	-0.253262
C	 1.2325467513	-0.4066404451	-0.8945345799	 0.227519
O	 0.0759810084	 0.0169310853	-0.2050252064	-0.253247
H	 0.7714328572	 0.9523830669	 1.5267849421	 0.096606
H	-0.574463958	 1.7388329999	 0.680523183	 0.108716
H	 0.8635121233	 2.5698955183	-1.0640082393	 0.109788
H	 2.0235773169	 2.6236793821	 0.2675156792	 0.101473
H	 2.3575950239	 1.0806002164	-2.070345109	 0.08394
H	 4.1981336021	 0.0354107695	-1.0788071463	 0.109786
H	 3.9470067868	 1.1620410822	 0.2588201334	 0.101474
H	 3.7922378301	-1.5797013131	 0.6614573319	 0.108717
H	 2.678985433	-0.4969703537	 1.518465446	 0.0966
H	 0.8881903643	-0.8544900987	-1.8297413821	 0.087607
28.19	196.4494	207.916	378.5032	504.7191	549.2597	634.2401	666.1474	776.7947	831.0594	880.6257	885.9464	922.4103	937.8189	948.1737	976.9261	988.2375	1021.3626	1048.3745	1105.5765	1126.3036	1147.463	1193.7077	1216.906	1232.992	1240.1372	1286.78	1302.077	1303.9488	1339.8656	1355.3131	1373.1725	1393.7057	1409.053	1483.5925	1496.2726	1519.5588	1534.6588	2983.7638	2995.311	3055.8931	3055.9889	3082.55	3084.4694	3087.0886	3099.2674	3103.2752	3112.1477
C1CC2CCOC2O1	C1C[C@H]2CCO[C@H]2O1	
InChI=1S/C6H10O2/c1-3-7-6-5(1)2-4-8-6/h5-6H,1-4H2	InChI=1S/C6H10O2/c1-3-7-6-5(1)2-4-8-6/h5-6H,1-4H2/t5-,6+
