19
gdb 72341	2.30759	2.04178	1.53253	1.3693	78.63	-0.2368	0.0246	0.2614	948.3856	0.160631	-385.86577	-385.858533	-385.857589	-385.896847	30.45	
O	-0.0616481654	 1.3561440532	-0.0348337555	-0.490298
C	-0.0024731841	-0.0525913822	-0.0174110044	 0.433156
C	-1.361875182	-0.6203690294	-0.4718375278	-0.314325
C	-1.7246676947	-1.597261477	 0.6267351648	-0.07143
C	-0.8227286188	-1.656271944	 1.6118573241	-0.08242
C	 0.3312031966	-0.7327528273	 1.3581281697	-0.121849
C	 1.6542113369	-1.2770532489	 0.7486791624	-0.067132
C	 1.385238558	-2.1234347912	-0.4595403836	-0.292504
C	 1.3095970459	-0.6274966995	-0.5975457752	-0.136898
H	 0.7934742924	 1.6917204774	 0.2570397604	 0.274059
H	-2.0945163887	 0.1906074204	-0.5601847097	 0.119103
H	-1.30236661	-1.1044220809	-1.4544281304	 0.107295
H	-2.6422726184	-2.1766346633	 0.5958154036	 0.091396
H	-0.9041729017	-2.2937883379	 2.4861073015	 0.090276
H	 0.5157942366	-0.0116908439	 2.1610635329	 0.070844
H	 2.6054621815	-1.3072155883	 1.2666149124	 0.082383
H	 2.2628773933	-2.5769779995	-0.9096976762	 0.110639
H	 0.4908404251	-2.7368439616	-0.5164424378	 0.116297
H	 1.9442196775	-0.082469686	-1.2886478313	 0.081408
158.9235	221.4561	286.7287	343.9159	357.4382	398.0565	465.6883	511.4362	601.8618	653.6108	721.7225	767.1467	780.4361	801.6991	852.1821	929.7979	941.4348	950.7811	954.4517	978.5757	987.8616	1013.8132	1053.5681	1060.1814	1074.8749	1087.5866	1094.8028	1111.6911	1150.8017	1176.4057	1188.6415	1225.6046	1282.6666	1292.5418	1324.4758	1345.8432	1366.931	1392.9389	1474.2457	1489.2911	1666.5291	3028.852	3055.7987	3062.7468	3120.1246	3161.3426	3170.0326	3177.8948	3195.0778	3203.0995	3795.432
OC12CC=CC1C1CC21	O[C@]12CC=C[C@H]1[C@H]1C[C@@H]21	
InChI=1S/C8H10O/c9-8-3-1-2-6(8)5-4-7(5)8/h1-2,5-7,9H,3-4H2	InChI=1S/C8H10O/c9-8-3-1-2-6(8)5-4-7(5)8/h1-2,5-7,9H,3-4H2/t5-,6+,7-,8-/m1/s1
