16
gdb 35349	3.8111	1.38168	1.23903	4.9712	75.16	-0.2331	0.0016	0.2347	1008.6039	0.125432	-396.750882	-396.74392	-396.742976	-396.782133	27.921	
N	-0.1219946586	-1.2338521217	-0.0112112676	-0.335392
C	-0.0833233152	-0.0788499657	 0.0258144722	 0.358066
C	-0.0389224208	 1.3751438966	 0.0265584499	-0.23088
N	-0.3438658646	 1.9958338421	 1.4090462742	-0.408479
C	 1.1153858596	 2.3879283272	 1.4143378706	 0.259172
C	 2.3710203277	 3.3255863908	 1.3812116652	-0.240488
N	 2.8058944846	 2.0688928632	 0.5474380201	-0.165444
C	 2.1395465106	 1.2643342747	 1.6710152144	-0.192148
C	 1.3351008087	 2.193036246	-0.0351837104	-0.006773
H	-0.7113961604	 1.7364531969	-0.7558550593	 0.141189
H	-0.9559076319	 2.7976364967	 1.2615783277	 0.229203
H	 2.2986605466	 4.2431868451	 0.7938133395	 0.118852
H	 2.9827323756	 3.4497554189	 2.278308051	 0.123244
H	 2.6950201563	 1.2878945098	 2.6107082151	 0.109353
H	 1.8902886329	 0.2431925066	 1.3861912257	 0.145731
H	 1.256322019	 3.0223041528	-0.7392000883	 0.094794
131.3213	149.7513	316.4907	328.1469	413.7277	459.1316	538.7118	578.8973	592.3937	681.3453	721.2717	795.9785	818.0816	839.0598	869.7233	895.7108	926.8542	994.1558	996.8285	1025.3616	1060.4848	1074.0431	1122.4075	1148.8493	1157.4173	1183.0985	1201.3778	1236.424	1286.5458	1291.7957	1324.8264	1381.4258	1505.6896	1551.5108	2354.1308	3061.93	3078.8185	3081.8562	3100.8817	3142.4343	3161.55	3478.0191
N#CC1NC23CN(C2)C13	N#C[C@H]1N[C@@]23CN(C2)[C@@H]13	
InChI=1S/C6H7N3/c7-1-4-5-6(8-4)2-9(5)3-6/h4-5,8H,2-3H2	InChI=1S/C6H7N3/c7-1-4-5-6(8-4)2-9(5)3-6/h4-5,8H,2-3H2/t4-,5+/m1/s1
