22
gdb 117363	2.82779	0.87815	0.72371	3.6653	83.88	-0.2332	0.039	0.2722	1644.537	0.193677	-404.37597	-404.365676	-404.364732	-404.413055	36.949	
C	-0.5824946012	 0.9542014955	 0.7482875262	-0.370807
C	-0.0286569757	-0.4421895904	 0.4513709931	-0.143529
N	-1.0666408298	-1.4470072437	 0.2894415647	-0.306661
C	-1.4994774495	-1.8622199314	-0.9353624792	 0.39205
O	-1.0162078155	-1.4651654812	-1.9818803198	-0.384958
C	-2.6617227786	-2.8615615442	-0.9253671128	-0.315244
C	-2.8494594948	-3.6902521797	 0.3274840365	 0.000095
C	-3.684209547	-3.1772150824	 1.4854755801	-0.265087
C	-4.1883433449	-4.3102622348	 0.6277239171	-0.280215
H	 0.2348920789	 1.6721234934	 0.8713613304	 0.11706
H	-1.2189214979	 1.2955561919	-0.0729838008	 0.135304
H	-1.1771395947	 0.9604601339	 1.668338886	 0.108014
H	 0.5362995256	-0.43315225	-0.4831712788	 0.146648
H	 0.6482912729	-0.7606498627	 1.2528377763	 0.100684
H	-1.5572807078	-1.7802244312	 1.1034741604	 0.250416
H	-3.575517779	-2.2875137787	-1.1295551844	 0.120829
H	-2.5095394369	-3.5026105654	-1.7992713907	 0.132332
H	-1.9851642121	-4.2892045358	 0.6028107875	 0.095147
H	-3.3668793205	-3.4027047379	 2.4980593311	 0.115421
H	-4.1664855564	-2.2107009076	 1.3758684347	 0.117694
H	-5.0053064058	-4.1011102053	-0.0548949217	 0.117833
H	-4.2103961693	-5.3065668123	 1.054521294	 0.116972
29.4605	50.1819	75.0656	117.3989	146.1715	223.1123	294.724	322.9825	336.6373	431.2882	448.9499	508.1943	610.5986	675.706	765.9082	786.9201	816.8326	836.2639	895.9364	906.716	924.828	955.4178	1012.0182	1056.3491	1081.2929	1085.8635	1128.9037	1139.097	1149.8089	1174.6075	1201.273	1226.3099	1246.6016	1275.9215	1309.4919	1329.4294	1394.3199	1409.515	1411.3345	1458.8708	1472.1776	1477.0136	1492.3249	1501.9436	1506.5205	1546.8059	1773.9628	3028.9338	3034.178	3036.499	3085.2825	3096.8122	3115.776	3125.2994	3126.5783	3135.3713	3141.5135	3205.4762	3223.3179	3638.4572
CCNC(=O)CC1CC1	CCNC(=O)CC1CC1	
InChI=1S/C7H13NO/c1-2-8-7(9)5-6-3-4-6/h6H,2-5H2,1H3,(H,8,9)	InChI=1S/C7H13NO/c1-2-8-7(9)5-6-3-4-6/h6H,2-5H2,1H3,(H,8,9)
