14
gdb 18213	4.51997	1.68116	1.3255	4.0482	65.17	-0.2551	-0.0661	0.1891	885.2871	0.107304	-382.539256	-382.532724	-382.53178	-382.57012	24.427	
O	-0.0517426504	-0.0398953094	-0.0206852349	-0.269295
C	 0.0081917931	 1.1665542496	 0.0647642302	 0.066588
C	 1.2564317425	 1.9306789164	 0.0384651061	 0.263349
C	 1.3529982253	 3.2712909494	 0.0811312242	-0.158392
C	 2.7817475616	 3.7475901034	-0.033885753	-0.291434
C	 3.5768936146	 2.4448201594	-0.0703937499	 0.039907
O	 3.4345267523	 1.6535896102	 1.1076252477	-0.250371
C	 2.6215434523	 1.3213722536	-0.0383671772	-0.082248
H	-0.9113931309	 1.7861076387	 0.1589955501	 0.070979
H	 0.5131740797	 3.9483602041	 0.2004802179	 0.120072
H	 2.929858465	 4.339996117	-0.9462929183	 0.127309
H	 3.075493582	 4.3846813069	 0.8090660308	 0.139924
H	 4.5461249882	 2.3961672502	-0.5583663279	 0.104394
H	 2.7872529544	 0.3405966306	-0.4683782457	 0.119218
112.3242	181.5934	245.5275	316.5199	388.4714	484.3725	594.5357	694.8496	762.1972	811.8065	829.735	868.113	889.9305	924.7225	957.3376	1008.4145	1039.5571	1045.91	1104.9364	1182.4074	1202.2633	1248.6948	1272.8752	1311.681	1373.7216	1407.7352	1422.5607	1447.5573	1663.0893	1786.5663	2882.5586	3029.3543	3066.4405	3156.9262	3190.4019	3195.2034
O=CC1=CCC2OC12	O=CC1=CC[C@H]2O[C@@H]12	
InChI=1S/C6H6O2/c7-3-4-1-2-5-6(4)8-5/h1,3,5-6H,2H2	InChI=1S/C6H6O2/c7-3-4-1-2-5-6(4)8-5/h1,3,5-6H,2H2/t5-,6+/m1/s1
