17
gdb 50154	5.15292	0.98582	0.8854	3.5824	79.73	-0.2128	-0.0095	0.2032	1283.5924	0.137093	-418.010132	-418.002168	-418.001224	-418.043469	29.686	
O	-0.0785507221	-0.0202989889	-0.0013219913	-0.327018
C	-0.0023952176	 1.1899428294	-0.0029584771	 0.148773
N	 1.165284795	 1.8962668525	-0.0057715368	-0.07923
C	 1.2753647851	 3.3618193035	-0.0021571937	-0.27578
C	 2.7983586876	 3.606514185	-0.0430752962	 0.313187
C	 3.3771813443	 4.7820424412	-0.7474765998	-0.283773
N	 3.4241362707	 4.6983633667	 0.7234673512	-0.35134
C	 3.4073785676	 2.24853093	-0.0101536276	-0.236307
C	 2.4462908009	 1.3227859505	 0.0044518673	 0.01178
H	-0.8863982128	 1.8570358385	-0.0045332345	 0.073283
H	 0.7591411007	 3.7931594196	-0.8655528654	 0.131108
H	 0.8301363513	 3.7789011245	 0.9097215811	 0.126669
H	 4.3414504578	 4.7025019255	-1.2426312434	 0.124506
H	 2.6865215978	 5.4812705106	-1.2145288824	 0.112378
H	 2.7082710553	 5.2952175435	 1.1329784803	 0.229259
H	 4.4716087607	 2.0693379987	 0.0023727071	 0.11979
H	 2.5074801777	 0.2455088793	 0.020949461	 0.162714
32.9825	141.8025	198.5703	245.9358	307.5025	336.0373	359.7922	430.0337	582.7533	619.5845	759.4327	776.1826	821.8428	836.3594	901.0128	902.9301	936.1103	958.3765	978.5402	1002.0493	1022.8565	1086.6791	1092.3789	1137.8872	1219.4932	1240.1526	1255.0149	1274.3353	1308.6894	1322.8073	1396.7596	1439.0911	1447.1569	1506.7221	1511.5519	1673.1449	1792.3288	2942.6844	3020.6018	3069.9585	3096.4481	3183.6823	3250.2934	3274.6478	3483.8385
O=CN1CC2(CN2)C=C1	O=CN1C[C@]2(CN2)C=C1	
InChI=1S/C6H8N2O/c9-5-8-2-1-6(4-8)3-7-6/h1-2,5,7H,3-4H2	InChI=1S/C6H8N2O/c9-5-8-2-1-6(4-8)3-7-6/h1-2,5,7H,3-4H2/t6-/m1/s1
