15
gdb 109423	2.25523	1.75013	1.01852	2.2266	69.73	-0.2393	-0.0983	0.141	1106.9736	0.111288	-457.788321	-457.779989	-457.779045	-457.821973	29.513	
C	-0.0561327528	 1.4589637025	-0.0756931485	-0.243268
O	 0.025827775	 0.0578260579	 0.1476924953	-0.232051
C	-1.1888454265	-0.6139386472	 0.0217436904	-0.109793
C	-1.6064965706	-0.9433100947	-1.4275078978	 0.362767
O	-1.5947598026	-0.1866116736	-2.3682814474	-0.310586
C	-2.0033752794	-2.3790349203	-1.4535133094	-0.154787
C	-1.7379558119	-2.9696291561	-0.2770948061	-0.163178
C	-1.1221734951	-2.0068311122	 0.6804049945	 0.356796
O	-0.6588484297	-2.267621397	 1.7599728663	-0.29364
H	 0.9434818406	 1.8595335603	 0.1044084019	 0.134218
H	-0.3662180665	 1.6877485508	-1.1002444844	 0.142995
H	-0.7614282599	 1.9266435539	 0.6280009968	 0.108826
H	-2.018076692	-0.0596494684	 0.4986834322	 0.113716
H	-2.4358325542	-2.8373622155	-2.3352026253	 0.14344
H	-1.9107494146	-4.0053045604	-0.0094754484	 0.144544
52.8035	109.7802	169.5235	205.9376	243.5876	275.9989	327.1058	421.2189	524.6254	566.35	657.4121	683.6418	701.1912	801.3944	912.4985	925.0261	1007.7904	1022.0832	1071.8564	1127.0738	1157.5438	1179.3071	1194.5047	1229.998	1245.7554	1343.4304	1357.0052	1476.1485	1482.3757	1514.3727	1622.5352	1809.6614	1850.0997	2943.765	2992.3904	3081.4498	3133.1582	3203.715	3225.529
COC1C(=O)C=CC1=O	CO[C@H]1C(=O)C=CC1=O	
InChI=1S/C6H6O3/c1-9-6-4(7)2-3-5(6)8/h2-3,6H,1H3	InChI=1S/C6H6O3/c1-9-6-4(7)2-3-5(6)8/h2-3,6H,1H3
