21
gdb 102533	2.06086	1.15983	0.80688	2.562	76.14	-0.2623	-0.028	0.2343	1451.7632	0.179594	-461.367535	-461.356803	-461.355859	-461.404147	38.247	
C	-0.0074356767	 1.5945725997	 0.1246741736	-0.398009
C	-0.0357956952	 0.073841342	-0.0632545963	-0.190135
C	-1.4500401502	-0.541058622	-0.0797205506	-0.008088
C	-2.1919612435	-0.2208406449	-1.3818651085	-0.094118
O	-3.5785828799	-0.5410335793	-1.3450764718	-0.416892
C	-1.3499930428	-2.0689201231	 0.1960295032	 0.030429
O	-0.7350463402	-2.2990817655	 1.4369816061	-0.435721
C	-2.6951415859	-2.783691809	 0.1676074826	 0.131249
O	-3.1397134615	-3.2904283765	 1.173361509	-0.28183
H	 1.0239259349	 1.9585498994	 0.1608144941	 0.119698
H	-0.5115756686	 2.1297447357	-0.6864810023	 0.115195
H	-0.4917591778	 1.882157927	 1.0643887117	 0.119149
H	 0.4817466428	-0.1975011726	-0.9942091943	 0.092001
H	 0.5216280031	-0.3964995653	 0.7507376928	 0.13452
H	-2.0207857415	-0.1118369662	 0.7578156508	 0.072741
H	-2.0489563353	 0.8361803858	-1.6421154647	 0.102649
H	-1.775255263	-0.8097458842	-2.208131648	 0.114411
H	-3.9992710708	 0.0333222712	-0.6968623401	 0.287684
H	-0.7408415839	-2.51259761	-0.6131027644	 0.087639
H	-1.4055010151	-2.7597122592	 1.9685154312	 0.292567
H	-3.2266410087	-2.835150683	-0.7944369742	 0.124861
43.9766	72.526	84.8045	123.0436	202.1637	238.4975	246.5764	280.4041	324.2575	341.6595	356.6139	410.1304	461.523	510.1954	530.2946	762.9532	774.7533	814.0311	896.3737	910.6354	969.0608	988.8317	1042.4759	1061.067	1100.011	1113.9692	1139.433	1149.3781	1209.0471	1256.5477	1281.2558	1305.0026	1341.7167	1360.8171	1378.6902	1392.0465	1408.2987	1414.2119	1416.8268	1445.0542	1490.404	1500.1172	1503.4534	1509.3897	1794.4918	2939.4527	2994.9654	3014.7677	3019.1647	3029.3036	3034.3448	3062.8878	3088.0498	3103.1161	3110.4372	3664.0419	3815.0537
CCC(CO)C(O)C=O	CC[C@@H](CO)[C@@H](O)C=O	
InChI=1S/C6H12O3/c1-2-5(3-7)6(9)4-8/h4-7,9H,2-3H2,1H3	InChI=1S/C6H12O3/c1-2-5(3-7)6(9)4-8/h4-7,9H,2-3H2,1H3/t5-,6-/m0/s1
