17
gdb 31765	5.34327	1.09615	0.92928	2.6858	77.67	-0.1885	0.034	0.2226	1246.3624	0.137451	-418.000312	-417.992281	-417.991337	-418.033477	29.183	
C	-0.0919643184	 1.4420650024	-0.0274864036	-0.228147
O	-0.0106617774	 0.0296313426	-0.1756523756	-0.269214
C	-1.1505275543	-0.6542459426	 0.0408173038	 0.363382
C	-1.2488731584	-2.0383181875	-0.0097195685	-0.29653
N	-2.6078431029	-2.2441971287	 0.1541871661	 0.016393
C	-3.7456277934	-3.0139808379	 0.7048200647	-0.169479
C	-4.4955551635	-1.6323138365	 0.8580404298	-0.35833
C	-3.1851364161	-1.0471620196	 0.3665551744	 0.357597
N	-2.3527563165	-0.0299399119	 0.3093821981	-0.450321
H	 0.9105234992	 1.8203978929	-0.2355835348	 0.120811
H	-0.8112354976	 1.8746702256	-0.7302066699	 0.130347
H	-0.3934942895	 1.7197234565	 0.9881131864	 0.126765
H	-0.5274461396	-2.7995447845	-0.2440719125	 0.129582
H	-4.1718362534	-3.737021087	 0.0049575471	 0.128311
H	-3.5176916089	-3.5026163459	 1.6558301663	 0.134382
H	-5.367702834	-1.498018217	 0.2134475299	 0.130148
H	-4.7662878055	-1.3851521909	 1.8873208384	 0.134303
66.0378	96.4853	166.9648	214.3208	237.6835	302.1784	404.2756	539.9847	626.9121	642.4147	669.8638	723.8182	809.622	815.2305	837.7041	920.9316	991.7172	1049.4005	1068.8876	1109.6076	1130.6726	1170.3326	1176.2164	1181.1641	1202.9163	1226.4363	1267.4681	1316.3757	1399.1545	1446.42	1465.2141	1479.501	1483.0817	1502.7912	1512.549	1565.9427	1593.1134	3030.4859	3059.8565	3068.4985	3095.9634	3109.2663	3122.9382	3136.0887	3297.4286
COC1=CN2CCC2=N1	COc1cn2CCc2n1	
InChI=1S/C6H8N2O/c1-9-6-4-8-3-2-5(8)7-6/h4H,2-3H2,1H3	InChI=1S/C6H8N2O/c1-9-6-4-8-3-2-5(8)7-6/h4H,2-3H2,1H3
