24
gdb 101254	3.14072	0.86228	0.81018	2.2374	86.65	-0.2384	0.0719	0.3103	1599.2255	0.214611	-405.536024	-405.524711	-405.523766	-405.572797	41.279	
C	-0.1790621769	 1.5410996643	-0.0054611088	-0.38475
C	-0.1337533407	 0.0196762292	-0.1601875628	-0.188672
C	 0.9374669332	-0.4575906741	-1.1483225331	 0.138796
O	 2.2464769534	-0.0274260808	-0.770011986	-0.435273
C	 0.8968655341	-1.9626645022	-1.3214841587	-0.085499
N	-0.1041810679	-2.5095171264	-2.2581781179	-0.373875
C	 1.3365987474	-2.6960505183	-2.5405369686	 0.325209
C	 1.8588405206	-1.9675461877	-3.7625522206	-0.438402
C	 1.9213217001	-4.0825917018	-2.3495770604	-0.458212
H	 0.7986123586	 1.9285716689	 0.293649768	 0.124399
H	-0.4507614077	 2.0230789948	-0.9510372107	 0.116117
H	-0.9151020525	 1.8423014553	 0.7460765464	 0.107145
H	 0.0565231787	-0.4511497634	 0.8166700518	 0.076385
H	-1.1037139989	-0.3611452637	-0.50138355	 0.112424
H	 0.7568030219	 0.0181786894	-2.1168716605	 0.090524
H	 2.4411879469	-0.4103017431	 0.0929277269	 0.273888
H	 1.033988608	-2.5010227841	-0.3798202156	 0.061976
H	-0.5074481382	-3.365507673	-1.8845539168	 0.222856
H	 1.3148054566	-1.0387566697	-3.9384799772	 0.129053
H	 2.9219315553	-1.7311456505	-3.648339715	 0.122796
H	 1.743529859	-2.5931750354	-4.6549750287	 0.110794
H	 1.6727535958	-4.7300890533	-3.1989124047	 0.119852
H	 3.0138547626	-4.0423442728	-2.2760106289	 0.12464
H	 1.5408176905	-4.5564403418	-1.4384511284	 0.107828
34.9727	94.2352	98.0942	157.2662	177.4118	212.2375	229.2503	253.7834	262.7899	298.512	368.9628	382.0582	407.3757	467.0032	529.162	536.0186	714.0044	779.5637	831.1134	885.4317	936.932	957.4034	968.1189	986.0111	991.0325	1045.4634	1069.955	1076.5866	1100.2597	1121.7898	1143.7181	1157.2747	1205.7522	1259.4974	1291.0236	1314.54	1330.3785	1358.9121	1381.5691	1402.2481	1410.5173	1412.4233	1423.2912	1464.5814	1478.3236	1481.4993	1489.2354	1495.9101	1500.9957	1508.4003	1513.7259	2992.8595	3020.9427	3035.8677	3036.8877	3057.5445	3062.1601	3078.7653	3084.874	3095.6186	3096.1045	3101.6487	3118.9584	3139.8623	3490.368	3794.2204
CCC(O)C1NC1(C)C	CC[C@@H](O)[C@H]1NC1(C)C	
InChI=1S/C7H15NO/c1-4-5(9)6-7(2,3)8-6/h5-6,8-9H,4H2,1-3H3	InChI=1S/C7H15NO/c1-4-5(9)6-7(2,3)8-6/h5-6,8-9H,4H2,1-3H3/t5-,6-/m1/s1
