22
gdb 96008	2.89994	1.25593	0.98302	2.0975	82.48	-0.2368	0.0774	0.3141	1270.7149	0.194794	-404.322839	-404.313815	-404.312871	-404.357585	33.871	
C	 0.216788823	 1.5717034074	-0.1523137842	-0.378412
C	 0.0310926428	 0.0826725844	 0.1183884549	 0.128209
O	 0.3327907116	-0.6495200411	-1.0787905701	-0.275171
C	 1.3471182389	-1.6166509066	-0.8337786214	-0.069577
C	 2.0978008912	-1.1236079292	 0.4006126528	-0.243236
C	 0.9548945685	-0.5114281535	 1.2209850543	 0.016474
N	 1.4146341818	 0.4759514841	 2.1845447367	-0.060195
C	 0.5593683377	 0.6993562239	 3.3481575965	-0.226385
C	 1.8447444443	-0.0381028856	 3.4806702975	-0.22663
H	 1.2672751996	 1.8131030672	-0.332624544	 0.120154
H	-0.3613727633	 1.8475494466	-1.0389058278	 0.115854
H	-0.1309527127	 2.17203409	 0.6928320041	 0.113191
H	-1.0211020143	-0.106612431	 0.3732515619	 0.067644
H	 0.9007436246	-2.6080962755	-0.6515300757	 0.08573
H	 1.9737511343	-1.6912659173	-1.7282147933	 0.105466
H	 2.6301263411	-1.9181215322	 0.9296052339	 0.097223
H	 2.8156588528	-0.3402174143	 0.1377927585	 0.117072
H	 0.4080645754	-1.3300340617	 1.7249013674	 0.054765
H	 0.4750594239	 1.7294109367	 3.6818477912	 0.118319
H	-0.3569986383	 0.1166085448	 3.4286497986	 0.111797
H	 1.7849481937	-1.112294926	 3.6499723051	 0.109642
H	 2.7168268333	 0.4428991192	 3.9138100429	 0.11807
27.6707	91.0991	159.6193	177.6329	228.8658	275.7809	309.8368	414.9364	433.3321	477.0692	604.1904	701.7201	763.9906	812.9948	865.1704	877.8001	897.9763	900.8413	954.2279	994.5967	1028.683	1032.1281	1066.0395	1076.2542	1111.493	1115.7079	1119.9634	1146.3679	1159.5543	1182.5885	1191.6641	1205.3213	1238.9679	1301.0163	1321.1254	1330.6681	1339.0947	1382.8735	1387.3869	1402.1601	1414.775	1482.5675	1486.7782	1491.4811	1494.1213	1519.9305	1527.7398	2916.1033	2966.2879	2998.3029	3047.1478	3056.4845	3072.2964	3094.1427	3098.601	3110.5801	3120.0938	3128.3935	3178.0919	3192.3129
CC1OCCC1N1CC1	C[C@H]1OCC[C@H]1N1CC1	
InChI=1S/C7H13NO/c1-6-7(2-5-9-6)8-3-4-8/h6-7H,2-5H2,1H3	InChI=1S/C7H13NO/c1-6-7(2-5-9-6)8-3-4-8/h6-7H,2-5H2,1H3/t6-,7-/m1/s1
