21
gdb 114107	3.1106	1.18273	1.01025	1.7157	78.94	-0.2379	0.0727	0.3106	1260.1735	0.181361	-424.188281	-424.179068	-424.178124	-424.222299	34.841	
C	-0.5474359739	 1.6210719351	 0.020422589	-0.237363
O	-0.3703801564	 0.3617846303	 0.6275055957	-0.239756
C	-1.2357317623	-0.6232008096	 0.1289907138	 0.162302
C	-0.9511060727	-1.223697183	-1.2890268631	-0.346354
C	-1.0226036004	-2.6550205884	-0.6655090059	 0.420279
O	-2.0804544573	-3.4706092338	-1.0833290238	-0.485214
C	 0.3520393569	-3.293898089	-0.3662152795	-0.29025
C	 0.4258722119	-2.4535953883	 0.9463722132	-0.228154
C	-1.0564894993	-2.011484878	 0.7631811916	-0.112733
H	 0.1595204349	 2.3111990617	 0.487308222	 0.125932
H	-0.3485492827	 1.5896940426	-1.0615784151	 0.107013
H	-1.5695818625	 2.0035556031	 0.1700521208	 0.104182
H	-2.2799393674	-0.282450551	 0.2025512351	 0.068017
H	-1.720786366	-1.0291150344	-2.0392641142	 0.098235
H	 0.0298544875	-0.9559122364	-1.692289816	 0.098095
H	-1.9254503593	-3.7163332248	-2.0025049588	 0.274902
H	 0.239110002	-4.3621009441	-0.1610437398	 0.102478
H	 1.1455582152	-3.1534255856	-1.107099545	 0.086733
H	 0.6155403489	-3.0360819123	 1.8491507525	 0.103041
H	 1.1263079539	-1.6177671461	 0.919229294	 0.119042
H	-1.7599393611	-2.3189888178	 1.5363317035	 0.069574
66.6007	107.3007	171.8648	191.1159	216.4778	256.8394	318.1257	357.0636	393.0039	442.9209	515.7046	607.8627	636.2296	753.0877	787.5569	860.2538	887.5631	908.4011	937.8169	948.2031	991.6053	1030.7002	1053.3983	1074.0791	1135.7064	1137.3024	1168.0226	1179.8477	1185.6859	1219.3004	1222.0151	1234.0721	1246.0975	1266.3902	1283.37	1312.7988	1320.6625	1362.6884	1386.6129	1457.9174	1476.7513	1482.3213	1487.4902	1498.0148	1509.3737	2971.364	2980.3544	3020.5523	3043.1641	3053.2475	3081.8983	3099.0329	3113.1913	3113.9721	3116.6501	3138.1761	3790.5323
COC1CC2(O)CCC12	CO[C@H]1C[C@@]2(O)CC[C@@H]12	
InChI=1S/C7H12O2/c1-9-6-4-7(8)3-2-5(6)7/h5-6,8H,2-4H2,1H3	InChI=1S/C7H12O2/c1-9-6-4-7(8)3-2-5(6)7/h5-6,8H,2-4H2,1H3/t5-,6-,7-/m0/s1
