21
gdb 83371	2.11578	1.90391	1.53399	2.2268	76.06	-0.2455	0.0645	0.31	998.5953	0.184936	-424.248231	-424.240133	-424.239189	-424.280092	33.273	
O	-0.1722738936	 1.3893041208	-0.0450371136	-0.462256
C	-0.0383666595	-0.0196194368	 0.046943909	 0.077327
C	 0.3870023564	-0.5950466288	 1.411409324	-0.061521
C	-0.7362509151	-0.0710062233	 2.3385035342	-0.206284
C	-1.9996705903	-0.1232239716	 1.4275328121	-0.257682
C	-1.4468824773	-0.6541169155	 0.078169384	 0.439491
O	-2.2589616991	-0.4181411011	-1.041967532	-0.519334
C	-1.0992055567	-2.1417213597	 0.2355460557	-0.246106
C	 0.1665327129	-2.1064546095	 1.15499782	-0.222438
H	 0.7045635921	 1.7799156014	-0.0986676327	 0.28673
H	 0.5605968063	-0.4102752738	-0.787680327	 0.059935
H	 1.39634139	-0.3486252393	 1.7504274764	 0.049672
H	-0.8314514441	-0.6810849449	 3.2412770339	 0.090577
H	-0.5286668759	 0.9544028556	 2.6525242322	 0.098965
H	-2.7890444325	-0.7736880899	 1.8133034559	 0.09377
H	-2.4270388515	 0.8729070773	 1.2873213941	 0.098516
H	-2.2648518301	 0.536822454	-1.1800308876	 0.280136
H	-1.9276364341	-2.7087412935	 0.6676777012	 0.100571
H	-0.8801872745	-2.573188438	-0.7450094849	 0.103951
H	 1.0303659114	-2.5488145514	 0.6499527356	 0.096893
H	 0.0243885648	-2.6558091322	 2.0895673597	 0.099086
162.1438	201.5766	231.331	264.7633	301.5608	366.9756	372.4835	394.837	450.9251	557.3244	585.0371	613.7555	754.3162	778.0263	802.6464	828.3437	870.4413	920.451	940.3229	961.9475	973.6379	1012.036	1029.2701	1051.6457	1090.7257	1132.6044	1149.5016	1163.2051	1192.636	1214.5107	1217.1355	1238.0462	1268.4569	1288.5331	1299.459	1305.4399	1326.9242	1343.9879	1359.0174	1407.431	1430.3672	1478.5589	1494.843	1495.8941	1518.4767	3006.1343	3048.9181	3053.7783	3061.6756	3063.8274	3079.9367	3086.0145	3094.1223	3108.0607	3114.378	3786.3665	3832.5715
OC1C2CCC1(O)CC2	O[C@H]1[C@H]2CC[C@]1(O)CC2	
InChI=1S/C7H12O2/c8-6-5-1-3-7(6,9)4-2-5/h5-6,8-9H,1-4H2	InChI=1S/C7H12O2/c8-6-5-1-3-7(6,9)4-2-5/h5-6,8-9H,1-4H2/t5-,6-,7-/m0/s1
