18
gdb 102335	1.83596	1.43737	1.2019	3.9789	76.61	-0.2711	-0.0151	0.256	1188.2957	0.145963	-398.139389	-398.12913	-398.128186	-398.174455	36.08	
C	-0.0697196096	 1.5454343814	-0.0887519547	-0.415502
C	 0.0157669098	 0.0241212322	 0.0273594628	-0.213428
C	 0.7730272743	-0.494410761	 1.2845373948	-0.05102
N	 0.8209382564	-1.9527709866	 1.2396407744	-0.293171
C	 1.4497724065	-2.6135039567	 2.3860368871	-0.351193
C	 2.158657433	 0.0268884208	 1.2712489281	 0.34322
N	 3.2364563657	 0.4388992864	 1.2339905394	-0.334725
C	 0.0926505181	 0.0125624718	 2.5121701336	 0.296063
N	-0.4902950887	 0.3275892509	 3.4592086843	-0.338045
H	 0.9247332775	 1.9964578501	-0.149621972	 0.150309
H	-0.6176921689	 1.815467194	-0.9951673572	 0.131467
H	-0.5943524888	 1.9839924412	 0.7649143528	 0.148453
H	-0.9896979307	-0.4102395602	 0.0678178722	 0.120563
H	 0.5285519357	-0.4124574914	-0.8340009574	 0.140581
H	-0.1259802216	-2.2942726762	 1.1108655036	 0.238611
H	 2.5057235656	-2.3329177025	 2.4317668821	 0.157502
H	 0.9821649384	-2.3722672746	 3.3520533631	 0.13339
H	 1.3950524372	-3.6929816795	 2.2289116131	 0.136925
100.9833	106.4374	123.8073	151.3426	172.7482	200.4295	205.4703	259.1607	283.375	370.487	407.8702	489.0521	522.6037	580.9077	638.4951	659.6627	751.0755	793.4607	946.109	958.2241	1000.946	1073.6307	1106.5951	1147.6766	1157.0125	1179.526	1240.3311	1305.5164	1354.643	1420.4382	1460.3512	1480.8676	1485.2559	1495.2854	1499.6592	1506.7747	1521.298	2344.6721	2367.935	2999.2145	3044.8892	3049.5916	3092.0693	3100.8337	3124.2003	3127.4269	3131.0316	3530.9609
CCC(NC)(C#N)C#N	CCC(NC)(C#N)C#N	
InChI=1S/C6H9N3/c1-3-6(4-7,5-8)9-2/h9H,3H2,1-2H3	InChI=1S/C6H9N3/c1-3-6(4-7,5-8)9-2/h9H,3H2,1-2H3
