18
gdb 45301	3.67287	1.3787	1.15958	3.4648	77.52	-0.2508	0.0047	0.2555	1075.6784	0.150857	-401.98786	-401.980734	-401.97979	-402.019799	28.194	
N	 0.0299993481	 1.3153331081	 0.2334417364	-0.540888
C	 0.065071243	 0.0553169013	 0.1604404405	 0.405062
C	-1.0141006247	-0.8216057866	-0.4361342016	-0.31266
C	-0.6834247018	-2.2479754104	 0.0395375473	-0.041846
C	-0.7274331897	-3.3240147088	-1.0724064356	-0.283308
C	 0.7069206882	-3.3930855628	-1.5428216694	-0.054599
C	 1.5426045642	-2.74145058	-0.7359152484	-0.093599
C	 0.8162414505	-2.1211284847	 0.4294441879	 0.067593
O	 1.0995253922	-0.7183141787	 0.6039812188	-0.247156
H	 0.8883284253	 1.6714631968	 0.6578078515	 0.218974
H	-2.0037067088	-0.4701527912	-0.1421710813	 0.13613
H	-0.952386719	-0.7468632258	-1.5275475147	 0.133845
H	-1.3007223497	-2.5175430125	 0.8985927098	 0.083662
H	-1.0553475695	-4.2955955971	-0.6801912669	 0.113963
H	-1.4270400908	-3.0675614533	-1.8767132629	 0.11181
H	 0.9998637488	-3.9438613832	-2.4303302763	 0.102978
H	 2.6177999942	-2.6694043601	-0.8482518269	 0.10679
H	 1.0758253195	-2.5994284609	 1.3804381717	 0.093248
78.4446	107.8701	274.384	323.062	448.3182	483.528	507.2663	577.9037	676.3263	712.0575	778.4178	796.6823	864.3987	872.8399	892.359	905.4191	936.2304	954.782	985.0629	1024.3622	1036.4257	1048.7464	1082.0669	1106.0414	1129.7847	1158.9597	1219.5529	1233.9412	1276.7313	1294.8566	1314.4724	1330.0359	1344.4029	1374.6221	1390.0636	1469.1713	1490.5492	1682.6744	1774.2763	3022.2007	3041.7338	3052.6508	3056.4205	3088.2443	3128.0003	3186.5487	3215.8687	3470.0299
N=C1CC2CC=CC2O1	[NH][C]1C[C@H]2CC=C[C@H]2O1	
InChI=1S/C7H9NO/c8-7-4-5-2-1-3-6(5)9-7/h1,3,5-6,8H,2,4H2	InChI=1S/C7H9NO/c8-7-4-5-2-1-3-6(5)9-7/h1,3,5-6,8H,2,4H2/t5-,6-/m1/s1
