22
gdb 104741	2.02089	1.18414	0.99697	4.3706	87.21	-0.2791	0.0329	0.312	1360.1706	0.19313	-367.231612	-367.221386	-367.220442	-367.266952	37.636	
C	-0.2423212819	 1.5216503958	-0.946463232	-0.389015
C	-0.0803681977	 0.2300092115	-0.1354363294	-0.260539
C	-1.4007308982	-0.4661999748	 0.169843234	 0.363418
C	-2.392221795	 0.2839263421	 1.0521270422	-0.254356
C	-1.8779056289	 0.590680274	 2.4634203517	-0.38627
C	-1.9688159955	-1.3637318423	-0.8915591219	-0.332578
C	-1.3827873212	-1.9857811804	 0.3705569726	-0.228253
C	-0.1607741596	-2.7344514555	 0.30046804	 0.291059
N	 0.8265282719	-3.3368264092	 0.2505002586	-0.350324
H	 0.7361440984	 1.9451279229	-1.1911326908	 0.120739
H	-0.7714003432	 1.3346689826	-1.8869235181	 0.119197
H	-0.8012324397	 2.2849957688	-0.3961361062	 0.120196
H	 0.5671097201	-0.4617601463	-0.6841446365	 0.120831
H	 0.4451639691	 0.4457209729	 0.8022123484	 0.110709
H	-2.6771445649	 1.2175113803	 0.5519246535	 0.107589
H	-3.3134559397	-0.3072139812	 1.1246731049	 0.096307
H	-2.6550848947	 1.0787093531	 3.058932843	 0.118161
H	-1.5807969458	-0.3253572394	 2.9848429535	 0.122912
H	-1.0111379603	 1.2579013272	 2.4447000752	 0.125498
H	-3.0448935927	-1.4310037592	-1.0098100472	 0.123003
H	-1.4040138878	-1.4955095947	-1.80780652	 0.134086
H	-2.0920455628	-2.3826007781	 1.0900652845	 0.127629
61.3015	93.4681	121.1768	141.9604	206.7699	227.3	251.873	286.69	343.6888	369.999	398.778	485.2079	560.6106	609.4995	678.596	771.5818	794.753	806.7426	876.5172	896.9232	948.3266	979.0182	1010.6005	1038.8914	1051.3213	1080.1557	1088.61	1117.7988	1128.4435	1138.1723	1246.6891	1271.8944	1319.2153	1335.9397	1355.6909	1379.8298	1411.4949	1413.398	1417.1609	1480.7157	1485.3206	1490.2679	1500.8112	1502.618	1504.315	1514.8213	2347.6713	3025.2183	3036.9455	3038.0724	3041.847	3056.9429	3074.1981	3106.2866	3108.1657	3110.2769	3112.4836	3135.7021	3160.7356	3224.8431
CCC1(CC)CC1C#N	CCC1(CC)C[C@H]1C#N	
InChI=1S/C8H13N/c1-3-8(4-2)5-7(8)6-9/h7H,3-5H2,1-2H3	InChI=1S/C8H13N/c1-3-8(4-2)5-7(8)6-9/h7H,3-5H2,1-2H3/t7-/m0/s1
