18
gdb 31489	3.06208	1.12332	0.8794	2.6083	77.21	-0.1926	0.0104	0.2031	1341.7303	0.148503	-435.300897	-435.291269	-435.290324	-435.336262	34.147	
C	 0.287818303	 1.4398747532	 0.0233912127	-0.502723
C	 0.0231764894	-0.0190607038	 0.0281823886	 0.271358
C	-1.090121249	-0.8001520435	 0.0899848521	 0.165735
N	-2.4345872135	-0.4465577785	 0.2170253303	-0.601444
N	-0.7216588086	-2.1383151614	 0.0817769172	-0.345992
C	 0.5755922441	-2.12396061	 0.0185431646	 0.358795
C	 1.5122031709	-3.2863901421	-0.0793587379	-0.256558
N	 2.1325600564	-3.4828538412	-1.3981855238	-0.498104
O	 1.1061738653	-0.8822155655	-0.0236112842	-0.217694
H	 0.9764798318	 1.7287883261	 0.826199975	 0.139613
H	 0.7233314471	 1.7870531145	-0.922203017	 0.131411
H	-0.647712012	 1.9834224993	 0.18198702	 0.131642
H	-2.697829939	 0.3619670412	-0.3299095469	 0.244041
H	-3.0315811243	-1.2311709506	-0.0099529413	 0.252462
H	 2.3157378692	-3.1711516522	 0.6563614337	 0.125409
H	 0.9481923457	-4.1842059304	 0.1844132462	 0.137369
H	 1.4014389541	-3.5878336619	-2.0969117447	 0.231516
H	 2.6442097694	-2.6427064531	-1.6542702846	 0.233164
32.9219	92.7054	118.5104	177.72	217.1925	240.8647	253.3097	304.1291	336.0359	414.9673	493.0814	617.3931	644.8121	671.3353	756.8649	768.228	812.8044	878.4581	913.2098	978.4684	1020.3323	1064.3994	1075.6923	1096.8865	1164.139	1185.0627	1275.8307	1335.5826	1365.9145	1394.6896	1401.4731	1436.6441	1469.1831	1471.5191	1495.5967	1601.2571	1641.6418	1665.5295	1707.4876	3017.0467	3051.2139	3064.6606	3112.9748	3114.2428	3483.278	3546.8528	3561.9269	3641.0516
CC1=C(N)N=C(CN)O1	Cc1c(N)nc(CN)o1	
InChI=1S/C5H9N3O/c1-3-5(7)8-4(2-6)9-3/h2,6-7H2,1H3	InChI=1S/C5H9N3O/c1-3-5(7)8-4(2-6)9-3/h2,6-7H2,1H3
