18
gdb 46391	3.95128	0.95249	0.81749	1.5732	73.82	-0.2412	-0.0348	0.2064	1388.4034	0.146088	-439.039588	-439.030957	-439.030012	-439.074041	31.097	
O	-0.1677277381	 0.0842875315	-0.3852848103	-0.271342
C	-0.0458100356	 1.2279042094	-0.0714267552	 0.333294
C	-0.9500689295	 2.3333344803	 0.4870481826	-0.189046
O	 0.1903510044	 3.2128929901	 0.5557625239	-0.290594
C	 1.1095081472	 2.2385071229	-0.0084040485	 0.013251
C	 2.2851515533	 1.8917482326	 0.8904930529	-0.162801
N	 3.268241258	 2.9650259756	 0.8867958269	-0.071438
C	 3.0383287959	 4.0480661294	 1.8430659115	-0.208009
C	 4.1242987625	 3.0563119213	 2.0673973606	-0.227285
H	-1.7280903932	 2.6901220774	-0.2001380225	 0.134535
H	-1.3981515334	 2.1281313272	 1.4675062914	 0.134493
H	 1.4757047183	 2.5601959574	-0.9926692046	 0.120055
H	 1.907809905	 1.6579497793	 1.9024142172	 0.086836
H	 2.7562296007	 0.9837444587	 0.4937334526	 0.124442
H	 3.2691296505	 5.0454354083	 1.4814870734	 0.119876
H	 2.1556639989	 3.9848079014	 2.4742301057	 0.12249
H	 3.9780624882	 2.3255727864	 2.861195335	 0.111103
H	 5.1610225569	 3.3166221908	 1.8753075374	 0.120139
57.9541	75.4711	115.311	129.7739	237.1735	335.6635	352.2067	414.6074	523.9296	545.9062	693.7655	762.6371	819.5627	830.1149	870.3538	891.0201	970.0031	1008.8846	1026.1767	1036.2586	1067.2154	1087.3745	1105.9768	1116.509	1121.375	1138.1161	1171.629	1184.012	1238.9185	1267.3366	1289.8381	1318.6959	1339.1739	1393.4462	1474.1608	1481.3152	1492.1359	1519.9717	1922.8762	2939.8509	3015.7402	3029.211	3054.2543	3063.8892	3097.3138	3112.9581	3183.3773	3201.8301
O=C1COC1CN1CC1	O=C1CO[C@H]1CN1CC1	
InChI=1S/C6H9NO2/c8-5-4-9-6(5)3-7-1-2-7/h6H,1-4H2	InChI=1S/C6H9NO2/c8-5-4-9-6(5)3-7-1-2-7/h6H,1-4H2/t6-/m0/s1
