15
gdb 69227	2.7878	1.63911	1.16521	1.824	68.26	-0.2641	-0.0366	0.2275	1024.6737	0.112944	-453.977838	-453.970099	-453.969155	-454.009983	29.297	
C	-0.0986942449	 1.5277662753	 0.0134703993	-0.488302
C	 0.137229532	 0.0491118923	-0.0061440422	 0.366221
O	-0.6985942677	-0.7847164874	 0.8196705054	-0.276354
C	 0.7150187939	-0.7774883346	 1.0687970779	-0.19166
C	 1.3919734267	-1.966921885	 0.4164864357	 0.452975
O	 2.045405149	-2.8394920634	 0.9271831353	-0.348748
N	 1.1168775334	-1.8409721579	-0.9437873034	-0.397881
C	 0.457385262	-0.6619294333	-1.3022590334	 0.368015
N	 0.1706167947	-0.201460258	-2.446788297	-0.528446
H	 0.7902738827	 2.0633211048	-0.3311735728	 0.138652
H	-0.9223401307	 1.78157491	-0.6585740712	 0.158284
H	-0.3470044198	 1.854406364	 1.0254859637	 0.134883
H	 1.0499271673	-0.4150281678	 2.0341286681	 0.127566
H	 1.3852785246	-2.559061342	-1.600399111	 0.264392
H	 0.467063067	-0.822458077	-3.2019692544	 0.220402
136.259	141.6154	178.6657	258.0146	314.9132	343.5237	424.6013	528.5715	551.8268	561.2524	633.5966	699.1997	737.0894	762.4911	822.9557	880.2595	901.0822	926.9208	1015.94	1055.4288	1085.7354	1102.9034	1183.44	1248.746	1285.1816	1360.671	1381.7627	1407.2489	1450.0549	1476.8138	1492.5765	1769.1286	1860.9088	3054.6807	3126.1061	3141.0076	3190.7359	3460.1852	3624.7525
CC12OC1C(=O)NC2=N	C[C@]12O[C@H]1C(=O)N[C]2[NH]	
InChI=1S/C5H6N2O2/c1-5-2(9-5)3(8)7-4(5)6/h2H,1H3,(H2,6,7,8)	InChI=1S/C5H6N2O2/c1-5-2(9-5)3(8)7-4(5)6/h2H,1H3,(H2,6,7,8)/t2-,5-/m0/s1
