21
gdb 56677	2.42588	1.25392	1.13893	1.3214	83.68	-0.2611	0.0321	0.2932	1219.3078	0.180077	-387.044049	-387.034098	-387.033154	-387.078437	37.783	
C	-0.1951944326	 1.7429080977	 0.1606841361	-0.4865
C	 0.0750990124	 0.2457685621	 0.0685430283	 0.346234
C	 1.2098011401	-0.2157984062	-0.9009164986	-0.260756
C	 1.7706885662	-1.1368436028	 0.2167509274	-0.214863
C	 0.8777788058	-0.3919534841	 1.2458732843	-0.263782
C	-1.224994736	-0.5584858879	-0.1807712513	-0.094123
O	-2.1422769416	-0.4445777597	 0.9051729782	-0.429262
C	-1.8585216997	-0.2084943736	-1.4571542441	 0.299563
C	-2.3923402014	 0.1100957828	-2.4867893028	-0.450165
H	 0.7365677133	 2.2903608705	 0.3327239263	 0.113403
H	-0.6484343486	 2.1264805038	-0.7595654056	 0.126016
H	-0.8655319738	 1.9735763089	 0.9970388922	 0.109202
H	 0.8937184383	-0.6869201946	-1.8356156934	 0.103803
H	 1.8876359946	 0.6064486676	-1.1464144103	 0.097199
H	 1.4830649005	-2.1834344903	 0.0852926184	 0.103982
H	 2.8491111588	-1.1040544244	 0.385627829	 0.097688
H	 1.4333772873	 0.3634206835	 1.8086178246	 0.092069
H	 0.2997390594	-0.9914343552	 1.9526337578	 0.111641
H	-0.9628997048	-1.6235830363	-0.2074964548	 0.112582
H	-2.592644111	 0.4022045655	 0.8193445332	 0.287356
H	-2.8660618574	 0.3745818425	-3.3999637749	 0.198714
76.5071	114.3748	138.1915	205.1801	222.9355	240.5356	282.0731	305.9782	333.348	356.6428	465.6379	503.2461	586.2023	626.1151	665.5106	669.5471	748.5871	784.6866	832.2785	882.8119	911.3522	943.7721	967.7971	988.4013	996.776	1043.5831	1082.5207	1157.5124	1163.8912	1206.3365	1217.3327	1255.7574	1262.9138	1275.5744	1281.7251	1307.0123	1349.9143	1406.2949	1417.169	1479.2504	1486.0514	1494.7185	1501.5059	1510.0398	2227.1755	3025.1756	3032.1155	3053.2281	3057.8918	3063.2039	3090.2052	3096.0406	3103.1464	3108.3633	3120.8434	3501.6705	3817.9939
CC1(CCC1)C(O)C#C	CC1(CCC1)[C@@H](O)C#C	
InChI=1S/C8H12O/c1-3-7(9)8(2)5-4-6-8/h1,7,9H,4-6H2,2H3	InChI=1S/C8H12O/c1-3-7(9)8(2)5-4-6-8/h1,7,9H,4-6H2,2H3/t7-/m0/s1
