13
gdb 19394	3.35832	2.29773	1.62809	4.3594	58.7	-0.2527	-0.0339	0.2188	770.2639	0.094994	-398.541014	-398.534561	-398.533617	-398.571643	24.109	
O	-0.0383771968	 0.0326025421	-0.0747479523	-0.286582
C	-0.019728426	 1.2151558524	 0.0309806299	 0.335942
N	-1.1216324075	 2.1766617397	-0.0440775524	-0.180994
C	-1.0289691027	 3.0080718902	 1.1949245039	-0.253455
C	-0.0934053545	 3.3067207412	 0.1014419071	-0.127378
C	 1.0481732858	 2.3089101506	 0.126694185	 0.333995
C	 2.3958892419	 2.3359309373	 0.7030061712	-0.257805
O	 2.176099031	 2.3528860696	-0.7126769064	-0.255733
H	-1.8993050277	 3.6418969962	 1.3292291157	 0.148251
H	-0.6605608174	 2.5431181376	 2.1063497849	 0.136849
H	-0.145958988	 4.1779311232	-0.5381985672	 0.134978
H	 2.7693782483	 3.2654098654	 1.1291545218	 0.130574
H	 2.8274815436	 1.4171333544	 1.0948891986	 0.141357
133.9077	197.1733	233.594	282.474	447.5336	491.2441	616.9028	673.149	747.5626	761.0192	822.4155	875.7869	923.2802	952.4654	984.8087	1036.4835	1045.3134	1119.615	1126.3865	1132.0184	1159.7525	1186.2869	1229.6112	1307.5213	1438.9257	1504.2962	1525.3511	1928.1054	3091.7894	3113.9103	3187.9757	3205.5425	3215.4343
O=C1N2CC2C11CO1	O=C1N2C[C@H]2[C@]21CO2	
InChI=1S/C5H5NO2/c7-4-5(2-8-5)3-1-6(3)4/h3H,1-2H2	InChI=1S/C5H5NO2/c7-4-5(2-8-5)3-1-6(3)4/h3H,1-2H2/t3-,5-,6?/m0/s1
