18
gdb 54659	3.29739	1.26737	0.9813	3.8184	79.34	-0.236	-0.0481	0.1879	1204.569	0.147823	-401.953517	-401.945313	-401.944368	-401.986737	31.007	
C	-0.089671197	 1.5039032244	 0.0038670393	-0.495051
C	-0.0678469985	-0.0140952163	 0.0340685115	 0.291674
O	-0.0970257757	-0.6292968729	 1.0815565985	-0.310964
C	-0.0138754446	-0.7144344287	-1.2757479597	 0.282212
C	-0.0836917278	-2.0494650154	-1.4098819618	-0.140171
C	-0.0092219994	-2.4979926292	-2.8487920696	-0.264997
C	 0.0448275626	-1.1819361827	-3.6191664527	-0.037591
N	-1.1599146903	-0.3446946043	-3.4443466364	-0.331254
C	 0.0583445289	-0.071041588	-2.6278592857	-0.199852
H	 0.8277038889	 1.8917245329	-0.4549780085	 0.134075
H	-0.9275474734	 1.863942373	-0.6036772412	 0.144096
H	-0.1754500648	 1.887504758	 1.0207955084	 0.139844
H	-0.2072710588	-2.7284608202	-0.5745517667	 0.127485
H	 0.8821016564	-3.1141531078	-3.0278822506	 0.116803
H	-0.8770388936	-3.1056722023	-3.132136881	 0.131184
H	 0.5894681914	-1.122924544	-4.5550954967	 0.092594
H	-1.1945407683	 0.3246388317	-4.2118785923	 0.229395
H	 0.5989134539	 0.8546929219	-2.7915956648	 0.090519
55.6981	137.8131	163.6137	188.8897	296.6338	364.0017	388.6439	441.2822	520.6888	612.8633	660.8575	730.3613	814.0715	819.0859	843.8623	866.7837	913.1814	932.1481	958.3747	986.8729	1006.6723	1045.345	1061.2122	1088.3483	1136.2222	1167.098	1189.8655	1240.3823	1265.0127	1268.4079	1334.736	1378.5523	1380.2029	1414.9959	1454.1543	1464.2534	1474.8449	1650.2968	1775.6723	3022.3655	3031.654	3060.7431	3092.0569	3154.0471	3166.1349	3175.7771	3215.892	3476.0403
CC(=O)C1=CCC2NC12	CC(=O)C1=CC[C@H]2N[C@@H]12	
InChI=1S/C7H9NO/c1-4(9)5-2-3-6-7(5)8-6/h2,6-8H,3H2,1H3	InChI=1S/C7H9NO/c1-4(9)5-2-3-6-7(5)8-6/h2,6-8H,3H2,1H3/t6-,7+/m1/s1
