16
gdb 127390	3.94372	1.11889	1.06148	2.3485	71.64	-0.2442	-0.0519	0.1922	1156.3869	0.124605	-433.990132	-433.982418	-433.981474	-434.023141	28.32	
C	 0.2565231637	 1.5185874892	-0.4815161945	-0.328918
N	 0.0597306492	 0.1207227309	-0.1136730444	-0.08206
C	 1.2396463049	-0.7169196542	-0.0089787866	-0.248694
C	 0.4812075349	-0.3437351468	 1.2238477176	-0.114441
C	 1.0668500148	 0.5532458187	 2.2404343259	 0.349601
N	 2.168580267	 1.2477449598	 2.0888474348	-0.159931
O	 2.3370734838	 1.9517202002	 3.2479805157	-0.145608
N	 1.3388234498	 1.6882845022	 4.1408669707	-0.060134
C	 0.5545509829	 0.838420891	 3.5421448429	-0.11708
H	 1.1860108354	 1.9614291025	-0.0980775641	 0.135738
H	 0.2673631578	 1.5789811296	-1.5737589823	 0.130715
H	-0.5899023484	 2.1084817101	-0.1165295785	 0.125931
H	 1.1505936915	-1.7253471586	-0.4044249637	 0.123044
H	 2.2152758072	-0.2510405083	-0.135081982	 0.137903
H	-0.2089249608	-1.0671187252	 1.6509691304	 0.10133
H	-0.3295554337	 0.4561330989	 4.0287073281	 0.152603
47.4963	130.4661	183.1654	222.6816	305.2425	358.5222	428.8345	492.4462	645.8234	671.6113	727.6105	782.3082	873.2985	895.746	899.9984	934.8682	976.4944	1028.4119	1036.0517	1073.2868	1100.8607	1130.9832	1135.5784	1171.5302	1188.7243	1211.9536	1322.8949	1333.1791	1449.4498	1455.9173	1473.8093	1491.745	1503.055	1512.4613	1605.966	3008.0704	3084.1454	3098.7683	3110.2536	3135.8134	3188.0981	3267.8059
CN1CC1C1=NON=C1	CN1C[C@H]1c1nonc1	
InChI=1S/C5H7N3O/c1-8-3-5(8)4-2-6-9-7-4/h2,5H,3H2,1H3	InChI=1S/C5H7N3O/c1-8-3-5(8)4-2-6-9-7-4/h2,5H,3H2,1H3/t5-,8?/m0/s1
