18
gdb 49637	2.98166	1.60822	1.49461	1.3602	74.29	-0.226	-0.03	0.1959	953.2382	0.149182	-401.897872	-401.890718	-401.889774	-401.929866	27.847	
O	-0.5968068766	 0.6263612254	 0.5773947513	-0.250255
C	 0.1748451745	 0.9535220242	-0.2909454869	 0.138175
C	 1.2691625245	 1.9707020642	-0.149719956	-0.089292
C	 1.1386349011	 3.3236826883	-0.9116236912	-0.023049
C	-0.2038364112	 4.0584018937	-0.724460912	-0.25148
C	 0.3179363728	 4.5077217237	 0.6546272013	 0.015392
C	 0.235051916	 3.4357129272	 1.7568070453	-0.248657
C	 1.4909147793	 2.7964128776	 1.1316464598	-0.016458
N	 1.7449067207	 4.0581032589	 0.2874224708	-0.160696
H	 0.1013027409	 0.5082883829	-1.3114547212	 0.07698
H	 2.2087382281	 1.4987614659	-0.4635957965	 0.106079
H	 1.634999774	 3.3982308287	-1.8807470738	 0.08046
H	-0.2870508049	 4.8984391324	-1.4186323397	 0.114623
H	-1.1313377285	 3.4799051589	-0.7609014044	 0.111407
H	 0.1610397132	 5.5495911355	 0.9401950397	 0.075871
H	 0.4684955387	 3.8596531586	 2.7368155201	 0.110334
H	-0.6665323672	 2.8276196707	 1.8335857286	 0.130174
H	 2.2790800346	 2.456585083	 1.8054328247	 0.080392
60.1597	163.2372	196.371	310.2194	354.7372	426.782	612.7069	652.1186	713.4781	720.1133	811.3846	849.6898	876.6213	905.8185	913.061	945.9909	952.3685	961.6129	985.1975	1037.0797	1068.8942	1075.4067	1109.2338	1122.8718	1144.0572	1183.5641	1208.4273	1214.5001	1249.5653	1266.535	1285.7182	1306.9913	1347.1681	1355.1065	1363.875	1429.1122	1476.3285	1490.5411	1815.9604	2850.467	3034.6647	3054.6515	3068.6397	3085.474	3086.1547	3093.6506	3110.4419	3136.4804
O=CC1C2CC3CC1N23	O=C[C@H]1[C@H]2C[C@H]3C[C@@H]1N23	
InChI=1S/C7H9NO/c9-3-5-6-1-4-2-7(5)8(4)6/h3-7H,1-2H2	InChI=1S/C7H9NO/c9-3-5-6-1-4-2-7(5)8(4)6/h3-7H,1-2H2/t4-,5-,6+,7-
