15
gdb 20981	4.72715	1.61316	1.22935	4.6825	64.09	-0.2265	-0.0298	0.1967	946.4699	0.118823	-395.929793	-395.922104	-395.92116	-395.962168	26.974	
C	 0.0186523804	 1.4253626896	 0.096962933	-0.342465
N	-0.0090203248	 0.0083130274	-0.2222960943	-0.152918
C	 1.2100265782	-0.7414984225	 0.0440607764	-0.334622
C	-1.1934331676	-0.6673122436	-0.0900089435	 0.424047
N	-1.2664827519	-1.9704342614	 0.0806619931	-0.204617
O	-2.6161768823	-2.2645433853	 0.088373489	-0.160816
N	-3.3692716178	-1.144582396	-0.0514803914	-0.060424
C	-2.5313463151	-0.1550378261	-0.1596220581	-0.117421
H	 0.9370269686	 1.8595845761	-0.3065963614	 0.136544
H	-0.8229233971	 1.9399820121	-0.3724787718	 0.137364
H	-0.0100394988	 1.6249318704	 1.1797254073	 0.124048
H	 1.3651552241	-0.926461875	 1.1176571224	 0.124344
H	 1.1590979317	-1.7073951716	-0.4609013925	 0.162555
H	 2.0627946155	-0.1781654482	-0.3432223079	 0.123704
H	-2.8861548431	 0.8553311742	-0.2814547403	 0.140677
74.8966	143.8831	165.7866	181.9111	245.0929	365.3993	380.7103	498.0176	619.586	622.0694	728.6038	860.2924	914.3293	929.8946	953.6365	1032.2981	1059.8127	1085.4549	1128.2123	1172.8711	1201.1883	1267.1881	1304.9776	1437.8271	1451.6098	1467.2536	1481.1381	1492.0695	1499.7581	1504.87	1541.806	1641.9998	2983.2623	2997.0883	3085.9607	3090.4854	3125.9547	3142.8335	3277.1078
CN(C)C1=NON=C1	CN(C)c1nonc1	
InChI=1S/C4H7N3O/c1-7(2)4-3-5-8-6-4/h3H,1-2H3	InChI=1S/C4H7N3O/c1-7(2)4-3-5-8-6-4/h3H,1-2H3
