17
gdb 88123	2.63119	1.545	1.16858	3.0864	69.29	-0.2551	0.0022	0.2573	1080.0628	0.135531	-458.990617	-458.982364	-458.98142	-459.023692	30.301	
C	-0.0600525643	 1.5156709554	 0.0659419131	-0.409478
C	 0.0357757484	 0.008451934	 0.0210076632	-0.065119
C	 1.3593272688	-0.6721267903	-0.242908024	-0.345864
C	 0.7666692589	-0.7315945022	 1.1288810637	 0.244457
O	 1.3845171225	-0.052426292	 2.1934053847	-0.284968
C	 0.8046546817	-0.5752605216	 3.3681356487	 0.016527
O	 0.311599164	-1.8771178986	 3.0588679873	-0.233373
C	 0.1982136939	-1.9845494984	 1.701939194	 0.405665
O	-0.2834793372	-2.9267239392	 1.1449446895	-0.350669
H	 0.8147042734	 1.9496582548	 0.5573322619	 0.133065
H	-0.1262118896	 1.929263328	-0.945564752	 0.126866
H	-0.9483599131	 1.8387623343	 0.6185880107	 0.123492
H	-0.8392618736	-0.5136777583	-0.3567948646	 0.114742
H	 1.3737488529	-1.5949449926	-0.8122357822	 0.142291
H	 2.2336347419	-0.0381924959	-0.3479923012	 0.131846
H	 1.5710329236	-0.6549695586	 4.1430711599	 0.1361
H	-0.0359268121	 0.0439650715	 3.7153739874	 0.114418
90.5276	140.8269	171.2608	186.2681	199.5568	270.669	377.6739	463.3625	534.5476	581.6332	710.7911	732.3444	751.8135	823.6513	883.7955	899.4671	932.1866	998.1547	1013.0317	1059.7958	1079.5594	1115.229	1120.1404	1144.4266	1167.686	1190.4378	1222.8692	1295.0659	1303.5258	1399.0958	1422.3182	1442.1227	1472.0581	1491.677	1502.1494	1546.18	1893.0946	2993.8311	3037.8703	3099.1766	3100.2931	3117.7	3133.2487	3151.1847	3228.8863
CC1CC11OCOC1=O	C[C@H]1C[C@]21OCOC2=O	
InChI=1S/C6H8O3/c1-4-2-6(4)5(7)8-3-9-6/h4H,2-3H2,1H3	InChI=1S/C6H8O3/c1-4-2-6(4)5(7)8-3-9-6/h4H,2-3H2,1H3/t4-,6+/m0/s1
