20
gdb 85821	2.00017	1.4561	1.34272	2.3224	78.94	-0.2404	0.024	0.2644	1129.9596	0.171416	-399.326038	-399.31628	-399.315335	-399.360079	36.764	
C	-0.4094981012	 1.4476687127	-0.0686387096	-0.417843
C	-0.0581911153	-0.0371642585	 0.0055334773	 0.014735
C	 1.1329713113	-0.4700231457	-0.8971962742	-0.268008
C	 2.0764969748	-0.521736511	 0.3434105907	 0.09615
N	 2.8665654873	-1.7426821107	 0.4698528781	-0.550608
C	 2.8758360293	 0.6984568993	 0.5055830801	 0.247313
N	 3.5121854902	 1.6491977958	 0.685512155	-0.361167
C	 0.7691071626	-0.475330179	 1.2522267561	 0.010853
N	 0.662166091	 0.3136236313	 2.4488621458	-0.516707
H	 0.4765642358	 2.0874952661	 0.0030246559	 0.132085
H	-0.8977074966	 1.6732494314	-1.0223724144	 0.117431
H	-1.0941602449	 1.7261044734	 0.7377879531	 0.131841
H	-0.9678943317	-0.6267871866	-0.1350060147	 0.079245
H	 1.0220757303	-1.476966667	-1.3041434986	 0.118048
H	 1.4181360664	 0.2181106767	-1.6952609725	 0.114183
H	 3.5819591865	-1.7728987012	-0.2531419123	 0.240329
H	 3.3650353537	-1.7447356343	 1.3569974021	 0.236519
H	 0.5526800946	-1.5188893242	 1.4973033763	 0.099534
H	 1.1765241625	-0.1019356039	 3.2180819048	 0.232065
H	 1.0275579334	 1.2513201253	 2.3142139811	 0.244003
79.9897	129.602	177.9994	203.2128	234.1844	252.2748	274.3553	304.5512	319.5668	355.5038	425.2753	511.1788	565.1511	623.091	658.2144	741.2747	799.765	826.3804	843.8859	893.6336	904.2694	943.5716	972.8654	1048.0101	1063.2794	1126.6743	1150.9207	1188.2738	1213.0239	1243.2634	1256.4245	1275.6747	1294.6251	1300.6963	1371.5008	1408.6493	1424.6817	1478.8557	1500.3505	1506.7794	1653.8161	1665.6183	2326.3748	3035.4352	3060.9589	3071.9298	3078.623	3102.3918	3113.4941	3133.9868	3472.1224	3504.1392	3548.6994	3583.8531
CC1CC(N)(C#N)C1N	C[C@H]1C[C@@](N)(C#N)[C@H]1N	
InChI=1S/C6H11N3/c1-4-2-6(9,3-7)5(4)8/h4-5H,2,8-9H2,1H3	InChI=1S/C6H11N3/c1-4-2-6(9,3-7)5(4)8/h4-5H,2,8-9H2,1H3/t4-,5-,6+/m0/s1
