24
gdb 6892	2.65787	1.39947	1.23438	0.0725	86.	-0.2495	0.0804	0.3299	1193.937	0.221423	-314.274749	-314.264422	-314.263478	-314.309185	38.364	
C	 2.1165136754	 2.3465204817	-0.5859463623	-0.373153
C	 1.0072339087	 1.2963900241	-0.4420441545	-0.201584
C	 1.1917636275	 0.12628171	-1.3898686917	-0.038308
C	 2.0220188535	-1.1028174957	-1.052948104	-0.046701
C	 2.7382468219	-1.2880894509	 0.2691268405	-0.415239
C	 0.5167281317	-1.2238926256	-1.2209893167	 0.301055
C	-0.3759474033	-1.4950861778	-0.0225078779	-0.451047
C	 0.0200231281	-1.9039085411	-2.4855428947	-0.44596
H	 3.0972763703	 1.919314839	-0.3525929448	 0.118041
H	 2.1615662965	 2.7335790036	-1.6100182466	 0.112412
H	 1.9501647107	 3.1959747004	 0.0843029792	 0.107137
H	 0.9673148836	 0.956649127	 0.5973371849	 0.092583
H	 0.0350931375	 1.7681449578	-0.6389461229	 0.094151
H	 1.2763012695	 0.4526661605	-2.4261364757	 0.068575
H	 2.5934028934	-1.5009211556	-1.889594526	 0.072226
H	 2.2002281306	-0.8487300826	 1.112175826	 0.114878
H	 2.8795351647	-2.3519326127	 0.492051329	 0.114353
H	 3.731374925	-0.8253889877	 0.2411562864	 0.115113
H	-0.018919839	-1.0300719616	 0.8979995577	 0.112334
H	-1.3911538107	-1.1231029797	-0.2058989213	 0.111988
H	-0.4535441119	-2.5731403886	 0.1634786789	 0.110691
H	-0.0223713358	-2.9930125965	-2.3598408395	 0.108838
H	-0.9891972859	-1.563660777	-2.7490884987	 0.108879
H	 0.674472178	-1.6928434108	-3.3372289452	 0.108738
76.5903	140.5204	164.0201	181.6574	197.5265	210.2236	241.0341	260.6201	290.4107	305.7359	368.7987	454.9367	489.2749	539.2557	684.5779	764.8004	772.5615	829.1949	935.5581	964.9152	967.9384	986.4572	1002.8817	1051.3705	1057.2556	1074.054	1113.3678	1137.3372	1157.8706	1183.2906	1190.8684	1260.6134	1296.7186	1334.2697	1338.0714	1392.2916	1408.8487	1411.1077	1415.0711	1426.7902	1458.4289	1477.173	1485.6289	1490.8033	1497.0541	1498.0325	1500.9016	1505.5619	1507.3292	1521.842	3013.5279	3017.9381	3024.7195	3030.2248	3031.1702	3069.2562	3070.4192	3075.2243	3081.7048	3092.853	3095.9073	3102.6299	3104.7836	3109.1992	3121.727	3130.7232
CCC1C(C)C1(C)C	CC[C@H]1[C@@H](C)C1(C)C	
InChI=1S/C8H16/c1-5-7-6(2)8(7,3)4/h6-7H,5H2,1-4H3	InChI=1S/C8H16/c1-5-7-6(2)8(7,3)4/h6-7H,5H2,1-4H3/t6-,7+/m1/s1
