20
gdb 17888	3.70902	1.85214	1.66307	1.3956	74.07	-0.2449	0.0895	0.3344	884.742	0.179527	-348.996132	-348.989029	-348.988085	-349.026984	28.494	
C	-0.1185808046	 1.5080030873	-0.0057009681	-0.433152
C	 0.0327679349	-0.0088210558	 0.014295819	 0.055425
C	 1.2041648854	-0.5926105191	-0.8303370613	-0.037748
C	 2.1143164956	-0.4376239703	 0.4218367172	-0.23267
C	 0.797448871	-0.6059972767	 1.2329123564	-0.037749
C	 0.4766670862	-2.1036540226	 1.3157877913	-0.073236
O	 0.9624278342	-2.8093250161	 0.1793807038	-0.261903
C	 0.9425188678	-2.0883184722	-1.0474493694	-0.073237
H	 0.8284281703	 2.0231916248	 0.1843352279	 0.116295
H	-0.4902995007	 1.8497291793	-0.9782273548	 0.113712
H	-0.8324177706	 1.8384723971	 0.7571789221	 0.113712
H	-0.9439498847	-0.4711958769	-0.1812379218	 0.056724
H	 1.4756744733	-0.0954679052	-1.7660124186	 0.058847
H	 2.8991222476	-1.1824216736	 0.5717084445	 0.103604
H	 2.5375808247	 0.5637019598	 0.5117684577	 0.097957
H	 0.6923480153	-0.121257715	 2.2077652391	 0.058847
H	 0.9680604653	-2.5667327199	 2.1793152503	 0.102328
H	-0.6112038614	-2.2466616776	 1.4304387439	 0.084957
H	-0.0201116066	-2.2272053806	-1.5681336118	 0.084957
H	 1.725990907	-2.5417827168	-1.6656167375	 0.102328
169.5141	206.6011	249.1746	268.1391	314.9295	404.7515	433.2928	543.9662	646.2086	805.7951	827.9147	831.754	865.0849	865.7042	916.8767	964.6108	989.3272	998.917	1038.6773	1047.8842	1082.6496	1096.653	1105.0558	1150.1866	1161.1582	1170.9725	1236.0853	1242.0983	1268.6792	1274.5419	1300.7493	1312.9779	1319.5442	1379.3127	1387.5011	1413.9038	1420.7512	1486.5387	1497.47	1501.0884	1506.1819	1514.5822	2956.676	2963.7417	3008.379	3027.8281	3050.1952	3052.1448	3064.2173	3067.07	3076.6952	3089.3028	3100.6426	3128.3293
CC1C2CC1COC2	C[C@H]1[C@H]2C[C@@H]1COC2	
InChI=1S/C7H12O/c1-5-6-2-7(5)4-8-3-6/h5-7H,2-4H2,1H3	InChI=1S/C7H12O/c1-5-6-2-7(5)4-8-3-6/h5-7H,2-4H2,1H3/t5-,6-,7+
