22
gdb 60201	3.34307	0.75154	0.69962	2.9432	86.16	-0.2394	-0.0297	0.2097	1709.6817	0.191524	-404.332265	-404.32195	-404.321006	-404.368213	37.338	
C	-0.4105443376	 1.4357718574	-0.1647234942	-0.378168
C	-0.009142396	-0.0407984185	-0.0705549169	 0.038955
C	 0.6145220651	-0.5389049429	-1.3802489103	-0.394114
C	 0.952597223	-0.2930533353	 1.1016920129	-0.142981
N	 0.3036152161	 0.0336135053	 2.3744631418	-0.073276
C	-0.247022685	-1.0345832427	 3.164874677	-0.252597
C	 0.9522375004	-0.2653635103	 3.6590833323	-0.090072
C	 2.2490507005	-0.9842263434	 3.7532712075	 0.155855
O	 3.0496068223	-0.7933999996	 4.6360950079	-0.264684
H	 0.459004718	 2.0593412986	-0.4063758821	 0.108677
H	-1.1572647069	 1.5894120297	-0.9503439592	 0.10803
H	-0.8242771428	 1.7882983233	 0.7827396363	 0.131049
H	-0.9157673625	-0.6318979174	 0.1231249576	 0.07603
H	 1.538271811	 0.00651635	-1.6082823725	 0.115275
H	 0.8601627437	-1.6053565329	-1.333035145	 0.109734
H	-0.070867756	-0.390044511	-2.2203471831	 0.115895
H	 1.2997923843	-1.3375185696	 1.0593890355	 0.087216
H	 1.8357815757	 0.3500797014	 0.9981602066	 0.109867
H	-1.209702846	-0.8595146402	 3.637520339	 0.132457
H	-0.0747178978	-2.060545741	 2.8359838354	 0.117993
H	 0.8192307356	 0.4941145991	 4.4254126599	 0.113956
H	 2.4412545348	-1.7347869702	 2.9556783533	 0.074902
48.7609	80.2002	105.931	148.7731	215.3586	229.3908	237.8775	282.2101	336.3933	393.0797	402.532	422.741	457.4239	554.6474	777.5689	833.0506	870.6594	895.0294	930.0464	937.4956	957.7861	973.3772	1011.729	1032.8632	1079.881	1114.442	1125.3472	1151.7159	1179.218	1195.2951	1201.0574	1291.3672	1308.6633	1328.7772	1341.7255	1373.0646	1392.3754	1400.2713	1421.5268	1445.2309	1482.8939	1489.646	1494.3515	1502.5552	1508.0977	1513.2201	1812.2445	2887.6242	2971.28	3002.1127	3024.6798	3029.8668	3050.023	3078.8384	3088.3916	3093.8472	3102.7072	3126.1752	3148.6726	3177.2481
CC(C)CN1CC1C=O	CC(C)CN1C[C@H]1C=O	
InChI=1S/C7H13NO/c1-6(2)3-8-4-7(8)5-9/h5-7H,3-4H2,1-2H3	InChI=1S/C7H13NO/c1-6(2)3-8-4-7(8)5-9/h5-7H,3-4H2,1-2H3/t7-,8?/m0/s1
