17
gdb 88133	2.80111	1.4414	1.09357	4.5922	68.7	-0.2596	-0.0096	0.25	1121.9192	0.135633	-458.99165	-458.983373	-458.982429	-459.024894	30.314	
C	 0.0615881386	 1.4844824417	-0.2932979782	-0.426085
C	 0.0636877367	 0.0072058748	-0.0022969461	 0.010779
O	 1.3367452003	-0.6422376012	 0.1078694394	-0.28068
C	 0.5196494207	-0.5482842076	 1.2788687577	 0.24284
C	 1.0057103095	 0.1999295224	 2.5013347315	-0.345428
C	 1.1041514606	-0.9237413811	 3.5523851343	-0.090527
O	 0.2483341988	-1.9912325706	 3.0977346997	-0.22711
C	-0.0432064884	-1.8651623203	 1.7785372785	 0.416522
O	-0.6564005896	-2.6843520778	 1.1593437477	-0.342385
H	 0.8128474269	 2.0111628992	 0.3000369742	 0.127004
H	 0.2762693291	 1.6604369334	-1.3520472618	 0.139886
H	-0.9229512496	 1.9122817741	-0.0764419309	 0.130496
H	-0.6725868889	-0.5904275915	-0.5405217114	 0.120048
H	 1.961899861	 0.6953948019	 2.3284578219	 0.136531
H	 0.2742698454	 0.9537710193	 2.8088148971	 0.127278
H	 2.1221156478	-1.3171510659	 3.6393949225	 0.130672
H	 0.7574639211	-0.6250933709	 4.5431538239	 0.13016
69.3768	160.2033	166.652	185.0771	194.0933	308.2188	361.542	452.3451	536.33	570.2583	686.6354	717.6723	733.8968	795.5723	854.2359	916.7653	965.2274	989.7108	1008.9344	1055.982	1080.4243	1107.0133	1135.9603	1185.9401	1222.265	1241.0714	1252.7047	1302.3374	1352.4295	1404.3765	1410.8268	1467.721	1479.22	1488.8866	1510.1903	1525.68	1884.1581	3041.5	3054.958	3060.5718	3106.6751	3112.2027	3115.4599	3130.5885	3134.0404
CC1OC11CCOC1=O	C[C@H]1O[C@]21CCOC2=O	
InChI=1S/C6H8O3/c1-4-6(9-4)2-3-8-5(6)7/h4H,2-3H2,1H3	InChI=1S/C6H8O3/c1-4-6(9-4)2-3-8-5(6)7/h4H,2-3H2,1H3/t4-,6+/m1/s1
