12
gdb 20665	3.45412	2.32303	1.40081	4.2898	59.82	-0.2787	-0.1043	0.1744	807.0568	0.082493	-414.644976	-414.638072	-414.637128	-414.676184	24.721	
C	-0.03054467	 1.5119633804	 0.0135827059	-0.480255
C	-0.0077937813	 0.0201883546	-0.027784005	 0.105874
C	-0.0428792623	-0.7196111129	-1.1521082191	-0.045512
N	-0.0198698321	-2.1104481067	-1.1428483981	-0.109336
N	 0.034293782	-2.7732649832	-0.1078899389	 0.061703
O	 0.0760264981	-2.0651501532	 1.1612219446	-0.260975
C	 0.0576644496	-0.6957198499	 1.2542371864	 0.441135
O	 0.0946096921	-0.1736569967	 2.3366262384	-0.32507
H	 0.8592358527	 1.8885239221	 0.5287843198	 0.165906
H	-0.0769638441	 1.9404881255	-0.9895100592	 0.134062
H	-0.8892182799	 1.8599601037	 0.597199765	 0.165854
H	-0.091495625	-0.2854153938	-2.1438132297	 0.146613
113.243	151.6324	224.8101	275.5796	371.2548	392.7613	528.5295	576.1265	608.8957	628.4039	785.2205	818.8523	909.7755	933.2622	1016.4472	1062.2617	1077.7888	1126.082	1268.7905	1392.9794	1416.2806	1463.9301	1473.3393	1595.514	1677.4455	1830.2302	3044.5799	3101.7329	3138.0038	3206.6033
CC1=CN=NOC1=O	Cc1cnnoc1=O	
InChI=1S/C4H4N2O2/c1-3-2-5-6-8-4(3)7/h2H,1H3	InChI=1S/C4H4N2O2/c1-3-2-5-6-8-4(3)7/h2H,1H3
