21
gdb 113868	3.91583	0.8051	0.74494	2.1625	79.64	-0.26	0.0781	0.3381	1585.861	0.182347	-424.187185	-424.17792	-424.176976	-424.222411	34.081	
O	-0.1156793214	 1.3648385235	-0.9027026533	-0.41914
C	 0.0672138817	 0.3084662785	 0.0261880333	-0.087805
C	-1.2431513298	-0.3814707582	 0.3134945982	 0.027532
O	-1.7711688472	-1.1698630879	-0.7670002936	-0.276368
C	-1.4284337469	-1.8369074642	 0.4566208564	 0.041659
C	-0.3407039476	-2.8711609223	 0.4185847852	 0.022888
C	 0.2156605496	-3.3975139177	 1.7747054861	-0.235771
C	 0.2564913786	-4.8231675697	 1.1619379895	-0.209601
C	-0.7345719036	-4.3383459696	 0.0701346483	-0.231051
H	-0.526215476	 0.9751448051	-1.6831938267	 0.293044
H	 0.8148877248	-0.4121702569	-0.3314745302	 0.092913
H	 0.4545308149	 0.768080769	 0.9421935586	 0.112133
H	-1.9879690449	 0.268058735	 0.7778650985	 0.09523
H	-2.3045459521	-2.1482046562	 1.033102533	 0.084397
H	 0.4732238379	-2.5409910801	-0.2309454074	 0.076856
H	 1.1481896312	-2.9626118953	 2.1419969084	 0.100623
H	-0.536910148	-3.3218951812	 2.566817185	 0.101514
H	 1.2397644388	-5.0537697516	 0.7422505086	 0.105205
H	-0.0531100638	-5.6568050996	 1.7959113893	 0.099343
H	-1.773642211	-4.5434947376	 0.3481695338	 0.102027
H	-0.5782395951	-4.6725514531	-0.9576249508	 0.104376
45.5348	68.7128	110.4722	150.0158	177.6061	286.9413	348.7021	384.5035	416.9611	497.6799	566.7344	645.4917	769.8345	783.1075	802.3935	878.9835	908.7212	931.5322	938.9976	952.7371	985.2029	1021.7623	1065.7185	1071.8928	1089.1308	1119.9255	1162.8357	1197.1715	1205.3774	1231.59	1239.3751	1254.3651	1258.0715	1273.0305	1285.4924	1299.9068	1331.1029	1360.8862	1404.1492	1436.6075	1478.3771	1486.1142	1492.6699	1495.2889	1511.4124	3013.0614	3047.5369	3051.8995	3060.1413	3062.7776	3071.7629	3080.8718	3097.5565	3102.4351	3107.771	3122.1555	3800.1639
OCC1OC1C1CCC1	OC[C@H]1O[C@H]1C1CCC1	
InChI=1S/C7H12O2/c8-4-6-7(9-6)5-2-1-3-5/h5-8H,1-4H2	InChI=1S/C7H12O2/c8-4-6-7(9-6)5-2-1-3-5/h5-8H,1-4H2/t6-,7+/m1/s1
