16
gdb 125978	3.79873	1.26422	1.06812	2.0949	71.03	-0.2378	-0.0173	0.2205	1119.1838	0.125222	-434.039436	-434.03176	-434.030816	-434.072214	28.194	
C	-0.2923316112	 1.3377732903	 1.0156928558	-0.406514
C	-0.0120567017	-0.0616218055	 0.5260729448	 0.011277
C	 0.2411450208	-0.3345580953	-0.9225170743	-0.24547
N	 1.3190008831	-0.4498684521	 0.0499064698	-0.14962
C	 2.395326037	 0.405818924	 0.0353387025	 0.42218
N	 2.8849891302	 0.9604544682	 1.1237430426	-0.215937
O	 4.019340804	 1.6452645021	 0.6418758739	-0.154046
C	 4.0630648676	 1.4150076155	-0.6665024966	 0.119987
N	 3.1087756825	 0.6698600737	-1.1210270426	-0.315741
H	 0.1217213047	 2.0921300785	 0.3413176885	 0.126892
H	-1.3738169929	 1.4938815341	 1.0814088649	 0.124494
H	 0.1416377829	 1.5011438777	 2.0063884555	 0.150779
H	-0.4845711098	-0.8511731438	 1.1067916781	 0.106366
H	-0.0723181764	-1.2700942763	-1.3763616138	 0.127463
H	 0.2655805022	 0.5182937454	-1.5961456253	 0.133817
H	 4.8762866268	 1.8637838736	-1.2187711436	 0.164073
62.5813	126.0869	171.4509	223.1337	301.0979	386.9968	422.8757	545.3026	584.8084	617.2801	779.9182	816.1317	890.9316	904.1954	906.3688	919.1261	976.8881	988.6762	1040.8001	1058.5821	1130.4669	1143.0652	1159.7448	1165.6152	1196.7916	1267.2723	1320.0674	1383.8851	1408.1524	1426.8091	1485.3456	1494.4819	1513.6454	1554.1888	1608.0166	3043.6471	3111.9045	3112.7834	3117.5423	3136.4948	3201.4913	3261.2437
CC1CN1C1=NOC=N1	C[C@H]1CN1c1nocn1	
InChI=1S/C5H7N3O/c1-4-2-8(4)5-6-3-9-7-5/h3-4H,2H2,1H3	InChI=1S/C5H7N3O/c1-4-2-8(4)5-6-3-9-7-5/h3-4H,2H2,1H3/t4-,8?/m0/s1
