19
gdb 33218	5.47268	0.7419	0.69644	1.8801	79.65	-0.1876	0.0505	0.2381	1618.9292	0.161115	-419.22293	-419.21385	-419.212905	-419.258346	33.253	
O	 0.0967985902	 1.1629834813	 0.3976940875	-0.422261
C	 0.0969563862	-0.0047533822	-0.4155370671	-0.07251
C	-1.2617284437	-0.7007118434	-0.4100935635	-0.145956
N	-2.3090297494	 0.2510227422	-0.8201551042	-0.423822
C	-3.5645901035	-0.3051243723	-1.1349535627	 0.30704
C	-4.7203950322	-0.4891849241	-0.4063152281	-0.219507
C	-5.6849280107	-1.0745833084	-1.2769966967	-0.133753
C	-5.089274143	-1.2409588318	-2.5036902555	-0.098323
N	-3.8017227188	-0.7679122552	-2.4079227014	-0.256174
H	-0.2960545194	 1.8692331533	-0.1241861011	 0.288975
H	 0.3833521906	 0.2386273047	-1.4483478869	 0.091651
H	 0.8578234544	-0.6755039447	-0.0022975471	 0.109468
H	-1.2479785686	-1.5318944377	-1.1232162823	 0.104527
H	-1.4611226847	-1.1261604096	 0.5858715891	 0.100765
H	-2.4221191043	 0.9363873019	-0.0825695388	 0.230041
H	-4.8512517803	-0.2413110587	 0.6362505337	 0.083319
H	-6.6969829493	-1.3516117274	-1.0244055843	 0.089722
H	-5.4635973155	-1.6512720648	-3.4273684059	 0.111188
H	-3.144081318	-0.678827873	-3.1628456246	 0.255612
32.803	50.9827	94.6372	151.9607	270.637	314.2264	357.1869	416.1791	485.5475	493.7512	631.9217	659.0572	695.1623	726.088	786.1281	798.2661	844.1709	873.1578	894.9939	919.6523	992.582	1048.2214	1051.7915	1098.1715	1108.4014	1121.0629	1144.8957	1209.4202	1247.5112	1276.5246	1305.0374	1377.2238	1400.6283	1410.5526	1419.7133	1434.0091	1485.447	1493.8241	1499.507	1521.7054	1618.5943	2982.6015	3006.2575	3075.3126	3078.7163	3238.0085	3251.2809	3272.3081	3547.8135	3680.6169	3827.0393
OCCNC1=CC=CN1	OCCNc1ccc[nH]1	
InChI=1S/C6H10N2O/c9-5-4-8-6-2-1-3-7-6/h1-3,7-9H,4-5H2	InChI=1S/C6H10N2O/c9-5-4-8-6-2-1-3-7-6/h1-3,7-9H,4-5H2
