24
gdb 59467	2.93457	1.02945	0.84008	1.1775	91.07	-0.2234	0.0853	0.3087	1488.063	0.216159	-368.372863	-368.362813	-368.361869	-368.407928	38.137	
C	-1.9442415728	 0.5412553166	 1.9416038146	-0.392025
C	-1.2123930371	-0.4615102246	 1.0364516858	 0.019176
C	-0.76841154	 0.1995227661	-0.2772821515	-0.394126
C	-0.0219824468	-1.0483456293	 1.778114834	 0.032146
C	-0.1689500611	-2.2187790456	 2.6911539526	-0.270147
N	 0.6004554182	-2.3369801266	 1.455783991	-0.10136
C	 0.0739131812	-3.1703186726	 0.4115286844	 0.078236
C	 0.8956814495	-3.297875053	-0.8437678753	-0.269898
C	 0.8217898505	-4.4470493915	 0.1338313463	-0.285282
H	-1.2799625033	 1.3652682645	 2.2277435679	 0.113931
H	-2.8075523319	 0.9761979544	 1.4274313693	 0.110155
H	-2.2992533517	 0.0646756095	 2.8605520802	 0.114412
H	-1.9135636235	-1.2701942651	 0.7970673846	 0.070813
H	-0.0634766574	 1.016017337	-0.0807098533	 0.112293
H	-0.2727664356	-0.518613342	-0.9362309501	 0.128788
H	-1.6245252715	 0.6224674455	-0.8134240263	 0.107752
H	 0.7177623981	-0.293324796	 2.0509730129	 0.081834
H	 0.3944975937	-2.2897284262	 3.6183334368	 0.109204
H	-1.1492313882	-2.6950243359	 2.7218284081	 0.10234
H	-1.0102292191	-3.2153979977	 0.2953461707	 0.074856
H	 0.3784596276	-3.3863002732	-1.7927817224	 0.108294
H	 1.8203044373	-2.7335226022	-0.8766011001	 0.120154
H	 1.697212777	-4.6360287964	 0.7438853591	 0.120731
H	 0.2526514069	-5.328218206	-0.1406990294	 0.107726
66.7721	73.6302	134.5249	182.5295	220.4823	241.2276	274.2353	293.8281	336.8204	356.5819	437.4951	488.7115	589.955	703.493	771.169	792.6311	826.3443	890.1293	900.1066	927.3338	939.8344	960.7901	967.9829	991.6899	1032.9694	1056.839	1073.7445	1075.565	1115.4972	1126.4583	1129.9635	1155.0632	1186.3671	1193.8165	1198.5582	1217.1403	1229.4591	1313.1223	1332.5811	1342.5079	1396.5504	1399.9484	1416.0609	1432.7576	1456.4656	1487.3498	1489.9116	1495.912	1502.6548	1509.5388	1513.0191	3025.5584	3027.76	3031.0886	3075.9879	3082.2199	3082.917	3089.4537	3097.9963	3104.5342	3115.4092	3136.5103	3141.14	3167.0194	3221.5685	3235.4409
CC(C)C1CN1C1CC1	CC(C)[C@H]1CN1C1CC1	
InChI=1S/C8H15N/c1-6(2)8-5-9(8)7-3-4-7/h6-8H,3-5H2,1-2H3	InChI=1S/C8H15N/c1-6(2)8-5-9(8)7-3-4-7/h6-8H,3-5H2,1-2H3/t8-,9?/m1/s1
