16
gdb 125632	3.86237	1.05122	0.83058	3.8363	75.63	-0.2191	-0.0074	0.2117	1327.4121	0.12524	-434.116594	-434.107914	-434.106969	-434.15062	30.948	
C	-0.0063719743	 1.5331784395	-0.1992502166	-0.490878
C	-0.0004453151	 0.04809307	-0.0191265801	 0.365963
N	-0.0390181418	-0.7579671345	-1.0756785644	-0.286063
N	-0.0201946389	-2.0093310863	-0.5496483233	-0.298491
C	 0.028927395	-2.0010296465	 0.8083056705	 0.509621
N	 0.0547160416	-3.1941687489	 1.5283604075	-0.421258
C	 0.1037284177	-3.2969690597	 2.8969020623	 0.14908
O	 0.1317325353	-2.3683623052	 3.668412303	-0.291316
C	 0.0434885138	-0.6787652069	 1.1984445415	-0.377503
H	 0.892726348	 1.9899685172	 0.228340137	 0.130055
H	-0.0471608986	 1.7782943981	-1.2625536024	 0.137898
H	-0.8692101718	 1.9911484606	 0.296332251	 0.130022
H	-0.043509274	-2.7989744879	-1.1714396564	 0.265522
H	 0.0354585661	-4.0586335254	 1.0091124276	 0.254161
H	 0.1147178047	-4.3575991991	 3.2124440109	 0.087879
H	 0.0802368125	-0.3141778451	 2.2086611019	 0.135309
54.8743	101.938	151.874	158.297	273.0979	291.3234	332.3671	408.7353	425.5939	494.1999	565.0322	687.7527	692.1305	728.4101	814.7498	864.5664	988.2596	1006.7091	1008.5363	1040.8471	1066.1743	1134.2305	1168.2954	1196.0472	1274.4577	1405.1891	1425.4725	1438.074	1456.4057	1483.1986	1489.6585	1508.9506	1586.3332	1620.1261	1814.5382	2953.759	3036.8585	3088.9461	3133.0245	3308.4364	3622.03	3674.654
CC1=NNC(NC=O)=C1	Cc1n[nH]c(NC=O)c1	
InChI=1S/C5H7N3O/c1-4-2-5(6-3-9)8-7-4/h2-3H,1H3,(H2,6,7,8,9)	InChI=1S/C5H7N3O/c1-4-2-5(6-3-9)8-7-4/h2-3H,1H3,(H2,6,7,8,9)
