16
gdb 12272	4.24183	1.4195	1.1536	2.061	62.05	-0.2361	-0.035	0.2011	1026.2448	0.12811	-420.859261	-420.850691	-420.849747	-420.892581	29.985	
C	 0.180526151	 1.2175237353	-0.2378491886	-0.249088
O	-0.2269726383	-0.0677283784	 0.2037971265	-0.237001
C	 0.5751817713	-0.5818315265	 1.2170483674	 0.043124
C	 0.2077964028	-2.0133663285	 1.7021416301	-0.314057
C	 1.732362587	-2.3859981987	 1.7751689209	 0.066441
O	 2.1949919235	-3.6312933286	 1.3544065581	-0.432185
C	 1.9362964936	-1.2038627025	 0.8206305961	 0.30771
O	 2.6497518937	-1.0927756617	-0.1387304709	-0.311403
H	 1.1892153833	 1.1929050865	-0.6664692293	 0.138722
H	-0.5311708334	 1.5285475157	-1.005348162	 0.132849
H	 0.158684974	 1.9473074368	 0.5862378423	 0.106167
H	 0.6804557451	 0.1210956376	 2.0598018158	 0.0875
H	-0.362726563	-2.0923161906	 2.6266411475	 0.119573
H	-0.2871529392	-2.5608787595	 0.8971822814	 0.134908
H	 2.1178323841	-2.1755987209	 2.7806065023	 0.11005
H	 2.4967557445	-3.5301045857	 0.4424895721	 0.296688
81.535	108.3541	152.7747	170.8415	233.8953	247.1227	290.6717	370.4064	424.3378	552.4314	598.7905	703.5006	804.7959	847.057	931.5506	993.9372	1027.0306	1042.1499	1069.8973	1144.8027	1163.593	1179.9666	1191.8995	1244.8528	1249.1309	1258.228	1337.0375	1380.5128	1414.898	1473.4227	1482.7078	1489.0915	1511.2821	1862.9872	2968.7965	2987.7578	3034.716	3066.2192	3086.7213	3128.4112	3157.3904	3768.3867
COC1CC(O)C1=O	CO[C@H]1C[C@@H](O)C1=O	
InChI=1S/C5H8O3/c1-8-4-2-3(6)5(4)7/h3-4,6H,2H2,1H3	InChI=1S/C5H8O3/c1-8-4-2-3(6)5(4)7/h3-4,6H,2H2,1H3/t3-,4+/m1/s1
