15
gdb 6009	2.60175	1.91301	1.542	3.4327	62.81	-0.2704	-0.0137	0.2567	886.419	0.117562	-395.993968	-395.985238	-395.984294	-396.02686	32.018	
C	-0.0735968484	 1.557150121	 0.0539225962	-0.397121
C	 0.037714931	 0.0372367175	-0.0081611429	 0.188504
O	 0.7714519644	-0.3845560219	 1.1340112224	-0.435648
C	-1.319933492	-0.5762630232	 0.0316710191	 0.248604
N	-2.3495096808	-1.1022342803	 0.0510501551	-0.346171
C	 0.7576922718	-0.4613033767	-1.2806362478	 0.32429
N	 0.7601704454	-1.8486867894	-1.3748100648	-0.555056
N	 1.3689479511	 0.3734498509	-2.016530197	-0.499684
H	 0.9265369405	 1.9819765353	-0.0245335903	 0.156066
H	-0.6811350727	 1.9339406661	-0.7700824827	 0.141868
H	-0.5279769448	 1.842395242	 1.0049571758	 0.136208
H	 1.0622005584	-1.2923956977	 0.9811209507	 0.296488
H	-0.0984632125	-2.3147913133	-1.1089194126	 0.273541
H	 1.1628998624	-2.2273546247	-2.2204988009	 0.255415
H	 1.8477749864	-0.0840259455	-2.7950619704	 0.212697
67.5512	149.82	189.4513	215.8467	250.6351	317.0365	350.3524	385.464	437.357	459.4704	484.3145	579.0655	601.6006	619.5284	676.9066	749.6041	876.2075	899.4235	947.4701	1074.6569	1111.8551	1128.7006	1167.171	1182.3152	1365.8218	1398.4839	1412.1347	1476.8017	1478.8559	1642.9325	1747.1923	2342.6243	3070.921	3152.4734	3170.8003	3451.3132	3540.1166	3647.0881	3784.2719
CC(O)(C#N)C(N)=N	C[C@@](O)(C#N)C(=N)N	
InChI=1S/C4H7N3O/c1-4(8,2-5)3(6)7/h8H,1H3,(H3,6,7)	InChI=1S/C4H7N3O/c1-4(8,2-5)3(6)7/h8H,1H3,(H3,6,7)/t4-/m1/s1
