20
gdb 119111	2.30116	1.12234	0.88796	2.2279	75.81	-0.2511	-0.025	0.2261	1368.1568	0.169265	-440.275861	-440.265828	-440.264884	-440.311207	36.226	
C	 1.061566173	-0.5707831443	 1.0866034011	-0.497301
C	-0.1690368825	-0.5480311919	 0.204022615	 0.337702
O	-1.2768710527	-0.3549738485	 0.6631783216	-0.323957
C	-0.0022218154	-0.8176328944	-1.2756877429	 0.218158
C	 1.3030722072	-0.4755505811	-1.9681670077	-0.306486
C	 1.4947272224	 1.0352224855	-2.1539372824	-0.063402
O	 2.7187937184	 1.350488675	-2.796712426	-0.415987
C	-0.8324192016	-1.9812775699	-1.7431349246	-0.262348
N	-1.217189295	-0.6177297961	-2.0825624227	-0.341916
H	 1.6066022964	-1.5129860748	 0.9626880528	 0.145465
H	 1.75292734	 0.2335629792	 0.8142601228	 0.154067
H	 0.7590546963	-0.4518406468	 2.1272865515	 0.146246
H	 2.1588719815	-0.885638158	-1.4213261662	 0.106803
H	 1.302446186	-0.9497249057	-2.9567194976	 0.098468
H	 0.6292928739	 1.442869791	-2.6947195476	 0.114492
H	 1.5352529424	 1.5410954406	-1.1823778948	 0.108666
H	 2.6603265603	 1.0421537904	-3.706563589	 0.283411
H	-0.458081761	-2.5856679109	-2.5654789854	 0.120753
H	-1.4155078291	-2.5147040333	-0.9974555004	 0.128992
H	-1.9524951306	-0.320822446	-1.4393481475	 0.248174
72.6909	81.2631	115.5216	153.1175	167.0088	250.1716	280.0828	299.9284	345.9959	374.1344	404.6082	443.6183	597.6526	616.4713	702.5682	776.4194	851.9801	883.1167	947.9944	971.1081	1010.5577	1033.8531	1040.8483	1069.5136	1083.5942	1100.7861	1120.4144	1157.3414	1198.527	1289.6526	1298.3437	1320.2304	1360.586	1372.2731	1389.5081	1404.5609	1422.5634	1460.033	1476.236	1482.3728	1500.9095	1513.6573	1779.6668	3011.1376	3035.5878	3043.0211	3060.1979	3087.0998	3104.36	3105.5365	3156.03	3197.8204	3458.4358	3818.1781
CC(=O)C1(CCO)CN1	CC(=O)[C@@]1(CCO)CN1	
InChI=1S/C6H11NO2/c1-5(9)6(2-3-8)4-7-6/h7-8H,2-4H2,1H3	InChI=1S/C6H11NO2/c1-5(9)6(2-3-8)4-7-6/h7-8H,2-4H2,1H3/t6-/m1/s1
