15
gdb 21006	3.8058	1.77317	1.22213	1.8269	65.52	-0.1839	0.0323	0.2161	951.083	0.119805	-395.993313	-395.985072	-395.984128	-396.026112	29.31	
C	-0.0023071497	 1.3867701963	 0.112187899	-0.314326
N	-0.0352565628	-0.0491629972	-0.0116811689	 0.044241
C	-0.0449865758	-0.7887172965	-1.1558238516	-0.08818
C	 0.0664905851	-2.1170013069	-0.789979113	 0.084889
N	 0.1342925724	-3.2712852871	-1.596471688	-0.622761
C	 0.1620526	-2.0584283977	 0.6180918593	 0.388531
O	 0.2814584768	-3.1464025284	 1.4177825139	-0.444252
N	 0.1147052423	-0.8223756635	 1.0903130399	-0.379241
H	 1.0218196965	 1.7637252724	 0.2226487796	 0.135906
H	-0.4491773215	 1.8326605489	-0.7793486292	 0.133301
H	-0.5806366561	 1.683858858	 0.9896936724	 0.147821
H	-0.1405819359	-0.3268015821	-2.1258462752	 0.120187
H	-0.6117118852	-3.3109271886	-2.2809118619	 0.240722
H	 0.0826127418	-4.104446718	-1.0225901914	 0.250661
H	 0.3251394121	-2.8278529296	 2.327284235	 0.302502
75.2279	116.9814	142.5585	249.489	269.1755	298.6584	319.32	381.4476	538.7549	597.4999	620.4539	661.4455	711.2147	752.8292	803.7845	857.4978	1008.6398	1079.4827	1118.4474	1148.5017	1190.042	1220.6247	1318.5168	1363.2692	1441.7229	1466.6318	1475.6424	1484.8353	1523.6564	1580.9139	1650.9683	1663.8752	3025.2877	3099.3687	3138.7002	3256.9477	3520.8613	3607.9866	3806.872
CN1C=C(N)C(O)=N1	Cn1cc(N)c(O)n1	
InChI=1S/C4H7N3O/c1-7-2-3(5)4(8)6-7/h2H,5H2,1H3,(H,6,8)	InChI=1S/C4H7N3O/c1-7-2-3(5)4(8)6-7/h2H,5H2,1H3,(H,6,8)
