18
gdb 54121	2.66137	1.59549	1.18794	2.5807	72.55	-0.2305	0.0269	0.2573	1064.9204	0.14785	-439.083562	-439.075196	-439.074252	-439.116233	32.993	
N	-0.0843902645	 1.3269478656	 0.2817794228	-0.531226
C	 0.1058778715	 0.0138229798	-0.0419364132	 0.324185
O	 1.203335259	-0.4512902338	-0.2993286971	-0.375029
C	-1.1725308228	-0.7940368993	-0.0607550216	 0.296802
O	-2.3418535447	-0.0278404875	 0.1583267406	-0.480871
C	-1.4254797766	-2.0133810162	-0.9228888916	-0.122304
C	-0.1909983988	-2.903988079	-1.1123134713	-0.230657
C	-0.0702910087	-3.0308592215	 0.4430784265	-0.236179
C	-1.3165589911	-2.1512026851	 0.5951471973	-0.082309
H	 0.7391951189	 1.8793610279	 0.4571353498	 0.257518
H	-0.9664829445	 1.6080072156	 0.676102927	 0.263783
H	-2.6140301135	 0.341833122	-0.6893308256	 0.288772
H	-2.3171170437	-2.0143327336	-1.5415413816	 0.081719
H	-0.457254673	-3.8547025166	-1.5806694724	 0.096621
H	 0.6560867453	-2.4595849682	-1.6322582705	 0.128895
H	-0.2533073928	-4.0497472309	 0.7916725882	 0.099498
H	 0.8499300379	-2.652734325	 0.8887709487	 0.12411
H	-2.1056357581	-2.2605599942	 1.329541834	 0.09667
67.4937	192.4811	217.8863	283.2661	319.2744	338.1848	357.0428	409.4001	446.9104	462.6133	587.2097	625.3049	667.2436	703.1545	781.5058	808.6412	846.7581	874.3743	922.9604	961.3123	979.2916	1017.1463	1027.0532	1092.5563	1094.2854	1104.079	1173.6312	1221.4334	1224.0694	1246.8112	1253.6123	1281.251	1322.4578	1372.5551	1400.8012	1468.6642	1489.7989	1586.1224	1779.0209	3069.5502	3078.2603	3133.2636	3150.5154	3159.3944	3187.032	3591.678	3730.0356	3791.4719
NC(=O)C1(O)C2CCC12	NC(=O)[C@@]1(O)[C@H]2CC[C@@H]12	
InChI=1S/C6H9NO2/c7-5(8)6(9)3-1-2-4(3)6/h3-4,9H,1-2H2,(H2,7,8)	InChI=1S/C6H9NO2/c7-5(8)6(9)3-1-2-4(3)6/h3-4,9H,1-2H2,(H2,7,8)/t3-,4+,6+
