15
gdb 131055	3.9233	1.08344	0.91344	1.3702	66.88	-0.2533	-0.0029	0.2505	1215.6189	0.114885	-450.149246	-450.141301	-450.140357	-450.182973	28.075	
O	 0.8687028179	 0.9462701844	 1.4134065232	-0.334173
C	 0.4146127916	 1.3984715781	 0.3795057484	 0.158421
N	 1.0981499635	 1.4832006633	-0.7874489958	-0.259638
C	 2.5016733131	 1.0807748005	-0.8774859851	-0.291019
C	 3.4562526589	 2.0684741725	-0.2784481748	 0.311387
C	 3.6997719385	 2.3641610367	 1.0440226581	-0.155097
N	 4.6413610571	 3.3312819372	 0.9869069007	-0.147466
N	 4.9767442564	 3.6286294556	-0.2835879012	-0.117729
N	 4.2551650106	 2.8627814128	-1.0498762543	-0.249057
H	-0.6225457727	 1.7759181977	 0.2896297227	 0.083909
H	 0.6848947499	 1.9857054878	-1.5565907848	 0.257516
H	 2.5936744451	 0.1141367	-0.3754999951	 0.145926
H	 2.7514943173	 0.9494663643	-1.9320025592	 0.135168
H	 3.2740469853	 1.9853650989	 1.9568597265	 0.177409
H	 5.0940656174	 3.8209393102	 1.7423955708	 0.284443
49.6651	76.8633	134.9577	226.6266	269.8561	333.0342	432.0609	502.3488	597.2489	671.2224	727.382	741.3283	789.0962	845.8141	950.6028	987.878	1000.3668	1032.2033	1039.0023	1055.7178	1125.1025	1205.7651	1253.9633	1278.2866	1326.0128	1366.7745	1392.0171	1425.3336	1459.6493	1491.6384	1521.3408	1582.2362	1789.4734	2947.0839	3073.2433	3129.8745	3300.4865	3640.7315	3656.4021
O=CNCC1=CNN=N1	O=CNCc1c[nH]nn1	
InChI=1S/C4H6N4O/c9-3-5-1-4-2-6-8-7-4/h2-3H,1H2,(H,5,9)(H,6,7,8)	InChI=1S/C4H6N4O/c9-3-5-1-4-2-6-8-7-4/h2-3H,1H2,(H,5,9)(H,6,7,8)
