17
gdb 38500	3.36328	1.75177	1.64365	1.056	69.55	-0.2258	0.0441	0.2698	879.6219	0.136852	-421.732482	-421.725983	-421.725038	-421.762893	27.474	
C	-0.0234524586	 1.4768955909	 0.0290540117	-0.320318
C	 1.3216853119	 0.8040908841	 0.0140154728	 0.087966
O	 1.9853769364	 0.6314279185	 1.2665123249	-0.293453
C	 1.3380085161	-0.3808074689	 1.9743942284	 0.25121
C	 0.0015927603	-0.173562501	 2.6595073862	-0.389929
C	 0.0670606881	-0.7852982706	 1.2876469624	 0.337956
O	 0.3891673912	-2.1869498405	 1.3275405958	-0.325855
C	 1.70462202	-1.8646172284	 1.8764124125	-0.137582
C	 0.0506790078	-0.0375257032	-0.0146594475	-0.157416
H	-0.347177738	 1.9729010963	 0.9364295835	 0.125164
H	-0.3400925003	 1.9729576161	-0.8830710636	 0.121432
H	 2.0076634125	 0.931841824	-0.8159664424	 0.105595
H	-0.2715154337	-0.8089595553	 3.4966115261	 0.125309
H	-0.330163564	 0.8538248759	 2.7353462812	 0.131998
H	 2.4954724698	-2.0478836321	 1.1414746486	 0.117385
H	 1.91056739	-2.4137812069	 2.80171188	 0.110105
H	-0.2765377195	-0.5680039291	-0.8996472106	 0.110435
200.14	246.787	324.822	373.3016	454.0772	468.276	550.867	630.4587	691.8267	759.7725	781.9119	807.5884	817.2444	868.8771	909.0397	926.4884	948.0544	979.3379	984.6685	991.2845	1034.1332	1053.8918	1073.3201	1087.1209	1112.2464	1144.0022	1155.1102	1177.2725	1195.7095	1260.1954	1307.8422	1348.3484	1358.2502	1372.819	1459.9658	1484.0844	1508.0811	3031.0727	3088.9832	3132.1597	3136.2294	3174.8063	3197.1269	3222.2968	3241.1854
C1C2OC34CC3(OC4)C12	C1[C@H]2O[C@@]34C[C@@]3(OC4)[C@@H]12	
InChI=1S/C7H8O2/c1-4-5(1)9-6-2-7(4,6)8-3-6/h4-5H,1-3H2	InChI=1S/C7H8O2/c1-4-5(1)9-6-2-7(4,6)8-3-6/h4-5H,1-3H2/t4-,5+,6+,7+/m0/s1
