22
gdb 122455	3.51032	0.66334	0.59536	1.5826	90.12	-0.244	0.0379	0.2819	1935.698	0.192425	-367.160125	-367.149705	-367.148761	-367.196521	37.912	
C	 0.2721120765	 1.5607071254	 0.1649001901	-0.380714
C	-0.0999625224	 0.1001726899	-0.1037261047	-0.16412
C	 0.7087155294	-0.5269705037	-1.243928488	-0.15632
C	 0.3419016851	-1.9920748405	-1.5108381775	-0.203159
C	 1.1615455358	-2.5955495191	-2.6257816094	-0.00718
N	 2.5209981453	-3.028390759	-2.286516065	-0.323361
C	 1.5184989095	-4.0508478104	-2.6802407952	-0.257578
C	 1.0973698316	-4.9950768768	-1.6817667601	 0.384214
C	 0.7235062265	-5.8042226622	-0.874649853	-0.448029
H	 1.3292873702	 1.65579392	 0.4366642839	 0.114731
H	 0.1029910541	 2.1821752882	-0.72175986	 0.111281
H	-0.3208828161	 1.9810251408	 0.9832736832	 0.110352
H	 0.0484272444	-0.4908519269	 0.8095418559	 0.098213
H	-1.1709279714	 0.0311763096	-0.3374632759	 0.092303
H	 0.5611248441	 0.0629984888	-2.1600454671	 0.084252
H	 1.7797895783	-0.4696912024	-1.011045035	 0.108206
H	 0.4921723809	-2.5859828838	-0.6033592815	 0.116613
H	-0.72264018	-2.0712865407	-1.7693784849	 0.095523
H	 1.022092797	-2.1273938286	-3.6009236315	 0.085356
H	 3.1580284328	-2.8696976325	-3.0628881547	 0.234764
H	 1.6149153459	-4.4751967128	-3.6778091779	 0.107721
H	 0.4026295626	-6.5144831432	-0.1535840718	 0.196932
50.7268	71.0426	87.3495	131.8846	154.2207	216.6396	249.4609	292.3543	307.7433	423.0503	447.0044	551.5656	598.5857	619.7698	656.4589	736.0443	782.7446	807.4287	830.4943	891.5704	910.2693	937.8866	975.4257	1004.7311	1030.2298	1067.9107	1074.3392	1126.4766	1148.1462	1198.6364	1227.0756	1247.3107	1266.3855	1279.5748	1318.8513	1329.9443	1355.8504	1395.3761	1407.4668	1414.1704	1460.0032	1476.4044	1485.7265	1498.5899	1500.5747	1512.0467	2239.2148	3002.694	3014.0348	3022.2484	3028.6404	3036.8563	3056.3113	3081.7882	3095.0785	3100.7862	3101.6657	3122.8422	3502.4731	3504.5189
CCCCC1NC1C#C	CCCC[C@H]1N[C@H]1C#C	
InChI=1S/C8H13N/c1-3-5-6-8-7(4-2)9-8/h2,7-9H,3,5-6H2,1H3	InChI=1S/C8H13N/c1-3-5-6-8-7(4-2)9-8/h2,7-9H,3,5-6H2,1H3/t7-,8+/m0/s1
