18
gdb 65765	3.5802	1.0209	0.9785	2.9708	72.55	-0.2443	-0.0224	0.222	1249.3063	0.146526	-439.110409	-439.101459	-439.100515	-439.145267	31.89	
C	 0.13509299	 1.4992496784	 0.0276103572	-0.422852
C	 0.0004769714	-0.0276821243	-0.021757004	 0.24859
C	-1.4853714271	-0.4508750064	-0.0628185123	-0.308364
C	-2.2812351091	 0.022771661	 1.1375601853	 0.153661
O	-3.3283849098	 0.6147485277	 1.060535488	-0.247748
C	 0.8045503771	-0.6475721643	-1.2078195114	-0.150844
O	 1.8008382929	-1.4847641676	-0.575162926	-0.218297
C	 1.5763199685	-1.3657783367	 0.7527369827	 0.117603
N	 0.6433913554	-0.6221367177	 1.1766781153	-0.291303
H	 1.1892505545	 1.7898652454	 0.0497124123	 0.123451
H	-0.3344694806	 1.9580744843	-0.8490710847	 0.122165
H	-0.3446725004	 1.9032476685	 0.9232017677	 0.139944
H	-1.9722042993	-0.0787254806	-0.9699355767	 0.117835
H	-1.5314024112	-1.5486856814	-0.0725464987	 0.121477
H	-1.8268119528	-0.2282848111	 2.1183503318	 0.105181
H	 0.1968063316	-1.2775356227	-1.8633441437	 0.120933
H	 1.3229599989	 0.1022396558	-1.8115886467	 0.122203
H	 2.2498926898	-1.9475322082	 1.3727049638	 0.146366
45.975	61.8715	92.7363	198.9479	244.2062	307.4886	313.8282	360.2491	418.6666	480.213	592.6094	657.6832	786.2311	823.3662	863.8217	926.8558	942.1998	967.9767	970.3251	978.8404	1013.9518	1060.919	1122.4561	1154.8946	1187.7718	1201.312	1238.0049	1282.1593	1310.81	1330.4834	1379.3436	1416.0275	1420.3295	1454.7703	1486.6793	1497.534	1517.9951	1704.037	1826.6734	2925.3247	3019.0978	3038.1082	3053.9864	3090.7108	3102.2918	3111.1567	3122.6948	3214.0013
CC1(CC=O)COC=N1	C[C@@]1(CC=O)COC=N1	
InChI=1S/C6H9NO2/c1-6(2-3-8)4-9-5-7-6/h3,5H,2,4H2,1H3	InChI=1S/C6H9NO2/c1-6(2-3-8)4-9-5-7-6/h3,5H,2,4H2,1H3/t6-/m1/s1
