18
gdb 43387	2.26758	2.06708	1.23137	3.1209	78.16	-0.2092	-0.0533	0.1559	1016.8244	0.149784	-401.952909	-401.945507	-401.944562	-401.985074	28.749	
O	-0.0836252447	 0.2007434757	 0.7694781024	-0.34142
C	-0.06262313	 1.3402362459	 0.3445508653	 0.364989
C	-1.2791626367	 2.168493063	 0.2575788007	-0.160629
C	-1.2654574247	 3.4105091274	-0.2439848764	-0.042372
C	-0.0165680874	 4.0880034281	-0.7384135024	-0.230148
N	 1.2227641383	 3.4282056926	-0.3772399915	-0.087358
C	 1.8213272461	 3.6722396074	 0.9528887429	-0.17191
C	 2.2700507303	 2.19066268	 0.9873266162	-0.234337
C	 1.2409954715	 1.9624418226	-0.1522908479	-0.101881
H	-2.1956340038	 1.6933789453	 0.5946320226	 0.109308
H	-2.1957587329	 3.9683353236	-0.3425931462	 0.109208
H	-0.0931861603	 4.1876471401	-1.834340395	 0.124245
H	 0.0200035128	 5.1180817313	-0.3603645984	 0.122744
H	 2.5985303039	 4.4435466664	 0.9625870507	 0.103999
H	 1.0834138885	 3.9027659227	 1.7370414942	 0.093907
H	 3.2979117122	 2.0482448546	 0.6523337395	 0.116768
H	 2.1007477942	 1.6304644494	 1.9060261919	 0.124467
H	 1.5863081628	 1.3733962439	-1.0113948086	 0.100421
67.0733	134.9414	242.5438	310.5273	337.3207	443.9967	477.7285	504.5973	618.3892	661.3672	714.5241	764.2132	826.7526	875.9364	914.7421	939.6308	951.1631	979.2797	999.9531	1031.3563	1073.5524	1103.3528	1138.9186	1156.2943	1200.3165	1215.2117	1233.3065	1254.3479	1269.1603	1302.7856	1325.1264	1331.5397	1377.1692	1404.8904	1462.875	1490.1133	1521.6396	1681.5304	1768.9978	2965.8932	2981.2496	3023.6903	3038.4181	3059.4455	3095.6464	3137.6501	3155.3571	3183.0749
O=C1C=CCN2CCC12	O=C1C=CCN2CC[C@@H]12	
InChI=1S/C7H9NO/c9-7-2-1-4-8-5-3-6(7)8/h1-2,6H,3-5H2	InChI=1S/C7H9NO/c9-7-2-1-4-8-5-3-6(7)8/h1-2,6H,3-5H2/t6-/m0/s1
