22
gdb 75495	2.14594	1.76434	1.1955	1.5159	88.1	-0.2266	0.0261	0.2527	1150.1177	0.195375	-367.21468	-367.205844	-367.2049	-367.247558	34.926	
C	-0.1163495703	 1.4911132113	 0.0493869099	-0.493751
C	-0.0478530108	-0.0104924086	-0.0114545506	 0.303834
C	-0.0321885596	-0.6903598621	-1.1611380396	-0.14963
C	 0.1090007497	-2.1914736046	-1.2397491395	-0.262831
C	 0.9812806745	-2.7342758315	-0.0916609974	-0.213036
C	 0.5690137723	-2.1364474665	 1.2467512499	-0.075495
N	 1.4015120872	-1.0276936436	 1.7718562688	-0.372355
C	 0.0207034281	-0.7564044926	 1.2911396634	 0.238245
C	-1.0371946935	-0.4127255151	 2.3218307763	-0.481654
H	 0.7381536858	 1.8941044029	 0.6074355918	 0.132264
H	-0.1059662125	 1.9282583129	-0.9526959786	 0.117838
H	-1.0213988869	 1.8427908006	 0.5599349986	 0.118936
H	-0.1004137518	-0.1446694296	-2.1001244892	 0.076432
H	-0.8833188807	-2.6658570357	-1.2135263783	 0.104617
H	 0.5456913437	-2.4745705544	-2.203766941	 0.099408
H	 0.9227984433	-3.8273286107	-0.0541486386	 0.089146
H	 2.0262867545	-2.4695098387	-0.2796569648	 0.115707
H	 0.1709579117	-2.8343150673	 1.9806509178	 0.074683
H	 1.4019992721	-1.0564261241	 2.7905682853	 0.218687
H	-0.9328829932	 0.6184086278	 2.6771370751	 0.123472
H	-2.0448498435	-0.5189281851	 1.9048572563	 0.1251
H	-0.9612298301	-1.0757919353	 3.1901250644	 0.110382
99.3354	182.3112	200.8615	234.8279	242.7683	282.3164	300.7472	396.0866	430.8001	479.1963	512.6686	600.5321	645.6594	652.5497	779.2781	848.0433	857.6703	879.1769	906.667	945.9903	980.2611	1004.3501	1038.5488	1064.9548	1072.1644	1086.6665	1100.6432	1119.8164	1170.3899	1176.126	1219.3667	1261.2036	1298.6737	1311.9516	1346.2183	1377.3265	1403.6981	1407.559	1413.3696	1446.4096	1475.5895	1477.1569	1484.9209	1487.6385	1496.0412	1507.0157	1730.1815	2996.4713	3018.1825	3025.0356	3040.3635	3059.3705	3066.8461	3088.3103	3090.923	3095.7866	3109.4104	3122.8876	3143.6329	3466.7122
CC1=CCCC2NC12C	CC1=CCC[C@H]2N[C@@]12C	
InChI=1S/C8H13N/c1-6-4-3-5-7-8(6,2)9-7/h4,7,9H,3,5H2,1-2H3	InChI=1S/C8H13N/c1-6-4-3-5-7-8(6,2)9-7/h4,7,9H,3,5H2,1-2H3/t7-,8+/m1/s1
