17
gdb 81932	2.21951	2.00536	1.29319	3.6551	68.67	-0.2433	0.0016	0.245	983.4201	0.137192	-455.116181	-455.108174	-455.107229	-455.148711	30.748	
O	-0.4269322948	 1.3314611447	-1.0538651805	-0.430336
C	-0.1325703328	 0.2444610093	-0.185266494	 0.033566
C	-1.3624987547	-0.630006259	 0.0303094402	-0.04166
C	-2.2999221524	-0.8377948968	-1.1019595232	-0.230626
N	-1.2666608599	-1.846892794	-0.8165561138	-0.100628
C	-0.0879740321	-1.7124503105	-1.594659935	 0.275322
N	 0.0835921222	-2.2839210931	-2.7090515317	-0.496347
C	 0.855546901	-0.7440082021	-0.8709656131	 0.046971
O	 1.8101889411	-0.1435655516	-1.7082561877	-0.431889
H	 0.3436695869	 1.9103485074	-1.0558386488	 0.291232
H	 0.2566207077	 0.6123353065	 0.7705430025	 0.081094
H	-1.700657916	-0.7918237606	 1.0483645238	 0.102992
H	-3.3160794769	-1.1615691943	-0.8996583683	 0.12823
H	-2.1734040176	-0.223364317	-1.9869520599	 0.144967
H	 1.0170265637	-2.0489213377	-3.0575437066	 0.223958
H	 1.4105537059	-1.2905054388	-0.0995716491	 0.120745
H	 1.3131614287	 0.3213752077	-2.3937148947	 0.282408
84.4382	143.251	197.3424	251.5993	283.3702	301.317	460.5714	525.2349	550.3003	560.0751	580.2973	688.5661	746.7765	795.8385	840.8328	855.7273	919.448	941.2967	963.2742	1007.7953	1055.968	1096.6989	1108.3043	1120.5776	1146.5126	1164.9435	1218.8561	1250.2119	1263.5919	1284.3969	1316.9839	1362.549	1385.2037	1426.9607	1432.7137	1505.9626	1755.6534	3038.1897	3056.7972	3126.8498	3164.9978	3221.143	3439.5671	3775.5562	3803.765
OC1C2CN2C(=N)C1O	O[C@H]1[C@H]2CN2[C]([NH])[C@H]1O	
InChI=1S/C5H8N2O2/c6-5-4(9)3(8)2-1-7(2)5/h2-4,6,8-9H,1H2	InChI=1S/C5H8N2O2/c6-5-4(9)3(8)2-1-7(2)5/h2-4,6,8-9H,1H2/t2-,3+,4+,7?/m1/s1
