16
gdb 19805	3.98733	2.0138	1.7778	2.9468	67.31	-0.2294	-0.0223	0.2071	782.241	0.131145	-346.565034	-346.558731	-346.557787	-346.595371	25.4	
O	-0.0183885287	-0.0021505183	 0.0739114061	-0.294982
C	-0.0251906052	 1.1934088392	 0.0586763511	 0.393697
C	-1.15568962	 2.2564664376	 0.0447234398	-0.374986
C	-0.0592401603	 3.3605214018	 0.0354259068	-0.031077
C	 0.5078330578	 3.8775833902	 1.3808621263	-0.050763
C	 0.5847095281	 2.8042994774	 2.4314568489	-0.300532
C	 1.6192410007	 2.822291636	 1.3420970595	-0.04614
C	 1.0714554082	 2.2824103373	-0.0054154962	-0.152042
H	-1.7266745365	 2.2057082602	-0.8887430629	 0.13106
H	-1.8599272456	 2.2250366182	 0.8805113843	 0.129642
H	-0.1270685218	 4.1115752354	-0.7492311311	 0.079293
H	 0.5766759231	 4.9258357705	 1.6451469018	 0.089858
H	 0.9462760901	 3.1493615005	 3.3951270457	 0.117517
H	-0.1529185001	 2.0111345633	 2.5111035206	 0.122875
H	 2.6748087335	 2.9218920982	 1.5609963187	 0.094916
H	 1.7963602966	 2.2163780426	-0.8170179493	 0.091664
100.6475	238.2559	320.9698	428.9056	462.5189	546.9376	620.0915	723.7956	742.1511	749.0147	836.3276	867.7378	886.8432	891.1761	941.3304	975.9081	993.1155	1040.1528	1045.1228	1059.1011	1071.7102	1086.6606	1095.151	1137.15	1180.695	1206.0096	1217.9942	1233.6096	1287.2017	1303.0727	1357.7097	1431.1542	1502.7545	1887.2042	3052.3389	3106.8988	3114.5311	3121.8677	3131.3943	3179.0095	3188.763	3203.1374
O=C1CC2C3CC3C12	O=C1C[C@H]2[C@H]3C[C@H]3[C@@H]12	
InChI=1S/C7H8O/c8-6-2-5-3-1-4(3)7(5)6/h3-5,7H,1-2H2	InChI=1S/C7H8O/c8-6-2-5-3-1-4(3)7(5)6/h3-5,7H,1-2H2/t3-,4+,5-,7+/m0/s1
