16
gdb 56871	3.27829	1.02678	0.82269	3.7027	70.27	-0.2622	0.0076	0.2699	1323.7215	0.12456	-434.089107	-434.080228	-434.079283	-434.123358	31.989	
N	-0.2561115828	 1.5826860502	 0.0140466646	-0.501611
C	-0.0096041129	 0.1435270561	-0.0162934404	-0.142475
C	-1.2775194388	-0.5805250178	 0.1730537261	 0.29455
N	-2.2597628459	-1.1815617332	 0.2662514007	-0.313595
C	 0.6762239111	-0.3791094967	-1.2991794903	 0.046748
C	 2.1922794809	-0.0542779934	-1.4418032047	-0.4256
C	 2.401346337	-1.5922597889	-1.4354193807	 0.439551
O	 3.3326662785	-2.3382058309	-1.5417980924	-0.343824
N	 1.0476962582	-1.7938775017	-1.2725305761	-0.323059
H	 0.6256774951	 2.0795611981	-0.0669391916	 0.244708
H	-0.8344168258	 1.8607603066	-0.7736505516	 0.244777
H	 0.6360415072	-0.1096345736	 0.8344543387	 0.140064
H	 0.0718259193	-0.097522769	-2.1699329391	 0.09822
H	 2.487490245	 0.4328009536	-2.3718996787	 0.142612
H	 2.6452542924	 0.4646618142	-0.5936895287	 0.131307
H	 0.4841289916	-2.6321336637	-1.2790698757	 0.267627
62.9464	79.4459	130.4826	209.0326	247.9052	281.4252	361.5588	387.2337	422.5213	487.5831	540.586	566.7013	603.039	765.7995	808.9937	852.4628	894.3214	955.7631	995.0978	1024.3869	1077.5198	1122.8441	1126.7366	1171.8971	1196.2082	1200.5213	1272.8492	1291.532	1378.8056	1381.8876	1403.5039	1460.1286	1656.0451	1908.5864	2361.6896	3028.9918	3045.2499	3082.8834	3145.8623	3494.9315	3581.7862	3607.5667
NC(C#N)C1CC(=O)N1	N[C@@H](C#N)[C@H]1CC(=O)N1	
InChI=1S/C5H7N3O/c6-2-3(7)4-1-5(9)8-4/h3-4H,1,7H2,(H,8,9)	InChI=1S/C5H7N3O/c6-2-3(7)4-1-5(9)8-4/h3-4H,1,7H2,(H,8,9)/t3-,4+/m0/s1
