21
gdb 63494	3.09728	0.98036	0.8654	4.0334	80.2	-0.2385	-0.0143	0.2242	1404.6304	0.178192	-424.226395	-424.215823	-424.214879	-424.262034	38.663	
C	 0.0205422377	 1.4999084697	-0.2838510291	-0.445684
C	 0.0472456271	 0.0197506134	 0.0288873615	 0.346638
O	-1.1169981493	-0.6443691304	-0.4041646329	-0.458037
C	 1.3351026989	-0.7708687409	-0.0187354475	-0.394905
C	 0.6280982669	-0.5304804919	 1.3141390942	 0.275197
C	 1.2776227048	 0.405698307	 2.3197043885	-0.462257
C	-0.0814676067	-1.7132454864	 1.9653450546	-0.33679
C	 0.8895137732	-2.6885982973	 2.5924775165	 0.165622
O	 0.8131663564	-3.1199247341	 3.7147237186	-0.248209
H	 0.9245703843	 2.0142191617	 0.047680468	 0.120567
H	-0.0619296749	 1.6515276418	-1.3672498277	 0.109834
H	-0.8453059506	 1.9760977012	 0.1871564054	 0.129619
H	-1.1050475241	-0.6608649711	-1.3674991407	 0.283435
H	 1.2815318838	-1.7648914532	-0.4507971362	 0.110381
H	 2.2669961298	-0.246234773	-0.2054665537	 0.109794
H	 1.860779918	 1.1952163167	 1.8407734531	 0.116657
H	 0.5250710501	 0.8813341778	 2.9589962515	 0.125287
H	 1.9582679617	-0.1487685938	 2.9756352575	 0.129203
H	-0.7846622017	-1.3815512576	 2.7361072307	 0.115755
H	-0.6542068191	-2.2526426869	 1.2024548648	 0.137386
H	 1.7187944335	-3.0034404825	 1.916033443	 0.070507
54.3438	79.3422	138.5643	172.8732	191.9813	214.9326	264.3968	277.8458	309.2047	358.6536	400.0239	414.7398	466.5336	501.8574	550.6475	698.6524	710.9965	814.6321	885.0409	912.8976	943.6615	965.1091	985.6182	1027.092	1045.1476	1056.8438	1085.9304	1118.0486	1166.7591	1209.909	1230.1052	1286.6104	1315.037	1319.4234	1398.248	1414.2519	1424.1047	1429.024	1459.2952	1481.0986	1485.0188	1491.0455	1500.9972	1513.1389	1830.8788	2855.1823	3027.8759	3031.6217	3045.3953	3086.6226	3090.2317	3096.8752	3117.14	3123.5291	3134.4031	3211.793	3796.2361
CC1(O)CC1(C)CC=O	C[C@@]1(O)C[C@]1(C)CC=O	
InChI=1S/C7H12O2/c1-6(3-4-8)5-7(6,2)9/h4,9H,3,5H2,1-2H3	InChI=1S/C7H12O2/c1-6(3-4-8)5-7(6,2)9/h4,9H,3,5H2,1-2H3/t6-,7+/m0/s1
