18
gdb 69336	3.15383	1.27558	1.09593	3.2376	76.87	-0.2672	0.0186	0.2859	1150.5589	0.147809	-398.100675	-398.091874	-398.09093	-398.133797	33.44	
C	 0.0381805531	 1.5522096813	 0.0013042081	-0.487779
C	-0.0428368818	 0.0584724361	 0.0731109649	 0.356634
C	-1.3368036856	-0.7728504668	 0.0204707967	-0.329778
C	-0.6922252225	-1.7950112546	 1.0261446663	 0.141037
N	-1.3432717232	-1.7403347619	 2.3279014157	-0.548105
C	-0.5228094271	-3.1641553813	 0.5071818565	 0.226083
N	-0.3951394655	-4.2445956925	 0.1124934333	-0.347249
C	 0.5951202145	-0.9342467506	 1.0043931453	-0.107983
N	 1.1007933673	-0.7479099307	-0.3416726735	-0.35836
H	 1.0558104742	 1.8868220002	 0.2170145327	 0.138153
H	-0.2281065374	 1.9085257966	-1.0007436643	 0.125892
H	-0.6467478063	 2.0167903491	 0.7177499426	 0.125275
H	-2.1911165708	-0.2858395797	 0.4946045984	 0.126026
H	-1.6245816902	-1.1570032152	-0.9622836225	 0.112667
H	-2.2669188987	-2.1619545824	 2.2761754221	 0.243548
H	-0.8140534327	-2.2847796253	 3.0044730476	 0.243254
H	 1.2583385871	-0.8128933571	 1.8538493702	 0.102926
H	 0.8807399557	-1.5159068754	-0.9745192601	 0.237759
93.4594	141.4129	188.4404	197.4543	252.4459	316.8165	341.6036	350.6587	431.4179	467.5139	521.0491	589.4967	635.622	676.2554	795.3501	830.7769	879.7302	900.6965	944.9601	956.7017	981.9732	1008.8193	1052.6826	1108.8601	1138.4025	1149.8633	1180.7637	1220.8176	1247.7444	1269.8517	1278.531	1312.717	1402.2903	1450.4622	1474.9825	1485.2924	1493.4571	1656.477	2333.175	3032.9506	3059.8333	3094.8515	3125.7366	3127.3036	3176.2346	3459.8094	3483.1615	3561.8391
CC12CC(N)(C#N)C1N2	C[C@]12C[C@@](N)(C#N)[C@H]1N2	
InChI=1S/C6H9N3/c1-5-2-6(8,3-7)4(5)9-5/h4,9H,2,8H2,1H3	InChI=1S/C6H9N3/c1-5-2-6(8,3-7)4(5)9-5/h4,9H,2,8H2,1H3/t4-,5-,6+/m0/s1
