16
gdb 82438	2.52188	1.85056	1.25864	3.8602	65.48	-0.2643	0.0169	0.2812	980.48	0.125083	-475.01063	-475.003127	-475.002183	-475.042685	28.836	
O	 0.1646960937	 1.2281829277	 0.4118101432	-0.43654
C	-0.0413868821	-0.0866621555	-0.0180112779	 0.041767
C	-1.511526329	-0.4329177454	-0.0988486196	 0.022834
O	-2.1490740766	-0.2565201414	-1.374751536	-0.242575
C	-1.8648451705	-1.5800922738	-0.9302965825	 0.020008
C	-0.75462257	-2.3056256836	-1.6569583926	-0.114686
O	 0.3262413209	-1.4568736052	-2.0542538613	-0.247667
C	 0.6206680477	-0.3288782096	-1.3683864004	 0.389314
N	 1.4479175351	 0.5299677822	-1.7886200841	-0.545534
H	 0.8064672858	 1.601132616	-0.2169320865	 0.300465
H	 0.4121176251	-0.7961749008	 0.701781463	 0.094148
H	-2.1159339859	-0.1533616139	 0.7611011982	 0.115096
H	-2.7297650409	-2.19742269	-0.6878393475	 0.109185
H	-0.3749282844	-3.1163180092	-1.0197044151	 0.124172
H	-1.1230931906	-2.7520822277	-2.5852638842	 0.137829
H	 1.8317036118	 0.2837185601	-2.6997180268	 0.232185
97.1989	133.0047	235.8649	319.3382	332.39	413.3992	459.8296	487.755	515.371	560.6733	678.7191	741.3864	828.3663	856.1488	882.3207	909.6469	930.6758	959.8184	1030.8006	1066.8015	1100.6267	1133.4446	1153.1725	1174.8356	1243.1656	1263.8689	1283.8873	1306.6501	1350.4808	1377.9663	1430.167	1461.5369	1486.7259	1507.0963	1752.9675	2914.8278	3017.2637	3086.1813	3116.8334	3148.8323	3507.8595	3647.3895
OC1C2OC2COC1=N	O[C@H]1[C@H]2O[C@H]2CO[C]1[NH]	
InChI=1S/C5H7NO3/c6-5-3(7)4-2(9-4)1-8-5/h2-4,6-7H,1H2	InChI=1S/C5H7NO3/c6-5-3(7)4-2(9-4)1-8-5/h2-4,6-7H,1H2/t2-,3-,4-/m0/s1
