25
gdb 60160	3.92425	0.7109	0.64771	1.4367	89.87	-0.2524	0.077	0.3294	1829.6077	0.227467	-389.488952	-389.478288	-389.477344	-389.525226	39.954	
C	-0.0346062513	 1.5633561617	-0.0569343103	-0.387993
C	 0.0366951743	 0.034416623	 0.0617783715	 0.041085
C	 0.830597608	-0.368942576	 1.3124124964	-0.377071
C	-1.3786966669	-0.5728658121	 0.0260449944	-0.191029
C	-1.4591380292	-2.0941598203	-0.0729605118	 0.033526
C	-1.3003626323	-2.9895345948	 1.1946482714	-0.240631
C	-2.4244971714	-3.8916169489	 0.6545313174	 0.137372
O	-3.3105018041	-4.3605663373	 1.6453585236	-0.433375
C	-2.8676569104	-2.7268631015	-0.2713088709	-0.284474
H	 0.9664099111	 2.006980715	-0.0802392889	 0.107152
H	-0.5601736298	 1.8708875565	-0.9672580692	 0.10725
H	-0.568260702	 1.9973567281	 0.7974261623	 0.110933
H	 0.5787875908	-0.3442329042	-0.8176194068	 0.06762
H	 0.3160919292	-0.0412775003	 2.223961255	 0.10965
H	 0.9704044207	-1.4507859271	 1.3800815091	 0.117661
H	 1.8231785783	 0.0942042038	 1.3096886812	 0.105639
H	-1.9403826615	-0.2391940371	 0.9111429937	 0.086183
H	-1.9076742416	-0.1517244361	-0.8406605497	 0.088709
H	-0.7833621784	-2.4450047141	-0.8626454402	 0.064936
H	-0.3318222935	-3.4486254709	 1.4040916684	 0.096414
H	-1.6512545452	-2.469076871	 2.091476814	 0.109684
H	-2.0127906885	-4.7241566425	 0.0649914958	 0.062366
H	-3.9770236382	-4.9093534773	 1.2199062379	 0.279705
H	-3.6373935342	-2.1317855261	 0.2316369766	 0.101583
H	-3.196196704	-2.9576242005	-1.2885048209	 0.087104
38.3383	66.5882	105.698	172.8104	225.1441	249.0333	260.9949	280.4694	300.981	376.0501	405.5293	426.9376	441.0257	470.1138	616.422	790.5275	805.3779	825.7318	860.7479	923.0888	925.7747	951.8233	961.9524	968.0944	1015.5204	1025.474	1060.0474	1074.6765	1129.9412	1143.954	1177.9072	1193.2835	1213.2812	1219.4779	1251.4925	1261.3568	1269.3785	1288.1858	1314.8885	1335.2581	1367.394	1369.6789	1390.2661	1399.2631	1421.1112	1430.1378	1467.8888	1476.7521	1487.5872	1495.0299	1500.1748	1505.0655	1510.6848	2986.6445	2988.976	2996.2413	3021.435	3022.0813	3028.6162	3037.9587	3043.8175	3056.7322	3085.4568	3091.2112	3096.2671	3102.4732	3113.2494	3116.6767	3814.3622
CC(C)CC1CC(O)C1	CC(C)C[C@H]1C[C@@H](O)C1	
InChI=1S/C8H16O/c1-6(2)3-7-4-8(9)5-7/h6-9H,3-5H2,1-2H3	InChI=1S/C8H16O/c1-6(2)3-7-4-8(9)5-7/h6-9H,3-5H2,1-2H3/t7-,8+
