21
gdb 104478	2.43854	1.53973	1.13499	2.7032	83.2	-0.2421	-0.025	0.2171	1154.0058	0.182507	-387.04349	-387.034748	-387.033804	-387.077515	33.377	
C	-1.583790331	-0.5546268971	 0.1556949956	-0.384188
C	-0.1523652097	-0.0169404302	 0.0284235469	-0.271901
C	 0.6172605403	-0.6158727708	-1.1575732819	 0.265076
C	 0.1860864097	 0.0825777345	-2.4348373629	 0.101229
O	-0.4845855197	 1.0877410115	-2.4615510611	-0.266593
C	 2.1742484655	-0.8943221754	-0.9920000647	-0.089468
C	 1.8042400342	-2.081058044	-0.0514424184	-0.227604
C	 0.8388995238	-2.1842133654	-1.2673986367	-0.089284
C	 2.0964368768	-1.9270597528	-2.151528458	-0.243262
H	-2.1592198927	-0.3619963912	-0.7543431893	 0.130155
H	-1.5926566391	-1.6342987116	 0.3415246014	 0.109981
H	-2.1071034292	-0.0711862658	 0.9862896041	 0.113386
H	-0.1933338153	 1.0646097901	-0.1265923195	 0.120852
H	 0.3824838141	-0.1750883935	 0.9668072571	 0.093101
H	 0.5000398538	-0.3796637836	-3.3907789104	 0.080046
H	 2.9397479695	-0.1333710154	-0.8309280031	 0.081558
H	 2.5553851619	-2.871768155	 0.0219287321	 0.094325
H	 1.3791505457	-1.8593422365	 0.9250573057	 0.103947
H	 0.0609885576	-2.9316358186	-1.4313052792	 0.080357
H	 1.9727453712	-1.5700184929	-3.1713047996	 0.101171
H	 2.8496154327	-2.7178872962	-2.1196049483	 0.097118
45.6366	76.9013	149.874	220.989	244.0933	308.175	401.9072	430.8359	471.2019	521.9483	611.9288	718.3717	754.522	789.5741	801.7468	855.759	895.2044	900.4384	960.765	978.8937	1008.5471	1019.3879	1027.1626	1054.64	1081.2386	1098.5313	1105.8294	1114.7268	1181.1161	1188.9617	1195.2353	1212.8307	1234.0674	1248.7371	1268.8094	1317.4026	1365.1862	1408.2042	1446.1864	1484.8026	1499.7576	1507.0756	1526.667	1559.8724	1801.7839	2930.9834	3035.0871	3067.7304	3072.739	3075.531	3094.6606	3097.9138	3103.2992	3106.7212	3120.8588	3153.7554	3156.2893
CCC1(C=O)C2CC1C2	CC[C@@]1(C=O)[C@H]2C[C@@H]1C2	
InChI=1S/C8H12O/c1-2-8(5-9)6-3-7(8)4-6/h5-7H,2-4H2,1H3	InChI=1S/C8H12O/c1-2-8(5-9)6-3-7(8)4-6/h5-7H,2-4H2,1H3/t6-,7+,8-
