17
gdb 36240	4.47646	1.10085	1.05222	2.0778	76.32	-0.2369	0.0547	0.2916	1163.9038	0.135258	-384.582535	-384.574983	-384.574039	-384.614975	29.671	
C	 0.0130945843	-1.192639503	 0.0970831469	-0.455261
C	-0.0361003235	 0.0079285186	 0.0541129473	 0.297536
C	-0.045477889	 1.4651649416	 0.0035326524	-0.376404
C	 1.3688987079	 2.0576832776	 0.0008000552	 0.021181
C	 1.5660530274	 3.5753180542	 0.0013166237	-0.155362
C	 1.5436153847	 3.9678098847	 1.4905148746	 0.095093
O	 1.2622095548	 2.7953859633	 2.2546871115	-0.289604
C	 2.1568520129	 2.0939067677	 1.3430445255	 0.057638
C	 2.8037879387	 3.4554135425	 0.8896688316	-0.151438
H	 0.0362971314	-2.253282659	 0.1366888185	 0.193176
H	-0.5819690516	 1.8009441499	-0.8934637186	 0.124053
H	-0.5859096139	 1.8674936798	 0.8672837554	 0.14691
H	 1.9884513642	 1.5975213715	-0.7740073492	 0.089936
H	 1.3788374602	 4.2843724683	-0.7952387729	 0.092461
H	 1.2510309563	 4.9345538169	 1.8774128179	 0.1124
H	 2.6271865367	 1.2177811015	 1.7822416194	 0.094176
H	 3.8128011084	 3.8322639141	 0.8055811807	 0.103508
59.1177	115.6952	221.519	281.6704	346.2863	453.2286	560.385	603.378	617.005	638.0872	756.6414	764.1248	774.7398	788.4486	828.1339	861.1014	909.6872	952.7908	971.9725	991.6778	1007.4469	1025.1673	1032.4781	1059.3806	1067.9708	1111.4024	1154.5253	1170.4665	1205.2025	1227.0683	1250.1865	1309.8012	1317.9666	1372.7917	1385.3883	1468.6528	2236.4073	3025.2873	3068.2849	3083.3025	3157.8869	3196.4619	3209.6384	3225.4869	3507.0534
C#CCC1C2C3OC1C23	C#CC[C@H]1[C@H]2[C@H]3O[C@@H]1[C@@H]23	
InChI=1S/C8H8O/c1-2-3-4-5-6-7(4)9-8(5)6/h1,4-8H,3H2	InChI=1S/C8H8O/c1-2-3-4-5-6-7(4)9-8(5)6/h1,4-8H,3H2/t4-,5+,6+,7-,8+/m0/s1
