21
gdb 89158	2.16868	1.68254	1.33516	1.2577	78.51	-0.2394	0.0687	0.308	1104.3307	0.180549	-424.20675	-424.197534	-424.19659	-424.240127	35.167	
C	 0.4593696784	 1.545666755	-0.0554698708	-0.414731
C	 0.1268213494	 0.0774396548	 0.0813280779	 0.134011
O	 0.8739324218	-0.7857711326	-0.831461565	-0.354482
C	 1.2639641094	-1.6792980018	 0.2398609129	 0.384456
C	 0.9291395749	-3.1186702135	-0.0396774291	-0.48801
C	 2.6279607518	-1.2847917409	 0.8582371519	 0.115463
C	 3.7123313979	-0.7031769997	-0.0196848327	-0.412114
O	 1.9689043275	-0.2993296912	 1.7124039424	-0.319336
C	 0.6612851965	-0.7165280061	 1.2864654278	-0.006052
H	 1.4950366576	 1.7330525868	 0.2344988549	 0.137314
H	 0.3108164852	 1.8696577904	-1.0900524252	 0.124789
H	-0.197535148	 2.1430919881	 0.5860581035	 0.116222
H	-0.9500814111	-0.0956539872	-0.0629590318	 0.073425
H	 1.4950151626	-3.4726602473	-0.9089851468	 0.132869
H	 1.1811301554	-3.7544640147	 0.8146130368	 0.121682
H	-0.1349024526	-3.2360679537	-0.2638604157	 0.127424
H	 3.0281790604	-2.0928136083	 1.4886952018	 0.069986
H	 3.2873196503	-0.0067462877	-0.7450183749	 0.13716
H	 4.4501866431	-0.17862737	 0.5951458316	 0.124901
H	 4.2300669288	-1.5019466785	-0.5620368554	 0.115497
H	-0.0047778094	-0.9643123519	 2.1156852158	 0.079528
99.5347	189.9549	193.3944	203.4628	215.13	232.7107	243.9912	300.4902	383.5538	436.2527	522.2145	564.0731	642.6422	672.7192	790.7565	836.8901	871.0922	882.3418	899.1464	952.1252	982.2143	1010.4698	1058.9874	1093.996	1104.086	1127.1458	1142.892	1166.912	1170.1987	1211.405	1262.3727	1301.0894	1319.9889	1356.1149	1377.8803	1387.7906	1399.6593	1406.7016	1415.8228	1480.2776	1482.6013	1483.5563	1489.3999	1493.4994	1500.2438	2989.3421	2991.2797	3034.578	3040.669	3041.5918	3087.4983	3101.8177	3105.815	3107.249	3116.5302	3137.8273	3139.9977
CC1OC2(C)C(C)OC12	C[C@H]1O[C@@]2(C)[C@@H](C)O[C@@H]12	
InChI=1S/C7H12O2/c1-4-6-7(3,9-4)5(2)8-6/h4-6H,1-3H3	InChI=1S/C7H12O2/c1-4-6-7(3,9-4)5(2)8-6/h4-6H,1-3H3/t4-,5-,6+,7+/m1/s1
