22
gdb 14513	3.25899	1.81821	1.47871	0.1384	81.89	-0.279	0.0886	0.3676	977.6416	0.201002	-313.018372	-313.010236	-313.009291	-313.050526	32.309	
C	-1.4365987682	-0.8768059759	 0.1089022101	-0.376714
C	-0.1402442608	-0.0727995665	-0.0597437297	-0.263498
C	 0.7121642317	-0.5068556959	-1.2727626151	 0.406111
C	 0.1470934044	 0.192697193	-2.5161571273	-0.480611
C	 2.2779337029	-0.559772591	-1.0830901816	-0.089755
C	 2.078839411	-1.8097364282	-0.1716555298	-0.229259
C	 1.1397653253	-2.0231691954	-1.3941899929	-0.077159
C	 2.3504257191	-1.5696640941	-2.264779711	-0.236592
H	-2.0584425753	-0.8439718173	-0.7918777322	 0.115737
H	-1.2239643811	-1.9294394854	 0.323081226	 0.117611
H	-2.0365185328	-0.4841994393	 0.9360832281	 0.109579
H	-0.3912007833	 0.9877802852	-0.1871085052	 0.088661
H	 0.429447378	-0.1238708604	 0.8714031896	 0.095451
H	 0.3262314895	 1.2726103289	-2.4547505615	 0.114272
H	 0.5611981912	-0.1566730692	-3.4621076404	 0.113895
H	-0.9378687258	 0.0524544489	-2.5713992019	 0.115124
H	 2.9425962275	 0.2882914706	-0.9009595427	 0.061168
H	 2.9343684043	-2.4871938539	-0.1093398148	 0.085499
H	 1.627683179	-1.6757993912	 0.8104816461	 0.091715
H	 0.4862333791	-2.8787419563	-1.5782746842	 0.062591
H	 2.1635024357	-1.203895681	-3.2727605188	 0.090126
H	 3.2107180988	-2.2440894655	-2.2572892609	 0.086049
84.3795	164.357	171.5814	218.7898	280.6541	386.0073	428.0532	436.0733	531.8571	581.2684	656.3033	766.1269	784.6429	799.5523	861.1701	892.4344	899.628	906.8889	989.9422	1005.4152	1014.3017	1020.3567	1028.1705	1056.7559	1089.3456	1099.8681	1110.2617	1138.0045	1183.0785	1191.3999	1204.2622	1213.7523	1238.291	1253.4581	1269.7405	1334.0352	1361.6317	1406.1519	1416.666	1482.2312	1494.4398	1497.1687	1502.3598	1509.4646	1527.4089	1556.1777	3027.6829	3033.216	3035.7479	3064.4272	3065.0077	3076.9537	3079.6361	3086.2841	3090.6674	3101.1403	3104.2503	3128.1253	3142.0977	3150.7015
CCC1(C)C2CC1C2	CC[C@@]1(C)[C@H]2C[C@@H]1C2	
InChI=1S/C8H14/c1-3-8(2)6-4-7(8)5-6/h6-7H,3-5H2,1-2H3	InChI=1S/C8H14/c1-3-8(2)6-4-7(8)5-6/h6-7H,3-5H2,1-2H3/t6-,7+,8-
