18
gdb 126278	3.41655	1.24108	0.98856	4.8859	79.97	-0.2392	0.0119	0.2511	1231.8372	0.149255	-398.100467	-398.092292	-398.091347	-398.134527	29.695	
C	-0.2168011524	 1.5858145979	-0.0764536495	-0.366706
C	 0.065464667	 0.0741943881	-0.0462253413	-0.28583
C	 0.8399999479	-0.3508467511	 1.1606892935	 0.124717
C	 2.1724977736	-0.6481847629	 1.3653211394	 0.27352
C	 3.6617637517	-0.9145966961	 1.1430227166	-0.384253
C	 3.7071636773	-1.2440504292	 2.6863060139	-0.167272
N	 2.2600043222	-0.9319650489	 2.6731629148	 0.088994
N	 1.0931542153	-0.8434490281	 3.3240834631	-0.188422
N	 0.2379613522	-0.484424355	 2.3910308437	-0.241637
H	 0.7148893961	 2.1603112024	-0.1021702522	 0.111142
H	-0.8070745598	 1.8549208455	-0.9579693289	 0.109844
H	-0.7723620919	 1.8873093164	 0.8157798384	 0.138531
H	-0.8847893459	-0.4704748698	-0.0589650933	 0.123086
H	 0.6124135896	-0.2204966214	-0.9485041854	 0.097297
H	 3.898812833	-1.7595356727	 0.493731242	 0.138237
H	 4.2594299476	-0.050375278	 0.8472589826	 0.137708
H	 3.9255568011	-2.2812992443	 2.9465554274	 0.145841
H	 4.2939348052	-0.5627711527	 3.3050288451	 0.145202
25.1431	111.2152	172.2434	199.5419	235.3569	284.913	412.6757	481.8338	625.9452	680.1275	700.305	733.9283	789.5847	808.2689	866.4841	900.789	976.0859	1041.3472	1059.2446	1071.4744	1085.0875	1133.5167	1172.6063	1179.5163	1204.2922	1218.48	1265.3292	1277.6538	1312.7965	1334.6171	1364.2365	1406.2559	1471.7162	1479.6856	1484.8112	1495.477	1507.0083	1522.1276	1606.431	3036.8715	3040.5899	3077.2446	3078.6613	3082.4511	3106.7113	3121.465	3128.3424	3145.0106
CCC1=C2CCN2N=N1	CCc1c2CCn2nn1	
InChI=1S/C6H9N3/c1-2-5-6-3-4-9(6)8-7-5/h2-4H2,1H3	InChI=1S/C6H9N3/c1-2-5-6-3-4-9(6)8-7-5/h2-4H2,1H3
