15
gdb 125752	5.11385	0.91706	0.85913	1.3865	72.8	-0.2762	-0.0217	0.2545	1348.7156	0.111239	-416.786847	-416.778293	-416.777349	-416.821277	30.295	
C	 0.7909535825	 1.191519304	-0.6057876155	-0.488695
C	 0.0216515778	 0.0878141468	 0.0319134582	 0.354137
N	-1.2744595359	-0.0282458949	-0.0919307625	-0.164868
O	-1.5730528215	-1.1802335055	 0.6524778249	-0.191564
C	-0.4110618278	-1.6252375432	 1.1379653729	 0.423725
C	-0.4172622952	-2.8490781116	 2.004983378	-0.45407
C	-0.9771387145	-4.0247197984	 1.3450904399	 0.302788
C	-1.4342917679	-4.9943308952	 0.805578043	-0.436166
N	 0.6091728716	-0.8992873676	 0.8008532566	-0.345275
H	 1.5422782742	 0.7831816488	-1.2882034984	 0.151233
H	 0.1206428658	 1.8497012495	-1.1601302247	 0.151731
H	 1.3203581372	 1.7726611891	 0.1551026033	 0.149848
H	 0.6183862377	-3.0295727599	 2.3071359028	 0.173253
H	-0.9864188466	-2.6303104358	 2.9181070655	 0.16571
H	-1.8414344172	-5.8500549361	 0.3260987558	 0.208213
25.4551	96.4004	141.174	206.8174	252.0065	322.5682	335.7606	384.1821	459.7508	630.691	635.1179	662.979	690.8186	727.4253	801.6418	911.5287	950.7729	963.6754	996.8144	1044.9779	1063.8245	1072.0131	1203.2581	1318.0094	1330.4799	1375.4705	1422.5536	1453.7311	1474.0131	1475.9226	1568.3987	1630.4681	2251.0296	3029.743	3052.7676	3095.1722	3113.2812	3152.3544	3505.4175
CC1=NOC(CC#C)=N1	Cc1noc(CC#C)n1	
InChI=1S/C6H6N2O/c1-3-4-6-7-5(2)8-9-6/h1H,4H2,2H3	InChI=1S/C6H6N2O/c1-3-4-6-7-5(2)8-9-6/h1H,4H2,2H3
