21
gdb 105900	2.10371	1.75247	1.18395	1.4413	82.34	-0.2477	0.0716	0.3193	1135.721	0.182298	-387.019618	-387.01105	-387.010106	-387.052715	33.494	
C	-0.106068882	 1.515516758	 0.0281641118	-0.380262
C	 0.1162597874	-0.0016632016	-0.0162444591	-0.324531
C	 0.8169177148	-0.4605768811	-1.2683996389	 0.32853
C	 2.2349350612	-0.1004304116	-1.7720449362	 0.102915
O	 3.3592624061	-0.441710173	-0.9978860861	-0.45224
C	 1.709458243	-1.0629374376	-2.8499832148	-0.098858
C	 0.9458022602	-1.9473395494	-1.7986885308	-0.124077
C	-0.3766095555	-1.8565555921	-2.5831480971	-0.271836
C	 0.2647865196	-0.4648957025	-2.7463381926	-0.080922
H	 0.8445276578	 2.055704014	-0.0266311472	 0.125503
H	-0.7277971015	 1.8487912926	-0.8094458063	 0.116268
H	-0.6053580805	 1.8129140572	 0.9551945329	 0.112578
H	 0.7154424016	-0.3088359106	 0.8511609708	 0.101587
H	-0.8463561967	-0.5215397101	 0.0766282712	 0.098581
H	 2.3888389626	 0.9377313612	-2.0845323332	 0.079179
H	 3.2773691308	-1.3664686938	-0.740173856	 0.280062
H	 2.1894630048	-1.4210928675	-3.7621935236	 0.069132
H	 1.3462070488	-2.8023800417	-1.2487689823	 0.062833
H	-0.4540062174	-2.4705736264	-3.4861471836	 0.09232
H	-1.3040454117	-1.9132035368	-2.0043591163	 0.093264
H	-0.1012588431	 0.4047896327	-3.2944074628	 0.069972
71.7826	170.3722	177.5219	208.9194	248.4117	286.4886	314.4854	412.5571	505.782	551.3185	640.4828	718.8013	761.2868	799.0127	856.864	877.2629	887.4241	909.6494	937.1819	938.8624	982.5429	1005.1296	1031.7921	1052.0028	1079.4421	1107.4648	1115.2196	1146.742	1155.9823	1163.4005	1169.4178	1216.2052	1236.5907	1255.2352	1275.0988	1290.1512	1314.3784	1330.1673	1376.1946	1411.2355	1449.624	1476.8161	1499.9257	1506.0674	1513.4541	3014.0058	3035.9653	3037.3564	3045.4405	3061.4421	3078.2562	3092.5457	3095.5081	3104.9399	3107.5244	3107.7756	3803.8746
CCC12C(O)C3C1CC23	CC[C@@]12[C@@H](O)[C@H]3[C@@H]1C[C@@H]23	
InChI=1S/C8H12O/c1-2-8-4-3-5(8)6(4)7(8)9/h4-7,9H,2-3H2,1H3	InChI=1S/C8H12O/c1-2-8-4-3-5(8)6(4)7(8)9/h4-7,9H,2-3H2,1H3/t4-,5+,6-,7-,8+/m0/s1
