20
gdb 108381	2.47702	1.32709	1.0866	1.6326	85.6	-0.2264	0.0322	0.2586	1220.6775	0.16969	-365.940342	-365.931198	-365.930254	-365.974179	34.805	
C	-0.2538336113	 1.4942239568	-0.0012458625	-0.379518
C	 0.137452209	 0.0107437564	-0.0368873619	-0.287211
C	 0.8112190236	-0.4354533843	 1.23089328	 0.35516
C	 2.2517211305	-0.1045807515	 1.6325139224	-0.315617
C	 2.3550019495	-1.5791640367	 2.0966371843	-0.154291
N	 0.9523979924	-1.8881099017	 1.6363476334	-0.199368
C	 0.047270949	-0.9675157334	 2.3971273595	-0.262573
C	 0.2821394927	-0.5815126438	 3.7584426841	 0.359719
C	 0.4635469415	-0.259682569	 4.9038714154	-0.457987
H	 0.6235569755	 2.1321752756	 0.1487728226	 0.121454
H	-0.7285708942	 1.7961799126	-0.9392488518	 0.117086
H	-0.954949229	 1.6977232	 0.8145179807	 0.123623
H	-0.7488562804	-0.6118917434	-0.2049542134	 0.109467
H	 0.812121942	-0.1763436782	-0.882364017	 0.102133
H	 2.8860518527	 0.1186507346	 0.7719446689	 0.107464
H	 2.3811023418	 0.675495794	 2.3865126147	 0.114525
H	 3.0583620567	-2.1791403792	 1.5169592293	 0.111128
H	 2.5174151679	-1.7558097492	 3.1625630037	 0.12019
H	-0.990082631	-1.2117384	 2.179977605	 0.115497
H	 0.617299491	 0.0240048006	 5.9156232026	 0.199121
71.8648	111.5367	147.4813	196.4076	212.8828	282.3987	344.2497	375.0895	412.3339	526.832	561.7136	595.2275	657.0196	662.6686	762.746	784.4191	790.3147	811.5489	867.867	949.2315	959.7681	990.0587	1004.0417	1045.2804	1073.1178	1086.3568	1140.277	1171.6304	1219.9842	1232.5846	1251.7449	1284.5292	1306.3978	1345.2255	1351.0181	1409.6147	1428.0808	1479.1156	1484.9399	1498.982	1505.4209	1508.3301	2228.8891	3023.5008	3036.7757	3063.3822	3064.0136	3071.57	3105.3668	3111.3818	3112.0708	3130.8316	3135.4507	3501.9359
CCC12CCN1C2C#C	CC[C@]12CCN1[C@H]2C#C	
InChI=1S/C8H11N/c1-3-7-8(4-2)5-6-9(7)8/h1,7H,4-6H2,2H3	InChI=1S/C8H11N/c1-3-7-8(4-2)5-6-9(7)8/h1,7H,4-6H2,2H3/t7-,8+,9?/m0/s1
