15
gdb 129468	4.77935	1.02676	0.86993	5.1926	66.45	-0.2506	0.0042	0.2549	1256.063	0.115211	-450.193087	-450.185038	-450.184094	-450.226759	28.818	
N	 0.1273068308	 1.2540075363	-0.1214240305	-0.517444
C	-0.1265337592	 0.0254463107	 0.3955388195	 0.428245
O	 0.387640734	-0.3654117468	 1.4310500578	-0.370371
C	-1.1474225872	-0.8034501243	-0.3862364653	-0.447728
C	-0.9230001996	-2.2802311379	-0.3035181895	 0.38606
N	-1.2929453342	-3.1672485701	-1.2144143889	-0.330443
C	-0.9010501397	-4.3465002958	-0.6563439415	 0.019683
N	-0.3171426678	-4.2462444596	 0.5268023956	-0.21849
N	-0.3492550944	-2.9107556814	 0.7386296988	-0.213894
H	 0.7663488494	 1.8572258988	 0.3708289595	 0.270745
H	-0.2586110856	 1.5641212141	-0.9953613524	 0.269799
H	-2.1328275093	-0.556776159	 0.034243542	 0.164255
H	-1.1847721086	-0.5211455374	-1.4413565801	 0.142922
H	-1.0477005012	-5.3022703712	-1.1366889004	 0.12185
H	 0.0782077425	-2.4650533565	 1.5381898553	 0.29481
45.6762	75.5736	177.2146	228.3493	269.0835	333.2273	374.2116	503.8481	603.607	642.2903	666.916	711.2813	753.9583	794.8778	869.3009	907.0509	957.7234	986.3448	1058.6025	1092.2499	1120.9722	1198.1624	1207.6373	1276.5046	1286.5231	1311.1084	1392.7797	1432.3175	1452.5618	1503.0656	1582.7115	1622.069	1781.0656	3019.3881	3101.411	3261.0055	3604.526	3624.5768	3741.9264
NC(=O)CC1=NC=NN1	NC(=O)Cc1ncn[nH]1	
InChI=1S/C4H6N4O/c5-3(9)1-4-6-2-7-8-4/h2H,1H2,(H2,5,9)(H,6,7,8)	InChI=1S/C4H6N4O/c5-3(9)1-4-6-2-7-8-4/h2H,1H2,(H2,5,9)(H,6,7,8)
