17
gdb 29744	3.38416	1.24607	0.92127	5.3947	80.87	-0.2339	-0.0503	0.1836	1230.1385	0.136015	-418.067891	-418.058987	-418.058042	-418.101762	31.334	
C	 0.0328194363	 1.4372132755	-0.0244789529	-0.353095
N	 0.0142438311	-0.0152702591	-0.0048165106	-0.100847
C	 0.0168191315	-0.8553230737	-1.1182336798	 0.168089
C	 0.0389121581	-0.4062639192	-2.495797548	 0.062931
O	 0.0402314111	-1.1492365739	-3.4561958243	-0.279896
C	-0.0056642609	-2.1347246955	-0.5930503537	-0.132147
N	-0.0212541819	-2.104987312	 0.7638427479	-0.301133
C	-0.0088282818	-0.8175499005	 1.0949853815	 0.342351
C	-0.0191324232	-0.3181623729	 2.5016639552	-0.505708
H	 0.9333488949	 1.8096578323	-0.5213700513	 0.154404
H	-0.8450335141	 1.8320197426	-0.5441400078	 0.154434
H	 0.0243352773	 1.8083953558	 1.0001005394	 0.151604
H	 0.0540704572	 0.698663942	-2.6357576351	 0.054186
H	-0.0107857108	-3.0583742791	-1.1513221316	 0.141146
H	 0.8700200896	 0.2780700235	 2.735706245	 0.139373
H	-0.8996136196	 0.2982123624	 2.7155155737	 0.139419
H	-0.0365879349	-1.1844943382	 3.1632893325	 0.164889
98.2105	112.0592	143.8938	161.2282	181.3946	262.4081	299.3524	299.5371	376.1066	523.353	642.6518	643.4775	693.0623	740.4817	815.7754	899.0631	974.3712	1002.6645	1022.5748	1062.3913	1149.3926	1158.3732	1194.5625	1228.1938	1333.6101	1357.2488	1405.112	1429.9618	1460.5137	1468.1135	1478.9518	1495.9712	1498.3872	1506.9308	1525.8551	1576.1752	1773.9105	2863.2236	3033.1124	3048.1529	3084.507	3108.4348	3153.4888	3157.6521	3259.5876
CN1C(C=O)=CN=C1C	Cn1c(C=O)cnc1C	
InChI=1S/C6H8N2O/c1-5-7-3-6(4-9)8(5)2/h3-4H,1-2H3	InChI=1S/C6H8N2O/c1-5-7-3-6(4-9)8(5)2/h3-4H,1-2H3
