16
gdb 6449	4.56216	1.40904	1.3054	1.6189	65.56	-0.2638	0.022	0.2858	949.0816	0.131366	-379.916063	-379.908357	-379.907413	-379.947757	29.504	
N	-0.4721271541	 1.0511865384	 0.4383325976	-0.536564
C	 0.0096951627	-0.2500514786	-0.043180015	 0.126204
C	 0.4101032398	-1.13492112	 1.1783368108	-0.263552
C	-1.0623917195	-1.6465854555	 1.2280619328	 0.151643
O	-1.8899341156	-0.9570000657	 2.1270773252	-0.43591
C	-1.2079231415	-1.2018493836	-0.2597405734	-0.263549
C	 0.9784489367	-0.1382650279	-1.1383848885	 0.20631
N	 1.7407586764	-0.025188292	-2.0011625822	-0.338715
H	 0.3088354267	 1.6157539012	 0.7634366571	 0.248078
H	-0.9115581171	 1.5652504231	-0.3212540704	 0.248078
H	 1.115359032	-1.9183895768	 0.8932917557	 0.1247
H	 0.7793158821	-0.6019044391	 2.0571886168	 0.114589
H	-1.1968733395	-2.7107887095	 1.4288939727	 0.09266
H	-1.763839898	-0.0146544422	 1.9413757138	 0.286745
H	-2.1474172426	-0.7229674569	-0.5440449091	 0.114587
H	-0.9709493483	-2.0046772748	-0.9610022439	 0.124696
117.4906	147.1684	205.7221	303.1465	341.0696	366.4696	422.0925	428.2994	558.9738	562.7544	598.9571	604.2093	810.305	845.2732	851.8098	923.206	939.5059	950.0169	980.6459	1002.1793	1074.8599	1146.633	1187.203	1207.5449	1257.1574	1258.4218	1271.3918	1298.8128	1342.1478	1452.3246	1462.1106	1478.7181	1654.1592	2340.9711	3068.8195	3073.237	3100.1148	3135.5566	3137.1184	3479.988	3560.4853	3715.8007
NC1(CC(O)C1)C#N	N[C@]1(C[C@@H](O)C1)C#N	
InChI=1S/C5H8N2O/c6-3-5(7)1-4(8)2-5/h4,8H,1-2,7H2	InChI=1S/C5H8N2O/c6-3-5(7)1-4(8)2-5/h4,8H,1-2,7H2/t4-,5+
