18
gdb 106120	2.69097	1.5038	1.22756	1.4653	71.4	-0.217	0.0755	0.2925	1071.3532	0.147544	-438.98943	-438.981272	-438.980327	-439.022193	31.224	
C	 0.1803479243	 1.3971246394	-0.1947841656	-0.258896
O	-0.1763868276	 0.0514061298	 0.1108344157	-0.285205
C	 0.515851139	-0.4686621079	 1.1569189517	 0.400599
C	 1.944103014	-0.8380035294	 1.3936766893	-0.128869
N	 2.0282381361	-0.0745894216	 2.6433243159	-0.303687
C	 0.5474933253	-0.1952227639	 2.7371373871	-0.156394
C	 0.2276275061	-1.7156283069	 2.9157310668	 0.150924
O	-1.1453457878	-2.0112671272	 3.0269521129	-0.441729
C	 0.8059590494	-1.907616439	 1.5171804617	-0.212439
H	 1.2438143765	 1.4733665432	-0.452305084	 0.125061
H	-0.4281694305	 1.6969857586	-1.0498563496	 0.130725
H	-0.0272350161	 2.0633382667	 0.6520693075	 0.125115
H	 2.7683260368	-0.9581573805	 0.7017391676	 0.10258
H	 2.502827528	-0.5735556631	 3.3990208618	 0.210706
H	 0.0060865262	 0.55017868	 3.3184360408	 0.082084
H	 0.715122277	-2.2132748382	 3.7621787623	 0.075851
H	-1.574500705	-1.7220059496	 2.2123424897	 0.287367
H	 0.7762447283	-2.7830425203	 0.8806577681	 0.096205
88.9413	136.0911	166.0115	215.2794	307.2532	361.4231	384.6116	429.2811	484.5066	553.0825	612.8649	758.6063	790.485	830.9799	857.9252	923.5902	962.0025	971.497	1000.7288	1033.5239	1039.8546	1048.6312	1074.5817	1088.7188	1114.7439	1156.2818	1177.902	1188.5185	1211.2122	1245.631	1257.4438	1283.5183	1304.7249	1349.0827	1422.833	1445.2484	1485.4092	1501.9208	1511.4624	3011.4254	3044.1056	3073.3872	3128.1754	3133.8121	3194.3192	3204.2741	3414.8853	3783.3407
COC12C3NC1C(O)C23	CO[C@@]12[C@H]3N[C@@H]1[C@@H](O)[C@@H]23	
InChI=1S/C6H9NO2/c1-9-6-2-3(8)5(6)7-4(2)6/h2-5,7-8H,1H3	InChI=1S/C6H9NO2/c1-9-6-2-3(8)5(6)7-4(2)6/h2-5,7-8H,1H3/t2-,3+,4+,5-,6+/m1/s1
