19
gdb 84289	2.25631	1.6846	1.23981	3.8505	77.24	-0.2374	-0.0487	0.1887	1073.2131	0.15782	-423.061742	-423.052506	-423.051562	-423.095384	34.824	
C	 0.0944386381	 1.5025982774	 0.0857224164	-0.404263
C	-0.0128802833	-0.0312153363	-0.0307784933	 0.139149
C	-1.4829609364	-0.4625282776	-0.0736123879	-0.435778
C	 0.8276693947	-0.5784023613	-1.2175825791	 0.031405
O	 1.0892340755	 0.4343970692	-2.1799527153	-0.423633
C	 2.0819547986	-1.127794584	-0.5674397588	-0.092641
C	 1.9973079881	-1.1815710941	 0.7645536085	-0.179936
C	 0.6933049741	-0.6327688839	 1.2070374763	 0.371857
O	 0.2468860693	-0.6313855074	 2.3309254283	-0.34808
H	 1.1356680919	 1.833703595	 0.1185315571	 0.121217
H	-0.3813287104	 1.9843042312	-0.7711737475	 0.126868
H	-0.4026668713	 1.8271600494	 1.0039741228	 0.125868
H	-2.0013509849	 0.008432525	-0.9149323208	 0.116683
H	-1.5803708252	-1.5485962377	-0.176952111	 0.111474
H	-1.9826229223	-0.1710445362	 0.853958566	 0.13727
H	 0.2821728898	-1.4086042888	-1.6950796481	 0.082661
H	 1.4840091236	 0.0203463844	-2.9537459001	 0.287261
H	 2.9278943929	-1.4579830384	-1.1632740274	 0.111466
H	 2.734022127	-1.5671863658	 1.4582283239	 0.121153
54.7346	193.634	213.3223	227.3266	253.2002	259.844	283.4966	295.6689	326.8517	375.552	508.0156	532.8641	617.2429	688.9008	711.6152	766.2404	830.0779	873.5364	951.9596	964.8051	997.8165	1016.7929	1030.1439	1062.1287	1113.5698	1139.6024	1148.7954	1229.3033	1245.1864	1265.7024	1334.2504	1354.4438	1392.5581	1404.2149	1426.377	1482.4939	1485.8186	1501.3173	1508.554	1653.8787	1812.0416	2962.7904	3033.1095	3048.8934	3099.1499	3120.4288	3123.9921	3132.3028	3177.0372	3221.356	3821.8424
CC1(C)C(O)C=CC1=O	CC1(C)[C@@H](O)C=CC1=O	
InChI=1S/C7H10O2/c1-7(2)5(8)3-4-6(7)9/h3-5,8H,1-2H3	InChI=1S/C7H10O2/c1-7(2)5(8)3-4-6(7)9/h3-5,8H,1-2H3/t5-/m0/s1
