21
gdb 63917	2.90001	1.57055	1.53119	1.629	80.15	-0.2226	0.0859	0.3086	1008.5423	0.183209	-387.064063	-387.056263	-387.055319	-387.095659	32.379	
C	-0.0934375816	 1.5779120391	 0.0162227882	-0.429275
C	 0.000485441	 0.0432945058	-0.0115269685	 0.314194
C	-1.4085839265	-0.5694501934	-0.0252179044	-0.438577
C	 0.8424998197	-0.4679240399	-1.2328117444	-0.260135
C	 2.1636094898	-0.9074256037	-0.6180303617	 0.08851
O	 2.7786784262	 0.2671376719	 0.0178625441	-0.310165
C	 2.2770980113	-0.1865215501	 1.276212271	 0.083711
C	 1.8294986215	-1.5179137186	 0.7644588383	-0.169205
C	 0.7946129266	-0.4964222771	 1.1922090428	-0.098095
H	 0.9024480665	 2.0243714886	-0.0226996232	 0.134203
H	-0.6727879953	 1.9506156253	-0.8363549021	 0.10371
H	-0.5924957423	 1.9216717122	 0.9295073229	 0.102746
H	-1.9446136856	-0.2909351997	-0.939581811	 0.110759
H	-1.3661986754	-1.6629793309	 0.0200037177	 0.109471
H	-2.0022155197	-0.2195234318	 0.8268829341	 0.108447
H	 0.3527183024	-1.3216512347	-1.7166806893	 0.091402
H	 0.992262303	 0.3080927887	-1.9892303997	 0.105484
H	 2.8712201384	-1.416876101	-1.2743381771	 0.077781
H	 2.8019303018	 0.1213209929	 2.1731186187	 0.100831
H	 1.9638051883	-2.5304692566	 1.1174545805	 0.094106
H	 0.2830490899	-0.639614177	 2.1392484132	 0.080098
135.641	230.7212	246.8316	272.9414	320.4707	363.4892	395.2844	405.4459	543.9906	614.8345	668.9209	760.9024	786.2816	807.7448	837.894	849.2446	897.4604	928.7826	950.0323	960.6922	969.6428	997.0156	1000.2711	1028.2411	1037.7501	1057.2375	1080.201	1097.0229	1134.2706	1200.3412	1225.328	1231.0048	1245.6308	1284.7615	1298.1605	1302.3041	1349.8327	1395.4598	1395.8577	1419.3198	1475.3141	1488.4327	1489.7146	1502.4723	1514.4951	3020.1533	3026.1247	3034.109	3082.736	3090.7186	3090.9415	3095.0274	3100.8804	3128.9315	3159.7197	3180.724	3211.7145
CC1(C)CC2OC3C2C13	CC1(C)C[C@H]2O[C@@H]3[C@H]2[C@H]13	
InChI=1S/C8H12O/c1-8(2)3-4-5-6(8)7(5)9-4/h4-7H,3H2,1-2H3	InChI=1S/C8H12O/c1-8(2)3-4-5-6(8)7(5)9-4/h4-7H,3H2,1-2H3/t4-,5-,6+,7-/m1/s1
