25
gdb 57526	2.64216	1.06941	0.99239	1.4237	88.85	-0.254	0.0619	0.3159	1396.2126	0.2259	-389.490322	-389.479399	-389.478455	-389.52558	42.257	
C	 0.6223549534	 1.2111141397	 0.2892860616	-0.410891
C	 0.1094739347	-0.2139683036	 0.0417410862	 0.335977
C	 0.8103020758	-1.2035333548	 0.9869794286	-0.406954
O	-1.3052055097	-0.2678874912	 0.2803044698	-0.454911
C	 0.3110188605	-0.6817814648	-1.4164700375	-0.261046
C	-0.1896709863	 0.2124045896	-2.5454472839	 0.375357
C	-1.6839521529	 0.4822523742	-2.5984344281	-0.448705
C	 0.7359369888	 1.2911177358	-3.0664160412	-0.292498
C	 0.5077362493	 0.0393444419	-3.8777377334	-0.31549
H	 1.6959034944	 1.2910734062	 0.0900004325	 0.111405
H	 0.1005588388	 1.9301802679	-0.3447770557	 0.13236
H	 0.4613121098	 1.4940906608	 1.3368913805	 0.095838
H	 0.6219238063	-0.9335996388	 2.0330157415	 0.097915
H	 0.432561656	-2.2172380737	 0.8252502526	 0.120106
H	 1.894669742	-1.2067474648	 0.8356199861	 0.111377
H	-1.4600516832	 0.0254181688	 1.1845939568	 0.272397
H	 1.3845000969	-0.8534325749	-1.5600383596	 0.085304
H	-0.174605205	-1.6630193645	-1.5008710055	 0.100856
H	-2.0312584207	 1.0182617046	-1.7129638327	 0.126478
H	-1.937038136	 1.070643803	-3.4866658193	 0.096212
H	-2.2469114791	-0.4570275118	-2.6458726983	 0.111656
H	 0.2951574098	 2.2182536431	-3.4183857885	 0.105673
H	 1.7039798604	 1.4179926254	-2.5933339263	 0.103232
H	 1.319510242	-0.6777236037	-3.9472626274	 0.103034
H	-0.093371896	 0.1146595558	-4.7778706988	 0.105318
49.4133	112.7621	173.4428	224.5908	236.2224	261.1689	274.138	285.0959	294.4558	310.657	366.0987	375.8048	414.3577	419.6034	457.478	544.4786	732.252	764.2354	787.2942	861.0304	882.527	901.1222	916.7933	945.572	954.8063	969.8236	985.019	1022.1365	1042.3161	1069.7583	1079.6371	1115.3338	1148.1882	1168.979	1189.0151	1201.1274	1277.3856	1317.4488	1357.8819	1360.3355	1395.082	1395.8312	1416.436	1424.735	1462.8831	1469.6	1479.1046	1482.6895	1489.7422	1497.765	1500.6189	1506.3984	1511.7569	3016.4011	3022.8983	3029.6503	3031.3665	3060.7693	3086.7337	3090.3809	3094.7942	3114.1714	3122.8752	3126.6711	3128.605	3133.8289	3199.7735	3214.3722	3802.972
CC(C)(O)CC1(C)CC1	CC(C)(O)CC1(C)CC1	
InChI=1S/C8H16O/c1-7(2,9)6-8(3)4-5-8/h9H,4-6H2,1-3H3	InChI=1S/C8H16O/c1-7(2,9)6-8(3)4-5-8/h9H,4-6H2,1-3H3
