13
gdb 131578	7.55618	0.65785	0.60746	1.4509	73.08	-0.2537	-0.0364	0.2174	1701.0437	0.089839	-448.865813	-448.857581	-448.856637	-448.900969	27.661	
O	 0.0055077816	 1.4320386319	 0.010609587	-0.404565
C	-0.0185619749	 0.0137521988	 0.0021867687	-0.227071
C	-1.3998935279	-0.4506201813	 0.0125405159	 0.266404
C	-2.5308573325	-0.8624615438	 0.0208685593	-0.000663
C	-3.849567135	-1.3696254237	 0.0305413313	 0.212864
N	-4.9481272678	-0.6091324666	 0.0404802739	-0.24783
N	-5.8917521525	-1.535603081	 0.0465347809	-0.102631
N	-5.4520615457	-2.7873471564	 0.0409104209	-0.09677
N	-4.1516092158	-2.7052214208	 0.0306311039	-0.255677
H	 0.9286545689	 1.7049098764	 0.0017195938	 0.295134
H	 0.482615826	-0.3964299418	-0.8901117188	 0.128262
H	 0.4995031854	-0.4072250528	 0.8796963698	 0.128281
H	-6.8757461998	-1.3103701589	 0.0548081434	 0.304262
17.3508	75.5839	108.2326	206.421	215.5734	299.4553	423.6004	499.3131	530.7967	584.9722	626.5188	731.3165	792.1306	965.361	1022.4955	1035.0985	1061.6132	1088.9914	1114.6221	1205.4885	1244.348	1252.9765	1262.3268	1317.4207	1452.9022	1481.4187	1498.9846	1526.5857	2379.0417	2964.0054	2983.1795	3645.2398	3821.4917
OCC#CC1=NNN=N1	OCC#Cc1n[nH]nn1	
InChI=1S/C4H4N4O/c9-3-1-2-4-5-7-8-6-4/h9H,3H2,(H,5,6,7,8)	InChI=1S/C4H4N4O/c9-3-1-2-4-5-7-8-6-4/h9H,3H2,(H,5,6,7,8)
