23
gdb 73823	2.4248	1.63262	1.17235	0.0288	92.09	-0.2118	0.0328	0.2446	1169.827	0.207223	-351.169571	-351.160913	-351.159968	-351.202323	34.566	
C	 0.0371124655	 1.5330579386	 0.1514827576	-0.48517
C	 0.0093325639	 0.0388454828	-0.0132145082	 0.203479
C	-0.1403765232	-0.6369772041	-1.1633347968	 0.238804
C	-0.3123411523	-0.0477500687	-2.5345519065	-0.507734
C	-0.1371791858	-2.1590291165	-1.0821706979	-0.085891
C	-1.0682799983	-2.6118850167	 0.0818078885	-0.21747
C	 0.1293083314	-2.2716815454	 1.0143440584	-0.017295
C	 1.0517224471	-2.6218555821	-0.18820113	-0.217471
C	 0.1692348716	-0.7593661529	 1.2717058128	-0.279861
H	-0.7602085714	 1.8661763312	 0.8295258618	 0.118541
H	 0.9819163684	 1.8583521895	 0.6075182853	 0.118536
H	-0.0802056443	 2.0749422919	-0.7884981777	 0.118383
H	-0.3077869477	 1.043546827	-2.5425979938	 0.118894
H	 0.4850791429	-0.3912613108	-3.207165888	 0.122245
H	-1.2565276018	-0.3823287866	-2.9849333691	 0.122253
H	-0.264297783	-2.621984473	-2.0631496463	 0.049868
H	-2.0064605797	-2.0679271113	 0.221510198	 0.087687
H	-1.2629187327	-3.6878983259	 0.0550494617	 0.089359
H	 0.2446654827	-2.8397284079	 1.9410747295	 0.053968
H	 1.2234790135	-3.6995907485	-0.2616284089	 0.089359
H	 1.999957342	-2.0867564079	-0.2887546523	 0.087689
H	 1.115859757	-0.4848413308	 1.7615260326	 0.095915
H	-0.6217194357	-0.4766010218	 1.9829176793	 0.095912
133.3461	145.4706	166.4795	173.6424	324.8348	347.1557	348.5943	398.7862	416.1922	475.4341	578.2897	591.0855	687.608	814.8194	822.59	853.4814	874.1708	910.945	919.0818	941.8232	1004.8259	1015.2102	1031.5621	1047.6778	1072.1699	1074.3477	1101.3042	1115.212	1133.9826	1159.9346	1180.9718	1214.0048	1234.5845	1247.7302	1264.2042	1293.0386	1334.2216	1358.7423	1375.9333	1405.3195	1421.5195	1474.119	1476.1543	1477.8028	1483.304	1485.9909	1496.1688	1507.7841	1735.9622	2985.5161	3008.1829	3009.1657	3012.1132	3044.0713	3047.1667	3048.6991	3050.1097	3068.9292	3079.209	3102.6404	3105.4858	3119.4292	3131.8639
CC1=C(C)C2CC(C2)C1	CC1=C(C)[C@@H]2C[C@@H](C2)C1	
InChI=1S/C9H14/c1-6-3-8-4-9(5-8)7(6)2/h8-9H,3-5H2,1-2H3	InChI=1S/C9H14/c1-6-3-8-4-9(5-8)7(6)2/h8-9H,3-5H2,1-2H3/t8-,9+
