16
gdb 13261	5.77964	0.98691	0.90938	3.1088	62.2	-0.2607	0.0016	0.2624	1226.1598	0.129698	-420.86817	-420.860046	-420.859102	-420.902607	27.218	
O	 0.102066251	 0.2060282675	-0.6605562135	-0.270363
C	 0.1962929252	 1.3895073691	-0.5433130969	 0.17177
O	 0.9984465736	 1.9699150792	 0.3708091282	-0.180594
C	 1.04897785	 3.4003863303	 0.430017856	-0.101894
C	 2.4676771604	 3.8769614044	 0.1801932293	-0.033834
C	 2.9357724536	 3.8358710292	-1.2907104374	-0.079587
O	 2.8565322172	 5.2729257985	-1.398696762	-0.266974
C	 2.6026749292	 5.4076147815	 0.0131004128	-0.091425
H	-0.3548933141	 2.1275482507	-1.1592008024	 0.080371
H	 0.3611419856	 3.8340551955	-0.3087720165	 0.118447
H	 0.7083318462	 3.6973540471	 1.4278987054	 0.12593
H	 3.1454447635	 3.4164529316	 0.9009660213	 0.100044
H	 3.9588214845	 3.4686613008	-1.4378951373	 0.110714
H	 2.27290798	 3.3300447538	-2.0037877336	 0.105261
H	 1.7044315947	 6.0046307065	 0.2174903921	 0.104397
H	 3.4521114094	 5.8538038344	 0.5454089743	 0.107736
38.5767	62.9697	92.7387	152.3278	214.4565	342.9917	384.9084	426.3585	669.4427	799.7548	865.4554	882.2897	917.9464	969.2397	1032.7565	1042.5785	1043.5449	1065.3878	1103.4835	1140.7268	1159.1178	1160.6899	1230.6608	1244.3398	1305.2875	1309.6388	1356.0417	1389.9212	1403.885	1436.0446	1502.0155	1513.2342	1537.6216	1869.2702	2942.1278	3006.5394	3013.8615	3020.1318	3050.3765	3057.2985	3071.7649	3103.0878
O=COCC1COC1	O=COCC1COC1	
InChI=1S/C5H8O3/c6-4-8-3-5-1-7-2-5/h4-5H,1-3H2	InChI=1S/C5H8O3/c6-4-8-3-5-1-7-2-5/h4-5H,1-3H2
