16
gdb 98122	4.71925	0.80536	0.69376	2.8437	69.98	-0.2627	-0.0876	0.1752	1582.1888	0.120835	-475.06435	-475.054453	-475.053509	-475.101055	32.976	
C	 0.0062062539	 1.535790168	 0.0112674383	-0.386716
C	-0.0667083411	 0.0118634728	 0.0035995795	-0.276792
C	-1.4842676187	-0.5111793473	 0.0137921414	 0.261717
O	-2.4733481105	 0.1730848379	 0.0265853762	-0.261396
C	-1.5929390263	-2.0564148483	 0.0064385057	 0.394044
O	-0.6375553328	-2.7862575836	-0.0062534754	-0.330194
O	-2.8885547199	-2.4519139825	 0.0163462922	-0.182028
C	-3.1498188744	-3.8063078472	 0.0114504252	 0.120077
N	-4.352573133	-4.1656755792	 0.0212022879	-0.407024
H	 1.047377905	 1.8679997587	 0.0034477279	 0.118447
H	-0.4980731695	 1.9568440772	-0.8623454311	 0.135434
H	-0.4817671879	 1.9472060434	 0.8986253587	 0.135431
H	 0.4400964474	-0.4205128682	-0.8692271519	 0.143268
H	 0.4560626715	-0.4299978804	 0.8621402773	 0.143269
H	-2.244936703	-4.4138074903	-0.0001373913	 0.147383
H	-4.4105054506	-5.1832942209	 0.0166279293	 0.245081
27.4576	64.9681	97.5224	122.1581	123.3148	189.8582	245.8523	322.2894	333.0757	417.6014	473.3463	580.4299	670.2998	707.2703	825.1878	854.1545	864.6856	956.7674	1002.2576	1055.4043	1069.7732	1084.7975	1116.9935	1249.8809	1263.6843	1267.2234	1375.966	1390.9093	1417.1259	1436.4298	1493.467	1498.054	1747.0983	1817.8096	1829.8997	3034.0558	3053.5719	3057.0527	3126.8295	3127.5775	3140.7019	3507.512
CCC(=O)C(=O)OC=N	CCC(=O)C(=O)O[CH][NH]	
InChI=1S/C5H7NO3/c1-2-4(7)5(8)9-3-6/h3,6H,2H2,1H3	InChI=1S/C5H7NO3/c1-2-4(7)5(8)9-3-6/h3,6H,2H2,1H3
