16
gdb 128699	2.28934	1.44841	0.9481	2.1238	67.77	-0.2328	-0.0042	0.2286	1213.5013	0.125189	-471.190569	-471.181698	-471.180754	-471.225217	30.888	
C	-0.0996680027	 1.4514004592	-0.0154129791	-0.24067
O	-0.0140849415	 0.0278244456	 0.0191971918	-0.260317
C	-1.1786467588	-0.6274384509	 0.0183156102	 0.352549
N	-2.3742753414	-0.0479093795	-0.0085346213	-0.309854
N	-3.2010748829	-1.1006650608	 0.0080899856	-0.096929
N	-2.6366641866	-2.294457448	 0.0529624339	-0.258221
C	-1.3268809643	-2.0347121528	 0.0602695783	 0.177623
C	-0.2897322334	-3.1106919009	 0.0470899898	-0.166775
O	 0.1627068953	-3.4307614268	-1.2652058071	-0.41333
H	 0.9288678521	 1.8131707919	-0.0128831327	 0.13533
H	-0.616981848	 1.7886238588	-0.9194925766	 0.137183
H	-0.637218918	 1.8318028983	 0.8594597112	 0.135599
H	-4.1999629283	-0.98237777	 0.0132000466	 0.291868
H	 0.5985696424	-2.77390226	 0.5883243545	 0.124947
H	-0.688995718	-3.9953710701	 0.561994373	 0.106921
H	-0.6092918061	-3.7072890841	-1.770349758	 0.284077
38.0042	94.7583	155.6037	179.4036	186.0611	288.4052	324.6882	364.224	400.081	475.1471	531.4037	665.1436	705.3833	763.9954	815.7653	949.073	993.1036	1045.1729	1056.0089	1179.8685	1181.0355	1187.4008	1216.6405	1234.6974	1283.858	1368.2911	1395.6161	1426.5327	1456.7553	1469.485	1481.8892	1493.3004	1500.4741	1559.3908	1596.1587	3012.7439	3033.4501	3097.7373	3100.6573	3150.8632	3681.9318	3811.6001
COC1=NNN=C1CO	COc1n[nH]nc1CO	
InChI=1S/C4H7N3O2/c1-9-4-3(2-8)5-7-6-4/h8H,2H2,1H3,(H,5,6,7)	InChI=1S/C4H7N3O2/c1-9-4-3(2-8)5-7-6-4/h8H,2H2,1H3,(H,5,6,7)
