18
gdb 88718	2.59154	1.36444	1.1165	1.286	78.44	-0.2224	0.014	0.2364	1147.633	0.145179	-401.845711	-401.836662	-401.835718	-401.879751	33.529	
C	-0.7224736231	 0.9562227397	 0.2928505718	-0.318356
N	 0.1143197368	-0.2309788092	 0.1455674973	-0.083291
C	 1.5025957211	-0.0446265516	-0.241117696	-0.252636
C	 1.1503000842	-0.6006521242	 1.1010009412	-0.03981
C	 1.5601642952	 0.1156998523	 2.3556913993	 0.04971
O	 1.048116453	 1.4022350745	 2.6745828533	-0.236678
C	 0.6965339588	 0.3080801798	 3.5453109645	-0.169384
C	-0.6754012789	-0.1145000116	 3.6025212759	 0.339375
C	-1.8098748921	-0.4959839074	 3.71540673	-0.413036
H	-0.1881939984	 1.846781903	 0.6438477314	 0.123493
H	-1.164582282	 1.1683100854	-0.6862809383	 0.113403
H	-1.5296855133	 0.7423240038	 0.9969535686	 0.131145
H	 1.8859186332	-0.6895953586	-1.0284490682	 0.112664
H	 1.8879571036	 0.9755735172	-0.2564255413	 0.111593
H	 1.2361603834	-1.6805027348	 1.2335386741	 0.101316
H	 2.6259139792	-0.0012374927	 2.5737984166	 0.104311
H	 1.1934830376	 0.3559411811	 4.5142725293	 0.119609
H	-2.8147691483	-0.8299648168	 3.7993433005	 0.206572
52.0077	101.0293	178.5293	187.2363	238.8938	260.3417	311.2748	354.3353	418.7873	529.6839	580.1405	624.3128	665.5983	675.2094	719.8156	762.8443	853.2018	869.8259	954.1474	975.7011	1042.0719	1053.1068	1089.9894	1123.8017	1124.9439	1141.4675	1151.6805	1178.5364	1207.5876	1282.0837	1340.9332	1379.8221	1403.6223	1447.7962	1455.3944	1491.8608	1500.3906	1516.5859	2239.1412	3022.0363	3061.9539	3078.7087	3086.2533	3090.9368	3110.6493	3124.6502	3165.6269	3501.6
CN1CC1C1OC1C#C	CN1C[C@H]1[C@H]1O[C@H]1C#C	
InChI=1S/C7H9NO/c1-3-6-7(9-6)5-4-8(5)2/h1,5-7H,4H2,2H3	InChI=1S/C7H9NO/c1-3-6-7(9-6)5-4-8(5)2/h1,5-7H,4H2,2H3/t5-,6-,7+,8?/m0/s1
