23
gdb 88441	2.12097	1.40782	1.08996	1.8774	86.48	-0.2342	0.0739	0.3081	1267.6906	0.204816	-384.428229	-384.418036	-384.417091	-384.463457	38.257	
C	-1.6790355005	-0.5182376418	 2.2673964127	-0.380067
C	-0.7561393995	-0.7598754926	 1.0984601447	 0.013249
N	-0.4119630269	 0.3975106553	 0.2575676121	-0.348682
C	 0.6637177448	-0.3131331527	 0.9757350751	-0.095969
C	 1.4868853598	 0.4820263379	 1.9581392484	 0.324989
C	 2.1542805615	 1.687532172	 1.3225993114	-0.459365
N	 0.9909142247	 0.6127188345	 3.3416116534	-0.365488
C	 2.1922017815	-0.2023326536	 3.0815471151	-0.038408
C	 2.0941313738	-1.6808898923	 3.372591538	-0.402118
H	-1.4482732453	 0.4226330273	 2.7633800207	 0.142728
H	-2.7168243036	-0.4964675991	 1.915078855	 0.102868
H	-1.5896838891	-1.3199097837	 3.0078096078	 0.110761
H	-0.9658779211	-1.689207494	 0.5657484256	 0.074378
H	-0.4108095624	 0.1486517025	-0.7275557972	 0.225269
H	 1.2910652734	-0.9645116702	 0.363790118	 0.078117
H	 1.3956543298	 2.3810811558	 0.9473499181	 0.140287
H	 2.7918380583	 2.2128197918	 2.0416385454	 0.103971
H	 2.7811589013	 1.3907474365	 0.4735835222	 0.114277
H	 1.24949052	 1.5233588154	 3.7136836863	 0.223318
H	 3.1479527449	 0.24266534	 3.3596053335	 0.074376
H	 1.122545575	-2.0768153882	 3.0701171465	 0.132429
H	 2.8759848204	-2.2363172075	 2.8423903867	 0.111398
H	 2.2169640592	-1.8703013532	 4.4444769605	 0.11768
33.3678	129.7892	163.4376	190.7701	203.3408	220.2251	250.9008	267.7845	316.9365	377.0186	423.4732	464.3227	521.0255	573.9293	700.8838	778.0557	801.0169	833.1855	884.3922	932.2356	959.5761	973.677	1009.3511	1014.6778	1040.4666	1043.5674	1083.389	1097.6737	1120.696	1139.8595	1161.3411	1204.761	1241.6147	1261.9989	1271.3964	1298.7932	1346.1755	1403.8707	1406.674	1410.5996	1434.7893	1457.2679	1467.4965	1479.1749	1481.3153	1489.2742	1496.8387	1499.0615	1510.4678	3025.2767	3033.6889	3034.1819	3073.6953	3087.1765	3089.2625	3091.7763	3092.3462	3097.2167	3109.5322	3133.5288	3169.9978	3492.0693	3501.9825
CC1NC1C1(C)NC1C	C[C@H]1N[C@H]1[C@@]1(C)N[C@H]1C	
InChI=1S/C7H14N2/c1-4-6(8-4)7(3)5(2)9-7/h4-6,8-9H,1-3H3	InChI=1S/C7H14N2/c1-4-6(8-4)7(3)5(2)9-7/h4-6,8-9H,1-3H3/t4-,5+,6-,7+/m1/s1
