24
gdb 15259	3.24109	1.18071	1.03833	0.0243	85.68	-0.2563	0.0785	0.3348	1304.9732	0.222433	-314.270427	-314.260264	-314.25932	-314.305469	37.191	
C	 3.0455494029	 1.5984345833	-0.0836321152	-0.375489
C	 2.312526223	 0.2832422488	 0.2098458926	-0.190015
C	 1.9659749953	-0.4819681353	-1.0538177244	-0.030079
C	 2.9038839301	-1.4791024752	-1.7107017899	-0.015993
C	 4.2765259731	-1.8110087081	-1.1611415552	-0.408963
C	 1.6144471117	-1.9558233924	-1.0660756863	-0.030084
C	 1.5735547601	-2.8148614319	 0.1840668609	-0.190033
C	 1.6359016633	-4.3144992236	-0.1327572381	-0.375478
H	 3.9959835063	 1.4156183835	-0.5955915357	 0.117899
H	 2.4442837141	 2.2484797224	-0.7290766579	 0.112264
H	 3.2591775035	 2.1498089852	 0.8376834961	 0.1072
H	 2.9229374634	-0.3270469676	 0.8825669903	 0.093103
H	 1.3877986377	 0.5002533514	 0.7613553999	 0.094262
H	 1.3920795885	 0.1245671689	-1.7529758784	 0.07238
H	 2.8863105243	-1.4658723422	-2.7982094085	 0.075679
H	 4.3067142752	-1.8278256861	-0.0690384117	 0.11636
H	 4.6096360711	-2.7949661457	-1.5105424109	 0.114937
H	 5.0189468817	-1.0773251592	-1.4954164228	 0.114939
H	 0.8312334566	-2.2269745574	-1.7725580256	 0.072382
H	 2.3908201915	-2.5560617128	 0.8642950874	 0.093104
H	 0.6480846654	-2.6001676917	 0.7352381591	 0.094263
H	 0.8087725827	-4.613301577	-0.7864034728	 0.112263
H	 2.568752353	-4.5719339248	-0.6449713776	 0.1179
H	 1.5741045355	-4.9173595724	 0.7789522847	 0.107199
63.3291	83.2391	115.6335	159.9823	209.1164	212.3207	256.1204	274.692	297.5685	301.1975	476.3449	534.2641	558.8488	732.2975	765.0165	776.1537	810.8809	825.8717	931.6862	958.9473	968.7065	1010.9355	1053.8888	1057.0941	1062.3054	1090.0255	1121.5445	1144.877	1160.2185	1194.7586	1199.0206	1271.9827	1287.6576	1295.8721	1335.3055	1340.0549	1394.3114	1401.6923	1408.5054	1413.1814	1420.5235	1461.2253	1478.359	1490.3326	1498.0125	1498.0186	1502.1181	1502.9484	1507.6261	1514.638	3015.9389	3019.7342	3029.3535	3030.0269	3030.7967	3063.5353	3073.0872	3081.0183	3096.1903	3098.0229	3103.2556	3103.7504	3105.8649	3109.622	3114.7924	3132.6944
CCC1C(C)C1CC	CC[C@H]1[C@@H](C)[C@H]1CC	
InChI=1S/C8H16/c1-4-7-6(3)8(7)5-2/h6-8H,4-5H2,1-3H3	InChI=1S/C8H16/c1-4-7-6(3)8(7)5-2/h6-8H,4-5H2,1-3H3/t6-,7+,8-
