21
gdb 94219	3.23153	1.0429	0.97007	2.1552	84.29	-0.2411	0.0485	0.2896	1331.743	0.179424	-387.048385	-387.038294	-387.03735	-387.083455	37.499	
C	-0.4499959121	 1.3882213099	-0.0843786615	-0.418025
C	 0.0757835509	-0.0391072029	-0.0617413417	-0.078306
C	 1.4175505367	-0.3417945539	-0.7592408858	-0.08272
O	 1.9425626531	-0.9880782372	 0.4153494959	-0.319669
C	 0.7840619301	-0.6117598684	 1.2085686803	 0.411755
C	 1.1734470982	 0.3793219882	 2.2963507389	-0.43737
C	 0.0884394359	-1.8639396847	 1.7813259034	-0.398883
C	 0.8546231549	-2.5659697563	 2.8031069002	 0.310993
C	 1.4875194301	-3.1414761974	 3.6474444386	-0.442207
H	 0.3164659002	 2.1123272207	 0.2070455079	 0.122054
H	-0.7869333591	 1.652746451	-1.0926659347	 0.119997
H	-1.3048025098	 1.5123894528	 0.589027383	 0.119563
H	-0.712234602	-0.7208677668	-0.397405311	 0.076497
H	 1.3882391555	-1.0153272134	-1.6236522415	 0.10117
H	 1.9984092123	 0.5517391136	-1.0286068812	 0.09459
H	 1.700247157	 1.237422077	 1.8726669562	 0.11739
H	 0.2915979666	 0.7434246382	 2.834802745	 0.111701
H	 1.8363051964	-0.1085696736	 3.0153266083	 0.142188
H	-0.884782213	-1.5600851938	 2.191455745	 0.125611
H	-0.1195231638	-2.5468671957	 0.9493196943	 0.129445
H	 2.0488511319	-3.6555554974	 4.3875555803	 0.194225
54.2444	75.2299	128.844	207.1857	211.9672	248.111	278.7379	327.836	349.7522	372.5632	408.3396	438.153	543.8313	614.4366	636.9059	682.7733	763.1333	860.5055	896.4938	913.2918	919.3896	942.3813	983.3108	1022.9425	1037.8576	1107.0962	1129.5704	1148.7442	1173.0398	1199.3911	1219.0385	1271.8831	1294.8755	1331.504	1349.1347	1389.609	1412.206	1416.1491	1453.8813	1481.0869	1488.6414	1499.6261	1505.2152	1528.8163	2237.8074	2998.5676	3013.6153	3032.1904	3041.2387	3043.2989	3057.0543	3060.8599	3094.514	3107.4316	3115.5431	3131.3248	3506.6865
CC1COC1(C)CC#C	C[C@H]1CO[C@]1(C)CC#C	
InChI=1S/C8H12O/c1-4-5-8(3)7(2)6-9-8/h1,7H,5-6H2,2-3H3	InChI=1S/C8H12O/c1-4-5-8(3)7(2)6-9-8/h1,7H,5-6H2,2-3H3/t7-,8+/m0/s1
