17
gdb 19171	3.38537	1.94903	1.4754	2.1332	70.15	-0.2442	0.0041	0.2483	894.8517	0.141213	-363.804544	-363.796901	-363.795957	-363.836079	29.002	
C	-0.0557010535	 1.571713543	-0.0021408718	-0.432495
C	-0.0025582726	 0.0529848949	-0.0407824658	 0.034802
C	 1.2295932723	-0.6456693853	-0.7001307534	-0.155944
N	 2.0209182356	-0.2162248056	 0.5275910397	-0.093781
C	 3.2550682099	-0.9340450259	 0.8546354142	-0.341534
C	 0.7092046804	-0.7102439673	 1.1219474899	-0.155947
C	 0.8649645809	-1.8989431979	 0.13781025	 0.424707
O	 0.9385296949	-3.0876787377	 0.1166897261	-0.323466
H	 0.9072918015	 1.9929877113	 0.2879291454	 0.140886
H	-0.330676933	 1.9680674412	-0.9852118779	 0.118367
H	-0.8153941443	 1.9079400392	 0.7112686836	 0.118367
H	-0.9625935195	-0.3829937426	-0.3304207627	 0.086595
H	 1.6258416065	-0.5388932458	-1.7089223523	 0.095805
H	 4.0394791433	-0.597281566	 0.1701681044	 0.1291
H	 3.5538745561	-0.6576027293	 1.8702636806	 0.1291
H	 3.1859383474	-2.0306654647	 0.7959826632	 0.129636
H	 0.5116045643	-0.6771592913	 2.1924305068	 0.095804
137.017	201.3712	217.6258	225.7352	247.0805	306.0228	402.0605	484.3744	548.637	684.3377	702.9976	766.3928	786.4879	801.2579	846.021	967.9878	1025.1838	1035.8316	1075.7527	1091.3149	1112.9088	1124.2736	1168.1858	1183.6121	1190.5022	1205.7564	1224.5698	1254.2442	1394.14	1407.8863	1450.5194	1493.6405	1495.2727	1502.2956	1505.0637	1899.7383	2992.9127	3040.8393	3076.5435	3079.4453	3096.8074	3111.0794	3133.8405	3138.5692	3149.0178
CC1C2N(C)C1C2=O	C[C@H]1[C@H]2N(C)[C@@H]1C2=O	
InChI=1S/C6H9NO/c1-3-4-6(8)5(3)7(4)2/h3-5H,1-2H3	InChI=1S/C6H9NO/c1-3-4-6(8)5(3)7(4)2/h3-5H,1-2H3/t3-,4+,5-
