13
gdb 131208	3.423	1.61136	1.1071	3.1406	60.04	-0.2062	0.0321	0.2383	987.7964	0.090937	-489.85752	-489.85028	-489.849336	-489.889188	26.749	
O	 0.0708492339	 1.350251001	 0.2439285125	-0.427631
C	 0.0850729822	 0.0261871233	-0.0176910679	 0.276089
C	 0.2170960662	-0.7599150871	-1.1273053891	 0.1018
O	 0.5207886823	-0.7540313937	-2.4694347576	-0.304489
C	 0.2913801546	-2.1306371081	-2.837890685	 0.00246
O	 0.3504134616	-2.9538937956	-1.6572953841	-0.269061
C	 0.1324014048	-2.0656274486	-0.6479565981	 0.38968
N	-0.0546338598	-2.189039579	 0.6389631002	-0.353244
N	-0.0327107931	-0.8558216934	 1.0345524199	-0.267022
H	 0.1780924015	 1.831919025	-0.5826246317	 0.318926
H	-0.7095303853	-2.2213035948	-3.2838450043	 0.117918
H	 1.0703360796	-2.4471905624	-3.5335790306	 0.138826
H	-0.4638418186	-0.6245330067	 1.9144430358	 0.275747
144.1352	197.2839	202.1325	277.0116	294.4024	337.9261	434.2812	575.8139	608.183	616.3897	675.9928	716.3986	780.4543	817.3476	920.7026	1051.8728	1077.9103	1130.4502	1138.7977	1140.5523	1223.8457	1255.4592	1356.6566	1411.1542	1474.2621	1521.4422	1543.5246	1629.9734	1737.5	2999.8789	3121.7061	3664.0636	3839.1272
OC1=C2OCOC2=NN1	Oc1c2OCOc2n[nH]1	
InChI=1S/C4H4N2O3/c7-3-2-4(6-5-3)9-1-8-2/h1H2,(H2,5,6,7)	InChI=1S/C4H4N2O3/c7-3-2-4(6-5-3)9-1-8-2/h1H2,(H2,5,6,7)
