20
gdb 111540	2.56241	1.56167	1.17211	2.8337	78.13	-0.2357	0.0687	0.3044	1110.6858	0.17121	-403.088971	-403.08041	-403.079466	-403.122118	32.715	
C	-0.2338000418	 1.3462251186	 0.3172477213	-0.498609
C	 0.0358955695	-0.119008666	 0.1711543104	 0.338456
C	 0.8944617155	-0.6960012914	-0.9148063841	-0.08321
C	 1.2175941696	-2.1445830451	-0.6033605468	-0.246044
C	-0.1973991498	-2.1576997218	 0.0070565593	-0.051926
C	-0.1933270633	-1.2014927881	 1.2173490389	-0.007398
C	 0.7511715091	-1.3808557452	 2.3915623156	-0.123185
O	 0.5515085466	-0.2687392438	 3.2571097681	-0.421408
N	-0.5934777425	-0.9555466688	-0.9147830847	-0.204085
H	 0.4888837634	 1.8006249886	 1.0024941964	 0.130056
H	-0.1687758598	 1.8557574969	-0.6491906936	 0.120204
H	-1.2354455478	 1.5169833796	 0.7249457545	 0.1257
H	 1.3473975549	-0.0624123368	-1.6700641192	 0.089765
H	 1.2455526478	-2.7366010631	-1.5222017653	 0.111517
H	 2.0802459593	-2.3980415319	 0.0213723895	 0.092981
H	-0.8086978004	-3.0583426852	 0.0022834086	 0.078925
H	-1.2156554817	-1.1004937345	 1.5998051226	 0.088977
H	 0.5302329008	-2.3321963503	 2.9038787726	 0.08481
H	 1.7946315661	-1.4260746019	 2.0472576051	 0.086465
H	 1.1701361343	-0.3414984199	 3.989701481	 0.288008
76.92	145.3555	170.5489	208.9663	268.8642	278.2241	307.6981	377.0305	480.9876	565.1293	625.3163	712.8681	756.3357	796.1895	824.2344	867.0905	925.6859	984.2775	987.7263	1005.5656	1015.4814	1034.8177	1053.2275	1072.7891	1100.8711	1125.6258	1133.6845	1176.2058	1211.6387	1242.739	1246.7607	1252.7424	1282.419	1287.6064	1332.8783	1369.6928	1409.5785	1440.4145	1463.278	1481.6775	1493.4185	1499.8082	1519.8391	2962.0951	3004.7636	3034.8163	3043.0139	3051.1927	3098.5169	3102.8803	3110.1257	3132.4609	3171.015	3829.6221
CC12C3CC(C1CO)N23	C[C@@]12[C@H]3C[C@@H]([C@H]1CO)N23	
InChI=1S/C7H11NO/c1-7-4(3-9)5-2-6(7)8(5)7/h4-6,9H,2-3H2,1H3	InChI=1S/C7H11NO/c1-7-4(3-9)5-2-6(7)8(5)7/h4-6,9H,2-3H2,1H3/t4-,5+,6-,7+,8?/m1/s1
