17
gdb 45792	2.5548	1.90103	1.36349	2.4034	72.57	-0.2363	-0.0209	0.2155	957.8975	0.137614	-421.829864	-421.822772	-421.821828	-421.861382	28.126	
O	-0.2305117541	 0.5628258439	-1.1923637377	-0.303744
C	-0.0567777332	 1.2156889506	-0.1922577915	 0.370228
C	-1.1264979916	 1.371110947	 0.8934209652	-0.350059
C	-1.440787159	 2.7990413477	 1.2940123938	-0.076572
C	-0.573177782	 3.8074824539	 1.3963837951	-0.04653
C	 0.8974625717	 3.6768262487	 1.1082319303	 0.044032
C	 1.2227851014	 3.4280936911	-0.3906969673	-0.267088
C	 1.2639700476	 1.9452653066	 0.0573750614	-0.000729
O	 1.3920696311	 2.3475957059	 1.4354400077	-0.281026
H	-2.0249000781	 0.8669209273	 0.5302878128	 0.123845
H	-0.7701090016	 0.8192921815	 1.7742803674	 0.151101
H	-2.4881819629	 2.9933960246	 1.5089745184	 0.105756
H	-0.9308817387	 4.7949094854	 1.6763862466	 0.093035
H	 1.4791945682	 4.4503699082	 1.6173181392	 0.088062
H	 0.4776391938	 3.7246707128	-1.1288105196	 0.123862
H	 2.2111546037	 3.7892798961	-0.6794896172	 0.120532
H	 2.0972677836	 1.3301496187	-0.2922317247	 0.105297
89.397	193.0607	280.7127	313.629	391.8704	446.2246	466.7994	550.9651	606.4794	692.131	705.1669	819.28	841.1422	887.7589	908.7584	932.3917	956.5411	958.9649	991.2864	1017.9039	1052.1765	1090.2759	1105.2012	1151.5256	1208.9887	1223.8023	1241.7069	1267.5492	1288.078	1312.4184	1333.9267	1364.1233	1410.3318	1445.1001	1488.9723	1709.6218	1819.3277	3022.9114	3068.4031	3079.4757	3088.702	3106.3835	3149.3181	3152.2765	3174.3887
O=C1CC=CC2CC1O2	O=C1CC=C[C@@H]2C[C@H]1O2	
InChI=1S/C7H8O2/c8-6-3-1-2-5-4-7(6)9-5/h1-2,5,7H,3-4H2	InChI=1S/C7H8O2/c8-6-3-1-2-5-4-7(6)9-5/h1-2,5,7H,3-4H2/t5-,7-/m1/s1
