21
gdb 108465	2.15816	1.62802	1.25708	2.3299	77.71	-0.243	0.0583	0.3014	1117.9814	0.1824	-424.194574	-424.185613	-424.184669	-424.228298	34.113	
C	 0.1769419461	 1.579241834	 0.0080888617	-0.411535
C	 0.0332816371	 0.0661906586	 0.0286754288	-0.002383
C	 0.9298608845	-0.7994997407	-0.9190156716	-0.256859
C	 1.3984599134	-1.6617478925	 0.288058563	-0.155517
C	 2.6490936228	-1.117584002	 0.9881329252	-0.082236
O	 1.8730049477	-0.1265438204	 1.7083819892	-0.343708
C	 0.6176733107	-0.7069341302	 1.2399067304	 0.428519
C	-0.2446008382	-1.0660318413	 2.42510791	-0.152772
O	-0.498697222	 0.0915173999	 3.2053259398	-0.419988
H	 1.215478854	 1.866959712	 0.1945735906	 0.123916
H	-0.1282466756	 1.9897154767	-0.9603710373	 0.107605
H	-0.4435247939	 2.0359866527	 0.7854528453	 0.126927
H	-1.0191559922	-0.2146845266	-0.0941292501	 0.071226
H	 0.3794019365	-1.3495271543	-1.685099865	 0.102311
H	 1.740440441	-0.2500408178	-1.4078232445	 0.099276
H	 1.2540051739	-2.7404087666	 0.2411595883	 0.076962
H	 3.1311952142	-1.8213905306	 1.6790859478	 0.101244
H	 3.4150683918	-0.6581701422	 0.3513963586	 0.102577
H	-1.2162869546	-1.4513188471	 2.0981422118	 0.104753
H	 0.2489383299	-1.8521074246	 3.0197332638	 0.084073
H	 0.3676565631	 0.4725584231	 3.3959342241	 0.295608
75.0044	91.8686	158.7793	218.9423	235.1781	290.1685	331.2679	389.7135	421.1425	469.0103	510.4551	632.0515	688.1441	786.743	823.3116	877.2905	901.9141	913.9285	964.4322	989.2956	1007.3721	1028.9564	1052.2859	1067.1064	1111.7752	1128.0821	1131.7104	1152.6708	1162.2499	1198.4207	1224.8294	1251.6027	1268.7082	1297.3121	1326.8236	1347.521	1365.0437	1376.0785	1403.8025	1433.3985	1484.449	1487.554	1498.4267	1505.9509	1522.5558	2971.0085	3007.3536	3034.0024	3037.6419	3052.5371	3055.2567	3073.2074	3103.1243	3106.5247	3116.7614	3121.1883	3782.243
CC1CC2COC12CO	C[C@H]1C[C@H]2CO[C@@]12CO	
InChI=1S/C7H12O2/c1-5-2-6-3-9-7(5,6)4-8/h5-6,8H,2-4H2,1H3	InChI=1S/C7H12O2/c1-5-2-6-3-9-7(5,6)4-8/h5-6,8H,2-4H2,1H3/t5-,6-,7-/m0/s1
