17
gdb 54534	3.3637	1.33917	1.11174	2.767	68.25	-0.2423	0.0184	0.2607	1089.8495	0.138134	-455.160379	-455.152494	-455.151549	-455.192914	30.173	
N	 0.5799343207	 0.1707786606	-0.957415041	-0.538191
C	-0.0899600522	 0.2015540251	 0.2235894641	 0.330466
O	 0.3024229743	 0.7707278833	 1.2269934727	-0.37375
C	-1.3836572134	-0.5661935424	 0.2144377403	 0.212312
C	-2.4400900804	-0.2383031365	 1.2579417039	-0.156962
O	-3.3487301957	-1.339355884	 1.2208948132	-0.263417
C	-2.595909199	-2.510946958	 0.9282219825	-0.107624
C	-1.4876694481	-2.0426119021	 0.0012871828	-0.074982
N	-1.8696354096	-1.1138305523	-1.063007372	-0.39193
H	 1.4175119357	 0.7206579872	-1.0483132501	 0.260926
H	 0.1120360012	-0.1901136077	-1.7737463505	 0.274275
H	-1.9542720614	-0.1270033215	 2.2357381379	 0.129703
H	-3.0154006815	 0.667362941	 1.043794108	 0.118471
H	-2.1540507297	-2.95282906	 1.8356592505	 0.108088
H	-3.2792077695	-3.2410855686	 0.4820452585	 0.11792
H	-0.6273177158	-2.675163578	-0.1892365518	 0.110017
H	-2.8843955157	-1.0296619961	-1.1124857891	 0.244678
72.7367	160.2902	198.7027	266.0777	337.6699	363.302	376.9143	440.1133	510.1988	619.7969	639.1481	704.3239	746.071	771.6321	880.8532	893.1061	944.26	968.5319	1025.4384	1036.6353	1057.1519	1098.3276	1108.9538	1133.7962	1174.6271	1207.2707	1239.1777	1260.534	1310.0186	1342.5486	1347.2904	1394.6282	1452.5311	1506.0468	1519.39	1593.9068	1789.5511	2982.9882	3031.3231	3073.2273	3090.1338	3176.7623	3472.8078	3585.981	3728.8325
NC(=O)C12COCC1N2	NC(=O)[C@]12COC[C@H]1N2	
InChI=1S/C5H8N2O2/c6-4(8)5-2-9-1-3(5)7-5/h3,7H,1-2H2,(H2,6,8)	InChI=1S/C5H8N2O2/c6-4(8)5-2-9-1-3(5)7-5/h3,7H,1-2H2,(H2,6,8)/t3-,5+/m1/s1
