17
gdb 41931	3.49023	1.59644	1.15379	2.491	79.94	-0.2276	-0.0278	0.1997	1034.6867	0.138187	-421.836725	-421.829768	-421.828824	-421.868122	27.378	
C	 0.0525663226	 1.5214438821	-0.1736811802	-0.113126
O	 1.3598100469	 1.8885030782	 0.2812209225	-0.273511
C	 2.0261781177	 0.7607018134	 0.7610288725	 0.145096
O	 3.2836429283	 0.6208846406	 0.1199658406	-0.254232
C	 3.9665568745	-0.5212387566	 0.6120229198	-0.127372
C	 3.1095604393	-1.7606784083	 0.7148266426	-0.088654
C	 1.7744785162	-1.7213949347	 0.5969866153	-0.169857
C	 1.1531746456	-0.423305267	 0.4270297886	 0.312603
C	 0.0036292196	 0.0210770502	-0.0811728661	-0.267814
H	-0.7021151038	 2.0183998346	 0.4547291278	 0.112078
H	-0.091964352	 1.8798154856	-1.2030048456	 0.119171
H	 2.2066431617	 0.8618952907	 1.8491845486	 0.063032
H	 4.7958617504	-0.697375382	-0.0819686216	 0.12716
H	 4.4209667606	-0.3095301401	 1.5986534532	 0.105664
H	 3.6355636223	-2.6987798797	 0.8678465609	 0.103515
H	 1.1735999315	-2.6254862628	 0.6068216731	 0.098758
H	-0.8268863213	-0.5677767942	-0.4500511021	 0.107488
108.4599	197.9097	226.2637	334.2778	397.9005	438.532	494.8548	565.8337	658.8101	729.1894	778.4839	829.7447	846.44	895.8328	925.9517	944.5506	983.2682	1002.2248	1018.1004	1035.4894	1053.1463	1097.7449	1149.0978	1176.1908	1196.025	1220.3337	1264.2259	1291.577	1359.7526	1366.8489	1401.2343	1405.3089	1412.6438	1479.6392	1516.229	1663.2212	1729.5537	2905.766	2927.8867	2988.6015	3015.1375	3061.6566	3164.8786	3185.4624	3212.9521
C1OC2OCC=CC2=C1	C1O[C@@H]2OCC=CC2=C1	
InChI=1S/C7H8O2/c1-2-6-3-5-9-7(6)8-4-1/h1-3,7H,4-5H2	InChI=1S/C7H8O2/c1-2-6-3-5-9-7(6)8-4-1/h1-3,7H,4-5H2/t7-/m0/s1
