16
gdb 54495	2.56862	1.66523	1.11917	1.7062	70.81	-0.2465	-0.0229	0.2235	1055.5709	0.124375	-437.919944	-437.911817	-437.910873	-437.952774	30.685	
N	 0.0139979542	 1.2030305027	-0.4775932508	-0.552188
C	 0.0260470173	 0.0142903397	 0.1782380545	 0.322715
O	 0.9711030788	-0.4160336137	 0.815870913	-0.38121
C	-1.2547290815	-0.7446599782	 0.0389564532	 0.123251
C	-1.6998304852	-1.7018277196	 1.1465126966	-0.315073
C	-1.4680989318	-2.2915790907	-0.1818654561	-0.086231
C	-2.6722900214	-2.0216738257	-1.1007403986	-0.350309
C	-2.3449883569	-0.5167597105	-0.9495841805	 0.348947
O	-2.6489480978	 0.4555618094	-1.5944270442	-0.341737
H	 0.8402094358	 1.777245758	-0.4512501619	 0.261208
H	-0.7997397923	 1.495541639	-0.9999799288	 0.280545
H	-0.9108583425	-1.8364237951	 1.8790142579	 0.16199
H	-2.7064705047	-1.618347448	 1.5463454232	 0.125402
H	-0.6592012818	-2.9770883788	-0.3935009547	 0.132832
H	-2.541278541	-2.3343192069	-2.1397936163	 0.140982
H	-3.6427863092	-2.3707421516	-0.7371408564	 0.128876
77.0756	127.6133	189.5181	194.1529	348.8177	373.1162	400.4651	413.78	545.7503	574.5024	609.2317	676.4073	683.5676	745.6639	818.0308	852.0489	878.7849	944.2218	987.1469	1012.9768	1025.813	1073.8863	1099.8481	1122.7547	1149.4754	1209.7068	1239.423	1287.4387	1323.5169	1406.6253	1454.9726	1486.2394	1623.2203	1785.494	1843.3507	3062.4281	3120.1308	3121.1481	3217.6154	3225.3016	3552.7469	3710.3266
NC(=O)C12CC1CC2=O	NC(=O)[C@]12C[C@H]1CC2=O	
InChI=1S/C6H7NO2/c7-5(9)6-2-3(6)1-4(6)8/h3H,1-2H2,(H2,7,9)	InChI=1S/C6H7NO2/c7-5(9)6-2-3(6)1-4(6)8/h3H,1-2H2,(H2,7,9)/t3-,6-/m1/s1
