19
gdb 40611	3.60305	1.34472	1.17967	2.7126	78.66	-0.2136	0.054	0.2676	1095.2568	0.16057	-381.930419	-381.922889	-381.921945	-381.962835	29.938	
C	-0.16251863	 1.6490746406	 0.1072943571	-0.245738
N	 1.1466813454	 1.0087887293	-0.0691958321	-0.294469
C	-0.0681025552	 0.1748746437	-0.0667267943	-0.078101
C	-0.297854102	-0.7378839801	 1.1124335303	 0.029521
C	-0.3830008005	-2.2171895984	 1.1816505545	-0.075752
C	 0.649138776	-3.055788912	 0.4063714781	-0.08224
C	 1.6363501617	-2.2366822151	-0.3801727289	-0.2901
C	 1.7110949675	-2.2500991269	 1.1189147736	 0.020198
N	 0.695781872	-1.4736209243	 1.9355455525	-0.164302
H	-0.3341678154	 2.0566681147	 1.1005729935	 0.123245
H	-0.5806962877	 2.2387165483	-0.7045532109	 0.110761
H	 1.4777004637	 1.1424243407	-1.0213621397	 0.232173
H	-0.4157378636	-0.2073964352	-1.0242169999	 0.099839
H	-0.9965719075	-0.2884767211	 1.8193510166	 0.102577
H	-1.1880485324	-2.7042383253	 1.7259401974	 0.092831
H	 0.5535825223	-4.128047664	 0.3010191144	 0.093477
H	 2.4175884317	-2.8442769395	-0.8304242471	 0.112373
H	 1.3749658544	-1.3721555911	-0.9694185553	 0.110824
H	 2.5964433095	-2.5645460643	 1.6557232401	 0.102885
55.4343	135.3453	185.4358	309.6752	343.1455	415.1742	547.3473	636.0985	672.3717	700.5852	736.9975	757.4328	834.8543	878.8407	891.853	898.9925	912.8563	945.2394	974.5253	983.1983	1008.3925	1021.2755	1057.4311	1064.5782	1076.3831	1077.4205	1106.0578	1122.4215	1150.2604	1191.0229	1215.3644	1246.9176	1269.2502	1279.3518	1288.0721	1336.5867	1368.8571	1390.016	1458.1923	1493.7746	1511.4841	3091.8582	3102.5954	3120.8632	3137.0373	3137.6083	3188.3689	3192.3278	3204.4567	3259.8004	3498.527
C1NC1C1C2C3CC3N12	C1N[C@H]1[C@H]1[C@H]2[C@H]3C[C@H]3N12	
InChI=1S/C7H10N2/c1-3-5(1)9-6(3)7(9)4-2-8-4/h3-8H,1-2H2	InChI=1S/C7H10N2/c1-3-5(1)9-6(3)7(9)4-2-8-4/h3-8H,1-2H2/t3-,4+,5+,6+,7-,9?/m0/s1
