19
gdb 18637	2.70801	2.19723	1.75251	2.0663	70.14	-0.2185	0.0643	0.2828	857.6799	0.166719	-365.037851	-365.029957	-365.029013	-365.069992	29.988	
C	 0.0609129588	 1.6632109781	 0.1818064704	-0.423201
C	 0.0252399404	 0.1660291489	-0.0391716486	 0.022153
C	 0.5272999853	-0.5605171864	-1.2383115026	-0.052139
C	 1.4567601182	 0.1324187082	-2.221584063	 0.110548
O	 0.7631991924	 1.1768660176	-2.897120445	-0.430829
C	 2.6629700799	 0.6153447686	-1.3686555747	-0.27837
C	 2.5147208048	-0.0969439442	-0.0028156712	-0.152679
N	 1.1859776842	-0.7397018434	 0.0713062209	-0.122679
H	 0.7559977193	 2.1908979949	-0.46877309	 0.133625
H	-0.9343035742	 2.0738002634	-0.0167824756	 0.125092
H	 0.3063261252	 1.8920766925	 1.2255797261	 0.11611
H	-0.845692432	-0.290324279	 0.4310570333	 0.089059
H	-0.0366503951	-1.4089950983	-1.6173912624	 0.083694
H	 1.7931306124	-0.6151328713	-2.9549394659	 0.071476
H	 1.3355382816	 1.5090501092	-3.5958600801	 0.283384
H	 3.616884411	 0.373249041	-1.8462726049	 0.098233
H	 2.6180780169	 1.7032983288	-1.2748762089	 0.112008
H	 3.258005457	-0.8933499223	 0.1047339996	 0.10719
H	 2.6525479942	 0.5849965337	 0.8426573127	 0.107325
81.9637	133.8371	178.3767	237.1344	291.4963	326.6815	420.145	486.1917	553.6901	683.377	701.4944	731.1277	756.9175	845.4523	863.8722	932.5702	963.449	994.4534	1034.2943	1035.8469	1065.8388	1121.5512	1133.7846	1154.5746	1173.2273	1209.6736	1238.9849	1252.0796	1276.4058	1316.1306	1339.3418	1354.2004	1381.9527	1421.3369	1432.1921	1443.1393	1485.4205	1487.9021	1509.8389	1516.2281	2985.2597	3036.8469	3042.7044	3059.5589	3074.9523	3091.9548	3098.7584	3105.9989	3135.3208	3167.3415	3816.342
CC1C2C(O)CCN12	C[C@H]1[C@H]2[C@@H](O)CCN12	
InChI=1S/C6H11NO/c1-4-6-5(8)2-3-7(4)6/h4-6,8H,2-3H2,1H3	InChI=1S/C6H11NO/c1-4-6-5(8)2-3-7(4)6/h4-6,8H,2-3H2,1H3/t4-,5-,6-,7?/m0/s1
