24
gdb 22065	3.6827	0.61179	0.59336	0.6944	90.23	-0.2373	0.0185	0.2558	2009.6472	0.213957	-405.528023	-405.516359	-405.515415	-405.56617	41.63	
C	-0.0242401711	 1.5302007228	-0.0544071269	-0.391008
C	 0.0238266074	-0.001120404	 0.0395164585	 0.047114
C	 0.853645367	-0.4389869289	 1.2547100041	-0.382569
C	-1.4030598146	-0.5803014513	 0.0559763193	-0.169381
C	-1.4723132533	-2.1143758494	-0.0711656766	-0.288182
C	-2.885436911	-2.6354177185	-0.1008790581	 0.361633
C	-3.754172185	-2.5271580348	 1.124836561	-0.468235
N	-3.2759679852	-3.1501279883	-1.2045381754	-0.169424
O	-4.6137070975	-3.5835176946	-1.1303939548	-0.403034
H	 0.9831535837	 1.9558812123	-0.1101490349	 0.109352
H	-0.5780210536	 1.8592361107	-0.9399011566	 0.110896
H	-0.5170495217	 1.9613931562	 0.8255110346	 0.110762
H	 0.5237433989	-0.3777222594	-0.8649108546	 0.073525
H	 0.969445177	-1.5253808095	 1.3091538894	 0.114511
H	 1.8580214503	-0.0043799659	 1.2171010574	 0.111181
H	 0.384536199	-0.10485342	 2.1884916361	 0.109525
H	-1.9077450104	-0.2578078367	 0.9774707289	 0.092334
H	-1.9725400994	-0.1435109943	-0.7738503504	 0.101217
H	-0.9695150179	-2.4313421977	-0.9901072844	 0.11292
H	-0.9459248322	-2.5812929384	 0.7712769495	 0.104071
H	-4.5553818847	-1.7961574522	 0.9691721407	 0.144917
H	-4.2432676005	-3.4844050668	 1.3262364114	 0.147567
H	-3.1744131312	-2.2250574797	 1.9995552602	 0.116524
H	-4.7474913439	-3.9658605915	-2.0036800285	 0.303782
38.0871	56.1042	59.9801	103.177	133.8184	225.8974	234.562	254.1121	289.781	322.0784	362.7494	382.1305	409.8926	416.7603	461.7325	554.5147	649.2142	771.4756	811.0498	840.965	926.2462	935.1892	960.2786	969.4638	976.816	1026.0958	1035.5336	1046.2735	1135.2255	1139.7798	1193.7181	1229.4185	1268.0308	1287.148	1318.7049	1350.337	1370.3775	1384.353	1397.8348	1400.7548	1401.7121	1422.469	1471.8626	1474.7718	1484.6902	1487.9544	1491.6709	1499.5837	1505.9616	1512.2335	1727.8511	2995.8491	3010.7486	3021.9415	3024.642	3028.4532	3041.9052	3051.3219	3086.7199	3089.2669	3093.5327	3099.31	3101.048	3105.5844	3131.7496	3823.9891
CC(C)CCC(C)=NO	CC(C)CCC(=NO)C	
InChI=1S/C7H15NO/c1-6(2)4-5-7(3)8-9/h6,9H,4-5H2,1-3H3	InChI=1S/C7H15NO/c1-6(2)4-5-7(3)8-9/h6,9H,4-5H2,1-3H3
