14
gdb 46874	2.51852	1.85475	1.29455	6.6759	62.85	-0.2545	-0.0703	0.1842	947.9392	0.101893	-473.833652	-473.826463	-473.825519	-473.865648	26.787	
O	 0.3992736036	-0.1036996641	 0.0753793909	-0.295689
C	 0.1592891599	 1.0443335959	 0.3023169983	 0.343402
O	-0.9309787105	 1.39092758	 1.0304440616	-0.223238
C	-1.2951237193	 2.7582073903	 1.2424619593	-0.082569
C	-0.1125768915	 3.6792440488	 1.4369558264	-0.056952
N	 1.0342341031	 3.1002596974	 2.1117400993	-0.31774
C	 1.1299634689	 3.3928422584	 0.657117029	-0.1546
C	 1.0643289898	 2.191461261	-0.2159338193	 0.31223
O	 1.6350039682	 2.0906031468	-1.2706781509	-0.286025
H	-1.9036818378	 3.1106624071	 0.3996356541	 0.129787
H	-1.9264890577	 2.7462545295	 2.1353258863	 0.141661
H	-0.3693807103	 4.7224754372	 1.6071113316	 0.116376
H	 1.5528998599	 3.804409086	 2.6291173003	 0.255081
H	 1.7589948135	 4.2046998057	 0.3071010031	 0.118276
76.0417	151.0801	230.3594	326.597	342.3562	431.4118	452.2667	512.9509	601.5982	660.6019	738.3018	794.6539	832.8556	902.0476	908.5072	968.2552	1005.9739	1058.8811	1076.1148	1136.2739	1146.5102	1180.5078	1225.6928	1274.1218	1289.2965	1376.0547	1420.4971	1449.1496	1504.9765	1828.296	1858.5114	3029.6005	3094.2479	3140.9378	3176.0219	3524.3932
O=C1OCC2NC2C1=O	O=C1OC[C@H]2N[C@H]2C1=O	
InChI=1S/C5H5NO3/c7-4-3-2(6-3)1-9-5(4)8/h2-3,6H,1H2	InChI=1S/C5H5NO3/c7-4-3-2(6-3)1-9-5(4)8/h2-3,6H,1H2/t2-,3-/m1/s1
