18
gdb 112345	2.11985	1.50118	0.9272	6.7471	76.54	-0.2321	-0.0096	0.2226	1255.2032	0.147853	-439.151246	-439.14236	-439.141416	-439.184838	33.298	
C	 0.0385875488	 1.5374052329	 0.0392240538	-0.38731
C	-0.0452969603	 0.0116121272	-0.0448600814	-0.186469
C	 0.6856756222	-0.5495962698	-1.2705429864	 0.041157
O	 2.0660579196	-0.2087346967	-1.2141681752	-0.250052
C	 2.8459122468	-1.3627767596	-1.2520135665	 0.447938
O	 4.0428618713	-1.3025981122	-1.2057749569	-0.363533
C	 1.9453952826	-2.5080261804	-1.347197379	-0.417551
C	 0.673842373	-2.0620809835	-1.3682519285	 0.373283
N	-0.4987367252	-2.7380503117	-1.5134516796	-0.589177
H	 1.0817905402	 1.8598256762	 0.0746191761	 0.151473
H	-0.4312006478	 2.0081752325	-0.831340677	 0.115987
H	-0.4683455305	 1.9068781665	 0.9351095529	 0.115931
H	 0.3910829248	-0.4460863431	 0.8503588803	 0.115801
H	-1.0975656244	-0.3015145196	-0.084226559	 0.085541
H	 0.2595519669	-0.1107272146	-2.1851385144	 0.105998
H	 2.3035434315	-3.524933623	-1.3947584916	 0.111004
H	-0.4921455734	-3.7375314318	-1.3884869566	 0.26746
H	-1.352556086	-2.2838525892	-1.2337072209	 0.262517
93.5985	120.7231	171.9282	177.6116	243.2876	284.8708	363.7787	384.2481	420.6109	460.4849	554.2311	597.5885	630.2802	689.04	741.7209	790.9541	824.1063	869.0985	903.264	973.4659	1002.828	1073.5294	1080.5418	1124.3485	1137.713	1164.857	1263.9458	1284.7849	1301.708	1360.0149	1379.8318	1411.2976	1412.4638	1472.5894	1496.4029	1509.168	1642.0511	1702.7385	1869.7625	2999.3707	3014.9715	3040.6585	3068.6251	3107.8579	3132.3691	3251.6844	3595.4749	3703.5965
CCC1OC(=O)C=C1N	CC[C@H]1OC(=O)C=C1N	
InChI=1S/C6H9NO2/c1-2-5-4(7)3-6(8)9-5/h3,5H,2,7H2,1H3	InChI=1S/C6H9NO2/c1-2-5-4(7)3-6(8)9-5/h3,5H,2,7H2,1H3/t5-/m1/s1
