19
gdb 67588	2.29246	2.17335	1.51608	1.5111	77.23	-0.2214	0.0906	0.312	956.9207	0.159282	-385.843701	-385.836062	-385.835117	-385.875294	30.78	
C	 0.0368210209	 1.5300671304	 0.0568277039	-0.517618
C	-0.0112568111	 0.0344567045	-0.0164188206	 0.245538
C	 1.0265106872	-0.8731397295	-0.6460515584	 0.021098
O	 0.4563678673	-1.8700370748	-1.4476961488	-0.230883
C	-0.7424789119	-2.1017410508	-0.7617062792	 0.021112
C	-0.5876935353	-1.9225476033	 0.7405431635	-0.186115
C	 0.673470434	-1.0464570547	 0.8230119347	-0.186105
C	-1.2875440838	-0.8520172973	-0.099726038	 0.24553
C	-2.7080674723	-0.3764777332	-0.1223174746	-0.517619
H	 1.0654089083	 1.8791229051	 0.1968975042	 0.120231
H	-0.3455202085	 1.9892477142	-0.8626388452	 0.123089
H	-0.5567234525	 1.9144101423	 0.8944731336	 0.120211
H	 1.9913162058	-0.5194913578	-0.9856566232	 0.102984
H	-1.3762075849	-2.8583099027	-1.2058223584	 0.102984
H	-0.9729674467	-2.5996118838	 1.4905906258	 0.086013
H	 1.3731198242	-0.9698253673	 1.6440110202	 0.086014
H	-2.9357009323	 0.262273663	 0.7389864761	 0.120214
H	-2.9245237384	 0.1976614005	-1.0311411465	 0.123088
H	-3.40163551	-1.2236061049	-0.0942136793	 0.120234
176.2482	195.6478	200.5628	211.5939	262.0493	345.5106	543.1923	544.8414	622.5081	627.3133	709.1572	754.5785	795.024	833.9306	851.665	857.5099	878.8873	907.4457	923.1998	990.5419	1002.5035	1012.0095	1034.08	1049.9818	1099.5899	1113.6827	1118.2633	1152.551	1209.09	1218.3296	1235.5784	1258.3206	1313.0257	1407.1379	1417.6496	1431.2644	1433.0106	1482.1103	1489.2294	1497.0006	1501.4384	3018.0199	3021.283	3076.0027	3079.2767	3091.187	3092.859	3198.9238	3206.5954	3208.832	3216.4034
CC12C3OC4C(C13)C24C	C[C@@]12[C@@H]3O[C@H]4[C@@H]([C@H]13)[C@@]24C	
InChI=1S/C8H10O/c1-7-3-4-6(8(4,7)2)9-5(3)7/h3-6H,1-2H3	InChI=1S/C8H10O/c1-7-3-4-6(8(4,7)2)9-5(3)7/h3-6H,1-2H3/t3-,4+,5+,6-,7-,8+
