23
gdb 120477	2.59451	0.88211	0.82278	2.2845	81.56	-0.2506	0.0654	0.316	1546.013	0.2045	-425.409669	-425.399161	-425.398216	-425.445454	38.607	
C	 0.8735804223	 1.4271999899	-0.1025650901	-0.417357
C	 0.0768522351	 0.1295072075	 0.0039685071	-0.009658
C	 0.5645491499	-1.0352626287	-0.9106180629	-0.253747
C	 1.1574583711	-1.7802119416	 0.3267207967	-0.033452
C	 2.680224772	-1.7699239319	 0.451931804	-0.200864
C	 3.3547336012	-2.7787735746	-0.4689649997	-0.078575
O	 4.7590406826	-2.6513802619	-0.3011081581	-0.422086
C	 0.4012531094	-0.7639354353	 1.2464345184	 0.118877
O	 1.0575233535	-0.2045101547	 2.357787744	-0.424659
H	 1.9562386306	 1.2556866355	-0.0779602317	 0.110864
H	 0.655003362	 1.935873677	-1.0472815595	 0.117961
H	 0.6236606676	 2.1109180249	 0.7151313201	 0.125701
H	-0.9881034655	 0.362816136	-0.0922429869	 0.068194
H	-0.2493631141	-1.5781531624	-1.3969768719	 0.098015
H	 1.2892339943	-0.7503327521	-1.6800099628	 0.094572
H	 0.8029180229	-2.8104031594	 0.4439826833	 0.064178
H	 3.0920260555	-0.7795390098	 0.2175759986	 0.098197
H	 2.9676553943	-1.9939864298	 1.4858591991	 0.115986
H	 3.0114932779	-3.7949690582	-0.2142853076	 0.085823
H	 3.0607456642	-2.5895893394	-1.5141300907	 0.08748
H	 5.1902405363	-3.2861355056	-0.8804856492	 0.285269
H	-0.5091499192	-1.2120029907	 1.6539629327	 0.084953
H	 1.8697857559	 0.2136057053	 2.0546686472	 0.284328
63.446	98.8754	106.2365	134.0268	207.2652	234.5072	260.8673	266.5151	294.2877	323.9899	357.1139	445.2945	518.1793	551.4844	729.9815	791.2687	796.3247	833.4102	864.0315	917.6528	944.2862	985.9338	1022.202	1038.2096	1076.6673	1078.8834	1096.9971	1143.7841	1165.1577	1178.1531	1209.6112	1232.0711	1241.2699	1268.121	1276.9838	1289.0171	1300.3104	1315.5694	1323.2021	1362.4869	1386.64	1406.2405	1439.4337	1462.1621	1483.0883	1495.5171	1498.8926	1503.286	1527.2148	2961.529	2987.2161	3020.7217	3027.3646	3034.6985	3044.8968	3049.0696	3071.5077	3073.243	3090.1414	3102.4534	3104.9996	3821.0242	3830.304
CC1CC(CCO)C1O	C[C@H]1C[C@@H](CCO)[C@H]1O	
InChI=1S/C7H14O2/c1-5-4-6(2-3-8)7(5)9/h5-9H,2-4H2,1H3	InChI=1S/C7H14O2/c1-5-4-6(2-3-8)7(5)9/h5-9H,2-4H2,1H3/t5-,6+,7-/m0/s1
