13
gdb 16257	3.48073	1.9927	1.43782	2.5801	66.84	-0.2527	0.0065	0.2593	840.8391	0.094436	-361.394412	-361.387551	-361.386607	-361.425338	26.265	
N	 0.0125676149	 1.2261687163	 0.0148330156	-0.543802
C	-0.0195640238	-0.0213234329	 0.0607628009	 0.394457
O	 1.0108630413	-0.9555866685	 0.1989984216	-0.270028
C	 0.0793283255	-2.0390536303	-0.0176104126	 0.047539
C	-0.9088655952	-2.0687990238	 1.0808323161	-0.323021
C	-1.0963228263	-1.0622817707	-0.0811988874	 0.040273
C	-2.2583014542	-1.0058355401	-0.8922037263	 0.190529
C	-3.2460944355	-0.9573249747	-1.5759603555	-0.39452
H	 0.9643588711	 1.580986316	 0.1187481212	 0.236744
H	 0.3756338015	-2.8334727925	-0.6878204391	 0.141048
H	-1.6329897552	-2.8763805139	 1.0586168254	 0.145468
H	-0.6293821665	-1.7060091966	 2.0646073835	 0.140678
H	-4.1146339775	-0.9045604382	-2.1845657435	 0.194634
132.1604	159.0151	211.3412	372.8843	447.2284	488.543	515.8329	589.8638	621.4269	660.8886	670.4568	741.8438	843.5432	860.5402	889.57	921.4217	934.5565	1006.5613	1027.7793	1043.7569	1085.2247	1167.0636	1252.6295	1281.7563	1388.3541	1475.8647	1837.9967	2245.1108	3131.6835	3225.8253	3233.0666	3486.0948	3502.9048
N=C1OC2CC12C#C	[NH][C]1O[C@H]2C[C@@]12C#C	
InChI=1S/C6H5NO/c1-2-6-3-4(6)8-5(6)7/h1,4,7H,3H2	InChI=1S/C6H5NO/c1-2-6-3-4(6)8-5(6)7/h1,4,7H,3H2/t4-,6+/m0/s1
