15
gdb 130122	3.3221	1.39656	0.98438	2.2642	75.15	-0.195	-0.0285	0.1664	1122.385	0.115645	-450.154791	-450.147243	-450.146298	-450.186473	29.972	
N	-0.0057095951	 1.4041260514	 0.1077728505	-0.565518
C	 0.0083148296	 0.0179699644	-0.0190189717	 0.410009
N	-1.1445363864	-0.5856545649	-0.0966998384	-0.316063
N	-1.093075716	-1.9387729991	-0.3183775446	-0.324987
C	 0.0149657141	-2.7261649951	-0.4184785248	 0.323392
N	 0.1150225046	-4.0022777153	-0.6048033956	-0.619502
C	 1.2804732618	-1.9926310466	-0.3002376671	 0.429466
O	 2.3665701001	-2.7507011873	-0.4021280721	-0.414482
C	 1.276459449	-0.6516353114	-0.1146137316	-0.319112
H	 0.7245352604	 1.7790261919	 0.6964091468	 0.251245
H	-0.9184195473	 1.759532926	 0.3591962708	 0.254152
H	-2.0055219048	-2.361330408	-0.3849117327	 0.262516
H	-0.7751927256	-4.4861385768	-0.6859715949	 0.208957
H	 2.0001899036	-3.6568381738	-0.5392313859	 0.309744
H	 2.202059892	-0.0923605354	-0.0520830288	 0.110183
127.894	208.192	308.0203	330.8296	356.1075	365.0509	418.6788	472.2174	531.0176	561.2567	607.3248	635.4597	706.9826	726.7011	750.477	766.9617	779.6434	833.5323	878.7539	975.0335	1075.4904	1120.0892	1220.4296	1259.7702	1271.671	1400.4287	1425.3434	1472.9215	1524.9544	1608.1117	1643.2587	1675.4143	1730.0933	3203.6287	3420.3112	3522.1207	3554.2627	3635.2413	3658.6517
NC1=NNC(=N)C(O)=C1	NC1=NNC(=C(O)C1)[NH]	
InChI=1S/C4H6N4O/c5-3-1-2(9)4(6)8-7-3/h1H,(H2,6,8)(H3,5,7,9)	InChI=1S/C4H7N4O/c5-3-1-2(9)4(6)8-7-3/h6,8-9H,1H2,(H2,5,7)
