18
gdb 80986	2.79535	1.51418	1.20874	2.5339	72.17	-0.2314	-0.0208	0.2106	1056.1632	0.148141	-439.080224	-439.072309	-439.071365	-439.112267	31.46	
C	-0.0330749055	 1.5087935641	 0.0903868493	-0.488734
C	-0.0071234462	 0.0050123953	 0.0227844999	 0.281686
C	 0.8587084734	-0.6980499682	-1.0441750612	-0.393868
C	 0.5931593102	-2.1534977494	-0.5960210653	 0.431995
O	 1.0099834616	-3.1794811095	-1.0611751287	-0.327269
C	-0.3340550724	-1.9239911184	 0.5910811532	-0.165671
N	 0.304241321	-0.757022303	 1.2941857443	-0.383732
C	-1.320011023	-0.8521445092	 0.0021490787	 0.16364
O	-2.3229009034	-0.4321797117	 0.8740476212	-0.450332
H	 0.9487145398	 1.9083788017	 0.366617825	 0.120594
H	-0.3067032997	 1.9324802979	-0.8813415297	 0.126243
H	-0.7643571476	 1.8464300721	 0.8295859837	 0.129441
H	 0.5383948321	-0.5410153088	-2.0796933838	 0.12945
H	 1.9180339283	-0.4283721298	-0.9734080914	 0.125603
H	-0.6667971986	-2.7791245149	 1.1762947194	 0.092409
H	 1.301106965	-0.877779717	 1.4795372057	 0.219558
H	-1.7825009623	-1.0561017589	-0.9656082996	 0.095633
H	-1.8922355727	-0.2951958224	 1.7295971494	 0.293352
127.5307	190.4247	217.7248	243.5765	306.3038	365.3891	411.2915	496.208	537.1593	543.6049	598.4042	618.7235	675.2325	773.0551	814.3002	844.3028	898.1331	910.4085	964.3996	968.6708	1048.3914	1077.8972	1081.5756	1114.9771	1163.2216	1182.6625	1193.514	1208.1591	1226.5088	1252.2749	1306.83	1320.3901	1339.1316	1415.5366	1445.5585	1462.61	1485.708	1490.0856	1866.7759	3036.4604	3046.5621	3091.0185	3102.3881	3103.021	3119.735	3147.4778	3441.2019	3751.8594
CC12CC(=O)C(N1)C2O	C[C@@]12CC(=O)[C@@H](N1)[C@H]2O	
InChI=1S/C6H9NO2/c1-6-2-3(8)4(7-6)5(6)9/h4-5,7,9H,2H2,1H3	InChI=1S/C6H9NO2/c1-6-2-3(8)4(7-6)5(6)9/h4-5,7,9H,2H2,1H3/t4-,5-,6+/m1/s1
