21
gdb 52616	2.62754	0.9771	0.84916	1.8406	87.77	-0.2475	0.0423	0.2898	1497.4991	0.179192	-387.055338	-387.044483	-387.043538	-387.092577	39.017	
C	-0.2007551846	 1.54846884	 0.0091455108	-0.499566
C	-0.0897159651	 0.0967210572	 0.0086037224	 0.024059
C	-0.006413619	-1.1052878545	 0.0078161128	 0.07782
C	 0.1318739968	-2.5695459809	-0.0011544398	 0.139845
C	-1.2459166391	-3.2479563655	-0.0011991477	-0.392094
O	 0.7724129859	-2.9942588085	-1.2139563282	-0.452367
C	 0.9395864465	-3.015866426	 1.2252675489	 0.033195
C	 1.6497056306	-4.3421120823	 1.2226757413	-0.277306
C	 2.4421864206	-3.0562865219	 1.2007739005	-0.277567
H	 0.5833825446	 2.0105761041	 0.6188677114	 0.148869
H	-0.1154026833	 1.952746356	-1.0055418916	 0.150065
H	-1.1676953814	 1.8703222519	 0.4113279075	 0.151121
H	-1.830441294	-2.911307771	-0.8601074522	 0.124007
H	-1.1125506094	-4.3311974689	-0.0638150795	 0.124404
H	-1.7918831381	-3.0104060392	 0.9153507853	 0.116457
H	 1.4139799127	-2.3176611031	-1.4521747592	 0.285338
H	 0.4841517804	-2.7056541917	 2.1611911273	 0.085915
H	 1.639008001	-4.93505175	 2.1304026099	 0.104794
H	 1.6243086889	-4.9112151297	 0.3007157424	 0.125783
H	 2.9449511536	-2.8082189174	 0.2725166555	 0.099486
H	 2.9775941722	-2.7528567084	 2.0933715522	 0.107742
17.6094	66.7108	94.0924	126.36	222.0362	235.2339	251.5363	283.6224	289.4301	326.0285	378.2608	410.6886	441.884	550.83	584.2466	662.6689	785.7541	815.5971	830.0124	912.8336	945.182	963.6877	1037.6238	1050.6025	1054.0659	1059.1857	1067.6036	1085.4873	1096.8068	1140.3651	1197.0935	1198.0672	1208.8737	1234.4732	1360.9253	1386.1401	1403.6762	1413.7338	1456.5866	1477.0467	1478.7572	1482.4062	1489.5353	1499.9728	2363.0757	3027.5756	3050.1704	3088.8478	3089.0628	3129.0385	3134.9113	3135.6952	3139.2043	3151.0491	3215.2211	3232.2711	3826.9421
CC#CC(C)(O)C1CC1	CC#C[C@@](C)(O)C1CC1	
InChI=1S/C8H12O/c1-3-6-8(2,9)7-4-5-7/h7,9H,4-5H2,1-2H3	InChI=1S/C8H12O/c1-3-6-8(2,9)7-4-5-7/h7,9H,4-5H2,1-2H3/t8-/m1/s1
