21
gdb 84780	2.10609	1.5149	1.22526	2.5314	83.36	-0.2404	-0.0184	0.222	1153.8045	0.181255	-387.117667	-387.108369	-387.107425	-387.151745	35.272	
C	-0.7260580973	 1.2013655847	 0.0478368788	-0.40962
C	 0.0992474654	-0.0818539306	-0.1051402224	-0.060775
C	 1.1971865978	-0.0010153856	-1.1431174009	-0.063359
C	 2.3125791419	-0.6168254559	-0.7622821873	-0.080277
C	 2.1844293646	-1.225535791	 0.609392638	-0.302747
C	 0.8841662408	-0.5936974414	 1.1769171299	 0.18596
C	 1.2187745225	 0.5473575547	 2.1548757724	-0.451183
C	 0.0058286947	-1.5956401842	 1.9021094116	 0.126895
O	 0.2033784678	-2.7807983141	 1.9890795417	-0.259683
H	-0.1041711857	 2.0605602614	 0.3133414284	 0.122791
H	-1.2239567773	 1.4345975805	-0.8991111556	 0.117628
H	-1.5063876027	 1.0963174633	 0.8084783306	 0.116424
H	-0.6012552313	-0.874195731	-0.4148498761	 0.091842
H	 1.0343544518	 0.479349881	-2.1025253763	 0.091482
H	 3.2089282634	-0.7186499902	-1.3641411539	 0.094934
H	 2.0887759238	-2.3172887825	 0.5601066455	 0.132614
H	 3.0484950478	-1.0199982644	 1.25197136	 0.100593
H	 1.8040641118	 1.3222573634	 1.6514679467	 0.131186
H	 0.3212795258	 1.0151358535	 2.570892826	 0.118936
H	 1.8156424096	 0.1659520675	 2.9897916309	 0.123927
H	-0.9006408552	-1.1402186991	 2.3683521021	 0.072432
65.4356	69.5434	215.7252	249.4022	263.329	277.5511	291.2165	313.9155	367.0817	401.2068	496.45	517.0534	659.4568	711.281	757.2872	772.3162	857.9101	914.9983	925.5885	953.893	970.3344	979.7258	1014.7333	1037.0992	1072.6087	1110.0547	1130.4062	1148.9379	1164.9399	1211.8263	1254.686	1300.4316	1335.1149	1348.9514	1369.2749	1400.0104	1411.944	1429.2907	1487.5041	1489.0144	1494.619	1507.5846	1510.4615	1694.0316	1826.0887	2843.7799	2964.9163	3029.8427	3034.1629	3038.2095	3060.2828	3098.279	3103.388	3112.3453	3116.563	3176.362	3203.3967
CC1C=CCC1(C)C=O	C[C@H]1C=CC[C@]1(C)C=O	
InChI=1S/C8H12O/c1-7-4-3-5-8(7,2)6-9/h3-4,6-7H,5H2,1-2H3	InChI=1S/C8H12O/c1-7-4-3-5-8(7,2)6-9/h3-4,6-7H,5H2,1-2H3/t7-,8+/m0/s1
