21
gdb 114518	2.52062	1.35266	1.05318	0.5824	77.97	-0.2419	0.0614	0.3033	1226.6474	0.182236	-424.190961	-424.181998	-424.181054	-424.224796	34.166	
C	-0.1817461158	 1.5695083274	 0.3126701842	-0.387411
C	-0.2444238725	 0.0428792945	 0.1899808521	-0.206045
C	 0.8095346068	-0.6346005112	 1.0550607796	 0.148881
O	 0.5340727843	-0.5055709878	 2.4782180418	-0.31223
C	 0.6779457436	-1.9240846064	 2.6786573399	 0.123139
C	-0.6711790525	-2.6812135866	 2.5798991464	-0.294675
C	-0.2970773805	-3.0911357686	 1.1175085836	 0.137845
O	-1.2342992736	-3.0177928389	 0.0755561645	-0.428369
C	 0.9579684701	-2.1729214541	 1.1674444567	-0.164721
H	 0.7848067529	 1.9510139645	-0.0339335572	 0.117382
H	-0.964619715	 2.0488844805	-0.282126012	 0.113403
H	-0.309426387	 1.8741110538	 1.3554754453	 0.139714
H	-1.2416903906	-0.2902924908	 0.5035870745	 0.086632
H	-0.1032081682	-0.2664217493	-0.8529653111	 0.109015
H	 1.7863999689	-0.1785483938	 0.8327790033	 0.077193
H	 1.3608672899	-2.1696480602	 3.4944750515	 0.077624
H	-0.8238666999	-3.5153170687	 3.2689694454	 0.103634
H	-1.5174875578	-1.9936397737	 2.6586091744	 0.106845
H	 0.0494955847	-4.129273459	 1.108304211	 0.097447
H	-1.622250284	-2.1382737571	 0.073009345	 0.28119
H	 1.8829174661	-2.5828151941	 0.7624766612	 0.073507
70.8372	100.6002	156.5244	197.2919	245.8502	278.3867	362.7653	379.0296	408.9601	446.4915	603.1603	613.6219	726.9013	769.5825	791.1808	859.6759	887.877	919.308	952.8381	966.4295	1006.9295	1016.0536	1036.3991	1090.7564	1099.1054	1113.1804	1143.1252	1163.4472	1170.1523	1204.4078	1229.9157	1262.1408	1278.6732	1298.81	1310.4674	1334.6862	1339.7415	1354.8132	1401.4128	1411.4788	1442.566	1467.7038	1475.2006	1497.9531	1506.8112	2978.399	3020.7094	3037.6771	3057.9049	3061.2037	3063.3941	3085.7714	3106.0272	3111.1477	3118.5847	3121.735	3836.6146
CCC1OC2CC(O)C12	CC[C@H]1O[C@H]2C[C@@H](O)[C@@H]12	
InChI=1S/C7H12O2/c1-2-5-7-4(8)3-6(7)9-5/h4-8H,2-3H2,1H3	InChI=1S/C7H12O2/c1-2-5-7-4(8)3-6(7)9-5/h4-8H,2-3H2,1H3/t4-,5-,6+,7+/m1/s1
