18
gdb 102733	2.79084	0.95489	0.77878	3.0229	73.49	-0.279	0.0138	0.2928	1466.6356	0.145552	-439.059403	-439.049695	-439.048751	-439.095192	33.466	
C	 0.1661969016	 1.4687338389	 0.1127401658	-0.251182
O	-0.1246345264	 0.0804216814	 0.1143062155	-0.236825
C	 0.5498971527	-0.6499996184	 1.1116031884	-0.015322
C	-0.0665745811	-2.0558633885	 1.1672853933	-0.248622
C	-1.5150512878	-1.991557052	 1.5877522334	 0.082457
C	-2.0977845513	-2.981981825	 2.4994601939	-0.178019
O	-1.7436445534	-1.6785213117	 2.9664563846	-0.239941
C	 2.003914869	-0.7201564564	 0.835848592	 0.272221
N	 3.136686272	-0.7682938632	 0.6126200027	-0.322644
H	 1.2262287074	 1.6585791223	-0.1016437106	 0.135908
H	-0.4441434524	 1.9152447679	-0.6741567489	 0.13963
H	-0.0910740476	 1.9309552722	 1.0765354149	 0.119192
H	 0.4233856317	-0.171192025	 2.0959519159	 0.131398
H	 0.0220491257	-2.5158137699	 0.1774010468	 0.131877
H	 0.50218209	-2.6623587058	 1.8780039015	 0.126904
H	-2.1766047759	-1.4685104932	 0.8992830789	 0.113852
H	-3.1655885399	-3.1909812	 2.4601523478	 0.121239
H	-1.4790275243	-3.7966557736	 2.8738643839	 0.117879
53.1947	73.3403	101.1667	127.2606	166.2585	211.5483	276.3275	291.4569	347.4166	419.434	501.5272	570.7431	599.4152	791.8813	833.8585	869.59	942.8468	970.0326	993.8166	1054.9709	1100.4185	1132.1648	1146.9224	1161.2781	1172.402	1183.9688	1211.9295	1263.9998	1292.2869	1297.6667	1364.2048	1372.8412	1443.3814	1460.0346	1480.6894	1488.0715	1507.3265	1530.8128	2352.9573	2986.6951	2996.9397	3056.3432	3057.2439	3084.9574	3106.7852	3134.2444	3134.2975	3172.857
COC(CC1CO1)C#N	CO[C@@H](C[C@H]1CO1)C#N	
InChI=1S/C6H9NO2/c1-8-5(3-7)2-6-4-9-6/h5-6H,2,4H2,1H3	InChI=1S/C6H9NO2/c1-8-5(3-7)2-6-4-9-6/h5-6H,2,4H2,1H3/t5-,6-/m0/s1
