19
gdb 71258	2.22808	2.07898	1.65722	2.2875	73.97	-0.233	0.0707	0.3036	929.5705	0.159326	-422.991774	-422.984022	-422.983078	-423.023402	31.471	
C	 0.0850096127	 1.4945585489	-0.0938150609	-0.510694
C	-0.0361793548	 0.0041417983	-0.0310431446	 0.430895
O	 0.4540115484	-0.7331329223	-1.1657912859	-0.331513
C	-0.2520294655	-1.8581909205	-0.564850215	 0.067488
C	 0.6565527491	-2.1651567355	 0.6393475941	-0.282811
C	 0.3662846133	-0.7993426197	 1.3025339142	 0.34041
O	 1.2865645086	-0.2217988756	 2.1705384761	-0.493532
C	-1.1537485162	-0.9221039695	 1.6204881894	-0.32235
C	-1.3043239222	-0.878427921	 0.0916974441	-0.123491
H	 1.1405945121	 1.783895615	-0.0973154688	 0.140391
H	-0.3889365432	 1.884542836	-0.9990453591	 0.125461
H	-0.3844909768	 1.9564379783	 0.7794498131	 0.128131
H	-0.514359621	-2.6448636627	-1.2710514211	 0.079308
H	 0.3440776996	-3.0148519028	 1.2543002171	 0.088181
H	 1.6928965828	-2.2864695721	 0.3180600634	 0.110262
H	 1.4948961883	-0.851290393	 2.8691638291	 0.281795
H	-1.4947862056	-1.8024544326	 2.173525154	 0.088575
H	-1.5534552484	-0.0136753731	 2.079115785	 0.105707
H	-2.2337465212	-0.679566116	-0.4375085243	 0.077787
169.9184	181.6736	205.6282	232.4331	326.9629	379.8829	450.5029	483.7715	547.7537	602.038	645.3246	693.3826	734.3021	821.3723	835.7279	864.9187	895.773	909.0329	941.632	960.8175	972.9482	1032.7178	1062.7541	1078.0113	1115.6167	1134.8044	1156.6588	1173.0679	1189.8824	1225.4446	1258.6367	1276.5933	1282.2882	1307.9647	1350.0937	1376.7519	1417.7614	1473.5338	1478.3432	1491.2078	1507.4396	3042.6031	3049.674	3056.1324	3109.5425	3113.7509	3120.9889	3123.1656	3126.9169	3143.9722	3803.9644
CC12OC3CC1(O)CC23	C[C@@]12O[C@H]3C[C@]1(O)C[C@@H]23	
InChI=1S/C7H10O2/c1-6-4-2-7(6,8)3-5(4)9-6/h4-5,8H,2-3H2,1H3	InChI=1S/C7H10O2/c1-6-4-2-7(6,8)3-5(4)9-6/h4-5,8H,2-3H2,1H3/t4-,5+,6+,7-/m1/s1
