23
gdb 104428	2.77401	1.22062	1.13989	1.0288	87.92	-0.2414	0.0244	0.2658	1254.5126	0.205671	-388.308962	-388.29953	-388.298586	-388.342695	36.704	
C	 0.1043005573	 1.5202363087	 0.1657366883	-0.395772
C	 0.0532435057	 0.0055733948	-0.0554460889	-0.183647
C	 0.6581523462	-0.4809178413	-1.3929034252	 0.324669
C	-0.096343745	 0.1025752209	-2.6044596988	-0.418972
O	 2.0118349627	-0.0065569693	-1.3847017018	-0.296971
C	 2.9083732064	-0.7149672598	-2.2218295664	-0.08204
C	 3.0523076334	-2.1700858769	-1.7751277391	-0.258398
C	 1.6843880751	-2.761004103	-1.5656618356	-0.090666
C	 0.6076106326	-1.9923475911	-1.4242052397	-0.07054
H	 1.1264594675	 1.8898234882	 0.0554068823	 0.135412
H	-0.5320294495	 2.0617419997	-0.5408413636	 0.111883
H	-0.2430819674	 1.7680304267	 1.1736570655	 0.107053
H	 0.6040119577	-0.497568931	 0.7468483792	 0.101787
H	-0.9830954547	-0.3494851585	 0.0023925244	 0.087586
H	-0.0501818167	 1.1941103045	-2.5974365354	 0.123154
H	 0.3374878033	-0.2540980446	-3.5426130126	 0.116028
H	-1.1478643636	-0.2022820146	-2.5905827376	 0.11075
H	 2.5746746651	-0.6855163128	-3.2705645369	 0.089712
H	 3.8600944917	-0.1788108712	-2.1617963879	 0.101694
H	 3.607367372	-2.7394047857	-2.5315647864	 0.100708
H	 3.6420180372	-2.2280972552	-0.8498645785	 0.113811
H	 1.5910657157	-3.8437578946	-1.5427726644	 0.087378
H	-0.3791980825	-2.433398734	-1.305116931	 0.085381
88.015	110.5701	184.5713	216.1166	233.2676	276.1242	303.9462	333.7136	403.6232	411.5456	491.0691	519.6169	547.6984	671.71	742.8609	775.2022	780.0203	865.1841	894.5813	914.479	953.8602	1002.1395	1005.0697	1007.5831	1014.384	1069.1126	1083.5571	1106.5986	1166.061	1190.9494	1196.9299	1232.8525	1242.847	1299.2237	1318.7003	1360.0839	1370.8072	1394.1113	1398.1451	1406.3089	1427.2175	1469.2796	1473.8379	1485.457	1491.6137	1505.8178	1507.5123	1511.0749	1722.7964	2985.8753	3012.9207	3029.7224	3041.8301	3044.9304	3049.0442	3070.1718	3081.2847	3104.1456	3110.8093	3127.242	3130.3607	3144.825	3168.2031
CCC1(C)OCCC=C1	CC[C@@]1(C)OCCC=C1	
InChI=1S/C8H14O/c1-3-8(2)6-4-5-7-9-8/h4,6H,3,5,7H2,1-2H3	InChI=1S/C8H14O/c1-3-8(2)6-4-5-7-9-8/h4,6H,3,5,7H2,1-2H3/t8-/m1/s1
