13
gdb 16802	3.80564	2.00964	1.4168	5.7875	62.64	-0.2259	-0.04	0.1859	823.0068	0.096343	-398.604144	-398.597551	-398.596607	-398.634672	25.404	
N	 0.0756828309	 1.3470580725	 0.0950553688	-0.59236
C	-0.0373048473	-0.003126599	 0.0375854736	 0.408368
C	-1.1537434912	-0.7772208382	-0.0257799718	-0.345129
C	-0.7974461283	-2.1962801745	 0.0027765555	 0.416131
O	-1.5232310389	-3.1665012014	 0.0254058611	-0.34975
C	 0.7396485166	-2.250001301	 0.0245365567	-0.087252
O	 1.3473464728	-1.6426000901	-1.1343624732	-0.245172
C	 1.2005240075	-0.8649245177	 0.0629087795	-0.0671
H	 0.961385427	 1.7715912458	-0.1259960351	 0.268219
H	-0.7362456773	 1.9156473817	-0.0849922204	 0.269302
H	-2.1723217028	-0.4287116679	-0.1321597635	 0.101148
H	 1.2667755714	-3.0924632668	 0.4600803081	 0.114854
H	 2.1156325597	-0.5290224934	 0.5425183608	 0.108741
157.1106	213.3566	306.3514	357.9099	374.0283	465.1412	491.0298	588.3429	608.9328	689.6359	747.4518	822.5796	842.3386	860.5415	879.4766	929.0234	1014.0531	1074.923	1092.2918	1188.8001	1233.5932	1275.7395	1290.497	1387.8772	1424.3108	1630.4329	1680.2697	1806.1092	3156.8989	3180.4354	3221.0578	3593.0924	3706.1612
NC1=CC(=O)C2OC12	NC1=CC(=O)[C@H]2O[C@@H]12	
InChI=1S/C5H5NO2/c6-2-1-3(7)5-4(2)8-5/h1,4-5H,6H2	InChI=1S/C5H5NO2/c6-2-1-3(7)5-4(2)8-5/h1,4-5H,6H2/t4-,5+/m0/s1
