22
gdb 71580	3.09161	1.47303	1.46336	1.5468	85.58	-0.221	0.0906	0.3116	1060.6077	0.195366	-367.178548	-367.170553	-367.169608	-367.210247	33.162	
C	-0.0582215584	 1.5092287888	 0.0984604025	-0.510554
C	 0.0145473479	 0.001989267	 0.0366695942	 0.32023
C	 0.878985626	-0.7779380668	-0.9784759096	-0.207604
N	 0.861912096	-1.9261863083	-0.0140916892	-0.181576
C	 0.7536738135	-0.9050065445	 1.1153268216	-0.035649
C	-0.2368311893	-1.8163039443	 1.8318725709	-0.278231
C	-0.6315704774	-2.1557603929	 0.3720415952	 0.354337
C	-1.2496861367	-3.4663625181	-0.0355232809	-0.495577
C	-1.2851643679	-0.8240050232	-0.0747658108	-0.301608
H	 0.9398777138	 1.9538903539	 0.1793667636	 0.114166
H	-0.5322647812	 1.919438776	-0.8010486843	 0.117322
H	-0.6444341565	 1.8456708094	 0.9612366533	 0.115558
H	 0.4743240977	-0.9715265921	-1.9787351424	 0.089788
H	 1.907505699	-0.4114447996	-1.0634762096	 0.098873
H	 1.6787992654	-0.5292270299	 1.556868124	 0.067831
H	 0.2831597289	-2.6424235143	 2.3231715191	 0.107107
H	-0.9988100744	-1.3917316054	 2.490041212	 0.090596
H	-2.2678649596	-3.555988531	 0.3604609072	 0.113854
H	-1.3072634667	-3.5477651419	-1.1267808423	 0.116694
H	-0.6585126907	-4.3084352165	 0.3352820599	 0.124548
H	-2.0825036639	-0.5050794441	 0.6034198853	 0.090609
H	-1.6847369655	-0.8392376822	-1.0939276696	 0.089287
191.2026	200.8708	211.802	224.9071	295.6261	343.6813	441.7683	453.8578	494.9111	557.7779	637.0927	659.7333	720.3826	791.795	838.1214	854.0129	884.7235	908.6016	924.3492	960.1192	981.3242	993.0258	1009.7426	1036.1223	1053.9518	1065.2192	1115.1663	1146.8032	1180.3385	1188.3722	1219.7093	1220.5433	1230.4161	1251.4987	1260.1657	1289.1685	1329.9063	1359.3285	1410.6757	1413.4255	1477.1515	1483.1914	1490.7005	1492.0318	1494.0038	1498.9729	1521.2504	3020.9135	3027.4494	3028.081	3045.2836	3059.694	3083.3617	3084.6537	3088.8593	3089.4424	3092.227	3096.158	3110.539	3121.3947
CC12CN3C1CC3(C)C2	C[C@@]12CN3[C@@H]1C[C@@]3(C)C2	
InChI=1S/C8H13N/c1-7-4-8(2)3-6(7)9(8)5-7/h6H,3-5H2,1-2H3	InChI=1S/C8H13N/c1-7-4-8(2)3-6(7)9(8)5-7/h6H,3-5H2,1-2H3/t6-,7-,8+/m1/s1
