23
gdb 120553	5.89439	0.64725	0.62669	0.2658	84.51	-0.24	0.0821	0.3221	1891.4885	0.203522	-425.401115	-425.390689	-425.389745	-425.437428	37.345	
C	 0.6836217452	 1.0221876884	-0.3543073829	-0.384482
C	 0.0689348989	-0.2824361468	 0.1241276986	-0.040821
O	-1.290000911	-0.3105934459	-0.2710986838	-0.252124
C	-1.9580181413	-1.4884048957	 0.0878558062	 0.170583
C	-2.4090213827	-1.675931277	 1.5686291956	-0.278757
C	-3.7814285283	-2.1537141251	 1.0432662451	 0.130308
C	-3.4392707293	-1.5211609776	-0.3399917645	-0.292702
O	-3.8070144447	-3.5658611945	 1.0359755984	-0.248145
C	-5.007489534	-4.0987370798	 0.5270716866	-0.235799
H	 1.7377509026	 1.0768063175	-0.0662366756	 0.113184
H	 0.6154397454	 1.1011068896	-1.4430669214	 0.125819
H	 0.1593368846	 1.876526618	 0.0834220218	 0.124938
H	 0.6051165401	-1.1448358085	-0.3070753039	 0.085602
H	 0.1521581636	-0.3678940285	 1.2198474808	 0.08946
H	-1.4064338655	-2.3701934323	-0.2699331002	 0.071517
H	-1.8723206567	-2.3890491226	 2.1968937191	 0.106797
H	-2.483479787	-0.7091761413	 2.073909972	 0.105023
H	-4.6759091963	-1.7641358109	 1.5493724259	 0.062076
H	-3.8269810083	-0.5024425673	-0.4260064809	 0.110652
H	-3.7025744916	-2.0877140226	-1.2356439114	 0.102451
H	-4.9297617221	-5.1873285792	 0.5837339385	 0.125894
H	-5.8776207705	-3.7728471479	 1.1189939754	 0.103144
H	-5.181530031	-3.8124070603	-0.5210906094	 0.105381
46.8815	77.9001	90.3878	118.5095	166.5514	214.6898	245.8248	265.8708	302.0935	380.1556	444.4618	466.0233	472.1049	703.2125	801.9301	821.3056	829.5192	892.0323	912.5868	933.9067	984.4226	1009.4221	1066.4544	1080.7406	1103.4334	1142.498	1165.5879	1174.1721	1185.4795	1187.5976	1201.4798	1219.9497	1255.19	1267.9509	1270.7843	1295.2696	1304.6947	1366.6184	1386.0001	1403.6684	1438.4894	1451.4922	1480.2242	1482.3098	1483.8161	1487.8339	1500.1722	1510.916	1529.0423	2957.9488	2972.899	2985.9858	2993.5836	2997.0739	3020.0636	3044.3337	3063.9054	3069.8711	3112.4843	3118.5279	3120.7337	3124.8946	3131.6517
CCOC1CC(C1)OC	CCO[C@H]1C[C@@H](C1)OC	
InChI=1S/C7H14O2/c1-3-9-7-4-6(5-7)8-2/h6-7H,3-5H2,1-2H3	InChI=1S/C7H14O2/c1-3-9-7-4-6(5-7)8-2/h6-7H,3-5H2,1-2H3/t6-,7-
