21
gdb 36301	3.11377	1.10004	1.03796	0.9026	86.99	-0.2517	0.0599	0.3116	1271.2191	0.183663	-349.921566	-349.912848	-349.911904	-349.955674	33.587	
C	-0.1342924108	-0.9740781345	-0.4549296167	-0.462021
C	-0.1012637918	 0.1687150276	-0.0831928354	 0.317856
C	-0.0336769041	 1.557456107	 0.3650005266	-0.392826
C	 1.3600382822	 2.1557768975	 0.2024563091	 0.001215
C	 1.9667034679	 2.6409338141	-1.0924900264	-0.041433
C	 1.0777634581	 2.9660827303	-2.2867563679	-0.218077
C	 0.0332373832	 4.0028170414	-1.7917940616	-0.224162
C	 0.5843602089	 4.5867338957	-0.4625852711	-0.215255
C	 1.6646539899	 3.6263339715	 0.0220382754	-0.078481
H	-0.1719224553	-1.9831522324	-0.7824328505	 0.192537
H	-0.7873262699	 2.1432876046	-0.16781972	 0.130869
H	-0.3174954878	 1.6068932184	 1.4249164584	 0.12934
H	 2.0807826164	 1.6443171857	 0.8362099817	 0.091909
H	 2.984713314	 2.3304004165	-1.3030055151	 0.078561
H	 1.7020336032	 3.3986386532	-3.0763783747	 0.099232
H	 0.5997327336	 2.0781770978	-2.7140879626	 0.109316
H	-0.1348395675	 4.7884894624	-2.5337990285	 0.097774
H	-0.9391085763	 3.5280366365	-1.6357157872	 0.108418
H	 1.0473859122	 5.5642583958	-0.6372808994	 0.100216
H	-0.2116992488	 4.7482984059	 0.2734135569	 0.096326
H	 2.4594231229	 4.0428005151	 0.6325599791	 0.078687
34.2714	100.5138	154.3639	190.7495	241.9089	337.7428	391.789	467.3509	515.904	614.4784	630.6631	663.0773	690.2461	755.8945	782.3767	806.7808	875.6031	886.4031	901.4338	929.8662	961.3448	987.6024	1029.1407	1039.846	1050.8587	1100.3845	1111.7168	1121.3726	1185.769	1210.2255	1227.2858	1246.2323	1262.0399	1307.6506	1314.0532	1325.7535	1327.5135	1361.7308	1382.1105	1446.581	1468.0102	1494.0132	1497.5216	1524.4086	2236.5957	3020.2972	3033.0091	3037.9931	3058.3251	3063.8971	3071.3964	3087.0254	3100.0228	3130.7003	3152.1906	3164.9572	3507.8428
C#CCC1C2CCCC12	C#CC[C@H]1[C@H]2CCC[C@@H]12	
InChI=1S/C9H12/c1-2-4-7-8-5-3-6-9(7)8/h1,7-9H,3-6H2	InChI=1S/C9H12/c1-2-4-7-8-5-3-6-9(7)8/h1,7-9H,3-6H2/t7-,8+,9-
