21
gdb 109674	2.02328	1.22752	1.14522	1.1958	75.1	-0.2266	0.0704	0.297	1270.795	0.178879	-461.326229	-461.315443	-461.314499	-461.361915	39.002	
C	 0.0190969684	 1.2599950673	 0.2600955987	-0.398149
C	-0.2218245315	-0.1897389074	-0.1800089561	-0.219632
C	 0.6663743321	-0.5981117522	-1.3356308084	 0.290277
O	 0.4052828516	 0.0317754331	-2.5656648543	-0.465429
C	 2.1193105546	-0.9798823952	-1.0792530022	 0.009681
O	 2.6063888985	-1.0417733455	 0.2265925242	-0.431068
C	 1.1313522059	-2.0310262352	-1.5183473906	-0.00443
O	 0.8723062548	-2.9888574498	-0.5412601834	-0.252798
C	-0.3595960969	-3.6691046312	-0.7146999628	-0.237086
H	 1.0469310719	 1.3878680015	 0.612085971	 0.136844
H	-0.1550039046	 1.9606436046	-0.5644195876	 0.103826
H	-0.6576774541	 1.5420185402	 1.0720697752	 0.112779
H	-0.0427438331	-0.8626101774	 0.6625235423	 0.10476
H	-1.2674253003	-0.3190551019	-0.4850127253	 0.097767
H	 0.7680146436	 0.9238568167	-2.524477618	 0.284606
H	 2.8571701289	-0.6429079667	-1.8041622983	 0.097558
H	 2.3521096414	-1.9061156643	 0.5752196563	 0.301247
H	 1.1739103431	-2.4044257696	-2.5416084727	 0.099135
H	-0.4379892892	-4.4001396887	 0.0930937452	 0.130322
H	-1.2117152671	-2.9796201138	-0.665948605	 0.122552
H	-0.3868509679	-4.1952375244	-1.6791364179	 0.117239
68.6719	92.7288	134.9124	146.6942	186.5265	217.9569	246.606	270.5193	278.2882	309.1673	355.412	398.2201	416.0801	520.5232	590.482	627.8008	712.9439	785.7776	860.5807	888.0933	976.7352	1015.5651	1025.5384	1057.1075	1095.3307	1107.6981	1151.9666	1179.9745	1182.5343	1207.6959	1245.1222	1282.8306	1304.1382	1310.4196	1332.0888	1376.6045	1385.4949	1402.0607	1453.4067	1473.2522	1485.4542	1487.0302	1503.2949	1506.5562	1507.3925	3001.1717	3032.6834	3033.7223	3061.6003	3088.4761	3103.4333	3106.1102	3118.2914	3124.3156	3130.0911	3765.1901	3790.581
CCC1(O)C(O)C1OC	CC[C@@]1(O)[C@@H](O)[C@H]1OC	
InChI=1S/C6H12O3/c1-3-6(8)4(7)5(6)9-2/h4-5,7-8H,3H2,1-2H3	InChI=1S/C6H12O3/c1-3-6(8)4(7)5(6)9-2/h4-5,7-8H,3H2,1-2H3/t4-,5+,6+/m0/s1
