20
gdb 9541	3.09345	1.48854	1.3313	1.7687	70.2	-0.2466	0.0577	0.3043	1026.3659	0.175841	-386.124721	-386.115636	-386.114692	-386.157975	34.155	
C	-0.0845267509	 1.5228791058	 0.0825729364	-0.478256
C	-0.0433348678	-0.0039717666	 0.0049593192	 0.288035
C	-1.4273642671	-0.5880359923	-0.2714748245	-0.135714
O	-1.9759982758	-0.2010167918	-1.5250000795	-0.424329
C	 1.1246183643	-0.5263417738	-0.8894610803	-0.253813
C	 1.996553701	-0.7165803568	 0.3823924279	-0.273434
C	 0.7006811793	-0.6480784573	 1.2276025925	 0.11891
O	 0.6974069781	-0.0106368932	 2.4803957366	-0.430417
H	 0.9099061642	 1.953785195	 0.2453805965	 0.108749
H	-0.4546582343	 1.9481430091	-0.8566584262	 0.114487
H	-0.7346502317	 1.8616175322	 0.8971525979	 0.121315
H	-1.3581251726	-1.6810388113	-0.3099465823	 0.102624
H	-2.1074646035	-0.3348187218	 0.5584938112	 0.0912
H	-2.2575668399	 0.7157269761	-1.457212404	 0.284237
H	 0.8755845604	-1.4745140321	-1.372795918	 0.105662
H	 1.5026235059	 0.1586202963	-1.6513994904	 0.099253
H	 2.6074937464	-1.6182295519	 0.4646926602	 0.102496
H	 2.6396827779	 0.1501541839	 0.5703673178	 0.093349
H	 0.3061148018	-1.6525727307	 1.4160039764	 0.086284
H	 1.1210762241	 0.8479180011	 2.3804401928	 0.27936
76.2478	130.9385	185.917	230.1054	249.0261	290.6519	317.6797	334.184	355.146	366.6899	473.0075	567.6527	622.9009	730.1824	793.6042	875.5147	909.5879	943.984	949.2261	967.6871	992.3656	1054.6578	1080.001	1124.5395	1138.104	1160.7747	1197.9726	1230.9914	1245.464	1257.1583	1297.0807	1311.6652	1332.8038	1379.5068	1402.9662	1417.3995	1436.5399	1479.023	1491.3878	1497.2639	1502.7444	1512.0365	2972.017	3023.2784	3044.9446	3051.5452	3061.6302	3066.3734	3085.2396	3094.0306	3103.8301	3119.876	3816.2586	3833.8297
CC1(CO)CCC1O	C[C@@]1(CO)CC[C@H]1O	
InChI=1S/C6H12O2/c1-6(4-7)3-2-5(6)8/h5,7-8H,2-4H2,1H3	InChI=1S/C6H12O2/c1-6(4-7)3-2-5(6)8/h5,7-8H,2-4H2,1H3/t5-,6+/m1/s1
