16
gdb 32363	4.70408	0.99566	0.82597	5.2003	76.55	-0.2082	-0.0331	0.175	1315.3717	0.126029	-437.95023	-437.942122	-437.941178	-437.983604	29.935	
O	 0.0172314535	 1.4525875225	 0.0075132777	-0.418062
C	 0.0387291357	 0.0364346822	 0.0016688096	-0.167162
C	-1.3759896653	-0.4792545215	 0.0123858945	 0.189157
C	-2.4482485965	 0.3584629368	 0.0232544367	-0.023506
N	-3.7171291015	-0.1369086884	 0.0325951086	-0.366306
C	-4.0724187414	-1.4991419708	 0.0322829021	 0.41908
O	-5.2474904042	-1.8300713333	 0.041115675	-0.402808
C	-2.9131209552	-2.3734425505	 0.0205455758	-0.245282
C	-1.6445518476	-1.8813447537	 0.0112673042	-0.115092
H	 0.9244024149	 1.7691957235	 0.000396306	 0.295299
H	 0.564173238	-0.3484343034	-0.8889494786	 0.10286
H	 0.5801203447	-0.3556117051	 0.8794966412	 0.10283
H	-2.3415972835	 1.434518554	 0.0250026354	 0.1525
H	-4.5061198144	 0.4946644599	 0.0407271954	 0.26005
H	-3.11724882	-3.4369608107	 0.0197064729	 0.115028
H	-0.8049122274	-2.5731498017	 0.0027227235	 0.101414
45.0173	116.5426	200.1898	213.8192	288.0588	381.1366	395.2644	468.8516	497.4425	544.065	637.0335	707.0437	758.3142	776.3245	826.5554	852.5672	902.4715	999.1315	1000.1146	1054.9558	1081.8614	1129.8841	1197.1331	1217.2234	1229.8109	1247.0189	1253.9694	1368.9585	1448.7773	1456.2336	1474.3646	1520.3558	1585.3681	1688.5696	1783.5095	2950.0337	2966.5907	3151.7965	3215.722	3235.3358	3606.6199	3846.4723
OCC1=CNC(=O)C=C1	OCc1c[nH]c(=O)cc1	
InChI=1S/C6H7NO2/c8-4-5-1-2-6(9)7-3-5/h1-3,8H,4H2,(H,7,9)	InChI=1S/C6H7NO2/c8-4-5-1-2-6(9)7-3-5/h1-3,8H,4H2,(H,7,9)
