19
gdb 11535	4.23122	1.21591	1.02143	0.9671	74.98	-0.2383	0.0315	0.2697	1209.1132	0.162815	-365.051994	-365.042511	-365.041567	-365.087744	32.803	
C	-0.324176183	 1.3504620786	-0.1160295502	-0.321784
N	-0.0944491234	-0.0786922707	 0.0001513113	-0.288171
C	 0.6291351589	-0.6477964487	-0.8687357376	 0.405312
C	 1.312271849	-0.0292303776	-2.0619321518	-0.490696
O	 0.8942308548	-1.9782980567	-0.8012277052	-0.257487
C	 0.3097534234	-2.6891242265	 0.2674123885	 0.174364
C	-0.9589574095	-3.4426295532	 0.0073839195	-0.278006
C	 0.3637097521	-4.1758601585	 0.1396962757	-0.301365
H	 0.6016160979	 1.9344279787	-0.0074065584	 0.112198
H	-0.7764620303	 1.633017666	-1.0780254761	 0.110076
H	-1.0076307979	 1.6688558459	 0.675529507	 0.123418
H	 2.0009997217	 0.7592853202	-1.7410475963	 0.142659
H	 1.8671685658	-0.7810298254	-2.6227809464	 0.140666
H	 0.5743147532	 0.4383368993	-2.7221099682	 0.142557
H	 0.4493285629	-2.2121702365	 1.2299455613	 0.112139
H	-1.6872399533	-3.5139552562	 0.8072617659	 0.117502
H	-1.3806614567	-3.3642041238	-0.9880958224	 0.118689
H	 0.8019765534	-4.5734666155	-0.7687325052	 0.122265
H	 0.555842131	-4.7618735196	 1.0313034184	 0.115663
33.9837	53.1966	79.3232	115.2912	162.6045	264.0398	276.1971	363.9568	395.233	470.5939	581.8261	634.3342	750.4225	801.9306	828.3512	857.892	962.7799	982.4711	1029.8481	1050.2004	1057.0041	1070.9251	1105.416	1110.4047	1117.5934	1162.6845	1188.3228	1190.99	1235.9585	1308.1545	1386.7273	1403.3542	1444.0231	1455.2259	1478.8917	1481.3823	1488.3126	1499.3938	1512.0134	1746.845	2982.8638	3030.3	3044.6119	3095.715	3100.1967	3138.2208	3141.5112	3154.0694	3185.5636	3221.0262	3235.4649
CN=C(C)OC1CC1	CN=C(C)OC1CC1	
InChI=1S/C6H11NO/c1-5(7-2)8-6-3-4-6/h6H,3-4H2,1-2H3	InChI=1S/C6H11NO/c1-5(7-2)8-6-3-4-6/h6H,3-4H2,1-2H3
