18
gdb 18480	3.09397	1.99888	1.53771	1.9264	67.3	-0.2484	0.073	0.3215	888.7513	0.153941	-384.893853	-384.886086	-384.885142	-384.925904	29.426	
C	-0.4060150628	 1.0007902438	-0.0027175776	-0.252972
O	 0.5135456113	-0.0580162335	 0.2144878528	-0.260372
C	 0.9475686921	-0.6387683207	-0.9878344094	 0.133559
C	 1.6209294548	-1.9622257338	-0.9899629607	-0.12101
C	 1.025129781	-2.8816129265	 0.0787164276	-0.274543
C	-0.3838614821	-2.711770728	-0.5842559225	 0.14331
O	-1.4516878779	-2.242037982	 0.2005916088	-0.441716
C	 0.2194797145	-1.7745052133	-1.6444392395	-0.149587
H	 0.0357449462	 1.7915534248	-0.6257266626	 0.114209
H	-1.3239605525	 0.6407888413	-0.4875904111	 0.125276
H	-0.6518295392	 1.4187597267	 0.9763270048	 0.130319
H	 1.3677028877	 0.0894928209	-1.6836885738	 0.088962
H	 2.5797965501	-2.1064060157	-1.4728848293	 0.090462
H	 1.394583253	-3.907605183	 0.023267769	 0.103944
H	 1.1075488306	-2.527666085	 1.1097003277	 0.107032
H	-0.7247102218	-3.6477972089	-1.0328279645	 0.090757
H	-1.1082326888	-1.4780031097	 0.6787003611	 0.289906
H	-0.0605923063	-1.7492705774	-2.6916724708	 0.082466
92.6708	138.9911	180.9598	201.7333	312.4345	374.9823	446.6088	498.3489	526.2021	628.9352	742.8062	759.4269	814.6644	855.6124	933.3865	951.5761	968.3946	1005.5481	1038.4685	1056.2376	1086.1974	1094.8008	1116.0348	1153.3784	1181.1266	1191.0391	1233.8077	1243.7323	1268.9214	1296.9347	1314.7543	1349.1748	1430.8535	1446.7961	1480.1429	1489.1481	1492.6744	1510.1704	2991.9989	3048.5027	3063.5292	3082.7793	3092.3542	3119.1587	3119.3062	3170.1677	3186.7993	3789.943
COC1C2CC(O)C12	CO[C@H]1[C@H]2C[C@@H](O)[C@@H]12	
InChI=1S/C6H10O2/c1-8-6-3-2-4(7)5(3)6/h3-7H,2H2,1H3	InChI=1S/C6H10O2/c1-8-6-3-2-4(7)5(3)6/h3-7H,2H2,1H3/t3-,4+,5-,6-/m0/s1
