18
gdb 82422	2.41333	1.84726	1.22153	3.7527	72.77	-0.2392	0.0322	0.2714	1030.3971	0.150777	-435.246362	-435.238418	-435.237474	-435.278922	30.624	
N	 0.0977210817	 1.3058520967	 0.405898981	-0.51687
C	-0.0314023435	-0.0562283261	-0.0969492985	-0.064893
C	-1.4803747108	-0.4851441293	-0.0830195285	-0.02605
N	-2.2332697684	-0.2073695629	-1.326183516	-0.333884
C	-1.8770923068	-1.5902587983	-0.9730346056	-0.059156
C	-0.8031285088	-2.2437387794	-1.809298362	-0.081818
O	 0.2365892518	-1.3567794168	-2.2177458725	-0.253788
C	 0.6000591708	-0.2725595121	-1.4765813798	 0.387779
N	 1.4835655604	 0.5314692374	-1.8956098583	-0.527337
H	 1.0627586738	 1.5950322572	 0.2619458227	 0.245037
H	-0.437073903	 1.9109335593	-0.2151225962	 0.233014
H	 0.5063399317	-0.7200727679	 0.5984385151	 0.106261
H	-1.9857271833	-0.3531776107	 0.8693230302	 0.100456
H	-3.2120912451	-0.0343971667	-1.1154981153	 0.238382
H	-2.6635325557	-2.2689418615	-0.6501855695	 0.096354
H	-0.3692241194	-3.0811596029	-1.2436613172	 0.112017
H	-1.2177726512	-2.6471666577	-2.7387031434	 0.124796
H	 1.8238163459	 0.2385847218	-2.8129876465	 0.2197
75.5773	128.8948	222.3335	262.9541	318.0612	328.4728	439.8173	457.4445	508.1372	546.9624	658.3772	734.8727	803.6779	823.592	880.4946	883.7669	901.1008	951.1216	976.9827	997.1562	1023.8434	1073.114	1103.8966	1145.8737	1155.5937	1164.7415	1209.8834	1226.6702	1255.8457	1289.0114	1292.1563	1344.1359	1378.2548	1421.3559	1434.7125	1477.1513	1510.3723	1674.3469	1740.7965	2987.2296	3004.0576	3073.3866	3134.2013	3156.2892	3473.9479	3474.7609	3515.9979	3542.1914
NC1C2NC2COC1=N	N[C@H]1[C@H]2N[C@H]2CO[C]1[NH]	
InChI=1S/C5H9N3O/c6-3-4-2(8-4)1-9-5(3)7/h2-4,7-8H,1,6H2	InChI=1S/C5H9N3O/c6-3-4-2(8-4)1-9-5(3)7/h2-4,7-8H,1,6H2/t2-,3-,4-/m0/s1
