22
gdb 61302	4.27614	0.6702	0.65182	4.127	87.13	-0.285	0.0352	0.3203	1783.1014	0.193507	-367.225293	-367.215217	-367.214273	-367.261171	36.735	
C	-0.2474573011	 1.5641280524	-0.0293692591	-0.402527
C	 0.0677085307	 0.0657293668	 0.0498626524	 0.035194
C	 0.8120112247	-0.4137457248	-1.221344986	-0.347229
C	 0.035367634	-0.237408497	-2.4464805927	 0.263033
N	-0.59508183	-0.094218757	-3.4046685904	-0.314692
C	 0.9041239732	-0.304597273	 1.2901607135	-0.218281
C	 0.2220763519	-0.021795805	 2.6125908046	 0.019971
C	-0.7955644367	-0.9900975199	 3.1652945876	-0.255631
C	 0.5525164083	-0.8496311306	 3.8284838023	-0.27723
H	 0.6743379155	 2.1586261518	-0.037754025	 0.113927
H	-0.8093746597	 1.801273626	-0.9372902423	 0.141469
H	-0.8469819903	 1.8868499601	 0.8253944013	 0.125047
H	-0.8793975916	-0.4856901447	 0.1030447884	 0.097787
H	 1.7578103412	 0.1321218534	-1.3293451347	 0.147248
H	 1.0703447035	-1.4750885326	-1.1304122142	 0.146158
H	 1.1497584929	-1.3742586484	 1.2453727479	 0.090386
H	 1.8638489566	 0.2310385292	 1.2484312263	 0.097123
H	 0.0252116252	 1.0283114716	 2.8080543122	 0.088373
H	-1.6666562437	-0.5943275662	 3.6752980889	 0.114318
H	-0.9885518317	-1.8983239329	 2.6028338418	 0.110602
H	 1.2619084142	-1.6625352302	 3.7105294921	 0.111021
H	 0.6047739628	-0.3540194689	 4.7914773451	 0.113935
56.2873	60.1831	107.8508	117.2626	195.5467	229.3816	286.9736	333.9764	370.6573	399.6893	423.2544	433.6884	580.2423	774.9146	802.3047	824.4735	845.9058	878.9881	893.544	922.7103	937.174	970.4142	995.9779	1052.5108	1073.4797	1080.6238	1110.677	1132.196	1142.1228	1191.3351	1199.2694	1227.736	1237.1938	1276.9335	1291.0939	1342.1817	1367.9372	1378.1988	1413.9872	1423.5536	1462.7726	1470.877	1482.6161	1496.6091	1505.4729	1509.7039	2358.8642	2998.1431	3024.5002	3030.7513	3035.6078	3043.6799	3075.3177	3102.7365	3120.6995	3128.6568	3133.4268	3148.4375	3206.5449	3221.7855
CC(CC#N)CC1CC1	C[C@@H](CC#N)CC1CC1	
InChI=1S/C8H13N/c1-7(4-5-9)6-8-2-3-8/h7-8H,2-4,6H2,1H3	InChI=1S/C8H13N/c1-7(4-5-9)6-8-2-3-8/h7-8H,2-4,6H2,1H3/t7-/m0/s1
