14
gdb 15853	2.45951	2.13741	1.22507	5.2092	64.12	-0.2587	-0.0508	0.2079	946.0635	0.105753	-378.715561	-378.707826	-378.706882	-378.747942	27.289	
C	-0.0524144508	 1.5176172235	 0.1022873368	-0.336579
N	 0.0123684011	 0.0698650082	 0.1048647126	-0.073496
C	-1.2251727483	-0.6994249079	 0.3596019487	-0.285063
C	-0.40522927	-1.6322900886	 1.2527390565	 0.393888
O	-0.5549888797	-2.688694052	 1.7707188061	-0.252556
C	 0.7590148025	-0.5866902386	 1.1973703463	-0.242089
C	 2.1085538395	-1.0342026957	 0.8839041812	 0.311886
N	 3.1760241673	-1.4019082774	 0.6374702593	-0.315899
H	 0.9505938433	 1.9295240588	-0.0403874248	 0.146083
H	-0.6744498033	 1.8524869645	-0.7325536434	 0.139267
H	-0.472117596	 1.9336366239	 1.0368605235	 0.103197
H	-1.990533073	-0.1629566762	 0.9457974143	 0.127201
H	-1.6956892354	-1.1381003066	-0.5258701015	 0.151034
H	 0.7746311127	-0.0146132859	 2.1423207343	 0.133127
88.4322	121.5114	172.5331	230.5266	278.8431	330.2547	406.9807	445.729	545.1154	595.5461	627.8469	762.9102	851.79	975.5903	983.9654	1045.9762	1063.9334	1113.7334	1142.551	1176.6566	1206.1924	1258.2183	1295.293	1340.541	1454.1752	1474.7035	1495.3366	1496.1384	1942.3115	2358.7058	2939.6606	2950.408	2972.4643	3077.239	3078.701	3119.8192
CN1CC(=O)C1C#N	CN1CC(=O)[C@H]1C#N	
InChI=1S/C5H6N2O/c1-7-3-5(8)4(7)2-6/h4H,3H2,1H3	InChI=1S/C5H6N2O/c1-7-3-5(8)4(7)2-6/h4H,3H2,1H3/t4-/m1/s1
