17
gdb 125656	3.14802	1.56739	1.06968	3.1141	75.44	-0.1961	0.0255	0.2216	1101.1881	0.138509	-418.019902	-418.012018	-418.011074	-418.052547	29.219	
C	 0.014719236	 1.4994275526	-0.0473157481	-0.499548
C	-0.0098603595	 0.0089995422	 0.0501537992	 0.200492
N	-0.0169593113	-0.7587704575	-1.0519974923	-0.287788
N	-0.0266005416	-2.0435518167	-0.6224695888	-0.330561
C	-0.0482202571	-2.1185504567	 0.7297604101	 0.272852
C	-0.0279302054	-0.8314263681	 1.1806149987	 0.255323
O	 0.010644759	-0.7073974816	 2.5425129459	-0.295759
C	-0.2170452969	-2.0521676826	 3.0427267831	-0.087953
C	 0.0192136758	-3.0773534772	 1.8752208741	-0.376822
H	 0.9115849171	 1.917946884	 0.4228061278	 0.129778
H	 0.0029316702	 1.7996455711	-1.0971383008	 0.138837
H	-0.8503733438	 1.9483947478	 0.4529118752	 0.129105
H	-0.0652776443	-2.7786524696	-1.3060856892	 0.269793
H	 0.4497401274	-2.2093629119	 3.8929037332	 0.120718
H	-1.2551969705	-2.1122466104	 3.3897921587	 0.116587
H	-0.7488815973	-3.8569192419	 1.8802743065	 0.121378
H	 0.9946065122	-3.5747572235	 1.9528126567	 0.12357
97.9637	119.781	150.6743	237.9558	267.9821	344.6899	421.336	494.7362	598.1797	623.2364	669.3763	704.6193	762.6243	817.5346	847.0658	927.3264	984.1865	999.0627	1066.0866	1074.8137	1096.1879	1151.0048	1194.0938	1207.1545	1236.412	1281.6803	1337.8019	1386.9641	1410.6826	1414.4526	1482.2187	1489.6229	1494.5555	1507.7097	1522.9318	1574.4829	1633.6521	3017.5944	3033.2387	3033.8889	3070.358	3083.5843	3111.6882	3131.8474	3685.4855
CC1=NNC2=C1OCC2	Cc1n[nH]c2c1OCC2	
InChI=1S/C6H8N2O/c1-4-6-5(8-7-4)2-3-9-6/h2-3H2,1H3,(H,7,8)	InChI=1S/C6H8N2O/c1-4-6-5(8-7-4)2-3-9-6/h2-3H2,1H3,(H,7,8)
