18
gdb 65628	3.35508	1.26547	1.19577	3.6038	76.08	-0.2271	0.0178	0.2449	1097.601	0.149247	-398.085381	-398.077161	-398.076217	-398.118574	31.193	
N	-0.1076055962	 1.3120039169	 0.3929318276	-0.541906
C	 0.0181059854	-0.1006118382	 0.050398202	 0.110977
C	 0.3515196078	-1.008498868	 1.2805249946	-0.201308
N	-0.9585621881	-1.7094469707	 1.2010713289	-0.118435
C	-2.0506341192	-1.0319587789	 1.9798082082	-0.164948
C	-2.5502884354	-0.2837091919	 0.7141437518	-0.250926
C	-1.3381713923	-0.8939648184	-0.0136380031	 0.005543
C	 0.8777370362	-0.3292677024	-1.1190831103	 0.224462
N	 1.5545908803	-0.4734790406	-2.0463664854	-0.342033
H	 0.7997608272	 1.676050189	 0.6731342748	 0.244931
H	-0.3905217529	 1.8482261936	-0.42393123	 0.244738
H	 1.1922971878	-1.687854638	 1.1194118709	 0.127678
H	 0.5127674997	-0.4399556926	 2.2021412497	 0.113636
H	-2.7516642839	-1.7520696566	 2.4104847732	 0.111373
H	-1.6783588554	-0.3843041537	 2.7807924512	 0.108498
H	-3.5055142472	-0.6418674339	 0.3257889189	 0.111299
H	-2.5667675064	 0.8042283801	 0.7790600624	 0.123445
H	-1.5098711473	-1.4287793458	-0.9506706254	 0.092976
44.6193	141.4337	171.9358	241.7062	278.3322	336.2353	417.5243	425.5147	523.1529	567.6684	628.2545	719.5474	765.4581	791.5053	881.2552	887.3668	898.2698	942.743	944.7266	988.8412	1003.4096	1027.9027	1078.6186	1139.7533	1179.5381	1198.7132	1217.5119	1229.3971	1244.0261	1270.9575	1294.1383	1298.4693	1320.6048	1341.8417	1469.2319	1481.0284	1511.1191	1654.2851	2337.3229	3039.3276	3044.8519	3075.0357	3084.5269	3091.0851	3104.0044	3143.2905	3478.7289	3557.1683
NC1(CN2CCC12)C#N	N[C@]1(CN2CC[C@@H]12)C#N	
InChI=1S/C6H9N3/c7-3-6(8)4-9-2-1-5(6)9/h5H,1-2,4,8H2	InChI=1S/C6H9N3/c7-3-6(8)4-9-2-1-5(6)9/h5H,1-2,4,8H2/t5-,6-/m0/s1
