18
gdb 23041	3.38368	1.05183	0.88454	1.1578	70.96	-0.2548	0.0018	0.2566	1309.9817	0.146519	-476.176692	-476.167398	-476.166454	-476.21266	32.551	
C	-0.247311751	 1.4578830688	-0.0558343437	-0.485057
C	-0.0870290702	-0.034080245	 0.0231340612	 0.340114
N	-0.0440293469	-0.7173924961	 1.1010693832	-0.16681
O	-0.1519027368	 0.0824479	 2.2453985222	-0.394786
C	 0.100284479	-0.7981337454	-1.2725725994	 0.020676
C	-0.0149277998	-2.3392932337	-1.1794147941	-0.130683
O	-0.7824277505	-2.685355681	-2.3271260469	-0.234761
C	-1.655835832	-1.6049874907	-2.496279265	 0.023249
O	-0.9072593629	-0.4340526556	-2.2285047971	-0.263631
H	 0.726544857	 1.9522871576	 0.0471734796	 0.140676
H	-0.677041956	 1.7381352628	-1.0184950715	 0.147843
H	-0.8812966622	 1.8180243122	 0.7559867825	 0.150937
H	-0.144537397	-0.5719639535	 2.9520813791	 0.307364
H	 1.0655936338	-0.5004384361	-1.7058540602	 0.097664
H	 0.9478451245	-2.8482522306	-1.2429519986	 0.12058
H	-0.5224429121	-2.6341426112	-0.2546582295	 0.121011
H	-2.0055246078	-1.5790279608	-3.5320630574	 0.120545
H	-2.5141023891	-1.6771409716	-1.8030366445	 0.085066
33.3321	50.0872	59.729	184.8523	215.5841	275.9414	317.0366	368.6634	405.0263	444.7509	526.565	659.1289	699.5159	743.486	818.1586	930.3606	964.7305	987.1563	1002.5824	1013.1722	1050.5264	1072.0541	1100.1791	1119.1655	1183.3589	1213.5638	1240.159	1265.6931	1327.1483	1344.2305	1382.2303	1394.1296	1402.0833	1428.8889	1479.26	1488.4964	1514.6641	1542.1182	1733.3694	2933.5898	3001.6149	3040.0262	3052.2527	3091.163	3114.4535	3125.3168	3157.2846	3817.5916
CC(=NO)C1COCO1	CC(=NO)[C@H]1COCO1	
InChI=1S/C5H9NO3/c1-4(6-7)5-2-8-3-9-5/h5,7H,2-3H2,1H3	InChI=1S/C5H9NO3/c1-4(6-7)5-2-8-3-9-5/h5,7H,2-3H2,1H3/t5-/m1/s1
