15
gdb 113137	2.42402	1.18929	0.89362	2.3517	73.72	-0.2686	-0.0164	0.2522	1268.2329	0.110851	-416.742954	-416.733822	-416.732877	-416.777225	32.843	
O	 0.0236019333	 1.3643804245	-0.3897208762	-0.41158
C	 0.0284413032	 0.1233459274	 0.2901817487	-0.083758
C	-1.3502398646	-0.4984133585	 0.2595950398	-0.060168
N	-1.7431411145	-1.0805349123	-1.0191877684	-0.350857
C	-1.548306931	-1.995296651	 0.1418251085	-0.028584
C	-0.4436945719	-2.9184666638	 0.0775440436	 0.302446
C	 0.4663426951	-3.7012484691	 0.0515067436	-0.401282
C	-2.7445169866	-2.5205265026	 0.7702072198	 0.233217
N	-3.7130862403	-2.9239215405	 1.2561644809	-0.331058
H	-0.1741921361	 1.1759654062	-1.3143109045	 0.295304
H	 0.7580632997	-0.5778009342	-0.1342636929	 0.113845
H	 0.3187238964	 0.3341553457	 1.3239280317	 0.124995
H	-2.1121764207	 0.0263752894	 0.8318872154	 0.124411
H	-2.7389688925	-0.9638879363	-1.1938379808	 0.261044
H	 1.2714032204	-4.3939759448	 0.0199711608	 0.212024
68.7147	119.2272	130.1101	149.4431	201.3363	271.4967	335.4915	410.8016	440.3878	479.2304	528.6093	590.5138	619.3049	634.1308	677.2767	678.2675	819.1092	874.3701	985.2734	1004.3422	1045.4713	1078.6685	1096.5822	1175.91	1243.3315	1265.4185	1325.743	1372.2203	1414.1648	1451.0794	1496.754	2249.0453	2354.2212	3029.6265	3093.4348	3143.7199	3499.1825	3504.7336	3801.3578
OCC1NC1(C#C)C#N	OC[C@H]1N[C@]1(C#C)C#N	
InChI=1S/C6H6N2O/c1-2-6(4-7)5(3-9)8-6/h1,5,8-9H,3H2	InChI=1S/C6H6N2O/c1-2-6(4-7)5(3-9)8-6/h1,5,8-9H,3H2/t5-,6-/m1/s1
