16
gdb 78408	2.6993	1.83493	1.49146	3.1611	67.62	-0.2508	-0.0146	0.2363	915.9929	0.124528	-437.834868	-437.827491	-437.826547	-437.866852	28.129	
C	-0.3414935261	 1.5112003596	 0.1758974308	-0.444384
C	 0.0123726567	 0.0530348302	-0.0507025594	 0.015823
C	 0.5834071281	-0.6390536042	-1.2271099485	-0.084286
C	 1.7908790416	 0.0246079219	-1.9029761195	 0.10143
O	 1.7972285095	 1.4840248659	-2.0069024011	-0.268438
C	 2.4463679024	 1.6058145909	-0.7827225184	 0.447566
O	 2.8140900339	 2.6052916984	-0.260340165	-0.319057
C	 2.4719534646	 0.0867995091	-0.5476658588	-0.174476
N	 1.3116953606	-0.6349468848	 0.1382905877	-0.171319
H	 0.1249383948	 2.2120494946	-0.5087400116	 0.170327
H	-1.4253088381	 1.6127892207	 0.0602405525	 0.124538
H	-0.0927921581	 1.7980091856	 1.2025272696	 0.140884
H	-0.7232213456	-0.5926596941	 0.4306124294	 0.116478
H	 0.1526310707	-1.5569030643	-1.6157517371	 0.107012
H	 2.2003798243	-0.4477802999	-2.7924614429	 0.114608
H	 3.4239093109	-0.3694515594	-0.2871029278	 0.123293
89.5708	146.8671	173.0891	277.	334.7704	428.3527	488.7014	610.3089	658.8933	681.1759	691.7432	784.6674	819.4782	864.1	881.9486	931.9466	964.3013	971.4326	999.8617	1031.5711	1063.7254	1095.2023	1116.6023	1157.098	1206.8843	1240.1485	1266.0912	1281.153	1316.1706	1366.7075	1416.7203	1445.1182	1489.7605	1515.6676	1935.2405	3051.0128	3099.0268	3106.1914	3145.7845	3152.2182	3162.3259	3202.7153
CC1C2C3OC(=O)C3N12	C[C@H]1[C@H]2[C@H]3OC(=O)[C@H]3N12	
InChI=1S/C6H7NO2/c1-2-3-5-4(7(2)3)6(8)9-5/h2-5H,1H3	InChI=1S/C6H7NO2/c1-2-3-5-4(7(2)3)6(8)9-5/h2-5H,1H3/t2-,3-,4-,5+,7?/m0/s1
