17
gdb 131866	3.73483	1.05757	0.8929	2.7934	70.92	-0.2184	0.0331	0.2515	1282.2072	0.137474	-455.144886	-455.136481	-455.135537	-455.178803	30.78	
O	-0.761824815	 1.1292597459	-1.391139778	-0.412412
C	-0.2822691272	 0.234919857	-0.4068746049	-0.063363
C	-1.365488506	-0.3452606501	 0.4946607859	-0.09362
O	-2.1588374117	-1.3371847595	-0.1736519106	-0.276421
C	-3.2565798823	-0.9266725106	-0.8336757981	 0.446191
C	-3.7833167123	 0.2987796219	-1.2063572818	-0.373496
C	-4.9790385915	-0.0463178554	-1.8827188736	 0.000658
N	-5.1823128682	-1.3544572342	-1.9359694795	-0.229895
N	-4.112724393	-1.875606995	-1.2803894019	-0.274435
H	-1.3360082372	 0.6420258666	-1.992554992	 0.29351
H	 0.2877775037	-0.5951180728	-0.851673224	 0.103848
H	 0.4080470298	 0.8111411619	 0.220155086	 0.116266
H	-0.8971218121	-0.8735709227	 1.3310822559	 0.11972
H	-2.012499955	 0.4454619511	 0.8906372755	 0.128043
H	-3.3670466977	 1.2743011602	-1.0267578489	 0.128303
H	-5.6956033672	 0.6233534793	-2.3362400273	 0.112956
H	-4.0182812472	-2.8707655635	-1.1703076025	 0.274148
47.6099	90.3898	135.8844	213.4287	280.8448	346.4584	397.8652	431.8497	477.6878	531.2992	664.9582	680.0201	694.4948	795.0477	858.9309	891.7032	913.3356	929.1921	1020.5303	1058.1907	1074.0336	1108.1106	1111.0081	1128.8194	1227.9891	1252.7553	1299.6603	1307.7864	1376.5613	1393.2917	1401.905	1425.2358	1441.9823	1483.0838	1488.5222	1532.0702	1613.2378	2993.9718	3040.9044	3071.0667	3100.3342	3241.2352	3289.019	3679.394	3802.3912
OCCOC1=CC=NN1	OCCOc1ccn[nH]1	
InChI=1S/C5H8N2O2/c8-3-4-9-5-1-2-6-7-5/h1-2,8H,3-4H2,(H,6,7)	InChI=1S/C5H8N2O2/c8-3-4-9-5-1-2-6-7-5/h1-2,8H,3-4H2,(H,6,7)
