18
gdb 36254	5.266	1.01469	0.98095	1.4661	82.32	-0.2195	0.0464	0.2659	1241.6936	0.146879	-364.668382	-364.660739	-364.659795	-364.700809	30.217	
C	 0.0299807233	-1.2815672097	 0.017666896	-0.446263
C	-0.0039740113	-0.0844424886	-0.079835299	 0.320072
C	-0.0447702467	 1.3718946369	-0.1718347391	-0.318507
N	 1.3013032309	 1.9511071073	-0.0594413995	-0.121049
C	 1.8747466261	 1.9936349737	 1.3221547656	 0.001326
C	 2.7341156924	 3.2473486717	 0.9753055095	-0.052285
C	 2.2866244482	 4.0012276768	 2.2419918772	-0.276414
C	 1.0237438399	 3.2217506886	 1.8249364335	-0.0719
C	 1.3422748486	 3.4057487484	 0.2922565312	-0.004238
H	 0.0586284378	-2.3402962523	 0.092131862	 0.1956
H	-0.4517787375	 1.6664411739	-1.1478270707	 0.130615
H	-0.7475260616	 1.7555864581	 0.5893962586	 0.110046
H	 2.170919951	 1.0993586873	 1.8711252439	 0.090928
H	 3.6936703132	 3.234424125	 0.4601650126	 0.084367
H	 2.7580092318	 3.7016635616	 3.1826442264	 0.098724
H	 2.2351133421	 5.0918119679	 2.1717494653	 0.097407
H	 0.0487068061	 3.2090175518	 2.3113981293	 0.080634
H	 1.0067543059	 4.1949801415	-0.3833358428	 0.080938
58.8584	122.1202	238.6014	278.2289	344.658	410.0758	466.2831	589.4583	609.9806	654.3191	730.5949	756.2544	816.8694	828.9008	849.1089	881.5778	905.1428	935.304	963.2089	980.3763	1021.5808	1027.3304	1043.5221	1076.3182	1080.1015	1132.4873	1152.719	1154.3989	1170.6183	1177.9574	1191.0981	1248.5173	1263.4304	1288.971	1321.014	1372.8639	1481.297	1514.7657	2241.2961	2942.2562	3033.7105	3046.3871	3095.8009	3101.8619	3111.4622	3120.1258	3133.4052	3507.1227
C#CCN1C2C3CC2C13	C#CCN1[C@H]2[C@@H]3C[C@H]2[C@H]13	
InChI=1S/C8H9N/c1-2-3-9-7-5-4-6(7)8(5)9/h1,5-8H,3-4H2	InChI=1S/C8H9N/c1-2-3-9-7-5-4-6(7)8(5)9/h1,5-8H,3-4H2/t5-,6+,7-,8+
