19
gdb 66948	2.51644	1.90641	1.39842	1.3857	79.	-0.2272	0.0692	0.2964	984.835	0.159556	-385.814935	-385.807454	-385.80651	-385.846306	31.062	
O	 0.0183877144	 1.3534687368	 0.0989309633	-0.463357
C	 0.0651506455	-0.0193798706	-0.0021600788	 0.319357
C	-0.9527821498	-0.8658203951	 0.7688996298	-0.10762
C	-1.069728087	-2.2077447879	 0.0480221877	-0.23057
C	 0.4573980406	-2.0637471471	-0.2240178282	-0.172274
C	 0.5382387512	-1.0552484803	 0.9981904823	-0.167962
C	 0.5363243069	-0.8522121431	-1.1711111071	 0.365997
C	 0.2649223112	-0.7387107613	-2.6352338492	-0.341577
C	 1.6648390497	-0.4977764231	-2.0858625741	-0.366658
H	 0.9232071454	 1.6852226857	 0.0779328041	 0.287497
H	-1.6607121551	-0.3792125109	 1.4279012361	 0.090344
H	-1.2845732954	-3.018438572	 0.7501558735	 0.095714
H	-1.7264716691	-2.2862745615	-0.8258552832	 0.09167
H	 1.0970609565	-2.9299846842	-0.3807163191	 0.07046
H	 1.1526900532	-0.9983829045	 1.8845556157	 0.091139
H	 0.0949226807	-1.647596919	-3.2043866026	 0.109521
H	-0.2932353103	 0.1222334864	-2.9892756389	 0.11671
H	 2.0342645207	 0.5242240516	-2.0847574433	 0.100701
H	 2.4280777005	-1.2426944699	-2.2881690979	 0.110908
167.9088	196.5001	218.6575	289.9945	350.7177	379.0864	474.5513	507.2315	611.883	635.4715	739.5598	766.8888	792.5482	824.7022	831.6048	897.0541	905.4474	932.8235	941.7238	957.6895	969.117	995.5524	1008.197	1047.2043	1053.4506	1073.4808	1093.6583	1128.5153	1139.5113	1176.9845	1183.4472	1204.8487	1235.5906	1278.0911	1281.9631	1311.3598	1408.4136	1450.1664	1458.3954	1494.5979	1510.2509	3033.8935	3093.6935	3112.9438	3122.4691	3134.5896	3192.1057	3197.4121	3209.8145	3225.3863	3789.8321
OC12C3CC(C13)C21CC1	O[C@]12[C@H]3C[C@H]([C@@H]13)C12CC1	
InChI=1S/C8H10O/c9-8-5-3-4(6(5)8)7(8)1-2-7/h4-6,9H,1-3H2	InChI=1S/C8H10O/c9-8-5-3-4(6(5)8)7(8)1-2-7/h4-6,9H,1-3H2/t4-,5+,6-,8-/m1/s1
