22
gdb 103193	3.18351	1.34578	1.24926	1.8369	84.35	-0.2339	0.0795	0.3133	1135.6468	0.194535	-367.147902	-367.139432	-367.138487	-367.180482	33.923	
C	-0.0359261852	 1.5637954706	 0.0526532799	-0.393984
C	 0.0836199159	 0.03701465	-0.0317115717	-0.222872
C	 0.7387309872	-0.4975377721	-1.3192968406	 0.338401
C	 2.1418524434	 0.0800342037	-1.5185909026	-0.477675
C	 0.5734234637	-2.0231389645	-1.3951199433	-0.078621
C	-0.7351389168	-1.9209404112	-2.0719353233	-0.054629
C	-0.2772672573	-0.4773409929	-2.5182912754	-0.122712
C	 0.457105112	-1.215702009	-3.6446965434	-0.166311
N	 0.4232443078	-2.4769122963	-2.8283320339	-0.166354
H	 0.9437086195	 2.0503479421	 0.0741019697	 0.11941
H	-0.5918141316	 1.9733222081	-0.7976207911	 0.115127
H	-0.566497768	 1.8562705175	 0.9641006841	 0.113974
H	 0.6615925214	-0.3229101138	 0.8304515335	 0.091292
H	-0.9138440508	-0.4083414954	 0.0657090595	 0.098153
H	 2.7210274249	-0.0010188928	-0.5912484221	 0.113543
H	 2.7001502964	-0.4478591317	-2.2943653022	 0.12316
H	 2.1085975682	 1.1399685658	-1.7923437137	 0.11755
H	 0.9299732838	-2.7743976192	-0.7005700537	 0.088778
H	-1.6853655995	-2.4234718403	-1.9506986864	 0.094506
H	-0.901446164	 0.3972927837	-2.6966935333	 0.067606
H	-0.1700055214	-1.3745473763	-4.5261485379	 0.105917
H	 1.4465400804	-0.870233666	-3.9612754525	 0.095742
104.9113	166.7896	179.2759	225.228	284.147	289.9125	370.8279	400.8672	479.7589	542.7734	623.2655	747.9429	760.2279	784.2351	798.8588	828.5828	875.3502	910.8003	928.1116	946.5923	966.5082	1005.9469	1009.9967	1024.9955	1041.2241	1058.5565	1066.0964	1136.7588	1151.2705	1174.2869	1183.8923	1202.4433	1212.5814	1238.6939	1270.7274	1297.7748	1315.9128	1352.68	1370.5248	1410.0695	1413.7076	1481.3608	1489.8453	1499.2363	1503.7822	1511.8455	1530.2126	3012.2165	3032.6973	3037.6601	3047.2954	3051.8544	3090.8035	3098.7456	3101.621	3109.2888	3122.1328	3126.1665	3185.0834	3206.1839
CCC1(C)C2C3C1CN23	CC[C@@]1(C)[C@H]2[C@H]3[C@@H]1CN23	
InChI=1S/C8H13N/c1-3-8(2)5-4-9-6(5)7(8)9/h5-7H,3-4H2,1-2H3	InChI=1S/C8H13N/c1-3-8(2)5-4-9-6(5)7(8)9/h5-7H,3-4H2,1-2H3/t5-,6+,7+,8+,9?/m0/s1
