18
gdb 126932	3.34101	1.01116	0.78651	1.8389	75.8	-0.1794	0.0386	0.218	1434.2967	0.148439	-435.278553	-435.269212	-435.268267	-435.313134	33.858	
C	-0.0121567769	 1.560937589	-0.012801786	-0.399717
C	-0.0553422958	 0.0419021127	-0.1376264738	-0.107418
N	-1.3570805216	-0.4745329755	 0.2568844708	-0.415893
C	-1.5687071961	-1.8491789943	 0.1319730388	 0.18607
C	-0.6660119691	-2.893879152	 0.0527026303	-0.106719
N	-1.4014907887	-4.0415989439	 0.0015967961	-0.215527
N	-2.7342244088	-3.813618752	 0.034344775	-0.326055
C	-2.828937368	-2.4981833575	 0.1124400954	 0.337615
O	-4.0154362064	-1.8446741499	 0.1517572162	-0.442462
H	 0.9777233015	 1.9421352787	-0.2787344791	 0.118848
H	-0.7400200609	 2.0322163096	-0.6835067665	 0.116458
H	-0.2429871417	 1.8720673908	 1.0100446453	 0.130782
H	 0.2180109315	-0.2626651486	-1.1641619246	 0.086493
H	 0.6979181106	-0.4012749097	 0.5271546022	 0.106864
H	-2.1236049411	 0.0543074851	-0.1401930546	 0.235
H	 0.4109741644	-2.907139331	 0.0316592013	 0.123245
H	-1.0691233101	-4.9867792357	-0.0438260948	 0.270439
H	-4.7093451131	-2.5132231259	 0.1010783079	 0.301977
69.0849	80.4879	123.7891	188.4271	254.1475	276.469	288.764	342.3327	343.0111	418.7302	527.8605	605.2404	636.7615	685.1904	710.3461	744.9621	818.8648	838.36	928.6422	943.5134	1068.9222	1084.4346	1128.6651	1153.8503	1175.6734	1246.3798	1259.8777	1293.2738	1342.5487	1384.7373	1414.0446	1457.6577	1479.58	1491.5057	1499.9464	1509.4985	1527.4092	1584.9155	1665.5293	2937.0449	3024.6748	3036.1414	3102.4213	3121.9332	3271.534	3557.7211	3708.7345	3803.4954
CCNC1=CNN=C1O	CCNc1c[nH]nc1O	
InChI=1S/C5H9N3O/c1-2-6-4-3-7-8-5(4)9/h3,6H,2H2,1H3,(H2,7,8,9)	InChI=1S/C5H9N3O/c1-2-6-4-3-7-8-5(4)9/h3,6H,2H2,1H3,(H2,7,8,9)
