16
gdb 76130	3.15531	1.32095	1.12215	3.2843	68.9	-0.2752	0.0231	0.2983	1079.0235	0.123321	-437.860555	-437.852062	-437.851118	-437.893534	31.872	
O	-0.0922770781	 1.4465065518	-0.1365952971	-0.418679
C	-0.0130490429	 0.0567670749	-0.005887319	 0.029729
C	 0.241536679	-0.5747309507	 1.4384610693	-0.230645
C	 0.4500417488	 0.3708392097	 2.5236009873	 0.294267
N	 0.6281933907	 1.1461330329	 3.362946488	-0.336316
C	-1.1240510538	-1.2693911002	 1.3307352882	-0.118278
C	-2.2116816384	-0.2406727874	 1.131250586	-0.350449
C	-1.3641194965	-0.6457560338	-0.0403553518	 0.40497
O	-1.86689628	-1.2651240739	-1.1653110814	-0.466176
H	 0.785122467	 1.8283497344	-0.0246246602	 0.29692
H	 0.6815693503	-0.3934928474	-0.7258898499	 0.092572
H	 1.0749111998	-1.2809815445	 1.4128044872	 0.124503
H	-1.3262673532	-2.2756002587	 1.6720433954	 0.112947
H	-3.2117462472	-0.6609035548	 1.1064735946	 0.123943
H	-2.1355523337	 0.7475143961	 1.5742583424	 0.145094
H	-2.4564837218	-0.6491243882	-1.6142275992	 0.295597
88.8614	123.8018	191.4227	252.0785	281.0628	293.2564	343.9986	379.2593	427.0121	501.2194	564.5281	610.5205	708.0899	736.0007	795.8336	855.9354	920.6608	942.3118	972.9405	1015.2151	1066.6504	1070.5687	1083.5161	1110.9725	1160.1887	1204.269	1232.7157	1261.9566	1316.0552	1323.666	1327.1364	1395.4432	1441.9962	1500.6798	2351.5237	3030.5862	3084.5294	3127.4935	3208.2622	3219.9101	3799.1947	3810.4484
OC1C(C#N)C2CC12O	O[C@H]1[C@@H](C#N)[C@H]2C[C@@]12O	
InChI=1S/C6H7NO2/c7-2-3-4-1-6(4,9)5(3)8/h3-5,8-9H,1H2	InChI=1S/C6H7NO2/c7-2-3-4-1-6(4,9)5(3)8/h3-5,8-9H,1H2/t3-,4+,5-,6-/m0/s1
