17
gdb 70394	2.46445	1.55079	1.33936	5.0346	72.45	-0.2579	0.0167	0.2746	1026.8791	0.135354	-417.977897	-417.969454	-417.96851	-418.010554	32.338	
C	-0.0892403622	 1.5385851567	 0.0911940957	-0.524458
C	 0.133043544	 0.0622594038	 0.0159380537	 0.284984
N	-0.8032676751	-0.9309349503	 0.5941439518	-0.39875
C	 0.636823989	-0.9550245261	 0.9769137349	-0.089078
C	 1.3381581998	-1.7589577101	-0.1123757269	-0.284186
C	 0.7357468362	-0.7458877472	-1.1794252353	 0.239884
O	-0.195230914	-1.2475167342	-2.092110033	-0.476386
C	 1.7695513193	-0.0095481373	-1.9065013993	 0.271361
N	 2.6049843081	 0.5952680548	-2.4271942876	-0.341755
H	 0.8137387434	 2.0828145131	-0.2007283341	 0.155343
H	-0.8989719984	 1.846260962	-0.5796763087	 0.142677
H	-0.3563278509	 1.8410607721	 1.109213418	 0.12338
H	-1.3259395117	-0.4640633386	 1.3335955221	 0.237853
H	 0.93327623	-0.8334634593	 2.0108665549	 0.107445
H	 2.426885389	-1.7117913411	-0.0618719294	 0.133362
H	 1.0071486314	-2.7910172271	-0.2467203469	 0.120903
H	-0.934222678	-1.5433276814	-1.5375397799	 0.297422
123.0751	132.0261	195.6226	215.2019	253.384	311.576	382.455	456.3054	484.5407	515.0044	544.611	562.6977	663.2093	683.8647	751.7369	865.1967	904.3965	915.8022	947.4803	969.308	1014.1781	1040.2985	1087.9963	1110.0987	1118.3309	1151.4359	1208.4935	1232.6599	1293.7937	1330.7323	1406.1111	1424.8803	1440.4715	1472.3326	1481.2269	1498.2842	2362.6632	3032.6607	3075.8238	3098.4773	3112.1075	3142.7017	3201.8479	3489.5288	3708.9612
CC12NC1CC2(O)C#N	C[C@]12N[C@H]1C[C@]2(O)C#N	
InChI=1S/C6H8N2O/c1-5-4(8-5)2-6(5,9)3-7/h4,8-9H,2H2,1H3	InChI=1S/C6H8N2O/c1-5-4(8-5)2-6(5,9)3-7/h4,8-9H,2H2,1H3/t4-,5-,6-/m0/s1
