23
gdb 57385	2.60008	1.3833	1.25669	1.4713	84.98	-0.23	0.0776	0.3076	1169.7157	0.203789	-388.259783	-388.25014	-388.249196	-388.293573	37.691	
C	-0.0926367227	 1.5499618158	-0.0546467611	-0.409403
C	 0.0355742941	 0.0151759303	 0.0140051926	 0.139476
C	 0.7733293863	-0.384319723	 1.3024637522	-0.421472
C	-1.3674840197	-0.6266809873	-0.0096416381	-0.408598
C	 0.7888162167	-0.4690219752	-1.2049908502	 0.525848
C	 1.6201841159	-1.7044745056	-1.375359523	-0.352691
C	 2.2104257866	-0.3469953643	-1.72088203	-0.206113
C	 1.570157354	 0.1451478806	-3.0089049603	-0.089461
O	 0.2371692061	-0.1018944147	-2.4874374924	-0.33839
H	 0.8913821246	 2.027692945	 0.0023403336	 0.105381
H	-0.5652393962	 1.8550961253	-0.991258893	 0.129887
H	-0.6977053799	 1.9240967292	 0.7777414369	 0.104271
H	 0.2504121043	 0.0255713913	 2.1724715841	 0.114042
H	 0.8186964891	-1.4705259284	 1.4252211606	 0.115511
H	 1.7966401462	 0.0066950009	 1.3168875625	 0.111259
H	-1.8956677651	-0.3719964927	-0.9326635334	 0.133464
H	-1.3006063835	-1.7177823669	 0.0522369802	 0.111631
H	-1.9660221793	-0.2738370882	 0.8369539361	 0.104724
H	 2.0191477609	-2.1476833787	-0.4694495474	 0.114679
H	 1.3705638234	-2.4105196725	-2.1635065225	 0.110425
H	 3.1059459618	 0.0439826974	-1.2570354111	 0.097811
H	 1.7174950405	 1.2150385843	-3.1968182088	 0.106266
H	 1.7673965858	-0.4217800327	-3.9271131676	 0.101457
63.9368	154.8438	193.6019	221.2907	262.7489	277.3401	296.3309	323.2688	338.3983	370.7535	431.3872	464.0762	502.4493	600.4013	752.2073	805.3209	854.8722	881.1189	931.9516	942.5354	956.8406	960.5936	975.0159	983.884	998.9356	1017.3769	1040.0682	1054.2458	1074.5141	1127.2081	1141.8991	1169.248	1217.3755	1235.8626	1252.3604	1293.4472	1342.332	1390.3126	1392.5215	1395.9591	1429.1419	1476.0344	1481.4539	1488.7539	1492.8431	1500.0538	1504.9573	1516.5562	1526.5407	3017.4359	3029.034	3030.4625	3036.9978	3064.9804	3094.4845	3097.926	3100.9528	3106.9156	3114.3232	3115.6658	3124.7396	3199.4055	3214.5431
CC(C)(C)C12CC1CO2	CC(C)(C)[C@]12C[C@H]1CO2	
InChI=1S/C8H14O/c1-7(2,3)8-4-6(8)5-9-8/h6H,4-5H2,1-3H3	InChI=1S/C8H14O/c1-7(2,3)8-4-6(8)5-9-8/h6H,4-5H2,1-3H3/t6-,8-/m0/s1
