14
gdb 43595	3.3404	1.384	1.11183	5.0655	67.71	-0.2586	-0.0063	0.2523	1050.1695	0.100948	-436.652042	-436.644652	-436.643708	-436.684136	27.97	
O	-0.0062342409	 0.0364599338	 0.2560257769	-0.337135
C	 0.0262649936	 1.2040756149	 0.0071880217	 0.491219
O	-1.1010563489	 1.9310129479	-0.2619859144	-0.236591
C	-0.7903817701	 3.2512962167	-0.7732719348	-0.060846
C	-1.6138572595	 4.2613930501	-0.126487379	 0.339633
C	-2.2879401875	 5.1224677908	 0.3681735012	-0.435161
C	 0.7135326979	 3.4232014465	-0.5600290812	-0.069864
N	 1.079063959	 3.2592576821	 0.8459363897	-0.316246
C	 1.2178071821	 2.1141834482	-0.096480828	-0.205269
H	-1.0043085893	 3.2349250483	-1.8497213821	 0.126546
H	-2.8844310527	 5.8760055289	 0.8209113207	 0.208528
H	 1.2693946269	 4.0839090159	-1.2141024398	 0.119109
H	 2.0025770343	 3.6572469926	 1.0043614292	 0.248354
H	 2.188360435	 1.6970616433	-0.3296873801	 0.127723
95.3203	129.7978	201.607	273.7969	357.6156	434.5375	506.7683	545.7529	622.1148	635.8135	684.0486	745.5207	795.4312	826.4858	853.4575	879.8747	899.6033	962.7331	1010.0098	1043.3097	1054.255	1117.3876	1153.4442	1189.4393	1257.1703	1337.8837	1347.0836	1363.6408	1411.7235	1893.5545	2249.5168	3027.6508	3191.5421	3213.3214	3497.9575	3501.6789
O=C1OC(C#C)C2NC12	O=C1O[C@@H](C#C)[C@H]2N[C@@H]12	
InChI=1S/C6H5NO2/c1-2-3-4-5(7-4)6(8)9-3/h1,3-5,7H	InChI=1S/C6H5NO2/c1-2-3-4-5(7-4)6(8)9-3/h1,3-5,7H/t3-,4+,5+/m0/s1
