20
gdb 124445	3.11867	1.24621	1.10849	3.0132	79.7	-0.2537	0.0167	0.2704	1190.5001	0.17194	-399.371828	-399.362791	-399.361847	-399.405661	34.149	
C	-0.2490193521	 1.5251977101	-0.1360331847	-0.399375
C	 0.0107282868	 0.0092445321	 0.002286632	 0.128577
C	 0.8950151655	-0.2602115343	 1.232494585	-0.434934
C	-1.3355339276	-0.732538575	 0.150339671	-0.399368
C	 0.6822619883	-0.4740944883	-1.2610012367	 0.402124
N	 0.1808746718	-0.3900353349	-2.4847125145	-0.323063
C	 1.1471173586	-0.951856194	-3.2597427992	 0.019934
N	 2.2154579232	-1.3807102381	-2.60979532	-0.223714
N	 1.8968233194	-1.0646412025	-1.3294763284	-0.263562
H	 0.6903708358	 2.0812044629	-0.2189638114	 0.114897
H	-0.8436603582	 1.730032495	-1.0290297173	 0.143797
H	-0.7897454239	 1.8973242699	 0.7404011912	 0.110004
H	 0.3930217457	 0.0956740575	 2.136745206	 0.125752
H	 1.0885692381	-1.3304409102	 1.3665546371	 0.115474
H	 1.8550918801	 0.2637408436	 1.1648185432	 0.1154
H	-1.9546018559	-0.5792263914	-0.7363599574	 0.143851
H	-1.1819277074	-1.8092740289	 0.2749006841	 0.114907
H	-1.8770049343	-0.3613005597	 1.0266878856	 0.109967
H	 1.0615379442	-1.0477380128	-4.3319903083	 0.12354
H	 2.5425945618	-1.2797129812	-0.5888686673	 0.275793
39.428	152.9858	205.399	228.5055	277.1592	294.9133	325.3784	333.4321	334.836	432.22	475.7164	581.4235	593.2849	698.9951	780.1911	832.939	912.8425	934.2623	941.7142	964.5343	983.6366	1030.8955	1042.4286	1050.9447	1130.4757	1194.731	1224.8297	1229.0194	1254.0268	1297.4949	1313.947	1394.1936	1394.807	1409.0508	1430.1827	1476.2412	1487.3626	1488.9308	1491.8741	1500.3131	1506.6154	1525.1956	1577.934	3025.4997	3033.4446	3038.4752	3091.3688	3101.4046	3102.784	3109.2763	3128.2257	3132.3355	3258.0514	3676.8958
CC(C)(C)C1=NC=NN1	CC(C)(C)c1ncn[nH]1	
InChI=1S/C6H11N3/c1-6(2,3)5-7-4-8-9-5/h4H,1-3H3,(H,7,8,9)	InChI=1S/C6H11N3/c1-6(2,3)5-7-4-8-9-5/h4H,1-3H3,(H,7,8,9)
