21
gdb 106841	2.47475	1.27146	1.00416	0.9259	91.33	-0.225	0.04	0.265	1289.6839	0.181175	-349.906963	-349.897566	-349.896622	-349.941045	36.059	
C	-0.2854441139	 1.4663125638	-0.0105676879	-0.374419
C	 0.1463760022	-0.0047499305	 0.074241491	-0.2865
C	 0.8333690963	-0.4853452722	-1.1735610836	 0.316796
C	 0.089265866	-0.9749245978	-2.3794602578	-0.366023
C	 1.0327468844	-1.9402661661	-1.6858876927	 0.148104
C	 2.4790018479	-1.6048878169	-2.0931946237	-0.287973
C	 2.2765708588	-0.1450719115	-1.5770313276	-0.2829
C	 0.5940495216	-3.1668689056	-1.1164555513	 0.179614
C	 0.2426931978	-4.2070773795	-0.6204121878	-0.424299
H	 0.5746043539	 2.1231355175	-0.1792759173	 0.118131
H	-0.9888540698	 1.6223927499	-0.8349411626	 0.118779
H	-0.7724041644	 1.7869162298	 0.9154786905	 0.112968
H	 0.8173787091	-0.1403355218	 0.9326472334	 0.098593
H	-0.7280604262	-0.6382026134	 0.2666668521	 0.106393
H	-0.964296789	-1.1840788342	-2.2256460957	 0.121414
H	 0.3365626637	-0.616411412	-3.3770953999	 0.104874
H	 3.2162083141	-2.1566887693	-1.5079556593	 0.114954
H	 2.7069337841	-1.7294720839	-3.1565099298	 0.098437
H	 2.3904552567	 0.6584443404	-2.3119244027	 0.097384
H	 2.9120334714	 0.0786232921	-0.7164628168	 0.103781
H	-0.0719164949	-5.125284759	-0.1908259505	 0.181891
73.6507	95.4347	152.3995	189.022	214.566	268.9222	336.0419	367.174	416.2039	520.2873	532.8218	554.4232	608.3077	644.0566	701.2354	728.3014	782.8373	794.9503	837.2363	926.1073	941.5723	973.4097	985.0911	1021.0559	1036.3442	1080.5339	1094.3934	1118.7441	1153.2258	1213.0729	1234.139	1243.3362	1246.2441	1310.6344	1328.4329	1356.8474	1401.3661	1411.6934	1480.2183	1482.5658	1485.9339	1498.7546	1508.1833	1513.1047	2225.1622	3018.2794	3033.7334	3043.6887	3053.3378	3055.194	3095.4683	3099.8296	3102.5504	3106.8519	3122.9586	3202.3299	3504.2727
CCC12CC1(CC2)C#C	CC[C@]12C[C@]1(CC2)C#C	
InChI=1S/C9H12/c1-3-8-5-6-9(8,4-2)7-8/h1H,4-7H2,2H3	InChI=1S/C9H12/c1-3-8-5-6-9(8,4-2)7-8/h1H,4-7H2,2H3/t8-,9+/m1/s1
