22
gdb 113887	3.99338	0.71851	0.65445	3.8287	83.48	-0.2346	0.0389	0.2736	1764.7736	0.192996	-404.379008	-404.368371	-404.367427	-404.416036	38.158	
C	 0.0463712794	 1.4882913998	-0.3330715436	-0.375224
C	-0.2258594859	 0.1889396092	 0.4341843899	-0.193838
C	-1.3687424593	-0.6059136225	-0.1666427229	-0.003455
C	-1.136515822	-1.5637525332	-1.3115548612	-0.303807
C	-1.5626931351	-2.0886808392	 0.049468694	-0.043929
C	-0.6317155251	-2.9223305413	 0.9070279019	-0.309752
C	-0.6621263544	-4.4351237875	 0.660871287	 0.380642
N	-0.9828447745	-4.8159562383	-0.6088756892	-0.511026
O	-0.3866448864	-5.2337871394	 1.5347067909	-0.366096
H	 0.8656103729	 2.0532127249	 0.1220875654	 0.112952
H	 0.3154063682	 1.2812359224	-1.3741373634	 0.117955
H	-0.838852211	 2.1337049825	-0.3426676467	 0.114983
H	 0.6866200883	-0.4173108737	 0.4525488124	 0.096985
H	-0.456569731	 0.4243237067	 1.4814004109	 0.101776
H	-2.2963051962	-0.0398795303	-0.2253789784	 0.084714
H	-1.8428959286	-1.5847076025	-2.1351151168	 0.111157
H	-0.104610159	-1.7333774375	-1.6079489946	 0.114081
H	-2.6026082008	-2.3993949602	 0.1190513449	 0.093661
H	 0.4090813845	-2.6072762536	 0.7674306905	 0.124543
H	-0.8497217761	-2.7905947161	 1.9709861978	 0.130941
H	-1.2238932067	-4.1469868126	-1.3185732677	 0.265574
H	-0.9937413613	-5.7989819676	-0.8236492607	 0.257163
33.6592	56.2094	91.6499	108.5471	177.1551	201.3241	224.1005	266.2929	309.0164	406.4821	448.1041	502.3491	547.5985	586.0266	680.9705	753.5939	797.7971	830.6406	865.605	878.6188	889.7522	951.2139	987.294	1013.7276	1049.5799	1066.6768	1100.9487	1117.1501	1146.381	1156.1097	1201.8591	1242.1453	1252.8603	1294.7405	1306.0099	1342.5657	1353.5077	1402.862	1411.6999	1431.8786	1461.6805	1483.2641	1495.8871	1497.8201	1506.9698	1605.988	1799.9344	3021.9504	3032.2521	3045.5199	3061.6015	3092.5745	3100.3358	3106.2761	3115.5073	3121.3424	3134.701	3200.5213	3603.5634	3742.8415
CCC1CC1CC(N)=O	CC[C@H]1C[C@H]1CC(=O)N	
InChI=1S/C7H13NO/c1-2-5-3-6(5)4-7(8)9/h5-6H,2-4H2,1H3,(H2,8,9)	InChI=1S/C7H13NO/c1-2-5-3-6(5)4-7(8)9/h5-6H,2-4H2,1H3,(H2,8,9)/t5-,6-/m0/s1
