16
gdb 33687	4.07695	1.47178	1.36335	2.0161	78.97	-0.2238	0.021	0.2448	963.0482	0.125248	-363.521446	-363.514808	-363.513864	-363.552213	27.574	
C	-0.028486802	-1.1812830948	-0.1491036748	-0.3411
C	 0.0028912891	 0.0156221955	-0.0285223427	 0.081725
C	 0.018414674	 1.4236623207	 0.1544005002	 0.24797
C	-1.1122373116	 2.2859642608	 0.7568672058	-0.17813
C	-0.4270480555	 3.6123760888	 1.0523941611	-0.083726
C	 1.073143181	 3.4305628484	 1.1560512463	-0.245114
C	 1.2199336243	 2.3152791831	 0.1467583805	-0.096719
N	 0.2356304679	 2.4298310651	-0.9658902445	-0.19316
C	-0.8641632645	 3.2699039296	-0.3481897785	-0.017147
H	-0.0531964351	-2.2360878843	-0.2675486813	 0.182652
H	-2.0275476862	 1.9288266975	 1.2047563717	 0.102989
H	-0.9649816551	 4.3677428123	 1.6110538598	 0.097595
H	 1.6255315299	 4.3287234634	 0.8601062154	 0.114367
H	 1.4050122677	 3.1245501136	 2.1535439687	 0.114859
H	 2.1849258319	 1.9167305988	-0.143965562	 0.109775
H	-1.5260915758	 3.8397705514	-0.9847027757	 0.103162
142.1829	154.7966	379.3012	445.57	485.2668	516.9645	587.8539	600.8932	662.6684	695.1861	726.1922	769.5404	794.3146	829.7837	859.8482	879.3644	899.9214	955.7856	965.7277	1006.8076	1016.2801	1036.4497	1046.8145	1070.0257	1096.8432	1159.1109	1188.76	1214.5542	1254.3045	1267.9147	1298.4562	1373.2831	1396.5471	1485.9929	2234.7101	3048.0147	3092.6842	3191.5955	3201.3677	3212.3283	3230.579	3502.8251
C#CC12C3C4CC1N2C34	C#C[C@@]12[C@H]3[C@H]4C[C@@H]1N2[C@@H]34	
InChI=1S/C8H7N/c1-2-8-5-3-4-6(8)7(4)9(5)8/h1,4-7H,3H2	InChI=1S/C8H7N/c1-2-8-5-3-4-6(8)7(4)9(5)8/h1,4-7H,3H2/t4-,5+,6+,7-,8+,9?/m1/s1
