16
gdb 70113	2.44637	1.70502	1.24754	5.071	73.03	-0.2695	-0.0241	0.2455	1021.7212	0.124046	-400.752455	-400.744572	-400.743628	-400.78484	29.819	
C	-0.1292946961	 1.4747963323	 0.0010989323	-0.49061
C	 0.1160549141	-0.00706506	 0.0271411702	 0.394832
O	-0.6895573036	-0.7849387696	 0.9068362519	-0.279226
C	 0.7449690551	-0.7822515634	 1.1124891377	-0.073414
C	 1.4150099881	-1.9666620313	 0.4992780808	-0.076316
C	 1.2214498279	-1.981190885	-0.8189623606	-0.087903
C	 0.4521087532	-0.7497131742	-1.2899494079	-0.25798
C	-0.7350071196	-1.0681789967	-2.0835494834	 0.287449
N	-1.6666210841	-1.3087803997	-2.7233021561	-0.324399
H	 0.7227867932	 2.0071558383	-0.4339322204	 0.12677
H	-1.0164160205	 1.704416655	-0.5988553982	 0.149267
H	-0.2978726164	 1.8473843075	 1.0139477715	 0.139398
H	 1.076547614	-0.3400780193	 2.0468672936	 0.106751
H	 1.9487668638	-2.7161746553	 1.0695649346	 0.120612
H	 1.5285069505	-2.7551855643	-1.5108511304	 0.130044
H	 1.0988733404	-0.1142757942	-1.9112357756	 0.134724
100.4465	130.9578	189.5607	245.6155	298.0342	376.2904	386.4941	508.7508	532.9349	556.1315	620.1429	727.3919	755.9375	828.8071	873.6008	876.2859	944.8791	969.3906	983.827	1012.6428	1035.6897	1068.9697	1112.3408	1146.8891	1204.0158	1251.7036	1278.7977	1306.6599	1363.134	1411.2727	1448.2028	1484.0047	1494.5632	1668.9465	2361.1027	3015.9623	3039.1461	3103.7392	3130.5795	3166.8372	3208.1119	3231.0935
CC12OC1C=CC2C#N	C[C@]12O[C@H]1C=C[C@H]2C#N	
InChI=1S/C7H7NO/c1-7-5(4-8)2-3-6(7)9-7/h2-3,5-6H,1H3	InChI=1S/C7H7NO/c1-7-5(4-8)2-3-6(7)9-7/h2-3,5-6H,1H3/t5-,6-,7+/m0/s1
