15
gdb 16358	2.60179	2.38504	1.44442	3.1453	63.23	-0.2687	0.0025	0.2712	870.8103	0.11794	-399.77385	-399.766452	-399.765508	-399.805489	27.314	
C	-0.3170441787	 1.4953045427	 0.0086299835	-0.410532
C	 0.1240735192	 0.0502640114	 0.0078113036	 0.070142
O	 1.3933763225	-0.1501682544	-0.7189018156	-0.286202
C	 2.0068604931	-0.7408784376	 0.3710379348	 0.382954
N	 3.1455256679	-1.2404466647	 0.5160576482	-0.54999
C	 0.8069421289	-0.5332630806	 1.2496850807	 0.280034
C	 0.7143740665	-0.2120885018	 2.6741592961	-0.252938
O	 0.2590229952	-1.4653028466	 2.1459546176	-0.25096
H	 0.4537286336	 2.1392979119	 0.4412938842	 0.130739
H	-0.5218714031	 1.8338849788	-1.0110472803	 0.139625
H	-1.2363347394	 1.6056723288	 0.5932455042	 0.131188
H	-0.6387717508	-0.6164294424	-0.4061732645	 0.112061
H	 3.6907831939	-1.1987306371	-0.3462561858	 0.233299
H	 1.6129228121	-0.2635753757	 3.2852784574	 0.14487
H	-0.0679259208	 0.4600989272	 3.0228659558	 0.125711
105.3032	191.0321	221.0501	229.6244	257.6871	315.5822	480.8914	518.562	606.0858	694.2953	730.226	845.3489	861.5278	861.8604	920.572	957.5936	1000.3654	1059.017	1074.3419	1121.9679	1139.5965	1161.7774	1165.7479	1246.4511	1303.7143	1380.3385	1411.5504	1447.5125	1486.2114	1494.2105	1535.4824	1833.0339	3041.3807	3067.9746	3091.9461	3114.0949	3124.3694	3188.203	3483.0876
CC1OC(=N)C11CO1	C[C@H]1O[C]([NH])[C@]21CO2	
InChI=1S/C5H7NO2/c1-3-5(2-7-5)4(6)8-3/h3,6H,2H2,1H3	InChI=1S/C5H7NO2/c1-3-5(2-7-5)4(6)8-3/h3,6H,2H2,1H3/t3-,5-/m1/s1
