19
gdb 13107	3.8773	1.20593	0.98637	3.402	72.63	-0.2442	0.0362	0.2803	1219.3799	0.16553	-365.094482	-365.085715	-365.084771	-365.128363	31.293	
C	-0.0142899389	 1.5619488123	 0.0861906369	-0.383413
C	 0.059546332	 0.0343674009	 0.0272735638	-0.167272
C	 0.6079897994	-0.4832359613	-1.3093234372	-0.190634
C	 0.725042423	-2.0046202105	-1.3461868356	-0.142766
C	 1.4596071431	-2.659302064	-2.557793788	-0.188875
N	 2.4230550541	-3.2017522615	-1.5964841496	-0.319207
C	 1.8622298808	-2.6210064102	-0.4854816679	 0.429454
O	 2.1779017165	-2.6022862664	 0.6755882664	-0.36622
H	 0.977727793	 2.0111576631	-0.0354375877	 0.114902
H	-0.6570465	 1.961355719	-0.7067821332	 0.109333
H	-0.4172171551	 1.903359943	 1.0445911127	 0.11416
H	 0.689057145	-0.3461773532	 0.838736578	 0.133979
H	-0.9404644771	-0.3887850244	 0.1913894209	 0.092356
H	-0.0395671841	-0.1494076994	-2.1315141745	 0.095039
H	 1.5959371255	-0.0401089419	-1.4963763822	 0.098336
H	-0.2404835593	-2.4746844863	-1.1342615057	 0.099398
H	 0.8925684349	-3.4191038865	-3.1047178328	 0.111266
H	 1.8898973505	-1.942309553	-3.2655199388	 0.110981
H	 3.2775341066	-3.7249965398	-1.7169397955	 0.249183
81.6486	84.5571	107.5291	170.2762	220.2445	251.3738	328.2598	365.0921	472.9831	493.8044	711.09	751.3538	761.9052	818.5291	877.7999	906.3987	925.7113	989.3943	1026.7687	1050.6962	1093.7224	1123.6156	1151.0853	1172.6799	1176.4872	1210.9939	1259.1821	1281.5071	1315.8055	1335.3342	1359.8336	1395.2597	1399.4264	1413.7385	1487.1512	1495.7416	1500.9817	1512.5741	1527.8912	1882.9893	3005.2706	3021.1762	3028.1259	3035.7098	3038.3893	3067.1666	3074.6136	3085.1489	3098.3955	3103.1918	3610.4917
CCCC1CNC1=O	CCC[C@H]1CNC1=O	
InChI=1S/C6H11NO/c1-2-3-5-4-7-6(5)8/h5H,2-4H2,1H3,(H,7,8)	InChI=1S/C6H11NO/c1-2-3-5-4-7-6(5)8/h5H,2-4H2,1H3,(H,7,8)/t5-/m0/s1
