15
gdb 37164	4.00252	1.9203	1.66228	2.5284	66.22	-0.2403	0.0476	0.2879	799.6398	0.113509	-420.468827	-420.463351	-420.462407	-420.498318	23.998	
O	-0.0424612041	 1.4283740448	-0.253338149	-0.242624
C	 1.2492220226	 0.8432808858	 0.0112261496	 0.050208
C	 0.0296852242	 0.0091718642	-0.065792154	-0.132878
C	 0.378596452	-0.7141669037	-1.3516893745	 0.463043
O	-0.0131258554	-1.6844978611	-2.3520766263	-0.3952
C	 1.3271982291	-1.1507683201	-2.7868369953	-0.013389
C	 1.8936649785	-1.0923303583	-1.3505824246	-0.097557
C	 2.0833038674	 0.4550521672	-1.2501051169	-0.160222
C	 1.0056827107	 0.2965976442	-2.3468432488	-0.068142
H	 1.7143750449	 1.1399893479	 0.9461507666	 0.108133
H	-0.4953026177	-0.4183187941	 0.7804832661	 0.116623
H	 1.7195660278	-1.5615528977	-3.7148127652	 0.101336
H	 2.3533263753	-1.8970331424	-0.7778322683	 0.090022
H	 3.0393342715	 0.9527409739	-1.4061736644	 0.076797
H	 0.4523163631	 1.0549616394	-2.8932331849	 0.103849
305.6465	349.8371	431.2392	541.6253	554.1851	689.8791	713.0563	751.8134	775.0981	801.457	831.5991	859.7806	864.2959	895.2006	915.166	925.6631	933.3977	978.616	1022.9429	1048.5632	1075.1073	1080.7798	1108.5669	1130.3951	1169.3821	1198.1679	1206.027	1227.9239	1250.5367	1267.135	1300.3291	1333.8175	1373.5683	3120.3769	3128.3721	3143.5065	3165.8227	3167.5336	3188.2019
O1C2C1C13OC4C1C2C34	O1[C@H]2[C@@H]1[C@]13O[C@@H]4[C@H]1[C@H]2[C@H]34	
InChI=1S/C7H6O2/c8-4-1-2-5-3(1)7(2,9-5)6(4)8/h1-6H	InChI=1S/C7H6O2/c8-4-1-2-5-3(1)7(2,9-5)6(4)8/h1-6H/t1-,2+,3-,4-,5+,6-,7-/m1/s1
