23
gdb 116917	4.78511	0.54124	0.50928	0.0718	98.38	-0.2236	0.0551	0.2787	2280.8137	0.204178	-351.13136	-351.120504	-351.11956	-351.169157	38.797	
C	 0.0673056728	 1.5893638285	 0.0397717841	-0.38133
C	 0.0427655097	 0.0596924529	 0.04600634	-0.150603
C	-1.3903385754	-0.505542631	-0.035088614	-0.336008
C	-1.4361747936	-1.9638439965	-0.0338405513	 0.010376
C	-1.4407708108	-3.1702477863	-0.0274435768	 0.139393
C	-1.4438724279	-4.6051022355	-0.036017872	-0.188709
C	-1.8398896167	-5.3864687986	 1.2111347842	-0.287538
C	-2.7479775589	-5.3978952516	 0.0157019586	 0.018132
C	-4.0862656325	-4.6986794611	 0.0470366216	-0.405187
H	 1.0916413156	 1.9691087001	 0.1010881899	 0.113403
H	-0.3822017486	 1.990655467	-0.8755375579	 0.114849
H	-0.491032396	 1.9993829551	 0.8889640224	 0.114496
H	 0.6247459159	-0.3303759928	-0.796518448	 0.107386
H	 0.5222731111	-0.3223799336	 0.9541446061	 0.107652
H	-1.9768830375	-0.1185223671	 0.8097065281	 0.121251
H	-1.879224808	-0.1175751127	-0.9397209932	 0.120847
H	-0.6547144001	-5.0528148765	-0.6341180949	 0.103461
H	-1.2667793386	-6.2754550363	 1.450648079	 0.111963
H	-2.1478895035	-4.8014940566	 2.0708543076	 0.11986
H	-2.7289221554	-6.3094557218	-0.5760808315	 0.086602
H	-4.0253442698	-3.7603149824	 0.6049237297	 0.127784
H	-4.4315077713	-4.4592613689	-0.9645549515	 0.118458
H	-4.8454146104	-5.3303290945	 0.5212807799	 0.113462
18.4192	63.8248	75.1085	129.5615	143.4702	208.2889	243.2418	293.6497	303.3411	322.5337	370.6494	476.2208	523.0387	567.8452	726.157	744.0466	765.2308	851.6193	872.5762	875.5746	899.6578	933.5254	989.1954	1041.0678	1066.6761	1068.3003	1104.1763	1107.8691	1121.2714	1145.0242	1179.9145	1200.0091	1242.5489	1258.7336	1305.9175	1320.7723	1375.809	1383.6043	1405.0481	1412.4641	1423.9469	1475.1467	1482.9758	1492.2259	1493.8344	1499.3284	1502.1803	1509.4661	2357.8782	3003.1536	3028.9458	3029.1275	3032.5495	3040.877	3072.2245	3092.2452	3099.4161	3104.5396	3112.6893	3132.9997	3134.3985	3144.8929	3222.7276
CCCC#CC1CC1C	CCCC#C[C@H]1C[C@H]1C	
InChI=1S/C9H14/c1-3-4-5-6-9-7-8(9)2/h8-9H,3-4,7H2,1-2H3	InChI=1S/C9H14/c1-3-4-5-6-9-7-8(9)2/h8-9H,3-4,7H2,1-2H3/t8-,9+/m1/s1
