24
gdb 13210	3.82102	1.15139	0.9502	0.0547	85.54	-0.2807	0.0859	0.3666	1330.4716	0.223345	-314.272852	-314.263352	-314.262408	-314.307036	35.57	
C	 0.0128977277	 1.565281541	-0.0914835044	-0.390538
C	 0.0848752172	 0.0389057346	 0.0211368715	-0.167098
C	 0.6907209579	-0.485709345	 1.33684629	 0.021933
C	-0.1641027631	-0.1240113513	 2.5604368256	-0.39841
C	 0.9155666128	-1.9956498231	 1.2631172893	 0.077994
C	 1.9440454122	-2.5681452268	 0.2432592459	-0.233377
C	 2.3764111555	-3.6035603207	 1.3152949315	-0.219151
C	 1.7164327451	-2.7048243569	 2.3946329729	-0.237235
H	 1.0036677212	 2.0171288853	 0.0332944291	 0.111489
H	-0.3671858207	 1.8680769807	-1.0724199439	 0.109829
H	-0.6475330262	 2.0028606185	 0.6634930817	 0.116743
H	-0.9214896331	-0.3861317635	-0.1004586024	 0.088836
H	 0.6790707655	-0.3481379014	-0.8160444136	 0.096127
H	 1.6786249937	-0.0140176253	 1.4611478518	 0.058697
H	-1.1728255313	-0.5455784632	 2.4693761814	 0.108615
H	 0.2776555226	-0.5185523009	 3.4809884335	 0.114411
H	-0.2660374435	 0.958065776	 2.6831201091	 0.111866
H	-0.051699208	-2.4985778012	 1.1293879812	 0.061072
H	 1.5681457837	-2.9466148397	-0.7105599622	 0.092655
H	 2.7410277862	-1.8445930236	 0.0380092576	 0.094933
H	 1.8445164464	-4.5522591433	 1.198462288	 0.099636
H	 3.4433868992	-3.8170725997	 1.4144439161	 0.093356
H	 2.4434032756	-2.0228530258	 2.8496134356	 0.095078
H	 1.1550015635	-3.1943023946	 3.1943714246	 0.092537
81.0643	92.5713	130.7092	156.0902	217.2091	234.2782	280.407	323.5569	381.8324	418.0517	474.9237	640.0893	756.44	783.3863	788.1454	846.1491	892.9221	936.0607	945.1972	954.1186	974.3605	986.6631	1008.3587	1038.363	1052.8769	1094.8439	1152.1179	1184.6445	1198.6462	1205.6218	1239.5684	1257.943	1262.6046	1274.1581	1290.4368	1297.29	1314.7908	1353.2099	1376.5474	1394.1324	1410.0238	1415.0778	1477.7658	1483.2954	1486.2112	1496.6783	1499.9996	1506.725	1510.3055	1511.9548	2973.8124	3008.3393	3015.3438	3027.952	3031.8698	3039.3018	3044.1129	3048.7377	3056.1345	3092.2021	3092.2944	3095.8634	3096.8645	3102.2418	3109.7196	3113.7695
CCC(C)C1CCC1	CC[C@@H](C)C1CCC1	
InChI=1S/C8H16/c1-3-7(2)8-5-4-6-8/h7-8H,3-6H2,1-2H3	InChI=1S/C8H16/c1-3-7(2)8-5-4-6-8/h7-8H,3-6H2,1-2H3/t7-/m1/s1
