19
gdb 125993	4.50682	1.23835	1.00802	3.0889	81.88	-0.228	0.0324	0.2604	1187.8939	0.16324	-382.111853	-382.104373	-382.103428	-382.143817	29.261	
C	-0.7506246431	 1.2333020725	-0.0736008663	-0.407754
C	 0.198654575	 0.0409814533	 0.0065418586	 0.027415
C	 1.2413790163	-0.0119141952	-1.1443168824	-0.180448
N	 2.3598118919	-0.6646983798	-0.4927659122	 0.057454
N	 3.4834821246	-1.1828591525	-1.0088364798	-0.300532
C	 4.1711762814	-1.5567146695	 0.0754807991	 0.009195
C	 3.4886907599	-1.2653646878	 1.2804789435	-0.391414
C	 2.3100786336	-0.6797527834	 0.859712827	 0.40984
C	 1.0459554407	-0.0214370202	 1.319182943	-0.374342
H	-0.1991381887	 2.1787983384	-0.0230078413	 0.121163
H	-1.3216010992	 1.2275220925	-1.007953874	 0.121085
H	-1.4676596804	 1.2192851313	 0.7533006356	 0.122213
H	-0.3865817666	-0.8841443474	-0.0462570961	 0.094048
H	 0.9005051119	-0.5845653793	-2.0102460761	 0.129635
H	 1.5261831076	 0.9917298014	-1.4868763027	 0.117457
H	 5.1342905001	-2.0318504532	-0.0447806525	 0.106422
H	 3.8108085042	-1.4624609509	 2.2897518937	 0.099409
H	 1.2436989151	 0.9888903635	 1.7022101767	 0.117698
H	 0.5283891957	-0.5675525837	 2.1127641561	 0.121457
86.0188	193.8628	235.9584	246.9354	278.7061	413.4711	462.1286	517.6828	653.527	664.3755	735.8114	783.7314	791.6742	830.8415	882.785	906.1579	939.7485	951.9956	965.059	1055.4138	1073.3511	1104.3167	1123.6653	1168.7461	1192.1772	1210.1582	1233.5475	1273.4616	1305.216	1342.6396	1344.7628	1361.4013	1375.3863	1414.5459	1438.074	1486.3549	1497.9245	1498.5776	1500.5997	1529.1489	1581.8249	3016.2317	3018.211	3031.1449	3039.8567	3083.7659	3096.4104	3101.7147	3104.5964	3239.2198	3271.1776
CC1CN2N=CC=C2C1	C[C@H]1Cn2nccc2C1	
InChI=1S/C7H10N2/c1-6-4-7-2-3-8-9(7)5-6/h2-3,6H,4-5H2,1H3	InChI=1S/C7H10N2/c1-6-4-7-2-3-8-9(7)5-6/h2-3,6H,4-5H2,1H3/t6-/m1/s1
