20
gdb 90521	4.43475	0.98943	0.91084	4.4537	83.49	-0.2852	0.0308	0.316	1323.8199	0.171941	-366.007673	-365.999191	-365.998247	-366.041343	32.302	
C	 0.3262355875	 1.6521582122	-0.2199715465	-0.413088
C	 0.0673452277	 0.1629141053	-0.0478342473	 0.046693
C	 0.9268375433	-0.8593284846	-0.8589989309	-0.269546
C	 1.1302681133	-1.7103444267	 0.4262004205	-0.018416
C	 2.4986697759	-1.4565227875	 1.1336520199	-0.154081
C	 1.8557488034	-0.2324390124	 1.8806887004	-0.254572
C	 0.4659309779	-0.5653653991	 1.2671091512	-0.031344
C	 2.9365576097	-2.5291301425	 2.011859855	 0.25957
N	 3.2668896155	-3.3863475385	 2.7148496096	-0.32917
H	 1.3824976992	 1.904249745	-0.0768609185	 0.114006
H	 0.048535888	 1.9796828521	-1.2278451029	 0.119986
H	-0.2578115164	 2.2433635158	 0.494123962	 0.118898
H	-0.9935861356	-0.036723169	-0.234384934	 0.079534
H	 0.4064090352	-1.3638145944	-1.675674719	 0.108138
H	 1.8577059753	-0.4436079943	-1.2595465752	 0.097981
H	 0.7667758176	-2.7366919473	 0.4079210945	 0.089892
H	 3.3176028866	-1.2084145555	 0.4515669705	 0.117472
H	 1.8952165117	-0.3232034715	 2.9666356641	 0.130774
H	 2.2854841932	 0.7312809981	 1.6009697461	 0.112771
H	-0.327686729	-0.7437509452	 1.9933732005	 0.074501
38.2859	131.1742	158.7395	215.5132	270.2033	328.1129	346.5023	464.7656	470.7271	554.028	641.6669	733.2981	766.3966	810.9973	842.1652	865.3889	888.7638	942.624	950.8038	988.0997	999.3497	1037.9613	1095.0706	1106.9404	1119.8055	1141.6919	1152.5853	1198.713	1210.4978	1225.4704	1260.0891	1267.5719	1281.5102	1295.3972	1323.3951	1346.549	1371.3546	1411.7214	1476.5067	1486.2818	1493.9462	1502.1871	2349.538	3027.8528	3037.7951	3046.7079	3061.1037	3080.4697	3093.974	3095.5307	3098.9769	3105.9007	3125.1999	3137.5543
CC1CC2C(CC12)C#N	C[C@H]1C[C@H]2[C@@H](C[C@@H]12)C#N	
InChI=1S/C8H11N/c1-5-2-8-6(4-9)3-7(5)8/h5-8H,2-3H2,1H3	InChI=1S/C8H11N/c1-5-2-8-6(4-9)3-7(5)8/h5-8H,2-3H2,1H3/t5-,6-,7-,8-/m0/s1
