16
gdb 13085	4.33319	1.31015	1.08232	3.0878	66.71	-0.2448	0.0518	0.2966	1071.4854	0.128293	-383.676776	-383.668275	-383.66733	-383.710442	30.235	
O	 0.063679424	 1.4074887708	-0.1949397107	-0.418871
C	 0.073336895	 0.0178467252	 0.0245811463	 0.034075
C	-0.0189807649	-0.4848874394	 1.4832338983	-0.097396
O	-1.2654151474	-1.1567015404	 1.2107921216	-0.282619
C	-1.3190083362	-0.6378285179	-0.1363410904	 0.124327
C	-2.4935858298	 0.3192707267	-0.3652861033	-0.358281
C	-3.7765807361	-0.3704961672	-0.3406249077	 0.289446
C	-4.8247779959	-0.9579300485	-0.3278158961	-0.429365
H	 0.9608276154	 1.741925318	-0.1036979881	 0.292724
H	 0.8550448099	-0.4754673359	-0.5654374321	 0.082548
H	 0.7592111619	-1.180871902	 1.818423313	 0.10088
H	-0.1313518836	 0.3244799428	 2.2162364975	 0.103187
H	-1.3625183492	-1.4549601705	-0.866029989	 0.089197
H	-2.4662091134	 1.1085125186	 0.3927698391	 0.141097
H	-2.3488743917	 0.8157031841	-1.3330596046	 0.137014
H	-5.755193618	-1.4686497143	-0.3090523439	 0.192037
64.5511	66.4826	124.2774	208.0056	225.325	337.0877	361.8771	407.3644	517.9729	526.1417	616.3883	638.0726	754.1851	842.4654	896.6557	899.1692	970.181	1015.996	1035.7495	1060.1244	1100.6686	1151.5352	1175.7131	1194.0354	1228.3329	1278.7781	1308.7832	1313.6076	1356.5408	1391.3858	1437.7427	1453.3841	1515.6974	2241.491	3011.4836	3022.4937	3036.9377	3040.2985	3064.8374	3084.3054	3508.4103	3829.6796
OC1COC1CC#C	O[C@H]1CO[C@H]1CC#C	
InChI=1S/C6H8O2/c1-2-3-6-5(7)4-8-6/h1,5-7H,3-4H2	InChI=1S/C6H8O2/c1-2-3-6-5(7)4-8-6/h1,5-7H,3-4H2/t5-,6-/m0/s1
