20
gdb 117957	2.86109	0.79038	0.66206	3.2626	73.44	-0.2527	0.0195	0.2722	1705.9532	0.168999	-477.448046	-477.43709	-477.436146	-477.4854	37.803	
C	-0.0480701634	 1.4547620674	 0.0700389535	-0.337354
N	-0.1182312405	 0.0047750479	 0.0976706339	-0.308979
C	-1.27440932	-0.68257487	-0.0463238322	 0.396615
O	-2.3684489824	-0.1554205353	-0.2010207672	-0.396925
C	-1.1749644151	-2.2185780357	-0.0164260057	 0.015958
O	-2.4766025175	-2.739164285	 0.0630550112	-0.437893
C	-0.4438309788	-2.7572886889	-1.2595829911	-0.206844
C	-0.3511534954	-4.285117706	-1.2553856337	-0.066714
O	 0.34859853	-4.7878029863	-2.3840204998	-0.421125
H	 0.590460856	 1.8050327432	-0.7479452353	 0.132479
H	-1.0606689486	 1.8285556375	-0.0821781696	 0.175329
H	 0.3410909931	 1.8496708285	 1.0144663534	 0.132506
H	 0.7309559092	-0.5169751196	 0.2410707998	 0.254054
H	-0.6109036088	-2.5143381673	 0.8841847809	 0.081636
H	-3.053069371	-1.9640642259	-0.0605175744	 0.293204
H	-0.9910301796	-2.4229638682	-2.1510841688	 0.098932
H	 0.5692029784	-2.3417543942	-1.3248468486	 0.090007
H	 0.2181793647	-4.6203782281	-0.3804388128	 0.105575
H	-1.3584118195	-4.7126053223	-1.1731204269	 0.117748
H	-0.2025368407	-4.6410700217	-3.1591091765	 0.281792
48.4078	76.3943	87.6371	95.4045	110.2628	170.1686	225.5401	287.757	296.1833	359.6344	381.2506	424.7741	496.5404	505.59	533.4852	700.8667	760.2631	794.571	898.2691	951.3224	1035.8655	1052.9058	1072.7385	1091.3591	1140.5569	1154.3694	1173.2721	1185.2237	1238.4702	1281.6753	1304.8597	1312.6659	1373.0842	1399.3014	1418.4881	1442.7617	1452.3283	1474.2105	1498.5055	1499.1827	1514.8837	1576.5201	1764.9848	2963.8505	3017.8643	3026.4985	3033.9395	3055.8221	3080.9484	3088.3613	3160.3643	3629.9239	3642.9467	3818.8427
CNC(=O)C(O)CCO	CNC(=O)[C@@H](O)CCO	
InChI=1S/C5H11NO3/c1-6-5(9)4(8)2-3-7/h4,7-8H,2-3H2,1H3,(H,6,9)	InChI=1S/C5H11NO3/c1-6-5(9)4(8)2-3-7/h4,7-8H,2-3H2,1H3,(H,6,9)/t4-/m0/s1
