16
gdb 30586	6.7487	0.62596	0.59665	2.2408	86.94	-0.2025	0.011	0.2135	1813.2734	0.12506	-400.749243	-400.740468	-400.739524	-400.784276	31.365	
O	 0.2702836417	 0.8887433611	 0.9585998107	-0.410491
C	-0.054702489	 0.1660498263	-0.2268475371	-0.232343
C	-1.4026688373	-0.3713405352	-0.1324998234	 0.230108
C	-2.5194536149	-0.8269866542	-0.0827662681	-0.108505
C	-3.8202932817	-1.3759539485	-0.0133363322	 0.1674
C	-4.9994034616	-0.7384867718	-0.366707815	-0.202721
N	-6.0282160238	-1.6084007187	-0.1499998702	-0.229905
C	-5.5443672952	-2.8000594569	 0.3373471174	-0.067635
C	-4.1820535295	-2.690113266	 0.4340440777	-0.273547
H	 1.1684168043	 1.219277272	 0.8522412532	 0.285248
H	 0.0135736326	 0.8163754846	-1.1148806841	 0.111606
H	 0.6526971397	-0.6642529979	-0.3883452749	 0.112688
H	-5.1664104173	 0.255750469	-0.7466349138	 0.12685
H	-6.9974701242	-1.4048199173	-0.3194667394	 0.266491
H	-6.2097022799	-3.6151504386	 0.570938453	 0.123089
H	-3.4984400639	-3.4473323079	 0.7830530762	 0.101669
27.422	79.1632	96.3334	197.6591	230.787	301.7773	391.2323	473.4701	499.3125	526.2126	597.9718	634.6746	668.5144	694.6145	782.6524	840.9776	899.4078	906.2852	1007.6218	1025.491	1052.0111	1096.0468	1102.0015	1161.9075	1246.5414	1249.3612	1257.9861	1341.8728	1380.5101	1452.4062	1463.0854	1500.3256	1530.0493	1592.8798	2351.5537	2956.5144	2973.7515	3257.0312	3273.0992	3277.3277	3685.627	3811.3896
OCC#CC1=CNC=C1	OCC#Cc1c[nH]cc1	
InChI=1S/C7H7NO/c9-5-1-2-7-3-4-8-6-7/h3-4,6,8-9H,5H2	InChI=1S/C7H7NO/c9-5-1-2-7-3-4-8-6-7/h3-4,6,8-9H,5H2
