23
gdb 87158	2.64611	1.17785	1.09218	1.6102	85.63	-0.2414	0.0843	0.3257	1289.8438	0.204809	-388.267333	-388.257537	-388.256592	-388.302087	36.577	
C	-0.1381138106	 1.535262276	-0.0033759953	-0.419242
C	-0.0366446267	 0.0297884153	 0.1115024658	-0.015613
C	 1.2398552785	-0.7111266671	-0.2207740797	-0.341058
C	 0.7352502818	-0.6784996722	 1.2043222207	 0.303672
C	 1.5121289753	 0.0950197942	 2.2526809811	-0.471299
C	 0.150741545	-1.9618656483	 1.7562578287	 0.094223
C	-1.1085386019	-1.8800781132	 2.655798384	-0.288008
C	-1.7220039577	-2.8545965614	 1.6342886456	-0.065254
O	-0.5650031936	-2.7532680632	 0.7762304444	-0.293893
H	 0.8002629418	 2.035176028	 0.2531605895	 0.113026
H	-0.3882523693	 1.825245116	-1.0301075086	 0.117711
H	-0.9185982547	 1.9392254137	 0.6520164924	 0.111654
H	-0.9343640013	-0.4989210492	-0.1978999647	 0.089649
H	 1.1541269994	-1.6408307558	-0.7718377071	 0.124358
H	 2.1244276739	-0.1238943784	-0.4498072673	 0.099366
H	 1.9728240776	 0.9948981	 1.8394097176	 0.119261
H	 0.8695883258	 0.4050122943	 3.0858784707	 0.114874
H	 2.3174400573	-0.5217285412	 2.6698202432	 0.115935
H	 0.9582915109	-2.5605406627	 2.2060956829	 0.067856
H	-1.0051724067	-2.2455894097	 3.6782518846	 0.107016
H	-1.5713244499	-0.8912301869	 2.6657717043	 0.111104
H	-1.8633286958	-3.8798459463	 2.0000063711	 0.100603
H	-2.6374544392	-2.5299466919	 1.1266419362	 0.104057
75.5274	82.6524	151.3449	169.592	176.8479	205.6702	274.9302	282.4039	375.305	434.0223	470.0731	523.4253	653.7975	763.7184	789.2518	827.0105	879.8725	892.8539	931.822	945.8808	965.9166	980.512	1016.3048	1029.8664	1058.8153	1069.8312	1095.7367	1126.6406	1133.4738	1143.067	1170.6978	1196.6435	1216.8293	1252.4572	1275.8242	1282.556	1312.9475	1357.7174	1389.7006	1405.1049	1417.6013	1426.5622	1483.6186	1486.3505	1488.8242	1493.0481	1502.078	1514.6275	1530.6223	2973.7254	3014.017	3021.8984	3027.6136	3057.3923	3074.311	3077.6039	3082.5439	3100.7109	3119.0548	3124.9759	3134.6914	3145.7124	3216.5447
CC1CC1(C)C1CCO1	C[C@H]1C[C@]1(C)[C@H]1CCO1	
InChI=1S/C8H14O/c1-6-5-8(6,2)7-3-4-9-7/h6-7H,3-5H2,1-2H3	InChI=1S/C8H14O/c1-6-5-8(6,2)7-3-4-9-7/h6-7H,3-5H2,1-2H3/t6-,7+,8-/m0/s1
