16
gdb 50237	3.08397	1.63453	1.41341	5.3872	68.34	-0.2287	-0.0062	0.2225	937.3981	0.123922	-437.797624	-437.790489	-437.789544	-437.8294	27.467	
O	-0.0588722391	-0.1472873205	 0.2437254476	-0.251841
C	-0.0309184002	 1.0116021409	-0.0677767581	 0.178256
C	 1.2342530821	 1.8485137901	-0.1376454814	 0.026002
O	 2.402030885	 1.1273063075	-0.5928229044	-0.284099
C	 2.6108471664	 2.0698608546	-1.6558328324	 0.130609
C	 1.9165369622	 1.7801624077	-3.0141541472	-0.073334
N	 0.5911772634	 1.1974828468	-2.7135824702	-0.314146
C	 0.7637898668	 2.6554634135	-2.6245945977	-0.066264
C	 1.3989166886	 2.9318810744	-1.2415323472	-0.129622
H	-0.9624892423	 1.6010622817	-0.2444625001	 0.061352
H	 1.4020126126	 2.2635788324	 0.8694400179	 0.101205
H	 3.6342113464	 2.4456943832	-1.717095219	 0.087863
H	 2.3825492384	 1.6119733023	-3.9774238158	 0.099387
H	 0.139923758	 0.974152557	-3.5985271533	 0.241653
H	 0.1643410576	 3.3339502351	-3.2180129203	 0.102925
H	 1.4972730441	 3.9713326332	-0.9379694284	 0.090054
117.4481	131.5867	160.4239	291.2764	346.7614	491.3103	589.7602	632.7917	705.3601	762.2462	780.7276	801.3434	872.237	887.141	887.6754	930.1087	942.7443	987.5283	1009.6202	1033.1679	1046.2141	1094.9394	1102.5082	1115.4137	1176.8427	1200.679	1207.6314	1252.4949	1276.4511	1315.2593	1332.853	1342.7138	1376.3999	1416.5746	1842.2489	2838.9696	2977.7441	3092.5011	3143.6673	3185.1114	3200.271	3496.7424
O=CC1OC2C3NC3C12	O=C[C@H]1O[C@H]2[C@H]3N[C@H]3[C@@H]12	
InChI=1S/C6H7NO2/c8-1-2-3-4-5(7-4)6(3)9-2/h1-7H	InChI=1S/C6H7NO2/c8-1-2-3-4-5(7-4)6(3)9-2/h1-7H/t2-,3-,4+,5+,6-/m1/s1
