16
gdb 41134	2.99485	2.24825	1.70398	0.5173	73.02	-0.2173	-0.0263	0.191	818.5226	0.124785	-400.568113	-400.56188	-400.560936	-400.598193	26.561	
C	 0.0280088988	 1.5911114705	 0.1534581298	-0.204043
O	 1.4422491705	 1.6272660757	-0.3198416288	-0.344274
C	 1.2024032582	 0.2914779627	-0.826958125	 0.319889
C	 0.3992756092	 0.0498625742	-2.1050037594	-0.226267
N	-0.1306619523	-1.0308232766	-1.1781054704	-0.182709
C	 1.3317432474	-1.3307401642	-0.7288758726	-0.118021
C	 1.2437103769	-1.7174096873	 0.7183860404	-0.068359
C	 0.4014299368	-0.8122237943	 1.2291106813	-0.144134
C	 0.0285347145	 0.0447804637	 0.0622520946	 0.18203
H	-0.0529883872	 1.9798304374	 1.1717522785	 0.128844
H	-0.6225567634	 2.1491691006	-0.5242335323	 0.127147
H	-0.3578701718	 0.7815710432	-2.3943818253	 0.108288
H	 0.9211898722	-0.3446761502	-2.9787258275	 0.106296
H	 1.9064745725	-1.9164811892	-1.4471091689	 0.085128
H	 1.7469145399	-2.5484508652	 1.1894661289	 0.117544
H	 0.0215224377	-0.7102336911	 2.2359080466	 0.112641
198.2457	303.4757	359.4553	452.5663	461.4725	498.2682	572.0008	669.0431	682.1284	727.6039	769.6654	812.1668	836.5573	875.9294	880.8245	907.8176	919.8753	938.9806	984.4566	1025.8168	1064.9548	1083.7671	1101.6567	1123.3159	1131.008	1166.6243	1201.5813	1224.3311	1230.873	1286.8813	1313.1052	1346.5292	1488.0311	1530.0375	1614.1328	3057.9672	3071.6009	3120.5281	3123.6227	3133.8787	3227.5559	3256.1285
C1OC23CN4C2C=CC134	C1O[C@@]23CN4[C@@H]2C=C[C@@]134	
InChI=1S/C7H7NO/c1-2-6-4-9-7(6)3-8(6)5(1)7/h1-2,5H,3-4H2	InChI=1S/C7H7NO/c1-2-6-4-9-7(6)3-8(6)5(1)7/h1-2,5H,3-4H2/t5-,6-,7+/m1/s1
