16
gdb 97855	5.51882	0.65445	0.6271	1.3356	74.62	-0.2571	0.0114	0.2684	1734.4448	0.124486	-437.852859	-437.843915	-437.842971	-437.889078	30.46	
O	 0.3159202026	 1.0135986215	 0.6856381153	-0.400913
C	-0.0442381619	 0.1747097985	-0.4021777924	-0.192912
C	-1.4212537282	-0.3138491431	-0.3318495378	 0.050343
C	-2.5444534333	-0.7321043558	-0.2109192213	 0.091665
C	-3.9148260404	-1.2183915074	-0.103049937	-0.174219
C	-4.6735268476	-1.2447462303	-1.4710368481	-0.1163
O	-5.1011108648	-2.6187423667	-1.6069616748	-0.215906
C	-4.6294979862	-3.2572567212	-0.512112896	 0.130281
N	-3.9789771974	-2.6268918428	 0.3729034337	-0.256647
H	 0.1050492513	 0.5389535563	 1.4966258929	 0.289869
H	 0.0951718263	 0.780724912	-1.3043656115	 0.140205
H	 0.6382659915	-0.6857163752	-0.4905478337	 0.122279
H	-4.4509823363	-0.5945945856	 0.6223947094	 0.122429
H	-5.55912968	-0.6058409903	-1.481180746	 0.127815
H	-4.029190683	-0.9952816086	-2.3161519812	 0.133993
H	-4.8639792725	-4.3155973312	-0.4789828115	 0.148018
21.9275	45.2949	94.5043	122.5222	199.1024	276.0105	342.3084	440.67	477.3134	508.809	594.1886	722.533	782.6167	874.2713	929.2443	962.3421	968.0949	985.8815	990.012	1045.8836	1056.8002	1130.5671	1176.9993	1215.6152	1220.0907	1270.6181	1314.369	1348.5917	1359.8565	1373.306	1419.1804	1490.5118	1516.3162	1705.2876	2361.4696	2977.9269	3027.5958	3062.2486	3072.0991	3127.5114	3216.9718	3815.5498
OCC#CC1COC=N1	OCC#C[C@H]1COC=N1	
InChI=1S/C6H7NO2/c8-3-1-2-6-4-9-5-7-6/h5-6,8H,3-4H2	InChI=1S/C6H7NO2/c8-3-1-2-6-4-9-5-7-6/h5-6,8H,3-4H2/t6-/m0/s1
