21
gdb 82986	3.53045	1.51213	1.42881	1.5718	80.46	-0.2317	0.0882	0.3199	1013.2597	0.186329	-387.087037	-387.080035	-387.07909	-387.118029	29.538	
C	-0.2200056902	 1.5973527396	-0.0109837655	-0.429194
C	 0.0450587527	 0.0987707485	-0.0035584679	 0.029102
C	 1.120680884	-0.5663863932	-0.9202725431	-0.091613
C	 2.4086710874	 0.1755108673	-0.5223862042	-0.220629
C	 2.3387223076	-0.088136679	 1.0173894874	-0.056406
C	 3.0900548609	-1.4009453232	 1.2590504656	-0.082292
O	 2.3755044417	-2.342939579	 0.4385080243	-0.28663
C	 1.1338002306	-1.7333483964	 0.1412870372	 0.151589
C	 0.8575350927	-0.5748545775	 1.1269677287	-0.077298
H	 0.6819005997	 2.1865069643	 0.1763141274	 0.116761
H	-0.6355739961	 1.9196636965	-0.9723996054	 0.115542
H	-0.9474029499	 1.8603544933	 0.7650065577	 0.115299
H	-0.9058003299	-0.4346211747	-0.1206680278	 0.070394
H	 0.9378277008	-0.7401308375	-1.9813449295	 0.055615
H	 3.3032886952	-0.2660319872	-0.9695839698	 0.101502
H	 2.3856690264	 1.2343218511	-0.788958667	 0.09458
H	 2.6414582385	 0.7373655447	 1.6621130557	 0.065179
H	 4.1356144208	-1.3675602214	 0.9341891239	 0.102094
H	 3.0596614758	-1.7198957868	 2.3119957756	 0.087838
H	 0.3628262901	-2.4926161016	 0.0098701534	 0.078734
H	 0.4606970112	-0.7359450678	 2.1300544432	 0.059832
175.5548	198.3087	259.9369	284.4672	423.3917	453.2928	506.056	616.5678	679.6569	745.8572	757.3064	809.1451	836.4584	855.5139	899.5182	937.1323	945.7334	959.0591	962.2368	996.1983	1006.3433	1043.1919	1053.6773	1073.8912	1094.5275	1109.7143	1150.5367	1173.7765	1189.6885	1198.6323	1204.528	1216.9174	1251.7994	1268.7469	1291.2672	1317.7345	1333.7401	1338.9731	1385.8276	1406.8435	1419.9057	1490.6444	1496.7346	1512.9841	1523.942	2986.9126	3030.2342	3035.2227	3062.2161	3065.868	3089.7373	3101.8078	3104.7647	3106.1766	3110.115	3115.7104	3124.3262
CC1C2CC3COC2C13	C[C@H]1[C@H]2C[C@@H]3CO[C@H]2[C@H]13	
InChI=1S/C8H12O/c1-4-6-2-5-3-9-8(6)7(4)5/h4-8H,2-3H2,1H3	InChI=1S/C8H12O/c1-4-6-2-5-3-9-8(6)7(4)5/h4-8H,2-3H2,1H3/t4-,5+,6+,7+,8+/m0/s1
