21
gdb 116950	5.68935	0.45769	0.43705	0.7652	84.84	-0.2454	0.057	0.3025	2470.542	0.179428	-424.197705	-424.186285	-424.185341	-424.23608	39.53	
C	-0.8690496624	 0.295419147	 0.0771879904	-0.402905
C	 0.5383470416	-0.0678208772	-0.3892316049	 0.144215
O	 1.2389190326	 1.0677499204	-0.8870614203	-0.434564
C	 1.4203344343	-0.6125874083	 0.7488829134	-0.339246
C	 0.9534192634	-1.8827392686	 1.28963403	 0.059975
C	 0.5489786635	-2.9312803936	 1.7239470387	 0.045733
C	 0.0963223962	-4.2112829634	 2.2544509228	-0.324831
C	 1.2400344608	-5.2180402606	 2.4190246564	-0.062487
O	 0.6709273021	-6.4105837406	 2.9325962065	-0.415709
H	-0.8246587544	 1.0797670075	 0.8400761298	 0.121582
H	-1.4738665799	 0.663787127	-0.7596003885	 0.103474
H	-1.3742347262	-0.5776228592	 0.4994469655	 0.133855
H	 0.4712621313	-0.8448589784	-1.1673973557	 0.074096
H	 0.6821777068	 1.4947937084	-1.5453996659	 0.28137
H	 2.438914437	-0.718869468	 0.3570998706	 0.134085
H	 1.471839265	 0.1478828785	 1.5389645282	 0.128589
H	-0.3871805748	-4.0760500271	 3.2298253969	 0.134679
H	-0.6597175369	-4.6549114919	 1.594838684	 0.13436
H	 1.7239215714	-5.3833130297	 1.4447988033	 0.097196
H	 1.9977901965	-4.8016063155	 3.0993397919	 0.097862
H	 1.3749229423	-7.0545211467	 3.0507286368	 0.288671
25.6411	56.4953	69.6002	107.3111	125.4335	236.6166	241.6451	265.5471	268.0606	309.182	324.3834	385.4836	404.792	461.9833	506.1758	529.4791	796.0807	826.2227	839.6879	896.3552	954.4593	1001.8744	1075.5349	1079.9719	1088.6762	1101.5059	1127.0267	1165.2005	1222.3092	1226.9083	1238.6959	1272.123	1305.4078	1325.3814	1337.5048	1382.9346	1406.1794	1419.3871	1456.0631	1471.7475	1479.4342	1494.1477	1498.5045	1528.1221	2368.9061	2973.0778	2983.7639	3014.0562	3024.0555	3028.423	3029.6209	3062.113	3065.1294	3096.5727	3121.7302	3822.672	3834.4719
CC(O)CC#CCCO	C[C@@H](O)CC#CCCO	
InChI=1S/C7H12O2/c1-7(9)5-3-2-4-6-8/h7-9H,4-6H2,1H3	InChI=1S/C7H12O2/c1-7(9)5-3-2-4-6-8/h7-9H,4-6H2,1H3/t7-/m1/s1
