16
gdb 76287	2.37519	1.66671	1.07447	1.356	65.74	-0.2419	-0.0234	0.2186	1077.4611	0.127045	-471.267878	-471.259542	-471.258598	-471.301118	31.041	
N	 0.1169116811	 1.4198613642	 0.3386302711	-0.522368
C	 0.0057140407	 0.0127964951	-0.0013334475	-0.093185
C	-1.4526333809	-0.4972052483	-0.0862825962	-0.116458
N	-2.3691483874	 0.5898141333	-0.4338316014	-0.52871
C	-1.4491477968	-1.4663863761	-1.278123525	 0.439825
O	-2.3547427205	-2.1803475871	-1.6271141543	-0.354146
N	-0.2307654012	-1.3286945378	-1.9254861858	-0.357759
C	 0.6272668053	-0.3958965121	-1.3506957992	 0.404969
O	 1.6621587576	-0.0060072547	-1.8270223152	-0.349002
H	 1.0971204241	 1.6864669155	 0.3157941676	 0.246439
H	-0.3491434901	 1.9643446233	-0.3822283658	 0.244871
H	 0.5411870228	-0.5678137842	 0.760778253	 0.119724
H	-1.7403317332	-1.0538018541	 0.8164497738	 0.095705
H	-3.2760491073	 0.1962523844	-0.6663286124	 0.248937
H	-2.492191167	 1.1926194989	 0.3737087937	 0.248102
H	-0.0327671771	-1.7871139504	-2.8049451464	 0.273054
54.3027	136.4804	217.8323	252.3637	261.4194	287.7404	387.9676	401.0793	468.0314	551.5244	621.1639	655.1108	674.9996	733.9201	764.8418	817.2408	874.7951	909.4379	945.9578	981.1252	1085.7717	1162.9546	1181.0041	1188.9373	1239.811	1293.0414	1334.0989	1350.5762	1364.5636	1368.134	1415.0104	1634.7583	1653.7715	1834.1874	1879.1322	2998.5787	3034.3979	3493.1491	3499.7895	3571.0247	3582.7627	3603.6481
NC1C(N)C(=O)NC1=O	N[C@H]1[C@@H](N)C(=O)NC1=O	
InChI=1S/C4H7N3O2/c5-1-2(6)4(9)7-3(1)8/h1-2H,5-6H2,(H,7,8,9)	InChI=1S/C4H7N3O2/c5-1-2(6)4(9)7-3(1)8/h1-2H,5-6H2,(H,7,8,9)/t1-,2+
