22
gdb 104205	2.5103	1.26767	1.19153	1.2456	81.84	-0.2379	0.0692	0.3071	1195.8842	0.193401	-404.307129	-404.297526	-404.296582	-404.341122	36.769	
C	-0.4395419668	 1.5476490309	 0.2280834289	-0.46591
C	-0.0479641133	 0.0842411828	 0.0564185981	 0.246611
C	-1.2443199597	-0.7576134489	-0.3911486032	-0.114598
O	-1.6865733295	-0.2729142186	-1.6514937749	-0.425446
C	 1.2104799886	-0.2120095788	-0.8254654067	-0.25506
C	 1.7487290508	-1.1843379154	 0.2646641362	-0.300526
C	 0.7018808686	-0.6097346595	 1.2201958859	 0.326813
C	 0.920804241	-0.0726202242	 2.579763443	-0.307131
N	 0.1503623844	-1.3186808114	 2.3748579008	-0.376362
H	 0.4239699299	 2.1548939523	 0.5153952213	 0.109763
H	-0.8489796549	 1.9436720067	-0.7051656992	 0.13701
H	-1.2082825655	 1.6670997048	 1.0021885028	 0.101726
H	-0.9522196985	-1.8168975093	-0.4553046171	 0.092016
H	-2.0482663914	-0.6843129291	 0.361122193	 0.075146
H	-2.4233328361	-0.8174505152	-1.9426968992	 0.28856
H	 1.0035242712	-0.6306214258	-1.8116022491	 0.108887
H	 1.8399899414	 0.6730350919	-0.9451773416	 0.098154
H	 1.5662217979	-2.2375498962	 0.0333621203	 0.10838
H	 2.795291701	-1.0709349893	 0.557291688	 0.100394
H	 1.8839370425	-0.2094315497	 3.0656986743	 0.114837
H	 0.3886516533	 0.8271059548	 2.8784658911	 0.110152
H	-0.8442919248	-1.1237361926	 2.4702861672	 0.226584
79.8975	121.5934	163.6768	219.969	244.9819	249.896	278.0692	305.9607	353.1088	376.758	460.4329	489.8344	568.4492	689.3846	745.4177	834.7685	875.4665	884.443	925.0094	925.6054	959.2318	970.2151	977.4775	1011.8891	1038.8409	1070.7994	1116.8508	1120.9575	1142.0705	1197.8577	1202.2729	1223.6088	1244.0707	1246.914	1263.656	1282.6408	1297.5885	1335.2911	1395.2324	1406.1793	1454.8329	1478.9222	1489.9551	1496.5801	1498.5984	1515.7525	1518.181	2951.8407	2997.6756	3023.1518	3057.9147	3069.6923	3089.8589	3099.7493	3104.9634	3119.0784	3129.0852	3183.2145	3482.8725	3834.7839
CC1(CO)CCC11CN1	C[C@@]1(CO)CC[C@]21CN2	
InChI=1S/C7H13NO/c1-6(5-9)2-3-7(6)4-8-7/h8-9H,2-5H2,1H3	InChI=1S/C7H13NO/c1-6(5-9)2-3-7(6)4-8-7/h8-9H,2-5H2,1H3/t6-,7+/m0/s1
