23
gdb 118679	2.88314	0.84805	0.81205	2.0874	82.36	-0.2396	0.0669	0.3066	1562.4822	0.202741	-425.4066	-425.395263	-425.394319	-425.443154	40.773	
C	-0.1609121471	 1.4821496318	-0.2438831258	-0.415605
C	-0.0023324194	 0.0034820271	 0.0411444207	-0.083617
C	 1.3358981666	-0.6770109996	-0.080930017	 0.043276
O	 2.418513105	 0.1398759004	-0.4305497919	-0.419028
C	 0.6859583554	-0.5462759597	 1.2882861917	 0.270188
C	 1.2900711796	 0.4231197623	 2.2883008965	-0.474094
C	 0.0774175299	-1.8094109168	 1.8805376594	-0.241039
C	 1.0651014745	-2.7023348725	 2.6277347872	-0.075959
O	 0.3725614641	-3.8859622099	 2.9985710496	-0.419176
H	 0.7727942709	 2.0275392395	-0.1007032345	 0.134751
H	-0.4673326022	 1.634143625	-1.2843588997	 0.117267
H	-0.9281408285	 1.9311097337	 0.3963088034	 0.11154
H	-0.8448081074	-0.5954492759	-0.2971915286	 0.080576
H	 1.3612536406	-1.6697521014	-0.5331456615	 0.078437
H	 3.2000670013	-0.188983716	 0.0253411795	 0.286544
H	 1.7559782808	 1.2766264875	 1.7942768322	 0.128875
H	 0.5250998725	 0.8033619263	 2.9752591446	 0.116633
H	 2.0618006768	-0.0594865932	 2.8990319671	 0.108054
H	-0.7430250228	-1.5489432553	 2.5620515383	 0.100817
H	-0.3680369208	-2.4141073885	 1.0819620897	 0.103191
H	 1.9239319158	-2.9307603989	 1.9743934314	 0.077732
H	 1.4591173111	-2.1840920459	 3.5151432692	 0.086184
H	 0.9704921233	-4.43618102	 3.5125369987	 0.284453
68.4445	81.5139	116.3053	133.6242	148.5727	199.5704	227.1872	267.4921	286.3018	291.0431	309.0152	342.1879	357.771	495.0655	560.3712	583.1083	719.7838	789.4399	811.8375	859.6292	959.1719	981.3265	1007.1046	1014.1992	1060.5331	1068.2673	1081.034	1106.4168	1137.7766	1172.9363	1184.6928	1223.7993	1246.2179	1258.1249	1294.9763	1301.9996	1341.1135	1358.7882	1374.467	1409.6567	1419.0939	1458.7269	1461.7024	1483.909	1490.4049	1495.9908	1504.0552	1518.6348	1528.222	2958.9759	2994.443	3022.6474	3029.809	3036.7019	3066.6747	3078.9628	3081.697	3089.8072	3123.7531	3135.0553	3145.5173	3807.1465	3830.3549
CC1C(O)C1(C)CCO	C[C@H]1[C@@H](O)[C@]1(C)CCO	
InChI=1S/C7H14O2/c1-5-6(9)7(5,2)3-4-8/h5-6,8-9H,3-4H2,1-2H3	InChI=1S/C7H14O2/c1-5-6(9)7(5,2)3-4-8/h5-6,8-9H,3-4H2,1-2H3/t5-,6+,7+/m0/s1
