14
gdb 131719	5.08508	0.94376	0.81648	3.677	67.12	-0.2773	-0.0693	0.208	1314.6991	0.101711	-470.032376	-470.024432	-470.023488	-470.065806	27.738	
O	 0.2026290976	 1.2014380885	-0.5170591689	-0.411375
C	 0.0082827248	 0.0402889366	 0.2614609904	-0.155246
C	-1.4156730813	-0.426927237	 0.204008972	 0.356225
N	-2.0914973235	-0.8928535191	 1.2291958877	-0.264656
N	-3.3031398305	-1.1950577467	 0.6717512482	-0.028393
C	-4.38702885	-1.732088104	 1.3927728601	 0.19547
O	-4.3681858952	-1.9909069914	 2.5575553538	-0.237671
C	-3.2780732977	-0.8803536218	-0.6596319423	 0.035572
N	-2.111486401	-0.3992180728	-0.9903511479	-0.323445
H	-0.2356610591	 1.0481172832	-1.3628496102	 0.299234
H	 0.6635336281	-0.7835537071	-0.0680425593	 0.112936
H	 0.2731540235	 0.2770852165	 1.2946710349	 0.142698
H	-5.2547165993	-1.8797802021	 0.7245643012	 0.111794
H	-4.1279942364	-1.0253351128	-1.3104414997	 0.166857
51.7089	124.822	155.412	196.5853	254.1129	330.8533	385.0573	453.8816	526.3658	645.1897	683.4374	774.1987	826.9551	871.7679	984.0955	1009.6122	1021.2662	1027.8049	1083.4271	1212.6794	1214.6314	1285.0718	1337.717	1362.0722	1393.0597	1427.1156	1450.6478	1498.5961	1505.3694	1594.3279	1860.1859	2966.0416	2978.9162	3106.7676	3254.8693	3791.4671
OCC1=NN(C=O)C=N1	OCc1nn(C=O)cn1	
InChI=1S/C4H5N3O2/c8-1-4-5-2-7(3-9)6-4/h2-3,8H,1H2	InChI=1S/C4H5N3O2/c8-1-4-5-2-7(3-9)6-4/h2-3,8H,1H2
