17
gdb 65060	2.32314	1.56185	1.23311	3.9653	72.3	-0.2462	0.0052	0.2515	1068.8161	0.134772	-417.969366	-417.960406	-417.959462	-418.003123	33.125	
N	-0.0440890215	 1.3561561117	 0.564082214	-0.579739
C	-0.0005910353	 0.0066246133	 0.0507196669	 0.210342
C	 0.8920391728	-0.3162501486	-1.1098954456	-0.316699
C	 1.1904784198	-0.9080094519	 0.2512468971	-0.297224
C	-1.3732000227	-0.6271714113	 0.0793299643	 0.260691
C	-2.2897901044	-0.5505959744	-1.0713797951	-0.203364
O	-1.5958137709	-1.761925496	-0.756174404	-0.261562
C	-1.9496954239	-0.7297445389	 1.4134205077	 0.265622
N	-2.3688321988	-0.7829733893	 2.4890485689	-0.334748
H	-0.0069366047	 1.35983388	 1.5794545927	 0.245723
H	 0.7444149833	 1.8972946914	 0.2298489904	 0.23593
H	 0.513851742	-0.9889387986	-1.8702741563	 0.137806
H	 1.5296859682	 0.4792314346	-1.4817616936	 0.114747
H	 2.0280002433	-0.5097306908	 0.8132351614	 0.11476
H	 1.0129704213	-1.9699827437	 0.3824337993	 0.132221
H	-3.3646323607	-0.5763938395	-0.9101874209	 0.141442
H	-1.9439066078	-0.0297501181	-1.9611909773	 0.134053
62.4349	124.3718	148.2999	185.6263	248.4621	263.3912	327.5692	360.2117	451.8761	485.7232	551.9744	593.0867	619.8357	780.9364	797.3847	842.3322	886.8406	907.0935	915.987	954.5726	975.8601	995.3633	1054.8989	1093.8535	1130.2883	1148.6769	1170.1909	1192.8391	1212.2986	1315.4324	1354.7744	1403.2731	1455.3617	1494.9608	1517.2714	1654.4345	2357.9878	3103.9567	3133.8253	3136.8471	3202.9211	3219.6481	3232.8721	3500.3903	3591.7856
NC1(CC1)C1(CO1)C#N	NC1(CC1)[C@]1(CO1)C#N	
InChI=1S/C6H8N2O/c7-3-6(4-9-6)5(8)1-2-5/h1-2,4,8H2	InChI=1S/C6H8N2O/c7-3-6(4-9-6)5(8)1-2-5/h1-2,4,8H2/t6-/m1/s1
