13
gdb 5338	6.05867	1.52914	1.22098	1.9174	76.14	-0.2582	-0.0515	0.2067	916.766	0.097511	-324.353627	-324.34728	-324.346336	-324.384035	24.274	
C	 0.0184741012	-1.2119101511	-0.0038824127	-0.394914
C	 0.0021347895	-0.0082292538	 0.0026528562	 0.214851
C	-0.0171740442	 1.4155338461	 0.0104487035	 0.170512
C	-1.2247366313	 2.1268046774	 0.0305556977	-0.206353
C	-1.1841881873	 3.5157084233	 0.037354637	 0.018382
N	-0.0553589311	 4.2310620348	 0.0258555343	-0.266041
C	 1.0924527794	 3.5467526199	 0.0066951983	 0.018383
C	 1.1706525698	 2.159468044	-0.0016976183	-0.206352
H	 0.0329238607	-2.2739173154	-0.0096175103	 0.201254
H	-2.171149815	 1.5996365302	 0.0405764206	 0.111538
H	-2.1110148881	 4.0842558203	 0.0529030507	 0.113601
H	 2.0035180421	 4.1403613216	-0.0024946024	 0.113601
H	 2.1310122942	 1.6583006826	-0.0173492745	 0.111538
141.1394	156.3813	364.693	386.8021	464.8167	531.4271	569.2374	622.8151	644.2283	683.186	766.35	784.6145	851.3111	893.2007	992.7814	1002.6731	1006.5778	1092.4503	1106.8491	1230.2847	1250.8016	1275.1931	1351.363	1440.6328	1522.015	1578.8226	1630.6033	2230.1379	3155.589	3158.5466	3207.4037	3208.0785	3501.4657
C#CC1=CC=NC=C1	C#Cc1ccncc1	
InChI=1S/C7H5N/c1-2-7-3-5-8-6-4-7/h1,3-6H	InChI=1S/C7H5N/c1-2-7-3-5-8-6-4-7/h1,3-6H
