19
gdb 53175	2.92401	1.08457	0.95198	1.7394	83.82	-0.2444	0.0435	0.2878	1329.2914	0.157986	-385.835936	-385.826457	-385.825513	-385.871461	34.164	
C	-0.0226655921	 1.4939800386	 0.0081036424	-0.500574
C	 0.0055631988	 0.0375870229	 0.0203625829	 0.08076
C	 0.0736766737	-1.1673153236	 0.0193318233	 0.069886
C	 0.0575098197	-2.6184761858	 0.0360486232	-0.265105
C	 0.3129255075	-3.3273838784	 1.3832849301	-0.040021
C	-0.6986799701	-2.8880955391	 2.3969883439	-0.29514
C	-1.0984023471	-3.9222707544	 1.3818332342	-0.070298
C	-1.384864377	-3.2932033511	 0.0150930997	 0.131498
O	-2.5054317724	-2.4751871582	-0.1634206046	-0.434405
H	 0.959889819	 1.9044960854	-0.2496196038	 0.152061
H	-0.7418527136	 1.872766683	-0.7263678486	 0.151278
H	-0.3034399444	 1.8976862714	 0.9870435501	 0.148809
H	 0.6799482157	-3.0191192095	-0.7684962931	 0.099121
H	 1.2500605187	-3.7964058353	 1.6541338294	 0.090879
H	-0.5485676221	-3.2703067881	 3.4012683934	 0.113891
H	-1.1037766488	-1.8802204856	 2.3648940965	 0.108735
H	-1.4164580695	-4.9143995767	 1.6788632884	 0.086049
H	-1.4255049313	-4.0585701334	-0.7647777163	 0.091284
H	-2.2856775748	-1.5976042322	 0.1734715388	 0.281292
31.9341	79.3639	86.2038	144.5782	208.9436	272.7823	280.7099	365.9424	398.8369	488.6288	521.7961	603.8829	698.7642	755.315	788.8532	811.9391	902.1749	924.1019	976.8453	999.4873	1022.3947	1049.8143	1053.4215	1054.6446	1063.2124	1080.2073	1130.6572	1138.1603	1180.1255	1202.0869	1256.388	1287.8735	1321.8018	1334.9273	1367.2287	1414.509	1435.1067	1478.0538	1478.7727	1493.6337	2352.5223	3027.7388	3062.3757	3077.1768	3088.877	3089.2906	3117.9703	3179.8852	3192.6412	3206.8027	3768.2865
CC#CC1C2CC2C1O	CC#C[C@H]1[C@H]2C[C@H]2[C@H]1O	
InChI=1S/C8H10O/c1-2-3-5-6-4-7(6)8(5)9/h5-9H,4H2,1H3	InChI=1S/C8H10O/c1-2-3-5-6-4-7(6)8(5)9/h5-9H,4H2,1H3/t5-,6+,7+,8-/m0/s1
