15
gdb 12307	2.98018	2.20227	1.3354	4.9761	61.78	-0.2346	-0.0804	0.1543	879.4472	0.119682	-399.819729	-399.812549	-399.811605	-399.851786	26.389	
O	 0.0008493514	 0.0227611927	 0.3827279103	-0.26998
C	-0.0368355526	 1.1999378914	 0.1334594675	 0.299344
C	-1.3230194165	 1.9957440422	-0.0004752802	-0.285177
C	-1.1974000247	 3.1539210228	-0.9989025828	-0.183454
N	-0.0471901435	 3.9692475844	-0.6238607318	-0.300415
C	 1.2170744227	 3.2827256651	-0.8646900691	-0.276346
C	 1.3004124929	 1.9838086391	-0.0697763993	 0.325052
O	 2.336313681	 1.5320278482	 0.3414265594	-0.266765
H	-2.1377167275	 1.309748066	-0.2476664622	 0.12759
H	-1.5289427982	 2.4213522852	 0.9912332103	 0.144472
H	-1.1216108242	 2.7514118482	-2.0270028389	 0.091553
H	-2.0982153386	 3.772795352	-0.9598409317	 0.114746
H	-0.0576317669	 4.8531375432	-1.1193668804	 0.232405
H	 1.3664158288	 2.9959799115	-1.9273885948	 0.110681
H	 2.0606828162	 3.9155208679	-0.5773195362	 0.136296
46.5406	124.725	320.5012	329.3947	337.5601	401.1279	433.952	525.5689	625.4667	639.168	650.1616	789.7477	903.0307	921.3376	952.8726	1004.0565	1077.534	1116.3854	1143.0802	1167.0751	1194.6335	1259.26	1280.4062	1323.8217	1342.7676	1410.8015	1441.598	1469.7663	1482.2866	1509.9019	1815.5472	1836.0219	2884.0745	2922.6905	3027.9414	3083.0806	3097.0033	3103.894	3539.4291
O=C1CCNCC1=O	O=C1CCNCC1=O	
InChI=1S/C5H7NO2/c7-4-1-2-6-3-5(4)8/h6H,1-3H2	InChI=1S/C5H7NO2/c7-4-1-2-6-3-5(4)8/h6H,1-3H2
