23
gdb 101780	4.10394	0.66059	0.60606	2.0041	83.68	-0.2652	0.0196	0.2848	1930.1349	0.202581	-425.480149	-425.46867	-425.467726	-425.518482	39.679	
C	 0.0305286544	 1.533515804	 0.0907621922	-0.392341
C	-0.0377055451	 0.0057330924	 0.004170223	-0.171254
C	-1.4670613727	-0.5684522867	 0.0002476067	 0.016588
C	-2.2812182657	-0.1332776051	-1.2259571759	-0.392588
C	-1.3952935979	-2.0897803542	 0.0991724363	-0.063628
O	-2.7334207547	-2.599808186	 0.2596618911	-0.245143
C	-2.8517330856	-3.9428439117	 0.3144078711	 0.426955
C	-4.2983835384	-4.3438909585	 0.4822631104	-0.478773
O	-1.9174663715	-4.7000640046	 0.23817558	-0.350115
H	 1.06907767	 1.8731120233	 0.1504432291	 0.11488
H	-0.4215277084	 2.0136301137	-0.7821301356	 0.120655
H	-0.4911590913	 1.9022578021	 0.9810928525	 0.115036
H	 0.4877574806	-0.3334480184	-0.8992608986	 0.097277
H	 0.5115577503	-0.4221209082	 0.8528162836	 0.095967
H	-1.9811379843	-0.2096855884	 0.9033683634	 0.079644
H	-3.2659042325	-0.6068450931	-1.2222453718	 0.125396
H	-2.4293108054	 0.9495490033	-1.2490271007	 0.115947
H	-1.7706266442	-0.4216241078	-2.1531296505	 0.110703
H	-0.9506613156	-2.5318976672	-0.7997549001	 0.116897
H	-0.792069457	-2.4093024194	 0.9553524009	 0.114257
H	-4.8910512147	-3.9710213909	-0.3579912524	 0.148137
H	-4.370019813	-5.4295003209	 0.5345886828	 0.147316
H	-4.7090962372	-3.8975305677	 1.3922908626	 0.148188
34.592	55.8402	71.4995	89.0879	111.6624	188.1935	211.6178	246.7498	262.459	269.608	324.1292	413.5193	474.6072	482.3412	607.4377	645.6224	777.2041	822.6658	913.6073	924.9514	928.8982	977.1501	987.5836	1025.9211	1045.3252	1064.4836	1072.103	1162.209	1176.3837	1192.5074	1262.5758	1270.5537	1295.417	1315.7534	1379.9209	1380.9846	1390.3836	1406.6439	1416.6921	1421.0633	1469.9198	1476.5944	1484.2304	1494.551	1500.4829	1505.3358	1510.7108	1514.7819	1824.3317	3005.0544	3012.4316	3031.7812	3035.2675	3040.2984	3045.4714	3056.9263	3085.447	3100.4972	3102.5246	3110.6101	3121.508	3125.1311	3168.9026
CCC(C)COC(C)=O	CC[C@@H](C)COC(=O)C	
InChI=1S/C7H14O2/c1-4-6(2)5-9-7(3)8/h6H,4-5H2,1-3H3	InChI=1S/C7H14O2/c1-4-6(2)5-9-7(3)8/h6H,4-5H2,1-3H3/t6-/m1/s1
