17
gdb 78902	2.91788	2.11745	1.70761	2.7278	68.64	-0.2365	0.0606	0.297	834.7585	0.139093	-421.776362	-421.770393	-421.769449	-421.806377	25.952	
O	 0.0514442525	 1.4115489276	 0.0048891589	-0.44256
C	 0.0255207182	 0.0034445178	 0.0066820201	 0.148323
C	-1.3636070008	-0.6246938996	-0.0847677044	-0.109568
C	-1.9578828626	-0.8456926382	-1.4728535371	-0.098783
C	-1.301825222	-1.9897055609	-0.6906230254	-0.105376
C	-0.0659490017	-1.8704645983	-1.6231675281	-0.106709
C	-0.8268359238	-0.8779733863	-2.5218573619	 0.108685
O	 0.1819351036	 0.1531306092	-2.3819220561	-0.325237
C	 0.7215401385	-0.5800413123	-1.2353803982	 0.032364
H	-0.1226722426	 1.6603800135	-0.9149607943	 0.284503
H	 0.518455808	-0.3233230371	 0.9300245835	 0.083384
H	-2.0812098147	-0.4246776878	 0.7028849979	 0.09466
H	-3.0072056183	-0.6590014845	-1.6646842032	 0.089736
H	-1.7338603622	-2.8925860698	-0.2822107457	 0.094215
H	 0.4611847843	-2.7413533467	-2.0015535229	 0.082936
H	-1.1142142949	-1.0602485238	-3.5582067121	 0.085585
H	 1.8122412683	-0.5586967627	-1.2217923009	 0.083844
184.8966	294.6719	451.3278	519.2699	525.3032	545.135	646.6504	684.1078	734.7088	772.4891	810.8832	840.3538	867.7694	891.679	901.5061	937.1956	946.7466	960.5795	979.1286	998.115	1041.082	1052.141	1070.5407	1096.9875	1106.0896	1160.6523	1200.2017	1225.7432	1241.5577	1257.7557	1281.1841	1291.9778	1301.3042	1329.4199	1346.9005	1394.7413	1445.2201	3043.4273	3102.8347	3106.1025	3159.5598	3179.3583	3188.6816	3211.9475	3727.0227
OC1C2C3C2C2C3OC12	O[C@H]1[C@H]2[C@@H]3[C@H]2[C@H]2[C@@H]3O[C@@H]12	
InChI=1S/C7H8O2/c8-5-2-1-3(2)6-4(1)7(5)9-6/h1-8H	InChI=1S/C7H8O2/c8-5-2-1-3(2)6-4(1)7(5)9-6/h1-8H/t1-,2+,3-,4-,5-,6+,7+/m0/s1
