20
gdb 99098	2.95799	1.00679	0.88262	3.7166	76.03	-0.2502	-0.0234	0.2268	1383.1796	0.168956	-440.277369	-440.267537	-440.266592	-440.312852	35.898	
C	-0.2177626993	 1.5128513342	-0.7242937327	-0.462345
C	-0.2417009981	 0.1202052396	-0.1284440456	 0.330249
C	-1.6248990965	-0.4052638237	 0.2690171649	-0.348158
C	-2.1603113448	 0.3649485258	 1.4613216496	 0.364929
O	-2.6960423574	 1.4510234875	 1.3562807235	-0.334157
C	-1.9585505545	-0.2377785531	 2.8386903703	-0.139482
O	-2.4192634213	 0.6120016639	 3.8460167575	-0.423245
C	 0.7980259361	-0.8563362954	-0.5451210728	-0.286685
N	 0.8231818149	-0.2782984243	 0.8114253734	-0.341116
H	 0.8070975648	 1.8130735722	-0.9651360406	 0.110477
H	-0.8055902192	 1.551329719	-1.6478492675	 0.127768
H	-0.6455103444	 2.2466456423	-0.035241126	 0.149052
H	-2.3203507645	-0.2849545559	-0.5676019404	 0.125895
H	-1.5472970836	-1.4675890323	 0.5169827132	 0.113498
H	-2.479619069	-1.2114279798	 2.8596546282	 0.109607
H	-0.8842021754	-0.4623523997	 2.9434293633	 0.144392
H	-2.7902120308	 1.3761226898	 3.3758880765	 0.290811
H	 0.5707196813	-1.9182829349	-0.5867518871	 0.119202
H	 1.5428996194	-0.5269722865	-1.2651640593	 0.115558
H	 1.5314762621	 0.4489988113	 0.8699692413	 0.233749
39.0458	71.0377	114.9976	180.3899	208.5044	265.5642	324.6217	338.0103	377.0773	398.9891	418.2606	444.1743	528.6102	676.9816	716.3638	815.8156	842.2758	898.6111	928.0847	945.1598	979.5921	995.4637	1034.8747	1050.8911	1107.7153	1120.297	1133.939	1162.8206	1229.7424	1242.5195	1265.873	1300.0554	1322.7511	1337.6474	1387.0419	1424.6377	1448.099	1466.387	1483.2331	1493.2989	1501.3051	1515.6229	1784.9696	2958.8419	2995.7393	3033.5264	3052.673	3098.7774	3104.9166	3108.8484	3116.1505	3189.4091	3501.3135	3681.5962
CC1(CC(=O)CO)CN1	C[C@@]1(CC(=O)CO)CN1	
InChI=1S/C6H11NO2/c1-6(4-7-6)2-5(9)3-8/h7-8H,2-4H2,1H3	InChI=1S/C6H11NO2/c1-6(4-7-6)2-5(9)3-8/h7-8H,2-4H2,1H3/t6-/m1/s1
