15
gdb 86842	2.9571	1.3138	1.06969	2.7651	66.95	-0.2769	-0.0034	0.2735	1127.4339	0.110708	-457.763902	-457.75551	-457.754566	-457.797366	30.443	
C	-0.2391739136	 1.4598394125	-0.0923210828	-0.406125
C	 0.1464261818	-0.0058510795	-0.0140511267	-0.029338
O	 1.1232109545	-0.3306841955	-1.0012525931	-0.244491
C	 1.9452663113	-1.3312901214	-0.4452452521	-0.020771
O	 1.935150674	-1.1258191315	 0.9752454561	-0.210955
C	 0.8361816741	-0.3836478639	 1.2957408773	 0.426259
O	 0.5296854724	-0.1045954739	 2.4143481785	-0.326951
C	 1.4841161517	-2.687700397	-0.7625346461	 0.356488
C	 1.112537614	-3.7937900104	-1.0450284889	-0.438885
H	 0.647997302	 2.0934107486	-0.0144674849	 0.136629
H	-0.7426126593	 1.6720015194	-1.0382458614	 0.135073
H	-0.9148150242	 1.6968958132	 0.7332951383	 0.148863
H	-0.7417075714	-0.6470765197	-0.1267922352	 0.121651
H	 2.9670944296	-1.1722787894	-0.8005986892	 0.138271
H	 0.7861096332	-4.7746823716	-1.2918322599	 0.214281
72.0594	89.8506	189.2087	204.5363	242.0855	262.9511	382.5095	468.0428	521.7672	572.7023	621.5819	674.4968	686.6932	721.0327	787.7121	836.0002	886.1887	955.1742	979.5498	1051.1452	1095.0235	1106.6669	1142.9862	1205.7204	1320.7353	1341.8963	1363.808	1380.5561	1406.0412	1483.5279	1497.1581	1902.9463	2242.8051	2991.9431	3054.9217	3081.2632	3135.2028	3138.9115	3497.6708
CC1OC(OC1=O)C#C	C[C@H]1O[C@@H](OC1=O)C#C	
InChI=1S/C6H6O3/c1-3-5-8-4(2)6(7)9-5/h1,4-5H,2H3	InChI=1S/C6H6O3/c1-3-5-8-4(2)6(7)9-5/h1,4-5H,2H3/t4-,5+/m1/s1
