21
gdb 41690	2.97572	1.75477	1.47337	1.6427	80.2	-0.2341	0.08	0.3141	981.3423	0.186392	-387.07621	-387.069273	-387.068329	-387.107309	29.188	
C	-0.0015330889	 1.4686224073	 0.3585598146	-0.21382
C	 1.4825179008	 1.5923129999	-0.0781720449	-0.234242
C	 1.3890618595	 0.1980665305	-0.7573215026	-0.017347
C	-0.007163932	-0.0315291203	-0.063622497	 0.016331
C	-1.1504889343	-0.5011833601	-0.9918610198	-0.247647
C	-0.7279246001	-0.332214217	-2.452381191	 0.107358
C	 0.5768917254	-1.0957229248	-2.759973377	-0.251051
C	 1.2162147929	 0.21738286	-2.2681116084	 0.08349
O	-0.0144821822	 0.9334808691	-2.6002731219	-0.302433
H	-0.2211490041	 1.6723621985	 1.4100301444	 0.086609
H	-0.6666233853	 2.0679321848	-0.2655882503	 0.111734
H	 1.7234086214	 2.4293619361	-0.7385282665	 0.101318
H	 2.1811385971	 1.6031385906	 0.7622506157	 0.094542
H	 2.1795666396	-0.511739972	-0.4914173373	 0.06215
H	 0.0770412226	-0.6862158233	 0.8068830837	 0.064948
H	-1.4123948632	-1.5523066095	-0.8177835819	 0.093072
H	-2.0530918284	 0.0879358984	-0.7913652775	 0.10131
H	-1.559937678	-0.4161792439	-3.1568149295	 0.072175
H	 0.7853971658	-2.0122552139	-2.2020555617	 0.094388
H	 0.7219056664	-1.2585209008	-3.8290560364	 0.106104
H	 2.0797580851	 0.6277819002	-2.8013203146	 0.071011
119.167	189.0493	303.3612	360.8861	400.5491	453.4703	522.7891	639.0198	695.3493	746.6485	784.1251	844.2667	856.6834	859.6273	897.1116	927.8186	939.7885	954.0714	959.7217	978.5616	1004.1325	1046.4953	1061.416	1085.1363	1097.3936	1114.9852	1145.7961	1192.9113	1206.6432	1235.068	1236.4158	1255.4789	1267.6186	1276.0303	1283.2036	1311.3882	1317.3243	1338.4312	1359.9612	1366.7024	1374.3156	1470.1757	1480.4694	1490.5874	1492.3338	3023.3552	3042.4422	3054.3615	3057.2002	3058.4252	3063.3647	3065.7506	3073.1251	3076.9754	3103.1131	3126.5688	3129.6813
C1CC2C1CC1CC2O1	C1C[C@H]2[C@@H]1C[C@@H]1C[C@H]2O1	
InChI=1S/C8H12O/c1-2-7-5(1)3-6-4-8(7)9-6/h5-8H,1-4H2	InChI=1S/C8H12O/c1-2-7-5(1)3-6-4-8(7)9-6/h5-8H,1-4H2/t5-,6+,7-,8+/m0/s1
