16
gdb 105340	2.42574	1.50111	1.15444	1.8775	68.4	-0.2745	0.0142	0.2887	1072.0297	0.123555	-437.847719	-437.83944	-437.838495	-437.880776	30.664	
O	 0.1587371945	 1.3360360643	-0.228046376	-0.416444
C	 0.053180464	-0.0372065016	 0.0777371885	-0.123184
C	-1.4030880766	-0.532630537	 0.0204148777	 0.110694
C	-2.1089198574	-0.4889515752	-1.3984255373	-0.301899
C	-2.2413952666	-2.0137423671	-1.3287318157	 0.048705
O	-0.9210891683	-2.5519156209	-1.1633445169	-0.239821
C	-1.6015325532	-2.0787733904	-0.0076137478	-0.027244
C	-2.1977318775	 0.1198706471	 1.0520039686	 0.222797
N	-2.7951904077	 0.6555514562	 1.8854126798	-0.340459
H	-0.2447134646	 1.8376920843	 0.4893910883	 0.298963
H	 0.6170384696	-0.5762553579	-0.6861033723	 0.138776
H	 0.4848317321	-0.278399837	 1.0602277225	 0.105927
H	-3.0652780399	 0.0346105794	-1.3703432607	 0.137846
H	-1.4902352784	-0.0972230196	-2.2072835432	 0.137713
H	-2.9846116337	-2.6585139602	-1.7804974863	 0.12164
H	-1.7243553464	-2.7498114641	 0.8337813808	 0.12599
90.6114	129.5068	163.2207	177.0473	251.4278	372.7665	382.697	416.1418	503.3255	542.4007	570.4777	663.0238	787.71	848.5405	861.5448	909.6488	918.5976	961.0712	995.8118	1033.1948	1047.2711	1088.9099	1108.5916	1120.8588	1196.6236	1226.7152	1233.9177	1266.9015	1296.8246	1372.2757	1393.3487	1417.0321	1472.2125	1506.7192	2344.951	3000.2452	3087.8717	3118.3691	3150.9445	3193.9033	3209.7511	3801.1949
OCC1(CC2OC12)C#N	OC[C@]1(C[C@H]2O[C@@H]12)C#N	
InChI=1S/C6H7NO2/c7-2-6(3-8)1-4-5(6)9-4/h4-5,8H,1,3H2	InChI=1S/C6H7NO2/c7-2-6(3-8)1-4-5(6)9-4/h4-5,8H,1,3H2/t4-,5-,6+/m1/s1
