21
gdb 63590	2.86252	1.32092	1.15415	2.6798	78.71	-0.2209	0.0723	0.2933	1173.2756	0.18207	-424.220972	-424.212023	-424.211079	-424.2546	34.798	
C	-0.249511039	 1.487949343	 0.0949674777	-0.44099
C	 0.0277976295	 0.0075355675	 0.0697450084	 0.376633
O	-1.1174245812	-0.727667063	-0.2542635072	-0.47983
C	 1.3732209883	-0.520208724	-0.4168471361	-0.427129
C	 0.9869593822	-0.6562331828	 1.0318031771	 0.368786
C	 1.6688623385	 0.0207589335	 2.2210423623	-0.320118
C	 1.6586591737	-1.0803479271	 3.3051231048	-0.211293
C	 0.5031656139	-1.9737216491	 2.8464569826	-0.090195
O	 0.5958385033	-1.9684180906	 1.4217725228	-0.300183
H	 0.653156113	 2.0602242104	 0.3259868776	 0.11152
H	-0.6169755589	 1.8165561214	-0.8828717061	 0.128607
H	-1.016277161	 1.7274664846	 0.8394374469	 0.117912
H	-1.0290654398	-1.5716639535	 0.2118028297	 0.286562
H	 1.3537556683	-1.4271133741	-1.0125165501	 0.118781
H	 2.1584662683	 0.1854012394	-0.6720943828	 0.106799
H	 2.681868476	 0.3538291504	 1.9818397375	 0.111865
H	 1.1021535481	 0.8977293158	 2.5489863013	 0.112888
H	 2.5933905547	-1.648066825	 3.2828277839	 0.114572
H	 1.5205322154	-0.6890539008	 4.3157481032	 0.105092
H	 0.576686922	-3.0116622067	 3.1797171344	 0.112376
H	-0.4659145653	-1.5661106794	 3.1735077721	 0.097344
49.4614	157.0983	178.188	207.9701	234.329	301.1359	377.4802	403.5875	434.7343	483.4323	498.219	592.2947	612.4681	733.8392	754.8885	842.574	875.1469	893.1858	905.1609	926.1635	941.5233	975.1379	1012.9736	1029.8236	1053.2839	1105.3137	1124.153	1155.7993	1188.4072	1204.1229	1227.44	1257.1701	1264.889	1306.8639	1337.0504	1360.088	1386.8583	1402.2941	1434.3377	1472.9647	1482.8588	1487.365	1502.3087	1508.4404	1519.9969	2985.8539	3033.5468	3053.2484	3060.8432	3094.4218	3097.5826	3100.7405	3113.9061	3117.3819	3118.8971	3213.8917	3726.1704
CC1(O)CC11CCCO1	C[C@@]1(O)C[C@]21CCCO2	
InChI=1S/C7H12O2/c1-6(8)5-7(6)3-2-4-9-7/h8H,2-5H2,1H3	InChI=1S/C7H12O2/c1-6(8)5-7(6)3-2-4-9-7/h8H,2-5H2,1H3/t6-,7+/m1/s1
