16
gdb 30357	3.05648	1.58098	1.08382	2.4405	71.22	-0.1932	0.019	0.2122	1055.6962	0.126973	-437.890786	-437.883526	-437.882582	-437.922468	28.458	
O	 0.0993681183	 1.3981459284	-0.2286787351	-0.42374
C	 0.0286875179	-0.003072697	-0.0231153358	-0.048003
C	 0.5620367194	-0.4460651995	 1.3841189245	-0.203125
N	-0.2895458612	-1.585847052	 1.7977304063	-0.420078
C	-1.512886837	-1.4056183309	 1.1387403894	 0.217873
C	-2.7984117663	-1.8411125258	 1.1506485059	-0.14595
O	-3.4726273864	-1.2387987001	 0.1056421508	-0.161897
C	-2.5944364698	-0.4388733448	-0.5547603447	-0.160618
C	-1.381501813	-0.4997415141	 0.0448698299	 0.258797
H	 1.0122580922	 1.6220931142	-0.4357033891	 0.285593
H	 0.5851675016	-0.5268760203	-0.8157652152	 0.087949
H	 1.6158191323	-0.7402968487	 1.3660984311	 0.100704
H	 0.4484279311	 0.4227278193	 2.048638093	 0.109268
H	-0.3391128684	-1.7255949699	 2.7979661066	 0.236089
H	-3.3837750535	-2.5002857719	 1.7665610448	 0.126169
H	-2.9952619072	 0.1062817429	-1.3928429423	 0.140968
110.1562	178.7235	267.2276	275.4523	332.3657	471.6964	525.1947	549.0151	591.1653	621.8645	657.27	692.0535	743.9873	779.4352	798.1714	926.5178	970.2058	1007.3113	1040.2507	1056.836	1096.1548	1146.3611	1155.1078	1213.8262	1236.3531	1246.3494	1295.8045	1311.0663	1330.2887	1396.7352	1433.5425	1451.6037	1510.3639	1610.241	1691.8385	2974.1035	3000.9104	3077.8081	3277.8358	3292.7471	3573.4567	3817.4812
OC1CNC2=COC=C12	O[C@H]1CNc2cocc12	
InChI=1S/C6H7NO2/c8-6-1-7-5-3-9-2-4(5)6/h2-3,6-8H,1H2	InChI=1S/C6H7NO2/c8-6-1-7-5-3-9-2-4(5)6/h2-3,6-8H,1H2/t6-/m0/s1
