19
gdb 94300	3.11891	1.18756	1.01921	3.1322	75.62	-0.2358	-0.0224	0.2134	1216.1374	0.157175	-423.020382	-423.01167	-423.010726	-423.054592	32.737	
C	-0.2385956903	 1.5015914788	-0.1399011414	-0.414501
C	 0.0964056171	 0.0186317541	-0.1728385728	-0.105334
C	 1.4761916316	-0.3896416605	-0.7321340178	-0.087627
O	 1.8264931709	-1.0556039549	 0.4993629093	-0.315818
C	 0.5912357172	-0.676703075	 1.1244640531	 0.43528
C	 0.6921900503	 0.0674396269	 2.4886379935	-0.416051
C	-0.3328311248	-0.9300109434	 3.0484063878	 0.405708
O	-1.0048005567	-0.9635591157	 4.0376940538	-0.292573
C	-0.2323650887	-1.8118417225	 1.7953301569	-0.415237
H	 0.575191236	 2.086224051	 0.301890061	 0.124235
H	-0.4065095	 1.8801198036	-1.1538279735	 0.122945
H	-1.1479214738	 1.6961961529	 0.4387413819	 0.125132
H	-0.7221297083	-0.5406611894	-0.6353840068	 0.084293
H	 1.4756164569	-1.0782939094	-1.584635798	 0.105154
H	 2.153041673	 0.4471812247	-0.948543117	 0.100803
H	 1.6833783311	-0.0720147079	 2.9342740963	 0.144236
H	 0.4274578482	 1.1263168947	 2.5374035557	 0.128232
H	-1.1714251759	-2.1205611087	 1.3274512209	 0.126222
H	 0.3877237161	-2.6983755294	 1.9695936568	 0.144901
47.9033	49.9611	214.837	230.359	265.695	324.4527	381.4086	411.0442	436.1618	471.8856	534.5149	644.3281	716.2371	741.9789	837.7721	895.3712	912.0256	930.1029	940.8757	987.1131	1025.09	1055.2166	1100.6526	1109.5193	1141.4363	1150.9694	1159.4928	1181.1088	1200.5332	1224.0445	1272.2488	1294.8632	1343.7109	1384.1015	1410.0087	1413.9329	1431.1236	1496.8692	1497.6063	1527.7631	1896.6308	3013.3477	3030.4836	3048.9694	3052.3158	3057.1649	3068.2766	3097.9163	3103.3821	3109.2525	3119.6134
CC1COC11CC(=O)C1	C[C@H]1COC21CC(=O)C2	
InChI=1S/C7H10O2/c1-5-4-9-7(5)2-6(8)3-7/h5H,2-4H2,1H3	InChI=1S/C7H10O2/c1-5-4-9-7(5)2-6(8)3-7/h5H,2-4H2,1H3/t5-/m0/s1
