23
gdb 100334	2.39757	1.10738	0.93113	1.4825	87.21	-0.2547	0.046	0.3008	1400.1166	0.201574	-388.266112	-388.254759	-388.253814	-388.302338	42.079	
C	 0.6323678453	 0.0063858897	-1.3397048978	-0.401835
C	-0.0627586272	 0.1091383509	 0.0204501444	-0.189516
C	 0.6326474869	-0.6078377165	 1.1908861432	 0.347216
O	-0.2397285049	-0.3832572142	 2.3001523084	-0.459538
C	 0.8125210308	-2.1263504662	 0.964508351	-0.195245
C	-0.488834234	-2.889976651	 0.7056191016	-0.398952
C	 2.0311620853	 0.0043683569	 1.4957653244	-0.413157
C	 2.0202750545	 1.4321571937	 1.7839614843	 0.325426
C	 2.0219196557	 2.6113093886	 2.0172623676	-0.446534
H	 0.7259491269	-1.0296758418	-1.6809699158	 0.115979
H	 0.057346257	 0.5474921963	-2.097182838	 0.117988
H	 1.6346891715	 0.4463268987	-1.3224393834	 0.121021
H	-0.1653715464	 1.1605712562	 0.3053847526	 0.120473
H	-1.079642056	-0.2893064682	-0.0487044775	 0.106011
H	 0.1722636029	-0.7541778885	 3.0882835438	 0.27487
H	 1.5192062895	-2.294697477	 0.143165291	 0.09778
H	 1.2980237475	-2.5368822834	 1.8617188224	 0.080442
H	-1.2296482158	-2.6532558285	 1.4738726342	 0.129775
H	-0.9218328947	-2.6387162765	-0.26730806	 0.12023
H	-0.3118954937	-3.969653901	 0.7172078099	 0.109119
H	 2.4586391024	-0.5356566065	 2.352568174	 0.114299
H	 2.7054006451	-0.1968576136	 0.6546142424	 0.131154
H	 2.0182776615	 3.6519523119	 2.2274865671	 0.192991
49.1328	90.1438	125.6242	126.5484	219.3897	220.6753	239.5843	286.6706	293.19	333.8829	340.6179	360.2096	411.2601	431.3843	478.4651	604.7207	616.0022	636.249	732.9665	767.8553	798.8133	885.7627	913.1744	962.7275	986.8537	1005.2255	1039.2529	1056.1547	1081.4811	1139.0883	1169.2489	1177.9037	1230.0885	1285.8901	1291.699	1342.8633	1358.6734	1373.0571	1402.719	1408.3994	1415.2068	1462.2176	1481.5072	1491.3571	1501.055	1503.1878	1506.1582	1515.6836	2237.7616	3001.1093	3010.1575	3037.4469	3042.227	3048.6655	3057.2084	3058.8723	3086.7286	3104.8711	3105.9359	3111.5155	3122.5145	3506.2274	3799.3547
CCC(O)(CC)CC#C	CCC(O)(CC)CC#C	
InChI=1S/C8H14O/c1-4-7-8(9,5-2)6-3/h1,9H,5-7H2,2-3H3	InChI=1S/C8H14O/c1-4-7-8(9,5-2)6-3/h1,9H,5-7H2,2-3H3
