17
gdb 71924	2.56158	2.06168	1.44384	2.1665	73.31	-0.2307	0.0012	0.2319	920.9033	0.13748	-417.951554	-417.944387	-417.943443	-417.982851	28.798	
O	 0.2014630562	 1.4067254201	-0.0378564847	-0.474816
C	 0.0225132927	 0.038234239	-0.0030280238	 0.357517
C	 0.5470104526	-0.7355335018	-1.2450995101	-0.277178
C	-0.5979462297	-1.7771064462	-1.1312865018	-0.054056
C	-0.3914676816	-2.7555881434	 0.044701219	-0.187324
N	-0.7987508056	-1.691846674	 1.0422710752	-0.178549
C	-1.305129277	-0.8363364567	-0.1091580896	-0.082694
C	 0.2786118588	-0.7454757052	 1.2601899724	 0.289021
N	 1.0665095283	-0.5442198334	 2.2215892919	-0.549916
H	 0.2948581344	 1.7149702006	 0.8715286869	 0.297746
H	 0.3843582987	-0.0963196719	-2.1173936486	 0.124922
H	 1.5853026949	-1.0790451189	-1.2346906422	 0.108934
H	-1.035124679	-2.1502489623	-2.0567954474	 0.079638
H	-1.1257008876	-3.5655690649	 0.0627774306	 0.117999
H	 0.6083463649	-3.1704710572	 0.2083635371	 0.114462
H	-2.3341236702	-0.4849869672	-0.0974119182	 0.088217
H	 0.9281768993	-1.2425953265	 2.9565323734	 0.226077
123.0433	211.4209	254.0511	319.6913	336.5072	397.7993	463.3317	555.4039	644.4712	691.9552	762.7369	811.5264	839.6083	863.0234	885.6738	897.1285	915.7965	939.7088	981.6079	1009.8239	1032.7698	1040.7608	1073.848	1117.877	1145.924	1172.9847	1192.4774	1214.6923	1245.5753	1249.1501	1300.501	1317.7038	1368.5625	1378.3295	1480.6844	1501.0481	1792.7528	3045.5314	3054.2934	3100.3846	3111.1887	3117.25	3147.7276	3447.259	3793.237
OC12CC3CN(C13)C2=N	O[C@]12C[C@H]3CN([C@@H]13)[C]2[NH]	
InChI=1S/C6H8N2O/c7-5-6(9)1-3-2-8(5)4(3)6/h3-4,7,9H,1-2H2	InChI=1S/C6H8N2O/c7-5-6(9)1-3-2-8(5)4(3)6/h3-4,7,9H,1-2H2/t3-,4+,6+/m0/s1
