15
gdb 75998	1.88608	1.81803	1.22712	2.061	66.95	-0.2402	-0.0399	0.2004	1039.2858	0.109279	-457.717987	-457.708753	-457.707809	-457.752164	33.185	
O	 0.0695800008	 1.4412455366	 0.0988629152	-0.411549
C	 0.0137705608	 0.0641201604	-0.0151366654	 0.061267
C	-1.3787335195	-0.7070159254	-0.0562239557	-0.338381
C	-2.4109872621	 0.0937231931	-0.6749674712	 0.306204
C	-3.2144392787	 0.7766992539	-1.2560245467	-0.426905
C	-0.7332828437	-1.7305194596	-1.0912909899	 0.061271
O	-1.4751978466	-2.2698612273	-2.1262831957	-0.411544
C	 0.2942053787	-0.6123344183	-1.375527704	 0.277499
O	 0.7965009026	-0.2152538601	-2.3862962597	-0.290597
H	-0.4151171068	 1.8240659566	-0.6430469403	 0.295363
H	 0.6324935527	-0.3613654558	 0.7807425022	 0.126958
H	-1.6999466155	-1.1413978171	 0.8911252912	 0.116578
H	-3.9539949417	 1.3712873963	-1.734137899	 0.211498
H	-0.2824875845	-2.5595010214	-0.5373392301	 0.126962
H	-1.8161058864	-1.5429475319	-2.6622725709	 0.295378
75.7106	100.9045	128.8301	164.3878	184.8066	294.7877	320.9252	351.0224	377.519	513.6592	536.5204	590.0231	637.6248	665.4771	671.0502	775.7364	781.6914	791.4058	934.7263	965.2174	1034.5785	1061.7588	1140.0375	1184.2553	1199.6879	1224.0422	1295.6257	1306.1418	1354.9308	1426.01	1443.2473	1883.1895	2224.2887	3071.4834	3079.1427	3107.1752	3499.0488	3784.8451	3786.6114
OC1C(C#C)C(O)C1=O	O[C@H]1[C@@H](C#C)[C@@H](O)C1=O	
InChI=1S/C6H6O3/c1-2-3-4(7)6(9)5(3)8/h1,3-5,7-8H	InChI=1S/C6H6O3/c1-2-3-4(7)6(9)5(3)8/h1,3-5,7-8H/t3-,4+,5-
