14
gdb 46457	3.96395	1.20072	1.07643	2.0372	67.7	-0.2566	-0.0149	0.2417	1079.287	0.10313	-432.889061	-432.881681	-432.880737	-432.921075	27.593	
O	 0.0142449753	-0.0364123935	-0.0238917166	-0.37159
C	 0.0095434956	 1.1711706258	 0.0079275907	 0.484062
N	-1.0830790117	 1.9903104662	 0.1248461536	-0.334542
C	-0.8397764071	 3.4186757235	 0.0298302904	-0.213373
C	 0.6864539468	 3.4902968995	-0.0657786371	 0.207757
N	 1.3497818376	 2.9256846296	 1.1298202417	-0.346408
C	 1.2138647668	 2.091573326	-0.0803416549	-0.23847
C	 1.3066301587	 4.5584475592	-0.7935864426	 0.199247
N	 1.8037203171	 5.4326207109	-1.3654093428	-0.327854
H	-1.9962239249	 1.6010676627	 0.2953369705	 0.264663
H	-1.3007511922	 3.8534609399	-0.8650202874	 0.136065
H	-1.1998110915	 3.9593197903	 0.9118460898	 0.140694
H	 2.303790573	 3.2804767161	 1.1839642066	 0.259425
H	 2.0860175865	 1.783452894	-0.6424852218	 0.140325
107.3063	154.2514	165.7531	292.7938	374.3652	430.4069	471.7107	503.903	565.2978	584.296	651.8832	716.7051	791.9564	851.0744	876.1003	947.5101	1009.2944	1045.9638	1058.5038	1089.0788	1136.4264	1224.0602	1238.5525	1269.3703	1322.9973	1354.7779	1405.782	1454.7689	1515.4298	1845.2864	2354.2187	3030.422	3073.7461	3212.5356	3489.1476	3652.9662
O=C1NCC2(NC12)C#N	O=C1NC[C@]2(N[C@@H]12)C#N	
InChI=1S/C5H5N3O/c6-1-5-2-7-4(9)3(5)8-5/h3,8H,2H2,(H,7,9)	InChI=1S/C5H5N3O/c6-1-5-2-7-4(9)3(5)8-5/h3,8H,2H2,(H,7,9)/t3-,5+/m0/s1
