18
gdb 54536	2.93128	1.45199	1.14527	5.3606	71.32	-0.2467	0.0187	0.2654	1087.1481	0.15021	-439.117466	-439.109755	-439.108811	-439.149881	29.891	
O	 0.1816164444	 0.5691010499	-1.1271374956	-0.382888
C	-0.0688393876	 1.281383177	-0.0162260391	 0.40449
O	 0.6968685724	 1.3448148676	 0.9112000198	-0.362489
C	-1.4011153295	 1.9701143116	-0.0456314038	 0.147001
C	-1.6164368636	 3.2067098398	 0.8010786704	-0.315547
C	-2.3099754451	 1.934445664	 1.1796244122	-0.052946
C	-3.7298047641	 1.7034380625	 0.6602134951	-0.242672
C	-3.5148358726	 1.2242793132	-0.7975102083	-0.169599
N	-2.2086185198	 1.7721792595	-1.2383176809	-0.388185
H	-2.3375427325	 2.6444917507	-1.7396957138	 0.232256
H	-0.6060416448	 0.6957259943	-1.6957443113	 0.298873
H	-0.7694596309	 3.5141494391	 1.4039164838	 0.147858
H	-2.20340716	 4.0096049861	 0.3644091995	 0.107959
H	-1.963959967	 1.4121403629	 2.063106791	 0.120975
H	-4.2613536755	 0.9565025257	 1.2554678986	 0.115372
H	-4.3191510568	 2.6264832289	 0.6930309597	 0.108116
H	-3.4596940815	 0.1301593012	-0.8233929985	 0.121334
H	-4.3072278655	 1.5300800959	-1.4858454184	 0.110091
93.1135	139.6589	165.7312	231.1423	345.2785	396.9998	467.3029	509.7513	624.2492	669.892	736.8512	745.4077	798.9898	830.9215	850.0153	870.6992	923.3609	933.2181	945.1525	973.9909	1011.9113	1057.5547	1070.5836	1090.8607	1139.9312	1177.474	1220.2436	1247.439	1257.6317	1283.2325	1324.8784	1355.3685	1378.4079	1417.6387	1444.9102	1464.6846	1494.8456	1507.4298	1856.9859	3040.5454	3043.6183	3093.8486	3105.3118	3123.1234	3194.035	3225.3718	3520.5403	3534.5039
[O-]C(=O)C12CC1CC[NH2+]2	OC(=O)[C@]12C[C@H]1CCN2	
InChI=1S/C6H9NO2/c8-5(9)6-3-4(6)1-2-7-6/h4,7H,1-3H2,(H,8,9)	InChI=1S/C6H9NO2/c8-5(9)6-3-4(6)1-2-7-6/h4,7H,1-3H2,(H,8,9)/t4-,6+/m1/s1
