23
gdb 120187	3.6226	0.81759	0.75443	1.2557	87.12	-0.2621	0.0811	0.3432	1611.8809	0.206061	-388.232196	-388.222773	-388.221828	-388.266911	35.772	
C	-0.0578445754	 1.6006756629	-0.3339474951	-0.442377
C	 0.0603257919	 0.092977929	-0.1551446502	 0.069052
C	 1.2368268154	-0.726740539	-0.78268993	-0.068961
C	 2.1619124933	-0.1505546224	 0.3285558371	-0.234595
C	 0.8376552526	-0.5434777468	 1.0465626589	-0.083538
C	 0.9053849762	-1.8774813529	 0.2323269628	 0.058273
C	-0.2907466548	-2.8089821927	 0.0821193333	-0.244582
C	-0.065330391	-3.8632447063	-0.996887915	-0.064163
O	-1.1962497129	-4.7219860465	-1.0120949265	-0.42122
H	 0.877805076	 2.1422216927	-0.1763004323	 0.116504
H	-0.407973268	 1.8359053793	-1.3455784268	 0.114884
H	-0.7960087574	 2.0087358597	 0.3658540538	 0.115641
H	-0.9233258021	-0.3504601458	-0.325998004	 0.062198
H	 1.4745350932	-0.8301708816	-1.8440321813	 0.060471
H	 3.0433223861	-0.7468115743	 0.5812580187	 0.085896
H	 2.4152020602	 0.9080321309	 0.2767732534	 0.090683
H	 0.6087456613	-0.4385879654	 2.1096580188	 0.061985
H	 1.7909914069	-2.4740863322	 0.4854840726	 0.057705
H	-0.4618095623	-3.3283054384	 1.0336588473	 0.104444
H	-1.2184598452	-2.2786028983	-0.1494419593	 0.109919
H	 0.0749932717	-3.3719857388	-1.9735084529	 0.085814
H	 0.8586581435	-4.4252298879	-0.7813969537	 0.082001
H	-1.0629254191	-5.3824287354	-1.6980334395	 0.283966
59.417	84.7377	128.2544	180.5701	258.7152	269.559	271.5004	337.0619	373.4066	413.3447	584.6236	615.5488	744.4018	787.0578	789.3736	797.2791	862.4026	887.7443	897.1439	1009.4247	1018.4933	1022.5032	1030.1137	1050.3823	1055.8323	1075.0023	1100.9693	1119.0845	1132.8978	1152.4614	1161.8974	1192.3916	1215.4042	1224.7189	1235.3992	1249.9892	1260.2298	1272.0641	1315.9036	1333.5816	1411.253	1425.2693	1437.3099	1461.2035	1492.6093	1497.6192	1500.0297	1527.7501	1534.5315	2958.3261	2984.3648	3018.6214	3031.3357	3035.2922	3060.0303	3070.7374	3079.5375	3085.5614	3088.5811	3095.6654	3115.9719	3138.4038	3829.5595
CC1C2CC1C2CCO	C[C@H]1[C@H]2C[C@@H]1[C@H]2CCO	
InChI=1S/C8H14O/c1-5-7-4-8(5)6(7)2-3-9/h5-9H,2-4H2,1H3	InChI=1S/C8H14O/c1-5-7-4-8(5)6(7)2-3-9/h5-9H,2-4H2,1H3/t5-,6-,7+,8-
