21
gdb 105004	2.21504	1.18205	1.07107	1.1758	83.64	-0.2568	0.0486	0.3054	1300.824	0.179337	-387.043919	-387.033607	-387.032663	-387.079286	38.154	
C	-0.2392845878	 1.5923008543	-0.040173548	-0.400905
C	-0.281902771	 0.0781234331	-0.2579067255	-0.255064
C	 0.6603753426	-0.4513013208	-1.3271907587	 0.417194
C	 1.1957408455	 0.4045822654	-2.3950970846	-0.229803
O	 2.0083648421	 0.0354854006	-1.272377029	-0.282908
C	 0.5975660058	-1.9636002246	-1.6063799015	-0.219917
C	 0.985794744	-2.8018574516	-0.3700343005	-0.405598
C	-0.7075058119	-2.3524192061	-2.1387077242	 0.334375
C	-1.7855330156	-2.6710492124	-2.5656433059	-0.476663
H	 0.789492169	 1.9321769961	 0.1092244836	 0.136791
H	-0.662487023	 2.1387197934	-0.8886812216	 0.117099
H	-0.8194928825	 1.8644325169	 0.8459805069	 0.113874
H	-0.0295289699	-0.4234171968	 0.6843201426	 0.109802
H	-1.2976778423	-0.2444160393	-0.5130690796	 0.119209
H	 1.4824797236	-0.0433895928	-3.3458249782	 0.11143
H	 0.9303969307	 1.4575834662	-2.4464792436	 0.116295
H	 1.352646485	-2.1557917674	-2.3789497689	 0.109673
H	 0.2352988703	-2.7237273548	 0.4201783735	 0.128489
H	 1.0750162181	-3.8563719585	-0.6424197794	 0.12556
H	 1.9480260971	-2.4566931838	 0.0179521841	 0.134654
H	-2.73325887	-2.9549579771	-2.9514794714	 0.196411
52.9963	73.1046	137.5676	183.8255	217.9759	226.6642	247.4727	298.3594	343.4244	362.5561	403.7637	487.0353	555.2251	568.0827	629.8982	642.9897	691.0382	776.763	836.0268	872.9501	908.6849	943.379	1006.9603	1028.544	1072.1494	1096.5043	1102.2131	1128.5678	1146.2833	1166.9147	1230.8624	1287.81	1311.094	1325.7777	1388.1015	1398.1017	1402.154	1424.1413	1482.6553	1495.6667	1498.7281	1501.4747	1511.8085	1536.889	2232.7266	3026.5131	3034.0027	3042.7254	3049.8703	3071.8054	3089.9564	3109.6791	3120.5407	3126.5508	3130.392	3178.7235	3503.2319
CCC1(CO1)C(C)C#C	CC[C@]1(CO1)[C@@H](C)C#C	
InChI=1S/C8H12O/c1-4-7(3)8(5-2)6-9-8/h1,7H,5-6H2,2-3H3	InChI=1S/C8H12O/c1-4-7(3)8(5-2)6-9-8/h1,7H,5-6H2,2-3H3/t7-,8-/m0/s1
