21
gdb 74444	2.73884	1.51212	1.27126	1.6148	82.9	-0.2267	0.0273	0.254	1097.6189	0.183853	-387.109608	-387.101374	-387.100429	-387.141716	33.478	
C	-0.0161851243	 1.5039819973	 0.067280676	-0.510364
C	-0.0685185837	 0.0147087079	-0.0230441164	 0.355225
C	-0.0732436972	-0.7749559996	-1.1030864451	-0.272636
C	 0.0094591714	-2.222420785	-0.6288688984	 0.400921
O	-0.4484733582	-3.2235819854	-1.5033535515	-0.502723
C	 1.4596849008	-2.4231832461	-0.0675434385	-0.255159
C	 1.4671309129	-1.5063777362	 1.1913765166	-0.210404
C	 0.0162932473	-0.9097360351	 1.1908271872	-0.11416
C	-0.7903721136	-2.1255826365	 0.6841170074	-0.239881
H	 0.8977961148	 1.839939951	 0.5749616199	 0.125011
H	-0.0425996392	 1.96958935	-0.9220496644	 0.122774
H	-0.8570366007	 1.8971711105	 0.6528987302	 0.12551
H	-0.0272367006	-0.4726449097	-2.1437838333	 0.080529
H	 0.1453435291	-3.2564452452	-2.2603084418	 0.274475
H	 1.604189611	-3.4763809993	 0.1925247873	 0.099632
H	 2.2222130849	-2.1480384496	-0.802040863	 0.085709
H	 1.6425082571	-2.0855372248	 2.1029272887	 0.097111
H	 2.2301496904	-0.7247740638	 1.1469783377	 0.095052
H	-0.2855542601	-0.4687135462	 2.1423525918	 0.055416
H	-1.8452034202	-1.9044247616	 0.5088370569	 0.099226
H	-0.6917537419	-3.0171990127	 1.3122129026	 0.088737
153.6802	181.9563	215.5371	240.5609	265.0641	330.9232	398.6125	434.3207	490.3515	537.7473	569.0572	630.4708	710.6286	800.3033	811.4613	830.9137	856.3741	879.4671	935.1746	952.9795	976.5109	995.5126	1020.4274	1047.4298	1067.4887	1076.2763	1121.3238	1147.1868	1167.8765	1194.5689	1220.1224	1247.241	1252.4146	1277.0085	1308.4453	1316.036	1349.6797	1387.1419	1412.3264	1478.1528	1486.5981	1488.4268	1491.7629	1515.1128	1698.3916	3012.5719	3044.4329	3050.3215	3057.1608	3057.6515	3084.6949	3097.4256	3103.9747	3105.8719	3119.2697	3186.4386	3813.126
CC1=CC2(O)CCC1C2	CC1=C[C@@]2(O)CC[C@@H]1C2	
InChI=1S/C8H12O/c1-6-4-8(9)3-2-7(6)5-8/h4,7,9H,2-3,5H2,1H3	InChI=1S/C8H12O/c1-6-4-8(9)3-2-7(6)5-8/h4,7,9H,2-3,5H2,1H3/t7-,8+/m1/s1
