19
gdb 78527	2.35569	1.54957	1.24858	1.6243	75.69	-0.1978	0.0769	0.2747	1094.471	0.157182	-422.943439	-422.934658	-422.933713	-422.976044	34.783	
C	 0.079292391	 1.5004640465	 0.0726077552	-0.48699
C	 0.0046586246	 0.00181815	 0.0381349553	 0.359806
C	-0.9660304717	-0.8107760912	 0.8548725953	-0.351444
C	 0.5247570167	-1.0060824138	 1.0445077199	-0.201426
C	 1.2350203893	-1.7930904612	-0.0849482191	 0.320389
O	 2.493017508	-2.3374455189	 0.0949354322	-0.451226
C	 0.399361559	-2.2563103246	-1.2241781693	 0.053128
O	-0.8782982328	-2.8388138753	-1.2064733333	-0.417841
C	 0.6721711887	-0.7817171743	-1.1334568824	-0.253288
H	 1.0959776918	 1.8588947143	-0.1302304715	 0.110795
H	-0.5829427536	 1.9486956797	-0.6788496508	 0.121747
H	-0.2222607861	 1.8846787826	 1.0525325088	 0.116216
H	-1.429838076	-0.2509154248	 1.664277825	 0.100019
H	-1.5856502899	-1.5745638842	 0.4094158332	 0.140696
H	 1.0200808637	-0.8159604927	 1.9900819447	 0.080933
H	 3.0682543741	-1.6572952226	 0.4641803557	 0.285681
H	 1.0539155436	-2.6940395507	-1.9835977135	 0.098359
H	-0.786278154	-3.7262693736	-0.8420932248	 0.28667
H	 1.1600069938	-0.2609058251	-1.9496534307	 0.087777
130.3971	210.6193	221.4991	243.5559	276.7972	294.0118	308.4943	337.3262	388.4768	427.4188	522.6936	570.904	599.8145	661.331	770.6247	814.7235	826.4194	871.6966	909.6339	936.2182	978.1869	990.8968	1004.2898	1031.4727	1087.9403	1093.0391	1101.7554	1128.1164	1176.4696	1208.5806	1252.5678	1280.0341	1293.6806	1332.287	1379.4967	1392.3701	1420.177	1483.8035	1489.7236	1495.6847	1503.4412	3014.3224	3066.1785	3068.5911	3094.6687	3122.1482	3172.2192	3175.4245	3251.3731	3783.1442	3800.3791
CC12CC1C1(O)C(O)C21	C[C@]12C[C@H]1[C@@]1(O)[C@@H](O)[C@@H]21	
InChI=1S/C7H10O2/c1-6-2-3(6)7(9)4(6)5(7)8/h3-5,8-9H,2H2,1H3	InChI=1S/C7H10O2/c1-6-2-3(6)7(9)4(6)5(7)8/h3-5,8-9H,2H2,1H3/t3-,4+,5+,6+,7+/m1/s1
