20
gdb 32083	2.93757	1.14919	0.88616	1.497	91.62	-0.1968	0.0101	0.2069	1363.7091	0.17291	-366.090998	-366.082214	-366.08127	-366.124844	33.97	
C	-0.0516884213	 1.5574556945	 0.0530465803	-0.362263
C	 0.0105490222	 0.0207905815	 0.0009983763	-0.288225
C	 0.705393809	-0.4927663425	-1.2407122202	 0.343101
C	-0.0171870066	-0.7431135513	-2.4112099474	-0.230613
C	 0.6439731453	-1.1798487952	-3.5557449389	-0.079069
C	 2.0198358559	-1.3732416453	-3.5544415304	-0.197863
C	 2.7608644539	-1.1284834385	-2.3905916485	 0.333303
N	 4.152355806	-1.2638287363	-2.389208397	-0.59053
C	 2.0857172356	-0.6914801354	-1.2436114671	-0.277661
H	 0.9539735409	 1.9894509506	 0.0417385682	 0.119623
H	-0.5922129712	 1.9558399797	-0.8113646553	 0.120805
H	-0.5600056243	 1.8996209708	 0.9604058098	 0.108526
H	 0.5296353721	-0.3488600035	 0.893076443	 0.097444
H	-1.0078359029	-0.3823343268	 0.0423289332	 0.100153
H	-1.0932293752	-0.6013311253	-2.4220823172	 0.079866
H	 0.0803368726	-1.3803129113	-4.4616977037	 0.088758
H	 2.5274223514	-1.7146248807	-4.4518922484	 0.077447
H	 4.5111066102	-1.9135758164	-3.0740164479	 0.243826
H	 4.5565925867	-1.4336887823	-1.4794811611	 0.243444
H	 2.65468418	-0.5030529863	-0.3358278879	 0.069927
35.9743	132.0485	214.0693	224.8764	293.7238	304.9011	315.6247	429.3594	461.0869	522.2433	540.6086	602.4463	657.391	718.6167	739.4785	790.3048	800.514	868.3311	876.9126	919.6292	948.935	991.7261	1008.2674	1064.7778	1080.891	1105.9192	1136.5743	1191.2994	1195.1686	1272.731	1318.1913	1344.6661	1353.5593	1357.3452	1408.1004	1486.1849	1494.4352	1496.156	1508.398	1528.9019	1627.7884	1646.0913	1660.2265	3029.5322	3033.5053	3064.8918	3104.7285	3110.1841	3146.7914	3159.9513	3170.5279	3187.0647	3559.7086	3657.4468
CCC1=CC=CC(N)=C1	CCc1cccc(N)c1	
InChI=1S/C8H11N/c1-2-7-4-3-5-8(9)6-7/h3-6H,2,9H2,1H3	InChI=1S/C8H11N/c1-2-7-4-3-5-8(9)6-7/h3-6H,2,9H2,1H3
