15
gdb 58082	1.90091	1.48263	1.30473	3.4271	66.11	-0.3082	-0.0363	0.2719	1079.0965	0.109381	-453.949692	-453.939888	-453.938943	-453.984085	34.817	
C	 0.14283608	 1.541347945	-0.1211148071	-0.440003
C	 0.0661019141	 0.0260406657	 0.0149877854	 0.11827
O	 0.7342694312	-0.4725854905	 1.146568314	-0.420042
C	-1.4207680366	-0.4857773251	 0.0209674883	 0.074148
O	-2.031271572	-0.0142340048	-1.1576101673	-0.426813
C	-1.4296945212	-1.9653606278	 0.0682430587	 0.287798
N	-1.4689540965	-3.118918881	 0.0414478209	-0.315307
C	-2.1024668469	 0.0328830281	 1.2332767967	 0.26531
N	-2.6105292564	 0.4829321132	 2.1680052397	-0.320276
H	 1.1935439428	 1.8395375891	-0.1535009425	 0.140933
H	-0.3515342332	 1.8796753995	-1.033497036	 0.153192
H	-0.3332717369	 2.0371340672	 0.7324043374	 0.138191
H	 0.5283023224	-0.4566230717	-0.8514897512	 0.131219
H	 0.5000479488	 0.0694152523	 1.909858534	 0.300971
H	-2.9204358696	-0.382514219	-1.228723101	 0.312408
81.7508	127.3298	139.5091	157.8088	232.8498	257.2017	268.4625	318.6933	348.1745	359.4826	406.775	457.4472	524.8105	528.6212	582.9948	668.7274	676.8478	904.4827	953.358	1009.3738	1088.7295	1108.6744	1118.4469	1167.2572	1306.671	1349.0711	1357.6238	1407.5583	1419.1981	1492.0886	1496.3979	2355.931	2364.8276	3044.4244	3077.3716	3120.4576	3146.8984	3789.6783	3796.9036
CC(O)C(O)(C#N)C#N	C[C@@H](O)C(O)(C#N)C#N	
InChI=1S/C5H6N2O2/c1-4(8)5(9,2-6)3-7/h4,8-9H,1H3	InChI=1S/C5H6N2O2/c1-4(8)5(9,2-6)3-7/h4,8-9H,1H3/t4-/m1/s1
