13
gdb 28191	5.38147	1.29436	1.0434	2.7179	65.29	-0.1857	0.0173	0.203	1034.637	0.090923	-452.76925	-452.761917	-452.760973	-452.801848	26.835	
O	 0.0776813163	 1.3020687008	 0.2176393383	-0.433349
C	 0.0685315637	-0.036502986	 0.0005243576	 0.407035
C	 0.0839870194	-0.8016476742	-1.1435965799	-0.465747
C	 0.0599568505	-2.1604517199	-0.671788621	 0.255259
C	 0.0323592703	-2.1157321889	 0.6898290089	 0.388405
N	 0.0368737684	-0.8290226206	 1.1453290324	-0.460085
O	 0.0088033367	-3.352768847	 1.2229599801	-0.214214
C	 0.0242897945	-4.1411402805	 0.0740295043	 0.023023
N	 0.0539785714	-3.501792414	-1.0499150959	-0.339692
H	 0.1026725424	 1.7474448331	-0.6347901737	 0.311755
H	 0.1086022255	-0.4295831291	-2.1549508119	 0.103008
H	 0.0202234726	-0.4771017623	 2.0860257342	 0.279137
H	 0.0096203883	-5.2039330714	 0.2497409267	 0.145465
33.0745	165.0848	210.9663	323.25	330.19	365.7096	526.36	564.7203	618.6147	651.5239	714.7941	739.0523	767.8937	768.618	832.9925	920.106	1005.3428	1026.9001	1141.7209	1154.9298	1177.6061	1270.8505	1303.828	1419.0863	1496.1111	1523.7037	1566.8783	1583.1491	1617.2922	3259.2544	3291.2502	3691.6348	3847.9901
OC1=CC2=C(N1)OC=N2	Oc1cc2c([nH]1)ocn2	
InChI=1S/C5H4N2O2/c8-4-1-3-5(7-4)9-2-6-3/h1-2,7-8H	InChI=1S/C5H4N2O2/c8-4-1-3-5(7-4)9-2-6-3/h1-2,7-8H
