16
gdb 24451	3.50584	1.66066	1.16322	1.8255	70.69	-0.1708	0.0563	0.2271	1002.9786	0.12736	-437.904494	-437.897506	-437.896562	-437.935676	27.838	
C	-0.013213453	 1.3817609968	 0.0245013877	-0.104252
C	 1.4243020773	 1.9204370935	 0.0272844644	-0.10201
O	 2.1350921477	 1.5377279706	 1.1991495076	-0.28178
C	 1.9224759369	 0.2033739958	 1.4513628293	 0.254187
C	 0.904287831	-0.5083494869	 0.8723285263	 0.309898
N	 0.9608686559	-1.7975788931	 1.3220420118	-0.365717
C	 2.0272911277	-1.9119420013	 2.1951401088	-0.078032
C	 2.6430869939	-0.6842736902	 2.2959789163	-0.30126
O	-0.0358179899	-0.0522331536	 0.0029549241	-0.280108
H	-0.5420662722	 1.7395464897	 0.9178022952	 0.11878
H	-0.5456374547	 1.7142628164	-0.8695536209	 0.118981
H	 1.9477704947	 1.5490233585	-0.8658259783	 0.111446
H	 1.4119847891	 3.0133689085	 0.0044646767	 0.116092
H	 0.3315035893	-2.5306970612	 1.0483786786	 0.264871
H	 2.2571861118	-2.8549368367	 2.661144477	 0.118244
H	 3.5049138244	-0.4464555868	 2.8985312153	 0.100661
120.2513	232.3672	328.0244	334.4315	371.8012	416.7538	472.0814	536.9791	613.3764	627.3686	687.0257	708.8465	719.6072	795.9419	878.5267	914.5128	929.1479	1048.3277	1066.4465	1088.0455	1115.2579	1121.7563	1185.9923	1262.3059	1277.5818	1297.9029	1352.3738	1386.1562	1401.9109	1428.3624	1480.487	1487.4747	1512.6498	1555.5947	1672.4977	3002.782	3025.3403	3100.8252	3111.972	3258.8475	3283.1101	3693.5375
C1COC2=C(NC=C2)O1	C1COc2c([nH]cc2)O1	
InChI=1S/C6H7NO2/c1-2-7-6-5(1)8-3-4-9-6/h1-2,7H,3-4H2	InChI=1S/C6H7NO2/c1-2-7-6-5(1)8-3-4-9-6/h1-2,7H,3-4H2
