18
gdb 15372	5.07768	0.87992	0.84054	2.6309	69.41	-0.2472	-0.0203	0.2269	1362.53	0.151682	-384.924816	-384.915718	-384.914774	-384.959829	31.554	
O	-0.1057419201	 1.3639754956	-0.6250309519	-0.41903
C	 0.0362380699	 0.1068893801	 0.0233621363	-0.096227
C	-1.3343743007	-0.5107879352	 0.119703388	 0.000917
C	-1.9050828768	-1.3046708295	-1.0289163187	-0.279622
C	-1.5578359841	-1.9992068875	 0.2664864025	-0.02761
C	-0.4270133036	-3.0126675075	 0.3362210887	-0.306534
C	-0.9077606106	-4.3986196701	-0.0453314352	 0.172136
O	-0.3625391971	-5.1240621432	-0.8353891155	-0.23803
H	 0.7533502509	 1.7966285005	-0.6279536733	 0.286129
H	 0.7157912474	-0.5514700581	-0.5389065693	 0.084445
H	 0.4626955435	 0.2309808923	 1.0323629821	 0.086352
H	-2.0365285257	 0.1187846136	 0.6595179111	 0.095175
H	-2.9480740535	-1.1717006795	-1.2926438093	 0.116245
H	-1.2511262412	-1.4808052335	-1.8777090282	 0.121383
H	-2.4033974522	-2.2649902464	 0.897071172	 0.090283
H	 0.4119946447	-2.7566353104	-0.3146145721	 0.123124
H	-0.0459370214	-3.0745362433	 1.3672973005	 0.120674
H	-1.8403383994	-4.7188546381	 0.4774765022	 0.07019
47.0926	69.6638	87.4931	128.0909	226.1318	259.0202	291.3327	340.592	429.3868	504.3081	563.9606	739.3296	802.8325	853.9821	884.8264	901.7668	952.4248	1027.7969	1048.4012	1070.4391	1074.4162	1086.0805	1142.2972	1161.2867	1183.0662	1234.0483	1237.6632	1259.1818	1284.4814	1289.6249	1383.6328	1425.5562	1429.2656	1458.8953	1474.3651	1498.4465	1521.6811	1837.8331	2850.192	2963.6238	2996.8135	3000.1988	3108.1405	3128.8665	3131.3652	3147.918	3217.0763	3825.6705
OCC1CC1CC=O	OC[C@H]1C[C@H]1CC=O	
InChI=1S/C6H10O2/c7-2-1-5-3-6(5)4-8/h2,5-6,8H,1,3-4H2	InChI=1S/C6H10O2/c7-2-1-5-3-6(5)4-8/h2,5-6,8H,1,3-4H2/t5-,6-/m1/s1
