20
gdb 109742	2.61725	1.11362	1.03386	4.5176	77.	-0.2337	0.0146	0.2483	1291.2633	0.170142	-440.313905	-440.304027	-440.303083	-440.348874	36.401	
C	 0.1222841986	 1.5053889651	 0.0298678401	-0.376445
C	-0.2809973444	 0.0495688323	-0.2363027831	-0.211343
C	 0.5901133242	-0.5756255197	-1.3066250119	-0.057935
C	 1.9473852012	-1.1235020872	-1.0020855735	 0.126563
O	 2.4567907178	-1.1495465965	 0.282765629	-0.42629
C	 0.8323847991	-2.0971877711	-1.4200797898	-0.253306
C	 0.3232242199	-3.0340744936	-0.3875339561	 0.463279
N	-0.2667602573	-4.1672769615	-0.8534705507	-0.532767
O	 0.4424416386	-2.837504477	 0.823593123	-0.412543
H	 1.151917227	 1.5537492315	 0.3959749504	 0.136887
H	 0.0580482763	 2.1126315278	-0.8802166764	 0.105699
H	-0.5296042883	 1.9614515819	 0.7813644793	 0.109183
H	-0.2102989942	-0.528391411	 0.6873203453	 0.128786
H	-1.3307135964	 0.0020190553	-0.5525996976	 0.090744
H	 0.4945702897	-0.1049233978	-2.2833606964	 0.087944
H	 2.7342071211	-0.9685421024	-1.7355511019	 0.101434
H	 1.8483319242	-1.6969870468	 0.8172085669	 0.310256
H	 0.872894827	-2.4974720857	-2.4283641823	 0.082102
H	-0.4384268765	-4.321429144	-1.8307752552	 0.263175
H	-0.6281995176	-4.8254595995	-0.1827736694	 0.264575
67.4863	85.4924	124.8198	166.5916	190.9427	243.1927	271.2436	285.0074	362.1846	421.772	495.2234	583.8655	606.3494	640.3921	682.1317	735.5437	784.8314	798.3751	810.0058	850.9654	949.356	988.8193	1025.9736	1038.2128	1079.1194	1100.8923	1118.051	1141.7507	1182.7645	1252.8274	1283.1213	1294.631	1338.1938	1377.3616	1405.8296	1415.9185	1446.9787	1494.8215	1500.4304	1501.3375	1512.0028	1614.9356	1726.7055	3029.22	3032.683	3091.8615	3110.3872	3116.5864	3126.2791	3140.2071	3153.3396	3534.763	3606.7008	3745.3839
CCC1C(O)C1C(N)=O	CC[C@H]1[C@@H](O)[C@H]1C(=O)N	
InChI=1S/C6H11NO2/c1-2-3-4(5(3)8)6(7)9/h3-5,8H,2H2,1H3,(H2,7,9)	InChI=1S/C6H11NO2/c1-2-3-4(5(3)8)6(7)9/h3-5,8H,2H2,1H3,(H2,7,9)/t3-,4+,5-/m1/s1
