16
gdb 29350	2.01132	1.88854	0.97766	2.7072	82.83	-0.1683	0.0293	0.1976	1150.5166	0.124681	-396.929766	-396.920518	-396.919573	-396.963067	35.	
N	 0.0458067291	 1.3923253187	 0.1367940065	-0.62196
C	-0.0038973399	-0.004423188	 0.0573973374	 0.142119
C	-1.1020945534	-0.8224724672	 0.0343415257	-0.170874
N	-0.6420414518	-2.1442818635	 0.0006017728	-0.295368
C	 0.713650429	-2.1654497555	 0.018460387	 0.207196
N	 1.4296312877	-3.3629422894	 0.0799810648	-0.617578
C	 1.1669928185	-0.8498428746	 0.0376553543	 0.110204
C	 2.5119109461	-0.4363800269	 0.0083659867	 0.144906
C	 3.6634753329	-0.0723940614	-0.0309469013	-0.427484
H	 0.9187369855	 1.7594813293	-0.2210094058	 0.245875
H	-0.7321742774	 1.8491913375	-0.3196937434	 0.238488
H	-2.1554820438	-0.6010947354	 0.0194170584	 0.106986
H	-1.2158873011	-2.9561694651	 0.1449659287	 0.25913
H	 1.2461412638	-3.9783393284	-0.7058720028	 0.245891
H	 2.4241036815	-3.1715702935	 0.1184675024	 0.257427
H	 4.6754624733	 0.2466698233	-0.0397549015	 0.175041
116.6183	138.0141	195.9054	204.1687	231.7784	282.3771	292.9079	393.6652	416.961	435.3516	506.5206	540.4733	582.7171	587.2821	628.2673	679.4187	681.5801	705.009	750.0256	789.3541	813.6685	1037.8025	1070.775	1131.2245	1157.0021	1248.733	1304.3304	1352.4229	1438.455	1539.8314	1589.0676	1629.8604	1652.6696	1661.5848	2208.209	3276.597	3503.493	3504.624	3535.632	3598.6813	3629.5352	3685.9081
NC1=CNC(N)=C1C#C	Nc1c[nH]c(N)c1C#C	
InChI=1S/C6H7N3/c1-2-4-5(7)3-9-6(4)8/h1,3,9H,7-8H2	InChI=1S/C6H7N3/c1-2-4-5(7)3-9-6(4)8/h1,3,9H,7-8H2
