20
gdb 32723	2.93109	1.00337	0.79649	1.8735	82.96	-0.1923	0.0491	0.2415	1454.3302	0.170983	-403.187261	-403.177453	-403.176509	-403.223044	35.284	
C	-0.1270306454	 1.5628417456	 0.1879247921	-0.508674
C	-0.0341700152	 0.0694528162	 0.0787332621	 0.209577
C	 0.0306291746	-0.6756886234	-1.0850060194	 0.193854
C	 0.0552328579	-0.269434841	-2.5238262709	-0.305854
C	 1.4719883871	-0.104085565	-3.0834910501	-0.059251
O	 1.3564750485	 0.2435199039	-4.4543468825	-0.419016
N	 0.12195959	-2.0021070675	-0.716705591	-0.289744
C	 0.1059983947	-2.1181598652	 0.6489763637	-0.093509
C	 0.0119495224	-0.8509755355	 1.1693809584	-0.22512
H	 0.807046807	 2.0081798265	 0.5527961984	 0.121245
H	-0.3498195792	 2.0265492935	-0.7778700112	 0.117486
H	-0.9161578273	 1.864123736	 0.8861048609	 0.121998
H	-0.4723655831	-1.0055839533	-3.1438259906	 0.103299
H	-0.4768950866	 0.6779094039	-2.6551579537	 0.121035
H	 2.0008543207	 0.6722644127	-2.5099243066	 0.094283
H	 2.0327788828	-1.0437760625	-2.9521763096	 0.080756
H	 2.239821466	 0.3920876319	-4.8037569044	 0.286194
H	 0.1500299375	-2.7713709558	-1.3629526658	 0.254165
H	 0.1526409546	-3.0833032294	 1.12733613	 0.1121
H	-0.0260042168	-0.5989658617	 2.2189351001	 0.085175
40.4031	74.7346	94.168	113.5507	240.5935	256.2742	265.8632	337.1397	355.216	412.9764	462.5454	637.0222	641.0476	679.6943	711.0706	777.1338	790.7596	822.1449	917.0481	983.4774	1001.9624	1020.5826	1060.201	1075.4097	1088.4056	1124.0567	1187.3393	1210.5452	1240.0794	1267.2685	1290.9691	1322.7864	1339.3559	1416.6332	1433.9158	1451.7412	1481.9281	1483.0178	1488.4777	1502.5299	1512.3436	1526.1672	1630.4147	2967.3549	3001.2263	3019.8496	3029.7005	3067.9068	3085.3986	3099.5044	3237.4137	3267.0154	3677.5542	3830.9045
CC1=C(CCO)NC=C1	Cc1c(CCO)[nH]cc1	
InChI=1S/C7H11NO/c1-6-2-4-8-7(6)3-5-9/h2,4,8-9H,3,5H2,1H3	InChI=1S/C7H11NO/c1-6-2-4-8-7(6)3-5-9/h2,4,8-9H,3,5H2,1H3
