18
gdb 119333	4.75798	0.98371	0.95411	1.7379	74.27	-0.2153	0.0648	0.2801	1265.9892	0.147027	-401.816154	-401.808188	-401.807244	-401.849244	30.33	
O	 0.062394512	 1.4075219236	 0.1528086391	-0.418763
C	 0.0063280297	-0.005622124	 0.2613592034	-0.060714
C	-1.3626103604	-0.5719331902	-0.1398561827	-0.369523
C	-1.419627936	-2.0569483212	-0.0436064455	 0.418205
C	-1.4557138059	-3.0308380153	 1.1134604709	-0.166799
C	-0.6042495273	-3.9930254036	 0.2514040057	-0.049243
C	-1.6545666694	-4.0239026993	-0.7987496964	-0.050138
C	-2.5435083566	-3.0607534323	 0.0252226404	-0.191688
N	-0.5480304372	-3.0055768247	-0.8851067566	-0.216153
H	 0.0090257477	 1.6324373715	-0.7814224796	 0.281867
H	 0.7936369534	-0.4916685774	-0.3329063062	 0.111622
H	 0.2056331905	-0.2338715575	 1.3134799532	 0.112418
H	-2.1386095657	-0.1318539684	 0.4982087197	 0.112964
H	-1.5905131062	-0.270973392	-1.1728216901	 0.099939
H	-1.5614448788	-2.8706981281	 2.177102082	 0.096294
H	 0.2169408796	-4.6641635517	 0.47306684	 0.097025
H	-1.857447843	-4.7255926611	-1.599060053	 0.096764
H	-3.6109665565	-2.9234970082	 0.1252239656	 0.095923
77.9406	96.1298	114.6801	283.4369	297.6844	347.7945	350.4352	643.948	676.0961	744.7198	771.081	787.4034	799.5914	848.5078	853.5428	866.5127	888.8121	917.3631	953.6661	986.3811	992.7712	1011.7721	1032.3809	1064.9455	1072.9576	1101.8449	1155.2295	1168.0921	1204.8229	1215.4335	1265.2022	1288.9101	1321.0127	1327.5433	1396.7312	1415.5679	1452.5686	1469.9162	1512.8098	3002.8704	3005.3906	3058.7697	3083.5476	3172.9242	3187.2849	3211.3315	3221.3927	3817.589
OCCC12C3C4C(C13)N24	OCC[C@@]12[C@@H]3[C@H]4[C@@H]([C@H]13)N24	
InChI=1S/C7H9NO/c9-2-1-7-3-4(7)6-5(3)8(6)7/h3-6,9H,1-2H2	InChI=1S/C7H9NO/c9-2-1-7-3-4(7)6-5(3)8(6)7/h3-6,9H,1-2H2/t3-,4+,5-,6+,7+,8?
