17
gdb 29629	2.34146	1.92454	1.06471	5.2497	80.82	-0.1915	-0.0169	0.1746	1083.0415	0.138151	-418.082113	-418.074077	-418.073133	-418.114302	31.399	
C	-0.0679180382	 1.4519330788	 0.0217086256	-0.373193
N	-0.0043373616	-0.0062092071	 0.0306745835	-0.201556
C	 0.0192814177	-0.6530363188	-1.2557434917	 0.431322
O	 0.0264843655	 0.0320567037	-2.2697419909	-0.419799
C	 0.0249249295	-2.0877228316	-1.1962078048	-0.272454
C	 0.0257114186	-2.7527974157	-0.0033653702	-0.037823
C	 0.026022645	-2.0684162177	 1.2268966452	-0.271624
C	 0.0062702459	-0.6910441573	 1.2146610282	 0.454377
N	-0.0728257685	 0.0590444426	 2.3771536113	-0.577123
H	 0.8668256604	 1.8956591507	 0.3869082265	 0.125849
H	-0.2096613368	 1.7484081057	-1.0160313826	 0.186372
H	-0.8997782123	 1.8019512735	 0.6387239234	 0.140896
H	 0.0314091927	-2.6013996881	-2.1482875642	 0.106497
H	 0.035563821	-3.8389315178	 0.0045379721	 0.103063
H	 0.0429659843	-2.5949296423	 2.1720064101	 0.085191
H	 0.1173466476	-0.4730780947	 3.2131937783	 0.260746
H	 0.4070370094	 0.9467500462	 2.3745202002	 0.259261
113.0918	189.1133	206.0493	242.1077	340.2844	372.1565	406.1211	462.1936	491.6008	528.7653	578.7908	596.9749	681.2096	701.1434	734.6133	765.6985	825.736	835.9572	956.8843	987.8864	1069.7524	1093.6925	1151.4955	1159.7834	1188.1612	1228.3167	1237.3846	1328.4671	1406.2091	1446.342	1497.9877	1506.5857	1517.4322	1584.5683	1641.7753	1662.813	1760.9645	3022.4074	3095.9541	3170.5096	3171.0615	3211.2577	3223.472	3574.2085	3674.4583
CN1C(=O)C=CC=C1N	Cn1c(=O)cccc1N	
InChI=1S/C6H8N2O/c1-8-5(7)3-2-4-6(8)9/h2-4H,7H2,1H3	InChI=1S/C6H8N2O/c1-8-5(7)3-2-4-6(8)9/h2-4H,7H2,1H3
