21
gdb 111390	2.17652	1.48355	1.09981	2.5619	82.49	-0.238	-0.0197	0.2183	1206.8545	0.181553	-387.072214	-387.062995	-387.06205	-387.106787	34.111	
C	 0.0603473754	 0.995059654	-1.4241706055	-0.384698
C	-0.2510325752	 0.6174025105	 0.0282165576	-0.192996
C	-1.4672563958	-0.3010707456	 0.1243651815	 0.009454
C	-1.3746745413	-1.7378097953	-0.4173885028	-0.049679
C	-0.5011941049	-2.6031544394	 0.4469193287	-0.282792
C	-1.9046598566	-2.3068435253	 0.8977122332	-0.074999
C	-1.9815626582	-0.8775441018	 1.4991786032	-0.133427
C	-1.2108457704	-0.748911569	 2.7834395021	 0.149421
O	-0.0573728113	-0.4098031121	 2.8935690963	-0.255915
H	 0.9286485527	 1.6582913817	-1.4826383255	 0.11302
H	 0.2813598346	 0.1065778855	-2.025924442	 0.117482
H	-0.785071589	 1.5110298335	-1.8943212412	 0.107809
H	 0.618438177	 0.1438387859	 0.4896046245	 0.119518
H	-0.4412920511	 1.5247902206	 0.6145795896	 0.094775
H	-2.3197587142	 0.2011245115	-0.347583965	 0.074865
H	-1.6458076569	-2.0372360957	-1.4225202267	 0.087727
H	-0.345995052	-3.6120412853	 0.0785542458	 0.113629
H	 0.3473302936	-2.1880084852	 0.9828946039	 0.134505
H	-2.6420334242	-3.0821323542	 1.0627772861	 0.092864
H	-3.020258061	-0.590468519	 1.691130296	 0.08521
H	-1.7920041514	-1.0631190052	 3.6837287506	 0.074229
51.1348	87.0867	147.5468	151.8414	211.1837	240.9663	267.1134	381.832	405.0665	516.4176	623.3796	733.9586	746.0844	788.4991	800.8459	822.4299	913.568	920.02	940.65	973.8652	999.0759	1028.9964	1045.6212	1051.5104	1067.3178	1092.2212	1107.8925	1116.9476	1161.3321	1174.7952	1216.3357	1255.9923	1275.6532	1282.4797	1342.1278	1358.8068	1363.2184	1394.3302	1410.603	1429.3775	1480.7855	1490.0985	1500.1816	1507.958	1815.8975	2840.7042	3026.776	3030.3919	3038.0306	3060.1002	3084.0327	3103.0895	3113.1205	3123.4717	3179.0325	3190.3348	3210.2289
CCC1C2CC2C1C=O	CC[C@H]1[C@H]2C[C@H]2[C@H]1C=O	
InChI=1S/C8H12O/c1-2-5-6-3-7(6)8(5)4-9/h4-8H,2-3H2,1H3	InChI=1S/C8H12O/c1-2-5-6-3-7(6)8(5)4-9/h4-8H,2-3H2,1H3/t5-,6+,7+,8-/m0/s1
