16
gdb 14937	4.54849	1.53085	1.18976	2.7106	66.43	-0.2536	-0.0287	0.2249	972.281	0.130205	-383.750499	-383.743112	-383.742168	-383.782645	26.944	
O	-0.88183098	 1.0841886538	 0.2357948672	-0.246962
C	 0.2544916564	 0.7371716958	 0.0472703641	 0.138802
C	 1.4413904206	 1.6865056239	 0.0400309658	 0.028269
C	 1.2984781413	 2.8525569096	 1.0225352155	-0.250951
C	 2.6223978697	 3.5552360824	 1.1628824425	-0.074406
C	 3.7573866379	 2.9992163009	 0.7465109248	-0.064663
C	 3.8007725533	 1.6184719921	 0.1531705129	-0.116549
O	 2.5874798149	 0.9031065325	 0.3166424675	-0.268316
H	 0.531996073	-0.3211661328	-0.1517867981	 0.095121
H	 1.506875013	 2.0948025097	-0.9876713937	 0.095301
H	 0.5229342309	 3.5364868446	 0.6621650033	 0.124931
H	 0.946598899	 2.481574779	 1.9940997251	 0.123969
H	 2.6243151215	 4.5439402566	 1.6132027576	 0.095841
H	 4.705987225	 3.5239821012	 0.8200956095	 0.09575
H	 4.0709912274	 1.6733465108	-0.9176652464	 0.100973
H	 4.573145126	 1.0132033801	 0.6420547824	 0.122889
63.4991	137.0281	193.2074	205.7344	378.8186	410.1766	448.0721	526.9524	611.2659	667.6271	780.9898	848.9094	895.4744	926.9026	968.3606	994.9907	1031.0387	1056.116	1081.2507	1115.846	1125.3996	1211.0927	1216.2311	1259.2604	1301.5164	1345.8398	1371.3945	1386.2294	1407.0562	1414.2527	1469.3954	1489.1838	1726.76	1838.8019	2901.0956	2917.5178	2936.744	3028.0739	3053.8185	3076.3027	3156.5386	3178.7452
O=CC1CC=CCO1	O=C[C@H]1CC=CCO1	
InChI=1S/C6H8O2/c7-5-6-3-1-2-4-8-6/h1-2,5-6H,3-4H2	InChI=1S/C6H8O2/c7-5-6-3-1-2-4-8-6/h1-2,5-6H,3-4H2/t6-/m1/s1
