17
gdb 40307	4.968	0.65154	0.6445	0.889	80.2	-0.2501	0.0057	0.2558	1763.1291	0.134967	-421.74253	-421.733687	-421.732742	-421.778744	30.454	
C	-0.1189175789	 1.0928697145	-0.6144373785	-0.158115
O	 0.7599927348	 1.5145115517	 0.4187046373	-0.214344
C	 0.5821003252	 0.0999949435	 0.2251758873	-0.119767
C	-0.1036605018	-0.6325605165	 1.2528222006	 0.084988
C	-0.6661629606	-1.2660295298	 2.1104294976	 0.128797
C	-1.3419636927	-2.0136621979	 3.1550399974	-0.036418
C	-1.418979363	-1.3655633085	 4.5667101689	-0.285101
C	-2.9432879543	-1.4815911135	 4.3803698974	-0.059304
O	-2.7896505336	-2.0032508822	 3.0419102049	-0.278401
H	-1.1768589842	 1.2757957833	-0.4374940038	 0.129366
H	 0.2290250855	 1.2617180144	-1.6327790623	 0.121113
H	 1.4534739022	-0.3947750274	-0.2022864432	 0.118965
H	-0.9673777403	-3.046255066	 3.1684736183	 0.104598
H	-0.9809218876	-1.9559326717	 5.3718185706	 0.117701
H	-1.034327386	-0.3468782352	 4.6055540903	 0.12974
H	-3.4440260807	-2.1999963621	 5.0408681187	 0.10449
H	-3.5038268042	-0.5401193566	 4.3881197084	 0.111691
24.1909	47.3524	88.4902	98.8267	211.2689	250.4196	377.0513	470.8911	551.1932	583.3713	689.1862	784.379	815.0964	836.5055	879.8959	936.9947	944.6882	991.5363	1017.5734	1039.0982	1084.7098	1089.3128	1153.7394	1160.675	1163.6252	1190.232	1214.9212	1257.6878	1258.321	1282.7138	1352.3888	1368.3239	1406.6187	1488.7943	1519.7908	1531.5896	2355.368	3007.0383	3022.3605	3064.4923	3086.8764	3093.5275	3116.5557	3154.2334	3181.5645
C1OC1C#CC1CCO1	C1O[C@H]1C#C[C@H]1CCO1	
InChI=1S/C7H8O2/c1(2-7-5-9-7)6-3-4-8-6/h6-7H,3-5H2	InChI=1S/C7H8O2/c1(2-7-5-9-7)6-3-4-8-6/h6-7H,3-5H2/t6-,7-/m0/s1
