17
gdb 17590	2.77387	2.45299	1.79058	1.259	67.73	-0.2343	0.081	0.3153	817.759	0.140989	-363.798167	-363.7906	-363.789655	-363.829486	29.119	
C	 0.0352807749	 1.5105099515	-0.0008984099	-0.504953
C	-0.0646662293	 0.0249501359	 0.1038000307	 0.369649
O	 1.0729138871	-0.782978274	-0.257209368	-0.333592
C	 0.5225233996	-0.9443719755	 1.0649954604	 0.369643
C	 1.4106065872	-0.7597924188	 2.2503537615	-0.504951
C	-0.7126185697	-1.8255132779	 0.9326359586	-0.136136
N	-1.8648605298	-0.976098373	 1.3427019572	-0.345206
C	-1.3006655655	-0.8547767333	-0.0299836801	-0.136134
H	 0.9843384037	 1.8661137046	 0.4089404495	 0.130781
H	-0.022086819	 1.8345241289	-1.0461786397	 0.128395
H	-0.7861204958	 1.9800145496	 0.548777138	 0.138523
H	 2.0371476428	 0.1282405267	 2.1321372552	 0.130782
H	 0.8067793701	-0.649347937	 3.1561534165	 0.138522
H	 2.0724647312	-1.6231417872	 2.382486296	 0.128395
H	-0.776990831	-2.9064775309	 0.9254757578	 0.099589
H	-2.7048891258	-1.5536319535	 1.2734444066	 0.227104
H	-1.8984876006	-1.0551191861	-0.9104105302	 0.099589
179.9724	189.5148	193.5029	204.321	233.2078	373.6756	464.7585	504.1592	614.9007	618.3829	704.5412	742.2695	833.9109	840.9409	859.4755	862.4998	931.8862	958.1932	1034.2796	1067.7934	1074.5428	1102.0698	1131.9091	1139.9916	1195.6232	1233.6307	1294.6249	1338.1323	1341.8915	1409.7816	1412.8831	1473.2794	1478.0001	1486.2383	1493.9672	1513.5355	3035.2852	3036.5551	3099.2604	3099.9964	3121.1919	3122.8255	3188.4894	3201.1099	3450.197
CC12OC1(C)C1NC21	C[C@@]12O[C@]1(C)[C@H]1N[C@@H]21	
InChI=1S/C6H9NO/c1-5-3-4(7-3)6(5,2)8-5/h3-4,7H,1-2H3	InChI=1S/C6H9NO/c1-5-3-4(7-3)6(5,2)8-5/h3-4,7H,1-2H3/t3-,4+,5+,6-
