17
gdb 73236	2.28539	1.93385	1.42178	1.2925	68.74	-0.2462	0.0134	0.2596	960.6793	0.137954	-455.134959	-455.127273	-455.126329	-455.16711	29.615	
N	 0.0300529999	 1.451293694	 0.0289653209	-0.591143
C	-0.0087000414	 0.0168876169	-0.0138610702	 0.160161
C	 0.2191582363	-0.7863155874	-1.3279618248	-0.121833
O	-0.9505532767	-1.5910003473	-1.0738166048	-0.294334
C	-1.3465431511	-0.767804468	 0.0423714152	 0.082487
C	-1.3226273136	-1.5237513569	 1.3595835843	-0.115986
O	 0.0563446521	-1.5334213592	 1.78527669	-0.245031
C	 0.7718387254	-0.5693052143	 1.150891695	 0.410793
N	 1.9363546251	-0.1918179991	 1.4587616735	-0.55739
H	 0.952455774	 1.7458969614	 0.3378160329	 0.253434
H	-0.1485143713	 1.8560674945	-0.8836210644	 0.230012
H	 0.1015831012	-0.1671828311	-2.2288726972	 0.095934
H	 1.1336670806	-1.3825512603	-1.4098199334	 0.122104
H	-2.2764529229	-0.2223955996	-0.1432883085	 0.088459
H	-1.9242856651	-1.0228522052	 2.1267293885	 0.119892
H	-1.6515115317	-2.5594899948	 1.2500122954	 0.134339
H	 2.2828311591	-0.6854520735	 2.2820545974	 0.228103
87.3917	168.877	227.3253	263.3229	306.3247	330.7633	403.2627	487.7169	586.6335	644.7499	714.996	741.9688	806.5045	840.6097	867.1044	890.7221	918.9637	966.7906	1011.8573	1028.6605	1059.2342	1063.1786	1084.8297	1117.0527	1151.6222	1195.8473	1244.7116	1264.3917	1288.7984	1332.7021	1357.0977	1372.4876	1416.801	1497.8062	1520.3724	1647.9066	1775.432	2998.5758	3041.3061	3072.93	3077.6346	3116.2104	3485.0449	3495.5221	3582.9358
NC12COC1COC2=N	N[C@]12CO[C@H]1CO[C]2[NH]	
InChI=1S/C5H8N2O2/c6-4-5(7)2-9-3(5)1-8-4/h3,6H,1-2,7H2	InChI=1S/C5H8N2O2/c6-4-5(7)2-9-3(5)1-8-4/h3,6H,1-2,7H2/t3-,5+/m0/s1
