23
gdb 98658	4.29612	0.76532	0.73768	2.5206	87.29	-0.237	-0.0074	0.2296	1690.4917	0.204033	-388.314425	-388.304057	-388.303113	-388.351238	37.486	
C	-0.3665175579	 1.5535422951	-0.0630501614	-0.377208
C	-0.1364031941	 0.0480178568	-0.1588991421	-0.284132
C	 0.7787889949	-0.365541558	-1.3034118034	 0.369457
O	 1.3417217295	 0.4505419412	-2.0009379614	-0.31431
C	 0.9134336077	-1.8539076118	-1.5546839159	-0.073246
C	-0.0053766607	-2.4261606886	-2.6915061069	-0.242054
C	 1.1959278071	-3.2815708597	-3.1819673935	 0.056499
C	 1.4236379217	-3.4368323462	-4.677105468	-0.407992
C	 2.1353000736	-2.3494099548	-2.3681822148	-0.250901
H	 0.5817937296	 2.0834508612	 0.0547711584	 0.133181
H	-0.8385015241	 1.9350474706	-0.9724479043	 0.128016
H	-1.0095371899	 1.7957176142	 0.7878159121	 0.107686
H	 0.3074875039	-0.3448362954	 0.7675838927	 0.122092
H	-1.0832761671	-0.4994353589	-0.2683597157	 0.119762
H	 0.7664389023	-2.4160540083	-0.6276518599	 0.069903
H	-0.919629638	-2.9419906298	-2.3884945986	 0.098691
H	-0.2587195967	-1.6442920871	-3.4146570866	 0.112309
H	 1.1546114178	-4.2690910437	-2.7077411493	 0.069389
H	 1.4702834192	-2.4593248845	-5.1699093581	 0.118115
H	 2.3653932115	-3.9583813521	-4.8820840639	 0.114909
H	 0.6169357722	-4.0111279408	-5.1469204377	 0.112128
H	 2.524020751	-1.5294476339	-2.9785186615	 0.123146
H	 2.9574790965	-2.8066222754	-1.8126870004	 0.094561
23.3159	61.3855	76.5349	164.6915	196.1066	213.9955	236.6794	302.8121	313.8135	351.8452	414.3669	553.637	586.8747	658.2537	762.4434	793.0244	817.9621	874.4944	899.7628	927.6925	948.4317	958.0354	1011.7537	1013.1706	1041.0701	1100.3278	1119.7376	1134.9644	1144.5667	1153.5661	1233.9986	1238.9972	1256.3137	1270.5712	1278.2105	1294.918	1348.9733	1373.7467	1393.7214	1411.2329	1414.216	1449.6504	1474.2452	1492.3448	1493.2029	1495.4323	1497.8113	1500.7447	1797.4606	3010.7211	3022.8601	3033.1782	3037.2691	3050.0748	3050.6785	3060.8121	3062.139	3089.2618	3093.4728	3109.9655	3119.9543	3120.5338	3128.1818
CCC(=O)C1CC(C)C1	CCC(=O)[C@H]1C[C@@H](C)C1	
InChI=1S/C8H14O/c1-3-8(9)7-4-6(2)5-7/h6-7H,3-5H2,1-2H3	InChI=1S/C8H14O/c1-3-8(9)7-4-6(2)5-7/h6-7H,3-5H2,1-2H3/t6-,7+
