20
gdb 118214	4.11032	0.76171	0.67266	8.3224	72.62	-0.2434	0.0357	0.2791	1646.392	0.171405	-477.462344	-477.452778	-477.451834	-477.497386	35.233	
N	-0.3798964871	 2.0239381684	 0.6316809837	-0.51203
H	-0.606555974	 1.9586358645	-0.3569454853	 0.245107
H	 0.562084756	 2.3966637085	 0.6904235072	 0.24557
H	-1.9645710554	 2.7112394933	 1.3742020054	 0.296472
C	-0.4486096414	 0.6864629913	 1.2577229042	-0.173125
C	-1.903107199	 0.2357007975	 1.4418763599	-0.201559
C	-2.7172600497	 1.1879723795	 2.3263843339	 0.1102
O	-2.8571155473	 2.4635505154	 1.6965585404	-0.455035
C	-4.1309918222	 0.6739115756	 2.6118583359	-0.333972
C	-4.9569934533	 1.54057702	 3.5700589099	 0.395758
O	-4.7946904302	 2.867790229	 3.4459227018	-0.373108
O	-5.7231150594	 1.0711204904	 4.3694666589	-0.331958
H	 0.1067987575	-0.076533445	 0.6928676838	 0.100375
H	 0.0304651733	 0.7641751517	 2.2408368584	 0.119093
H	-2.3982805569	 0.1499354039	 0.4654413404	 0.104995
H	-1.9018417867	-0.7647045486	 1.8896411147	 0.110377
H	-2.1836834113	 1.305942864	 3.2858725084	 0.077845
H	-4.1138905427	 3.0453663373	 2.762035358	 0.316438
H	-4.6760774258	 0.6168206166	 1.6605823257	 0.131296
H	-4.1016095345	-0.3303974831	 3.0385937547	 0.12726
63.1111	83.1931	110.3079	157.158	223.6592	287.5084	304.8668	330.4947	384.0653	443.4587	468.8337	527.0652	620.8723	695.5445	782.4526	808.9015	846.5777	855.7697	877.1832	909.9518	946.109	973.3087	1025.9988	1046.9958	1093.3063	1116.155	1153.9375	1216.0204	1267.4225	1281.9745	1299.5809	1329.2901	1353.9398	1371.5633	1393.9516	1421.5436	1451.8339	1461.6688	1469.2588	1489.7676	1510.1934	1652.2448	1859.968	2948.3245	2992.357	3025.3386	3038.7753	3058.6003	3078.2568	3122.3958	3440.6731	3492.5594	3498.0592	3575.9311
[NH3+]CCC(O)CC([O-])=O	NCC[C@@H](O)CC(=O)O	
InChI=1S/C5H11NO3/c6-2-1-4(7)3-5(8)9/h4,7H,1-3,6H2,(H,8,9)	InChI=1S/C5H11NO3/c6-2-1-4(7)3-5(8)9/h4,7H,1-3,6H2,(H,8,9)/t4-/m1/s1
