21
gdb 107790	2.5377	1.57679	1.27386	1.5542	81.04	-0.2481	0.0738	0.322	1094.6427	0.182708	-387.047526	-387.039013	-387.038069	-387.080318	33.705	
C	-0.0412658879	 1.5415455305	 0.0450885107	-0.38371
C	-0.0243967482	 0.0062243642	 0.0187415614	-0.315991
C	 0.6930770277	-0.5459143219	-1.188597165	 0.310968
C	 0.1617760683	-0.3148024835	-2.6346616421	-0.291811
C	 0.8872073924	-1.6067986441	-3.0040454525	-0.075803
C	 2.2021098801	-1.6465160582	-2.2092124183	-0.129817
C	 0.8966051971	-2.0725427615	-1.5711896298	-0.151504
C	 2.2448389149	-0.4004476012	-1.3401867259	 0.128276
O	 2.8161524694	 0.8024569232	-1.7995463513	-0.446085
H	 0.9739765512	 1.9460542329	 0.002441461	 0.138448
H	-0.5918596053	 1.9439310826	-0.8120220286	 0.115115
H	-0.5238604522	 1.9131267366	 0.954023951	 0.108078
H	 0.4618303436	-0.3727868703	 0.9276810263	 0.095481
H	-1.0537098105	-0.3758405752	 0.0417431627	 0.09284
H	-0.9239287182	-0.4433607439	-2.678281277	 0.100098
H	 0.4285411874	 0.6225892942	-3.1412135914	 0.075029
H	 0.7656144427	-2.2112270157	-3.8937669601	 0.086645
H	 3.0242053145	-2.2815440574	-2.5144254338	 0.085324
H	 0.6098944824	-3.0001169852	-1.098937118	 0.09168
H	 2.7274379992	-0.6121617478	-0.3806246886	 0.08433
H	 2.5349769516	 0.9373899316	-2.7100140006	 0.282409
93.0371	139.6343	194.1572	218.9799	289.1745	306.0346	345.2037	358.2922	500.5463	585.3292	636.9094	715.4792	759.3372	790.8333	801.4802	818.4033	866.8012	919.5696	935.8742	958.7932	984.9405	997.2359	999.5886	1023.3472	1036.16	1051.6809	1108.591	1117.7847	1139.8823	1161.0273	1189.3796	1216.5244	1235.7605	1262.8677	1289.3574	1319.9153	1331.7931	1363.8149	1380.2899	1412.807	1433.617	1486.808	1496.4925	1505.7756	1509.651	3008.2014	3011.0387	3037.0869	3041.4081	3066.1047	3083.002	3101.9631	3118.5862	3190.6757	3198.4051	3231.3564	3822.7268
CCC12CC3C(C13)C2O	CC[C@]12C[C@H]3[C@H]([C@@H]13)[C@H]2O	
InChI=1S/C8H12O/c1-2-8-3-4-5(6(4)8)7(8)9/h4-7,9H,2-3H2,1H3	InChI=1S/C8H12O/c1-2-8-3-4-5(6(4)8)7(8)9/h4-7,9H,2-3H2,1H3/t4-,5+,6-,7+,8-/m0/s1
