16
gdb 73906	2.47037	1.34	0.87818	5.0771	77.72	-0.2345	-0.054	0.1805	1247.963	0.123636	-437.962565	-437.954038	-437.953094	-437.995928	31.011	
C	 0.0574374953	 1.5325934428	 0.038191984	-0.506059
C	-0.0423899446	 0.0441351384	 0.0280822516	 0.307858
C	-1.1244242148	-0.7767536602	-0.0541347287	 0.074169
C	-0.6512738744	-2.2087293931	-0.0216940384	-0.454785
C	 0.8686178806	-2.086370605	 0.091303251	 0.423644
O	 1.7140128906	-2.9417401845	 0.1517970984	-0.347354
N	 1.1191393095	-0.7086071383	 0.1133359516	-0.369397
C	-2.5127099801	-0.3915660121	-0.1563113348	 0.06709
O	-3.4348276874	-1.1825875714	-0.2264075494	-0.298414
H	 0.6702320372	 1.8823924965	-0.8007934552	 0.150482
H	-0.9233916654	 2.0012652028	-0.0343978081	 0.158711
H	 0.5386127686	 1.8795934206	 0.9600071205	 0.150522
H	-1.0476231821	-2.7768220817	 0.8264129867	 0.162638
H	-0.9181803412	-2.7737936741	-0.9208791892	 0.162638
H	 2.0524556423	-0.3334624672	 0.1822552497	 0.264922
H	-2.707157774	 0.7037203965	-0.1683115997	 0.053332
104.6237	135.5796	169.1879	177.3326	203.0614	288.3106	337.2506	460.2984	477.6214	536.7375	568.0446	604.7803	623.8041	668.513	827.7833	868.1519	940.7742	999.0073	1022.8969	1061.748	1077.6144	1141.5695	1187.0084	1230.0032	1284.8412	1354.5396	1406.4291	1427.1067	1434.2316	1451.2019	1477.2819	1486.1197	1672.3157	1758.5488	1855.6332	2877.3947	3034.9113	3061.4386	3085.6042	3093.3133	3156.5825	3640.7856
CC1=C(CC(=O)N1)C=O	CC1=C(CC(=O)N1)C=O	
InChI=1S/C6H7NO2/c1-4-5(3-8)2-6(9)7-4/h3H,2H2,1H3,(H,7,9)	InChI=1S/C6H7NO2/c1-4-5(3-8)2-6(9)7-4/h3H,2H2,1H3,(H,7,9)
