19
gdb 92982	2.97962	1.39428	1.12644	2.5634	76.08	-0.2489	0.0171	0.266	1122.7145	0.159692	-423.006649	-422.998427	-422.997483	-423.039789	31.558	
O	-0.082032356	 1.4695651633	 0.0338345722	-0.433603
C	-0.0010955276	 0.0553877728	 0.0704250287	 0.11613
C	 0.5831099031	-0.4571518648	 1.4131740064	-0.277377
C	-0.6409291184	-0.8625175388	 2.1944327519	-0.084437
C	-1.7214193944	-0.9474152775	 1.4206376619	-0.064519
C	-1.411499948	-0.6216825053	-0.0261744286	-0.125996
C	-2.4169211589	 0.2455534258	-0.755985013	 0.092937
C	-3.8472562298	 0.2946980014	-0.4255405696	-0.192814
O	-2.9695317242	 1.3522338808	-0.0307770726	-0.241498
H	-0.821182771	 1.7434342495	 0.5905697565	 0.297439
H	 0.634701939	-0.214531778	-0.7773286752	 0.0814
H	 1.2517198183	-1.3160191934	 1.2604172706	 0.104836
H	 1.1783095146	 0.3292248739	 1.8890873517	 0.114865
H	-0.6168538176	-1.0870075889	 3.2551389422	 0.095685
H	-2.7033524938	-1.2571207044	 1.7581643943	 0.094069
H	-1.320428192	-1.5556653689	-0.6032407431	 0.088657
H	-2.1339352285	 0.4978199927	-1.7783778044	 0.101287
H	-4.5667269705	 0.5568457106	-1.1999297966	 0.116962
H	-4.2463017843	-0.310229471	 0.3858630665	 0.115979
69.9227	89.9418	194.5654	207.7408	348.8872	352.8761	392.5863	413.2388	471.5323	608.663	705.8581	767.2463	788.9186	814.6282	846.3029	871.0908	903.2503	959.9329	972.8341	975.1885	983.8484	1025.6913	1080.7789	1097.6757	1113.7052	1138.8006	1161.6916	1168.606	1185.6983	1223.6012	1265.2766	1282.7243	1307.4853	1328.2316	1332.0966	1387.4638	1431.047	1442.9476	1474.4945	1530.1657	1683.3336	2979.6868	3011.5512	3071.94	3074.837	3089.9844	3108.8572	3175.2428	3185.8408	3211.4938	3786.8672
OC1CC=CC1C1CO1	O[C@H]1CC=C[C@H]1[C@H]1CO1	
InChI=1S/C7H10O2/c8-6-3-1-2-5(6)7-4-9-7/h1-2,5-8H,3-4H2	InChI=1S/C7H10O2/c8-6-3-1-2-5(6)7-4-9-7/h1-2,5-8H,3-4H2/t5-,6+,7-/m1/s1
