17
gdb 30217	3.61703	1.28172	1.00368	2.8009	76.73	-0.2166	0.0263	0.2429	1168.2102	0.137254	-418.01141	-418.003219	-418.002275	-418.044638	30.059	
C	-0.0297297552	 1.5271158141	-0.0898446965	-0.488962
C	 0.0701736518	 0.040306712	-0.0633853536	 0.302752
N	-0.1283029598	-0.7735504527	-1.0946083235	-0.300972
C	 0.0437541524	-2.0703567633	-0.6577145049	-0.239957
C	 0.369096432	-2.0345033283	 0.6759460038	 0.218616
C	 0.671328853	-2.4971735753	 2.0991276108	-0.014866
O	 1.8295116478	-3.2458868562	 2.3410087478	-0.414796
C	 0.7019300078	-0.9466104197	 2.4529400346	-0.21434
N	 0.3894193326	-0.7108622387	 1.0254076507	-0.035717
H	 0.9161583951	 2.0047142451	 0.1902328577	 0.130183
H	-0.2901501993	 1.8415037252	-1.1012495588	 0.156636
H	-0.7998368495	 1.8960399533	 0.5972583667	 0.131001
H	-0.0717037719	-2.9072050444	-1.3279154078	 0.110663
H	-0.1423241083	-3.0265037386	 2.6013456371	 0.115499
H	 2.5052989265	-2.9570677341	 1.7172214205	 0.286567
H	-0.0684021211	-0.5898021143	 3.1412403216	 0.130799
H	 1.6849592763	-0.5795043241	 2.7588420839	 0.126895
78.2787	99.3377	132.6257	227.254	259.383	331.9111	378.6052	462.7741	535.7623	642.5693	674.0564	681.9029	756.022	775.5698	833.1824	872.1273	980.2686	993.7761	1032.8143	1061.8223	1131.7627	1142.9078	1151.8144	1192.0541	1205.6659	1241.9657	1291.9523	1297.8059	1365.2641	1407.1376	1418.6251	1434.4365	1482.6658	1491.4061	1506.5008	1529.3386	1561.0977	3031.2954	3059.7274	3079.8242	3084.5625	3121.797	3148.3646	3259.7507	3799.7117
CC1=NC=C2C(O)CN12	Cc1ncc2[C@@H](O)Cn12	
InChI=1S/C6H8N2O/c1-4-7-2-5-6(9)3-8(4)5/h2,6,9H,3H2,1H3	InChI=1S/C6H8N2O/c1-4-7-2-5-6(9)3-8(4)5/h2,6,9H,3H2,1H3/t6-/m0/s1
