23
gdb 118969	2.37541	1.06387	1.01645	1.3301	82.63	-0.245	0.0747	0.3198	1378.9851	0.203578	-425.405625	-425.395083	-425.394139	-425.441006	38.701	
C	-0.0425161617	 1.3639049118	 0.0915697471	-0.22349
O	-0.0191719753	-0.0404823599	 0.1465859193	-0.241633
C	-1.2820082539	-0.6214043211	-0.1209714109	-0.091303
C	-1.1334020525	-2.1419331406	-0.0567134362	 0.283113
C	-0.1782621191	-2.6416556191	-1.1353557991	-0.468313
C	-0.878000166	-2.6235879414	 1.4079506825	-0.250693
C	-2.4009112478	-2.8836107539	 1.5723285841	-0.273594
C	-2.5219791784	-2.839845253	 0.0262968071	 0.097708
O	-3.5794157177	-2.120836343	-0.5713045655	-0.435367
H	 0.9665089921	 1.7194114345	 0.3159950065	 0.122922
H	-0.3348158604	 1.7306303357	-0.9054929575	 0.102548
H	-0.7417827689	 1.7914899748	 0.8283093933	 0.100695
H	-2.0252766513	-0.2641602518	 0.60862213	 0.086384
H	-1.6428367476	-0.3191886171	-1.1169010472	 0.095059
H	 0.7989764906	-2.161292997	-1.0377129559	 0.132324
H	-0.0391678254	-3.7255758685	-1.0650027331	 0.101364
H	-0.5665997077	-2.4155792593	-2.1356290112	 0.113282
H	-0.2925174375	-3.5464098753	 1.4372068968	 0.095265
H	-0.4149621108	-1.8956328043	 2.075490382	 0.110567
H	-2.7124362454	-3.8008073503	 2.0783528424	 0.089971
H	-2.9198266294	-2.035739561	 2.0276622783	 0.106622
H	-2.4515150242	-3.8535149787	-0.3961850166	 0.06278
H	-4.3962321816	-2.6105704716	-0.4341739162	 0.283789
81.5211	104.4661	123.9961	145.1773	206.9882	226.0824	237.3167	256.3488	273.8797	333.6389	362.5579	421.6759	489.3019	548.2486	616.0961	751.8306	785.5014	882.4779	914.8252	949.8929	962.7949	977.192	992.3739	1013.3634	1103.6341	1135.104	1146.587	1161.7088	1179.1718	1184.2898	1207.9704	1213.8505	1232.3599	1250.6121	1255.8278	1296.718	1315.1414	1344.4725	1399.63	1418.2295	1426.9774	1480.3057	1483.604	1484.0302	1490.4271	1498.2033	1502.2437	1508.7662	1523.475	2962.7295	2976.9227	2982.042	3003.5748	3008.8375	3027.0547	3058.8504	3066.6409	3089.8395	3108.395	3109.4614	3117.098	3129.0637	3818.9068
COCC1(C)CCC1O	COC[C@@]1(C)CC[C@H]1O	
InChI=1S/C7H14O2/c1-7(5-9-2)4-3-6(7)8/h6,8H,3-5H2,1-2H3	InChI=1S/C7H14O2/c1-7(5-9-2)4-3-6(7)8/h6,8H,3-5H2,1-2H3/t6-,7-/m1/s1
