15
gdb 25202	2.60537	1.7787	1.05705	3.7784	82.74	-0.2282	-0.0675	0.1608	1063.0036	0.11494	-416.819065	-416.811665	-416.81072	-416.851922	27.826	
N	 0.0634604316	 0.9937339954	-0.9284691762	-0.477597
C	 0.0290404354	 0.00458781	-0.1403677626	 0.320682
O	 1.2233269297	-0.4157373782	 0.3979589073	-0.235733
C	 1.530547829	-1.4198604572	 1.2546837443	 0.044187
C	 0.7499191348	-2.3293238357	 1.8524169038	-0.146722
C	-0.674956302	-2.4929150849	 1.743698782	-0.110595
C	-1.5487779851	-1.7697886781	 1.0171134529	-0.093697
C	-1.3265035475	-0.6288839547	 0.1404553357	 0.202161
N	-2.3564850022	-0.1273440647	-0.4338610966	-0.461835
H	 1.0165954679	 1.337209079	-1.0439635211	 0.235837
H	 2.6011032267	-1.4056554056	 1.4235694295	 0.134342
H	 1.2791717703	-3.0226342994	 2.4973226557	 0.110463
H	-1.0888533438	-3.3095833906	 2.3285892028	 0.110528
H	-2.5995422956	-2.0372634361	 1.0546970919	 0.118941
H	-2.0611661591	 0.6616497107	-1.0167652694	 0.249038
46.8852	68.788	312.2965	344.9843	387.8079	416.8109	452.7467	515.5537	571.516	643.6473	734.6266	752.8294	787.2318	865.9578	896.5823	900.8208	937.3187	942.3462	983.2058	983.2755	1025.5519	1113.3188	1169.0933	1255.3017	1285.8131	1346.4446	1407.0793	1432.6351	1471.9554	1633.5822	1654.5531	1702.6363	1719.2804	3163.5085	3185.4245	3194.8067	3210.9651	3434.5704	3500.8644
N=C1OC=CC=CC1=N	[NH]C1=C(C=CC=CO1)[NH]	
InChI=1S/C6H6N2O/c7-5-3-1-2-4-9-6(5)8/h1-4,7-8H	InChI=1S/C6H6N2O/c7-5-3-1-2-4-9-6(5)8/h1-4,7-8H
