17
gdb 35347	3.68229	1.37888	1.2306	4.6343	78.54	-0.2289	0.0129	0.2418	1029.4645	0.137357	-380.723502	-380.716472	-380.715528	-380.754822	28.298	
N	-0.0866523233	-1.2518764642	-0.0032400982	-0.338768
C	-0.0577570454	-0.0950895657	 0.0058121792	 0.302321
C	-0.0482317628	 1.3539618958	 0.0155008777	-0.224651
C	-0.3692739426	 2.0664141227	 1.4272348413	-0.352662
C	 1.1453267247	 2.3970765138	 1.4682931666	 0.247881
C	 2.4283069972	 3.2888799769	 1.3714338061	-0.249276
N	 2.7960931814	 2.0446738772	 0.4870996485	-0.171438
C	 2.1630959245	 1.2390252121	 1.6283327095	-0.205982
C	 1.3078027561	 2.2093894206	-0.0049800107	 0.026178
H	-0.7050882227	 1.6961218362	-0.7879479077	 0.139156
H	-1.0237007243	 2.9265083145	 1.2699553995	 0.125934
H	-0.7759236924	 1.4297466642	 2.2151757668	 0.132516
H	 2.3512691327	 4.2219906495	 0.808542329	 0.114541
H	 3.091172242	 3.3837596406	 2.2357487231	 0.115538
H	 2.7660026289	 1.2286184013	 2.5400106082	 0.103892
H	 1.8789402194	 0.2267549071	 1.3430183312	 0.144319
H	 1.2064714466	 3.0510802776	-0.6926154202	 0.090502
136.5893	140.3595	293.516	334.7056	384.7778	469.574	519.7798	584.5559	607.0693	685.11	743.8917	772.2278	823.9599	857.6871	890.6715	892.3402	914.2158	981.0366	1004.843	1018.6579	1059.7522	1069.7195	1114.1613	1150.4184	1156.0279	1183.9302	1196.0497	1209.6222	1219.24	1249.7983	1283.4926	1302.6174	1364.8837	1472.0307	1508.4474	1554.3429	2346.032	3055.6813	3069.7541	3072.8506	3079.771	3093.9473	3132.7319	3139.3003	3152.5448
N#CC1CC23CN(C2)C13	N#C[C@H]1C[C@@]23CN(C2)[C@@H]13	
InChI=1S/C7H8N2/c8-2-5-1-7-3-9(4-7)6(5)7/h5-6H,1,3-4H2	InChI=1S/C7H8N2/c8-2-5-1-7-3-9(4-7)6(5)7/h5-6H,1,3-4H2/t5-,6+/m1/s1
