13
gdb 128879	3.74627	1.35433	1.00754	7.4447	72.67	-0.2726	-0.0282	0.2445	1084.201	0.091712	-411.762384	-411.755551	-411.754607	-411.794059	24.898	
N	 0.0391046348	-1.1641022474	-0.0751597156	-0.341635
C	 0.0206540726	-0.0073753282	-0.0437293907	 0.22358
C	-0.0455613053	 1.4059152401	-0.0015722488	 0.077453
C	-1.1290427892	 2.2552517744	 0.1273764303	 0.265352
C	-2.5437172321	 2.8010611291	 0.2820603169	-0.38378
C	-1.8620621832	 4.2253287776	 0.2504818828	-0.167396
N	-0.58872851	 3.4746596589	 0.1044776196	 0.078244
N	 0.7530717439	 3.4744601525	-0.0288553485	-0.152093
N	 1.0756454198	 2.2123542015	-0.0924586272	-0.235635
H	-3.2149867095	 2.5977668805	-0.5532099261	 0.157765
H	-3.0382496896	 2.5525889672	 1.2219028194	 0.157767
H	-2.093891384	 4.848946741	-0.613475942	 0.16018
H	-1.9158687283	 4.8033399127	 1.1735628999	 0.160197
117.0975	144.8964	191.7712	259.1861	402.1914	534.6458	555.5418	570.058	678.3755	719.1041	722.4697	806.5324	868.8873	900.425	1062.0544	1062.4243	1123.436	1134.2729	1177.6036	1211.3817	1219.9403	1263.9703	1280.262	1334.5614	1471.6375	1482.1856	1524.9567	1580.5191	2359.1354	3092.6682	3095.5007	3146.6966	3162.5083
N#CC1=C2CCN2N=N1	N#Cc1c2CCn2nn1	
InChI=1S/C5H4N4/c6-3-4-5-1-2-9(5)8-7-4/h1-2H2	InChI=1S/C5H4N4/c6-3-4-5-1-2-9(5)8-7-4/h1-2H2
