15
gdb 80126	2.73595	1.55216	1.29816	0.7258	67.95	-0.2423	-0.0405	0.2018	983.5809	0.112929	-453.940288	-453.932624	-453.93168	-453.972355	28.942	
O	 0.0460591694	 1.3595773362	-0.0298361767	-0.423213
C	 0.0245028834	-0.0165636944	 0.0937550151	 0.083762
C	-0.3878709713	-0.7190062007	 1.3609084466	-0.104058
N	-1.1488804891	-0.0165732407	 2.3333840118	-0.203638
C	-2.2295626575	 0.3967803842	 1.7814135329	 0.035506
N	-2.4039631173	 0.0900736455	 0.4356603351	-0.36299
C	-1.3021145259	-0.7423756404	 0.0390569772	 0.165356
C	-1.6033823302	-1.8887201243	-0.8202562106	 0.071022
O	-2.7264178322	-2.1656724392	-1.1820788825	-0.289424
H	-0.86474645	 1.6562333189	-0.1615882988	 0.300203
H	 0.836687524	-0.5016128971	-0.4437131518	 0.116795
H	 0.1864261723	-1.5761090165	 1.6960457587	 0.113591
H	-2.9772348202	 0.9917990963	 2.2941581918	 0.141722
H	-3.3102981179	-0.1959355229	 0.083692081	 0.26824
H	-0.7219892476	-2.4912392949	-1.1246766298	 0.087125
112.638	193.921	204.9017	237.6808	290.2805	318.3163	421.717	500.1274	541.9578	617.9997	644.5009	724.2004	763.4175	804.762	897.1373	920.2907	924.9648	1011.0203	1046.2451	1062.9453	1096.642	1113.0413	1147.3829	1224.2683	1282.2942	1327.7127	1338.1088	1356.4049	1405.6226	1414.6619	1454.6874	1648.5997	1780.4367	2913.6895	3134.5315	3172.4822	3208.84	3563.9213	3747.5537
OC1C2N=CNC12C=O	O[C@H]1[C@H]2N=CN[C@@]12C=O	
InChI=1S/C5H6N2O2/c8-1-5-3(4(5)9)6-2-7-5/h1-4,9H,(H,6,7)	InChI=1S/C5H6N2O2/c8-1-5-3(4(5)9)6-2-7-5/h1-4,9H,(H,6,7)/t3-,4+,5-/m1/s1
