17
gdb 48084	2.95849	1.44376	1.14442	3.4463	76.09	-0.2367	-0.0621	0.1746	1082.6663	0.136252	-417.941246	-417.933539	-417.932595	-417.973876	29.18	
N	 0.1813340478	 1.3671360685	 0.7024853105	-0.498775
C	 0.1285943826	 0.2193769299	 0.1299768101	 0.215967
C	-1.2402167545	-0.4146086142	 0.1285459147	 0.163207
O	-1.4942058122	-1.5140993558	-0.2948353088	-0.264437
N	 1.1178515998	-0.4397359471	-0.5711516053	-0.108642
C	 1.4771260797	-1.9110439544	-0.3927170145	-0.021367
C	 2.7706771347	-1.5860102024	-1.1847113757	-0.218032
C	 2.5718783114	-0.4449291142	-0.1509179076	-0.037452
C	 2.2381945295	-1.534043788	 0.91292891	-0.22632
H	 1.1293925549	 1.7504100513	 0.6902793064	 0.217284
H	-1.9986387538	 0.2487951056	 0.5887040778	 0.110023
H	 0.7419244139	-2.6910041356	-0.5632830352	 0.127138
H	 3.6222257263	-2.2461282328	-1.0175517678	 0.106217
H	 2.6356279764	-1.3136580341	-2.2312764881	 0.116809
H	 3.1439929059	 0.4764090379	-0.0407994601	 0.096085
H	 1.6278971977	-1.212908261	 1.7587503823	 0.117863
H	 3.05380461	-2.1923851938	 1.2222184212	 0.104432
75.0092	155.3194	161.1041	177.2215	289.9065	440.1391	528.9221	535.0682	612.2462	651.9856	705.0424	786.3091	804.3847	895.449	897.3721	907.3692	922.9579	988.2934	1011.3021	1015.4681	1047.5627	1068.1067	1095.6068	1120.9038	1124.2398	1183.9584	1197.2769	1213.5181	1227.457	1263.2113	1271.6591	1380.3296	1406.8625	1482.7514	1521.8736	1664.657	1816.3702	2954.6787	3064.1486	3087.6094	3117.6133	3139.0635	3165.9514	3181.8103	3449.5053
N=C(C=O)N1C2CC1C2	[NH][C](C=O)N1[C@H]2C[C@@H]1C2	
InChI=1S/C6H8N2O/c7-6(3-9)8-4-1-5(8)2-4/h3-5,7H,1-2H2	InChI=1S/C6H8N2O/c7-6(3-9)8-4-1-5(8)2-4/h3-5,7H,1-2H2/t4-,5+
