19
gdb 92220	3.01841	1.70968	1.57127	2.7545	72.68	-0.2365	0.0674	0.3039	926.2908	0.16272	-423.008453	-423.001756	-423.000811	-423.039189	28.355	
O	 0.0763675383	 1.4482109855	-0.1518715229	-0.432196
C	 0.0767016285	 0.0295322488	-0.0221895919	 0.084475
C	 0.6922517032	-0.4946948182	 1.315511335	-0.255325
C	-0.5407080353	-0.8309724177	 2.1668300744	-0.050682
C	-1.4108177499	 0.4530807298	 2.3305341475	-0.218099
C	-2.3155932965	 0.1956738039	 1.1118361653	 0.078867
O	-2.8315763601	-1.1375167473	 1.4350927203	-0.304497
C	-1.4811725814	-1.5583483293	 1.1411308359	 0.078328
C	-1.3655170845	-0.4628156104	 0.0576264578	-0.029005
H	 0.9903329526	 1.7411535471	-0.2212010446	 0.283056
H	 0.5875659722	-0.4203666333	-0.8852358495	 0.066502
H	 1.2934148392	-1.3923238401	 1.1254472335	 0.094784
H	 1.3473208789	 0.2506624908	 1.7781130727	 0.093748
H	-0.3309318449	-1.3711046833	 3.0900316727	 0.064601
H	-2.0093778254	 0.4494701874	 3.2436019089	 0.102116
H	-0.8347077617	 1.3768299558	 2.2667287071	 0.107616
H	-3.0850745789	 0.9191038594	 0.8465541792	 0.080282
H	-1.3625810902	-2.6283769118	 0.9692252659	 0.076817
H	-1.8690913843	-0.6760710571	-0.8836689171	 0.078611
158.6524	241.4008	294.3917	388.0604	421.447	473.3134	527.7458	591.6184	681.7687	773.5139	796.5187	834.1363	855.0852	865.5078	883.462	906.4947	952.1418	957.7136	978.7686	1001.783	1021.2731	1041.9601	1072.8162	1090.9713	1107.4716	1158.4413	1170.2503	1197.3545	1221.1552	1242.3194	1243.6757	1260.9649	1298.2118	1309.3269	1314.7942	1333.592	1352.4614	1369.8966	1429.2367	1477.7146	1490.8482	2990.2964	3031.8902	3078.2174	3081.2488	3108.6697	3120.115	3129.5708	3139.0062	3140.2844	3818.3193
OC1CC2CC3OC2C13	O[C@H]1C[C@H]2C[C@@H]3O[C@H]2[C@H]13	
InChI=1S/C7H10O2/c8-4-1-3-2-5-6(4)7(3)9-5/h3-8H,1-2H2	InChI=1S/C7H10O2/c8-4-1-3-2-5-6(4)7(3)9-5/h3-8H,1-2H2/t3-,4-,5-,6+,7+/m0/s1
