22
gdb 26144	2.42556	1.25105	1.01167	1.9379	90.02	-0.1904	0.0498	0.2402	1317.0268	0.19397	-367.266714	-367.256681	-367.255737	-367.30215	37.214	
C	-0.0044256254	 1.5894539443	 0.0109429165	-0.374028
C	 0.0053318487	 0.0499240261	 0.0530450499	-0.088421
C	 0.8052132502	-0.4560924481	 1.2680303952	-0.374024
C	-1.3924755271	-0.51641784	 0.0318061057	 0.231819
C	-1.9509476499	-1.3320257853	-0.9358584392	 0.183999
C	-1.4019139363	-1.8958179653	-2.2063761133	-0.509251
N	-3.2447906659	-1.6048821055	-0.5471968082	-0.28826
C	-3.5248974536	-0.9840850926	 0.6438273222	-0.089453
C	-2.3984750902	-0.3025335048	 1.027679331	-0.239825
H	 1.0158900787	 1.9885288256	-0.0097818653	 0.101297
H	-0.5350283408	 1.9561524853	-0.8727987188	 0.110647
H	-0.5063986733	 2.0012838225	 0.8932984594	 0.112651
H	 0.5259915869	-0.2979105412	-0.848325052	 0.06244
H	 0.3384170785	-0.1333074644	 2.205074592	 0.112655
H	 0.8524024064	-1.5490717919	 1.2812740098	 0.110641
H	 1.8296211317	-0.0673519992	 1.2537174393	 0.101297
H	-1.4078375299	-2.9935726902	-2.2082771919	 0.123197
H	-1.9712824588	-1.5663192737	-3.0852044379	 0.123243
H	-0.3678891044	-1.5770945453	-2.3519848605	 0.13908
H	-3.8868032962	-2.1788542237	-1.0651962158	 0.252451
H	-4.4927639743	-1.0809164302	 1.1089734816	 0.111447
H	-2.2978666449	 0.2890781977	 1.9252799202	 0.086398
33.8428	76.5103	140.8833	187.0428	227.5571	231.1484	253.7818	282.3923	372.7614	410.992	451.9615	495.7655	598.147	636.4063	687.9792	703.4134	728.1275	820.7938	881.6261	919.9502	925.4462	959.1176	974.0237	1059.5949	1061.2948	1068.8377	1120.2549	1123.2151	1155.7879	1195.8589	1265.4745	1303.0362	1336.2244	1355.0315	1394.6844	1412.9375	1416.315	1441.69	1475.0881	1481.0244	1485.8484	1489.2053	1494.7298	1501.0308	1508.0006	1525.092	1628.3278	3011.4619	3018.0471	3024.9545	3029.6079	3052.5176	3090.3997	3097.1348	3104.7104	3107.3234	3125.5589	3237.765	3266.4634	3678.8431
CC(C)C1=C(C)NC=C1	CC(C)c1c(C)[nH]cc1	
InChI=1S/C8H13N/c1-6(2)8-4-5-9-7(8)3/h4-6,9H,1-3H3	InChI=1S/C8H13N/c1-6(2)8-4-5-9-7(8)3/h4-6,9H,1-3H3
