14
gdb 48103	2.85375	1.12997	1.01004	4.0931	68.52	-0.267	-0.1105	0.1565	1183.0913	0.099215	-436.701652	-436.693125	-436.692181	-436.735882	29.581	
O	-0.7696527244	 1.3283940281	-0.4749014539	-0.216201
C	 0.2945704878	 0.9256037001	-0.0858333904	 0.094562
C	 1.4942619232	 1.8407410126	 0.1908598209	 0.28986
O	 2.5122262238	 1.3486390552	 0.6229567024	-0.284792
C	 1.3061831755	 3.2870767996	-0.0916843368	-0.1312
C	 2.2063767729	 4.2699955584	 0.6135258104	-0.287418
C	 2.4135601869	 4.0416646851	-0.856048978	-0.166342
C	 3.5779631725	 3.3546965593	-1.3439194214	 0.308749
N	 4.5172591655	 2.8363404079	-1.7749162348	-0.328026
H	 0.5127783168	-0.1416503335	 0.1213599763	 0.120459
H	 0.2942189409	 3.5778888274	-0.3430240122	 0.137276
H	 1.7837464161	 5.2190714379	 0.9196923631	 0.143922
H	 2.9407568576	 3.8340147084	 1.2809288635	 0.167204
H	 2.0454062248	 4.8051677335	-1.5331735992	 0.151947
42.5813	109.8828	140.6691	169.4457	215.493	265.4927	289.7108	492.6785	528.2671	560.4534	633.4995	655.8763	756.6766	774.239	852.7483	905.0605	971.1307	1034.6484	1066.3922	1101.3788	1131.8796	1151.7428	1163.8127	1210.3317	1362.7366	1378.0817	1414.2456	1471.129	1792.9418	1822.1784	2360.8569	2946.149	3149.5762	3172.5016	3207.0036	3249.0155
O=CC(=O)C1CC1C#N	O=CC(=O)[C@H]1C[C@H]1C#N	
InChI=1S/C6H5NO2/c7-2-4-1-5(4)6(9)3-8/h3-5H,1H2	InChI=1S/C6H5NO2/c7-2-4-1-5(4)6(9)3-8/h3-5H,1H2/t4-,5-/m0/s1
