16
gdb 11223	4.24245	1.40904	1.23159	3.714	71.41	-0.238	0.0001	0.2381	1008.0386	0.13158	-342.802506	-342.794746	-342.793802	-342.834766	28.226	
C	 0.0302211837	 1.5336734252	 0.0464026141	-0.493056
C	 0.0418439305	 0.0409287472	 0.0014587217	 0.338996
C	-0.1016337972	-0.7505586733	-1.0591519914	-0.173686
C	-0.0538444994	-2.2104288931	-0.6583131467	-0.139595
N	 0.4253097886	-2.1507980995	 0.7311145025	-0.312232
C	 0.2101305395	-0.7920536387	 1.2500367903	-0.244434
C	-1.3846248535	-2.8487430262	-0.7948528288	 0.247323
N	-2.4183039855	-3.3622072546	-0.8692753204	-0.327628
H	 0.9708249848	 1.922660741	 0.4548163081	 0.13517
H	-0.117791505	 1.9656327712	-0.9461723516	 0.133102
H	-0.7706551821	 1.8989076636	 0.701118368	 0.136868
H	-0.2637908408	-0.4417346717	-2.0834229181	 0.11328
H	 0.6409963167	-2.791112526	-1.2816266993	 0.127468
H	 0.0149121982	-2.8694020116	 1.312398891	 0.236895
H	 1.0720594676	-0.4683814013	 1.8501600683	 0.113345
H	-0.6797926862	-0.6959021523	 1.8960816725	 0.108184
84.0327	131.061	172.7828	221.9795	289.5338	317.2559	440.936	495.2994	546.6858	603.3105	676.35	801.4626	845.9732	891.0954	925.8217	967.1736	991.5001	1008.037	1044.4957	1090.5943	1121.5372	1196.8771	1208.2775	1266.7794	1304.1912	1342.7481	1364.9723	1416.4746	1448.4155	1479.5275	1487.713	1515.9276	1730.3672	2340.925	2952.9759	2998.9573	3011.9945	3025.5216	3073.7407	3121.2962	3223.8324	3578.5921
CC1=CC(NC1)C#N	CC1=C[C@@H](NC1)C#N	
InChI=1S/C6H8N2/c1-5-2-6(3-7)8-4-5/h2,6,8H,4H2,1H3	InChI=1S/C6H8N2/c1-5-2-6(3-7)8-4-5/h2,6,8H,4H2,1H3/t6-/m1/s1
