18
gdb 40024	3.3374	1.4773	1.25222	2.0809	77.9	-0.2263	-0.0023	0.2239	1030.0015	0.149234	-401.906843	-401.899655	-401.89871	-401.938266	29.137	
C	-0.6437022481	 1.2434963292	 0.1196182506	-0.231079
O	 0.7748459629	 1.2005414436	-0.0099374792	-0.283205
C	 0.063818483	-0.0490630068	 0.0093770842	 0.3662
C	 0.3315948336	-0.9015150741	 1.2517695625	-0.231953
N	-0.3037676509	-2.2168649003	 1.2776508792	-0.102946
C	-1.6872632644	-2.3477410969	 0.85155965	-0.241469
C	-0.5721739026	-2.8509831417	-0.0224697973	-0.065054
C	-0.2339596809	-2.1174883235	-1.2632124152	-0.059487
C	 0.0541230906	-0.8127255686	-1.2572950054	-0.154247
H	-1.0194246469	 1.5624660729	 1.0924062226	 0.113095
H	-1.180299034	 1.6436819997	-0.7401616597	 0.113615
H	 1.4137930733	-1.0662125912	 1.3059559951	 0.125733
H	 0.040864124	-0.3572598631	 2.1553872201	 0.11383
H	-2.285845481	-3.0511992342	 1.4248310129	 0.117458
H	-2.2215393746	-1.4678301797	 0.4992793429	 0.118884
H	-0.3857951571	-3.92246577	-0.0405442632	 0.096624
H	-0.2191072663	-2.6865056489	-2.1879600362	 0.099294
H	 0.3023933594	-0.2695043764	-2.163489994	 0.104708
102.2248	216.4935	324.2442	335.9079	354.471	368.	454.7312	528.6855	594.4405	680.1437	740.1354	767.4865	802.0285	825.7267	892.8632	916.7406	923.4184	958.8553	984.1206	1027.3074	1048.8449	1070.3388	1110.8173	1115.1763	1131.9807	1152.9893	1161.5686	1176.054	1255.8963	1288.7072	1315.2104	1349.4719	1354.8228	1400.7177	1439.4293	1482.8767	1505.1555	1522.3117	1697.6308	3041.4556	3069.6517	3087.6975	3097.2695	3128.6716	3158.6115	3168.725	3185.2951	3190.5502
C1OC11CN2CC2C=C1	C1O[C@]21CN1C[C@H]1C=C2	
InChI=1S/C7H9NO/c1-2-7(5-9-7)4-8-3-6(1)8/h1-2,6H,3-5H2	InChI=1S/C7H9NO/c1-2-7(5-9-7)4-8-3-6(1)8/h1-2,6H,3-5H2/t6-,7+,8?/m1/s1
