21
gdb 80568	2.32563	1.55448	1.25168	0.9811	78.81	-0.2388	0.0894	0.3282	1141.6011	0.180596	-424.224018	-424.214585	-424.21364	-424.257924	35.395	
C	-0.0639681538	 1.6011248003	 0.0514068417	-0.413403
C	 0.0327092304	 0.095145576	 0.0482321368	-0.099301
C	 1.3316162762	-0.6487205128	-0.2230906366	-0.007862
O	 2.5225908817	 0.0946741366	-0.1032447809	-0.270477
C	 2.84463367	 0.0631468267	 1.2833598517	 0.225738
C	 3.6644761203	 1.2686749957	 1.6753448688	-0.414697
O	 1.5983218573	 0.0473912639	 1.9675755979	-0.305552
C	 0.7182802152	-0.7043236601	 1.1461731412	 0.373979
C	 0.1056172881	-1.9043483489	 1.8115034868	-0.467374
H	 0.8259127817	 2.0525139866	 0.490026246	 0.136677
H	-0.1734816464	 1.9853023529	-0.9680508706	 0.11693
H	-0.931677773	 1.9320188844	 0.6315592702	 0.116011
H	-0.8363868734	-0.4145310723	-0.3654912756	 0.082691
H	 1.3804636032	-1.4885780356	-0.9097720137	 0.095781
H	 3.3861039615	-0.875770511	 1.501796501	 0.065987
H	 3.1193502181	 2.1879215834	 1.4493724619	 0.134687
H	 3.8822633831	 1.236091768	 2.7458195776	 0.129949
H	 4.6082659679	 1.2686617203	 1.1242160314	 0.13028
H	-0.5333122467	-1.6004473846	 2.6475293159	 0.129677
H	-0.5106306248	-2.4647780128	 1.1022521809	 0.118068
H	 0.8794246734	-2.5741092064	 2.2013036074	 0.122212
95.5548	109.974	178.2766	201.9267	207.982	221.6427	246.712	282.0851	369.869	486.2695	516.6024	568.4003	632.0076	705.1285	764.9462	791.5387	841.7855	876.8777	896.3161	957.3393	981.4234	1024.2341	1045.2339	1110.7583	1117.351	1123.8952	1134.6135	1144.714	1157.5906	1169.179	1239.3338	1268.6624	1333.8224	1371.4438	1394.9611	1411.0743	1413.3674	1433.8942	1452.3353	1480.4018	1482.8357	1484.4179	1489.1603	1496.6006	1502.7343	2931.6963	3032.1377	3041.0115	3055.492	3096.0325	3097.5581	3110.4184	3118.6014	3134.3686	3138.899	3148.8592	3152.2213
CC1C2OC(C)OC12C	C[C@H]1[C@H]2O[C@@H](C)O[C@@]12C	
InChI=1S/C7H12O2/c1-4-6-7(4,3)9-5(2)8-6/h4-6H,1-3H3	InChI=1S/C7H12O2/c1-4-6-7(4,3)9-5(2)8-6/h4-6H,1-3H3/t4-,5+,6+,7-/m0/s1
