20
gdb 6972	2.41362	2.27739	1.59059	1.2166	75.34	-0.2359	0.0254	0.2612	918.299	0.176418	-349.021779	-349.013416	-349.012472	-349.053783	33.013	
C	-0.7193020004	 1.2483820274	 0.0069389037	-0.41996
C	 0.1066508728	-0.0376339322	-0.0848434149	-0.021127
C	 1.2611823165	 0.0036361059	-1.0600207087	-0.06847
C	 2.3146907275	-0.6836699494	-0.621798974	-0.076066
C	 2.0475919735	-1.2993597265	 0.7287250576	-0.310937
C	 0.7843897388	-0.5330023542	 1.2320357127	 0.375836
C	 1.2035869174	 0.6092751289	 2.1630277941	-0.434793
O	-0.1564805203	-1.3777325011	 1.8922468917	-0.480053
H	-0.101572436	 2.1190242985	 0.248102835	 0.114244
H	-1.2128465085	 1.4499242974	-0.9496160454	 0.109916
H	-1.499609896	 1.157356011	 0.7689306949	 0.124105
H	-0.5787769404	-0.8454533775	-0.3823668832	 0.09395
H	 1.1931218246	 0.5113262997	-2.016666576	 0.087014
H	 3.242582854	-0.8290816583	-1.16413772	 0.08936
H	 1.809492274	-2.3679677004	 0.6383355058	 0.109367
H	 2.8936850576	-1.2169836099	 1.4222499653	 0.089094
H	 1.8983325118	 1.2917318674	 1.6638703722	 0.123994
H	 0.3378274943	 1.1795612066	 2.5079424927	 0.122061
H	 1.7173236557	 0.2032527219	 3.0433315274	 0.099991
H	 0.1990442229	-1.5982317752	 2.7595697989	 0.272475
89.6782	239.6359	250.9922	272.458	288.0741	302.4386	326.2618	369.5661	437.8189	452.0726	535.9072	587.444	689.4429	748.2477	768.2229	872.744	915.3614	952.8713	963.698	972.9041	978.1469	1034.2717	1067.5368	1096.9003	1123.7375	1134.3328	1151.0385	1189.9551	1229.4452	1285.9884	1310.7407	1345.2825	1365.9713	1390.211	1402.0134	1410.4896	1482.5983	1491.0642	1492.4538	1504.6852	1510.6838	1684.5449	2990.2371	3012.4233	3026.6873	3034.0561	3048.3557	3092.3842	3099.0897	3109.1232	3125.243	3174.745	3200.757	3807.3385
CC1C=CCC1(C)O	C[C@H]1C=CC[C@]1(C)O	
InChI=1S/C7H12O/c1-6-4-3-5-7(6,2)8/h3-4,6,8H,5H2,1-2H3	InChI=1S/C7H12O/c1-6-4-3-5-7(6,2)8/h3-4,6,8H,5H2,1-2H3/t6-,7-/m0/s1
