25
gdb 117983	2.5093	0.96687	0.8525	1.4298	85.81	-0.2459	0.0712	0.317	1543.8775	0.224316	-426.633937	-426.621914	-426.62097	-426.671424	43.802	
C	-0.1143641654	 1.5287868804	-0.0234385373	-0.385184
C	-0.0251588409	 0.0178002855	 0.1159168422	-0.033384
O	-1.3307803749	-0.5160573809	 0.0128331726	-0.264037
C	-1.4155271458	-1.9364851792	 0.0141905847	 0.142786
C	-1.2760391692	-2.5077657615	 1.4285020264	-0.436015
C	-2.7483089096	-2.3126568492	-0.6942848033	 0.334066
C	-3.9618772076	-1.6830887524	-0.0011409053	-0.43202
C	-2.6815380509	-1.886609785	-2.1620691067	-0.400739
O	-2.864670222	-3.7405935752	-0.7177084474	-0.470156
H	 0.8805000146	 1.9781692716	 0.0510749997	 0.113965
H	-0.5481965639	 1.8008546493	-0.9899112706	 0.125065
H	-0.7448358116	 1.9497531291	 0.7650401188	 0.12551
H	 0.6181345954	-0.4064978265	-0.6728651845	 0.086904
H	 0.4338175463	-0.2445675388	 1.0820058321	 0.08823
H	-0.6054123302	-2.3513801225	-0.6073292284	 0.065575
H	-0.2964087372	-2.2660945229	 1.8498661524	 0.119002
H	-2.0374884123	-2.0999672132	 2.0999020321	 0.121582
H	-1.3584105272	-3.5979188236	 1.4105668172	 0.116088
H	-3.8579949367	-0.5969721094	 0.0467204457	 0.137351
H	-4.874544148	-1.9317112444	-0.5502276753	 0.116239
H	-4.0735387895	-2.051969957	 1.0250385072	 0.100786
H	-1.8765835393	-2.4250989829	-2.6715993338	 0.114381
H	-3.6210343036	-2.1241867314	-2.6684335004	 0.111791
H	-2.4919294753	-0.8145353254	-2.2386107871	 0.125271
H	-3.1952439756	-4.0274356646	 0.139164269	 0.276943
38.2616	61.0025	88.7032	155.3786	200.1464	226.2564	239.7285	249.2064	265.5456	296.7161	305.6365	328.6038	357.7738	381.1557	422.139	477.1394	528.522	557.0221	742.7668	819.1572	857.5488	884.2825	932.7259	948.2077	978.984	1001.6942	1044.2922	1065.9926	1109.0559	1138.1467	1147.5852	1160.9492	1188.2065	1212.3841	1264.0586	1295.1265	1331.0635	1357.9512	1377.8686	1396.7864	1400.7759	1408.8774	1409.7754	1433.6238	1481.1526	1483.2622	1485.082	1493.1992	1499.5051	1501.9938	1504.0046	1510.864	1530.0548	2961.7583	2972.8348	2993.2223	3034.6413	3043.812	3045.9128	3047.554	3099.8095	3113.3934	3114.6099	3118.1958	3120.3582	3122.3877	3134.3158	3142.9991	3821.4592
CCOC(C)C(C)(C)O	CCO[C@@H](C)C(C)(C)O	
InChI=1S/C7H16O2/c1-5-9-6(2)7(3,4)8/h6,8H,5H2,1-4H3	InChI=1S/C7H16O2/c1-5-9-6(2)7(3,4)8/h6,8H,5H2,1-4H3/t6-/m0/s1
