23
gdb 121102	3.33835	0.81441	0.69363	1.3928	82.7	-0.2484	0.0805	0.3289	1684.827	0.205493	-425.439915	-425.429722	-425.428778	-425.476362	36.839	
C	 0.0648738305	 1.5503979494	 0.310174334	-0.409417
C	 0.1324857522	 0.0498152703	 0.0894865888	 0.16373
C	 0.8883437194	-0.4044419878	-1.1800179547	-0.234629
C	 1.5906440436	-1.7140993173	-0.7438278621	-0.248374
C	 1.2020758801	-1.8619716587	 0.7467608088	 0.143146
C	 2.2984891855	-2.3985889946	 1.6528856768	-0.19933
C	 1.8704929235	-2.5072532907	 3.1109601135	-0.077445
O	 2.9507953492	-3.0789408384	 3.8365869324	-0.423701
O	 0.8418859277	-0.5497268068	 1.1677119732	-0.273988
H	 1.0734413126	 1.9736870868	 0.3517035837	 0.121113
H	-0.4819772706	 2.0325790879	-0.5061042223	 0.114471
H	-0.4451341181	 1.7821388524	 1.2494578516	 0.122757
H	-0.8917694313	-0.3633754215	 0.0634506007	 0.057978
H	 0.2102898766	-0.5448040215	-2.0257173211	 0.099585
H	 1.622176183	 0.353544782	-1.4701833834	 0.102255
H	 1.2735869514	-2.5818004507	-1.3278514811	 0.100873
H	 2.6764593138	-1.6300060556	-0.8456789877	 0.104858
H	 0.3129601778	-2.5145298309	 0.8225293166	 0.05604
H	 2.6029148747	-3.3908841127	 1.2993049665	 0.104368
H	 3.1758666463	-1.7453335674	 1.5834297508	 0.10732
H	 1.6105393213	-1.5096237131	 3.4906416075	 0.105925
H	 0.9659829628	-3.1343226988	 3.1857054165	 0.078405
H	 2.718342548	-3.0755564324	 4.7694221512	 0.28406
32.2846	76.7879	93.4048	129.8997	163.4642	232.9274	257.727	296.3816	335.4818	389.0086	459.3424	505.4824	602.8881	661.1671	790.655	819.6052	851.7495	891.4429	928.2628	968.9509	981.1767	1001.2742	1030.7918	1063.268	1094.3662	1113.0163	1128.3065	1152.5078	1173.1637	1207.2298	1234.2502	1245.2078	1266.3369	1282.0235	1306.8264	1314.9547	1330.1878	1349.0495	1381.6867	1391.0227	1405.0732	1428.2063	1459.6505	1479.755	1483.5443	1487.9349	1499.6764	1508.312	1529.1722	2926.9915	2937.1917	2960.5471	3022.4113	3037.403	3039.1573	3051.3165	3062.7215	3083.9242	3091.3338	3110.5874	3113.8084	3117.1837	3831.4747
CC1CCC(CCO)O1	C[C@H]1CC[C@@H](CCO)O1	
InChI=1S/C7H14O2/c1-6-2-3-7(9-6)4-5-8/h6-8H,2-5H2,1H3	InChI=1S/C7H14O2/c1-6-2-3-7(9-6)4-5-8/h6-8H,2-5H2,1H3/t6-,7-/m0/s1
