19
gdb 103440	2.37845	1.59149	1.35579	2.393	70.61	-0.235	0.077	0.312	1050.9304	0.156799	-460.107556	-460.098516	-460.097572	-460.140739	34.329	
C	-0.0984607083	 1.3757786321	 0.0616120728	-0.259116
O	 0.0562338835	-0.0343180007	 0.0046993956	-0.285726
C	 0.6774049734	-0.5373467224	-1.1495066547	 0.369607
C	 2.078080677	 0.012148179	-1.4028202171	-0.473428
C	 0.6446975134	-2.0697569424	-1.1771317961	-0.030486
O	-0.7233859797	-2.4886115797	-1.2098327544	-0.257911
C	-0.1068688906	-2.0950700271	-2.4452843081	-0.00835
C	-0.2362583414	-0.5632615653	-2.4689243837	 0.041491
O	-1.5339868155	-0.0619581481	-2.3433001555	-0.435431
H	 0.8604519167	 1.892167539	 0.2053603987	 0.10629
H	-0.589683732	 1.7643180888	-0.8373653582	 0.131711
H	-0.7318354231	 1.5799559735	 0.9283268993	 0.127614
H	 2.7094821464	-0.1256663955	-0.5188939239	 0.127567
H	 2.5467941324	-0.5107181682	-2.2424919426	 0.122349
H	 2.0545024839	 1.0774794064	-1.6486521619	 0.128416
H	 1.3695560927	-2.768691933	-0.7749197415	 0.105679
H	-0.1026542412	-2.8176742492	-3.2529142929	 0.1076
H	 0.2345404511	-0.0761745402	-3.3259246846	 0.085795
H	-1.9194008888	-0.5398528469	-1.5959838212	 0.29633
128.7146	144.7877	172.1418	207.4962	250.8106	256.1754	287.6219	306.9453	380.8124	467.6281	509.0303	563.6662	638.3371	680.2607	787.9031	857.0794	863.2274	893.1666	911.5298	923.4351	1004.3461	1043.7857	1087.2412	1121.8839	1130.529	1148.027	1177.939	1200.0391	1209.7514	1232.6828	1260.6739	1288.8749	1316.8506	1375.043	1401.7713	1443.462	1475.7205	1484.8227	1493.8383	1505.7219	1509.6123	3005.0003	3036.7857	3075.2127	3092.1668	3107.7631	3112.6881	3119.2487	3178.5288	3193.8397	3762.1221
COC1(C)C2OC2C1O	CO[C@@]1(C)[C@H]2O[C@H]2[C@H]1O	
InChI=1S/C6H10O3/c1-6(8-2)4(7)3-5(6)9-3/h3-5,7H,1-2H3	InChI=1S/C6H10O3/c1-6(8-2)4(7)3-5(6)9-3/h3-5,7H,1-2H3/t3-,4+,5-,6+/m0/s1
