17
gdb 67744	3.29391	1.5628	1.37081	2.4774	71.94	-0.2281	0.0124	0.2405	965.3499	0.135105	-421.78365	-421.776064	-421.77512	-421.814987	31.171	
O	-0.0833289878	 1.3469269984	-0.0245602708	-0.480929
C	 0.0059883046	-0.0419049736	-0.0597920816	 0.37463
C	 0.9867134677	-0.7256454769	-0.9543910814	-0.157587
C	 0.5639367487	-1.9684117785	-1.201737217	-0.174495
C	-0.6847564306	-2.2317821943	-0.3828691242	 0.363428
O	-1.598044884	-3.1849117821	-0.8404985463	-0.496086
C	-0.2326590948	-2.2933024255	 1.1394142973	-0.29228
C	-0.4830786423	-0.7933672761	 1.2150507286	-0.134205
C	-1.273756809	-0.8204875809	-0.0761056699	-0.145665
H	 0.5797067821	 1.676672558	 0.5910445229	 0.285585
H	 1.9101259982	-0.2655535956	-1.2840587245	 0.099554
H	 1.0959601416	-2.7445947746	-1.7404519293	 0.093828
H	-1.1318053571	-4.0182148497	-0.9671338596	 0.278441
H	-0.9965998792	-2.8302303707	 1.7084021324	 0.110383
H	 0.7634937998	-2.6895658265	 1.3648158938	 0.084164
H	-0.6799593968	-0.2130660098	 2.1092514105	 0.088093
H	-2.247597711	-0.4299487915	-0.341246551	 0.103142
163.9195	222.8368	274.9845	315.2244	334.6686	373.0365	398.5694	436.8328	568.1015	568.8831	634.2372	714.7922	722.2254	747.3285	815.6824	862.2118	891.6813	912.5206	923.6133	941.6242	979.0216	993.4001	1020.5903	1070.9618	1085.2386	1132.8164	1142.5916	1212.6142	1224.2795	1230.3607	1275.5526	1318.2444	1343.7827	1380.0937	1409.2149	1482.2741	1643.3052	3034.6079	3104.2878	3176.5304	3187.3882	3205.9119	3216.3972	3803.8764	3807.9733
OC12C=CC3(O)CC1C23	O[C@@]12C=C[C@@]3(O)C[C@@H]1[C@@H]23	
InChI=1S/C7H8O2/c8-6-1-2-7(9)4(3-6)5(6)7/h1-2,4-5,8-9H,3H2	InChI=1S/C7H8O2/c8-6-1-2-7(9)4(3-6)5(6)7/h1-2,4-5,8-9H,3H2/t4-,5-,6-,7+/m1/s1
