20
gdb 93225	2.68427	1.31124	0.93003	2.8107	76.69	-0.2576	0.0173	0.2749	1262.7512	0.171615	-440.305117	-440.296133	-440.295188	-440.338743	34.126	
C	-0.0254243515	 1.558913473	-0.0377749522	-0.39068
C	 0.1045870751	 0.0354517523	 0.0035926809	-0.070581
C	 0.7668249787	-0.5306182506	-1.2644323002	-0.209038
C	 0.9291728952	-2.037901095	-1.1479621266	 0.079389
O	 1.6015031245	-2.510767749	-2.3042994798	-0.427178
C	 1.7483428526	-2.3418768255	 0.1069167172	-0.103847
O	 1.1946002485	-1.764419243	 1.2925834808	-0.25703
C	 0.7962859574	-0.4504983886	 1.2677532707	 0.387882
N	 0.8990641376	 0.2757062325	 2.298818378	-0.501227
H	 0.9601311433	 2.0318066905	-0.085792826	 0.122206
H	-0.5964773966	 1.8634818976	-0.9206750116	 0.10437
H	-0.5253122958	 1.9311975594	 0.8570662827	 0.1415
H	-0.9071164402	-0.3969108124	 0.0562063004	 0.10388
H	 0.1676412663	-0.2815633807	-2.1454903669	 0.109292
H	 1.7579140762	-0.0817614328	-1.4111967984	 0.111067
H	-0.0650821827	-2.5031937186	-1.0517224653	 0.074888
H	 1.601827703	-3.4733078271	-2.2852738002	 0.286916
H	 1.799813097	-3.4174389352	 0.3031919954	 0.105535
H	 2.7716670624	-1.9722576661	-0.0478424934	 0.113722
H	 1.356026699	-0.2500293705	 3.0471285144	 0.218934
70.786	128.3303	198.3587	219.9356	273.1728	286.6423	315.0243	378.307	398.7602	417.9388	476.5596	541.8939	575.2875	703.7154	770.6499	893.1412	920.8137	921.6743	936.6448	997.3828	1006.3151	1061.5791	1096.7498	1127.628	1128.0106	1134.8851	1158.6406	1206.1524	1249.6972	1281.1534	1291.1457	1314.1532	1348.4898	1354.1301	1387.2808	1412.3424	1413.4608	1446.4976	1487.365	1494.5226	1499.6851	1513.6346	1743.9923	2971.946	2985.8604	3013.2077	3031.6834	3044.3677	3081.5834	3086.984	3109.6673	3145.843	3460.8986	3815.5977
CC1CC(O)COC1=N	C[C@H]1C[C@@H](O)CO[C]1[NH]	
InChI=1S/C6H11NO2/c1-4-2-5(8)3-9-6(4)7/h4-5,7-8H,2-3H2,1H3	InChI=1S/C6H11NO2/c1-4-2-5(8)3-9-6(4)7/h4-5,7-8H,2-3H2,1H3/t4-,5+/m0/s1
