20
gdb 93298	2.11709	1.86735	1.27561	2.3556	79.3	-0.2104	-0.015	0.1954	1071.0865	0.171097	-403.153287	-403.144748	-403.143804	-403.186247	33.036	
C	 0.7877259826	 1.4489966559	-0.3336174957	-0.332937
N	 0.0585644579	 0.2620612663	 0.117325646	-0.142726
C	 0.0054132095	-0.791039491	-0.9239380922	-0.19002
C	 1.2865334361	-1.6350262417	-0.7577440761	-0.339218
C	 1.5877647241	-1.4942711908	 0.7382434274	 0.366386
O	 2.3633061734	-2.1447467279	 1.3954663404	-0.336661
C	 0.6826196041	-0.4040172669	 1.2435136168	 0.250441
C	 0.9483600184	 0.2717331163	 2.5569773339	-0.327773
C	-0.1423139095	-0.7516671316	 2.4831281714	-0.29225
H	 1.8268786294	 1.2548553607	-0.6532997678	 0.097476
H	 0.2511541361	 1.8973710203	-1.1750487235	 0.120856
H	 0.8215513745	 2.1873135204	 0.4710700046	 0.123692
H	-0.8792526875	-1.4133755998	-0.7461272846	 0.111578
H	-0.0971548325	-0.3392927833	-1.9124566299	 0.10724
H	 1.1899756385	-2.6848540814	-1.0427040211	 0.130163
H	 2.1293040165	-1.2189095841	-1.3222208722	 0.134095
H	 1.8737798323	-0.0052806988	 3.0507440433	 0.138534
H	 0.66277613	 1.3133111258	 2.6477474846	 0.123724
H	-1.1678065511	-0.4020049781	 2.4697615081	 0.126483
H	 0.0316124273	-1.7214327904	 2.9355632664	 0.130917
77.272	167.934	187.8973	223.3174	242.0779	246.4856	367.4961	459.6375	483.9536	547.7311	572.31	658.7666	676.6466	767.7478	806.2139	839.1629	868.8058	931.3173	951.8716	955.7665	1015.0838	1033.3462	1053.0228	1088.6683	1096.4163	1098.5259	1156.4035	1191.6976	1202.5345	1217.6748	1248.1912	1275.4598	1330.4691	1339.5938	1361.3704	1444.4369	1447.7453	1460.148	1479.0833	1494.2445	1502.5693	1504.1071	1831.8689	2949.8386	3036.8665	3049.1099	3073.4419	3108.6202	3115.9524	3119.0023	3136.6499	3140.16	3225.3898	3242.7841
CN1CCC(=O)C11CC1	CN1CCC(=O)C21CC2	
InChI=1S/C7H11NO/c1-8-5-2-6(9)7(8)3-4-7/h2-5H2,1H3	InChI=1S/C7H11NO/c1-8-5-2-6(9)7(8)3-4-7/h2-5H2,1H3
