14
gdb 10597	2.96013	1.78425	1.34177	2.7999	60.3	-0.2573	-0.0617	0.1956	919.8843	0.103321	-419.671171	-419.663	-419.662056	-419.703795	28.44	
C	 0.2140271119	 1.3870989047	-0.1784295012	-0.438371
C	 0.4019721187	-0.1026952652	-0.0956237722	 0.041126
O	 1.7094895735	-0.6123579868	 0.0271043416	-0.25816
C	 0.8521398291	-0.8127070397	 1.1555081922	 0.174196
C	 1.1527596487	-0.0495698274	 2.4164481767	 0.091995
O	 1.8181847529	 0.9535948672	 2.4573455727	-0.250786
C	 0.3644204852	-2.2208195304	 1.3163319048	 0.103506
O	-0.1303365628	-2.6509851862	 2.326731396	-0.248976
H	 0.8705046829	 1.903003293	 0.5221474555	 0.173675
H	 0.4480171986	 1.7198709256	-1.1950647434	 0.14148
H	-0.8281613075	 1.6487494471	 0.0293585075	 0.133174
H	-0.2401424461	-0.6959192373	-0.7525007305	 0.108971
H	 0.7022092791	-0.5029062005	 3.3197434815	 0.124601
H	 0.5007402357	-2.8377979041	 0.400988709	 0.103569
103.6934	143.4887	192.4437	204.7339	222.5485	235.2284	301.4042	415.4423	450.3759	505.0986	678.3806	752.0195	784.0984	872.2547	986.698	1007.8529	1036.3392	1066.0038	1133.4433	1167.8335	1232.8363	1319.3554	1392.8667	1407.1884	1414.7636	1441.6641	1488.6256	1499.4126	1814.6658	1826.8731	2899.0216	2963.0247	3045.7998	3076.2819	3109.0134	3162.0604
CC1OC1(C=O)C=O	C[C@H]1OC1(C=O)C=O	
InChI=1S/C5H6O3/c1-4-5(2-6,3-7)8-4/h2-4H,1H3	InChI=1S/C5H6O3/c1-4-5(2-6,3-7)8-4/h2-4H,1H3/t4-/m1/s1
