21
gdb 90917	3.37469	1.43138	1.36576	1.7497	82.68	-0.2392	0.0619	0.3011	1060.6058	0.18422	-386.990859	-386.983368	-386.982423	-387.022235	31.315	
C	-0.3921921474	 1.477911365	-0.147886807	-0.40469
C	 0.0341866056	 0.0279643229	-0.0406013891	 0.020282
O	 1.1664883137	-0.2993673902	-0.9664290899	-0.344746
C	 2.0525044344	-0.1038395889	 0.1958871109	 0.147732
C	 2.9901229279	-0.8509027687	 1.2156077678	-0.094654
C	 1.9942178622	-0.125764744	 2.2685515873	-0.335444
C	 0.9539122992	-0.4520576827	 1.1330819223	 0.236033
C	 0.9678632956	-2.0081304749	 1.1795813761	-0.225512
C	 2.4945658438	-2.293553116	 1.2517080437	-0.209526
H	 0.4219408371	 2.1661985106	 0.0937402941	 0.119397
H	-0.729818693	 1.693644304	-1.165891848	 0.130057
H	-1.2234758134	 1.6740851159	 0.5377542782	 0.118714
H	-0.8091542504	-0.6385626725	-0.2473872841	 0.082455
H	 2.3370349692	 0.9538480049	 0.2025367992	 0.077984
H	 4.0656570935	-0.6667251847	 1.2500808452	 0.066771
H	 1.8814367066	-0.6208827683	 3.2375693496	 0.10142
H	 2.2144562506	 0.9338145978	 2.4009465486	 0.110314
H	 0.4241040078	-2.3715074843	 2.0571517183	 0.090688
H	 0.5143929571	-2.4463187003	 0.2896747436	 0.111637
H	 2.8536774601	-2.8760813977	 0.3991626648	 0.106299
H	 2.7980912796	-2.812169978	 2.1656905084	 0.094791
172.7397	206.0007	225.1908	270.4863	343.6237	418.2245	459.864	484.0122	580.3491	647.1378	726.0429	762.2851	791.464	800.7181	848.6536	860.4826	924.4864	945.0533	952.5909	963.016	1001.4794	1019.7792	1027.8624	1039.8235	1065.7255	1123.0705	1130.8428	1150.9564	1166.5052	1190.573	1216.8282	1232.0153	1254.9359	1260.6319	1290.5056	1317.5641	1334.3272	1377.9246	1407.9993	1419.0736	1482.3133	1486.0441	1489.2282	1493.6626	1514.9156	3034.8842	3040.8813	3050.465	3054.3476	3057.8318	3061.0309	3094.962	3099.7353	3108.5873	3120.7472	3123.3489	3139.5065
CC1OC2C3CC12CC3	C[C@H]1O[C@@H]2[C@H]3C[C@@]12CC3	
InChI=1S/C8H12O/c1-5-8-3-2-6(4-8)7(8)9-5/h5-7H,2-4H2,1H3	InChI=1S/C8H12O/c1-5-8-3-2-6(4-8)7(8)9-5/h5-7H,2-4H2,1H3/t5-,6-,7-,8+/m1/s1
