16
gdb 25796	3.77263	1.13582	0.87841	5.2861	79.96	-0.2019	-0.0334	0.1685	1265.0219	0.123768	-437.943863	-437.935176	-437.934232	-437.977498	31.756	
C	-0.1855236595	 1.5008307256	 0.0247134005	-0.486172
C	 0.0177086112	-0.0053798072	-0.0048827516	 0.28214
O	 1.1281762039	-0.5097365238	-0.0465752677	-0.332126
C	-1.1719892451	-0.8406960689	 0.0188452759	 0.240913
C	-1.3418783094	-2.1983049768	 0.0044181369	-0.213666
C	-2.7358687236	-2.4575816911	 0.0387471728	-0.256197
C	-3.3385694276	-1.2213664212	 0.0744550873	 0.380465
N	-4.6503564708	-0.8225865054	 0.1860841568	-0.594603
O	-2.4252223352	-0.237258397	 0.063043593	-0.205166
H	 0.7903903555	 1.9866394079	 0.0062310058	 0.136402
H	-0.7799239125	 1.8292266845	-0.8344745107	 0.134097
H	-0.7338655783	 1.8011213983	 0.9237349562	 0.1377
H	-0.5372652794	-2.9156842297	-0.030036685	 0.13746
H	-3.2340399035	-3.413505709	 0.0399223714	 0.108412
H	-5.3224595585	-1.501024936	-0.1394535332	 0.265502
H	-4.8325053271	 0.10530612	-0.1700935784	 0.264839
81.0747	108.3298	146.4799	155.6225	252.2902	310.4209	367.2696	378.5037	514.3266	549.818	586.6583	628.151	661.2925	699.9287	725.6408	764.2322	891.9025	923.7736	972.7164	1009.3058	1033.357	1039.8626	1081.8216	1121.0457	1232.1264	1312.3581	1330.4322	1381.2031	1455.649	1463.9046	1474.1524	1560.6858	1624.8044	1660.3636	1748.8417	3041.8692	3103.4954	3155.5573	3260.4176	3274.5628	3568.8876	3674.7386
CC(=O)C1=CC=C(N)O1	CC(=O)c1ccc(N)o1	
InChI=1S/C6H7NO2/c1-4(8)5-2-3-6(7)9-5/h2-3H,7H2,1H3	InChI=1S/C6H7NO2/c1-4(8)5-2-3-6(7)9-5/h2-3H,7H2,1H3
