18
gdb 13563	4.09158	1.2608	1.06082	2.4069	69.38	-0.2626	-0.0348	0.2278	1125.6665	0.151747	-384.936214	-384.927456	-384.926511	-384.969896	31.65	
C	 0.0917750805	 1.5508575136	-0.3062122789	-0.404197
C	 0.0571558061	 0.0570123347	-0.0705671109	 0.001584
C	 1.3179250972	-0.7704452563	-0.0686033287	-0.309552
C	 0.5355804074	-0.5812999629	 1.2139487975	-0.01511
C	 1.0975319204	 0.2464288846	 2.3560226629	 0.036245
O	 0.0793493909	 0.8285777418	 3.1251058813	-0.438425
C	 1.9832615729	-0.6210483126	 3.2312503699	 0.137178
O	 1.785010444	-0.7434676861	 4.4162883967	-0.263762
H	 1.0120899172	 2.0064306099	 0.0708666624	 0.115241
H	 0.0378673632	 1.7715008971	-1.377693387	 0.116413
H	-0.7499559619	 2.0479519922	 0.1864212457	 0.134459
H	-0.814615879	-0.4307333066	-0.4987919366	 0.091087
H	 1.3181890438	-1.7484571321	-0.5364841928	 0.115471
H	 2.2588584541	-0.2358619719	-0.1653324666	 0.109957
H	-0.0462859023	-1.4317473694	 1.5598008362	 0.09295
H	 1.760136313	 1.0252152004	 1.9359988397	 0.086382
H	 0.2433760923	 0.5387252169	 4.0367569888	 0.292617
H	 2.8174593001	-1.1412668835	 2.7195975305	 0.101461
58.716	95.2512	143.8248	201.6872	210.4761	314.3677	352.7384	374.4477	403.6278	461.3283	538.5285	746.8255	775.4445	810.8112	853.4795	877.3038	909.7239	996.294	1013.1622	1029.255	1071.0369	1107.826	1149.7956	1155.419	1169.244	1195.283	1242.9432	1262.9206	1307.8346	1386.2416	1391.6301	1408.8952	1425.0162	1443.5002	1490.237	1492.613	1502.4903	1811.1294	2934.093	2949.8646	3035.6398	3097.3323	3106.0431	3124.3947	3135.9206	3146.7529	3210.1201	3687.5307
CC1CC1C(O)C=O	C[C@H]1C[C@H]1[C@@H](O)C=O	
InChI=1S/C6H10O2/c1-4-2-5(4)6(8)3-7/h3-6,8H,2H2,1H3	InChI=1S/C6H10O2/c1-4-2-5(4)6(8)3-7/h3-6,8H,2H2,1H3/t4-,5+,6-/m0/s1
