16
gdb 25720	2.76191	1.54497	0.99752	3.546	76.86	-0.1982	-0.0291	0.1691	1131.1412	0.125325	-434.141095	-434.132534	-434.131589	-434.174334	31.667	
C	-0.0012156836	 1.526019736	-0.0025627711	-0.507239
C	 0.0513576219	 0.0050749794	 0.0257340281	 0.314312
O	 1.1295655647	-0.5909820844	 0.014190005	-0.375585
C	-1.1836433031	-0.7226751923	 0.058342596	 0.151245
C	-1.3660865738	-2.1115371165	 0.0614734883	 0.301559
N	-0.3857112192	-3.0466952623	 0.1271393361	-0.589407
N	-2.694798289	-2.4337867474	 0.031271002	-0.317822
C	-3.3272704494	-1.2727335771	 0.0187499278	 0.023267
N	-2.4905552937	-0.216769029	 0.0365419519	-0.346884
H	 1.0170125185	 1.9154460987	-0.030130201	 0.147094
H	-0.545212813	 1.8853687189	-0.8842195876	 0.128661
H	-0.510244541	 1.9186125314	 0.8857452281	 0.130023
H	 0.5484554321	-2.700322635	-0.0433904144	 0.276104
H	-0.622493791	-3.9817988176	-0.1596940463	 0.25772
H	-4.4012068974	-1.1567787508	-0.0014806828	 0.138736
H	-2.7535477231	 0.7534454379	 0.03382663	 0.268215
94.7231	105.6107	166.2588	175.8026	313.6943	318.037	385.5739	433.8574	435.1192	504.0986	557.6424	593.9523	636.9251	655.4752	748.6477	775.7187	848.4489	938.2214	952.1648	1037.5462	1047.2778	1092.6558	1155.8598	1214.1953	1317.0591	1354.355	1375.6037	1421.8901	1471.0622	1480.6586	1498.5887	1521.0199	1573.0382	1650.2384	1708.4929	3026.6359	3086.2952	3150.1717	3248.1339	3556.6902	3678.9846	3704.7064
CC(=O)C1=C(N)N=CN1	CC(=O)c1c(N)nc[nH]1	
InChI=1S/C5H7N3O/c1-3(9)4-5(6)8-2-7-4/h2H,6H2,1H3,(H,7,8)	InChI=1S/C5H7N3O/c1-3(9)4-5(6)8-2-7-4/h2H,6H2,1H3,(H,7,8)
