16
gdb 51151	3.06307	1.18717	0.95224	2.5146	70.52	-0.2565	-0.0379	0.2185	1205.096	0.122394	-437.862371	-437.853984	-437.85304	-437.896819	29.926	
O	 0.2870981257	-0.2336741589	-0.0999598983	-0.229971
C	 0.0944701304	 0.9529288177	-0.1333799716	 0.14943
C	 1.1932963971	 1.99857288	 0.006500356	-0.390375
C	 1.1894942179	 2.9407403805	-1.167740778	 0.191004
C	 1.9744993495	 2.7389941857	-2.4246529303	-0.273668
N	 2.3434220715	 3.871743213	-1.5830012818	-0.153867
C	 1.3491473047	 4.9497280613	-1.9376655129	-0.291036
C	 0.2164027945	 4.0610108927	-1.3882643615	 0.364193
O	-0.9072286942	 4.2512326656	-1.0184368074	-0.306988
H	-0.924029147	 1.3764577211	-0.2689045387	 0.107806
H	 0.9956160805	 2.5682116395	 0.9250983449	 0.13742
H	 2.1568230732	 1.4931466007	 0.1064901674	 0.138116
H	 2.6904951474	 1.9223409973	-2.4042309714	 0.14531
H	 1.5182389724	 2.9212510057	-3.3955995486	 0.127857
H	 1.4928736524	 5.8407500965	-1.3213108432	 0.149569
H	 1.3430395339	 5.2263621016	-2.9954247146	 0.1352
38.0593	61.2653	130.6713	195.1774	235.7103	344.1719	434.9091	481.0525	507.6732	547.5467	669.5013	707.4194	763.0306	817.0597	860.3365	890.7423	973.4116	995.0589	1042.4137	1055.9393	1071.0257	1103.9873	1132.0366	1170.5684	1197.8063	1243.5894	1286.4198	1310.1491	1356.3816	1423.725	1457.1086	1461.882	1507.7683	1836.1693	1882.4154	2907.6268	3022.7234	3063.6142	3102.7244	3113.3928	3125.6127	3197.0094
O=CCC12CN1CC2=O	O=CC[C@]12CN1CC2=O	
InChI=1S/C6H7NO2/c8-2-1-6-4-7(6)3-5(6)9/h2H,1,3-4H2	InChI=1S/C6H7NO2/c8-2-1-6-4-7(6)3-5(6)9/h2H,1,3-4H2/t6-,7?/m1/s1
