20
gdb 85307	2.55418	1.66786	1.22942	3.1122	79.1	-0.2136	-0.009	0.2046	1072.6969	0.172451	-403.147048	-403.139148	-403.138204	-403.17932	31.286	
C	-0.118610192	 1.481332598	 0.1067169873	-0.327616
N	 0.1000505785	 0.0472531177	 0.0324198397	-0.059731
C	-1.1151882552	-0.6733175241	-0.3651399236	-0.267332
C	-1.2406429973	-2.085059974	 0.2260514932	 0.398083
O	-2.0055649226	-2.8950097773	-0.2386529139	-0.330608
C	-0.3538313643	-2.3347842839	 1.4229487522	-0.116011
C	-0.2875529068	-1.0337509259	 2.2834063513	-0.258949
C	 0.735846261	-0.5150904977	 1.2199009803	 0.031737
C	 1.1012050105	-1.9967340407	 0.9608745837	-0.243204
H	 0.8277706196	 1.9914580687	 0.3110611051	 0.120441
H	-0.4938859551	 1.8441134559	-0.855741126	 0.123692
H	-0.8476357257	 1.7812704333	 0.8839548043	 0.094024
H	-2.0238287487	-0.1454425509	-0.0197968045	 0.116359
H	-1.1991044778	-0.7420294209	-1.4549686314	 0.132972
H	-0.5745447836	-3.2978339013	 1.8829751587	 0.082243
H	-1.2088099264	-0.4672465585	 2.4437917236	 0.1037
H	 0.1887666125	-1.2289663243	 3.2470317831	 0.109482
H	 1.5267865876	 0.162677834	 1.5465536094	 0.069847
H	 1.833105481	-2.3690336119	 1.6810467882	 0.109315
H	 1.4030773048	-2.2678782161	-0.0535656807	 0.111556
94.3289	137.925	230.8285	284.7811	314.2047	394.8281	438.5301	465.3105	476.2762	512.9252	606.9289	725.7824	797.1983	806.1229	874.7178	905.8599	914.1692	949.7807	999.2654	1016.994	1043.7248	1062.9701	1079.6279	1119.7806	1135.9525	1154.1404	1182.8047	1231.3155	1237.1017	1240.0445	1257.2308	1264.6023	1282.1343	1322.9509	1353.9243	1391.1234	1458.7572	1471.8558	1478.0673	1493.7898	1501.7213	1507.6471	1825.424	2922.6535	2935.0826	3058.1596	3059.1487	3061.9135	3063.9657	3089.8399	3103.7216	3114.6751	3119.0569	3125.621
CN1CC(=O)C2CC1C2	CN1CC(=O)[C@@H]2C[C@H]1C2	
InChI=1S/C7H11NO/c1-8-4-7(9)5-2-6(8)3-5/h5-6H,2-4H2,1H3	InChI=1S/C7H11NO/c1-8-4-7(9)5-2-6(8)3-5/h5-6H,2-4H2,1H3/t5-,6+
