18
gdb 79207	2.56317	1.65583	1.30122	1.9021	82.23	-0.2455	0.0174	0.2629	1037.6775	0.14731	-364.724666	-364.716714	-364.715769	-364.756792	31.456	
C	-0.0241952353	 1.6112382269	 0.0205552787	-0.435949
C	 0.1113593119	 0.0969106917	-0.0223846762	-0.009667
C	 0.866071131	-0.6223062732	-1.1255975711	-0.068797
C	 2.3050855776	-0.7431082506	-0.7424109353	-0.051222
C	 2.5129772769	-0.110424348	 0.6177346643	-0.289116
C	 1.0963092513	-0.657973577	 0.9222162258	 0.218689
C	 0.7057914715	-1.0377915905	 2.2460566719	 0.083977
C	 0.3699403115	-1.3424863559	 3.3603880636	-0.336851
N	 1.3045572474	-1.7395795186	-0.2195018018	-0.189566
H	 0.9326716615	 2.1170947561	-0.135126401	 0.120235
H	-0.7102788219	 1.955849773	-0.7604687349	 0.121766
H	-0.4299383727	 1.9365718665	 0.9844820351	 0.128017
H	-0.8691209857	-0.3774031089	 0.0895672388	 0.096878
H	 0.522057801	-0.8332777346	-2.1319774778	 0.096496
H	 3.0648974135	-1.0462475241	-1.453267138	 0.101133
H	 3.2607849593	-0.6601920079	 1.1931539408	 0.124323
H	 2.6885512113	 0.9651057081	 0.7091414376	 0.102788
H	 0.0744302299	-1.618118353	 4.3424590897	 0.186866
122.2656	151.6327	186.2278	232.1485	279.7821	410.1924	476.8741	516.5773	549.7391	592.0554	617.8494	660.837	689.1268	765.3058	801.9743	819.2414	829.5127	913.2081	941.5765	1000.0087	1015.1465	1033.3219	1062.6532	1093.6018	1100.1716	1122.104	1142.1064	1177.4404	1225.7987	1247.5385	1303.8143	1326.2939	1373.3967	1393.0077	1410.7884	1490.0502	1493.7966	1508.5624	2233.7204	3035.5074	3057.5102	3059.5721	3099.2927	3113.2812	3120.414	3175.8535	3189.0484	3501.8015
CC1C2C3CC1(C#C)N23	C[C@H]1[C@H]2[C@H]3C[C@]1(C#C)N23	
InChI=1S/C8H9N/c1-3-8-4-6-7(5(8)2)9(6)8/h1,5-7H,4H2,2H3	InChI=1S/C8H9N/c1-3-8-4-6-7(5(8)2)9(6)8/h1,5-7H,4H2,2H3/t5-,6+,7-,8-,9?/m0/s1
