19
gdb 37448	2.47337	1.94078	1.92421	0.9833	72.02	-0.2432	0.0836	0.3268	876.3482	0.163299	-423.01776	-423.011221	-423.010276	-423.048283	27.578	
C	-0.0425596874	 1.5546172431	 0.0176106371	-0.204085
C	 1.4082758926	 2.1190459377	 0.0028226858	-0.209456
C	 2.388538557	 0.942798187	-0.0618735238	 0.065528
O	 2.203210981	 0.0918701347	 1.0835422387	-0.282262
C	 0.8841335803	-0.45911349	 1.1633812778	-0.060234
C	 0.0202383365	 0.0157626034	-0.0235504388	-0.092143
C	 0.763143728	-0.4399746436	-1.2783452002	 0.049851
O	 1.1353848218	 0.5658060173	-2.2260366819	-0.251394
C	 2.1300035847	 0.0934811797	-1.3059474412	 0.031625
H	-0.5712247659	 1.8609299959	 0.9257980953	 0.093704
H	-0.6105617321	 1.9270784229	-0.8367542698	 0.113533
H	 1.5632410005	 2.779729507	-0.8534153358	 0.113015
H	 1.6222219978	 2.6882671712	 0.9116078236	 0.100102
H	 3.4269112364	 1.27485747	 0.0030990479	 0.075731
H	 0.964046029	-1.5551269977	 1.1785090495	 0.0952
H	 0.4281068739	-0.1443631928	 2.1121689875	 0.097166
H	-0.9783347245	-0.4249928478	 0.0438386763	 0.06937
H	 0.5262167324	-1.4109311234	-1.7074657598	 0.096481
H	 2.9537429579	-0.4550508747	-1.7549768082	 0.098267
177.5526	288.1772	304.2182	348.0922	386.5501	524.8374	554.9074	588.3371	680.322	790.5766	803.4024	821.5407	866.1249	880.4496	886.9653	934.6574	952.8826	990.2619	1009.387	1027.3922	1031.3355	1066.4761	1097.1046	1108.9659	1136.7926	1189.4861	1221.2996	1246.865	1264.7895	1278.6682	1307.9472	1331.5665	1343.2158	1347.5768	1372.2074	1376.6723	1405.1321	1445.3105	1471.3319	1496.8233	1526.7458	2995.4816	3027.3916	3048.9902	3061.8418	3070.5068	3088.65	3099.8528	3118.7389	3134.8146	3150.9606
C1CC2OCC1C1OC21	C1C[C@H]2OC[C@@H]1[C@H]1O[C@@H]21	
InChI=1S/C7H10O2/c1-2-5-7-6(9-7)4(1)3-8-5/h4-7H,1-3H2	InChI=1S/C7H10O2/c1-2-5-7-6(9-7)4(1)3-8-5/h4-7H,1-3H2/t4-,5-,6-,7+/m1/s1
