18
gdb 66256	2.01801	1.62735	1.40931	3.6368	77.74	-0.2382	0.0189	0.2571	1058.8522	0.147441	-401.966478	-401.957551	-401.956607	-401.999761	33.753	
C	-0.0581964664	 1.594092234	-0.0328440039	-0.43441
C	 0.0414531772	 0.0625862906	-0.046134972	-0.028257
C	 0.8695959299	-0.5278421058	-1.2174372928	-0.241012
C	 1.4793138476	-1.8162629371	-0.6324838897	-0.174073
N	 1.6271111809	-1.4699649821	 0.7712828331	-0.30942
C	 0.8355820539	-0.4452695107	 1.2003710503	 0.409499
O	 0.7584978388	-0.0065054342	 2.3241374955	-0.382405
C	-1.2860774423	-0.5514303133	 0.0015011078	 0.362687
C	-2.373013095	-1.0650102718	 0.0280896856	-0.511602
H	 0.9388816581	 2.0390549088	-0.1054224684	 0.117417
H	-0.666057609	 1.9519604195	-0.8678705357	 0.120954
H	-0.5120262975	 1.9217403669	 0.9046982314	 0.151444
H	 0.2710366885	-0.7126738015	-2.1101225221	 0.118864
H	 1.6701418755	 0.1736832488	-1.4721155262	 0.111633
H	 0.8083022424	-2.6747957173	-0.7701581908	 0.119826
H	 2.4446816687	-2.0612112688	-1.0849745035	 0.115389
H	 2.1282317719	-2.0356203482	 1.4377510448	 0.254282
H	-3.3368003631	-1.5094598679	 0.0649412666	 0.199182
91.835	135.431	167.956	207.4149	219.722	257.0315	341.9558	409.7807	474.3701	506.7197	555.6858	615.0417	623.9602	639.2349	679.4125	704.0612	753.8585	818.5751	929.2873	934.8468	970.4058	1041.1448	1068.8	1122.0986	1169.5113	1188.9233	1236.8071	1248.7667	1271.4434	1334.3282	1362.4439	1405.1397	1445.0112	1485.2661	1489.3607	1493.9628	1529.5622	1836.1841	2228.5515	3013.6569	3044.207	3057.7146	3079.2838	3117.9843	3129.8447	3138.9913	3501.0342	3642.3396
CC1(CCNC1=O)C#C	C[C@]1(CCNC1=O)C#C	
InChI=1S/C7H9NO/c1-3-7(2)4-5-8-6(7)9/h1H,4-5H2,2H3,(H,8,9)	InChI=1S/C7H9NO/c1-3-7(2)4-5-8-6(7)9/h1H,4-5H2,2H3,(H,8,9)/t7-/m1/s1
