21
gdb 86749	4.15378	0.91753	0.81942	1.7393	84.64	-0.2466	0.0118	0.2583	1447.2114	0.183499	-387.084379	-387.075679	-387.074735	-387.11824	33.593	
O	-0.5757295812	 1.5047216307	-0.6373463482	-0.4369
C	-0.0370506219	 0.3380081006	-0.0092327061	 0.098713
C	-1.0845569436	-0.768113452	 0.2803771563	-0.260557
C	-0.8865511712	-1.8640851085	-0.8039052844	-0.040546
C	 0.4790958531	-1.521141252	-1.3661021687	-0.069844
C	 0.9569964591	-0.3661481704	-0.9047285485	-0.123286
C	-0.9841423282	-3.280087111	-0.2688838767	 0.03548
C	-2.321623758	-3.9665865601	-0.1550230009	-0.273268
C	-1.3206358262	-4.4290303933	-1.186064841	-0.278423
H	-0.8178160109	 1.2566267649	-1.5365909705	 0.272837
H	 0.4103402467	 0.720604617	 0.9137212378	 0.0849
H	-0.8934076165	-1.2036204666	 1.2668440099	 0.101382
H	-2.0931277336	-0.3483858166	 0.2993473115	 0.104276
H	-1.640418203	-1.7667177187	-1.6006072586	 0.068752
H	 0.9834404917	-2.1740392623	-2.0715136459	 0.097706
H	 1.9017900627	 0.0880688739	-1.1825604498	 0.096647
H	-0.2686189304	-3.4978304623	 0.521126405	 0.081096
H	-2.507089233	-4.600565732	 0.7047868235	 0.111165
H	-3.1971916374	-3.4294732261	-0.5056435749	 0.110032
H	-1.5275939577	-4.2033242351	-2.227474411	 0.108712
H	-0.8218387906	-5.37929675	-1.0310918486	 0.111126
58.171	87.506	146.6158	212.8145	290.5549	314.5669	356.1296	415.7114	454.3859	519.1283	701.9868	753.1697	783.427	801.6654	828.0875	833.8174	861.504	908.8032	932.9004	937.7097	983.4405	995.8415	1030.7525	1045.3272	1058.6908	1078.1672	1082.6965	1132.1218	1141.4047	1158.7833	1198.1478	1201.208	1228.0701	1265.5219	1279.3489	1287.8974	1304.8035	1330.0666	1372.7667	1416.5468	1431.3039	1471.6628	1477.9316	1506.9656	1678.3027	2977.223	3047.3077	3063.2033	3107.2095	3127.7508	3128.6062	3134.2153	3176.3394	3204.0514	3205.9099	3221.021	3797.3811
OC1CC(C=C1)C1CC1	O[C@H]1C[C@@H](C=C1)C1CC1	
InChI=1S/C8H12O/c9-8-4-3-7(5-8)6-1-2-6/h3-4,6-9H,1-2,5H2	InChI=1S/C8H12O/c9-8-4-3-7(5-8)6-1-2-6/h3-4,6-9H,1-2,5H2/t7-,8-/m1/s1
