15
gdb 19049	4.31029	2.11173	1.89168	1.7901	67.96	-0.2143	-0.0385	0.1757	735.6587	0.119423	-362.525092	-362.518874	-362.51793	-362.555124	25.014	
O	-0.0281170358	 1.4406142856	 0.2549400591	-0.425971
C	 0.0507744103	 0.0461976163	 0.0337452754	 0.090915
C	 0.6090784187	-0.6554325438	 1.2850396064	-0.159507
C	-0.2006747048	-1.6865735535	 1.6017419832	 0.014156
C	-1.3780061681	-1.3453815189	 2.5098490841	-0.16517
N	-2.1599869723	-1.1225610162	 1.1997160866	-0.145283
C	-1.3433690937	-0.6009890855	-0.0086670292	-0.030641
C	-1.1932990555	-1.981478461	 0.4735319165	-0.086849
H	 0.8324056483	 1.8265304473	 0.0626423523	 0.290322
H	 0.5446561305	-0.1637334245	-0.9292330549	 0.079208
H	 1.0350979355	-0.0096400358	 2.0493519205	 0.097226
H	-1.8931964049	-2.1651390186	 3.0192980646	 0.118411
H	-1.2733092992	-0.4795413347	 3.1686201856	 0.119277
H	-2.0369019231	-0.3277353211	-0.7981465773	 0.105783
H	-1.4607898657	-2.9193848156	 0.0007230572	 0.098124
131.1628	284.5799	320.468	387.4474	472.911	543.5562	575.0786	675.8354	713.4538	747.8472	806.4755	857.8879	884.9343	910.3304	944.8146	1002.209	1013.2329	1019.7346	1055.5304	1068.6458	1108.339	1121.7459	1185.9962	1222.1757	1239.0048	1259.0763	1276.8132	1298.059	1344.568	1415.1723	1507.2728	1583.0162	2957.0115	3048.3931	3115.6246	3153.4018	3167.862	3180.5154	3820.5797
OC1C=C2CN3C1C23	O[C@H]1[CH][C]2CN3[C@@H]1[C@@H]23	
InChI=1S/C6H7NO/c8-4-1-3-2-7-5(3)6(4)7/h1,4-6,8H,2H2	InChI=1S/C6H7NO/c8-4-1-3-2-7-5(3)6(4)7/h1,4-6,8H,2H2/t4-,5+,6-,7?/m0/s1
