15
gdb 52192	3.8044	0.82713	0.79578	2.1381	68.82	-0.2742	-0.02	0.2541	1426.0809	0.111204	-453.917048	-453.908176	-453.907232	-453.952253	30.296	
N	-0.4463632659	 1.0348920838	-0.5606292279	-0.430982
C	-0.452130533	-0.2192460345	-0.4491077427	 0.129011
O	-0.6026926866	-0.77691526	 0.7789474087	-0.183459
C	-0.7309124741	-2.1909214062	 0.8236633933	-0.13785
C	-2.1612294484	-2.6043347387	 0.5767800387	 0.061213
O	-2.5773573152	-2.695508746	-0.7867969396	-0.224569
C	-2.5167625558	-3.9049796096	-0.030537407	-0.099289
C	-1.4988752902	-4.8619529091	-0.4128836115	 0.300421
N	-0.6975929564	-5.6416736418	-0.7054259979	-0.317499
H	-0.2996165646	 1.2975715236	-1.5330107028	 0.235175
H	-0.3361633676	-0.9570094814	-1.2527626385	 0.105113
H	-0.0663189991	-2.6766209574	 0.0995650321	 0.137991
H	-0.4254842171	-2.4906675835	 1.830216706	 0.140723
H	-2.8978384235	-2.1497883847	 1.2389606317	 0.132366
H	-3.4795817425	-4.3506766345	 0.2110706874	 0.151634
43.8452	67.7751	104.8074	121.2056	212.0081	269.8348	338.9539	369.9861	458.2815	575.8318	591.9084	666.0762	810.523	825.0606	829.1485	935.5798	980.9698	1006.4531	1041.363	1057.259	1127.4388	1137.532	1159.0351	1249.0336	1279.4411	1324.0626	1363.6601	1397.6481	1423.2124	1462.5334	1485.4346	1749.9559	2362.0668	3041.0583	3049.7037	3103.4759	3127.4302	3141.7959	3521.6352
N=COCC1OC1C#N	[NH][CH]OC[C@H]1O[C@H]1C#N	
InChI=1S/C5H6N2O2/c6-1-4-5(9-4)2-8-3-7/h3-5,7H,2H2	InChI=1S/C5H6N2O2/c6-1-4-5(9-4)2-8-3-7/h3-5,7H,2H2/t4-,5+/m0/s1
