17
gdb 51473	2.88094	1.38199	1.21236	3.7134	67.6	-0.241	-0.0093	0.2318	1062.2861	0.135216	-458.937587	-458.929517	-458.928572	-458.971702	29.182	
O	 0.3633927743	 1.0544315438	 1.2885981321	-0.253368
C	 0.325978434	 1.6608092324	 0.2507416059	 0.176188
C	 1.4618462909	 1.679123058	-0.7628955346	-0.311613
C	 1.5350230169	 2.9404821072	-1.6049812544	-0.109624
C	 1.2837230872	 4.3057840888	-0.9815712539	 0.029535
O	 1.2884330739	 4.3238612697	 0.4287479066	-0.247464
C	 2.6537682259	 4.4082903942	 0.8084552443	 0.019645
O	 3.4079084584	 3.7706490474	-0.2106588545	-0.248973
C	 2.6677697205	 3.9370923365	-1.3964786561	 0.037241
H	-0.5817061999	 2.2275513881	-0.0575347136	 0.074929
H	 2.395884553	 1.49486762	-0.22617531	 0.143559
H	 1.2997247853	 0.8187406522	-1.425179752	 0.129947
H	 1.2013389553	 2.8581462855	-2.6358368606	 0.098798
H	 0.6648220702	 5.0610347851	-1.452452928	 0.11178
H	 2.9568755385	 5.4638395351	 0.9052511759	 0.100486
H	 2.7959632472	 3.8726476544	 1.7500693485	 0.137443
H	 3.2129188785	 4.3752674015	-2.2246065156	 0.111491
23.9337	110.9447	153.6475	171.8537	255.7019	298.0284	467.4162	537.6428	641.241	723.6448	734.8581	758.4605	769.9614	813.991	930.5401	954.0639	1005.7454	1024.3808	1059.128	1072.7198	1074.0725	1098.4049	1107.6138	1122.9177	1169.4508	1199.9964	1222.6952	1233.8935	1293.3849	1304.6472	1353.9159	1408.5424	1423.0565	1426.445	1448.9864	1534.6535	1835.3911	2874.5455	2969.468	3035.0417	3104.3003	3107.8498	3145.5684	3169.8973	3180.3483
O=CCC1C2OCOC12	O=CC[C@H]1[C@H]2OCO[C@@H]12	
InChI=1S/C6H8O3/c7-2-1-4-5-6(4)9-3-8-5/h2,4-6H,1,3H2	InChI=1S/C6H8O3/c7-2-1-4-5-6(4)9-3-8-5/h2,4-6H,1,3H2/t4-,5+,6-
