17
gdb 102067	2.35227	1.21462	0.95893	2.7946	69.81	-0.263	-0.0544	0.2086	1243.5822	0.134211	-455.14545	-455.135772	-455.134827	-455.180494	33.81	
C	-0.6239660401	 1.0955549334	 0.0483328215	-0.337671
N	 0.3648909784	 0.0236734751	 0.1704490203	-0.308652
C	 0.8627131893	-0.5322129267	-1.0687211168	-0.101649
C	 2.3614490117	-0.8003232434	-0.9612592645	 0.160558
O	 3.0404476637	-0.4011540059	-0.0532348947	-0.23936
C	 0.1453553279	-1.8850891948	-1.3661728632	-0.022123
O	 0.1442799806	-2.6697067611	-0.2070991066	-0.405232
C	-1.2247793297	-1.6488057693	-1.8790091402	 0.281745
N	-2.291755316	-1.4531173047	-2.2777778102	-0.325195
H	-0.2649027757	 1.9509195751	-0.5457069404	 0.111445
H	-1.5364918107	 0.7161869828	-0.4175488054	 0.160163
H	-0.8813727826	 1.4538639607	 1.0481761977	 0.133357
H	 1.1644134191	 0.319808521	 0.7227959699	 0.248783
H	 0.7321743921	 0.1367370452	-1.9382837982	 0.112118
H	 2.793441236	-1.3855271073	-1.8002600863	 0.105066
H	 0.6931879607	-2.4306666347	-2.1445872207	 0.133745
H	-0.0140500745	-2.0270559255	 0.509824038	 0.292901
62.4199	107.1328	116.1934	160.4976	194.1491	216.1213	241.4928	299.2259	320.7161	398.1901	457.067	580.8281	618.5557	703.2715	739.6533	789.674	827.5589	914.6903	959.3947	1039.6796	1056.2875	1106.0992	1148.5846	1159.1491	1216.5274	1239.6291	1272.6521	1343.6865	1353.7837	1413.3792	1444.779	1471.0022	1489.7029	1506.3918	1523.5601	1834.3903	2351.2819	2915.9304	2953.9834	2982.5963	3042.2108	3090.6501	3131.382	3510.6606	3607.152
CNC(C=O)C(O)C#N	CN[C@@H](C=O)[C@@H](O)C#N	
InChI=1S/C5H8N2O2/c1-7-4(3-8)5(9)2-6/h3-5,7,9H,1H3	InChI=1S/C5H8N2O2/c1-7-4(3-8)5(9)2-6/h3-5,7,9H,1H3/t4-,5-/m0/s1
