21
gdb 118656	1.90382	1.15175	0.86154	1.5361	81.77	-0.2467	0.0379	0.2846	1467.9105	0.178416	-424.168106	-424.157002	-424.156058	-424.205242	38.611	
C	 0.209038612	 1.4899173813	-0.4637781462	-0.386146
C	 0.3986971163	 0.0106826276	-0.1773489761	-0.038402
O	 0.5690047093	-0.6635426066	-1.4159487526	-0.245377
C	 0.7110733373	-2.0712838818	-1.304591745	-0.066586
C	 0.6300623583	-2.6775949817	-2.7200906834	-0.090849
O	 1.7751490997	-2.5131832238	-3.5116589291	-0.226702
C	 1.9329460202	-1.2286445054	-4.087365991	-0.230386
C	 1.9426368756	-2.4616828304	-0.6075378626	 0.359529
C	 2.9445263803	-2.7798355808	-0.0251179586	-0.486107
H	 1.0871751509	 1.8986231458	-0.971777099	 0.128657
H	-0.663624232	 1.6517096619	-1.1029857438	 0.125151
H	 0.0626088915	 2.0402740011	 0.4703925974	 0.117171
H	 1.2734538152	-0.1547036344	 0.4672380574	 0.106166
H	-0.4791441507	-0.4004241464	 0.348828001	 0.085899
H	-0.1490606611	-2.4758228974	-0.7399700832	 0.09146
H	 0.4863395347	-3.7576916781	-2.6115097372	 0.113648
H	-0.2614756342	-2.2500212388	-3.2057035245	 0.095087
H	 1.0401216417	-0.9376822412	-4.6620842828	 0.100252
H	 2.1236514054	-0.458715492	-3.3329162816	 0.127375
H	 2.785315528	-1.2951378847	-4.7682011354	 0.120069
H	 3.8342085116	-3.0654755344	 0.4799325063	 0.200092
50.9365	71.153	95.1277	102.5657	130.9425	190.9059	226.9363	229.6691	258.33	324.9453	368.3735	397.2833	443.1914	598.0484	623.7135	677.45	698.6092	820.6745	833.4074	869.0473	947.0172	980.6561	1041.6532	1081.5907	1131.0661	1143.2221	1181.7106	1187.8404	1189.5326	1229.1689	1296.2814	1303.1736	1335.5397	1358.0573	1401.857	1406.0827	1433.5141	1465.8404	1482.2408	1483.8204	1492.4226	1500.2213	1513.0956	1527.8331	2232.0336	2934.6259	2966.4225	2984.5421	2990.2998	3022.8375	3044.7666	3074.3732	3078.7492	3118.9788	3119.5547	3121.2573	3502.3282
CCOC(COC)C#C	CCO[C@@H](COC)C#C	
InChI=1S/C7H12O2/c1-4-7(6-8-3)9-5-2/h1,7H,5-6H2,2-3H3	InChI=1S/C7H12O2/c1-4-7(6-8-3)9-5-2/h1,7H,5-6H2,2-3H3/t7-/m1/s1
