19
gdb 37628	2.76466	2.1932	2.0049	1.5489	75.67	-0.2325	0.0897	0.3222	823.2935	0.164358	-385.8769	-385.871131	-385.870186	-385.906574	25.887	
C	-0.0307493986	 1.5584075099	 0.0120586505	-0.208614
C	 1.4684583825	 1.8775187873	 0.0350572506	-0.088059
C	 2.0558272875	 0.9561133301	 1.127711361	-0.084261
C	 2.5902082462	 0.0049815279	 0.0725467239	-0.105844
C	 1.293261721	-0.302755795	 0.8078317284	-0.054066
C	 0.0356033341	 0.0118685041	-0.031591798	-0.07208
C	 0.3065024368	-0.3999613899	-1.4886203088	-0.067644
O	 1.3320221963	 0.4297545665	-2.0463893405	-0.276575
C	 2.1791877145	 0.9610017147	-1.0446651939	 0.121613
H	-0.5203539623	 1.920263448	 0.9224445263	 0.092891
H	-0.5487271368	 1.9790628088	-0.8555080166	 0.101119
H	 1.7453670856	 2.9312550647	 0.0283400151	 0.062689
H	 2.4620998229	 1.2210087993	 2.0937024982	 0.085297
H	 3.4513471542	-0.6523417653	 0.0957871705	 0.081316
H	 1.3020709858	-1.1345942607	 1.501213383	 0.083353
H	-0.8619873571	-0.4828044997	 0.3463838118	 0.064172
H	 0.6079609657	-1.4575703715	-1.53736366	 0.086739
H	-0.5805098366	-0.2685226832	-2.1187579971	 0.098601
H	 3.0065903984	 1.4522772941	-1.5577324344	 0.079353
257.2304	362.3767	385.1325	502.5448	566.46	623.6369	643.4802	728.419	780.8083	810.5371	824.066	838.6082	864.4531	900.5567	923.6623	939.1439	969.6184	987.0105	1004.7677	1014.9371	1040.7069	1049.9116	1061.1426	1073.8065	1084.4833	1106.0894	1162.885	1189.7901	1216.3568	1232.7147	1247.9689	1269.6551	1293.9104	1312.7586	1324.8673	1328.4973	1358.6588	1390.9303	1408.2469	1488.9304	1514.5918	2983.4548	3042.5815	3053.4782	3083.4006	3093.5578	3104.7248	3119.4473	3175.0059	3190.857	3214.1503
C1C2C3C4C3C1COC24	C1[C@H]2[C@@H]3[C@H]4[C@@H]3[C@@H]1CO[C@@H]24	
InChI=1S/C8H10O/c1-3-2-9-8-4(1)6-5(3)7(6)8/h3-8H,1-2H2	InChI=1S/C8H10O/c1-3-2-9-8-4(1)6-5(3)7(6)8/h3-8H,1-2H2/t3-,4-,5+,6-,7+,8-/m0/s1
