20
gdb 32211	2.53032	1.4392	0.99641	2.7205	88.5	-0.2447	-0.0151	0.2296	1238.4179	0.172439	-366.087048	-366.078275	-366.077331	-366.12066	32.833	
C	 0.0218062918	 1.5918085606	 0.0918917894	-0.371203
C	-0.0061587818	 0.0534939658	 0.029129814	-0.296623
C	-1.4066473758	-0.5139853339	-0.0167707486	 0.194687
C	-2.0456148284	-0.8700029484	 1.1737641375	-0.050601
N	-3.2855226694	-1.3528686787	 1.2712410638	-0.28079
C	-3.9541003931	-1.5077034563	 0.126893446	-0.001718
C	-3.4184027945	-1.1983691858	-1.1180162273	-0.181825
C	-2.12249308	-0.6904059553	-1.2137519814	 0.226496
C	-1.5279863337	-0.3656535082	-2.5614466594	-0.506024
H	 1.0515598831	 1.9612939922	 0.1244629922	 0.115631
H	-0.4692205579	 2.0388882142	-0.7780074686	 0.121122
H	-0.4980859035	 1.9531410185	 0.9845244891	 0.125977
H	 0.5681233519	-0.2844119574	-0.8404113773	 0.102597
H	 0.5087927018	-0.344973864	 0.9105059445	 0.108021
H	-1.5063920667	-0.7568771124	 2.1138583487	 0.096728
H	-4.9649420805	-1.9011930124	 0.2069010432	 0.1039
H	-4.0095717455	-1.355391605	-2.0150191502	 0.090558
H	-1.225145026	 0.6842723032	-2.6315065562	 0.138154
H	-0.633695456	-0.9675756749	-2.7597773981	 0.138654
H	-2.2458360659	-0.5614347817	-3.3616377313	 0.126259
73.2831	125.4826	134.3654	203.7915	213.1759	311.1758	325.1403	404.6993	465.5667	510.366	572.8673	618.7437	749.804	772.9129	788.5311	840.5354	854.5976	962.8818	971.719	990.2529	1007.5427	1055.1794	1068.0698	1081.413	1098.9488	1188.998	1224.0665	1259.2177	1272.2509	1302.2	1340.6742	1354.7537	1403.7763	1413.5952	1442.272	1481.8658	1484.6886	1494.7534	1496.113	1508.8175	1524.0974	1600.9909	1632.6403	3033.8249	3036.8177	3037.4744	3070.4219	3088.651	3108.1127	3111.5834	3119.7955	3129.5497	3150.2081	3178.5236
CCC1=CN=CC=C1C	CCc1cnccc1C	
InChI=1S/C8H11N/c1-3-8-6-9-5-4-7(8)2/h4-6H,3H2,1-2H3	InChI=1S/C8H11N/c1-3-8-6-9-5-4-7(8)2/h4-6H,3H2,1-2H3
