20
gdb 85825	1.98292	1.43043	1.35319	3.0613	78.7	-0.2845	0.012	0.2965	1137.512	0.169195	-403.158348	-403.148586	-403.147641	-403.19241	36.531	
C	-0.4370397022	 1.454554173	-0.1023248535	-0.407776
C	-0.0680119175	-0.0249098504	-0.0139020621	-0.003004
C	 1.1269924169	-0.4450089023	-0.9188290573	-0.296382
C	 2.057314752	-0.4629924674	 0.3387500923	 0.252949
O	 2.8569952203	-1.6038585969	 0.5601101769	-0.461154
C	 2.8708413986	 0.7565576905	 0.4538583706	 0.245034
N	 3.531866959	 1.7031037645	 0.5247500664	-0.355139
C	 0.7769592596	-0.4601189621	 1.230991831	-0.005644
C	 0.746617398	 0.3274980605	 2.5299544089	-0.430392
H	 0.4371213169	 2.1061236512	-0.0052146657	 0.13827
H	-0.9027019722	 1.6708066443	-1.0697066409	 0.117887
H	-1.1503043512	 1.733377183	 0.6800933559	 0.11944
H	-0.9680830709	-0.6283881754	-0.1569431109	 0.077439
H	 1.0355370213	-1.4639570843	-1.3015546895	 0.116331
H	 1.4029787234	 0.2298462861	-1.7319691518	 0.114191
H	 3.635476605	-1.5567046668	-0.007023441	 0.291665
H	 0.5845113471	-1.5185942948	 1.43336711	 0.099744
H	 0.972125824	 1.3860420463	 2.3748261406	 0.136199
H	-0.2407676913	 0.257036692	 2.9980791834	 0.11909
H	 1.480352213	-0.0703190911	 3.2383944369	 0.131252
80.9	134.5018	184.429	198.3501	230.9796	247.6803	257.9374	302.7644	329.2324	342.6405	426.063	490.2681	549.2705	605.3613	661.6893	726.2379	788.0799	837.5437	891.3429	936.6237	984.4698	992.9726	1031.7564	1060.6021	1101.5591	1136.4754	1160.9981	1197.7552	1205.7325	1238.8598	1275.2537	1294.9311	1353.665	1372.1511	1374.4929	1412.9125	1418.0528	1476.1818	1490.4105	1493.3172	1502.4335	1506.0274	2342.6194	3033.	3038.7696	3056.4547	3064.1623	3072.5194	3099.2169	3103.0888	3108.3664	3118.9265	3130.1775	3797.8131
CC1CC(O)(C#N)C1C	C[C@H]1C[C@@](O)(C#N)[C@H]1C	
InChI=1S/C7H11NO/c1-5-3-7(9,4-8)6(5)2/h5-6,9H,3H2,1-2H3	InChI=1S/C7H11NO/c1-5-3-7(9,4-8)6(5)2/h5-6,9H,3H2,1-2H3/t5-,6-,7+/m0/s1
