16
gdb 34266	4.17825	1.34568	1.22715	5.0958	73.44	-0.2502	-0.0023	0.2479	1018.6884	0.126272	-400.730032	-400.723205	-400.722261	-400.761247	27.04	
N	 0.0110570633	-1.0855996345	-0.0715146934	-0.344868
C	-0.006132179	 0.0708377247	-0.0409207811	 0.199574
C	 0.0017387723	 1.4979331005	-0.008388244	 0.377061
O	-1.0754181616	 2.1965238007	 0.6099150497	-0.340197
C	-0.8046868065	 3.3485541971	-0.2701442298	 0.079367
C	-0.0012739589	 4.3588419386	 0.5380983114	-0.211099
C	 1.2620732638	 3.5461546925	 0.9473835961	-0.232009
C	 1.2688683079	 2.3573114666	-0.014944111	-0.125118
C	 0.2188536687	 2.5257241139	-1.0857405123	-0.205839
H	-1.7172546209	 3.6972763632	-0.7531907805	 0.097536
H	 0.2596667534	 5.2186442389	-0.0896186047	 0.108032
H	-0.5674986997	 4.7236565235	 1.3987476581	 0.120713
H	 2.1785027826	 4.1318520075	 0.8387713779	 0.112047
H	 1.2038434131	 3.2143948017	 1.9870606702	 0.126317
H	 2.1900314756	 1.8417510931	-0.2601125364	 0.116298
H	 0.3290416859	 2.422816392	-2.1552077101	 0.122186
134.0197	157.3604	219.6544	378.699	422.3413	495.6279	544.1025	590.3579	710.4243	735.7245	764.7654	824.132	861.606	880.8353	899.4787	909.8075	927.6235	987.0985	1013.7753	1025.2392	1032.1499	1072.2176	1141.3919	1167.5227	1200.7758	1229.0949	1258.4333	1283.3126	1294.5409	1319.7272	1337.1803	1416.8409	1473.3176	1496.789	2350.3207	3045.5803	3067.5481	3100.0482	3115.425	3123.2057	3192.6571	3226.2751
N#CC12OC3CCC1C23	N#C[C@@]12O[C@H]3CC[C@@H]1[C@@H]23	
InChI=1S/C7H7NO/c8-3-7-4-1-2-5(9-7)6(4)7/h4-6H,1-2H2	InChI=1S/C7H7NO/c8-3-7-4-1-2-5(9-7)6(4)7/h4-6H,1-2H2/t4-,5+,6-,7-/m1/s1
