15
gdb 26560	2.37773	1.8801	1.05282	5.7398	73.54	-0.1955	-0.0133	0.1822	1055.9721	0.115173	-454.010701	-454.002974	-454.002029	-454.042563	30.049	
N	 0.0856591959	 1.4304609291	 0.1326374568	-0.592425
C	-0.0047342429	 0.0339801826	 0.0404352559	 0.264223
C	-1.1646786704	-0.6781960038	 0.0275473854	 0.198022
O	-2.3758454846	-0.0751629517	 0.0303506701	-0.459429
C	-1.1922902906	-2.1322564135	-0.0010777823	 0.32429
O	-2.3002276798	-2.6941279063	-0.0180777815	-0.453605
C	 0.1047024824	-2.7671941041	-0.0369878568	-0.266959
C	 1.238755566	-2.0171057652	-0.0172949082	 0.017808
N	 1.1896702274	-0.6549712543	 0.0205314625	-0.367283
H	 0.5412849671	 1.8511951977	-0.6717309239	 0.250684
H	-0.8419372951	 1.8282118382	 0.2244792407	 0.272301
H	-2.9849416509	-0.8454386082	 0.0176290254	 0.300446
H	 0.1616493816	-3.8471950164	-0.0779811123	 0.113245
H	 2.2331755702	-2.4452221241	-0.0309582847	 0.133262
H	 2.0329500537	-0.1228362098	 0.1634656028	 0.265418
144.1165	211.8341	220.3342	283.5399	307.223	330.9569	463.7322	500.3027	518.978	568.2742	576.1556	590.0001	675.6297	710.1625	743.0034	825.2507	830.6958	871.219	928.6114	1029.6759	1085.263	1165.66	1236.4642	1267.1619	1324.64	1331.5756	1425.7461	1454.2628	1564.8552	1618.1094	1648.3678	1680.6899	1730.3166	3207.6495	3225.381	3501.7982	3508.1304	3602.4081	3647.019
NC1=C(O)C(=O)C=CN1	Nc1c(O)c(=O)cc[nH]1	
InChI=1S/C5H6N2O2/c6-5-4(9)3(8)1-2-7-5/h1-2,9H,(H3,6,7,8)	InChI=1S/C5H6N2O2/c6-5-4(9)3(8)1-2-7-5/h1-2,9H,(H3,6,7,8)
