16
gdb 73908	2.40893	1.34428	0.87231	5.8094	76.59	-0.2268	-0.0461	0.1807	1246.2656	0.123219	-437.940026	-437.931375	-437.930431	-437.973708	31.761	
N	 0.0727030018	 1.3571873747	-0.0974509407	-0.585095
C	 0.0004994499	 0.000364621	-0.0310800029	 0.285157
C	-1.1071883419	-0.8017833373	-0.0107278512	 0.128655
C	-0.7396110088	-2.2652502758	-0.0059669856	-0.418981
C	 0.7883147054	-2.2634573188	-0.0033132577	 0.398499
O	 1.5103216138	-3.2233757569	 0.0196399169	-0.299251
C	 1.273342793	-0.8016040255	-0.0341783542	-0.426536
C	-2.4793801925	-0.3579877131	 0.009733043	 0.054579
O	-3.4452441809	-1.0993859609	 0.0244893057	-0.293924
H	 0.9413721396	 1.8060005622	 0.1385456212	 0.266286
H	-0.7548100011	 1.9109134401	 0.0501639606	 0.269226
H	-1.119181247	-2.809642532	 0.8674755539	 0.146542
H	-1.1131618096	-2.8133118728	-0.8803549083	 0.146651
H	 1.8850920783	-0.6202231274	-0.9269178593	 0.153592
H	 1.9135169764	-0.5929696639	 0.8328592934	 0.145762
H	-2.6309449765	 0.7488095163	 0.0157081551	 0.028838
61.1557	125.4618	173.9839	179.1873	303.2264	325.1399	336.5795	432.7738	452.0186	474.457	542.9319	576.9969	586.0613	652.4044	800.1787	824.8315	829.0969	968.8161	980.3566	1027.2124	1115.0538	1126.063	1178.3502	1198.9587	1242.0553	1247.7214	1305.9428	1417.8886	1430.7552	1453.8867	1470.4177	1633.2772	1681.3719	1756.7994	1857.8125	2818.4388	3027.336	3032.7575	3057.0549	3062.6355	3603.6049	3715.8842
NC1=C(CC(=O)C1)C=O	NC1=C(CC(=O)C1)C=O	
InChI=1S/C6H7NO2/c7-6-2-5(9)1-4(6)3-8/h3H,1-2,7H2	InChI=1S/C6H7NO2/c7-6-2-5(9)1-4(6)3-8/h3H,1-2,7H2
