17
gdb 93529	2.43725	1.58892	1.16905	4.5461	64.93	-0.2855	0.0316	0.317	1072.0809	0.135625	-496.144585	-496.136064	-496.13512	-496.178208	31.314	
C	 0.1942862002	 1.4936459335	-0.1878224447	-0.396699
C	 0.0262165847	 0.0116331052	 0.0919650503	 0.121618
O	 0.3713094393	-0.6910071378	-1.1344780148	-0.277624
C	 1.0430462045	-1.8555229328	-1.1953341737	 0.460234
O	 1.3499186813	-2.3414681797	-2.240708044	-0.353976
O	 1.4056890641	-2.4482344148	-0.0252385002	-0.265946
C	 0.803146371	-2.0229458892	 1.207628187	-0.110766
C	 0.8460491893	-0.5075906166	 1.2754922514	 0.090146
O	 2.1766519246	-0.0282282973	 1.2964295246	-0.434254
H	 1.2495347396	 1.7336184686	-0.3291153153	 0.14368
H	-0.3639100872	 1.7719735399	-1.0844159932	 0.136431
H	-0.1841639089	 2.077935504	 0.6565940366	 0.122318
H	-1.0294337854	-0.2180445577	 0.2879815897	 0.096885
H	-0.2245849919	-2.4002569683	 1.2719896272	 0.123587
H	 1.4023994663	-2.4810109785	 1.996416084	 0.137242
H	 0.3733065322	-0.1582185595	 2.1998022404	 0.106501
H	 2.6994409865	-0.5606071791	 0.6850621147	 0.300623
55.264	96.1113	192.3886	235.7918	254.0937	323.6452	339.9998	375.2037	439.8329	524.4815	581.4661	632.4919	740.0216	769.365	824.5288	876.6921	910.8822	970.1138	998.4049	1038.8049	1088.5744	1115.6638	1156.4136	1168.0946	1203.7017	1245.9918	1279.7758	1343.9519	1377.2063	1387.0033	1409.93	1412.1425	1424.8795	1485.21	1493.6434	1503.4118	1883.7482	3019.7144	3039.1472	3053.7881	3066.432	3122.4755	3127.3232	3149.697	3795.1506
CC1OC(=O)OCC1O	C[C@H]1OC(=O)OC[C@H]1O	
InChI=1S/C5H8O4/c1-3-4(6)2-8-5(7)9-3/h3-4,6H,2H2,1H3	InChI=1S/C5H8O4/c1-3-4(6)2-8-5(7)9-3/h3-4,6H,2H2,1H3/t3-,4-/m1/s1
