20
gdb 60091	2.36294	1.24222	0.97283	3.6693	76.33	-0.2531	-0.0322	0.2209	1291.3181	0.168954	-440.27088	-440.261131	-440.260187	-440.305569	36.03	
C	-0.1676883328	 1.5680216317	 0.2665404274	-0.392128
C	-0.1198922304	 0.092052161	-0.1375758938	 0.152143
O	 1.0219844411	-0.5533506148	 0.4021490191	-0.435994
C	-1.4301204991	-0.6287797376	 0.2315489581	-0.353887
C	-1.4218140422	-2.1221672106	-0.0304025402	 0.248154
C	-2.6192470125	-2.7741031847	-0.666521335	-0.279763
N	-1.3698486145	-2.6690138432	-1.4071304052	-0.338263
C	-0.6873432277	-2.9825399498	 0.9441148494	 0.157167
O	-0.2398950771	-2.6018383124	 2.0005693994	-0.29019
H	 0.7752859064	 2.0546873216	 0.005129857	 0.126296
H	-0.9843264082	 2.0972304216	-0.2370993114	 0.105804
H	-0.3135142901	 1.6661715716	 1.3483911602	 0.114366
H	 0.0147600916	 0.0351430809	-1.2273601321	 0.076634
H	 0.8051767141	-0.863367162	 1.2908130581	 0.292472
H	-1.6319567771	-0.4736881491	 1.2989432656	 0.120998
H	-2.2563596186	-0.1619373353	-0.3170696898	 0.098862
H	-2.9063489059	-3.7852810501	-0.3896955457	 0.129488
H	-3.4498106157	-2.1159936795	-0.9079519404	 0.126988
H	-1.4055661152	-1.8996978756	-2.0716692371	 0.243514
H	-0.6060903761	-4.0429169838	 0.6240066464	 0.097338
65.0781	109.1049	124.4917	171.9154	234.3351	245.5563	297.9078	329.6829	372.122	394.9297	446.2544	471.7326	512.0218	565.661	776.7337	807.7486	840.8789	894.5243	908.6537	953.8337	974.0305	980.3445	1048.4561	1062.9168	1070.1623	1116.391	1138.4246	1164.464	1191.7511	1246.4768	1311.7338	1336.1806	1347.796	1373.6722	1399.0766	1404.5587	1427.0856	1433.4653	1466.1076	1492.2873	1496.099	1510.7136	1805.7488	2917.8875	3002.4022	3026.8206	3032.2515	3073.4008	3097.4095	3106.1171	3121.3642	3192.3163	3503.7276	3767.6292
CC(O)CC1(CN1)C=O	C[C@@H](O)C[C@]1(CN1)C=O	
InChI=1S/C6H11NO2/c1-5(9)2-6(4-8)3-7-6/h4-5,7,9H,2-3H2,1H3	InChI=1S/C6H11NO2/c1-5(9)2-6(4-8)3-7-6/h4-5,7,9H,2-3H2,1H3/t5-,6+/m1/s1
