18
gdb 39087	3.51607	1.77101	1.52704	1.71	73.8	-0.2493	0.0107	0.2601	902.8726	0.151924	-401.934996	-401.928883	-401.927939	-401.965066	26.34	
C	-0.0583325517	 1.6197077972	 0.1925067917	-0.290527
C	 1.4655035958	 1.4324896037	 0.0000294521	-0.070099
C	 1.8017935808	 0.5743335748	 1.2636817608	-0.208406
C	 0.5956559938	-0.4585826006	 1.2679711071	-0.315335
C	-0.0347642032	 0.0678775161	-0.0042188071	 0.440192
O	-1.0806583876	-0.5167441784	-0.7715090044	-0.289562
C	-0.7227029845	-0.1338511321	-2.0437221441	 0.079016
N	 0.4214387174	 0.3815562753	-2.267563454	-0.298833
C	 1.1386962734	 0.2735299634	-0.9824627808	 0.024351
H	-0.411995542	 2.0063040905	 1.1513870808	 0.091657
H	-0.5397231419	 2.1391291317	-0.6347658578	 0.119058
H	 2.1409207208	 2.2560010785	-0.2276909737	 0.073548
H	 2.766353314	 0.066604062	 1.1768425661	 0.106621
H	 1.8211926037	 1.1883001858	 2.1675176486	 0.105976
H	 0.9308972894	-1.4948256187	 1.1806674235	 0.11045
H	-0.0363679915	-0.3666934808	 2.1545389343	 0.108099
H	-1.4882109174	-0.3123753101	-2.7910483586	 0.13751
H	 1.9179372607	-0.4921996782	-1.0794156342	 0.076284
267.7164	281.607	333.7203	437.088	449.1188	518.8882	575.7792	671.8803	713.4145	815.5119	843.1039	852.0193	869.5369	899.4168	922.1973	947.4973	956.1526	967.9853	1018.3132	1032.4247	1053.4092	1068.0397	1101.7074	1115.8615	1129.9715	1191.0137	1218.2559	1228.2775	1240.6958	1269.4496	1290.3427	1293.5784	1322.5229	1340.6608	1358.8304	1488.4286	1496.5851	1522.3448	1643.6013	3029.2348	3058.2311	3067.1119	3072.9763	3101.3964	3119.3157	3125.4559	3152.435	3213.9077
C1C2CCC11OC=NC21	C1[C@H]2CC[C@]31O[CH][N][C@@H]23	
InChI=1S/C7H9NO/c1-2-7-3-5(1)6(7)8-4-9-7/h4-6H,1-3H2	InChI=1S/C7H9NO/c1-2-7-3-5(1)6(7)8-4-9-7/h4-6H,1-3H2/t5-,6+,7-/m1/s1
