20
gdb 96390	2.00195	1.69005	1.20167	3.6015	78.21	-0.2723	0.0196	0.2918	1128.35	0.172335	-403.178375	-403.169722	-403.168778	-403.211432	33.009	
C	-0.0418371688	 1.5580419716	-0.007727628	-0.422744
C	 0.0406181193	 0.0305241316	-0.0227053943	 0.01166
C	 0.6813226462	-0.5266493507	-1.3034187865	-0.213078
C	 0.7825390716	-2.0574037276	-1.237518385	-0.214162
C	 1.4834905713	-2.4865377787	 0.0497175898	-0.082615
O	 0.8393676247	-1.9449312207	 1.2058091522	-0.25029
C	 0.7822219666	-0.533189417	 1.2140671461	-0.02472
C	 2.1408357329	 0.0501889453	 1.3511762722	 0.274397
N	 3.2018929195	 0.4979450208	 1.4500533334	-0.340462
H	 0.9516092416	 2.0119795403	-0.0794135064	 0.143158
H	-0.6357849102	 1.9138108782	-0.855049165	 0.121602
H	-0.5146058469	 1.9262573018	 0.9092128737	 0.118333
H	-0.97396853	-0.3811287898	 0.0585241622	 0.089827
H	 0.0957378029	-0.2138183431	-2.1745371418	 0.10137
H	 1.6830160139	-0.0926174178	-1.424972014	 0.117122
H	-0.2215585057	-2.498151988	-1.2616935965	 0.106268
H	 1.3316924351	-2.4508007242	-2.1000862172	 0.103277
H	 1.4526397167	-3.5700498416	 0.1869961155	 0.116092
H	 2.5389068196	-2.1748057323	 0.0344314196	 0.114629
H	 0.2280836298	-0.2681058982	 2.1212164399	 0.130337
99.1923	142.8865	174.5811	222.7461	261.9571	293.2704	343.5081	392.6835	430.0558	433.2011	556.9403	616.6984	637.7577	781.6374	859.9919	877.0567	888.4296	922.1853	959.8309	988.8481	1008.0954	1048.9375	1104.5594	1113.1173	1145.7615	1176.9451	1209.1746	1249.0255	1301.0237	1311.0146	1326.937	1345.7244	1374.1459	1377.8691	1392.7073	1410.8403	1416.7781	1478.8859	1488.0851	1497.0384	1501.1529	1504.4129	2348.0727	2998.9303	3017.2779	3026.2937	3032.0864	3034.6391	3057.2573	3070.0878	3080.3369	3101.8329	3102.1254	3111.7224
CC1CCCOC1C#N	C[C@H]1CCCO[C@H]1C#N	
InChI=1S/C7H11NO/c1-6-3-2-4-9-7(6)5-8/h6-7H,2-4H2,1H3	InChI=1S/C7H11NO/c1-6-3-2-4-9-7(6)5-8/h6-7H,2-4H2,1H3/t6-,7-/m0/s1
