12
gdb 21345	5.86534	1.30041	1.24415	5.0385	59.12	-0.2679	-0.0174	0.2505	933.4766	0.085774	-373.713727	-373.707049	-373.706105	-373.74609	22.935	
N	-0.0767666389	-1.1833655197	-0.0069819075	-0.276811
C	-0.0377946844	-0.0296808725	 0.0009668056	 0.279729
C	-0.001811532	 1.4401620429	 0.010612299	-0.314949
N	 1.3439070655	 1.9806947347	 0.0003663302	-0.007397
C	 2.1465687387	 2.2674840197	 1.0740941254	 0.030672
N	 3.3050895389	 2.7174302427	 0.6771770934	-0.210644
N	 3.2904326847	 2.7275277543	-0.7070001941	-0.210652
C	 2.1236346075	 2.2834231371	-1.0858211709	 0.030674
H	-0.5457579093	 1.8153109724	-0.8612993795	 0.185204
H	-0.527814127	 1.8035899031	 0.8983443915	 0.185187
H	 1.8301295696	 2.1333298167	 2.0972761008	 0.154494
H	 1.7855969568	 2.1641262186	-2.1039284239	 0.154492
28.5704	94.8405	260.9605	314.1041	365.7796	487.3215	640.6094	692.2353	759.7576	815.2219	846.2988	930.4008	948.6927	963.9096	1015.6133	1078.8259	1206.0022	1210.0817	1239.6894	1376.8011	1391.5387	1394.8337	1460.1639	1508.403	1545.6832	2371.5739	3066.3619	3108.4159	3261.7115	3265.9609
N#CCN1C=NN=C1	N#CCn1cnnc1	
InChI=1S/C4H4N4/c5-1-2-8-3-6-7-4-8/h3-4H,2H2	InChI=1S/C4H4N4/c5-1-2-8-3-6-7-4-8/h3-4H,2H2
