19
gdb 63687	3.99386	0.77711	0.75585	5.4419	73.8	-0.2705	0.0085	0.279	1566.7176	0.155632	-460.171909	-460.161813	-460.160869	-460.207947	35.324	
C	 0.2538917336	 1.3576321401	-0.2646851566	-0.458299
C	 0.0291254195	-0.0499452042	 0.2474878383	 0.392587
C	-0.9565939106	-0.8668327137	-0.5622767811	-0.452326
O	 1.2144061991	-0.7706973015	 0.63544684	-0.291103
C	 0.2641641506	-0.4338147947	 1.6541740075	 0.000584
C	 0.7483021157	 0.4943080098	 2.7375086788	-0.135374
O	 1.5158870869	-0.2301979382	 3.7109738343	-0.182768
C	 2.8273146273	-0.4157806236	 3.439583393	 0.178062
O	 3.5442713492	-1.0389820622	 4.1618870399	-0.272287
H	 1.0269425182	 1.8845536854	 0.2960104923	 0.126917
H	 0.5682221395	 1.3222490965	-1.3131927104	 0.133688
H	-0.6729509162	 1.9389318948	-0.215893388	 0.127325
H	-0.623571267	-0.9377202721	-1.6031435126	 0.130541
H	-1.0457393982	-1.8790674485	-0.1617247846	 0.133395
H	-1.9464144742	-0.3982350848	-0.5580485021	 0.124175
H	-0.2922521603	-1.2898141551	 2.040880593	 0.103059
H	 1.3430540263	 1.3134998449	 2.3238838506	 0.118666
H	-0.0944897996	 0.9177365173	 3.2905200311	 0.131173
H	 3.1461702502	 0.0716052598	 2.5002550467	 0.091984
44.3722	60.4254	125.7991	150.2112	176.7224	212.2153	227.5737	302.5687	354.7183	373.1371	426.6573	464.4289	520.6011	665.4471	705.7391	822.7962	890.9022	943.4314	967.3444	1000.5959	1029.7987	1046.3063	1075.4574	1109.7581	1130.1302	1150.9935	1170.1715	1262.8578	1303.4213	1348.94	1388.7503	1408.8453	1419.8218	1430.6737	1464.3352	1472.3317	1486.156	1487.8184	1499.2321	1520.9683	1868.2378	2978.5415	3036.6488	3042.8903	3061.6451	3094.1085	3099.2499	3104.4244	3116.0211	3129.0387	3141.2081
CC1(C)OC1COC=O	CC1(C)O[C@H]1COC=O	
InChI=1S/C6H10O3/c1-6(2)5(9-6)3-8-4-7/h4-5H,3H2,1-2H3	InChI=1S/C6H10O3/c1-6(2)5(9-6)3-8-4-7/h4-5H,3H2,1-2H3/t5-/m0/s1
