17
gdb 45195	3.63331	1.56657	1.33776	1.6838	73.69	-0.2422	0.0128	0.255	962.9853	0.139072	-417.919477	-417.912993	-417.912049	-417.950163	26.869	
N	 0.0964569366	 1.2468070701	 0.3299887423	-0.558405
C	 0.0365908114	 0.0344426717	 0.0275862465	 0.299148
O	 1.050631666	-0.8643544171	-0.3536786032	-0.290669
C	 0.0107835674	-1.7769077193	-0.8980957605	 0.113303
C	-0.3823015072	-3.2436492839	-0.5775091	-0.234772
N	-1.6474855257	-3.0196844252	 0.2192460365	-0.131031
C	-1.0821231108	-2.0146120238	 1.1901188261	-0.18836
C	-1.0064579375	-1.0641345836	-0.0323622214	 0.193142
C	-2.3107696502	-1.7916504699	-0.4476231736	-0.273993
H	 1.0553796888	 1.5961753448	 0.2819068834	 0.234342
H	-0.0563371909	-1.5599801586	-1.967711058	 0.099711
H	-0.5936484672	-3.799937397	-1.4934753898	 0.11706
H	 0.3245567416	-3.8126189563	 0.0285172057	 0.133071
H	-1.8344782437	-1.7026460701	 1.9170685801	 0.120738
H	-0.1567396145	-2.3084254067	 1.6905840571	 0.118513
H	-2.5247906677	-1.8898466143	-1.5143834293	 0.117241
H	-3.2111125862	-1.5398423906	 0.112297688	 0.130961
149.3519	247.8108	269.6851	425.5625	460.3159	527.5001	602.4602	653.9378	682.9395	695.7541	795.5512	803.2909	836.9078	874.6045	886.9801	921.69	959.1831	976.985	989.1476	1027.734	1037.8949	1064.8342	1105.9594	1148.4032	1189.1478	1210.5759	1219.9202	1232.2145	1242.521	1270.8051	1291.2306	1321.1351	1395.6886	1486.9228	1498.3524	1533.6358	1823.5643	3063.2404	3068.5707	3075.1643	3082.7758	3131.9772	3138.1018	3151.3695	3474.0572
N=C1OC2CN3CC12C3	[NH][C]1O[C@H]2CN3C[C@@]12C3	
InChI=1S/C6H8N2O/c7-5-6-2-8(3-6)1-4(6)9-5/h4,7H,1-3H2	InChI=1S/C6H8N2O/c7-5-6-2-8(3-6)1-4(6)9-5/h4,7H,1-3H2/t4-/m0/s1
