17
gdb 37260	3.25986	2.1384	1.71031	1.7298	72.97	-0.2186	0.0639	0.2826	822.8425	0.139938	-380.76651	-380.760755	-380.759811	-380.796215	25.335	
N	-0.0304278538	 1.5026559708	 0.1139774547	-0.343589
C	 1.2663195227	 0.8072990601	-0.014212242	-0.062348
C	 0.0148289704	 0.0225194552	 0.0174973111	-0.058866
C	-0.3887968981	-0.5723961992	-1.2881400417	-0.004606
C	-0.1353166215	 0.0828909761	-2.5850871497	-0.053281
C	 1.1661973398	 0.9026957432	-2.6471332927	-0.114329
C	 1.9316205317	 0.8348031123	-1.3484953195	-0.02943
C	 1.8844543091	-0.3672510187	-2.2693979056	-0.028549
N	 0.605942162	-1.181076396	-2.2456655968	-0.184871
H	-0.1697609146	 1.760371553	 1.0886518788	 0.229954
H	 1.9233741629	 0.7800066165	 0.8507754324	 0.08489
H	-0.2277367821	-0.5573666681	 0.9029420177	 0.087056
H	-1.2733903777	-1.2038131183	-1.2607842698	 0.096125
H	-0.8664675968	 0.0970703409	-3.3873922036	 0.095789
H	 1.3846279964	 1.6278481716	-3.4189180165	 0.09461
H	 2.8844304535	 1.3549910619	-1.4002434364	 0.09149
H	 2.7655654163	-0.8502769312	-2.6718097102	 0.099954
245.9648	285.3975	485.3405	500.1934	587.0177	625.9329	683.1145	700.8626	738.3407	754.3176	825.0376	852.2635	867.6249	877.8344	911.5849	929.8085	958.1395	977.6271	987.289	1026.4286	1050.4805	1056.5743	1070.8847	1094.0962	1094.9114	1145.2732	1154.1873	1192.5816	1220.8343	1259.3571	1272.6755	1308.4058	1331.6748	1397.0967	1418.4026	1451.477	1467.0492	3133.6918	3137.4832	3148.1881	3152.8185	3157.2426	3189.7452	3207.5901	3492.7794
N1C2C1C1C3C4C2C4N13	N1[C@H]2[C@@H]1[C@H]1[C@H]3[C@H]4[C@@H]2[C@H]4N13	
InChI=1S/C7H8N2/c8-3-1-2-5(1)9-6(2)7(9)4(3)8/h1-8H	InChI=1S/C7H8N2/c8-3-1-2-5(1)9-6(2)7(9)4(3)8/h1-8H/t1-,2-,3+,4+,5+,6+,7-,9?/m0/s1
