16
gdb 48598	2.70166	1.49686	1.24109	2.3287	70.85	-0.2529	-0.0404	0.2125	1033.3229	0.123325	-437.782535	-437.774892	-437.773948	-437.815012	28.785	
O	 0.0949642499	-0.1332257557	-0.0648116387	-0.243438
C	 0.0863396152	 1.0688735001	-0.148716431	 0.036637
C	 1.3081011772	 1.9178903374	-0.1042168767	 0.12402
C	 1.7023868044	 2.9683775592	 0.9980052133	-0.285101
C	 2.889629498	 2.8837005141	-0.0052633335	-0.13608
N	 2.7210530648	 1.3701151503	-0.1036777194	-0.349038
C	 1.8466004837	 2.9536659168	-1.1265335139	 0.53505
C	 1.8241357122	 3.1119359702	-2.564324741	-0.297835
O	 1.1990345778	 4.0664737	-1.6506088755	-0.291118
H	-0.8614948093	 1.6432770591	-0.2537386662	 0.087756
H	 1.1319259793	 3.8997187409	 1.0496275098	 0.125257
H	 1.8898311104	 2.5376977652	 1.9853770867	 0.108632
H	 3.8716724867	 3.3512780959	 0.0537765454	 0.09965
H	 2.9021452754	 0.9603944079	 0.8173324109	 0.219659
H	 2.7005544866	 3.4892363332	-3.0861569093	 0.132842
H	 1.1273869377	 2.5352908554	-3.168545991	 0.133108
72.025	155.9386	198.2122	222.9219	301.6001	350.8318	484.075	510.7343	610.1294	650.9405	712.4265	764.3787	809.0485	883.2893	898.9445	948.1999	967.4455	995.3608	1034.1613	1064.845	1078.1564	1093.1879	1109.5932	1125.1649	1175.848	1189.8328	1208.4233	1272.0371	1278.9216	1312.099	1422.4444	1461.3877	1496.4145	1567.9916	1818.8452	2880.5402	3050.8073	3101.2889	3126.9213	3129.9361	3192.1596	3405.9235
O=CC12CC(N1)C21CO1	O=C[C@@]12C[C@@H](N1)[C@]12CO1	
InChI=1S/C6H7NO2/c8-2-5-1-4(7-5)6(5)3-9-6/h2,4,7H,1,3H2	InChI=1S/C6H7NO2/c8-2-5-1-4(7-5)6(5)3-9-6/h2,4,7H,1,3H2/t4-,5-,6+/m1/s1
