18
gdb 112534	2.2844	1.24996	1.11792	2.4957	73.27	-0.239	0.0185	0.2575	1185.4547	0.14658	-439.0118	-439.00251	-439.001565	-439.046372	34.544	
O	 0.0823460013	 1.0178456051	-0.889469198	-0.425509
C	 0.0592709485	-0.2754850402	-0.3207370609	-0.039393
C	-1.3372460105	-0.5802420605	 0.2180080162	-0.047492
N	-2.3464522676	-0.4180380105	-0.8781234432	-0.330979
C	-2.663103054	-1.8827538492	-0.869776581	-0.249517
C	-2.2083634894	-2.5894791908	-2.0569687296	 0.342006
C	-1.762564762	-3.2140805113	-2.9843598203	-0.426057
C	-1.7287460499	-2.078712858	 0.3850011107	 0.114081
O	-0.7498502396	-3.0709867001	 0.353500809	-0.423086
H	-0.6624463655	 1.0257691196	-1.5070287664	 0.283713
H	 0.3525493735	-1.0389991497	-1.0578968316	 0.07515
H	 0.7965188691	-0.2963958524	 0.4874961638	 0.113073
H	-1.5363762808	 0.0489063181	 1.0915745474	 0.079278
H	-3.1495475156	 0.1304243139	-0.5932319208	 0.230395
H	-3.7170147904	-2.1129493929	-0.6823570717	 0.107928
H	-1.4048528509	-3.7482060716	-3.8303796954	 0.208305
H	-2.3194229444	-2.2450283528	 1.2895357286	 0.09863
H	-0.4970180119	-3.2162102867	-0.5678923566	 0.289473
41.9968	104.4667	139.4092	171.8378	214.7974	298.0049	324.7423	376.9761	471.9382	494.0227	528.9185	571.7734	600.9544	646.4212	664.2972	741.105	776.7937	843.2863	874.5422	929.1383	982.0906	1036.4479	1058.3513	1084.4549	1125.3074	1151.0476	1167.377	1204.0199	1260.266	1276.5755	1298.3798	1330.845	1361.9395	1390.686	1403.3738	1438.7209	1444.3642	1501.5778	2223.624	2983.5192	3047.5362	3050.6454	3079.007	3087.3246	3499.1436	3544.5956	3741.4637	3753.2714
OCC1NC(C#C)C1O	OC[C@H]1N[C@@H](C#C)[C@H]1O	
InChI=1S/C6H9NO2/c1-2-4-6(9)5(3-8)7-4/h1,4-9H,3H2	InChI=1S/C6H9NO2/c1-2-4-6(9)5(3-8)7-4/h1,4-9H,3H2/t4-,5+,6+/m0/s1
