21
gdb 64108	3.39071	1.00066	0.93683	0.7573	95.63	-0.2239	-0.0144	0.2095	1372.1451	0.181066	-349.952294	-349.942785	-349.941841	-349.986104	36.811	
C	 0.2267178062	 1.4086333472	 0.0002004833	-0.416275
C	-0.123367694	-0.096111308	-0.001280228	 0.277946
C	-1.651098932	-0.2672089104	-0.0096117423	-0.431937
C	 0.5571681757	-0.8382045819	-1.1925573766	-0.258517
C	 1.8600607139	-1.4552541916	-0.634250584	-0.325165
C	 1.6003466437	-1.5022949846	 0.8651870393	 0.186655
C	 0.5232912087	-0.7724326322	 1.1898398145	-0.197838
C	 2.4466401828	-2.2074132454	 1.7544451367	 0.19482
C	 3.192446958	-2.8254335268	 2.4720868461	-0.411394
H	 1.3090555496	 1.563912201	-0.0482895416	 0.116039
H	-0.2300594931	 1.9121474723	-0.859461771	 0.111368
H	-0.1399731357	 1.8983987767	 0.9087999735	 0.112185
H	-2.0846666689	 0.1627112759	-0.919653424	 0.11265
H	-1.9304013571	-1.324755878	 0.0317793211	 0.114736
H	-2.1117664869	 0.2374362772	 0.8469823377	 0.110799
H	-0.1030030353	-1.6398447753	-1.5393159945	 0.100469
H	 0.7344608392	-0.174847464	-2.0439153241	 0.095233
H	 2.0725965687	-2.4455903703	-1.0487206019	 0.112747
H	 2.7421039738	-0.8364202	-0.84356086	 0.113685
H	 0.1639473393	-0.6274896819	 2.2032233133	 0.093285
H	 3.8410618532	-3.3637221398	 3.1174442025	 0.188509
89.4021	114.2953	144.1151	232.2978	262.2299	267.5029	316.8004	343.0213	367.9164	488.5886	512.9842	537.9917	541.9655	586.765	596.8499	632.2223	758.5226	841.8894	898.56	901.4809	921.0875	937.5823	959.9388	979.993	1009.0113	1040.7332	1124.6003	1137.0358	1196.8065	1226.675	1252.6722	1258.157	1294.5697	1321.4067	1350.2326	1394.9877	1417.6519	1480.1755	1483.8257	1490.3841	1500.5408	1501.1734	1508.2464	1672.4025	2219.9142	3021.676	3024.9563	3026.0172	3045.6434	3073.0741	3087.9511	3092.8626	3094.2501	3100.8504	3102.4829	3189.0289	3504.6282
CC1(C)CCC(=C1)C#C	CC1(C)CCC(=C1)C#C	
InChI=1S/C9H12/c1-4-8-5-6-9(2,3)7-8/h1,7H,5-6H2,2-3H3	InChI=1S/C9H12/c1-4-8-5-6-9(2,3)7-8/h1,7H,5-6H2,2-3H3
