17
gdb 53026	4.11573	1.01005	0.90014	1.1388	84.21	-0.2251	0.0283	0.2534	1332.8791	0.136053	-380.725592	-380.71747	-380.716526	-380.76082	29.939	
C	 0.0003007525	 1.4187494615	 0.0209416287	-0.518016
C	 0.0092359069	-0.0352124992	 0.0192737212	 0.36926
C	 0.0107303456	-1.2402482797	 0.0184453723	-0.378912
C	 0.029534662	-2.6674001339	 0.0212456078	 0.32901
N	 0.5933650054	-3.5124071202	 1.1387059741	-0.384358
C	 0.1332132615	-4.5186011387	 0.1316780914	-0.074445
C	-1.1400569373	-3.6861892542	-0.2180467144	-0.057759
N	-0.92721856	-3.6833159461	-1.7003833097	-0.342589
C	 0.4586959463	-3.6548407777	-1.1342633421	-0.088882
H	 0.7044321588	 1.8233838543	-0.7144466861	 0.151087
H	-0.9948452181	 1.8078737692	-0.2209303121	 0.154288
H	 0.2812027395	 1.8128039479	 1.0038235414	 0.153356
H	 1.6152801861	-3.4463884625	 1.1348199334	 0.209915
H	 0.2242433382	-5.59640478	 0.2719590748	 0.08419
H	-2.1181709573	-3.6930895809	 0.2617685195	 0.097514
H	-1.1291354897	-4.611523905	-2.0817981646	 0.210098
H	 1.3637949796	-3.621680115	-1.7443564256	 0.086244
7.8493	88.3337	107.5229	280.6569	299.6612	409.1428	463.5823	487.1227	523.7329	567.8835	741.273	784.5313	829.5653	851.9012	889.6851	898.1208	912.2344	977.0533	1017.3453	1035.6976	1052.7517	1054.4608	1088.8791	1098.1167	1107.7591	1149.1311	1189.666	1209.2239	1261.8477	1276.9644	1291.2453	1307.5285	1380.7809	1414.2061	1474.7501	1476.5282	2365.3337	3027.1904	3088.795	3090.3196	3095.6622	3112.9363	3131.4512	3399.0509	3403.0692	7.8278	88.3339	107.5229	280.6566	299.6607	409.1426	463.5822	487.1226	523.7329	567.8835	741.273	784.5313	829.5653	851.9012	889.6852	898.1209	912.2344	977.0534	1017.3453	1035.6977	1052.7517	1054.4608	1088.8791	1098.1168	1107.7591	1149.1312	1189.6662	1209.2241	1261.8478	1276.9644	1291.2453	1307.5286	1380.7809	1414.2062	1474.7503	1476.5284	2365.3337	3027.1905	3088.795	3090.3196	3095.6622	3112.9363	3131.4513	3399.051	3403.0693
CC#CC12NC3C1NC23	CC#C[C@@]12N[C@H]3[C@@H]1N[C@@H]23	
InChI=1S/C7H8N2/c1-2-3-7-5-4(9-7)6(7)8-5/h4-6,8-9H,1H3	InChI=1S/C7H8N2/c1-2-3-7-5-4(9-7)6(7)8-5/h4-6,8-9H,1H3/t4-,5-,6+,7+
