19
gdb 65517	3.01133	1.49035	1.2524	1.6279	74.52	-0.236	0.0787	0.3147	1064.2069	0.1578	-422.959602	-422.951366	-422.950422	-422.99219	31.999	
C	-0.0291971419	 1.7055431901	 0.3237928249	-0.44898
C	 0.0007297246	 0.2025210547	 0.0970975781	 0.359761
O	 0.9824797796	-0.1976875882	-0.9083545611	-0.328916
C	 1.535467291	-1.1621084033	-0.0052028132	 0.117245
C	 2.1657061038	-0.4834482005	 1.1669531907	-0.322714
C	 0.6666446779	-0.7142458487	 1.1379977989	-0.153941
C	-1.3753673756	-0.3058239184	-0.2959042067	 0.043192
C	-1.7247673007	-0.5905512858	-1.6919498078	-0.177344
O	-1.4681587776	-1.6465525997	-0.7593872879	-0.238591
H	 0.9466369728	 2.0736141514	 0.646601778	 0.126281
H	-0.3024255426	 2.2239810861	-0.6009567743	 0.128929
H	-0.7666842823	 1.9633512748	 1.0912300745	 0.120407
H	 1.7825727378	-2.1403406069	-0.3975428704	 0.109624
H	 2.6979884377	-1.1342675298	 1.8543158204	 0.116421
H	 2.592970597	 0.5083087653	 1.0525856774	 0.114493
H	 0.1375301467	-1.293464767	 1.8823533871	 0.103358
H	-2.1710283709	-0.0117849933	 0.3925929481	 0.087893
H	-2.7592959774	-0.496527311	-2.0184406491	 0.110571
H	-0.9617680198	-0.4632879798	-2.4549612976	 0.132311
99.8572	156.8892	189.3605	208.128	259.6838	305.1213	371.269	458.7697	485.3579	594.1613	630.7324	759.484	803.9968	826.9589	869.9924	889.7018	924.7099	948.9987	959.0943	977.0132	1010.1327	1031.0385	1044.553	1064.6069	1084.7201	1096.1144	1127.3945	1163.5239	1165.5727	1173.4513	1223.3106	1238.0946	1291.8126	1302.3361	1353.5982	1406.2798	1425.3647	1471.9517	1484.2832	1492.3628	1514.478	3040.1056	3082.3468	3096.5971	3107.1782	3118.6503	3130.8792	3193.7708	3196.3058	3203.0194	3212.9391
CC1(OC2CC12)C1CO1	C[C@]1(O[C@H]2C[C@@H]12)[C@H]1CO1	
InChI=1S/C7H10O2/c1-7(6-3-8-6)4-2-5(4)9-7/h4-6H,2-3H2,1H3	InChI=1S/C7H10O2/c1-7(6-3-8-6)4-2-5(4)9-7/h4-6H,2-3H2,1H3/t4-,5+,6-,7-/m1/s1
