21
gdb 116899	4.52807	0.51807	0.48411	0.9655	87.49	-0.2485	0.0335	0.282	2340.5739	0.178236	-424.168149	-424.156581	-424.155637	-424.207177	38.699	
C	-0.1432652744	 1.4684312508	 0.2537147802	-0.218121
O	-0.0483094031	 0.0655907333	 0.3329870102	-0.22731
C	-1.1359452145	-0.5758704925	-0.3052971602	-0.205527
C	-0.9981014003	-2.0220274264	-0.2094355935	 0.036651
C	-0.8990583235	-3.2197319679	-0.1542948872	 0.139976
C	-0.7955955684	-4.6744199502	-0.04815581	-0.046957
C	-2.157031011	-5.3067971696	 0.2864023799	-0.391423
O	-0.266427805	-5.1731775572	-1.2738160288	-0.240885
C	 0.3540827794	-6.4336204944	-1.1609533621	-0.230641
H	 0.7287482004	 1.8806453568	 0.7661023453	 0.130918
H	-0.1433282228	 1.8215645954	-0.7900880092	 0.104951
H	-1.0557134334	 1.8467334282	 0.7424101455	 0.103639
H	-2.0897825635	-0.2591027106	 0.1527072168	 0.112881
H	-1.1872306285	-0.2803541397	-1.3681424659	 0.117797
H	-0.0884499967	-4.9062578807	 0.7669660059	 0.094703
H	-2.8720622446	-5.0906261376	-0.5111499092	 0.133578
H	-2.0644155193	-6.391068316	 0.3938556031	 0.11689
H	-2.542887298	-4.900823794	 1.2253935052	 0.126742
H	 1.165079367	-6.4223645255	-0.4157005208	 0.106294
H	-0.3499302303	-7.2347120297	-0.8913482517	 0.105348
H	 0.7805707404	-6.6651795825	-2.1399008633	 0.130497
22.8891	55.5475	67.9873	89.0342	115.6879	182.3316	204.5202	230.7132	237.0534	306.4612	321.4261	350.0091	408.4733	488.5862	544.3594	570.4693	786.7168	864.1052	975.2774	1002.5676	1026.6852	1064.2691	1099.5708	1129.8101	1148.8855	1179.7907	1182.4573	1191.7416	1218.0618	1220.317	1255.8509	1341.9564	1372.3257	1396.6858	1410.389	1475.3748	1476.8601	1481.8579	1484.1655	1490.8003	1493.994	1498.2376	1511.041	1515.8361	2374.9306	2942.596	2952.824	2960.5982	2967.508	2975.6599	3009.6382	3023.007	3048.1454	3114.9548	3120.3006	3121.7352	3133.3557
COCC#CC(C)OC	COCC#C[C@@H](C)OC	
InChI=1S/C7H12O2/c1-7(9-3)5-4-6-8-2/h7H,6H2,1-3H3	InChI=1S/C7H12O2/c1-7(9-3)5-4-6-8-2/h7H,6H2,1-3H3/t7-/m1/s1
