17
gdb 67691	2.29893	1.88369	1.452	4.2202	72.37	-0.2248	-0.0061	0.2187	968.153	0.136545	-421.819972	-421.812514	-421.81157	-421.8518	28.893	
C	-0.09521345	 1.502891598	 0.0355593986	-0.518378
C	 0.0550696134	 0.0138977903	-0.0085486847	 0.333277
C	 0.0586755725	-0.9043176494	-1.1717941166	-0.135134
C	 1.2811640624	-1.813359578	-1.0945895494	-0.104937
O	 1.8477857135	-1.5697103423	 0.196853883	-0.258214
C	 0.8533468673	-0.9057227381	 0.9599605102	-0.104727
C	-0.4650616837	-1.7294820446	 1.1002615976	 0.431367
O	-0.9225181137	-2.4100467259	 1.9766060523	-0.336254
C	-1.0442820904	-1.1022083666	-0.1234033854	-0.254058
H	 0.8680671102	 1.9949654438	-0.1390821761	 0.137446
H	-0.7923770793	 1.8515917813	-0.7325318835	 0.129226
H	-0.4710252779	 1.8387233561	 1.0075761122	 0.135211
H	-0.2870699676	-0.5521461864	-2.1373668138	 0.106412
H	 1.0169085899	-2.873293676	-1.2039167432	 0.113123
H	 2.0279959276	-1.5581315047	-1.8548909186	 0.113033
H	 1.296007343	-0.5042970939	 1.8707229035	 0.101784
H	-2.0928202071	-1.0113722036	-0.3816972961	 0.110823
110.7787	190.7194	216.8371	227.9001	287.5628	400.6467	462.7786	564.5469	584.4263	691.7931	716.7814	748.5002	817.0696	849.5614	880.7367	935.8165	950.87	987.9828	1024.0204	1053.6153	1066.5664	1083.1416	1102.3016	1130.1837	1155.7765	1198.6599	1221.8691	1230.6733	1301.3852	1306.9988	1371.9294	1416.0431	1452.5281	1486.576	1495.0353	1521.4821	1870.9156	3016.8201	3031.1928	3063.4936	3094.6436	3104.9879	3137.4402	3179.7267	3193.1122
CC12C3COC1C(=O)C23	C[C@@]12[C@H]3CO[C@@H]1C(=O)[C@@H]23	
InChI=1S/C7H8O2/c1-7-3-2-9-6(7)5(8)4(3)7/h3-4,6H,2H2,1H3	InChI=1S/C7H8O2/c1-7-3-2-9-6(7)5(8)4(3)7/h3-4,6H,2H2,1H3/t3-,4-,6+,7-/m0/s1
