19
gdb 30693	3.14014	1.21212	0.94981	1.4526	78.35	-0.1864	0.0132	0.1996	1262.1367	0.159598	-419.228674	-419.219572	-419.218628	-419.263006	32.868	
C	 0.027677593	 1.5015674833	 0.0795139682	-0.384623
C	 6.4612*^-6	-0.034291511	 0.0366233327	-0.159619
N	 0.6916796105	-0.6967489697	 1.1299974862	-0.152161
C	 0.0309653262	-0.7204662528	 2.4235780922	-0.343973
C	 2.0672954341	-0.7437322288	 1.0824300794	 0.347882
C	 2.9312067728	-0.4096436989	 0.0758439175	-0.159429
O	 4.2071929556	-0.7262951757	 0.5033425013	-0.145383
C	 4.0332910944	-1.2106718059	 1.7387596416	 0.082593
N	 2.8065046769	-1.2490321972	 2.148907855	-0.335364
H	 1.0546579548	 1.8776191645	 0.0726228084	 0.12915
H	-0.4942195924	 1.9155683269	-0.7892015669	 0.115706
H	-0.4659733675	 1.8813624366	 0.9793104652	 0.122859
H	-1.0387645435	-0.3842160812	 0.0450353553	 0.104181
H	 0.4385876561	-0.3903796155	-0.9035329083	 0.110755
H	-0.9916028271	-1.0897054146	 2.2939533207	 0.115758
H	 0.5694068785	-1.3932319276	 3.0903200573	 0.161402
H	-0.0194693903	 0.2687532065	 2.9056854425	 0.108966
H	 2.8472780141	 0.0123126483	-0.9075480215	 0.134081
H	 4.9171039427	-1.5199385571	 2.2748526532	 0.147221
70.8921	95.8881	119.6189	155.5833	200.0323	253.6769	302.9007	377.1184	420.1296	530.687	601.2021	616.4475	629.0366	735.1214	795.1825	839.1112	880.8574	937.269	964.811	1033.5852	1078.6414	1086.502	1109.3474	1148.1439	1162.6889	1218.8484	1231.2982	1271.0461	1327.3738	1362.701	1388.2635	1403.413	1404.1028	1451.645	1484.3384	1488.4108	1495.7733	1508.6317	1515.9869	1565.119	1652.6757	2976.6058	3025.2838	3039.8259	3062.6854	3068.8611	3108.5911	3119.2221	3154.1505	3271.2326	3315.0464
CCN(C)C1=COC=N1	CCN(C)c1cocn1	
InChI=1S/C6H10N2O/c1-3-8(2)6-4-9-5-7-6/h4-5H,3H2,1-2H3	InChI=1S/C6H10N2O/c1-3-8(2)6-4-9-5-7-6/h4-5H,3H2,1-2H3
