19
gdb 32213	2.58701	1.46254	1.01585	2.8927	83.92	-0.2431	-0.03	0.2132	1204.5688	0.160575	-382.140889	-382.132175	-382.131231	-382.174617	31.957	
C	-0.1117128294	 1.5980676748	 0.0076543279	-0.373514
C	-0.0269713601	 0.0607924756	-0.0157139077	-0.30086
C	 0.7144745859	-0.474274576	-1.2170402391	 0.206494
C	 0.0304829597	-0.8271152586	-2.3777256951	-0.039973
N	 0.6229725112	-1.2792025917	-3.4850935466	-0.25756
C	 1.9484791991	-1.3833012416	-3.4123529488	 0.064243
N	 2.7191018888	-1.095187508	-2.3646626041	-0.29542
C	 2.110261986	-0.6395013002	-1.2616952459	 0.260174
C	 2.9994988532	-0.3351592524	-0.0844699771	-0.496115
H	 0.8825368423	 2.0547752904	 0.022183479	 0.125189
H	-0.6338766115	 1.9728304656	-0.8780965437	 0.126433
H	-0.6540114316	 1.9423964922	 0.8934557125	 0.119773
H	 0.4479633982	-0.2915274274	 0.9061047429	 0.109176
H	-1.0428701282	-0.3505600563	-0.0154484706	 0.109931
H	-1.0556239389	-0.7436927167	-2.4115357745	 0.106737
H	 2.4586207311	-1.7467965713	-4.3016195718	 0.114789
H	 2.8993870191	 0.70574703	 0.2402926209	 0.13665
H	 2.7463416254	-0.964056501	 0.7769148617	 0.137629
H	 4.0375556297	-0.5213575573	-0.3612903598	 0.146222
72.0248	114.8789	122.2736	196.4531	209.2567	308.6373	328.3389	412.8997	470.817	525.0948	576.7427	623.4644	740.2762	785.0912	790.6231	872.8669	955.1693	973.0855	991.9502	1011.8981	1056.6749	1070.1028	1084.6327	1161.6181	1204.25	1244.3794	1280.6487	1289.5799	1323.6221	1356.5799	1401.3346	1408.8203	1434.7849	1465.1346	1484.7844	1487.5334	1490.182	1496.583	1507.9499	1589.7904	1619.0943	3035.8369	3038.1789	3039.1549	3072.8999	3091.3298	3111.7054	3112.9573	3131.3427	3150.2236	3160.9403
CCC1=CN=CN=C1C	CCc1cncnc1C	
InChI=1S/C7H10N2/c1-3-7-4-8-5-9-6(7)2/h4-5H,3H2,1-2H3	InChI=1S/C7H10N2/c1-3-7-4-8-5-9-6(7)2/h4-5H,3H2,1-2H3
