23
gdb 118848	2.70178	0.80931	0.69705	1.9082	83.18	-0.2512	0.0713	0.3225	1720.3094	0.203075	-425.407826	-425.396801	-425.395857	-425.444344	40.113	
C	 0.1040645023	 1.57580361	 0.1862700435	-0.38339
C	 0.0038894024	 0.0500556774	 0.2588374603	-0.176885
C	-1.3520155521	-0.4846960905	-0.2242885652	-0.228088
C	-1.4621102385	-1.9966808209	-0.1445863542	 0.381609
O	-0.5246653939	-2.6754242145	-0.9499983093	-0.475514
C	-1.869886374	-2.6779888227	 1.1417598619	-0.344186
C	-2.7802999674	-2.7157071599	-0.0722473278	-0.026449
C	-4.1178041692	-2.0258684654	-0.0690947758	-0.110903
O	-5.0517772154	-2.8977989026	 0.5578683714	-0.418178
H	 1.0825755384	 1.9282174772	 0.5270627791	 0.112158
H	-0.0400054046	 1.9331092513	-0.8393253782	 0.116796
H	-0.6582269334	 2.0533275635	 0.8119793133	 0.114015
H	 0.80337147	-0.3909484264	-0.3500799674	 0.092379
H	 0.1767052432	-0.2832706957	 1.2906172139	 0.09717
H	-2.1487815057	-0.0245036939	 0.3710199664	 0.092506
H	-1.5130108823	-0.1736484129	-1.2650522329	 0.100268
H	 0.3332871085	-2.6156490509	-0.5166175817	 0.281847
H	-1.3584042432	-3.5941092045	 1.4149091059	 0.110162
H	-2.1740677287	-2.056870019	 1.9788149763	 0.107764
H	-2.7821105937	-3.6586868621	-0.6104703077	 0.103109
H	-4.0580963486	-1.0670034149	 0.4681484217	 0.080392
H	-4.4239803833	-1.8012293463	-1.1036505857	 0.089545
H	-5.9231641208	-2.4959612162	 0.4913327121	 0.283872
61.8849	85.8895	98.3714	109.1241	186.8288	227.1884	249.935	264.0879	301.9703	304.6966	335.9384	396.0728	433.8026	452.798	597.0027	726.6198	756.2445	853.476	873.2173	890.7334	908.6058	932.3379	942.5692	1024.9365	1045.7417	1051.6114	1055.8657	1078.0011	1116.5753	1137.265	1164.6997	1222.4101	1252.1098	1274.0471	1284.0797	1293.688	1316.6606	1338.0646	1344.2874	1392.7746	1410.0254	1414.4864	1462.7135	1474.2599	1493.4626	1494.6967	1500.4537	1510.5237	1518.6644	2965.7614	2994.6492	3014.0176	3022.1461	3030.5013	3045.0102	3071.5551	3097.7849	3102.3695	3125.7875	3161.4654	3216.9476	3805.1908	3824.7384
CCCC1(O)CC1CO	CCC[C@@]1(O)C[C@H]1CO	
InChI=1S/C7H14O2/c1-2-3-7(9)4-6(7)5-8/h6,8-9H,2-5H2,1H3	InChI=1S/C7H14O2/c1-2-3-7(9)4-6(7)5-8/h6,8-9H,2-5H2,1H3/t6-,7+/m0/s1
