17
gdb 43863	3.43412	1.05293	0.90465	2.5103	80.35	-0.2449	-0.0252	0.2197	1280.3082	0.133217	-384.65013	-384.641574	-384.64063	-384.683871	32.585	
O	 0.0622252427	 0.1100223063	-0.6373922837	-0.284369
C	 0.0215477181	 1.196921305	-0.1424741193	 0.410486
C	-1.124296928	 2.1277135888	 0.2991338007	-0.421207
C	-0.0464755613	 3.1245644776	 0.756548341	 0.340239
C	-0.1097288009	 4.6130306392	 0.704862256	-0.350086
C	-0.0760158704	 3.9067977922	 2.0577935523	-0.2572
C	-1.2446701573	 3.8661813841	 2.8844024643	 0.331905
C	-2.2327257425	 3.8060474005	 3.5689572224	-0.457372
C	 1.1026027464	 2.2100494366	 0.2926944281	-0.42836
H	-1.7653988233	 2.4557871696	-0.5256645622	 0.133143
H	-1.7600074117	 1.7230001503	 1.0935195468	 0.146497
H	 0.7804900027	 5.1619669272	 0.4152895662	 0.122354
H	-1.046468698	 5.0761142264	 0.4145440045	 0.130841
H	 0.8679302794	 3.961780783	 2.59406386	 0.114948
H	-3.1010606915	 3.7676840075	 4.1787416226	 0.199342
H	 1.778722877	 1.8419565124	 1.0710518679	 0.134637
H	 1.7033398086	 2.587279433	-0.5419546574	 0.134203
40.333	114.17	141.8629	278.1267	294.2777	339.6008	419.3784	457.873	489.7061	519.1227	573.9115	602.9927	655.0096	671.3029	721.0523	794.0537	843.0688	896.9765	903.471	958.6781	1032.1206	1054.4301	1057.0069	1079.1478	1080.9204	1123.2384	1187.762	1193.9624	1210.7508	1228.4155	1327.268	1408.1764	1426.1733	1445.5589	1484.4839	1900.9497	2233.6479	3044.9228	3050.6076	3097.0247	3099.7799	3130.0053	3138.8721	3221.2984	3504.1699
O=C1CC2(CC2C#C)C1	O=C1CC2(C[C@H]2C#C)C1	
InChI=1S/C8H8O/c1-2-6-3-8(6)4-7(9)5-8/h1,6H,3-5H2	InChI=1S/C8H8O/c1-2-6-3-8(6)4-7(9)5-8/h1,6H,3-5H2/t6-/m1/s1
