15
gdb 125048	3.32002	1.29673	0.93875	4.0569	77.93	-0.2162	-0.0205	0.1957	1182.8374	0.111247	-416.777893	-416.769004	-416.76806	-416.811704	32.319	
C	-0.0295612885	 1.5415700926	 0.0503118412	-0.53092
C	-0.0141226935	 0.0474835346	 0.0039501365	-0.021698
C	-0.0135925738	-0.7835467044	-1.0835573984	 0.401886
N	-0.0781841717	-0.5438496231	-2.4351599059	-0.605304
O	-0.005749691	-2.0690950168	-0.7058333808	-0.207894
N	-0.0032310099	-2.1432403762	 0.6945976431	-0.24083
C	-0.0077694013	-0.8808438323	 1.0893822531	 0.211321
C	-0.0046731013	-0.5574416744	 2.4714044038	 0.252991
C	-0.0004732333	-0.2342242713	 3.6300396394	-0.393797
H	 0.7900052014	 1.9816031915	-0.5316632375	 0.120673
H	-0.9667727605	 1.9590731913	-0.3367729404	 0.135108
H	 0.0824826515	 1.8852821282	 1.0816216521	 0.14653
H	 0.2960364412	 0.349211027	-2.7206501098	 0.265387
H	 0.2564013365	-1.3069391373	-3.0070421542	 0.268458
H	 0.0015559543	 0.0308310407	 4.6584957079	 0.198088
56.6964	118.3646	136.6516	225.6109	240.3158	287.3768	310.4292	392.1929	481.7588	525.4783	576.0379	595.5231	615.1177	670.4555	686.9282	695.8368	753.7041	779.4057	943.1262	966.3854	1063.5295	1069.3058	1146.4455	1270.2994	1351.0176	1420.9304	1460.0488	1489.3273	1498.2359	1512.4285	1630.3893	1684.3779	2241.9982	3018.3599	3064.5399	3117.8879	3502.2052	3564.5503	3668.591
CC1=C(N)ON=C1C#C	Cc1c(N)onc1C#C	
InChI=1S/C6H6N2O/c1-3-5-4(2)6(7)9-8-5/h1H,7H2,2H3	InChI=1S/C6H6N2O/c1-3-5-4(2)6(7)9-8-5/h1H,7H2,2H3
