17
gdb 38997	3.06786	2.17538	1.54897	1.2487	79.02	-0.2137	-0.0199	0.1938	862.7298	0.138975	-384.664329	-384.658254	-384.65731	-384.694359	25.943	
C	 0.0620796658	 1.5654097277	 0.1557792062	-0.271187
C	 1.5103860601	 1.9218567027	-0.145743469	-0.144068
C	 2.1507373402	 0.8713197775	-0.6787279679	 0.182209
C	 3.4418041749	 0.2639273431	-0.312623923	-0.150682
C	 3.1776788545	-0.9645666182	 0.1747935855	-0.092233
C	 1.7076650022	-1.3026571737	 0.0014694868	 0.090967
O	 0.7525142193	-0.7310793764	 0.9967234419	-0.336675
C	 0.0545292635	 0.0352625467	-0.0377951258	 0.12632
C	 1.1972269929	-0.2737934526	-0.9980350026	-0.158581
H	-0.1933842369	 1.8438424001	 1.1855611292	 0.120806
H	-0.6857822376	 2.0400107126	-0.496205889	 0.104738
H	 1.9959735161	 2.7884435762	 0.2889147053	 0.094639
H	 4.3952328129	 0.7761031928	-0.2674046897	 0.111553
H	 3.8945272468	-1.6135147304	 0.6635082453	 0.103439
H	 1.4914362971	-2.3639099384	-0.1469876644	 0.072705
H	-0.9350505325	-0.3916835174	-0.2329331415	 0.066563
H	 1.064059431	-0.510478472	-2.0551339574	 0.079487
229.3335	284.7022	339.8407	373.7493	502.827	612.4413	661.1676	723.506	741.5721	797.2357	803.7079	840.566	851.5263	865.8236	904.579	929.5178	938.4411	951.4896	965.2033	976.947	1021.8842	1025.2836	1111.4176	1136.0244	1171.7294	1225.1026	1242.7596	1255.421	1274.9389	1301.2401	1313.2545	1316.8836	1346.8335	1364.0647	1455.9493	1592.3846	1664.1772	3003.4622	3051.2054	3058.3231	3072.301	3095.6815	3191.7186	3196.9163	3219.6313
C1C=C2C=CC3OC1C23	C1[CH][C]2C=C[C@H]3O[C@@H]1[C@@H]23	
InChI=1S/C8H8O/c1-3-6-8-5(1)2-4-7(8)9-6/h1-3,6-8H,4H2	InChI=1S/C8H8O/c1-3-6-8-5(1)2-4-7(8)9-6/h1-3,6-8H,4H2/t6-,7+,8+/m1/s1
