16
gdb 109328	2.17128	1.43564	0.94569	3.9941	71.37	-0.2581	-0.0044	0.2536	1208.9835	0.123632	-437.88612	-437.877301	-437.876357	-437.920427	30.887	
O	-0.0220025311	 1.4562926693	 0.0558713309	-0.412565
C	 0.0163560673	 0.0445145282	 0.1132505998	-0.18452
C	-1.3782678028	-0.4798981092	 0.0381068297	 0.298021
C	-2.5185658989	 0.185105231	-0.1018340783	-0.193952
C	-3.6760808495	-0.764777759	-0.1490741571	-0.122641
O	-3.1041138246	-2.0619444534	 0.0686871242	-0.262216
C	-1.6911999934	-1.9652020899	 0.1025872762	-0.101853
C	-1.0812519399	-2.70613227	-1.0282459246	 0.270234
N	-0.5774401274	-3.2695099319	-1.9023148846	-0.327157
H	 0.8820293764	 1.77980965	 0.0089985278	 0.296707
H	 0.6064097098	-0.3833216647	-0.7147374426	 0.125502
H	 0.4891621306	-0.311425809	 1.0463899484	 0.103887
H	-2.6127589871	 1.2589732869	-0.180373568	 0.134521
H	-4.4219318658	-0.5757480101	 0.6349670694	 0.121786
H	-4.1992826719	-0.742919524	-1.1168080001	 0.123406
H	-1.3188071417	-2.4306788941	 1.0284142588	 0.130839
72.6319	79.2487	129.9212	202.0794	215.474	238.0326	251.7097	394.488	426.2222	517.1708	597.7958	689.2546	778.8893	815.9996	898.2871	933.0005	956.4523	1006.0366	1044.471	1047.473	1079.1121	1112.7141	1182.698	1197.3451	1217.8827	1253.7938	1279.8469	1313.7001	1352.1646	1377.5198	1473.0784	1508.9234	1519.1557	1742.7935	2353.1892	2942.9723	2973.8014	2985.3168	2994.5806	3027.1612	3244.8565	3841.1143
OCC1=CCOC1C#N	OCC1=CCO[C@H]1C#N	
InChI=1S/C6H7NO2/c7-3-6-5(4-8)1-2-9-6/h1,6,8H,2,4H2	InChI=1S/C6H7NO2/c7-3-6-5(4-8)1-2-9-6/h1,6,8H,2,4H2/t6-/m0/s1
