15
gdb 5596	3.56829	1.84857	1.27817	1.5707	64.04	-0.1829	0.033	0.2159	912.3303	0.120148	-399.818967	-399.8115	-399.810556	-399.8506	28.205	
N	-0.304988252	 1.1695368678	-0.48210064	-0.598227
C	-0.2153552342	-0.1622737873	-0.124112739	 0.309739
C	-1.1592505858	-1.0480264126	 0.3254361986	 0.138631
C	-2.6178260792	-0.7498683169	 0.4733179211	-0.194759
O	-3.1339821011	 0.0088839633	-0.6309054062	-0.416355
C	-0.4322466112	-2.2607035691	 0.5984713523	-0.277811
C	 0.8656421017	-2.0218380558	 0.2991679357	-0.036288
O	 1.0110645923	-0.7267242426	-0.1519845114	-0.176368
H	 0.3815375978	 1.4515635498	-1.1693489917	 0.251664
H	-1.2504842796	 1.4017519339	-0.763280491	 0.262765
H	-3.1837748525	-1.6830604852	 0.6075281417	 0.099858
H	-2.8240195546	-0.122719526	 1.3490527588	 0.121642
H	-2.9565701872	-0.5073487158	-1.4253570525	 0.280746
H	-0.8418750557	-3.1877529228	 0.9709686151	 0.1048
H	 1.7702018512	-2.6032198408	 0.3326116186	 0.129961
95.2035	175.62	223.5745	279.4061	330.028	384.9659	434.9864	455.6904	606.1359	644.8766	671.793	720.8207	731.4227	787.4894	822.0323	908.599	963.9994	1018.5209	1037.3532	1063.464	1163.1628	1187.4866	1235.2063	1283.9715	1323.3799	1370.7274	1413.0998	1485.4316	1507.5999	1563.4541	1620.3096	1677.0297	2999.3759	3047.5079	3245.115	3297.956	3528.9979	3634.762	3798.1983
NC1=C(CO)C=CO1	Nc1c(CO)cco1	
InChI=1S/C5H7NO2/c6-5-4(3-7)1-2-8-5/h1-2,7H,3,6H2	InChI=1S/C5H7NO2/c6-5-4(3-7)1-2-8-5/h1-2,7H,3,6H2
