16
gdb 12130	4.32563	1.67622	1.64946	3.3599	64.46	-0.2432	0.0527	0.2959	867.9352	0.127477	-383.656991	-383.649461	-383.648517	-383.688288	28.799	
C	-0.1722056353	 1.5399070798	 0.0267549981	-0.510194
C	 0.1070165171	 0.0751298575	 0.0177669968	 0.413204
O	-0.7504827322	-0.8255838132	 0.7192014519	-0.254581
C	 0.6506388544	-0.8635546814	 1.0017211382	-0.155569
C	 1.3771335496	-1.6749408992	-0.1551030464	 0.413204
C	 2.6652697983	-2.4187921978	-0.0501715824	-0.510192
O	 0.3678610549	-2.1081899298	-1.0674182275	-0.254584
C	 0.8125004472	-0.751289712	-1.1414475215	-0.15556
H	 0.7087318864	 2.1045863808	-0.2968116767	 0.126277
H	-0.9953760593	 1.7828183243	-0.6547897289	 0.136408
H	-0.4495774756	 1.8704575181	 1.0311589652	 0.138177
H	 0.9755694358	-0.728706415	 2.0272506321	 0.106274
H	 2.5345048589	-3.343406996	 0.5235057397	 0.13641
H	 3.0375588753	-2.6814163413	-1.0438788327	 0.138177
H	 3.4226556605	-1.8128395248	 0.4585486613	 0.126276
H	 1.1927553542	-0.3822075498	-2.0873130372	 0.106272
156.4268	188.0646	189.4048	247.7991	300.5701	328.4372	437.0823	500.011	578.4025	579.1693	719.52	766.2404	790.2357	844.6411	852.8489	903.5015	980.045	985.1029	996.0954	1052.8155	1093.1562	1102.5016	1156.0377	1169.6882	1221.0468	1266.5991	1400.0211	1405.7009	1462.6324	1467.2841	1483.2886	1485.3336	1492.5188	1497.5078	3032.0018	3032.5169	3093.496	3093.7508	3120.0391	3120.1434	3181.7958	3182.648
CC12OC1C1(C)OC21	C[C@]12O[C@H]1[C@@]1(C)O[C@@H]21	
InChI=1S/C6H8O2/c1-5-3(7-5)6(2)4(5)8-6/h3-4H,1-2H3	InChI=1S/C6H8O2/c1-5-3(7-5)6(2)4(5)8-6/h3-4H,1-2H3/t3-,4+,5+,6-/m1/s1
