22
gdb 97054	2.77684	1.17833	1.02527	2.8911	85.41	-0.2366	0.0367	0.2732	1311.3038	0.192831	-404.387827	-404.377846	-404.376902	-404.423195	36.877	
C	-0.4756815754	 1.3532628452	-0.3820152417	-0.328144
N	-0.1414746964	-0.0377217413	-0.1176307678	-0.331735
C	 0.6890448028	-0.6227799685	-0.8625005041	 0.431975
C	 1.1484398121	-2.0568540241	-0.7096583804	-0.325144
C	 1.7189442466	-2.3825320542	-2.0948655339	-0.258705
C	 2.1901492576	-1.0042939685	-2.6143903435	 0.375843
C	 3.6306803245	-0.6869525617	-2.2015311223	-0.414694
C	 1.9867423329	-0.8209501814	-4.1144008357	-0.426032
O	 1.3129545967	-0.0573943002	-1.9430506171	-0.281282
H	-0.2778640777	 1.6715189695	-1.4124431225	 0.116911
H	-1.5349023532	 1.5133306486	-0.1568145987	 0.116535
H	 0.0959131167	 2.0074151176	 0.2891258019	 0.11979
H	 1.9197606932	-2.1089786979	 0.067077032	 0.126827
H	 0.3265524548	-2.700099707	-0.3947329898	 0.132033
H	 2.5322276079	-3.1113018299	-2.0749067989	 0.106504
H	 0.9326949706	-2.7741137025	-2.7480582434	 0.108317
H	 4.3350930967	-1.330511701	-2.738037336	 0.11699
H	 3.8688556089	 0.3549763194	-2.4324919827	 0.127851
H	 3.7781943579	-0.8386936011	-1.1280331295	 0.119876
H	 0.9359370699	-0.9682999352	-4.378385151	 0.123244
H	 2.2833677187	 0.1842948438	-4.4275816519	 0.125171
H	 2.5896426741	-1.5454386996	-4.671194433	 0.117866
37.3119	74.4402	129.4499	197.8042	218.0534	253.7397	255.1706	312.4219	338.4494	396.3631	455.6183	494.4266	569.7622	592.2519	665.6182	765.4397	806.8377	901.3341	926.1008	935.7671	969.4574	988.6678	1008.4879	1038.5354	1051.0899	1115.7829	1130.4947	1155.7726	1158.8173	1196.3932	1244.8967	1271.4569	1288.3839	1320.4298	1343.516	1401.7491	1418.433	1438.1234	1472.9929	1477.9755	1486.7992	1491.2948	1495.9253	1499.2831	1500.1542	1507.3998	1797.9009	3009.7392	3036.7915	3041.1222	3048.9403	3055.3777	3065.6617	3088.2601	3107.6289	3109.7726	3112.9734	3119.4493	3120.5817	3130.3421
CN=C1CCC(C)(C)O1	CN=C1CCC(C)(C)O1	
InChI=1S/C7H13NO/c1-7(2)5-4-6(8-3)9-7/h4-5H2,1-3H3	InChI=1S/C7H13NO/c1-7(2)5-4-6(8-3)9-7/h4-5H2,1-3H3
