14
gdb 133262	3.99495	1.12304	0.88136	3.1035	73.67	-0.2213	-0.0626	0.1586	1219.0599	0.099538	-474.113783	-474.105564	-474.104619	-474.147482	29.164	
C	 0.0340766201	 1.4516302083	 0.0434179862	-0.329147
N	 0.15078856	 0.0067884432	 0.0594692966	-0.305251
C	 0.5995212069	-0.6294045064	-0.9494888963	 0.426204
C	 0.7164401172	-2.083143139	-0.9320539694	-0.418866
C	 1.1955305958	-2.6756556966	-2.0282589225	 0.468887
F	 1.367641934	-3.9774644013	-2.1850248046	-0.049349
N	 1.5596947021	-1.9359581336	-3.1205533208	-0.324737
N	 1.4582403245	-0.5712030345	-3.1580144161	-0.036358
N	 1.015422721	 0.0390559182	-2.1584369011	-0.241213
H	 0.6178285792	 1.8601196785	 0.8776158995	 0.122992
H	 0.3574919956	 1.9310209439	-0.8854746731	 0.131955
H	-1.0111544529	 1.7214892935	 0.2388591566	 0.123004
H	 0.4217022844	-2.6425399885	-0.056559522	 0.142507
H	 1.9236059422	-2.3585848357	-3.959021823	 0.289371
53.2051	87.9005	137.1102	233.2517	289.224	355.3032	376.5915	464.1904	486.8558	514.7248	620.9142	644.2779	730.3228	767.9889	856.4351	911.9592	993.2607	1029.2734	1060.4881	1128.4432	1138.9526	1206.3326	1272.3979	1336.3529	1430.123	1436.2783	1488.7522	1495.2208	1605.5166	1710.5939	1744.5333	3014.1691	3062.227	3098.7431	3247.3943	3662.9012
CN=C1C=C(F)NN=N1	C[N]c1cc(F)[nH]nn1	
InChI=1S/C4H5FN4/c1-6-4-2-3(5)7-9-8-4/h2H,1H3,(H,6,7,8)	InChI=1S/C4H10FN4/c1-6-4-2-3(5)7-9-8-4/h3-4,7-9H,2H2,1H3
