19
gdb 37424	2.80194	2.11933	1.72827	1.7514	76.1	-0.252	0.0748	0.3269	867.5816	0.16271	-385.851442	-385.845308	-385.844364	-385.881535	26.855	
C	-0.0436727529	 1.5367326956	 0.0166179637	-0.236167
C	 1.5086769738	 1.5871297969	 0.0089998752	-0.021374
C	 2.20127241	 1.4427954544	 1.3917026712	-0.236167
C	 2.09502864	-0.1189962884	 1.3058053191	-0.059863
C	 0.9808829396	-0.7635164645	 2.1228266968	 0.025853
O	-0.077312697	 0.1301577357	 2.4987317545	-0.244424
C	-0.2760204445	-0.7109228631	 1.3529418812	 0.025853
C	-0.0140985359	-0.0307422261	 0.0139115716	-0.059863
C	 1.5411127729	 0.0317735874	-0.1502065639	-0.042062
H	-0.547456096	 2.002478759	 0.8657131847	 0.112451
H	-0.4662470476	 1.9315480838	-0.9107001026	 0.095259
H	 1.9701922135	 2.2781603541	-0.6972569785	 0.060694
H	 3.2415096669	 1.7764016911	 1.3603936114	 0.09526
H	 1.7021071356	 1.908347866	 2.2436267518	 0.112451
H	 3.0402096252	-0.6518761261	 1.4231394659	 0.066655
H	 1.2017382713	-1.5398040065	 2.8518794328	 0.090566
H	-1.071770646	-1.4446717418	 1.4592978677	 0.090566
H	-0.5785697671	-0.5004511448	-0.7934551442	 0.066655
H	 2.021162948	-0.5031284928	-0.9704704585	 0.057658
217.0948	238.8243	366.6238	465.1738	519.8435	617.3223	650.7957	679.95	736.6898	793.5693	803.884	829.3048	857.0694	880.5599	898.602	919.2358	932.7354	950.9638	992.1034	1003.9111	1046.1085	1060.5382	1073.7636	1088.8871	1122.0226	1140.7594	1158.1502	1176.6116	1222.4773	1244.2168	1257.0029	1258.8674	1264.9154	1287.1537	1297.6138	1321.0483	1326.3644	1343.5552	1415.8751	1461.5886	1477.4754	3061.7852	3063.1212	3085.2718	3089.0982	3093.363	3107.1446	3121.7466	3124.5803	3131.5155	3144.3582
C1C2CC3C4OC4C1C23	C1[C@H]2C[C@H]3[C@H]4O[C@H]4[C@@H]1[C@@H]23	
InChI=1S/C8H10O/c1-3-2-5-6(3)4(1)7-8(5)9-7/h3-8H,1-2H2	InChI=1S/C8H10O/c1-3-2-5-6(3)4(1)7-8(5)9-7/h3-8H,1-2H2/t3-,4-,5+,6+,7-,8+
