22
gdb 59478	2.96722	1.04052	0.92537	1.5347	83.19	-0.2116	0.0709	0.2825	1388.2265	0.192575	-404.294538	-404.284718	-404.283773	-404.329644	37.002	
C	-0.2542229924	-2.9659828431	 1.6660987958	-0.405385
C	-0.3988107267	-1.4438905085	 1.6220637783	 0.120088
O	 0.7984564658	-0.8243746645	 1.1442363411	-0.43296
C	-1.5937518638	-1.0211769964	 0.7899998934	-0.004668
C	-2.9274902787	-0.8051559725	 1.4160465269	-0.265679
N	-2.1696377147	 0.3196440708	 0.8772614866	-0.104784
C	-1.5536031231	 1.2920490642	 1.7579357895	 0.073392
C	-2.3269038273	 2.5096734504	 2.1638863642	-0.287108
C	-1.9156650791	 1.4971236014	 3.2131443894	-0.281526
H	 0.641290532	-3.2425213866	 2.2287831457	 0.12508
H	-1.1254030123	-3.4324785371	 2.1365200067	 0.119839
H	-0.1612089899	-3.3768242519	 0.6530440548	 0.107467
H	-0.5138507793	-1.0590901646	 2.6400214079	 0.098153
H	 0.9186148484	-1.0903007492	 0.2254178742	 0.276855
H	-1.5616360373	-1.4070187718	-0.2322197282	 0.076264
H	-3.8415383183	-1.0592858946	 0.885575157	 0.113462
H	-2.9833632571	-0.9255990362	 2.4965042128	 0.109691
H	-0.5091067144	 1.4351565961	 1.5031406158	 0.114416
H	-1.8334255635	 3.4749866881	 2.138407616	 0.110648
H	-3.3771966752	 2.5349597199	 1.8928814992	 0.115244
H	-2.7059404366	 0.8956793673	 3.6479116294	 0.10945
H	-1.1217794765	 1.7514658589	 3.9077200534	 0.112058
46.8046	78.4551	116.2042	197.3726	231.5579	276.7303	289.3011	303.3423	349.358	406.8276	462.0202	512.4883	597.3057	683.6813	778.5715	799.5767	812.1677	885.1253	899.5154	928.7416	945.3222	984.3475	1012.498	1049.2637	1068.4087	1071.4577	1089.105	1104.8212	1113.6346	1142.1193	1157.5454	1163.9314	1197.7702	1199.008	1225.7262	1270.6254	1324.4362	1339.867	1399.8704	1400.6669	1414.3977	1433.9453	1461.1409	1489.5794	1493.9789	1499.663	1505.0003	3026.3933	3060.5905	3074.34	3094.4362	3099.3433	3121.0621	3129.7282	3133.3613	3172.7584	3177.1677	3208.7091	3224.3338	3795.157
CC(O)C1CN1C1CC1	C[C@@H](O)[C@H]1CN1C1CC1	
InChI=1S/C7H13NO/c1-5(9)7-4-8(7)6-2-3-6/h5-7,9H,2-4H2,1H3	InChI=1S/C7H13NO/c1-5(9)7-4-8(7)6-2-3-6/h5-7,9H,2-4H2,1H3/t5-,7-,8?/m1/s1
