15
gdb 125636	3.24265	1.44047	1.0035	3.1881	72.79	-0.2272	-0.0338	0.1933	1114.976	0.114375	-450.160261	-450.152353	-450.151409	-450.192735	29.826	
C	-0.019013383	 1.4511878269	-0.0179839348	-0.453684
C	 0.0018482661	-0.0435902369	 0.0037120721	 0.336846
N	-0.0256973629	-0.6703396967	-1.1240854438	-0.254916
N	-0.0049922209	-2.0363977764	-1.0546478454	-0.29515
C	 0.0409895808	-2.7010517912	 0.1207427837	 0.520993
O	 0.0536736972	-4.0337183333	-0.0226778158	-0.404578
N	 0.0704134836	-2.1437570049	 1.2804705581	-0.436405
C	 0.0530668132	-0.7452932285	 1.3129217282	 0.27197
N	 0.0779202821	-0.045552314	 2.3844720996	-0.528465
H	 0.864912102	 1.8456049374	 0.4922647365	 0.150314
H	-0.0544883771	 1.8152731737	-1.0457396593	 0.127573
H	-0.8817776874	 1.8219629354	 0.5437304051	 0.150199
H	-0.0273571206	-2.5222552781	-1.9357619271	 0.284884
H	 0.0865534081	-4.3964344281	 0.8741488897	 0.316168
H	 0.1119854788	-0.6721168953	 3.1913455932	 0.21425
78.6347	165.0923	192.6035	303.7994	330.148	361.3799	405.9984	496.8891	505.3156	526.4129	534.9666	574.3918	731.7126	736.1398	785.0985	789.3933	909.0334	979.3538	1042.4986	1059.083	1109.723	1184.8007	1229.1537	1251.6488	1383.9596	1392.3972	1419.0365	1463.2049	1466.0873	1561.8256	1658.0188	1682.8434	1695.8037	3050.3373	3108.2307	3149.9122	3459.0377	3660.1697	3770.4854
CC1=NNC(O)=NC1=N	CC1=NN[C@H](O)N=C1[NH]	
InChI=1S/C4H6N4O/c1-2-3(5)6-4(9)8-7-2/h1H3,(H3,5,6,8,9)	InChI=1S/C4H7N4O/c1-2-3(5)6-4(9)8-7-2/h4-5,8-9H,1H3/t4-/m1/s1
