18
gdb 14443	4.0382	2.02315	1.73537	1.2243	70.16	-0.2421	0.0828	0.3249	811.3083	0.155949	-347.785157	-347.778579	-347.777635	-347.815352	27.208	
O	-0.0833317838	 1.3871828043	-0.0354439669	-0.467986
C	 0.0398699465	 0.0078275311	-0.0345883774	 0.399531
C	 0.8632500621	-0.7962433603	-1.0385951804	-0.306122
C	-0.1463673845	-1.9776409694	-0.8257977897	-0.031232
C	 0.3613991445	-2.959830135	 0.2397352914	-0.200197
C	 0.54246433	-2.074618316	 1.5051455047	-0.236434
C	-0.2856783042	-0.8264129636	 1.1986190914	-0.105416
C	-1.0876854271	-0.9937932807	-0.0748254467	-0.136736
H	 0.6232007432	 1.7543793887	 0.5071296643	 0.281686
H	 0.7717635347	-0.3648780511	-2.0388252153	 0.104909
H	 1.9217754603	-0.9876581526	-0.8226619001	 0.080081
H	-0.5186597309	-2.4440562706	-1.7376860124	 0.067502
H	-0.3906104217	-3.735800677	 0.4220466853	 0.095833
H	 1.2862515473	-3.462201848	-0.0618340255	 0.09318
H	 0.1792240319	-2.5771948477	 2.4068558525	 0.09714
H	 1.5965556228	-1.8325917827	 1.6817823125	 0.095023
H	-0.737404759	-0.2575565461	 2.0043699114	 0.081472
H	-2.1562215623	-0.8624282431	-0.1771396292	 0.087766
203.0752	227.8006	295.622	326.4642	405.8515	449.8171	556.7146	677.1621	688.8118	723.1204	818.2015	848.6595	859.3307	884.7831	916.2611	926.9199	970.4825	981.1725	1001.1621	1025.4613	1055.1146	1079.603	1122.3453	1160.6732	1177.3497	1214.5071	1225.787	1231.6413	1258.6122	1277.6215	1295.0401	1316.9193	1334.1447	1339.5333	1442.1009	1487.0814	1497.3566	1510.7172	3023.3696	3034.1345	3040.4194	3070.9502	3087.9095	3096.1013	3113.5907	3174.0176	3207.7235	3792.4623
OC12CC3CCC1C23	O[C@@]12C[C@H]3CC[C@@H]1[C@@H]23	
InChI=1S/C7H10O/c8-7-3-4-1-2-5(7)6(4)7/h4-6,8H,1-3H2	InChI=1S/C7H10O/c8-7-3-4-1-2-5(7)6(4)7/h4-6,8H,1-3H2/t4-,5-,6+,7+/m1/s1
