15
gdb 50452	3.11959	1.3862	0.9733	6.8795	70.7	-0.2378	-0.0792	0.1587	1138.5295	0.112885	-453.988741	-453.980471	-453.979527	-454.022688	28.948	
N	 0.1176797693	 1.2776880142	 0.0970289463	-0.401856
C	-0.0052984448	 0.0183115255	 0.0493052658	 0.084975
N	-1.2336496859	-0.6424326425	 0.0142408006	-0.110616
C	-1.2456831525	-2.1113847578	-0.086351287	-0.187771
C	-2.7145405894	-2.5241975595	 0.0943448978	-0.355943
C	-3.5026140554	-1.2322633665	-0.0455587898	 0.317758
O	-4.6883266252	-1.1017281855	-0.1565180934	-0.270862
C	-2.5000719568	-0.0571423012	-0.0073141849	 0.318988
O	-2.785922589	 1.1086370856	 0.004239022	-0.304679
H	 1.1058071097	 1.526104883	 0.1221488099	 0.235892
H	 0.8230428351	-0.7025249216	 0.0344801209	 0.097217
H	-0.8617817211	-2.4239907044	-1.0642305115	 0.134763
H	-0.5942458765	-2.5425833768	 0.6793038084	 0.132152
H	-3.0498946353	-3.2721575848	-0.6262517663	 0.152662
H	-2.8984402421	-2.9283531077	 1.0956240412	 0.157319
64.4838	67.124	113.5401	213.394	214.6991	331.7682	411.7392	458.348	541.9779	599.7469	662.8976	692.0612	729.5734	819.2864	854.6899	995.0248	1011.7501	1040.6656	1069.3201	1088.8153	1182.4443	1196.9361	1231.5926	1246.5324	1284.8589	1333.6954	1424.6612	1439.6074	1450.2549	1529.9063	1717.8388	1845.2299	1866.3541	3022.4923	3035.9338	3060.1665	3079.6358	3123.699	3498.2046
N=CN1CCC(=O)C1=O	[NH][CH]N1CCC(=O)C1=O	
InChI=1S/C5H6N2O2/c6-3-7-2-1-4(8)5(7)9/h3,6H,1-2H2	InChI=1S/C5H6N2O2/c6-3-7-2-1-4(8)5(7)9/h3,6H,1-2H2
