21
gdb 80865	2.16723	1.65117	1.43108	1.2372	77.06	-0.2387	0.068	0.3067	1058.9518	0.183036	-424.220056	-424.211334	-424.21039	-424.25254	34.968	
C	-0.0959672505	 1.5052655378	 0.0343340354	-0.42427
C	 0.0783680599	-0.0118875034	 0.0180377564	 0.005518
C	 1.0326349492	-0.5806007401	-1.0868117451	-0.252635
C	 2.0202056935	-1.3702759004	-0.2002651943	-0.074003
C	 2.3014810787	-0.3585390776	 0.9418799466	-0.302029
C	 0.7897098585	-0.5992877596	 1.2556631242	 0.367655
O	 0.1687478163	-0.244497409	 2.4490100706	-0.492577
C	 1.0655999519	-2.0748508713	 0.8111897177	 0.106847
O	 0.0456116812	-2.942108359	 0.4029955359	-0.447617
H	 0.8650319437	 2.0258250141	 0.0986349482	 0.113851
H	-0.5961532091	 1.847490283	-0.8777548354	 0.109709
H	-0.7014340108	 1.8122829856	 0.8917968154	 0.132871
H	-0.9223456624	-0.4579686967	-0.0545674922	 0.06327
H	 0.5178380586	-1.2155749095	-1.8155947219	 0.091516
H	 1.531385084	 0.2163508932	-1.6464920859	 0.101718
H	 2.8241157061	-1.9141335808	-0.6934519715	 0.066462
H	 2.9590888026	-0.7612671782	 1.7172928848	 0.090552
H	 2.6198008636	 0.647937236	 0.6656618795	 0.09983
H	 0.6170976152	-0.6910600731	 3.1740987105	 0.280838
H	 1.629487506	-2.6170354316	 1.5764665514	 0.076584
H	-0.5082900261	-2.4954935494	-0.2448467602	 0.285909
163.5794	209.2387	215.5177	224.1292	233.8756	284.7986	304.8643	378.7267	408.8353	462.3648	532.2612	592.907	635.4911	704.0387	772.4953	821.7714	853.2802	871.2467	898.9893	939.4032	963.929	982.3123	1040.0411	1045.771	1096.9137	1108.5232	1130.2079	1150.8423	1156.4757	1169.2319	1204.7651	1240.6015	1247.1503	1276.0198	1293.7756	1310.9048	1341.9069	1370.3667	1406.9791	1413.2453	1446.631	1493.0591	1501.3864	1502.6623	1519.4365	3007.4402	3035.96	3045.078	3061.4201	3072.7797	3085.9075	3099.9178	3115.066	3127.6238	3129.8798	3819.595	3821.7749
CC1CC2CC1(O)C2O	C[C@H]1C[C@H]2C[C@]1(O)[C@H]2O	
InChI=1S/C7H12O2/c1-4-2-5-3-7(4,9)6(5)8/h4-6,8-9H,2-3H2,1H3	InChI=1S/C7H12O2/c1-4-2-5-3-7(4,9)6(5)8/h4-6,8-9H,2-3H2,1H3/t4-,5-,6-,7+/m0/s1
