15
gdb 74134	2.07597	1.76479	0.9601	5.4038	74.77	-0.2269	-0.0299	0.197	1145.6494	0.113531	-454.008615	-454.000592	-453.999648	-454.041866	30.075	
N	 0.049567375	 1.363181509	-0.2577428456	-0.564084
C	-0.0539154869	 0.0120639928	-0.0329517018	 0.343047
C	-1.2100055732	-0.6773694496	-0.0683230595	-0.242391
C	-1.2666906593	-2.1103574759	 0.0895358531	 0.393766
N	-2.3442631833	-2.7758624407	 0.039384081	-0.520803
O	-0.0638302598	-2.7960089508	 0.3186802141	-0.238244
C	 1.155432719	-2.2015065468	 0.4030660637	 0.42131
O	 2.1201731224	-2.8718974755	 0.6342910497	-0.314996
C	 1.2462044519	-0.7004330486	 0.1883738327	-0.463657
H	 0.8506821486	 1.8394911583	 0.1259911373	 0.260054
H	-0.8018047393	 1.90308397	-0.2261072088	 0.263927
H	-2.1654160995	-0.1942949761	-0.2309124396	 0.107212
H	-2.1554506691	-3.7686210973	 0.1813426786	 0.229394
H	 1.918619961	-0.5398604072	-0.6637526835	 0.169175
H	 1.7747334725	-0.2907635319	 1.0588834686	 0.156291
43.0633	126.6358	174.7464	316.8947	370.6307	375.4344	452.8687	462.7989	496.7452	524.966	589.9938	603.5041	620.6987	682.9844	858.2101	859.839	888.4912	944.9337	968.0764	974.7973	1090.7196	1136.8877	1198.8319	1216.364	1263.5784	1323.6389	1364.399	1436.2319	1443.6074	1651.6658	1710.6741	1742.4273	1858.5965	3030.665	3060.177	3209.9339	3491.6928	3579.7322	3688.1284
NC1=CC(=N)OC(=O)C1	N[C]1C=C([NH])OC(=O)C1	
InChI=1S/C5H6N2O2/c6-3-1-4(7)9-5(8)2-3/h1,7H,2,6H2	InChI=1S/C5H6N2O2/c6-3-1-4(7)9-5(8)2-3/h1,7H,2,6H2
