20
gdb 82777	2.94397	1.85623	1.73004	1.7553	80.14	-0.2178	0.0817	0.2996	912.074	0.174094	-365.960941	-365.95422	-365.953276	-365.991633	28.597	
C	-0.2617708598	 1.5778306141	 0.0180780978	-0.425375
C	 0.0391104636	 0.0858575309	 0.0036300216	 0.0402
C	 1.0716840162	-0.5441799469	-0.9911933916	-0.084152
C	 2.2853757993	 0.3753129097	-1.156456244	-0.235644
C	 3.0001458934	 0.2327138007	 0.1721248357	-0.022845
C	 2.8599909144	-1.1339507614	 0.6957718763	-0.050685
C	 1.4909749484	-1.5736474428	 0.1501476009	-0.069835
C	 0.851592206	-0.5680455471	 1.1297399663	 0.016276
N	 2.225241393	 0.0243823356	 1.4413950079	-0.181606
H	 0.6292115462	 2.1732096213	 0.2361440063	 0.129924
H	-0.669237915	 1.914610752	-0.9419458253	 0.111928
H	-1.0032899748	 1.8089879341	 0.7905854969	 0.115353
H	-0.8998994324	-0.4767656468	-0.0783734634	 0.071218
H	 0.6792693592	-0.936290723	-1.9304093167	 0.063044
H	 2.9528983917	 0.0296740107	-1.9559503782	 0.098986
H	 1.9991055353	 1.4040870928	-1.394568168	 0.104694
H	 3.9077679005	 0.7986810059	 0.3588172901	 0.091992
H	 3.6408237023	-1.7486898554	 1.129759218	 0.089751
H	 1.2031985539	-2.6183610818	 0.0617241425	 0.06715
H	 0.3751576683	-0.8497109826	 2.0706789867	 0.069625
154.0749	202.3486	264.4324	388.2857	475.8556	541.8814	595.3795	635.5901	665.1613	750.826	772.1554	791.261	833.9331	858.1115	887.3177	923.8304	931.3707	935.8572	971.3727	976.28	1019.4746	1053.3698	1057.8162	1083.6014	1110.0838	1122.1224	1143.1086	1175.9134	1192.0721	1212.5565	1226.6508	1243.9207	1248.6016	1296.0839	1315.8358	1323.9079	1344.4246	1376.0318	1401.5817	1408.0828	1489.4864	1492.3043	1510.9961	3019.6059	3027.6233	3031.2413	3081.8959	3086.1726	3090.828	3095.4916	3110.912	3141.006	3157.3959	3172.7164
CC1C2CC3C4C2C1N34	C[C@H]1[C@H]2C[C@@H]3[C@@H]4[C@H]2[C@H]1N34	
InChI=1S/C8H11N/c1-3-4-2-5-8-6(4)7(3)9(5)8/h3-8H,2H2,1H3	InChI=1S/C8H11N/c1-3-4-2-5-8-6(4)7(3)9(5)8/h3-8H,2H2,1H3/t3-,4+,5+,6+,7-,8+,9?/m0/s1
