21
gdb 31131	1.86226	1.69845	0.95868	1.0864	86.52	-0.1848	0.0575	0.2422	1286.4369	0.182718	-383.316234	-383.305968	-383.305024	-383.35169	37.329	
C	 0.0748726108	 1.6322032864	 0.0803485599	-0.363872
C	-0.0406205222	 0.1029560271	-0.0601198861	-0.305848
C	 0.6806896849	-0.4581148292	-1.2510593583	 0.164435
C	 0.1025370146	-0.8069533417	-2.4573836282	 0.162886
N	-1.223336685	-0.7546004112	-2.9526283082	-0.6149
N	 1.0936979923	-1.282275139	-3.2798520517	-0.260178
C	 2.2978128023	-1.2469346196	-2.6231772498	-0.181715
C	 2.084136189	-0.7364813653	-1.3628362095	 0.194598
C	 3.1263083038	-0.5368097498	-0.303456296	-0.509025
H	 1.1198799079	 1.9421817892	 0.1785836647	 0.121066
H	-0.3334705251	 2.1383917418	-0.8007635835	 0.108412
H	-0.4676293949	 1.9916920261	 0.9615376712	 0.103931
H	 0.3375255227	-0.3658133614	 0.8575606638	 0.098201
H	-1.1023133078	-0.168909385	-0.1214085912	 0.079257
H	-1.7898898153	-1.528375546	-2.6163470846	 0.240669
H	-1.6884669424	 0.1006580742	-2.6716448944	 0.243539
H	 0.9332743188	-1.562413688	-4.2315805132	 0.255207
H	 3.2051655674	-1.5887229994	-3.0957785298	 0.108703
H	 3.2621440054	 0.5211522038	-0.0468830733	 0.120647
H	 2.8686269879	-1.0562911399	 0.6280272382	 0.118663
H	 4.0971147747	-0.9195687431	-0.63291221	 0.115322
60.613	78.8147	122.632	144.1611	183.2018	194.838	265.9257	288.4737	312.3306	397.1036	478.8473	498.7393	565.0844	642.5851	675.5856	705.1614	722.7939	750.6683	797.0952	809.2323	963.8876	984.9885	1005.2991	1060.6107	1080.6936	1094.6523	1139.2356	1187.5152	1224.1423	1257.903	1294.7124	1345.3603	1360.6282	1404.8929	1418.9226	1422.0811	1476.8123	1482.8351	1487.2019	1496.4833	1501.9758	1510.4359	1555.1719	1626.955	1661.7325	3012.9421	3015.6673	3029.7623	3044.7017	3058.9204	3097.4007	3097.6054	3106.1438	3254.8546	3488.0816	3575.2157	3683.7012
CCC1=C(N)NC=C1C	CCc1c(N)[nH]cc1C	
InChI=1S/C7H12N2/c1-3-6-5(2)4-9-7(6)8/h4,9H,3,8H2,1-2H3	InChI=1S/C7H12N2/c1-3-6-5(2)4-9-7(6)8/h4,9H,3,8H2,1-2H3
