19
gdb 7778	3.1431	1.87494	1.24431	1.9314	73.38	-0.2375	0.0347	0.2722	1012.412	0.165971	-365.099992	-365.091818	-365.090874	-365.132357	30.585	
C	 0.0364089636	 1.5173096173	 0.1100156519	-0.403051
C	 0.0118081531	 0.0051832156	-0.0352068914	 0.149024
C	 0.7457241256	-0.5246081322	-1.2623495782	-0.228575
C	 0.757269677	-2.0547096407	-1.2093231501	-0.164695
N	 1.1241680823	-2.5859541701	 0.0978956346	-0.306159
C	 1.0485145405	-1.82763383	 1.1114198284	 0.39534
C	 1.4634841769	-2.2867670412	 2.4789378475	-0.449552
O	 0.609546075	-0.5359798624	 1.1596617036	-0.275408
H	 1.0672656245	 1.8836796235	 0.1355308053	 0.124845
H	-0.4794146393	 1.986863388	-0.7330622374	 0.117547
H	-0.4601172129	 1.8228517844	 1.0350482524	 0.126682
H	-1.0309949027	-0.3447200203	-0.0627413813	 0.083161
H	 0.2632289276	-0.1606682553	-2.1756582374	 0.099593
H	 1.7726141103	-0.1389585828	-1.2551071061	 0.107288
H	-0.2293477899	-2.4532894367	-1.4846461731	 0.106343
H	 1.4596139023	-2.458765244	-1.947212378	 0.10735
H	 1.8471000996	-3.3044987002	 2.4218133349	 0.142015
H	 2.2340009719	-1.6221639788	 2.8829765516	 0.134733
H	 0.6130897549	-2.249442914	 3.1675722028	 0.133519
104.9523	139.221	181.2545	232.0363	260.8798	272.5832	379.7628	449.009	474.7118	523.179	611.8142	659.423	806.381	879.5939	891.0464	904.6816	967.9313	1001.4665	1016.8041	1061.5147	1086.4405	1132.8672	1160.8249	1171.9096	1222.8033	1255.6312	1266.504	1337.2866	1369.8373	1382.6107	1399.5363	1407.3882	1415.9658	1474.6518	1477.1174	1478.3053	1485.8889	1493.8066	1498.7395	1751.3801	2992.3624	3008.9636	3031.7206	3042.2075	3046.2911	3053.5345	3083.0884	3102.5477	3117.2501	3120.8888	3166.4116
CC1CCN=C(C)O1	C[C@H]1CCN=C(C)O1	
InChI=1S/C6H11NO/c1-5-3-4-7-6(2)8-5/h5H,3-4H2,1-2H3	InChI=1S/C6H11NO/c1-5-3-4-7-6(2)8-5/h5H,3-4H2,1-2H3/t5-/m0/s1
