18
gdb 98527	3.62799	1.14386	1.01467	2.0692	74.23	-0.2467	0.0224	0.2691	1225.5735	0.147175	-439.047336	-439.038626	-439.037682	-439.081767	31.712	
C	-0.2904874934	 1.3275902273	 0.1071150839	-0.336348
N	-0.1563760688	-0.1063172385	 0.2618009309	-0.323064
C	 0.8460022189	-0.6757829713	 0.976449835	 0.248304
O	 1.7328301141	-0.0765355577	 1.5599128067	-0.392156
C	 0.7786982978	-2.1788874084	 0.9981538777	 0.365562
C	 1.7711913302	-3.2103488479	 0.3992704612	-0.241257
C	 0.4999778169	-3.9426845048	 0.8868376035	 0.033287
C	 0.5394951994	-3.12930081	 2.2009763422	-0.241231
O	-0.3257855976	-2.8675778422	 0.2739923782	-0.362358
H	 0.5367554787	 1.7923412	 0.6454810693	 0.169802
H	-0.2412985805	 1.6201297397	-0.9475086464	 0.128313
H	-1.2370271587	 1.6868224103	 0.5259942698	 0.128361
H	-0.824224731	-0.7279452815	-0.1676906919	 0.269569
H	 1.8936644774	-3.1557832123	-0.6826964741	 0.111986
H	 2.7063928654	-3.3804787821	 0.9350108758	 0.11327
H	 0.1784339887	-4.9687347417	 0.7131604828	 0.102677
H	 1.3712059003	-3.2926221724	 2.8880963015	 0.113276
H	-0.4204253778	-3.0036273065	 2.702361074	 0.112006
36.6551	96.0934	117.7471	152.7015	240.208	300.032	374.4139	440.265	535.5928	541.6475	593.0921	721.8833	736.2812	799.5528	818.5309	901.4274	934.7597	954.6858	956.2944	984.4475	1053.3402	1083.8569	1089.8844	1124.5035	1151.6191	1159.9322	1175.8915	1203.7086	1225.0562	1237.4944	1242.8653	1342.4356	1441.6471	1466.9885	1496.2578	1499.4668	1510.6794	1577.3192	1781.3055	3029.0561	3076.5241	3081.6853	3082.3473	3130.1022	3150.1787	3158.12	3163.6321	3630.1423
CNC(=O)C12CC(C1)O2	CNC(=O)[C@@]12C[C@@H](C1)O2	
InChI=1S/C6H9NO2/c1-7-5(8)6-2-4(3-6)9-6/h4H,2-3H2,1H3,(H,7,8)	InChI=1S/C6H9NO2/c1-7-5(8)6-2-4(3-6)9-6/h4H,2-3H2,1H3,(H,7,8)/t4-,6+
