20
gdb 107274	3.23159	1.38931	1.25965	2.764	78.53	-0.2237	0.0658	0.2894	1076.9046	0.17328	-403.087183	-403.079592	-403.078647	-403.119225	30.84	
O	-0.009283461	 1.2964229029	 0.4920411512	-0.418361
C	-0.033875072	-0.0050607084	-0.0835581881	-0.196914
C	-1.4442671355	-0.5027614475	-0.0728245128	 0.389467
N	-2.0546503381	-1.0280002699	 1.17437842	-0.377131
C	-1.8384489831	-1.9284041307	 0.0176747737	-0.101982
C	-2.999519583	-1.9768883113	-0.9983702583	-0.046501
C	-3.7926544204	-0.6767697435	-0.6840316273	-0.220728
C	-2.4663863798	 0.0052985529	-1.1183480838	-0.087929
C	-2.3550799626	-1.1554024654	-2.1703483049	-0.221634
H	 0.8743303568	 1.6583090903	 0.3752069038	 0.287009
H	 0.3371845034	 0.0166880609	-1.1209995447	 0.090416
H	 0.6089235221	-0.7021708513	 0.4806355211	 0.076468
H	-1.3107810695	-1.1811426281	 1.853822759	 0.225373
H	-1.1246167395	-2.7422052078	 0.0896781198	 0.084749
H	-3.4943348837	-2.9346331968	-1.1594238166	 0.060132
H	-4.5870433257	-0.5089891854	-1.4139197611	 0.087819
H	-4.1476136636	-0.5171071445	 0.3312545919	 0.125366
H	-2.4136266215	 1.0572851503	-1.3959925432	 0.068033
H	-1.3558340473	-1.448583672	-2.5092251583	 0.082636
H	-3.0219449861	-1.0273626349	-3.0268489716	 0.093711
82.0636	152.2485	248.8457	282.9157	345.5369	420.6648	467.5075	528.4133	577.53	659.9316	703.2089	812.818	842.6003	845.2188	873.0931	886.5748	911.743	930.4328	971.7056	999.8048	1016.4446	1022.5453	1049.9151	1063.4333	1073.5408	1085.3417	1098.9283	1109.0246	1161.4692	1221.1924	1228.0269	1240.829	1247.6985	1248.846	1265.0073	1279.0816	1318.9508	1353.6168	1413.185	1474.4664	1479.09	1507.4163	1513.6112	2950.8664	2985.958	3042.1928	3083.6832	3107.4949	3114.2804	3124.9657	3166.8423	3167.6056	3478.2383	3824.2749
OCC12NC1C1CC2C1	OC[C@]12N[C@H]1[C@H]1C[C@@H]2C1	
InChI=1S/C7H11NO/c9-3-7-5-1-4(2-5)6(7)8-7/h4-6,8-9H,1-3H2	InChI=1S/C7H11NO/c9-3-7-5-1-4(2-5)6(7)8-7/h4-6,8-9H,1-3H2/t4-,5+,6-,7+/m0/s1
