17
gdb 123403	4.99057	0.93632	0.84245	4.0986	74.86	-0.2675	-0.0341	0.2335	1350.5874	0.136226	-417.976279	-417.968329	-417.967385	-418.010185	29.111	
C	-0.0352910629	 1.470900828	-0.3061815842	-0.346517
C	-0.1412018309	-0.0429135599	-0.1970584568	 0.031623
C	-0.1941040363	-0.7025356981	 1.1556426589	-0.246204
C	-1.4248025489	-0.6704407435	 0.283042992	-0.279227
C	 1.3659711467	 1.9685560149	-0.1758881507	 0.418877
C	 2.2477403504	 2.523273161	-1.0535619399	-0.209069
N	 3.4102942031	 2.7662562594	-0.3630605761	-0.10912
N	 3.2994793357	 2.410010364	 0.8354268735	-0.012187
O	 1.971992294	 1.8781801524	 1.0083790939	-0.212339
H	-0.4314938901	 1.812139155	-1.2685782845	 0.125198
H	-0.6492992939	 1.9348706875	 0.4751393021	 0.129512
H	 0.3985127054	-0.578009724	-0.9732588014	 0.094769
H	 0.3233261396	-1.6459541269	 1.2864521322	 0.119973
H	-0.1716981403	-0.0612820373	 2.0299311831	 0.124485
H	-2.2351344873	-0.0089053554	 0.571854161	 0.114394
H	-1.7517818014	-1.5910725615	-0.1867873992	 0.118348
H	 2.139486267	 2.7624214744	-2.0974390739	 0.137484
39.1788	72.0235	113.6404	278.8202	296.9862	336.7374	407.5769	629.5621	665.671	702.2174	759.269	772.5949	807.0994	821.7379	845.9076	902.356	954.6736	987.9425	995.8321	1050.6241	1062.1123	1081.7878	1112.5383	1135.0357	1144.0537	1196.5718	1225.9168	1240.359	1256.9764	1323.239	1384.8843	1407.1952	1456.7635	1468.9192	1476.6487	1507.7149	1604.3032	3035.4741	3080.2483	3133.0497	3140.7688	3148.7159	3212.9864	3228.7088	3290.8365
C(C1CC1)C1=CN=NO1	C(C1CC1)c1cnno1	
InChI=1S/C6H8N2O/c1-2-5(1)3-6-4-7-8-9-6/h4-5H,1-3H2	InChI=1S/C6H8N2O/c1-2-5(1)3-6-4-7-8-9-6/h4-5H,1-3H2
