21
gdb 64413	2.38649	1.66635	1.32286	1.0563	77.41	-0.2509	0.0798	0.3307	1072.6712	0.182509	-424.219285	-424.210641	-424.209697	-424.251929	33.933	
C	-0.0065250069	 1.5280280469	 0.0301126935	-0.430569
C	-0.006614355	-0.007897672	 0.0022991325	 0.224165
C	-1.4423423607	-0.558765498	 0.0187979796	-0.422402
C	 0.7335049957	-0.5018248098	-1.2589197752	-0.113652
O	 0.9083020235	-1.9089674626	-1.2466884604	-0.255259
C	 1.8383861892	-2.3401215561	-0.2697691143	-0.105323
C	 1.6396999763	-1.6925658336	 1.088877852	 0.013319
O	 2.1514495389	-0.3586025661	 1.2376305731	-0.270879
C	 0.7332007009	-0.542375831	 1.2203854273	 0.050901
H	 1.0143880268	 1.9177936839	 0.0844137365	 0.131554
H	-0.4828897033	 1.9351647323	-0.868664682	 0.112422
H	-0.5594867612	 1.9047978116	 0.8973659707	 0.113202
H	-2.029209789	-0.1268405333	-0.7988198534	 0.113466
H	-1.4409133332	-1.6452771296	-0.101597588	 0.129289
H	-1.9518297732	-0.3141286044	 0.9572640809	 0.109188
H	 0.1427106919	-0.2750197598	-2.1518682395	 0.103427
H	 1.7048470315	 0.0069807607	-1.3456053882	 0.10054
H	 1.7075162262	-3.423608289	-0.1846763453	 0.111208
H	 2.8710511374	-2.1468591834	-0.604656255	 0.104526
H	 1.8227915898	-2.3318840542	 1.9524602283	 0.09602
H	 0.2472919143	-0.3623835927	 2.1814610171	 0.084856
110.9885	191.2355	215.3574	236.7535	255.0655	307.6258	325.7259	377.9409	389.1631	467.7494	503.7052	536.5429	692.7286	795.5575	805.4509	848.3797	911.8126	931.3283	942.4247	952.215	994.3303	1015.338	1032.0471	1038.8001	1099.3054	1133.4421	1168.8792	1206.0211	1225.6978	1258.9684	1284.8492	1305.4668	1330.895	1362.7219	1389.2113	1395.1223	1406.5816	1428.4559	1465.2369	1480.5795	1486.2262	1489.2991	1495.6086	1504.1884	1512.8062	2971.5258	2999.2275	3027.6375	3033.1002	3075.6197	3080.4902	3086.2288	3091.9324	3097.208	3109.558	3113.6426	3118.3376
CC1(C)COCC2OC12	CC1(C)COC[C@H]2O[C@@H]12	
InChI=1S/C7H12O2/c1-7(2)4-8-3-5-6(7)9-5/h5-6H,3-4H2,1-2H3	InChI=1S/C7H12O2/c1-7(2)4-8-3-5-6(7)9-5/h5-6H,3-4H2,1-2H3/t5-,6-/m1/s1
