12
gdb 131913	4.40104	1.19554	0.94081	7.1841	68.22	-0.238	-0.0867	0.1513	1126.5581	0.077556	-505.876705	-505.869293	-505.868349	-505.909081	26.713	
N	 0.1790665093	 1.2968021411	 0.1851888234	-0.595403
C	-0.0227119705	-0.0475042517	 0.0643054307	 0.382279
C	-1.1280627705	-0.8653824918	 0.0120593009	-0.174949
N	-0.7039523314	-2.1728079929	-0.0291505504	-0.262397
C	 0.5821844753	-2.0961281295	-0.0023163451	 0.498976
O	 1.081196476	-0.829007117	 0.0549309466	-0.165141
N	 1.5380162761	-3.1662730605	-0.0347937792	 0.335644
O	 1.0912123758	-4.3030584882	-0.078642264	-0.345837
O	 2.7229750122	-2.8457981087	-0.0164453932	-0.367362
H	 1.0787934846	 1.6314107611	-0.1282691826	 0.281085
H	-0.5932567504	 1.8797717499	-0.0982968223	 0.277797
H	-2.1710850466	-0.5957697618	 0.0028313053	 0.135307
72.615	160.5089	197.4797	258.191	329.4784	382.6257	441.5331	526.5267	562.212	647.6687	705.1718	726.6649	765.6688	794.6036	841.1972	985.1073	1021.7695	1074.248	1153.6257	1257.1273	1296.872	1388.5118	1441.2311	1562.5458	1608.5258	1633.0181	1666.6619	3274.4731	3579.3918	3687.9097
NC1=CN=C(O1)N(=O)=O	Nc1cnc(o1)N(=O)=O	
InChI=1S/C3H3N3O3/c4-2-1-5-3(9-2)6(7)8/h1H,4H2	InChI=1S/C3H3N3O3/c4-2-1-5-3(9-2)6(7)8/h1H,4H2
