19
gdb 99372	6.54897	0.52912	0.50835	3.7154	74.41	-0.2598	-0.0255	0.2343	2121.9959	0.155528	-460.209663	-460.19899	-460.198046	-460.248311	35.326	
C	 0.0749798115	 1.418070012	-0.229615228	-0.376332
C	 0.1191367977	-0.0819622015	 0.050804106	-0.277636
C	 0.7042317536	-0.4305272723	 1.4104937285	 0.373623
O	 1.0291204631	 0.4159008629	 2.2138513935	-0.298579
C	 0.8675420778	-1.9136689179	 1.7213994716	-0.306746
C	 1.3285401668	-2.1530114931	 3.1536764084	-0.085156
O	 1.4362945528	-3.5620763927	 3.3912719652	-0.178206
C	 2.6446009776	-4.0659480591	 3.7039893081	 0.168345
O	 2.8281458275	-5.2278934138	 3.9063384238	-0.273176
H	 1.0793581976	 1.8489964364	-0.2127179996	 0.13177
H	-0.3685003853	 1.6133965506	-1.2095901253	 0.114621
H	-0.5144392737	 1.9386268176	 0.5288991815	 0.135504
H	-0.8866542616	-0.5232513996	 0.0042501224	 0.12776
H	 0.6959301864	-0.6173255928	-0.7158304127	 0.123416
H	-0.0769850524	-2.4376884854	 1.5323089112	 0.139153
H	 1.5889240544	-2.3432017309	 1.0134737512	 0.134739
H	 2.2857570161	-1.6551292513	 3.3408675428	 0.129463
H	 0.6039134162	-1.7530572071	 3.8669435211	 0.138693
H	 3.432737194	-3.288343402	 3.7518789805	 0.078743
24.4986	36.6114	66.4801	71.0791	119.541	176.302	197.6035	270.3064	296.1557	355.5333	447.8886	472.4405	620.8681	686.887	714.1727	812.2742	842.9142	980.0714	987.1554	1012.5582	1045.1358	1049.0705	1097.1502	1115.1237	1133.382	1166.3516	1253.3645	1289.0736	1318.1123	1326.5942	1376.5994	1403.1584	1415.1694	1434.8607	1447.4671	1463.168	1493.2161	1498.5918	1501.8923	1800.4861	1867.6971	2941.2921	3016.2931	3033.3638	3043.6848	3053.8363	3054.5827	3070.7032	3112.5847	3125.0738	3130.4524
CCC(=O)CCOC=O	CCC(=O)CCOC=O	
InChI=1S/C6H10O3/c1-2-6(8)3-4-9-5-7/h5H,2-4H2,1H3	InChI=1S/C6H10O3/c1-2-6(8)3-4-9-5-7/h5H,2-4H2,1H3
