21
gdb 96084	2.59429	1.4948	1.11054	1.0365	78.43	-0.2408	0.082	0.3228	1158.3198	0.18283	-424.222259	-424.213601	-424.212657	-424.255049	34.374	
C	-0.0847721747	 1.5104425805	-0.0000808756	-0.397566
C	 0.0545052247	-0.0056653192	 0.0222595637	 0.102143
O	 0.7209648789	-0.3891300466	-1.1767407201	-0.25823
C	 0.8497623716	-1.7963998088	-1.2798335048	-0.071794
C	 1.8618214103	-2.3566410849	-0.2698758251	-0.29992
C	 1.70569243	-1.7075143903	 1.1056765998	 0.39102
O	 1.6775129675	-2.5943614142	 2.1951684749	-0.472684
C	 2.3015222186	-0.3395922226	 1.3400540127	-0.347524
C	 0.7985749805	-0.5179641002	 1.2445234744	-0.06432
H	 0.900247036	 1.9855573031	 0.0118130063	 0.123947
H	-0.6139604233	 1.8290957663	-0.9022229328	 0.120121
H	-0.6451666234	 1.8537715635	 0.8747874835	 0.113343
H	-0.9530081902	-0.4600414242	 0.0193980075	 0.064176
H	-0.1337849939	-2.2688543167	-1.1228830105	 0.090419
H	 1.1631368862	-2.0057316248	-2.3066400612	 0.103603
H	 1.6973647251	-3.4332505997	-0.1588016042	 0.106175
H	 2.8821814138	-2.2160359613	-0.6456982539	 0.100542
H	 2.569339346	-2.9399718728	 2.3149589841	 0.278422
H	 2.7170132959	-0.139315301	 2.3213170482	 0.10655
H	 2.807711708	 0.1395268767	 0.5079206533	 0.117321
H	 0.2490861924	-0.4604144128	 2.1789522498	 0.094255
95.622	165.761	225.3602	254.4212	295.5332	304.6045	347.8912	382.4862	415.6281	451.2714	489.4687	586.5027	646.6812	723.8903	772.6288	857.6524	875.7314	916.5457	927.926	955.9493	977.8306	1014.0871	1036.0154	1061.5253	1091.672	1106.6747	1118.4835	1146.6666	1172.9951	1198.9977	1258.8161	1279.3879	1295.5818	1336.3438	1356.3269	1367.8582	1380.2929	1406.1335	1408.2834	1418.7486	1470.833	1483.5843	1489.3884	1495.6127	1502.4623	2933.9138	2970.9592	3030.0194	3043.5511	3080.2853	3087.8191	3118.1944	3122.985	3126.9636	3162.2985	3221.4106	3788.595
CC1OCCC2(O)CC12	C[C@H]1OCC[C@@]2(O)C[C@@H]12	
InChI=1S/C7H12O2/c1-5-6-4-7(6,8)2-3-9-5/h5-6,8H,2-4H2,1H3	InChI=1S/C7H12O2/c1-5-6-4-7(6,8)2-3-9-5/h5-6,8H,2-4H2,1H3/t5-,6+,7-/m1/s1
