19
gdb 47605	2.33675	1.95296	1.15175	4.3993	75.96	-0.228	0.0646	0.2926	1064.4782	0.163211	-419.246993	-419.23927	-419.238326	-419.279363	29.846	
O	 0.0995425651	 0.0471502846	 0.2189645382	-0.416586
C	 0.0431665411	 1.2339501961	-0.0574455126	 0.412267
N	-1.1451489324	 1.9280695241	-0.1603408945	-0.347084
C	-1.2590048388	 3.3815874391	-0.1340087754	-0.152837
C	-0.0304569672	 3.9988708242	 0.5499497558	-0.237234
C	 1.2095172418	 3.4716179466	-0.1586141198	 0.064211
C	 2.5548131897	 3.3157159544	 0.6052289549	-0.275836
C	 2.4501599732	 1.7808587897	 0.3597000473	-0.16153
N	 1.1603384634	 2.0002939317	-0.3155730597	-0.117633
H	-1.9517084076	 1.3681971114	 0.0606030709	 0.249563
H	-1.354613224	 3.7883344231	-1.1519015097	 0.109823
H	-2.1732522339	 3.6525398297	 0.4031849162	 0.112028
H	-0.0782963308	 5.091319495	 0.5048513289	 0.105877
H	-0.0163856931	 3.7014008036	 1.6052973129	 0.107829
H	 1.3194603101	 3.9730142954	-1.1292139406	 0.08169
H	 3.4116523837	 3.8118808061	 0.1475834827	 0.111628
H	 2.498648472	 3.6023390964	 1.657582541	 0.111538
H	 3.216679412	 1.3589101597	-0.2974347581	 0.114394
H	 2.3663645456	 1.1508801391	 1.2494250817	 0.127893
86.2697	129.3782	213.9382	238.204	329.2737	423.9106	446.3431	473.2241	519.2266	649.3164	683.616	748.3452	767.2603	808.3091	886.7893	925.059	946.7544	976.7232	997.4969	1044.5089	1094.2289	1137.8473	1144.3831	1175.0934	1204.0736	1222.3216	1230.8554	1255.9946	1271.9837	1291.9418	1323.4166	1330.8423	1360.7667	1398.965	1430.0908	1461.0983	1482.442	1487.6739	1519.1201	1528.5075	1784.5407	2989.3629	3007.8009	3036.4102	3049.5094	3071.6926	3077.0534	3092.0801	3096.079	3134.1844	3656.9896
O=C1NCCC2CCN12	O=C1NCC[C@H]2CCN12	
InChI=1S/C6H10N2O/c9-6-7-3-1-5-2-4-8(5)6/h5H,1-4H2,(H,7,9)	InChI=1S/C6H10N2O/c9-6-7-3-1-5-2-4-8(5)6/h5H,1-4H2,(H,7,9)/t5-/m0/s1
