17
gdb 46250	3.14454	1.46369	1.22653	3.972	73.59	-0.2339	0.0237	0.2576	1037.8157	0.137227	-417.947976	-417.94058	-417.939636	-417.980035	28.685	
N	 0.0354082139	 1.2173189354	-0.3321444358	-0.535716
C	 0.0137604359	-0.0013465334	-0.0431692171	 0.384837
O	 1.0270950681	-0.8284049967	 0.4170452161	-0.263928
C	 0.1163722367	-1.9630194883	 0.5151830327	-0.148502
C	-1.0348572091	-1.0950916547	-0.030269057	 0.232311
C	-2.4041315295	-1.0139917117	 0.7264592231	-0.307458
C	-3.0927799706	-1.5200499867	-0.5488105401	-0.040488
N	-2.7984597829	-0.5066310473	-1.5844391107	-0.309733
C	-1.7958837196	-1.5526765028	-1.2798542073	-0.138784
H	 0.9690515895	 1.6107922993	-0.1957285164	 0.22558
H	 0.4461783854	-2.7899418843	-0.1208672678	 0.116712
H	 0.016283702	-2.2990554828	 1.5513019504	 0.117324
H	-2.4449905011	-1.7156725788	 1.5629842118	 0.10683
H	-2.7076372404	-0.0171625614	 1.0514745627	 0.132932
H	-3.9553133223	-2.1690377546	-0.6271548363	 0.098853
H	-3.2715451978	-0.7958514078	-2.4407149097	 0.232033
H	-1.4274538281	-2.2188540035	-2.0509513384	 0.097196
108.7251	121.2009	170.8335	313.9284	329.5144	434.7549	447.7677	588.0744	674.2463	748.2311	781.4553	817.582	835.299	865.4631	884.5005	907.7926	937.6277	963.0976	981.1893	994.7798	1007.5178	1071.8252	1094.8036	1126.7566	1140.8546	1160.1406	1183.5597	1217.2204	1231.6106	1251.7941	1292.0148	1324.4455	1370.551	1382.1126	1466.9421	1514.5596	1821.6851	3046.1099	3068.9394	3102.4317	3133.1399	3181.9233	3202.304	3465.5837	3470.8742
N=C1OCC11CC2NC12	[NH][C]1OC[C@]21C[C@H]1N[C@@H]21	
InChI=1S/C6H8N2O/c7-5-6(2-9-5)1-3-4(6)8-3/h3-4,7-8H,1-2H2	InChI=1S/C6H8N2O/c7-5-6(2-9-5)1-3-4(6)8-3/h3-4,7-8H,1-2H2/t3-,4-,6-/m1/s1
