23
gdb 115288	3.19929	1.08207	1.02223	1.5477	82.3	-0.2414	0.0817	0.3232	1329.2129	0.204132	-425.4336	-425.423531	-425.422587	-425.468675	37.537	
C	 0.2129365069	 0.7665036506	 0.6397262961	-0.240904
O	 0.0422852759	-0.4597883688	-0.0322327015	-0.241143
C	 0.5375796148	-0.4599089935	-1.3644825571	 0.091691
C	 2.079753516	-0.61295922	-1.4360048394	-0.092112
O	 2.3640961963	-1.909265012	-1.9410178621	-0.297332
C	 1.186129735	-2.7360854606	-1.8929717752	 0.386166
C	 1.3010731276	-3.7314779421	-3.0441514009	-0.426987
C	 1.1093741812	-3.4620283954	-0.5408140303	-0.423719
C	 0.0384189597	-1.7220698171	-2.0758439114	-0.268335
H	 1.2723823978	 1.0314474367	 0.7756224497	 0.107134
H	-0.2800875515	 1.5920391854	 0.101934514	 0.10483
H	-0.2468163941	 0.6621755794	 1.6254966557	 0.129148
H	 0.2004559877	 0.4582452304	-1.8666159643	 0.066928
H	 2.5417174567	 0.1205387665	-2.1074486024	 0.098745
H	 2.5112884363	-0.4769254871	-0.4341471359	 0.097651
H	 2.1753121457	-4.375005425	-2.9076662667	 0.120487
H	 0.4125039466	-4.368526244	-3.0956518964	 0.111452
H	 1.4106188827	-3.2041001352	-3.9959810985	 0.113308
H	 0.9904234109	-2.7495076225	 0.2784184982	 0.132481
H	 0.2565424393	-4.1489058012	-0.5168874187	 0.106367
H	 2.023138608	-4.0412900403	-0.3784164259	 0.113654
H	-0.914409409	-2.052488866	-1.6579288398	 0.112703
H	-0.1007404106	-1.5138357782	-3.1411202473	 0.097789
44.7928	105.5843	128.8207	188.4287	213.6625	250.6102	269.1802	315.7476	341.2704	380.6264	392.5453	449.8756	471.7422	626.5335	733.1453	786.5082	840.7792	851.0255	898.8541	928.0303	956.4785	979.1265	1008.5203	1054.3218	1071.8136	1094.8332	1132.3214	1166.8	1183.0953	1186.9334	1223.8011	1243.264	1249.4677	1279.1573	1304.8945	1342.7866	1368.8375	1397.7761	1407.5013	1415.373	1470.8389	1477.9737	1480.973	1487.1872	1489.0772	1500.3918	1506.795	1509.2644	1516.1731	2971.7708	2994.3725	3000.1535	3020.6972	3036.0677	3040.9868	3049.1248	3061.1065	3104.7902	3113.533	3114.2685	3115.6514	3123.6476	3133.9062
COC1COC(C)(C)C1	CO[C@H]1COC(C)(C)C1	
InChI=1S/C7H14O2/c1-7(2)4-6(8-3)5-9-7/h6H,4-5H2,1-3H3	InChI=1S/C7H14O2/c1-7(2)4-6(8-3)5-9-7/h6H,4-5H2,1-3H3/t6-/m1/s1
