18
gdb 117907	3.58441	0.83439	0.73733	4.2239	75.16	-0.2763	-0.0852	0.191	1554.033	0.143718	-439.096783	-439.086267	-439.085322	-439.133703	35.578	
C	-0.0506903806	 1.5048735758	-0.0741269509	-0.384116
C	-0.0034275316	-0.0043802335	 0.0860003645	-0.045908
O	-1.3279180127	-0.5014418401	-0.0489492827	-0.240076
C	-1.4437504078	-1.8936995385	-0.0170056959	 0.024005
C	-1.4394327099	-2.4722027071	 1.4113315903	-0.428672
C	-2.7444599316	-2.2576847631	-0.7288456515	 0.292399
O	-3.5675537978	-1.4812277541	-1.1278854118	-0.247253
C	-2.9406819651	-3.717711678	-0.9094418618	 0.219895
N	-3.0834956957	-4.8550954448	-1.0619282587	-0.305645
H	 0.9547845555	 1.9258508892	 0.0176340811	 0.119327
H	-0.4556702754	 1.773296102	-1.0533722156	 0.135759
H	-0.6868231294	 1.9517476217	 0.6946382156	 0.133504
H	 0.6440337986	-0.4580595076	-0.6819624961	 0.095185
H	 0.4157973936	-0.272454431	 1.0676142615	 0.096068
H	-0.6331075553	-2.3744771781	-0.595473841	 0.101683
H	-0.4805977622	-2.2668811635	 1.8925709519	 0.137628
H	-2.2339725608	-2.0082127199	 2.0019487772	 0.145669
H	-1.5856514816	-3.5556157096	 1.4021104939	 0.150549
41.9054	52.9427	80.3616	121.6292	183.2562	198.2094	234.8691	250.8933	300.6906	335.0666	396.455	406.2401	519.7788	608.0751	714.4746	792.7001	823.0244	857.7072	953.6137	1031.8783	1051.1948	1083.0792	1117.9336	1151.2626	1185.1108	1192.7993	1299.0551	1313.0198	1360.4886	1399.3131	1404.7155	1438.9992	1482.8843	1490.4048	1495.7178	1499.8368	1528.0424	1816.8161	2335.542	2939.9038	2971.1388	3005.2276	3049.1398	3051.6312	3124.2052	3129.0286	3130.7762	3133.8916
CCOC(C)C(=O)C#N	CCO[C@@H](C)C(=O)C#N	
InChI=1S/C6H9NO2/c1-3-9-5(2)6(8)4-7/h5H,3H2,1-2H3	InChI=1S/C6H9NO2/c1-3-9-5(2)6(8)4-7/h5H,3H2,1-2H3/t5-/m0/s1
