13
gdb 25044	5.57918	1.04198	0.878	1.7665	78.4	-0.2414	-0.0774	0.1639	1205.4241	0.091048	-415.654017	-415.646864	-415.64592	-415.685921	26.693	
N	-0.025795431	 1.3363572177	 0.0101465912	-0.518214
C	-0.0370878833	 0.0720355555	 0.0035280396	 0.388756
O	 1.1816927273	-0.6446041332	-0.0076760373	-0.229016
C	 1.2184791892	-1.9782258527	-0.0149636891	 0.0374
C	 0.1067249542	-2.7535989354	-0.0123104304	 0.03116
C	-1.1809927162	-2.0868096613	-0.0009491948	-0.133321
C	-1.2373472538	-0.742479956	 0.0065119843	-0.144018
C	 0.2204856591	-4.1715024384	-0.0205125939	 0.207954
N	 0.2952272451	-5.3273200087	-0.0270893423	-0.325416
H	 0.9257340253	 1.7029423399	 0.0063008539	 0.23358
H	 2.2302664267	-2.3652419531	-0.0231652682	 0.166747
H	-2.0818063066	-2.6888403706	 0.0013402744	 0.141429
H	-2.1727825058	-0.1988204537	 0.0150776226	 0.142958
82.6767	152.6959	207.4091	356.7801	405.7289	435.7653	465.3777	551.7836	561.0941	640.7631	711.5445	728.4021	769.2919	834.9891	867.8865	925.3979	956.3925	1008.6663	1050.2477	1176.664	1203.5439	1236.7616	1300.0203	1365.9863	1437.5273	1594.9512	1677.9951	1753.0714	2343.6322	3208.0387	3219.5678	3232.6309	3501.9744
N=C1OC=C(C=C1)C#N	[NH]C1=CCC(=CO1)C#N	
InChI=1S/C6H4N2O/c7-3-5-1-2-6(8)9-4-5/h1-2,4,8H	InChI=1S/C6H5N2O/c7-3-5-1-2-6(8)9-4-5/h2,4,8H,1H2
