21
gdb 94188	2.58955	1.22772	1.18645	0.7874	78.	-0.2544	0.0754	0.3298	1191.0756	0.181013	-424.192587	-424.183137	-424.182193	-424.2266	35.62	
C	 0.0156115959	 1.672875489	 0.2219541228	-0.442739
C	-0.037096584	 0.157272373	 0.0129313107	 0.281345
C	 0.8971986415	-0.3374105902	-1.1352271647	-0.276382
C	 1.9868490131	-0.6667657175	-0.0790193743	-0.277433
C	 0.8779964036	-0.6267182648	 1.0036335852	 0.108003
O	 1.1181322214	 0.0336875409	 2.2246629908	-0.434516
C	-1.4741364932	-0.306821702	-0.0158368169	 0.012908
C	-2.2296525011	-0.5109802672	-1.2573075931	-0.186546
O	-1.7333146032	-1.6251959531	-0.5089724258	-0.244615
H	 1.0454755366	 2.0356672561	 0.2672745607	 0.122071
H	-0.4919685505	 2.1868601264	-0.6016109789	 0.108773
H	-0.4702305871	 1.9585967046	 1.15963708	 0.127085
H	 0.5006298634	-1.238992058	-1.6069401561	 0.119442
H	 1.1534866588	 0.3942522316	-1.9047471282	 0.095155
H	 2.5471682225	-1.5970718773	-0.1984699527	 0.094059
H	 2.6901502878	 0.1584111428	 0.0600376087	 0.106639
H	 0.4642083166	-1.6314164934	 1.1679659162	 0.08107
H	 1.6471302757	-0.5435052869	 2.7837938907	 0.284764
H	-2.0438657979	-0.0601111695	 0.883204571	 0.093474
H	-3.3126189333	-0.3969128379	-1.2622044529	 0.114773
H	-1.7410820666	-0.3427469967	-2.2159940829	 0.112668
82.4472	120.0332	169.3639	202.8788	221.8858	229.8624	255.4044	308.9417	343.3586	452.7177	499.9848	563.8868	601.1397	713.7748	801.58	848.6016	881.0207	897.0317	911.765	951.3332	964.5036	968.8133	1023.5999	1093.366	1113.5931	1121.797	1153.7251	1161.8659	1171.949	1174.1214	1211.5227	1239.9367	1253.299	1267.3663	1297.8192	1305.5519	1337.7488	1404.1651	1427.0117	1429.943	1476.7612	1490.6722	1495.4989	1498.6517	1526.6893	3004.3359	3035.6566	3060.3725	3067.2566	3080.9312	3086.1483	3103.9255	3110.6165	3117.9019	3129.2277	3170.0977	3822.2135
CC1(CCC1O)C1CO1	C[C@]1(CC[C@H]1O)[C@H]1CO1	
InChI=1S/C7H12O2/c1-7(6-4-9-6)3-2-5(7)8/h5-6,8H,2-4H2,1H3	InChI=1S/C7H12O2/c1-7(6-4-9-6)3-2-5(7)8/h5-6,8H,2-4H2,1H3/t5-,6-,7-/m1/s1
