19
gdb 126317	2.99368	1.17594	0.90359	2.0802	80.27	-0.2067	0.0313	0.238	1332.9184	0.159531	-419.240003	-419.230455	-419.229511	-419.275554	34.057	
C	-0.1343878963	 1.5244247846	 0.1477814576	-0.369904
C	 0.0232797274	-0.0042544011	 0.0762283755	-0.302496
C	 0.7485023568	-0.4695376902	-1.1506134794	 0.099761
C	 2.0020004521	-1.040788048	-1.2678282005	-0.120725
N	 2.2360753187	-1.2819336349	-2.5798516841	 0.046361
C	 3.4016789407	-1.8729615119	-3.1899961621	-0.313263
N	 1.1910631572	-0.8958989502	-3.3574397962	-0.386104
C	 0.3097599455	-0.4126745066	-2.494604364	 0.371176
O	-0.8857699974	 0.0767281866	-2.8965915713	-0.43299
H	 0.842563166	 2.0178368742	 0.1681356761	 0.111894
H	-0.67952779	 1.8952692138	-0.7249258227	 0.134424
H	-0.6859445938	 1.8201599812	 1.0461718047	 0.105443
H	 0.5542597236	-0.3623709493	 0.965697953	 0.095489
H	-0.9727206731	-0.4636106418	 0.1089552161	 0.11073
H	 2.7320652167	-1.2927599815	-0.5132339334	 0.127041
H	 4.1246996493	-2.1109089167	-2.407606897	 0.135388
H	 3.1349005846	-2.7911496667	-3.7225065786	 0.143227
H	 3.8590212363	-1.1776705079	-3.900699206	 0.143465
H	-0.9187008341	-0.0125466736	-3.8572159977	 0.301083
36.3999	48.3053	130.0386	175.4602	195.8918	280.7378	293.694	312.6597	384.8862	438.0789	515.1244	602.1173	626.1341	657.8948	741.8723	779.1223	800.4662	819.5675	969.5853	1017.2755	1071.2718	1078.3256	1089.9149	1152.1167	1191.8856	1208.1566	1257.8696	1311.6858	1341.6899	1359.5538	1406.7194	1441.9574	1460.2013	1470.3029	1478.7413	1484.0702	1496.9128	1509.548	1530.1745	1562.6283	1638.2141	3023.085	3035.4073	3038.9671	3059.641	3098.7523	3104.2616	3117.1233	3139.5589	3245.5877	3796.1582
CCC1=CN(C)N=C1O	CCc1cn(C)nc1O	
InChI=1S/C6H10N2O/c1-3-5-4-8(2)7-6(5)9/h4H,3H2,1-2H3,(H,7,9)	InChI=1S/C6H10N2O/c1-3-5-4-8(2)7-6(5)9/h4H,3H2,1-2H3,(H,7,9)
