15
gdb 125475	5.33411	1.30035	1.05234	5.1602	75.2	-0.213	0.001	0.214	1083.2755	0.116057	-413.024045	-413.016746	-413.015802	-413.05575	27.762	
C	-0.0205753396	 1.462946796	-0.0001246189	-0.503261
C	-0.0019732071	-0.0282317315	-0.0316908292	 0.329996
N	-0.0498703208	-0.758839159	-1.118688988	-0.370866
C	-0.0068169832	-2.058339626	-0.6493161254	 0.369648
N	-0.0190365677	-3.2743604181	-1.1928960675	-0.342917
N	 0.0500810449	-4.0724954061	-0.1033606545	-0.182023
C	 0.1057449244	-3.4251204582	 1.1072751143	-0.20389
C	 0.0691309012	-2.0941524716	 0.764648174	 0.27647
N	 0.0711050167	-0.768471727	 1.1465149614	-0.472399
H	 0.88611761	 1.8663142059	 0.4654561351	 0.13501
H	-0.0835798043	 1.8348582383	-1.0227121623	 0.163834
H	-0.8793836765	 1.8422226183	 0.5656646528	 0.134837
H	 0.0563824394	-5.068052329	-0.2435519885	 0.27448
H	 0.1627742436	-3.9678413425	 2.0356410683	 0.129904
H	 0.1155394091	-0.3875514896	 2.0748681684	 0.261177
92.243	154.3962	290.7908	292.2627	345.6465	372.8657	462.5868	545.0899	583.1957	632.0355	669.9846	699.6876	763.9406	787.2462	848.7932	960.1649	980.0871	1020.5974	1049.2762	1059.8819	1179.0965	1206.952	1237.1538	1322.8971	1394.421	1409.9967	1442.8041	1469.3234	1481.2077	1485.41	1513.9201	1596.8578	1681.7833	3032.4046	3082.7654	3157.338	3272.9658	3682.3001	3682.8165
CC1=NC2=NNC=C2N1	Cc1nc2n[nH]cc2[nH]1	
InChI=1S/C5H6N4/c1-3-7-4-2-6-9-5(4)8-3/h2H,1H3,(H2,6,7,8,9)	InChI=1S/C5H6N4/c1-3-7-4-2-6-9-5(4)8-3/h2H,1H3,(H2,6,7,8,9)
