16
gdb 47090	2.6936	1.87249	1.32237	2.6793	64.84	-0.2608	0.0049	0.2657	947.0377	0.126816	-475.031823	-475.024706	-475.023762	-475.06425	26.502	
N	-0.2019266579	 1.1948980951	 0.2156126342	-0.529669
C	-0.0984409261	-0.0606763936	 0.2315277872	 0.38708
O	 0.9856054858	-0.7572486447	 0.6815868018	-0.237633
C	 0.8501948262	-2.1626094225	 0.4114141233	-0.119126
C	-0.633022971	-2.420207454	 0.1303070919	 0.065242
O	-1.3689038372	-2.798213084	 1.2877703863	-0.265872
C	-2.1572593303	-1.6867999786	 1.6825859852	 0.011545
O	-2.3878455874	-0.9227868929	 0.5251324972	-0.231704
C	-1.1947415059	-1.025030836	-0.2273537432	-0.015204
H	 0.6436312293	 1.634103941	 0.5849812744	 0.22641
H	 1.4709627391	-2.418151714	-0.455767062	 0.11657
H	 1.2008846964	-2.7183059202	 1.2831158714	 0.136822
H	-0.7781113102	-3.1842613536	-0.6372382628	 0.101308
H	-3.1159636569	-2.0398239429	 2.0715840647	 0.127329
H	-1.627071257	-1.0948233254	 2.4474737357	 0.102932
H	-1.441280507	-0.8692614136	-1.2778759052	 0.12397
49.6501	126.5577	178.1672	312.2151	373.8658	443.9827	563.1581	642.4516	721.5599	748.803	794.7525	852.611	891.2141	905.2338	932.3352	976.2359	981.2775	1034.2641	1051.7832	1100.5633	1121.8707	1132.2916	1184.1414	1222.3683	1237.3152	1250.6291	1272.8861	1300.3237	1343.3269	1367.916	1404.0245	1428.3644	1506.1407	1549.4779	1779.0713	2963.9828	3035.5199	3082.3354	3095.6083	3118.7136	3119.848	3468.8528
N=C1OCC2OCOC12	[NH][C]1OC[C@H]2OCO[C@@H]12	
InChI=1S/C5H7NO3/c6-5-4-3(1-7-5)8-2-9-4/h3-4,6H,1-2H2	InChI=1S/C5H7NO3/c6-5-4-3(1-7-5)8-2-9-4/h3-4,6H,1-2H2/t3-,4-/m1/s1
