23
gdb 119836	5.1533	0.724	0.65588	1.1058	89.71	-0.224	0.0352	0.2593	1795.6057	0.204975	-388.300599	-388.290575	-388.289631	-388.336133	36.493	
C	 0.0180791714	 1.4329771861	-0.0419792518	-0.222126
O	-0.0092207372	 0.0284536867	 0.0149357835	-0.226584
C	 0.6369544127	-0.5760867765	-1.0799808386	-0.159354
C	 0.5967403211	-2.0638832685	-0.9614508203	 0.292429
C	 0.0515172959	-2.7838697654	 0.0193651358	-0.155962
C	 0.1662779912	-4.2667440757	-0.2359315191	-0.263822
C	 1.2065368277	-4.3545996738	-1.385882563	 0.051005
C	 0.9953275724	-5.5180228049	-2.3528977261	-0.403425
C	 1.169610431	-2.9506442916	-2.0469180143	-0.317827
H	 1.0485340422	 1.8236868934	-0.0393438515	 0.102638
H	-0.4894706202	 1.8171683302	-0.9415790899	 0.102544
H	-0.5027076563	 1.806832268	 0.8428944275	 0.126766
H	 0.1635397397	-0.2623292126	-2.0308193622	 0.08934
H	 1.6879188165	-0.2333786584	-1.145293993	 0.089569
H	-0.4523478194	-2.3608521455	 0.8793335088	 0.0995
H	 0.4760539286	-4.8365660339	 0.6481443512	 0.097187
H	-0.8046673182	-4.6856874437	-0.5431088048	 0.097765
H	 2.1935746206	-4.4648099665	-0.9196215896	 0.075255
H	 0.0185096844	-5.4464347651	-2.8455893134	 0.111903
H	 1.7618243867	-5.5331742511	-3.135509855	 0.109986
H	 1.034656355	-6.4809246924	-1.8320863903	 0.11159
H	 0.5172072132	-2.9430783031	-2.9342881012	 0.097459
H	 2.1588379111	-2.6268170557	-2.394523703	 0.094163
54.8881	77.749	116.2266	126.8479	223.8306	236.1542	248.9858	288.2481	340.6163	393.3076	433.0295	450.503	592.7961	710.1346	822.0779	836.1174	895.6064	905.8394	938.1465	947.4078	992.9956	1009.5432	1028.633	1071.4156	1110.0578	1133.1573	1150.0994	1164.2204	1184.7898	1195.0108	1228.2424	1234.9088	1260.9899	1275.523	1301.6955	1319.7847	1349.2578	1372.9611	1410.3939	1429.5321	1479.0036	1485.0618	1486.9365	1492.7684	1497.6454	1498.6146	1500.5712	1521.0078	1727.1801	2913.4575	2922.1591	2966.3626	2984.6328	2986.0103	3008.183	3016.9048	3024.0436	3039.2286	3049.4923	3090.6724	3092.8235	3113.5343	3215.555
COCC1=CCC(C)C1	COCC1=CC[C@@H](C)C1	
InChI=1S/C8H14O/c1-7-3-4-8(5-7)6-9-2/h4,7H,3,5-6H2,1-2H3	InChI=1S/C8H14O/c1-7-3-4-8(5-7)6-9-2/h4,7H,3,5-6H2,1-2H3/t7-/m1/s1
