19
gdb 69351	2.66659	1.43002	1.13725	4.8596	79.92	-0.2509	0.0255	0.2764	1142.5723	0.158208	-382.048371	-382.039437	-382.038493	-382.081486	34.082	
C	 0.2152932767	 1.5181951397	 0.1040243822	-0.493808
C	-0.0355439614	 0.0473054206	-0.0363373397	 0.371048
C	-0.972846769	-0.7252526503	 0.7973297418	-0.291116
N	 0.4773437071	-0.9788741488	 0.9733420172	-0.183332
C	 0.9184333093	-1.8517250237	-0.1911686627	 0.165661
C	 0.3660965336	-3.2760587693	-0.2278279158	-0.445833
C	 0.4066724187	-0.7998588668	-1.2326545958	-0.365031
C	 2.3848788575	-1.9041417366	-0.1713318193	 0.283291
N	 3.5390634847	-1.9581668023	-0.1879449736	-0.343738
H	 1.2487908708	 1.7687724131	-0.1565973018	 0.134812
H	-0.4486517702	 2.0882338172	-0.5564428888	 0.125825
H	 0.0344495797	 1.8446056064	 1.1318916612	 0.134512
H	-1.3957935147	-0.2327415642	 1.667521166	 0.129609
H	-1.6167195038	-1.4829768272	 0.3596462061	 0.113509
H	-0.7228022891	-3.2783387763	-0.3069086605	 0.124725
H	 0.7691542604	-3.8148143673	-1.0901074342	 0.142265
H	 0.6527015579	-3.8138581005	 0.6800984564	 0.149491
H	-0.3832291665	-1.1377597552	-1.909111158	 0.112285
H	 1.2120739684	-0.3556388585	-1.8180603308	 0.135826
104.573	164.1188	188.4134	200.1496	224.0116	255.2137	336.3288	366.7855	415.3123	479.8822	509.2374	563.5391	614.0914	665.3067	759.8667	820.2562	828.3907	911.7994	935.2999	953.835	960.8326	1028.3375	1050.7649	1110.1573	1114.3161	1136.1266	1145.9881	1169.6553	1250.809	1272.5803	1311.768	1382.2154	1410.1748	1425.8956	1481.5503	1482.0409	1486.61	1491.2887	1493.383	1516.2649	2357.7786	3031.2266	3050.6186	3063.2044	3094.7079	3116.7324	3117.7287	3123.7253	3133.6175	3135.508	3203.1543
CC12CN1C(C)(C2)C#N	C[C@]12CN1[C@@](C)(C2)C#N	
InChI=1S/C7H10N2/c1-6(4-8)3-7(2)5-9(6)7/h3,5H2,1-2H3	InChI=1S/C7H10N2/c1-6(4-8)3-7(2)5-9(6)7/h3,5H2,1-2H3/t6-,7-,9?/m0/s1
