13
gdb 132063	2.36962	1.88097	1.04921	6.3968	66.25	-0.2174	-0.0388	0.1786	1024.9105	0.089206	-497.903137	-497.895668	-497.894723	-497.934962	28.459	
N	 0.0008087362	 1.3999951061	-0.1315989302	-0.584525
C	 0.017604539	 0.0327093189	-0.051130518	 0.246015
C	-1.1404184431	-0.6953227039	-0.0229553552	 0.009455
F	-2.3152495803	-0.043116207	-0.0194979982	-0.082973
C	-1.1988878294	-2.1269347406	 0.0099114559	 0.356558
O	-2.1696085424	-2.8325347522	 0.0398611977	-0.349437
O	 0.0761038612	-2.7461370995	 0.013083387	-0.227128
C	 1.2123290158	-2.0393080041	-0.0106992465	 0.099327
C	 1.2574411134	-0.6950951719	-0.0426962503	-0.262118
H	 0.8165794655	 1.8985113292	 0.1839329577	 0.263819
H	-0.8799215761	 1.8483285633	 0.0671064057	 0.272218
H	 2.0883739425	-2.6769231859	-0.0024826311	 0.144545
H	 2.2075816677	-0.1780391525	-0.0710735545	 0.114246
122.5046	191.7774	282.2762	285.4097	325.1332	380.6436	475.2892	494.6386	516.0584	520.3095	565.5125	676.3382	688.3271	736.9168	777.6447	849.5012	928.419	944.9951	1050.8918	1103.091	1232.4891	1269.9919	1331.286	1377.3999	1490.0726	1606.4269	1644.4795	1710.5959	1848.3639	3205.1729	3224.9962	3593.0537	3706.928
NC1=C(F)C(=O)OC=C1	Nc1c(F)c(=O)occ1	
InChI=1S/C5H4FNO2/c6-4-3(7)1-2-9-5(4)8/h1-2H,7H2	InChI=1S/C5H4FNO2/c6-4-3(7)1-2-9-5(4)8/h1-2H,7H2
