16
gdb 16496	2.85199	2.6217	1.79578	1.218	63.66	-0.2412	0.0752	0.3165	769.5198	0.130675	-383.679544	-383.672663	-383.671719	-383.710042	27.576	
O	-0.0238454395	 1.4871992975	 0.1250323231	-0.44294
C	-0.0015273844	 0.0777193972	 0.0894966536	 0.063725
C	 0.2101993499	-0.7366890529	 1.4083317095	-0.125926
C	-0.846876486	-0.1583778042	 2.3881560901	-0.22563
C	-1.8823855273	-0.7648558575	 1.4445771185	-0.134815
C	-0.8769707656	-1.7468999684	 0.8699511819	-0.135051
C	-1.3494693247	-0.6059080397	 0.0079466935	 0.378186
O	-2.1686606404	-0.7108615372	-1.0952190294	-0.466016
H	 0.8813995273	 1.8106875819	 0.0829369434	 0.282711
H	 0.6580256452	-0.2994904649	-0.704038523	 0.070939
H	 1.2139944009	-0.9957612822	 1.7383566936	 0.066848
H	-0.8274152096	-0.6743114837	 3.3521785642	 0.094479
H	-0.8419574159	 0.9260199546	 2.5348140131	 0.099416
H	-2.9412343035	-0.9318785875	 1.5979546115	 0.085275
H	-0.8965591018	-2.8143070298	 0.7134639514	 0.097669
H	-2.6988884445	 0.092044427	-1.1499243951	 0.291132
211.5912	230.1475	263.8693	282.3791	334.3415	379.9286	497.6809	605.5165	625.4853	707.7096	782.2409	804.5387	842.0357	870.8491	923.0701	943.5077	973.256	989.3072	1004.0887	1038.1422	1098.5433	1120.4997	1134.2536	1149.8877	1184.6775	1203.5088	1232.3153	1271.76	1284.3987	1312.017	1331.1624	1410.3994	1475.4695	1489.8749	3016.4542	3047.3305	3103.3909	3135.8876	3194.7709	3239.2052	3794.3613	3819.8854
OC1C2CC3C2C13O	O[C@H]1[C@H]2C[C@@H]3[C@H]2[C@]13O	
InChI=1S/C6H8O2/c7-5-2-1-3-4(2)6(3,5)8/h2-5,7-8H,1H2	InChI=1S/C6H8O2/c7-5-2-1-3-4(2)6(3,5)8/h2-5,7-8H,1H2/t2-,3+,4-,5-,6-/m0/s1
