17
gdb 62104	3.43022	0.94544	0.79948	5.9284	65.86	-0.2441	0.0001	0.2442	1382.2803	0.136526	-492.313936	-492.304861	-492.303916	-492.348825	32.459	
N	-0.485325645	 0.3986164919	 0.5049324165	-0.547496
H	 0.2705370476	-0.2365374148	 0.7566602493	 0.269526
H	-0.2153368586	 1.9055075386	-0.4812775475	 0.308801
H	-1.3023088636	-0.163209865	 0.2996119865	 0.244817
C	-0.7453886185	 1.3471975744	 1.5995117978	-0.144434
C	 0.1617396856	 1.1742548255	 2.8181464549	-0.083852
O	-0.1779014141	 0.0204208845	 3.6141666937	-0.203649
C	 0.4356405741	-1.1382577913	 3.3596544941	 0.136814
N	 1.1832706525	-1.3521983606	 2.3576549758	-0.4749
C	-0.5683796461	 2.8012628227	 1.0820327575	 0.428163
O	-0.6959630804	 3.7638500188	 1.7939684841	-0.352083
O	-0.2661085876	 2.8588005384	-0.2120842887	-0.362639
H	-1.7833298292	 1.2750442782	 1.9439582525	 0.12002
H	 1.2112456663	 1.1076834955	 2.5172590511	 0.142555
H	 0.0179101098	 2.0310068743	 3.476038111	 0.15571
H	 0.1868298002	-1.8547392733	 4.14768216	 0.123733
H	 1.5585158571	-2.2966610878	 2.3814803213	 0.238916
39.9033	79.5767	147.5337	165.858	229.3106	311.5632	332.9549	346.1035	373.6791	444.5691	538.3612	633.7809	707.4977	740.4827	824.7533	860.1623	895.3292	939.1678	948.9047	993.3326	1029.0887	1047.1737	1094.9396	1142.8681	1227.1319	1244.9078	1259.8858	1308.8739	1343.2452	1391.0123	1405.4295	1415.6918	1460.8329	1481.8993	1678.3596	1710.3013	1860.5946	3049.9829	3073.3932	3097.8022	3152.7946	3319.0447	3461.5961	3531.4897	3586.6662
[NH3+]C(COC=N)C([O-])=O	N[C@@H](CO[CH][NH])C(=O)O	
InChI=1S/C4H8N2O3/c5-2-9-1-3(6)4(7)8/h2-3,5H,1,6H2,(H,7,8)	InChI=1S/C4H8N2O3/c5-2-9-1-3(6)4(7)8/h2-3,5H,1,6H2,(H,7,8)/t3-/m0/s1
