19
gdb 53091	4.87092	0.77157	0.68412	1.5308	92.16	-0.2177	-0.0094	0.2083	1659.9166	0.159178	-385.880436	-385.871188	-385.870244	-385.916305	33.016	
C	-0.0904891866	 1.4897331226	 0.0040649612	-0.505427
C	-0.0061639897	 0.0376006691	-0.0076928129	 0.194029
C	 0.0821528615	-1.16672724	-0.0180025954	-0.11053
C	 0.1135654004	-2.5882248713	-0.0211792485	 0.157932
C	 1.2518802287	-3.2872967728	-0.1492644706	-0.168768
C	 1.2896374224	-4.7878206625	-0.1113202846	-0.118388
O	 0.0746852207	-5.3789783108	 0.3013850314	-0.244465
C	-1.0517901688	-4.7790342265	-0.3154770531	-0.091041
C	-1.2084362519	-3.3228370212	 0.1227918221	-0.303456
H	 0.5191046128	 1.918293559	 0.8078190532	 0.149963
H	 0.2635507201	 1.917116375	-0.9411727907	 0.14959
H	-1.121804855	 1.8276194158	 0.1541172347	 0.148833
H	 2.1998413578	-2.7761601352	-0.287671119	 0.093431
H	 1.5925901841	-5.1752120632	-1.1034115742	 0.097946
H	 2.0518970117	-5.1288680078	 0.6004565264	 0.120509
H	-0.9596298535	-4.8309352895	-1.413164442	 0.090212
H	-1.9179912819	-5.3780328774	-0.0210746714	 0.107246
H	-1.5502261951	-3.2727499545	 1.1641738866	 0.121518
H	-1.9757527179	-2.8283852586	-0.4836555331	 0.110867
16.473	79.9278	90.0351	170.0787	254.9676	293.1787	308.9129	360.7977	394.195	491.1177	533.092	570.0906	624.0308	782.5638	848.556	859.4501	934.7399	945.3095	993.6928	1033.0299	1045.5199	1049.3679	1053.603	1095.2007	1165.6345	1219.2363	1242.093	1271.9419	1301.1186	1322.9351	1369.5164	1383.1179	1413.5588	1420.8905	1470.1656	1476.2861	1476.9021	1483.8562	1501.4151	1698.2215	2347.4573	2917.6111	2968.6337	3022.944	3029.0139	3040.4116	3069.3354	3080.7793	3086.1312	3087.7492	3175.9632
CC#CC1=CCOCC1	CC#CC1=CCOCC1	
InChI=1S/C8H10O/c1-2-3-8-4-6-9-7-5-8/h4H,5-7H2,1H3	InChI=1S/C8H10O/c1-2-3-8-4-6-9-7-5-8/h4H,5-7H2,1H3
