19
gdb 64246	3.07708	0.92851	0.85873	4.6426	72.87	-0.2463	-0.0215	0.2248	1403.3112	0.155764	-460.150101	-460.140246	-460.139302	-460.185796	35.073	
C	-0.0996801631	 1.574070305	-0.1747699151	-0.45921
C	-0.055589935	 0.0605303056	-0.0280202925	 0.311335
O	-1.332766258	-0.5184178586	-0.1720096629	-0.468735
C	 1.11287108	-0.6247379334	-0.7913055943	-0.113079
O	 1.8334338309	-0.8330045723	 0.4413623221	-0.299499
C	 0.6637770378	-0.505430503	 1.2256923792	 0.115431
C	 0.9885180568	 0.3687831433	 2.4309582564	-0.312173
C	 1.8931279592	-0.3540981739	 3.4106949624	 0.156345
O	 1.6500227107	-0.4976841636	 4.5814772644	-0.239911
H	 0.8896954221	 2.0200364492	-0.0416453338	 0.134375
H	-0.4434912842	 1.8431745343	-1.1814924006	 0.11421
H	-0.7865717976	 2.0175462314	 0.5521698139	 0.132777
H	-1.7993303708	-0.0665276277	-0.8828118663	 0.281759
H	 0.808870441	-1.5695169122	-1.2591033242	 0.104591
H	 1.6857662753	-0.0197943137	-1.5031619655	 0.100662
H	 0.1444295772	-1.4182847035	 1.5510261401	 0.095956
H	 1.5179271793	 1.2684684853	 2.0921086411	 0.118064
H	 0.0738176138	 0.6659917933	 2.9523853228	 0.127194
H	 2.8267798947	-0.7547936355	 2.9605612629	 0.099908
50.7814	63.2677	91.5364	155.0073	242.2411	247.1166	275.1909	285.5887	356.348	389.6879	449.6209	507.2267	536.8102	656.615	800.9102	836.977	887.5026	907.1445	943.4967	980.8036	1017.0015	1040.7529	1092.4495	1097.0569	1140.6174	1158.1709	1190.6229	1213.6972	1228.1413	1286.5926	1298.9155	1339.7852	1389.5474	1400.6751	1411.4038	1424.7574	1447.8365	1492.4647	1495.8874	1516.3259	1831.0917	2907.2225	3004.1662	3017.6013	3026.8065	3032.1032	3073.0164	3094.0907	3105.0684	3122.1652	3812.7104
CC1(O)COC1CC=O	C[C@@]1(O)CO[C@H]1CC=O	
InChI=1S/C6H10O3/c1-6(8)4-9-5(6)2-3-7/h3,5,8H,2,4H2,1H3	InChI=1S/C6H10O3/c1-6(8)4-9-5(6)2-3-7/h3,5,8H,2,4H2,1H3/t5-,6+/m0/s1
