19
gdb 91026	2.62062	1.8258	1.28786	3.0148	74.73	-0.2203	0.0596	0.2799	1006.5251	0.159964	-422.980596	-422.972831	-422.971887	-423.012458	31.661	
O	-0.1036943527	 1.417035063	-0.1926677307	-0.438741
C	-0.0754866669	 0.0070135459	-0.0044662581	 0.121911
C	 0.2081834237	-0.5413522331	 1.4238437634	-0.281217
C	-1.1767361276	-1.2420920809	 1.4290977988	-0.021706
C	-2.2640208022	-0.3735347312	 2.0331895393	-0.143366
C	-3.5771879944	-0.6046194243	 1.3183403109	-0.343517
C	-2.5556874035	 0.2388772487	 0.6373305548	 0.447973
O	-2.8650277581	 1.5200493498	 0.245270652	-0.468515
C	-1.4835034739	-0.6287912447	-0.0075749712	-0.153422
H	 0.7698073404	 1.7733954821	-0.003795865	 0.290078
H	 0.5788192821	-0.4557184454	-0.754745139	 0.073878
H	 1.0653060506	-1.2177931116	 1.4657237243	 0.098569
H	 0.3266250061	 0.2270996822	 2.193169975	 0.097031
H	-1.1944302877	-2.3172373186	 1.6197945106	 0.065561
H	-2.2150657236	 0.101737462	 3.0065794204	 0.083636
H	-3.8522159012	-1.5903590785	 0.9457614565	 0.098079
H	-4.4064835099	-0.0285001221	 1.7168844962	 0.118485
H	-2.0154464358	 1.9609396801	 0.0998684144	 0.291207
H	-1.7592804654	-1.2035861934	-0.8950155227	 0.064073
96.6558	217.3004	232.7329	288.7786	359.096	381.0101	423.1768	446.7202	552.2113	571.2842	610.7675	687.2976	746.4464	816.335	836.5315	860.185	905.2274	929.9399	939.5981	989.0386	1011.7013	1027.3125	1049.3223	1065.4157	1105.7488	1110.5073	1140.4356	1172.7935	1185.0247	1201.8099	1228.9202	1252.1957	1267.7101	1296.9939	1315.2349	1343.1494	1372.7673	1404.3453	1451.3818	1472.4425	1504.6431	3007.7582	3053.8317	3072.4743	3083.3089	3092.7075	3110.9684	3173.0872	3197.3507	3730.51	3823.7435
OC1CC2C3CC3(O)C12	O[C@H]1C[C@H]2[C@@H]3C[C@]3(O)[C@@H]12	
InChI=1S/C7H10O2/c8-5-1-3-4-2-7(4,9)6(3)5/h3-6,8-9H,1-2H2	InChI=1S/C7H10O2/c8-5-1-3-4-2-7(4,9)6(3)5/h3-6,8-9H,1-2H2/t3-,4-,5-,6+,7+/m0/s1
