15
gdb 16476	3.0694	2.67738	1.72911	2.8721	65.12	-0.2446	-0.0109	0.2337	769.3428	0.11923	-362.628292	-362.621586	-362.620641	-362.658998	25.503	
C	 0.0404466567	 1.5026760268	 0.0167513344	-0.509766
C	-0.1005128562	 0.0153142889	 0.0103868502	 0.183767
C	-0.0030743188	-0.8661828231	 1.224078891	-0.062222
C	-0.5466020357	-2.2568546875	 0.9246617307	-0.253587
C	 0.1347119466	-2.0467264525	-0.4420052142	-0.136267
N	 1.0762235	-0.9644794619	 0.2030414484	-0.184073
C	-0.6057362248	-0.8726051983	-1.0823625018	 0.42052
O	-1.1325177729	-0.6771347814	-2.1409551509	-0.334709
H	 0.758452597	 1.8216378915	 0.7774759158	 0.136319
H	 0.3845173843	 1.8603418855	-0.9577003506	 0.146544
H	-0.9218849842	 1.9776215816	 0.2335523854	 0.137872
H	 0.1872312476	-0.4185309575	 2.1945038048	 0.107281
H	-0.0255590225	-3.0083283788	 1.5232692724	 0.12347
H	-1.6246151301	-2.4419397868	 0.945071216	 0.115961
H	 0.5514290232	-2.8550447764	-1.0368657716	 0.10889
138.9574	174.4306	231.879	263.6647	407.1049	466.7257	609.1772	647.9675	694.2095	758.3043	800.1367	823.2094	860.5101	938.2515	988.054	993.5356	1014.4715	1026.9605	1076.5496	1090.2236	1139.0178	1167.9166	1224.0761	1261.6525	1283.2217	1294.9579	1401.8929	1432.4163	1479.9662	1490.0907	1497.292	1886.423	3042.2653	3053.9131	3110.5887	3111.235	3121.9208	3166.0567	3166.8208
CC12C3CC(N13)C2=O	C[C@]12[C@H]3C[C@H](N13)C2=O	
InChI=1S/C6H7NO/c1-6-4-2-3(5(6)8)7(4)6/h3-4H,2H2,1H3	InChI=1S/C6H7NO/c1-6-4-2-3(5(6)8)7(4)6/h3-4H,2H2,1H3/t3-,4+,6+,7?/m0/s1
