19
gdb 40352	3.7538	1.28492	1.21136	1.7518	79.52	-0.2272	0.012	0.2392	1091.0009	0.160475	-385.829147	-385.821868	-385.820924	-385.861021	29.532	
C	 0.0826689485	 1.4959738778	-0.0275764405	-0.187856
O	 1.2135523254	 0.6278631732	-0.1056101579	-0.235745
C	-0.0888143241	 0.0366180557	 0.0004265839	-0.064386
C	-0.4030335431	-0.7117659699	 1.2549362581	 0.330238
C	-1.8836472072	-0.9787479208	 1.7175832981	-0.250283
C	-1.1661752403	-2.0420340208	 2.6153369576	-0.079118
C	-0.2194591395	-2.2709649334	 1.3873307816	-0.252197
C	-0.2795213463	-1.1265566017	 3.4732342015	-0.102053
C	 0.2195262531	-0.2605473525	 2.5888968803	-0.125367
H	-0.0091006103	 2.0635188818	 0.8973729304	 0.1121
H	-0.1467549828	 2.0494845927	-0.9371031922	 0.115111
H	-0.4271232525	-0.4421669571	-0.9203930632	 0.08474
H	-2.4036020798	-0.1589985321	 2.2189466915	 0.094222
H	-2.5087982192	-1.42025611	 0.9341065504	 0.091698
H	-1.7056427652	-2.8565715804	 3.0966337787	 0.062879
H	-0.688478826	-2.831245943	 0.5708415956	 0.090032
H	 0.7889801994	-2.6389773347	 1.5872032459	 0.101693
H	-0.1099421323	-1.208805367	 4.5373453735	 0.100669
H	 0.9238186622	 0.5484453222	 2.7128896165	 0.113623
74.3483	174.3098	184.8111	371.0875	411.5825	487.5542	524.9087	545.0243	630.7133	698.5519	735.7456	836.4029	845.8331	851.3842	881.8492	900.9532	909.2276	921.3751	948.9753	975.1569	1014.7046	1033.1041	1063.9025	1073.8782	1093.539	1103.0803	1152.16	1164.229	1166.3011	1175.0701	1222.4873	1227.3022	1255.7711	1275.4923	1298.642	1355.1088	1441.2772	1477.316	1512.8944	1526.784	1629.0881	3036.2517	3047.9836	3083.0496	3091.8125	3114.0419	3121.1754	3125.6424	3169.9765	3224.9229	3253.6873
C1OC1C12CC(C1)C=C2	C1O[C@H]1[C@@]12C[C@@H](C1)C=C2	
InChI=1S/C8H10O/c1-2-8(7-5-9-7)3-6(1)4-8/h1-2,6-7H,3-5H2	InChI=1S/C8H10O/c1-2-8(7-5-9-7)3-6(1)4-8/h1-2,6-7H,3-5H2/t6-,7-,8-/m1/s1
