15
gdb 34385	2.6996	1.67765	1.34377	4.4677	68.95	-0.2746	-0.0123	0.2623	961.402	0.11446	-416.821494	-416.814362	-416.813418	-416.853396	26.928	
N	 0.0359864625	-1.1396712076	-0.1318173529	-0.338004
C	-0.0051829335	 0.0101786217	-0.0235867313	 0.249524
C	-0.0126741869	 1.4645575868	 0.067081114	 0.154849
C	-0.4257059193	 2.248600493	-1.2182712357	-0.26364
C	 0.8693083628	 3.1112841062	-1.1021735508	-0.247592
C	 1.3552854555	 2.2395497013	 0.0778659316	 0.046314
O	 1.3679451109	 2.9062528313	 1.3534377992	-0.2192
C	 0.1428378435	 2.6803431492	 1.8854814275	 0.11552
N	-0.6920357632	 1.9288591506	 1.2915000088	-0.293345
H	-0.460925628	 1.6201120764	-2.1094024481	 0.132654
H	-1.3749161543	 2.7743800068	-1.1087299488	 0.132934
H	 1.519504319	 3.0920658654	-1.9782551493	 0.12517
H	 0.7039421782	 4.150125901	-0.8112773933	 0.127249
H	 2.2899854467	 1.6939234493	-0.0402758095	 0.119956
H	-0.0369052641	 3.1818432085	 2.8295956587	 0.157612
81.3845	157.0174	183.5771	291.3501	386.3583	509.8263	525.1861	564.7862	584.9106	673.6848	740.9653	821.105	861.8628	874.3688	944.2789	949.2298	973.5236	1021.7762	1043.5767	1102.9534	1126.1055	1135.4275	1183.7185	1225.7418	1240.4252	1271.4374	1295.6784	1316.7948	1357.3961	1468.4318	1483.6715	1677.093	2358.39	3081.8066	3086.496	3128.3031	3137.7049	3151.4457	3224.5214
N#CC12CCC1OC=N2	N#C[C@]12CC[C@H]1OC=N2	
InChI=1S/C6H6N2O/c7-3-6-2-1-5(6)9-4-8-6/h4-5H,1-2H2	InChI=1S/C6H6N2O/c7-3-6-2-1-5(6)9-4-8-6/h4-5H,1-2H2/t5-,6-/m1/s1
