16
gdb 33953	3.29136	1.43874	1.2535	3.4934	72.64	-0.2583	0.0243	0.2825	1011.4692	0.125535	-400.725721	-400.718672	-400.717728	-400.757073	28.113	
N	 0.0336671727	-1.1340095492	-0.0231808947	-0.346746
C	 0.0179744815	 0.0228562505	 0.0062121244	 0.205672
C	-0.001383512	 1.4545271959	 0.0377181807	 0.15033
C	 0.3871367274	 2.2339022909	-1.2200121633	-0.36067
C	 1.2810430469	 2.2902694894	-0.0198175452	 0.074775
O	 1.1756266351	 3.3520777292	 0.8818885679	-0.25316
C	-0.0286242891	 3.2782510267	 1.6111599232	 0.109742
C	-1.3279659854	 3.5536721949	 0.9026428297	-0.335906
C	-0.8565336571	 2.1263046029	 1.0998099974	-0.141847
H	 0.73678142	 1.6362194865	-2.054636298	 0.143695
H	-0.2036766618	 3.0973151728	-1.4969817772	 0.135154
H	 2.271306354	 1.849822282	-0.0542905818	 0.130487
H	 0.1033195841	 3.5278313509	 2.6577148481	 0.115161
H	-2.1611942241	 3.8687565535	 1.5222053086	 0.126752
H	-1.311977344	 4.0095341962	-0.0794293244	 0.128848
H	-1.4072465282	 1.4687845369	 1.7595954843	 0.117714
137.9265	158.3236	260.7288	293.713	442.6661	473.3292	502.6054	543.5201	602.18	702.7782	708.7153	781.0843	820.7824	842.9252	862.8069	932.9259	973.7367	987.4258	995.4132	1029.7412	1053.5213	1073.7647	1096.2642	1103.8673	1120.0598	1178.4301	1210.1102	1224.6721	1261.2471	1321.5006	1379.6461	1399.8229	1462.8406	1490.2913	2350.0889	3141.1928	3149.4323	3177.7677	3181.8982	3201.1427	3229.7224	3243.0242
N#CC12CC1OC1CC21	N#C[C@]12C[C@H]1O[C@H]1C[C@@H]21	
InChI=1S/C7H7NO/c8-3-7-2-6(7)9-5-1-4(5)7/h4-6H,1-2H2	InChI=1S/C7H7NO/c8-3-7-2-6(7)9-5-1-4(5)7/h4-6H,1-2H2/t4-,5+,6-,7+/m1/s1
