16
gdb 32319	2.66085	1.53853	0.9807	6.0442	78.11	-0.2148	-0.0522	0.1626	1139.5611	0.126296	-434.094726	-434.086878	-434.085933	-434.12721	29.943	
O	 0.0953580898	 1.3642047402	-0.1631183173	-0.431259
C	 0.0263281196	-0.0347410588	-0.1424610243	-0.107294
C	-1.3878550801	-0.5345148898	-0.0015057434	 0.286245
N	-2.333702642	 0.3445810249	 0.080330254	-0.344304
C	-3.643476572	-0.0660668411	 0.2106561981	-0.066259
C	-3.9598290359	-1.3788752664	 0.2545877463	-0.011882
N	-2.9624531992	-2.3169342626	 0.1685595879	-0.363773
C	-1.610899168	-1.9903423016	 0.0349373189	 0.329367
N	-0.6284285238	-2.809691998	-0.0510724711	-0.544599
H	-0.8212436737	 1.6701800286	-0.0781622813	 0.28863
H	 0.455566187	-0.4697475532	-1.0587191573	 0.123506
H	 0.622644545	-0.4525285459	 0.6839516992	 0.123501
H	-4.4001960251	 0.70390945	 0.2756695482	 0.121732
H	-4.9700976157	-1.7535433744	 0.3558095123	 0.137673
H	-3.2020170886	-3.2966304713	 0.2003045063	 0.257785
H	-0.9286303371	-3.7846550807	-0.0119852463	 0.200932
94.2183	131.5748	215.1379	239.8713	353.0559	361.8631	449.0289	508.0947	521.9711	566.408	595.1717	621.9043	749.1417	786.6163	792.998	803.4249	896.9824	907.7944	1016.61	1049.0284	1091.2453	1113.7921	1176.6749	1215.3569	1234.3436	1250.4431	1308.1419	1370.3859	1416.4427	1468.0016	1482.6185	1487.1554	1599.6559	1662.9379	1706.5611	2988.4942	2999.1852	3212.5419	3230.9168	3461.958	3617.867	3681.7401
OCC1=NC=CNC1=N	OCC1=C(NCC=N1)[NH]	
InChI=1S/C5H7N3O/c6-5-4(3-9)7-1-2-8-5/h1-2,9H,3H2,(H2,6,8)	InChI=1S/C5H8N3O/c6-5-4(3-9)7-1-2-8-5/h1,6,8-9H,2-3H2
