19
gdb 114569	2.61848	1.20243	0.96016	4.7235	80.8	-0.2589	-0.002	0.2569	1285.4715	0.159591	-382.043468	-382.034722	-382.033777	-382.077111	32.616	
C	 0.0265681615	 1.5772911688	-0.1285734835	-0.384511
C	 0.0674914134	 0.0624449142	 0.0998791528	-0.208089
C	-1.318475905	-0.5709560464	 0.0551641538	-0.046281
C	-2.1022181998	-0.6937627556	-1.2830713723	-0.182177
N	-2.3336980704	-2.1747035018	-1.0983226863	-0.149097
C	-1.0018070358	-2.7818960345	-1.0907004302	-0.270035
C	-1.4468298069	-2.0999157179	 0.1515921224	 0.18043
C	-1.7336216107	-2.8115213861	 1.360730133	 0.209407
N	-1.9381793091	-3.3560239082	 2.3611511085	-0.33905
H	 1.0312915114	 2.0078127077	-0.0932510087	 0.122062
H	-0.4054923146	 1.8221217992	-1.1051207599	 0.120339
H	-0.5782294062	 2.0767516293	 0.6359428381	 0.122777
H	 0.7157133918	-0.4051523435	-0.6511758973	 0.098141
H	 0.521816186	-0.1533762101	 1.0751014352	 0.114875
H	-1.9575744998	-0.1085303518	 0.8128243241	 0.101895
H	-3.0550277393	-0.1642108919	-1.2986194455	 0.126146
H	-1.5458935093	-0.464010105	-2.1981419543	 0.112235
H	-1.0267084339	-3.8667345739	-1.0861027312	 0.146843
H	-0.2072255831	-2.3413800425	-1.6887628685	 0.12409
81.9496	122.7318	158.0739	166.9009	215.0704	273.0949	365.5758	419.841	456.547	522.8156	574.676	630.2091	722.6924	774.8459	792.3244	851.8751	868.9741	945.8961	968.3227	990.562	1009.3421	1078.8187	1103.0082	1127.5633	1145.494	1164.2724	1202.8865	1230.8948	1246.4453	1288.38	1305.6867	1343.8751	1347.0425	1404.9738	1415.4237	1485.1729	1489.6955	1499.8348	1505.8184	1511.3332	2346.4609	3026.1832	3034.0993	3049.9643	3054.7909	3073.7417	3100.6758	3108.9111	3111.197	3128.9715	3208.3395
CCC1CN2CC12C#N	CC[C@H]1CN2C[C@@]12C#N	
InChI=1S/C7H10N2/c1-2-6-3-9-5-7(6,9)4-8/h6H,2-3,5H2,1H3	InChI=1S/C7H10N2/c1-2-6-3-9-5-7(6,9)4-8/h6H,2-3,5H2,1H3/t6-,7-,9?/m0/s1
