18
gdb 99202	6.08717	0.56351	0.5208	2.6456	79.93	-0.247	0.037	0.2841	2109.7485	0.144727	-439.102014	-439.090808	-439.089864	-439.142101	36.069	
C	 0.0958127263	 1.374969812	-0.1948790913	-0.329839
N	 0.2368477861	-0.0553695429	-0.0322450532	-0.358788
C	 0.6236285927	-0.6198695397	 1.1410750797	 0.536765
O	 0.8911824677	-0.0288135214	 2.1652772504	-0.411378
O	 0.6696626731	-1.9725885511	 1.0023329941	-0.275687
C	 1.071282214	-2.6709915659	 2.1963390201	-0.224292
C	 1.0823370545	-4.0981638831	 1.9243375395	 0.00942
C	 1.1023053472	-5.2859398283	 1.7340327059	 0.131376
C	 1.1248812525	-6.7217341516	 1.4988752475	-0.498731
H	 0.7707869595	 1.7601115182	-0.9678082147	 0.125685
H	-0.9316175438	 1.6500342391	-0.459587297	 0.125685
H	 0.3503588603	 1.8395394883	 0.7584031688	 0.170235
H	 0.0475181788	-0.6761162489	-0.8008710353	 0.254708
H	 2.0604766668	-2.3159483355	 2.5060479816	 0.145321
H	 0.3780872633	-2.4247122066	 3.0083171429	 0.145321
H	 2.1255356861	-7.1371973902	 1.6601919242	 0.150623
H	 0.4327950868	-7.2466795114	 2.166252156	 0.150626
H	 0.8319949381	-6.9535997709	 0.469029641	 0.152949
15.8986	21.525	59.6288	71.2666	110.48	147.9734	192.2815	199.0574	301.4365	318.7829	378.1453	430.9839	465.5608	556.6842	697.6016	777.886	807.4121	964.4806	1005.7815	1011.2652	1051.7687	1056.6015	1159.5157	1165.1196	1176.7895	1183.9024	1249.4125	1250.5197	1394.9549	1414.4842	1447.149	1475.9517	1478.8603	1491.6088	1498.302	1502.8615	1570.6244	1813.9861	2381.8063	3023.9714	3028.6545	3038.9918	3070.856	3073.4729	3090.2991	3091.0653	3152.4523	3659.8592
CNC(=O)OCC#CC	CNC(=O)OCC#CC	
InChI=1S/C6H9NO2/c1-3-4-5-9-6(8)7-2/h5H2,1-2H3,(H,7,8)	InChI=1S/C6H9NO2/c1-3-4-5-9-6(8)7-2/h5H2,1-2H3,(H,7,8)
