16
gdb 16636	3.08815	2.31587	1.58131	2.7294	63.47	-0.2518	-0.031	0.2207	816.4847	0.131285	-383.755229	-383.748343	-383.747399	-383.786216	26.896	
O	-0.044599824	 1.475518339	-0.0448552176	-0.44065
C	-0.0411929151	 0.0717077692	-0.0047232955	 0.055371
C	-1.4024559761	-0.5879156859	-0.0280059206	-0.048924
C	-2.1557436502	-0.5598906453	-1.3321145893	-0.290482
C	-1.3375641793	-1.7771336538	-0.9802470308	-0.043047
C	 0.0554478747	-1.8621129012	-1.5872856003	-0.327382
C	 0.6691877958	-0.5114956855	-1.2391802403	 0.340436
O	 1.5127431628	 0.0999687436	-1.8462779472	-0.322229
H	 0.7051815674	 1.7203615318	-0.6079421842	 0.289804
H	 0.5094467139	-0.291505933	 0.8843189445	 0.087792
H	-1.960893174	-0.6517165041	 0.8977085726	 0.094067
H	-3.2346333464	-0.6505865133	-1.2818396671	 0.119695
H	-1.8062851681	 0.1035420539	-2.118283124	 0.126621
H	-1.8535412568	-2.6984525068	-0.7385280669	 0.092567
H	 0.6483377613	-2.6559683528	-1.1133983038	 0.132367
H	 0.0842663642	-2.0314517458	-2.6673540294	 0.133995
95.3251	192.0468	272.636	343.8264	404.5931	459.1897	502.4149	575.1545	597.6632	680.9982	762.2998	806.0592	828.9617	896.6764	930.2111	970.271	994.4487	1051.039	1069.2245	1093.133	1105.5621	1131.2971	1167.4996	1190.6052	1203.3905	1240.5313	1282.9302	1337.597	1363.5549	1390.5655	1424.8155	1456.0752	1495.6461	1841.086	2920.0129	3029.5943	3093.6342	3127.8706	3178.8667	3187.2262	3216.5198	3716.2738
OC1C2CC2CC1=O	O[C@H]1[C@H]2C[C@H]2CC1=O	
InChI=1S/C6H8O2/c7-5-2-3-1-4(3)6(5)8/h3-4,6,8H,1-2H2	InChI=1S/C6H8O2/c7-5-2-3-1-4(3)6(5)8/h3-4,6,8H,1-2H2/t3-,4-,6-/m0/s1
