21
gdb 120883	4.89314	0.80516	0.76607	1.0236	80.22	-0.2445	0.0923	0.3369	1577.2334	0.180378	-424.183211	-424.173585	-424.172641	-424.218085	35.096	
C	-0.0839454575	 1.3915270161	-0.0853611426	-0.224206
O	-0.0672576272	-0.0147015485	-0.091693361	-0.235443
C	 0.7710967464	-0.5492156341	-1.0964341766	-0.065743
C	 0.6747709743	-2.0604719115	-1.0423753291	-0.025923
C	-0.6851815955	-2.7310946658	-1.4549127635	-0.300846
C	 0.0715163949	-3.4869296724	-2.5632784426	 0.421635
C	-0.2440406345	-4.8128324276	-3.1738036087	-0.499388
O	 0.6619748413	-2.4778812626	-3.4023562356	-0.287372
C	 1.3424605731	-2.8377008015	-2.1898500048	-0.071647
H	 0.9161396412	 1.812833752	 0.1070731273	 0.10094
H	-0.4469158669	 1.8018485485	-1.0413001603	 0.103693
H	-0.7587100761	 1.7090111732	 0.7137163033	 0.124229
H	 0.4627230461	-0.1937478496	-2.0917922292	 0.10185
H	 1.8152985239	-0.2249060157	-0.9380949791	 0.079151
H	 1.006612988	-2.4219988358	-0.0647235858	 0.082208
H	-1.0855103826	-3.38132766	-0.6738085451	 0.104652
H	-1.4703154665	-2.0578912148	-1.8067243628	 0.10944
H	-1.1568935283	-4.7547883436	-3.7776968142	 0.130852
H	 0.5727505715	-5.1395003599	-3.8229710834	 0.133022
H	-0.4031197698	-5.5693947315	-2.3985856133	 0.12375
H	 2.3704626239	-3.1720557548	-2.2842181929	 0.095145
63.4744	96.6933	110.7471	169.1014	201.7513	231.6395	281.1188	296.8892	372.1913	404.4067	472.4744	557.4716	658.4302	726.2424	830.3039	858.0606	896.4213	919.4347	943.3166	980.2973	1008.0968	1024.5281	1056.2648	1090.1181	1138.8572	1159.4079	1173.1342	1191.7362	1206.3375	1210.8925	1231.9062	1261.4385	1266.4071	1274.2636	1353.3383	1402.1753	1419.364	1457.0691	1478.4663	1481.0075	1484.5233	1486.4058	1497.7532	1504.0596	1529.7717	2943.4436	2967.372	3002.6553	3009.2167	3033.1277	3067.2872	3073.6583	3094.9373	3110.1927	3120.0832	3125.8929	3171.1819
COCC1CC2(C)OC12	COC[C@H]1C[C@@]2(C)O[C@@H]12	
InChI=1S/C7H12O2/c1-7-3-5(4-8-2)6(7)9-7/h5-6H,3-4H2,1-2H3	InChI=1S/C7H12O2/c1-7-3-5(4-8-2)6(7)9-7/h5-6H,3-4H2,1-2H3/t5-,6+,7-/m1/s1
