25
gdb 104052	2.77169	1.19748	1.09825	0.0882	92.01	-0.2576	0.0802	0.3378	1300.9863	0.229151	-352.339076	-352.329584	-352.328639	-352.373267	37.352	
C	 0.1521511214	 1.5231665746	 0.2096542104	-0.387476
C	 0.0375438349	 0.0093792955	-0.0128842322	-0.239515
C	 0.6928434277	-0.4984898382	-1.3011975618	 0.363886
C	 0.0467313668	 0.1187508128	-2.5472837072	-0.445174
C	 2.2563417189	-0.4078615668	-1.3869065359	-0.284997
C	 2.3298152339	-1.8921322644	-1.8423928006	-0.004134
C	 2.6842515489	-2.8994013061	-0.7232604754	-0.221258
C	 1.1861211879	-2.9428049125	-0.293873953	-0.253072
C	 0.8018476393	-2.0449723028	-1.5080027281	-0.054295
H	 1.1979028989	 1.8492236967	 0.183743467	 0.116881
H	-0.391672712	 2.0929033167	-0.5495090455	 0.117006
H	-0.2567794758	 1.8035771188	 1.1853988097	 0.109937
H	 0.4917068055	-0.4982143738	 0.8458282975	 0.091024
H	-1.0223408535	-0.2815413145	-0.0115980017	 0.088148
H	 0.1972521716	 1.2023430379	-2.5881006139	 0.111449
H	 0.4770123044	-0.3054640646	-3.4609988124	 0.111158
H	-1.0322584893	-0.0760012178	-2.5674427014	 0.107103
H	 2.6356651535	 0.3284242254	-2.100739418	 0.092297
H	 2.7473480022	-0.2285883741	-0.4243305504	 0.087668
H	 2.7456640936	-2.0698172562	-2.8351035978	 0.058317
H	 3.0360502415	-3.8599508716	-1.1096478262	 0.096068
H	 3.4035311029	-2.5504714776	 0.0244752556	 0.090822
H	 0.7425578675	-3.9405608979	-0.3336324167	 0.099031
H	 0.9668287305	-2.5265660185	 0.692226724	 0.097954
H	 0.0772105388	-2.4821029608	-2.1989970758	 0.051174
54.5544	91.506	181.1379	221.1801	258.8478	264.9012	308.4114	336.8153	389.1821	399.7844	457.782	596.2126	721.2632	738.8858	761.4778	785.567	837.3616	861.7305	892.5473	899.7884	922.4278	955.4076	971.1153	1005.6582	1013.5004	1031.6796	1044.6556	1060.2266	1097.1599	1136.6718	1161.8047	1184.271	1203.8105	1218.033	1243.4029	1245.3977	1266.2971	1277.88	1288.7475	1298.2594	1312.0342	1345.8434	1369.0373	1404.3714	1412.2064	1474.91	1479.1017	1481.6914	1494.6645	1496.4429	1499.2293	1506.9829	1511.4513	3010.1109	3021.9865	3034.4748	3037.3689	3043.7921	3052.6753	3062.6203	3071.9644	3084.231	3086.2466	3088.9927	3095.7493	3098.6291	3099.7815	3109.6022	3114.0426
CCC1(C)CC2CCC12	CC[C@@]1(C)C[C@H]2CC[C@@H]12	
InChI=1S/C9H16/c1-3-9(2)6-7-4-5-8(7)9/h7-8H,3-6H2,1-2H3	InChI=1S/C9H16/c1-3-9(2)6-7-4-5-8(7)9/h7-8H,3-6H2,1-2H3/t7-,8-,9+/m1/s1
