17
gdb 23080	4.96902	1.05986	0.89938	2.7255	83.21	-0.1869	-0.0108	0.1761	1258.0554	0.137182	-417.948791	-417.941063	-417.940119	-417.980955	29.82	
O	-0.1500352296	 1.3575467598	-0.0108687991	-0.401469
N	 0.0117750433	-0.0468988752	-0.0018152914	-0.259298
C	-1.1266193225	-0.6315735674	 0.0024734172	 0.395549
C	-1.213378398	-2.1670568923	 0.0113261737	-0.26783
N	-2.6176638118	-2.3792817021	-0.3582473894	-0.073725
C	-3.7099000916	-3.1315548268	 0.3141029758	-0.171832
C	-4.610071096	-1.8617764351	 0.1055671285	-0.346513
C	-3.2886132855	-1.1762320233	-0.1646883683	 0.371828
C	-2.492610602	-0.1051488179	 0.0235769899	-0.419195
H	 0.7630385449	 1.6613518827	-0.0113254692	 0.300892
H	-0.5131852841	-2.6359834454	-0.6828837817	 0.13433
H	-1.0182391343	-2.5588900308	 1.0206951671	 0.120935
H	-3.9979060841	-4.0585037773	-0.1873231087	 0.116925
H	-3.513303451	-3.3249653896	 1.3767164184	 0.111515
H	-5.2693161965	-1.9378798038	-0.7616685781	 0.135399
H	-5.173042268	-1.5027242307	 0.9671048701	 0.132909
H	-2.7593846832	 0.9269706353	 0.1713175552	 0.11958
99.9529	197.856	212.7528	246.8398	270.1095	361.7451	394.9682	484.3879	560.14	646.1926	668.522	753.1741	764.9402	807.1071	836.6246	870.4054	939.6299	970.7614	991.2549	1034.0264	1057.6264	1124.6174	1136.438	1174.5214	1189.9248	1196.0218	1221.5893	1237.2271	1266.676	1288.8509	1384.1201	1399.0514	1470.3215	1488.3002	1515.9491	1664.8172	1725.8678	2997.6375	3019.8572	3083.5546	3099.3212	3103.3915	3145.7837	3285.2619	3827.8507
ON=C1CN2CCC2=C1	ON=C1CN2CC[C]2[CH]1	
InChI=1S/C6H8N2O/c9-7-5-3-6-1-2-8(6)4-5/h3,9H,1-2,4H2	InChI=1S/C6H8N2O/c9-7-5-3-6-1-2-8(6)4-5/h3,9H,1-2,4H2
