21
gdb 116275	2.38921	1.2732	1.01325	3.1912	78.3	-0.2361	-0.0256	0.2106	1275.0795	0.181873	-424.24231	-424.232796	-424.231852	-424.277417	34.138	
C	-0.1042213584	 1.7013657561	 0.0790121924	-0.385229
C	-0.0173618318	 0.1852172996	 0.2849520521	-0.212683
C	-1.3361881922	-0.5370466766	-0.0090896048	 0.010298
C	-1.7927516413	-0.5276746878	-1.4810273998	-0.250701
C	-2.767378956	-1.7151217488	-1.5553566512	-0.07031
O	-2.4971266238	-2.5489154787	-0.4201320081	-0.251824
C	-1.3773185179	-2.0630158627	 0.2804023424	-0.000415
C	-0.0910883043	-2.7571140521	-0.1580067026	 0.148272
O	 0.0477637481	-3.3165247134	-1.214480614	-0.248072
H	 0.8442768741	 2.1859238626	 0.3288191606	 0.117863
H	-0.3412692112	 1.951878564	-0.9597516877	 0.123632
H	-0.881253492	 2.1420732887	 0.7134364161	 0.117547
H	 0.7775003985	-0.2217559963	-0.3534232264	 0.1092
H	 0.2843260303	-0.0187608882	 1.3206437771	 0.099616
H	-2.1259758932	-0.0894996011	 0.6082610948	 0.085142
H	-2.2627970764	 0.4137949878	-1.7726750326	 0.107761
H	-0.9329240374	-0.6940890695	-2.1382684837	 0.11985
H	-3.8141985028	-1.3930048431	-1.4939961816	 0.099665
H	-2.6385382202	-2.2986069092	-2.4726738387	 0.115645
H	-1.5198313363	-2.2656211586	 1.3506532442	 0.091895
H	 0.7413148143	-2.7018463127	 0.5825215517	 0.072847
67.8802	78.7422	110.6287	119.2408	191.1124	233.801	277.3335	291.1848	373.746	452.0992	582.6837	659.0428	774.3444	789.0302	809.3965	850.9578	891.3668	930.9184	957.5005	987.6324	1001.034	1024.9253	1038.2115	1092.866	1130.7377	1160.0457	1164.9565	1201.0326	1233.2214	1264.6295	1290.9198	1303.2719	1325.5043	1358.8813	1367.6726	1393.9179	1402.5912	1415.0729	1417.7162	1486.3432	1491.626	1500.7011	1507.5784	1526.9331	1833.9993	2852.4834	3011.5958	3017.3923	3022.9535	3028.2506	3035.0132	3050.2806	3054.1926	3071.8328	3102.54	3109.0722	3114.3438
CCC1CCOC1C=O	CC[C@H]1CCO[C@H]1C=O	
InChI=1S/C7H12O2/c1-2-6-3-4-9-7(6)5-8/h5-7H,2-4H2,1H3	InChI=1S/C7H12O2/c1-2-6-3-4-9-7(6)5-8/h5-7H,2-4H2,1H3/t6-,7-/m0/s1
