19
gdb 109092	3.14281	1.19644	0.94964	1.9018	88.04	-0.2051	-0.0248	0.1804	1258.0486	0.160322	-385.904528	-385.896081	-385.895136	-385.937583	32.317	
O	 0.0402015775	 1.4299946163	 0.1002047082	-0.410991
C	 0.0069947718	 0.0187127225	 0.037729302	-0.15848
C	-1.4073404763	-0.4878965122	 0.004371417	 0.243323
C	-2.4733096121	 0.3318427246	-0.0859644504	-0.130054
C	-3.856020879	-0.0726483681	 0.0008174018	-0.096974
C	-4.3530669483	-1.1209285354	 0.71165978	-0.111797
C	-3.577284316	-2.030311814	 1.5220401429	-0.049292
C	-2.2984486518	-2.3808245491	 1.2908171764	-0.085752
C	-1.5830508365	-1.9898574486	 0.0231883112	-0.356037
H	 0.9560806406	 1.7119584218	 0.0277757793	 0.290349
H	 0.5373439597	-0.3552535882	-0.8578505935	 0.096455
H	 0.5212951281	-0.4342705565	 0.9043089303	 0.100091
H	-2.2820199647	 1.3930100363	-0.212953897	 0.107394
H	-4.5776526521	 0.6066072537	-0.4486070328	 0.087414
H	-5.4348756136	-1.2100628512	 0.7805893766	 0.085211
H	-4.0754324266	-2.4337665555	 2.4015411259	 0.087294
H	-1.762186765	-2.9770962974	 2.024024208	 0.08889
H	-2.1805039044	-2.2952698113	-0.8468586421	 0.11967
H	-0.6154172413	-2.4961966177	-0.0498624135	 0.093287
79.5535	145.02	185.2854	223.094	258.1315	319.0677	374.168	378.12	476.6217	505.7949	613.2254	657.9207	738.6805	794.113	811.6094	891.1284	901.0355	937.9093	962.3106	982.5543	1000.8244	1005.737	1037.1679	1081.7512	1096.6057	1150.3688	1219.6335	1224.7705	1250.4867	1254.0944	1282.5734	1328.5123	1362.3902	1406.3677	1455.8641	1470.5632	1473.9265	1502.0316	1587.311	1675.3419	1690.7682	2928.8994	2946.8489	3003.2221	3074.1536	3133.6393	3141.51	3158.7802	3170.2575	3182.2907	3841.0162
OCC1=CC=CC=CC1	OCC1=CC=CC=CC1	
InChI=1S/C8H10O/c9-7-8-5-3-1-2-4-6-8/h1-5,9H,6-7H2	InChI=1S/C8H10O/c9-7-8-5-3-1-2-4-6-8/h1-5,9H,6-7H2
