19
gdb 118019	3.12264	0.95285	0.75829	5.627	73.16	-0.254	0.0196	0.2736	1476.7772	0.157803	-456.330677	-456.320285	-456.31934	-456.366598	36.663	
C	-0.6086433782	 1.2004783629	-0.7251489958	-0.238854
O	-0.7178873894	-0.2085165053	-0.6808058135	-0.249222
C	-0.8863720138	-0.7186654599	 0.6313702675	-0.059787
C	-1.0289818099	-2.2428611573	 0.5899984456	-0.051976
N	-1.1416356046	-2.7045152726	 1.9675240858	-0.518165
C	-2.2082076019	-2.6721298553	-0.3409762402	-0.008762
O	-1.9884176999	-2.3835310883	-1.7002732318	-0.430049
C	-2.4229317175	-4.1246429565	-0.2105596633	 0.280237
N	-2.573580195	-5.2596860043	-0.0564361165	-0.323836
H	-0.4691457911	 1.4839331409	-1.7700736781	 0.140846
H	-1.5151710955	 1.6866447762	-0.3360602666	 0.117569
H	 0.254038864	 1.5476046491	-0.1392983883	 0.122203
H	-0.0238656083	-0.4620901078	 1.2612870209	 0.120956
H	-1.782648149	-0.2727435671	 1.0980469796	 0.090842
H	-0.1149020324	-2.6655151055	 0.1582323667	 0.119354
H	-2.0355502209	-2.4300908558	 2.3673087574	 0.231494
H	-1.1072801398	-3.7183972026	 2.0033595033	 0.255245
H	-3.1251241619	-2.1812237243	 0.0367171433	 0.098991
H	-1.5900013846	-1.4988478965	-1.7183914361	 0.302914
44.9905	85.3525	127.4036	145.4917	186.8852	231.1237	257.813	279.4831	311.0416	337.3519	381.7245	455.2573	493.644	524.8193	578.9621	611.3299	845.1757	881.5032	948.2645	981.8853	1022.3239	1089.0295	1108.321	1146.643	1154.6081	1182.1106	1198.7461	1238.2712	1241.3594	1304.27	1320.3105	1364.5115	1386.6354	1424.1534	1463.6187	1485.3233	1486.8312	1501.7432	1525.7065	1664.8471	2361.0026	2925.7478	2953.5312	2991.6034	3031.6873	3045.5655	3063.6549	3130.831	3489.7632	3574.5674	3680.5763
COCC(N)C(O)C#N	COC[C@@H](N)[C@@H](O)C#N	
InChI=1S/C5H10N2O2/c1-9-3-4(7)5(8)2-6/h4-5,8H,3,7H2,1H3	InChI=1S/C5H10N2O2/c1-9-3-4(7)5(8)2-6/h4-5,8H,3,7H2,1H3/t4-,5+/m1/s1
