17
gdb 14983	4.43862	1.42878	1.13715	2.9346	64.72	-0.2451	0.0288	0.2739	1018.8836	0.143872	-401.004038	-400.99636	-400.995416	-401.036223	28.049	
O	-0.0579432422	 1.4364802625	-0.0030230796	-0.424275
C	 0.0134920138	 0.0184856558	 0.0308159575	-0.095129
C	-1.4076784322	-0.5288931959	 0.0101724745	-0.024291
C	-2.1438034165	-0.1241806876	-1.2647035	-0.069235
O	-3.4658354143	-0.6824999106	-1.305049638	-0.225432
C	-3.5961260351	-1.9272130327	-0.7895006764	 0.129468
N	-2.7559045036	-2.6349120918	-0.1633750781	-0.275071
C	-1.4443615276	-2.0590962313	 0.1201970004	-0.169774
H	 0.8373744837	 1.7870433891	-0.0094180765	 0.290647
H	 0.5715858868	-0.3727365628	-0.8366447566	 0.088185
H	 0.5285870975	-0.3363177956	 0.9375947179	 0.094042
H	-1.9485307081	-0.0995902057	 0.8628759142	 0.099829
H	-2.2658192328	 0.9565963844	-1.3367183856	 0.136488
H	-1.592995134	-0.4727988791	-2.1499544828	 0.104296
H	-4.6013289908	-2.2995830105	-0.9800440198	 0.121805
H	-0.7107293602	-2.5092732652	-0.5647182417	 0.10671
H	-1.1502237143	-2.3762445729	 1.1274911206	 0.111736
99.5116	138.9341	175.1861	215.5094	269.9235	380.9615	411.7354	488.2006	506.3746	554.3105	793.3435	895.6197	908.3598	935.3937	961.4965	981.6178	991.0588	1075.521	1094.3162	1130.6075	1156.098	1179.4205	1227.8391	1245.2412	1257.3478	1307.9135	1321.2543	1356.183	1374.5227	1408.6342	1423.8546	1458.1728	1486.0642	1512.4494	1521.7829	1736.6394	2957.266	2990.2462	3000.656	3009.4558	3037.6255	3054.3948	3132.0455	3156.6343	3832.7194
OCC1COC=NC1	OC[C@H]1COC=NC1	
InChI=1S/C5H9NO2/c7-2-5-1-6-4-8-3-5/h4-5,7H,1-3H2	InChI=1S/C5H9NO2/c7-2-5-1-6-4-8-3-5/h4-5,7H,1-3H2/t5-/m0/s1
