20
gdb 86345	2.05126	1.55278	0.98499	0.9437	74.39	-0.2457	0.058	0.3037	1217.8169	0.171181	-440.231852	-440.2228	-440.221856	-440.265719	34.45	
O	 0.8746562439	 0.8073750116	-0.6897477351	-0.426747
C	 0.2956403918	-0.2054150576	 0.0915431923	 0.148156
C	-0.0067295724	 0.0312197333	 1.594355124	-0.321876
C	-1.2528759267	-0.8819771957	 1.4202736494	 0.159735
O	-2.4362597108	-0.6269837983	 2.1284935162	-0.438389
C	-1.2005817142	-0.6195738439	-0.1230823021	-0.135859
C	-2.0965502194	 0.5202495563	-0.5420372587	 0.003309
C	-2.8408198232	 0.5035276655	-1.8230255903	-0.250276
N	-3.5651058597	 0.3234248234	-0.5523292913	-0.333318
H	 0.4066514259	 1.6313725751	-0.5227493755	 0.282541
H	 0.9421853476	-1.0768335549	-0.0415662322	 0.097593
H	 0.7493456833	-0.244697473	 2.3319296521	 0.106815
H	-0.3115452724	 1.0691373404	 1.7747308742	 0.094301
H	-0.9934405684	-1.9219459868	 1.638529743	 0.092205
H	-2.8435470161	 0.1716867941	 1.7738691334	 0.296634
H	-1.3809650991	-1.4873081918	-0.7656950117	 0.065689
H	-1.8294104061	 1.5005299234	-0.1467945406	 0.078893
H	-3.0553398364	 1.4322165547	-2.3437454195	 0.122443
H	-2.7056522623	-0.3584960693	-2.4709262701	 0.119212
H	-3.7668319951	-0.6638361063	-0.4086167675	 0.238939
73.2728	112.0798	155.0384	190.3199	268.301	302.519	338.4815	355.3413	396.8616	440.4453	491.5565	622.6409	637.334	769.6855	793.0372	841.6381	888.1036	904.7667	951.3982	963.7083	997.7304	1040.3634	1066.4174	1082.4628	1105.4989	1130.642	1159.2763	1167.7806	1174.5081	1201.7339	1248.0007	1252.7404	1255.9364	1280.4138	1296.588	1323.0716	1329.3243	1337.8723	1431.1122	1440.9512	1453.814	1484.1277	1511.1397	3039.5388	3049.9382	3068.2537	3079.5029	3096.583	3111.5552	3117.0573	3197.3105	3493.4625	3796.506	3822.0285
OC1CC(O)C1C1CN1	O[C@H]1C[C@@H](O)[C@H]1[C@H]1CN1	
InChI=1S/C6H11NO2/c8-4-1-5(9)6(4)3-2-7-3/h3-9H,1-2H2	InChI=1S/C6H11NO2/c8-4-1-5(9)6(4)3-2-7-3/h3-9H,1-2H2/t3-,4-,5+,6-/m1/s1
