21
gdb 99331	6.59804	0.52784	0.49614	2.7847	85.88	-0.2456	-0.0107	0.2349	2202.6739	0.178416	-387.08808	-387.076914	-387.07597	-387.126522	38.599	
C	 0.1770246283	 1.5286407977	 0.0078194935	-0.37532
C	-0.0224943762	 0.0150938996	 0.0023184554	-0.274161
C	-1.4871372193	-0.4072949326	 0.0138413334	 0.367677
O	-2.3871449184	 0.4013216434	 0.0270970656	-0.293737
C	-1.7553995811	-1.9093423178	 0.0081671985	-0.302626
C	-3.2405702679	-2.2669936856	 0.020792252	-0.166535
C	-3.4702732846	-3.7913222157	 0.0146536232	-0.364149
C	-4.8825935403	-4.1529345764	 0.0265311143	 0.291493
C	-6.0529393347	-4.4264369891	 0.0365638665	-0.430234
H	 1.2415793802	 1.7785957578	-0.0003995494	 0.109386
H	-0.2938684678	 1.9869067271	-0.8654629825	 0.131719
H	-0.2783470398	 1.9784229887	 0.8936431066	 0.131773
H	 0.453008534	-0.4450752986	-0.8750666688	 0.119549
H	 0.4689028598	-0.4534054562	 0.8664590794	 0.119602
H	-1.2542341197	-2.3399644137	-0.8708675285	 0.11861
H	-1.2370856546	-2.3496180924	 0.8723555469	 0.118604
H	-3.7184832039	-1.8273559324	 0.9009233583	 0.125543
H	-3.735636839	-1.8177407231	-0.8448825014	 0.125548
H	-2.9894893902	-4.2327053941	-0.8689312915	 0.126837
H	-2.9722854824	-4.2423526195	 0.8837191434	 0.126837
H	-7.0847552525	-4.6759915269	 0.0452688352	 0.193585
22.8219	48.1883	78.6041	85.8591	108.3299	178.452	186.6336	273.6675	288.3939	348.568	396.907	470.1258	536.4072	616.5905	635.4145	645.1369	702.8244	762.3363	820.4421	850.3693	960.039	985.8416	1003.3199	1007.9855	1045.3559	1088.7193	1112.7763	1128.0211	1175.1159	1267.461	1273.9363	1302.2884	1322.6578	1350.8449	1373.9494	1393.4218	1414.6028	1446.8095	1459.5658	1473.7599	1491.8838	1496.2111	1497.4986	1807.1084	2240.0028	3006.1739	3010.8938	3019.4086	3032.4968	3038.376	3046.2172	3051.8021	3067.3581	3109.3364	3122.8438	3128.0966	3507.4426
CCC(=O)CCCC#C	CCC(=O)CCCC#C	
InChI=1S/C8H12O/c1-3-5-6-7-8(9)4-2/h1H,4-7H2,2H3	InChI=1S/C8H12O/c1-3-5-6-7-8(9)4-2/h1H,4-7H2,2H3
