16
gdb 42841	3.12188	1.87211	1.68718	4.4772	67.	-0.2337	0.0014	0.2351	845.3996	0.126746	-437.822124	-437.816018	-437.815074	-437.8523	25.872	
O	-0.0009258165	 0.0374562637	-0.0731587348	-0.308098
C	-0.0166610847	 1.2217918201	-0.0916053944	 0.503232
C	-1.0727630462	 2.3693914783	 0.0654699448	-0.162004
N	-0.0249499617	 2.9338931866	 0.9625145891	-0.308273
C	 1.0128953323	 2.3966684959	 0.0375662401	-0.162004
C	 0.9407398301	 3.0845721801	-1.3751159022	 0.084449
C	-0.0731585949	 4.2478934801	-1.3562675539	-0.254035
C	-1.0564337966	 3.0584517833	-1.3483943355	 0.084449
O	-0.0582399441	 2.3119912142	-2.1336182654	-0.30047
H	-2.0565105412	 2.2074527867	 0.5070958298	 0.092424
H	-0.0366872364	 3.9443176702	 1.0729298546	 0.2246
H	 2.0120023662	 2.2606632773	 0.4526621596	 0.092424
H	 1.8953246041	 3.1664245798	-1.8960769701	 0.093362
H	-0.072026783	 4.9851685674	-0.5509665557	 0.098155
H	-0.0926837519	 4.7526525646	-2.3221501107	 0.128426
H	-2.0264253855	 3.1151338315	-1.8436071853	 0.093363
186.4834	267.3231	438.4301	476.541	481.3077	515.8802	580.7012	606.3903	745.4859	761.2719	787.6162	865.1012	869.9741	872.7185	912.032	912.0325	948.2444	989.7977	999.7661	1018.1467	1051.0587	1089.8955	1091.9527	1118.2311	1188.4482	1211.8495	1229.221	1270.6386	1287.085	1288.1295	1305.3063	1309.106	1343.6802	1498.3809	1944.7045	3074.7976	3106.347	3107.3987	3118.1691	3121.4365	3142.4408	3501.6145
O=C1C2NC1C1CC2O1	O=C1[C@H]2N[C@@H]1[C@@H]1C[C@H]2O1	
InChI=1S/C6H7NO2/c8-6-4-2-1-3(9-2)5(6)7-4/h2-5,7H,1H2	InChI=1S/C6H7NO2/c8-6-4-2-1-3(9-2)5(6)7-4/h2-5,7H,1H2/t2-,3+,4+,5-
