18
gdb 46197	3.10654	1.61572	1.22375	3.4314	77.	-0.2411	0.029	0.2702	1025.2412	0.149528	-401.91679	-401.909391	-401.908447	-401.948722	28.984	
O	-0.0904661771	-0.0028566139	 0.0227283022	-0.373758
C	-0.0586126651	 1.2012893392	 0.0302627476	 0.36131
N	-1.0446835401	 2.1597664057	 0.056538228	-0.342138
C	-0.151688209	 3.3215187326	 0.0461705096	-0.27369
C	 1.0236427511	 2.3023612785	 0.0160490491	 0.251737
C	 2.2753783387	 2.3315274761	 0.9333083021	-0.106235
C	 2.8970486929	 1.273974268	-0.0285475079	-0.229292
C	 2.237357163	 2.3438477855	-0.9505981779	-0.106145
C	 2.8470996606	 3.4283147899	-0.0134304679	-0.229556
H	-2.0500092885	 2.0830710017	 0.0754242626	 0.250541
H	-0.2487199878	 3.9533166755	-0.8432892955	 0.113209
H	-0.2130978784	 3.9418513056	 0.9467876677	 0.113216
H	 2.2795052989	 2.3233088043	 2.0239492522	 0.078444
H	 3.9892483254	 1.2364018578	-0.0508373659	 0.088281
H	 2.4443746344	 0.2828308595	-0.025903222	 0.137449
H	 2.1973997018	 2.3498839274	-2.0405279376	 0.078446
H	 2.3591802498	 4.4067515231	 0.0028221992	 0.093582
H	 3.9359648094	 3.5275326836	-0.0347492755	 0.094599
93.8051	166.1462	191.0891	239.1562	359.3231	445.8196	463.8589	577.1029	654.1713	693.941	789.6587	793.177	815.1327	884.4624	900.6489	906.5685	965.5808	995.8057	1021.2386	1027.0588	1051.4743	1084.7247	1094.8826	1118.6564	1119.1343	1160.7234	1171.1026	1190.5082	1201.6175	1213.315	1242.6923	1251.6231	1287.239	1315.757	1389.2382	1498.2461	1524.9274	1534.8106	1875.601	3031.1216	3048.3093	3065.2609	3076.6273	3104.9008	3109.2718	3112.3158	3154.5934	3622.8872
O=C1NCC11C2CC1C2	O=C1NC[C@]21[C@H]1C[C@@H]2C1	
InChI=1S/C7H9NO/c9-6-7(3-8-6)4-1-5(7)2-4/h4-5H,1-3H2,(H,8,9)	InChI=1S/C7H9NO/c9-6-7(3-8-6)4-1-5(7)2-4/h4-5H,1-3H2,(H,8,9)/t4-,5+,7-
