17
gdb 108040	3.61932	1.40522	1.29536	1.576	70.83	-0.2492	-0.0124	0.2367	1007.4822	0.137716	-417.95701	-417.949785	-417.948841	-417.989026	28.317	
O	 0.0785322529	 1.2959352358	-0.3304548759	-0.414227
C	 0.0397107963	-0.0203447103	 0.193385479	-0.16801
C	-1.357703583	-0.5653510357	 0.2241991889	 0.312397
C	-2.474881035	-0.2575372036	 1.223873677	-0.279703
C	-3.2431690975	-1.5023993604	 0.6535738501	-0.037273
N	-4.1074066792	-0.9803471835	-0.4204967641	-0.188525
C	-3.2938475243	-0.6316131974	-1.3326759368	 0.035274
N	-1.9073149936	-0.9553334059	-1.1523956926	-0.205675
C	-1.9056558922	-1.9200935803	-0.0381263351	-0.11073
H	-0.2700259599	 1.2407759501	-1.227687881	 0.289909
H	 0.6791568187	-0.7063618859	-0.3812493612	 0.100162
H	 0.44017018	 0.0434204077	 1.2107711708	 0.113804
H	-2.111701161	-0.4454383262	 2.2373211284	 0.116302
H	-2.9942695165	 0.7024606615	 1.178037033	 0.116467
H	-3.7588536697	-2.1646442007	 1.3439025677	 0.087394
H	-3.583406098	-0.110361371	-2.2393619087	 0.129077
H	-1.4351621379	-2.8901337341	-0.1573528895	 0.103357
60.8848	134.7973	292.3445	329.9446	400.0163	418.5669	444.8864	566.3413	642.881	708.2979	749.688	824.3592	865.2211	879.6293	901.9306	921.8458	936.1715	958.7909	962.5269	1021.4097	1046.56	1064.335	1095.1515	1134.7999	1159.1189	1184.8706	1206.8313	1240.918	1268.0009	1287.8156	1313.2962	1366.1666	1401.1346	1434.2961	1483.8448	1491.8096	1665.64	2998.4879	3064.2261	3076.1379	3124.302	3152.5329	3172.9734	3197.6646	3798.7607
OCC12CC3N=CN1C23	OC[C@@]12C[C@H]3[N][CH]N1[C@@H]23	
InChI=1S/C6H8N2O/c9-2-6-1-4-5(6)8(6)3-7-4/h3-5,9H,1-2H2	InChI=1S/C6H8N2O/c9-2-6-1-4-5(6)8(6)3-7-4/h3-5,9H,1-2H2/t4-,5-,6-,8?/m1/s1
