18
gdb 118608	1.69384	1.32055	0.7831	3.5525	75.97	-0.2417	-0.0013	0.2404	1441.0027	0.146168	-435.252471	-435.242178	-435.241234	-435.289372	34.773	
C	 0.3078963332	 0.7194716013	-0.6207763453	-0.329449
N	-0.2762431793	 0.1936579785	 0.6138545207	-0.287583
C	 0.6542339491	-0.4765892283	 1.5050837289	-0.182915
C	 0.692373351	-1.991293946	 1.2339406998	-0.019885
O	 1.2941382589	-2.2020190763	-0.0398704065	-0.184536
C	 1.0740813916	-3.4033308615	-0.6338929365	 0.138407
N	 1.5632532864	-3.6231584306	-1.7717625826	-0.433787
C	 1.4443242641	-2.7002747521	 2.2881086591	 0.273858
N	 2.0222047535	-3.2512856932	 3.1230122573	-0.308048
H	 0.6689535481	-0.102709912	-1.2408275413	 0.160005
H	-0.4653953031	 1.2548179706	-1.1786378011	 0.120172
H	 1.1517570985	 1.4093506647	-0.4488813561	 0.101304
H	-0.7346804269	 0.943282633	 1.1154879498	 0.22768
H	 1.6856274546	-0.0936837888	 1.4395432305	 0.120029
H	 0.3229989567	-0.3494486223	 2.5403870181	 0.124074
H	-0.340587734	-2.3611555017	 1.2293907655	 0.136065
H	 0.4621686844	-4.0865113719	-0.0313908945	 0.105904
H	 1.3124840432	-4.5571006036	-2.0891151855	 0.238705
42.3887	67.6126	79.9288	110.6331	135.1373	192.2591	221.2666	248.2259	344.7062	372.8977	482.6521	511.157	545.0437	643.7767	729.2164	820.3697	884.782	938.3354	972.6158	1028.6593	1038.4258	1071.2071	1122.5012	1155.9378	1169.6349	1195.9175	1263.499	1279.7375	1325.2074	1369.3545	1399.9923	1425.978	1457.1034	1476.961	1486.7577	1500.3582	1525.0084	1752.5349	2358.0846	2962.045	2979.1409	3035.3556	3045.6893	3084.7518	3086.4843	3140.5004	3524.023	3556.36
CNCC(OC=N)C#N	CNC[C@@H](O[CH][NH])C#N	
InChI=1S/C5H9N3O/c1-8-3-5(2-6)9-4-7/h4-5,7-8H,3H2,1H3	InChI=1S/C5H9N3O/c1-8-3-5(2-6)9-4-7/h4-5,7-8H,3H2,1H3/t5-/m0/s1
