14
gdb 43270	4.05217	1.21477	1.09483	3.3676	75.42	-0.238	-0.0678	0.1703	1081.4947	0.100615	-399.506814	-399.499388	-399.498444	-399.538652	28.695	
O	 0.0437121447	-0.0237046979	-0.0057541478	-0.320829
C	-0.0111017944	 1.1807386283	 0.0211877244	 0.437083
C	-1.2272230711	 2.0399544426	 0.1059731201	-0.207131
C	-0.8972297278	 3.3320597316	-0.0017462088	-0.110118
C	 0.5941932979	 3.5119602354	-0.1179788089	 0.158401
N	 1.2769435402	 3.0150734542	 1.1239485953	-0.357081
C	 1.1715027223	 2.1386250401	-0.0683620155	-0.234059
C	 1.1590323521	 4.5874165328	-0.8710726039	 0.18356
C	 1.6167695832	 5.5105950792	-1.491235899	-0.384151
H	-2.2169963655	 1.6290342427	 0.2539914111	 0.12896
H	-1.5724289534	 4.1781856938	 0.0260447053	 0.133552
H	 2.2218546702	 3.4024404238	 1.1425916528	 0.24586
H	 2.0631939579	 1.8520076602	-0.6120165435	 0.125602
H	 2.0252326438	 6.3186324832	-2.0466216215	 0.20035
104.001	145.6433	210.4367	326.8429	400.6866	416.9863	495.2329	522.4005	572.4535	605.3924	645.7737	676.0164	726.8687	761.6662	826.7911	845.4749	875.5324	921.8551	984.7228	1003.5773	1066.4029	1085.9381	1127.2177	1183.8821	1277.5533	1292.9644	1350.8897	1393.9571	1637.6305	1828.9182	2240.1894	3201.7441	3212.1298	3237.7026	3458.9656	3500.3517
O=C1C=CC2(NC12)C#C	O=C1C=C[C@]2(N[C@@H]12)C#C	
InChI=1S/C7H5NO/c1-2-7-4-3-5(9)6(7)8-7/h1,3-4,6,8H	InChI=1S/C7H5NO/c1-2-7-4-3-5(9)6(7)8-7/h1,3-4,6,8H/t6-,7+/m0/s1
