18
gdb 124866	3.60086	1.2175	1.20523	4.4733	77.05	-0.2542	0.0021	0.2563	1118.4112	0.148592	-398.118004	-398.109972	-398.109028	-398.151264	30.318	
C	-0.208404145	 1.4563579356	 0.463288952	-0.442494
C	 0.000194045	 0.0208633456	 0.0268871874	 0.340413
C	 1.3252312344	-0.425801173	-0.5421668869	-0.308382
C	 0.8862532823	-0.8938426679	 0.8245248458	-0.280461
N	-1.1772856706	-0.5883459783	-0.547120588	 0.025573
C	-1.6117593265	-0.5451081912	-1.8312330965	-0.099128
C	-2.8205649805	-1.1946619147	-1.8036154953	-0.076602
N	-3.0698872432	-1.5934259696	-0.5253290234	-0.190554
N	-2.0801526207	-1.2215973365	 0.2350421754	-0.1489
H	 0.7105353103	 1.8588921524	 0.8980817445	 0.122751
H	-0.4907451256	 2.0906774511	-0.383590823	 0.124681
H	-1.0010408075	 1.5144915532	 1.2151428297	 0.146782
H	 1.3139882908	-1.1498187519	-1.3485380005	 0.127901
H	 2.1104237141	 0.3185490916	-0.6130858184	 0.122664
H	 1.3706619743	-0.4741215154	 1.6986833959	 0.124369
H	 0.5667159808	-1.9224245923	 0.9320057701	 0.143804
H	-1.0394828701	-0.081765873	-2.6168104923	 0.143286
H	-3.5078389122	-1.4016231759	-2.6077980064	 0.124298
37.0064	127.0844	194.0125	225.1381	297.9637	319.6344	400.8017	508.463	542.7112	669.952	724.0177	779.3981	792.2259	829.3229	859.9882	884.4347	946.4506	952.9931	962.0258	1032.2765	1046.5543	1066.5553	1079.6272	1086.1877	1131.076	1135.8355	1188.354	1194.8128	1257.0594	1297.2741	1332.8909	1364.1289	1416.4004	1464.1682	1477.0901	1484.2198	1496.6694	1508.8705	1521.6463	3037.8372	3106.5729	3121.2375	3140.4844	3151.6294	3226.029	3244.9272	3268.2424	3292.1444
CC1(CC1)N1C=CN=N1	CC1(CC1)n1ccnn1	
InChI=1S/C6H9N3/c1-6(2-3-6)9-5-4-7-8-9/h4-5H,2-3H2,1H3	InChI=1S/C6H9N3/c1-6(2-3-6)9-5-4-7-8-9/h4-5H,2-3H2,1H3
