21
gdb 41795	2.2268	1.98387	1.44305	1.5868	82.48	-0.2364	0.0312	0.2676	1010.1002	0.186416	-387.111213	-387.10371	-387.102766	-387.143238	30.135	
C	-0.0196582032	 1.5486630767	-0.3182800589	-0.069979
O	 1.332144482	 1.9919053294	-0.2423269182	-0.272629
C	 2.2073739031	 0.8911425466	 0.0169408372	 0.116557
C	 1.408903424	-0.3635643615	-0.3598769791	-0.248939
C	-0.0320328212	 0.0395523782	-0.0007150685	-0.029989
C	-0.4138299053	-0.2797302907	 1.4507406343	-0.267477
C	 0.4542064289	 0.2426502526	 2.5673216567	-0.046298
C	 1.6997568547	 0.722208891	 2.572799471	-0.040585
C	 2.699399003	 0.9279109136	 1.465186941	-0.263106
H	-0.6304824077	 2.1237122653	 0.3889949779	 0.098242
H	-0.4012072794	 1.743474865	-1.3305855413	 0.088804
H	 3.0813119206	 1.0173440379	-0.6339947972	 0.071786
H	 1.4955442475	-0.5509742054	-1.4346838895	 0.100539
H	 1.7476902774	-1.2590234197	 0.1680747324	 0.102525
H	-0.7521319526	-0.4718014907	-0.6468616066	 0.071019
H	-1.4386018673	 0.0778945087	 1.623712606	 0.103332
H	-0.4800477332	-1.3736638737	 1.5606809206	 0.107334
H	-0.033729186	 0.1774338193	 3.5394771272	 0.081127
H	 2.0950907125	 1.0013659811	 3.5491341736	 0.082655
H	 3.5029395078	 0.1823945444	 1.5765094866	 0.102041
H	 3.1862988343	 1.8995683321	 1.6200031547	 0.113041
85.297	116.4576	277.7203	314.1494	360.0474	388.3445	420.1223	519.6036	670.5546	709.9295	740.0994	791.3604	831.191	848.2891	870.3738	882.1753	925.4187	937.4041	972.2537	1008.8432	1023.4326	1035.6079	1064.2976	1083.3067	1101.5265	1132.3457	1193.4752	1204.2352	1228.3989	1244.1269	1262.0286	1286.6025	1329.8116	1346.4559	1361.0534	1372.1924	1385.6274	1406.6496	1415.2536	1443.6743	1456.9132	1471.0767	1489.9891	1527.364	1738.394	2985.8182	2987.0993	2995.2094	3018.4451	3023.96	3038.7443	3039.2572	3049.5315	3063.9175	3101.4246	3112.4167	3137.8539
C1OC2CC1CC=CC2	C1O[C@@H]2C[C@H]1CC=CC2	
InChI=1S/C8H12O/c1-2-4-8-5-7(3-1)6-9-8/h1-2,7-8H,3-6H2	InChI=1S/C8H12O/c1-2-4-8-5-7(3-1)6-9-8/h1-2,7-8H,3-6H2/t7-,8+/m1/s1
