19
gdb 90412	2.12798	1.73578	1.41066	2.5168	74.8	-0.2345	-0.0195	0.215	1032.2769	0.158307	-423.018136	-423.009454	-423.00851	-423.051682	32.855	
C	 0.6247296648	 1.5764574138	 0.1543186977	-0.415861
C	 0.2147618207	 0.1142493805	 0.0229185886	-0.111627
C	 0.6222549046	-0.7537688443	-1.2186606762	-0.052492
C	 1.9913567457	-0.4442623095	-1.8708245521	-0.23877
C	 2.7066927142	-1.3613987978	-0.8486554224	 0.121652
O	 3.5422738517	-0.6196851593	 0.0127015317	-0.423537
C	 1.3115808234	-1.7989276338	-0.26040014	-0.229295
C	 0.9246669914	-0.9141720034	 0.9239726877	 0.428599
O	 1.122303572	-0.9869437643	 2.1042770538	-0.32377
H	 1.7102532081	 1.6876093911	 0.0900939032	 0.140243
H	 0.1632222505	 2.18986951	-0.6263781031	 0.116648
H	 0.3083508403	 1.9676439059	 1.1257270665	 0.132848
H	-0.8674570222	 0.0142169613	 0.1846910542	 0.104455
H	-0.1958460008	-1.0247393092	-1.88455455	 0.07371
H	 2.0641673819	-0.8246744945	-2.8923242689	 0.105987
H	 2.3291080837	 0.5940038614	-1.8608897165	 0.114101
H	 3.2492871701	-2.2011284641	-1.3019716786	 0.077984
H	 3.7002288071	-1.1356990255	 0.8115634356	 0.294407
H	 1.101873973	-2.867722198	-0.2134371211	 0.084716
51.6488	113.5634	186.583	203.5721	242.4074	301.3916	366.8954	410.437	454.7812	516.8143	581.1623	633.8679	736.1201	760.7765	816.4407	868.4304	873.5426	923.5447	967.0886	980.5391	1036.9487	1052.885	1074.7799	1091.4359	1125.1629	1130.3073	1155.0845	1206.2433	1209.5683	1240.4872	1244.8332	1282.0982	1311.8377	1322.9103	1335.5907	1403.8966	1406.4086	1471.0577	1492.0474	1506.6676	1875.5307	3007.86	3018.1587	3039.9132	3070.6956	3109.2121	3109.5255	3118.1233	3120.7993	3127.1615	3801.9679
CC1C2CC(O)C2C1=O	C[C@H]1[C@H]2C[C@@H](O)[C@H]2C1=O	
InChI=1S/C7H10O2/c1-3-4-2-5(8)6(4)7(3)9/h3-6,8H,2H2,1H3	InChI=1S/C7H10O2/c1-3-4-2-5(8)6(4)7(3)9/h3-6,8H,2H2,1H3/t3-,4+,5+,6-/m0/s1
