22
gdb 111748	2.57587	1.14471	0.95094	2.1806	81.85	-0.2317	0.0681	0.2997	1351.7671	0.193829	-404.301144	-404.291461	-404.290517	-404.336056	36.057	
C	 0.3256293775	 1.1056110637	-0.5530939946	-0.379471
C	-0.2834257245	 0.033872261	 0.3614888734	-0.283516
C	 0.684109911	-0.4403071083	 1.4111552419	 0.339196
C	 1.8399761206	-1.4113709266	 1.1359824977	-0.312413
C	 1.4211593108	-2.136764677	 2.4352798306	-0.159638
N	 0.247221536	-1.2159440452	 2.6572184271	-0.212529
C	 0.7837270877	 0.173754456	 2.7524444928	-0.066455
C	 2.0346732389	 0.5298250482	 3.5174717204	-0.089884
O	 1.8235182957	 0.4528151808	 4.9207681259	-0.422864
H	 1.2155252299	 0.728834059	-1.0687604325	 0.119063
H	-0.3908088862	 1.4231460456	-1.3162631883	 0.117564
H	 0.6233319509	 1.9902238362	 0.0194460963	 0.119597
H	-1.1790530245	 0.4250922673	 0.8571848563	 0.109281
H	-0.6102457426	-0.8245915482	-0.2395668755	 0.099575
H	 1.6653103267	-2.0167643868	 0.2435982934	 0.10943
H	 2.8470894228	-0.9895510058	 1.0755065847	 0.104865
H	 1.0501281988	-3.1502025644	 2.2721034908	 0.113182
H	 2.1448774415	-2.1635134654	 3.2564517146	 0.102083
H	-0.0378084588	 0.8489846818	 2.9883943816	 0.099211
H	 2.8930526681	-0.0836531856	 3.2119012452	 0.090086
H	 2.2997724838	 1.572129851	 3.3076641361	 0.111911
H	 1.3715764558	-0.3797943972	 5.0955390022	 0.291726
57.6549	81.2414	128.7479	172.3863	212.5155	261.158	303.3683	321.9387	330.3665	403.933	475.4133	565.1127	660.8724	709.4604	785.1509	795.0686	817.2495	863.9911	928.8395	956.9402	985.7276	993.4835	1031.8165	1056.6485	1080.7346	1081.1633	1114.6102	1158.8935	1173.6078	1215.7909	1224.5564	1237.1302	1258.504	1288.1349	1316.0736	1339.9126	1353.052	1371.5134	1410.4036	1417.6535	1472.6851	1482.109	1489.9802	1499.1932	1504.918	1507.9146	1524.7508	3009.2715	3022.4149	3034.4608	3047.223	3058.6898	3063.3499	3064.4732	3099.0452	3102.2872	3109.5792	3117.042	3122.6191	3808.3716
CCC12CCN1C2CO	CC[C@]12CCN1[C@H]2CO	
InChI=1S/C7H13NO/c1-2-7-3-4-8(7)6(7)5-9/h6,9H,2-5H2,1H3	InChI=1S/C7H13NO/c1-2-7-3-4-8(7)6(7)5-9/h6,9H,2-5H2,1H3/t6-,7+,8?/m0/s1
