23
gdb 72484	2.48485	1.69515	1.42258	1.3295	83.75	-0.2383	0.0754	0.3137	1057.5392	0.209139	-388.320916	-388.313122	-388.312178	-388.352403	32.952	
C	-0.0636844829	 1.517197389	 0.0168763112	-0.463956
C	 0.0129078205	-0.007233816	-0.0124845901	 0.316776
C	 0.8481810657	-0.5537152567	-1.2080755393	-0.242363
C	 1.4281526217	-1.9146805874	-0.7234380255	-0.244405
C	 0.8950727707	-2.0809337953	 0.71946747	 0.118505
C	 0.7548387786	-0.6285173193	 1.1914644249	-0.238149
O	-0.3756269141	-2.7303288649	 0.7715845781	-0.269456
C	-1.342940172	-2.1626034285	-0.0995480326	-0.08272
C	-1.402980278	-0.6307035701	-0.0169374609	-0.240253
H	 0.9369880713	 1.9597215404	 0.078733646	 0.107286
H	-0.54716559	 1.9085426096	-0.8859075617	 0.109388
H	-0.6398626508	 1.8708776408	 0.8792553442	 0.110373
H	 0.2416128644	-0.6537018669	-2.1139839715	 0.094129
H	 1.6542515094	 0.1485083491	-1.4443499665	 0.092687
H	 1.1387420183	-2.7619911091	-1.3504871785	 0.107607
H	 2.5216859315	-1.8899916714	-0.7048725619	 0.0983
H	 1.5485752923	-2.6928399602	 1.3455381877	 0.070892
H	 1.7421555884	-0.1683999887	 1.324175876	 0.084279
H	 0.2037386953	-0.5483612164	 2.1329040284	 0.093805
H	-1.1415017108	-2.4667113519	-1.1389319393	 0.087887
H	-2.3008063432	-2.6092966948	 0.1836003642	 0.104064
H	-1.9233289628	-0.3274397631	 0.899932068	 0.096361
H	-1.9908150537	-0.2514810881	-0.8625593912	 0.088965
183.7212	236.0297	271.7249	278.3241	309.7908	385.689	404.5606	420.5598	459.0679	541.7976	612.1959	751.174	766.8224	785.6523	829.5974	877.2068	887.3396	898.0128	925.3268	948.561	980.7457	1006.2425	1022.6254	1037.3776	1062.1105	1091.9892	1111.0037	1165.6921	1171.348	1214.7572	1232.7284	1260.1136	1275.833	1285.102	1292.2974	1300.3572	1326.5422	1338.102	1376.5649	1380.7192	1413.2621	1417.7287	1472.3417	1481.7381	1485.3703	1495.7376	1498.4713	1502.0808	1517.6921	2974.7054	3017.0998	3020.7154	3027.6927	3040.4649	3057.6887	3059.9391	3075.0415	3078.3665	3086.171	3086.3408	3089.0025	3093.2323	3104.9775
CC12CCC(C1)OCC2	C[C@@]12CC[C@@H](C1)OCC2	
InChI=1S/C8H14O/c1-8-3-2-7(6-8)9-5-4-8/h7H,2-6H2,1H3	InChI=1S/C8H14O/c1-8-3-2-7(6-8)9-5-4-8/h7H,2-6H2,1H3/t7-,8-/m0/s1
