16
gdb 18885	3.46473	2.79752	2.59707	2.0839	62.18	-0.2482	0.0914	0.3396	650.9048	0.134415	-383.737307	-383.732191	-383.731247	-383.766168	22.23	
C	-0.013961706	 1.5437668503	 0.1006298027	-0.239201
C	 1.5240685846	 1.4435639587	-0.0228023696	 0.096331
O	 2.077573005	 1.0321308566	 1.2416381887	-0.276498
C	 1.7913119116	-0.3586155279	 1.3069030297	 0.186313
C	 2.2704549727	-0.8854787283	-0.0518525555	-0.246125
C	 1.3537111802	 0.0789810467	-0.7867018975	-0.099299
C	-0.0085964105	 0.0010906382	-0.0039471895	 0.096331
O	 0.3850628103	-0.5607812939	 1.2624583571	-0.276498
H	-0.4143088132	 1.9811199386	 1.0166884525	 0.11118
H	-0.462935073	 2.0092702597	-0.7824727987	 0.097016
H	 2.1152398932	 2.2689929073	-0.4211223234	 0.078121
H	 2.1902379016	-0.7703961271	 2.2318385793	 0.092386
H	 3.3340979681	-0.7062079788	-0.2205193903	 0.110209
H	 2.0249890507	-1.9382815394	-0.2044162297	 0.110209
H	 1.3193491549	 0.1013005437	-1.8724412297	 0.081403
H	-0.8734003361	-0.5437752803	-0.3843561061	 0.078121
361.091	380.1172	463.138	570.0939	598.6357	653.0668	783.487	826.1824	837.3808	852.3547	881.0596	903.9281	936.7552	945.4749	965.0017	976.3505	1007.0505	1017.5354	1061.2668	1097.4691	1107.4805	1140.5443	1164.4591	1220.1058	1233.0553	1258.7203	1262.8087	1293.8185	1299.306	1304.3322	1362.2105	1370.4971	1464.4054	1476.4299	3056.2689	3077.4192	3103.2792	3104.8919	3130.6349	3137.988	3153.6222	3161.5453
C1C2OC3CC2C1O3	C1[C@H]2O[C@@H]3C[C@H]2[C@H]1O3	
InChI=1S/C6H8O2/c1-3-4-2-5(3)8-6(1)7-4/h3-6H,1-2H2	InChI=1S/C6H8O2/c1-3-4-2-5(3)8-6(1)7-4/h3-6H,1-2H2/t3-,4-,5+,6+
