15
gdb 45766	3.39387	1.14608	0.89139	7.2603	72.44	-0.2522	-0.0259	0.2263	1224.175	0.114389	-413.02485	-413.01681	-413.015866	-413.05821	29.045	
N	-0.1356689209	 1.2628925389	 0.095770296	-0.540447
C	 0.0073897084	 0.0057425101	 0.0128881745	 0.378596
N	 1.1460251928	-0.7883337543	-0.1166602334	-0.348308
C	 0.7642480117	-2.1247098545	-0.0581681337	 0.064371
N	-0.4876984464	-2.3457675763	 0.0397634745	-0.235635
C	-1.1291240472	-1.0222976423	 0.053023614	-0.05312
C	-2.0319459636	-0.8108200704	 1.2823082015	-0.336991
C	-3.2303506079	-1.6443297565	 1.2596359577	 0.274234
N	-4.1889189667	-2.2886368101	 1.2410544792	-0.306094
H	 0.7513903858	 1.7654710783	 0.0481591484	 0.216303
H	 2.0935416195	-0.4490414634	-0.1149392015	 0.264372
H	 1.5228337369	-2.8994950162	-0.1012550459	 0.145974
H	-1.7408501533	-0.9188712578	-0.8507979831	 0.144424
H	-1.4656213149	-1.023396035	 2.1949736275	 0.153302
H	-2.3196125541	 0.2452801096	 1.3131662943	 0.179018
63.4105	102.4529	133.5415	233.0222	283.1083	393.2695	402.5605	434.4195	523.2227	611.4074	632.7732	687.3793	836.581	856.3213	885.9366	918.4723	942.5855	975.9757	1032.5571	1077.7236	1086.6621	1099.8886	1218.8172	1243.5283	1289.5273	1313.9651	1352.4915	1360.0417	1412.5483	1459.9725	1681.7646	1766.4763	2367.7001	3046.4004	3057.4831	3101.8466	3198.4713	3467.6666	3659.1042
N=C1NC=NC1CC#N	[NH][C]1NC=N[C@H]1CC#N	
InChI=1S/C5H6N4/c6-2-1-4-5(7)9-3-8-4/h3-4H,1H2,(H2,7,8,9)	InChI=1S/C5H6N4/c6-2-1-4-5(7)9-3-8-4/h3-4H,1H2,(H2,7,8,9)/t4-/m0/s1
