18
gdb 36383	2.22139	1.26077	1.01752	1.0343	82.91	-0.2333	0.035	0.2683	1243.772	0.144634	-364.702727	-364.693197	-364.692253	-364.737434	35.304	
C	-1.7546574841	 1.3303205365	 0.5591522355	-0.455758
C	-0.89233151	 2.0612957626	 0.9682693546	 0.308208
C	 0.1743196452	 2.938194996	 1.4447066794	-0.390381
C	 1.4618869298	 2.7780784853	 0.64308464	 0.027872
C	 2.7910085601	 3.0248403823	 1.2714220215	-0.268245
N	 2.4037682358	 1.6823439947	 0.8532942422	-0.087729
C	 2.1483165663	 0.6207239975	 1.8396335713	-0.290787
C	 2.0576309669	 0.9957552355	 3.2540986754	 0.301205
C	 2.0193327545	 1.3032770175	 4.4168872133	-0.463803
H	-2.5241748418	 0.6898123733	 0.2057027622	 0.197129
H	-0.1517903538	 3.9837040496	 1.3653510078	 0.133836
H	 0.3608939441	 2.7503877776	 2.5063834192	 0.150617
H	 1.3348613552	 3.0189166981	-0.4113684213	 0.100901
H	 3.6007754584	 3.4803353942	 0.7070460735	 0.114422
H	 2.7955675504	 3.2419216447	 2.3378234262	 0.123112
H	 1.2303200793	 0.1035080936	 1.5381581495	 0.154643
H	 2.9637697331	-0.1058876386	 1.7361397245	 0.142356
H	 1.9745847807	 1.5628089298	 5.4459545252	 0.202403
49.4384	83.1529	134.7162	166.8977	221.0959	310.6008	328.4395	352.3967	388.9378	432.1763	532.2174	592.4323	613.4822	621.2609	639.4545	663.0146	759.8193	785.1051	884.906	929.8648	966.037	970.2893	998.0228	1067.8093	1087.9108	1130.5952	1138.7902	1168.1259	1244.4865	1284.6886	1314.7656	1329.6419	1367.0232	1420.4601	1467.4145	1467.925	1509.4074	2221.8009	2236.442	3024.4541	3027.3367	3067.201	3083.6427	3097.3717	3116.3337	3182.2119	3501.4046	3505.9989
C#CCC1CN1CC#C	C#CC[C@H]1CN1CC#C	
InChI=1S/C8H9N/c1-3-5-8-7-9(8)6-4-2/h1-2,8H,5-7H2	InChI=1S/C8H9N/c1-3-5-8-7-9(8)6-4-2/h1-2,8H,5-7H2/t8-,9?/m0/s1
