23
gdb 60098	3.5904	0.97836	0.90707	1.4338	86.53	-0.2591	0.0706	0.3297	1413.0119	0.20559	-388.246679	-388.237435	-388.236491	-388.281099	35.881	
C	-0.0683927806	 1.5719981955	 0.0415318637	-0.39822
C	 0.0017533014	 0.0446351562	-0.0032487701	 0.138633
O	 0.8443019142	-0.4592792107	 1.0321736884	-0.425827
C	-1.3919790532	-0.6004902014	 0.0262463058	-0.372578
C	-1.3918411791	-2.1052195517	-0.1034717373	 0.392399
C	-0.8000899654	-3.1637011889	 0.8816893007	-0.241985
C	-1.4271406732	-3.9832872785	-0.2794201572	-0.048189
C	-2.6485189554	-3.0261849351	-0.2039245177	-0.265314
C	-0.7767906483	-2.9644983907	-1.2570900175	-0.249954
H	 0.939092126	 1.9965935671	 0.0423211815	 0.122464
H	-0.6151135998	 1.971263917	-0.8190521464	 0.113998
H	-0.5830902014	 1.9109481309	 0.9495081545	 0.104543
H	 0.5069881156	-0.2597382412	-0.9283099414	 0.091886
H	 0.4277578159	-0.248578542	 1.8754357924	 0.275221
H	-1.896563214	-0.3139480138	 0.962200234	 0.083294
H	-1.9935998276	-0.1702166835	-0.7859493549	 0.096769
H	 0.2869591201	-3.1815953726	 0.9763175939	 0.102227
H	-1.2906590912	-3.2452049479	 1.857379011	 0.075863
H	-1.4485592282	-5.0684400719	-0.3843392154	 0.067023
H	-3.2752419463	-3.0972934646	 0.6907160934	 0.081876
H	-3.2562970937	-2.92785608	-1.1091112351	 0.0819
H	-1.2409898446	-2.8637225253	-2.2434090162	 0.081164
H	 0.3143733286	-2.9813177569	-1.3279480502	 0.092807
42.5148	93.9201	131.9929	238.5928	270.5774	298.3148	311.0291	323.8349	458.3667	472.4151	543.2695	546.7831	688.4584	772.522	798.0996	843.1667	883.6025	884.4061	938.9813	949.4342	956.7894	963.2533	980.78	996.0911	1043.4662	1074.5628	1096.7283	1105.5837	1123.0485	1144.3841	1147.0612	1151.3588	1177.6065	1220.0629	1226.1023	1239.5279	1258.9867	1303.4204	1332.7811	1337.6927	1388.8391	1401.4733	1421.6108	1468.5076	1491.7871	1495.3955	1497.571	1501.3268	1556.3105	2989.3798	3023.1958	3031.9621	3034.2433	3039.2884	3044.5759	3046.9212	3093.3846	3097.806	3105.7226	3106.2987	3117.9542	3124.3105	3796.1727
CC(O)CC12CC(C1)C2	C[C@@H](O)C[C@@]12C[C@@H](C1)C2	
InChI=1S/C8H14O/c1-6(9)2-8-3-7(4-8)5-8/h6-7,9H,2-5H2,1H3	InChI=1S/C8H14O/c1-6(9)2-8-3-7(4-8)5-8/h6-7,9H,2-5H2,1H3/t6-,7-,8+/m1/s1
