14
gdb 128878	3.63088	1.34473	0.99375	5.4901	76.42	-0.2568	-0.0131	0.2437	1109.2627	0.10417	-395.733114	-395.726137	-395.725193	-395.765013	25.631	
N	 0.0201159805	-1.1966581271	-0.1228991807	-0.350753
C	-0.0023680817	-0.0397154943	-0.064695573	 0.185771
C	-0.0286733838	 1.3704385731	 0.0059345398	-0.0926
C	-1.1064725711	 2.2372947537	 0.1590460924	 0.318087
C	-2.5307644787	 2.7440602866	 0.3310788648	-0.380241
C	-1.8736925383	 4.1859389184	 0.334641181	-0.167705
N	-0.5975811313	 3.4686589455	 0.1666427437	 0.082062
N	 0.7346014777	 3.5607661692	 0.034525223	-0.286624
C	 1.0836612397	 2.2749211022	-0.0643350016	-0.049161
H	-3.2042308856	 2.5530945308	-0.5061694513	 0.149904
H	-3.0207763929	 2.4654941723	 1.2656423636	 0.149902
H	-2.1311178196	 4.8278384834	-0.5101882696	 0.149441
H	-1.946209882	 4.7397248396	 1.2727034681	 0.149518
H	 2.121939447	 2.0042938166	-0.1847595503	 0.142398
99.2486	140.1555	175.5304	255.5228	419.3371	533.0131	552.2315	580.2122	655.0707	681.1338	729.54	811.1611	851.4188	877.6394	894.0807	1060.6836	1063.4379	1127.1688	1135.1858	1170.8283	1210.0687	1220.0348	1271.2185	1320.8899	1346.492	1405.8891	1474.9255	1489.0059	1534.4094	1590.451	2347.6255	3077.9668	3086.2359	3132.9733	3145.2813	3259.1615
N#CC1=C2CCN2N=C1	N#Cc1c2CCn2nc1	
InChI=1S/C6H5N3/c7-3-5-4-8-9-2-1-6(5)9/h4H,1-2H2	InChI=1S/C6H5N3/c7-3-5-4-8-9-2-1-6(5)9/h4H,1-2H2
