18
gdb 31503	1.85668	1.19007	0.73104	6.0164	83.32	-0.2295	-0.078	0.1515	1555.6453	0.142688	-439.135309	-439.123651	-439.122707	-439.175135	38.325	
C	-0.1658629034	 1.3716472863	-0.2065021052	-0.49111
C	 0.1348355104	 0.0281418485	 0.3607918329	 0.198649
C	-0.8604650485	-1.0714140972	 0.3214595382	 0.366889
O	-1.9741616175	-1.0863011489	-0.1250422208	-0.339216
O	-0.2892464772	-2.1810802011	 0.9223492039	-0.243362
C	 0.9863366044	-1.8477775031	 1.3314473406	 0.434316
C	 1.7779324993	-2.7253754775	 1.9470573664	-0.421337
N	-3.1271188351	-4.1469389362	 0.2006713161	-0.735566
H	-2.9785824719	-4.5262159995	-0.7320801309	 0.222351
H	-3.0279145065	-3.1380746076	 0.0952885902	 0.260233
H	-2.3041826888	-4.424966527	 0.7310927259	 0.224791
C	 1.2295912838	-0.460583984	 0.9687931163	-0.325497
H	-0.4080329998	 1.2948422863	-1.2720674179	 0.154459
H	-1.0457317732	 1.806574231	 0.2798415253	 0.155583
H	 0.6769255431	 2.05546525	-0.0859190898	 0.132098
H	 1.4491567568	-3.7357019994	 2.1511236278	 0.13989
H	 2.7724296051	-2.4306836759	 2.2546425728	 0.13119
H	 2.1586028092	 0.0521994552	 1.1774344482	 0.135638
18.3381	32.2168	57.8551	100.1875	106.1601	160.4899	174.6094	193.5953	233.8538	249.4976	325.9904	380.2524	553.1436	597.6922	638.8084	665.3349	729.9494	776.9638	801.7693	886.3355	899.9604	935.7496	979.5336	1013.9169	1064.2287	1069.8309	1154.1675	1193.7571	1319.2941	1328.7767	1417.4413	1434.4751	1472.306	1481.7756	1680.2194	1686.547	1702.5049	1724.2634	1857.775	3039.9932	3093.5154	3131.7964	3182.3204	3233.4392	3277.2143	3452.0633	3557.8669	3564.8669
CC1=C([O-])OC(C[NH3+])=C1	C[C]1C(=O)OC(=C1)[CH2].N	
InChI=1S/C6H9NO2/c1-4-2-5(3-7)9-6(4)8/h2,8H,3,7H2,1H3	InChI=1S/C6H6O2.H3N/c1-4-3-5(2)8-6(4)7;/h3H,2H2,1H3;1H3
