19
gdb 33992	3.28142	1.32154	1.11338	0.8038	87.29	-0.2346	0.0239	0.2586	1141.2866	0.160032	-348.72803	-348.719959	-348.719015	-348.760298	32.307	
C	 0.0467101025	-1.2182763246	-0.4371030582	-0.416586
C	 0.0410485159	-0.0415935659	-0.1841983817	 0.218101
C	 0.0173046328	 1.3594311943	 0.1376529769	 0.141724
C	 0.265272441	 2.3416196146	-1.0011142714	-0.315039
C	 1.3305195747	 2.1329178943	 0.0360649847	-0.060937
C	 1.649541289	 3.2221479136	 1.0442151376	-0.275841
C	 0.4464053255	 3.7335774489	 1.7881521854	-0.068034
C	-0.7144179718	 3.085612393	 1.8612102742	-0.049961
C	-0.986736497	 1.7517146112	 1.2232025741	-0.329951
H	 0.0561219186	-2.2548183076	-0.6656915033	 0.185442
H	 0.4189451671	 1.929670413	-1.9911485304	 0.120709
H	-0.2981945295	 3.2685801951	-0.9695484467	 0.119852
H	 2.1846720424	 1.5425486342	-0.279042314	 0.095558
H	 2.3825163946	 2.8387414343	 1.7692990475	 0.116224
H	 2.1544076963	 4.0555627104	 0.5357341549	 0.108393
H	 0.5629575969	 4.6835947408	 2.3034331879	 0.086941
H	-1.5318674621	 3.5130627305	 2.4366846409	 0.085877
H	-2.0016091629	 1.7336315261	 0.8042711883	 0.113701
H	-0.9800187139	 0.9748344338	 2.0002538934	 0.123826
108.8985	142.355	166.7813	293.9007	351.2708	396.0118	417.3499	521.056	541.47	548.1897	579.3294	642.6731	648.2186	686.2675	771.7715	820.6602	889.0571	904.8738	937.3891	952.0301	978.1296	997.5352	1019.1132	1051.006	1071.6672	1113.9267	1123.1726	1202.2774	1209.9126	1241.0474	1259.1909	1288.6891	1355.2699	1371.9245	1405.6512	1424.3303	1474.2267	1480.3487	1489.5756	1731.5273	2231.8776	2998.0438	3010.1998	3020.3337	3033.8689	3134.8604	3145.9284	3161.0147	3169.1549	3228.3793	3504.2669
C#CC12CC1CC=CC2	C#C[C@]12C[C@H]1CC=CC2	
InChI=1S/C9H10/c1-2-9-6-4-3-5-8(9)7-9/h1,3-4,8H,5-7H2	InChI=1S/C9H10/c1-2-9-6-4-3-5-8(9)7-9/h1,3-4,8H,5-7H2/t8-,9+/m1/s1
