18
gdb 85544	2.46894	1.68554	1.08695	4.4386	73.01	-0.225	0.013	0.238	1105.7202	0.147961	-439.08984	-439.081838	-439.080894	-439.122409	30.569	
C	 0.1173819927	 1.3857079605	-0.1292148312	-0.324659
N	-0.0263063876	-0.0407194645	 0.0920606561	-0.070317
C	-1.3888619027	-0.5392699287	-0.0066863158	-0.306059
C	-1.4067263833	-2.063855897	-0.0488867366	 0.43023
O	-2.2172317118	-2.7045438011	-0.6541470112	-0.322135
O	-0.4130452035	-2.6997917062	 0.6316023973	-0.219808
C	 0.372582015	-1.9715980208	 1.5491444247	 0.087955
C	 1.7435773127	-1.5067385277	 1.147045204	-0.321372
C	 0.6025523006	-0.5154419516	 1.2907021767	-0.016099
H	 1.1797199089	 1.6470811336	-0.1354177555	 0.130566
H	-0.3052314726	 1.652892033	-1.102491568	 0.127015
H	-0.3826352447	 2.0007499314	 0.6422503088	 0.098455
H	-2.0434430311	-0.2050815055	 0.8223830135	 0.109589
H	-1.8483957422	-0.2004385444	-0.9375709411	 0.140556
H	 0.2124455284	-2.3175607148	 2.5647394575	 0.115656
H	 2.5248613041	-1.5324522673	 1.8984575043	 0.11923
H	 2.0523237141	-1.7204913738	 0.1308016471	 0.136726
H	 0.5940754231	 0.1559020848	 2.1530642094	 0.084468
101.4218	128.1634	209.5577	229.1789	313.6131	326.3482	420.365	456.9973	485.4559	530.3103	628.2252	703.002	755.7511	819.8807	840.1025	907.2886	985.2852	1020.6563	1033.9668	1047.1995	1068.887	1102.6908	1127.2053	1148.7295	1157.0302	1169.4586	1228.4453	1246.5889	1278.576	1306.4571	1353.3711	1385.4542	1411.4624	1455.6113	1468.7708	1482.6053	1498.3884	1507.7535	1864.6218	2912.9414	2934.7208	3060.848	3066.6721	3108.1713	3112.1398	3141.4706	3164.4438	3240.895
CN1CC(=O)OC2CC12	CN1CC(=O)O[C@H]2C[C@@H]12	
InChI=1S/C6H9NO2/c1-7-3-6(8)9-5-2-4(5)7/h4-5H,2-3H2,1H3	InChI=1S/C6H9NO2/c1-7-3-6(8)9-5-2-4(5)7/h4-5H,2-3H2,1H3/t4-,5+/m1/s1
