23
gdb 102798	1.57169	1.18917	0.82186	3.6182	82.65	-0.2441	-0.0149	0.2291	1520.6628	0.202209	-425.436382	-425.424978	-425.424034	-425.473899	40.236	
C	 0.3258261431	-0.1556882817	 1.0871127645	-0.39394
C	-0.5900597689	-0.0475955307	-0.1431762727	 0.017676
C	-1.3158687926	 1.3066113353	-0.1600415322	-0.400121
C	 0.1336639928	-0.3345439579	-1.4861281312	 0.026119
C	 1.4113178656	 0.4853002292	-1.6878547589	-0.101751
O	 1.8091796448	 0.3305225057	-3.0447655499	-0.423176
C	 0.4335105243	-1.836433336	-1.6892290172	-0.293007
C	-0.8170487481	-2.6397465215	-1.943963519	 0.158148
O	-1.1729376369	-3.6007307472	-1.3101511815	-0.248484
H	 0.8490262225	-1.1156185443	 1.1323614918	 0.120557
H	 1.0790670202	 0.6398997934	 1.0985899958	 0.113494
H	-0.2612520586	-0.060108356	 2.0059072711	 0.116746
H	-1.3613466139	-0.8228393269	-0.0399094681	 0.090386
H	-0.6151163538	 2.145612252	-0.2323700854	 0.114937
H	-2.0093373731	 1.3773266202	-1.0044525243	 0.1141
H	-1.8937078717	 1.4458914683	 0.7594063918	 0.114659
H	-0.5439875844	-0.0275021331	-2.2958682272	 0.083846
H	 1.2208220374	 1.5436946106	-1.4570246835	 0.091417
H	 2.1995682222	 0.1335606175	-1.0054510044	 0.091461
H	 2.6717107712	 0.7401092391	-3.1562299661	 0.289353
H	 1.0701129223	-1.9275610941	-2.5790968921	 0.135486
H	 0.964794524	-2.2701628617	-0.8369470458	 0.112326
H	-1.4258198283	-2.2671305304	-2.8030378354	 0.06977
43.0826	56.2158	89.7042	113.4749	189.7686	212.218	225.3544	242.8595	254.7933	276.2962	305.0803	374.0972	440.5242	468.7086	531.6024	554.2796	740.8132	840.7904	910.7549	930.02	948.454	966.3196	985.2102	1033.6232	1040.0858	1063.4361	1114.9175	1149.6177	1164.8509	1201.4731	1216.784	1234.7943	1263.067	1302.859	1328.8357	1348.5256	1375.8447	1398.4787	1402.435	1424.171	1430.5425	1454.4122	1469.1029	1485.7183	1496.1748	1507.1399	1509.6849	1521.7129	1830.7021	2842.7357	2979.5742	2999.8007	3012.1466	3017.6315	3031.0305	3032.2024	3036.0366	3095.4642	3097.5157	3100.5665	3101.8179	3108.1402	3835.4946
CC(C)C(CO)CC=O	CC(C)[C@@H](CO)CC=O	
InChI=1S/C7H14O2/c1-6(2)7(5-9)3-4-8/h4,6-7,9H,3,5H2,1-2H3	InChI=1S/C7H14O2/c1-6(2)7(5-9)3-4-8/h4,6-7,9H,3,5H2,1-2H3/t7-/m1/s1
