22
gdb 6159	4.33956	1.13738	1.10742	1.043	79.1	-0.2425	0.0823	0.3249	1220.1653	0.198445	-350.195585	-350.186248	-350.185303	-350.229207	35.04	
C	-0.8112884832	 1.6544587276	 0.0027970254	-0.239895
O	-0.3887210792	 0.4376202061	 0.5732958841	-0.239608
C	-1.1151571466	-0.6716344747	 0.1113644811	 0.168361
C	-0.8124568463	-1.2171310984	-1.3140590249	-0.29586
C	-0.7714010797	-2.6611521528	-0.7131009985	 0.343675
C	-2.101865251	-3.3983065818	-0.8940989373	-0.435716
C	 0.39668337	-3.5375269467	-1.1545882062	-0.445275
C	-0.6435988936	-2.0116148657	 0.7037741085	-0.298258
H	-0.2002359014	 2.4493379264	 0.4376040633	 0.124557
H	-0.6804533017	 1.6662468061	-1.089992085	 0.106453
H	-1.8711899337	 1.8608413723	 0.2227451564	 0.101387
H	-2.1931149596	-0.5018785153	 0.2587807066	 0.060037
H	-1.5386924698	-1.0255285126	-2.1087184248	 0.088876
H	 0.177952078	-0.8867263338	-1.6418325136	 0.099047
H	-2.2571995675	-3.6731933372	-1.943851593	 0.110581
H	-2.1220279122	-4.3198540586	-0.3008329869	 0.111273
H	-2.9543305372	-2.7854801795	-0.5826382105	 0.111556
H	 1.3528219721	-3.0194112212	-1.0277665023	 0.10991
H	 0.4378753517	-4.4643743227	-0.569819383	 0.110645
H	 0.304292159	-3.8170880718	-2.2109721753	 0.109868
H	 0.3997968293	-1.9278373298	 1.0203596461	 0.105778
H	-1.2315271174	-2.444007616	 1.5175342697	 0.092609
72.8827	106.1409	186.7851	222.2464	235.5324	268.0805	304.7883	314.1162	362.2409	388.9655	456.234	469.1776	587.1274	734.4675	834.1521	869.3002	897.7476	938.9506	961.192	973.8848	1000.2422	1033.4164	1049.1684	1088.6349	1146.9598	1171.1808	1185.5522	1200.5084	1226.7636	1231.2223	1252.3078	1296.5613	1301.2571	1305.85	1393.6237	1403.0899	1420.1379	1466.4807	1479.6518	1484.5233	1485.5306	1488.0223	1498.2868	1504.1484	1507.1913	1510.0176	2967.9237	2977.1956	3016.7345	3017.3692	3022.4781	3047.6071	3057.1968	3080.0122	3087.4439	3092.2745	3095.2882	3106.2321	3111.7014	3113.3393
COC1CC(C)(C)C1	COC1CC(C)(C)C1	
InChI=1S/C7H14O/c1-7(2)4-6(5-7)8-3/h6H,4-5H2,1-3H3	InChI=1S/C7H14O/c1-7(2)4-6(5-7)8-3/h6H,4-5H2,1-3H3
