17
gdb 107864	2.71319	1.55527	1.18259	4.4271	73.36	-0.241	-0.0125	0.2285	1066.8723	0.13575	-417.906873	-417.899025	-417.898081	-417.939513	29.829	
C	-0.133183088	 1.4241952313	 0.012021539	-0.340277
N	 0.0300370685	-0.0249670319	-0.0807115924	-0.391511
C	 0.7689542903	-0.4770164771	-1.2008037186	 0.33849
C	 2.1848495776	-0.2018861808	-1.7417948666	-0.234233
N	 1.6504380986	-1.1889947406	-2.7757474614	-0.151843
C	 0.9160107212	-1.97557362	-1.6440143377	-0.225037
C	-0.3853006507	-1.8789833696	-2.4293706689	 0.503059
O	-1.3715684465	-2.5020544509	-2.663481366	-0.319418
C	 0.244634244	-0.5191355208	-2.6901752831	-0.197931
H	 0.8142863937	 1.984243864	 0.0677621929	 0.106934
H	-0.6847575012	 1.7822252826	-0.8631344467	 0.134149
H	-0.7258203107	 1.6632564404	 0.8985208397	 0.12997
H	 0.412186695	-0.4040376252	 0.7788791318	 0.22575
H	 2.4075940183	 0.7845714082	-2.1593629016	 0.110565
H	 3.0416115636	-0.5841145213	-1.1774158446	 0.106176
H	 1.4150783107	-2.7837294572	-1.1111966914	 0.101672
H	-0.0145613844	 0.3164001091	-3.3379279646	 0.103483
75.6754	132.0129	191.286	197.9073	327.2658	372.6095	421.7389	539.8946	584.3658	650.0379	655.3424	733.55	780.271	805.7795	855.3454	884.8626	929.6234	1004.7211	1037.2488	1048.0709	1066.2245	1071.9949	1096.0347	1098.4225	1146.29	1167.7978	1174.0574	1209.157	1224.8763	1251.074	1336.7613	1460.7401	1467.6177	1493.8083	1517.7275	1525.5181	1929.9786	2974.0423	3041.9401	3073.2918	3103.2236	3118.3214	3136.4719	3143.5041	3530.6633
CNC12CN3C1C(=O)C23	CN[C@@]12CN3[C@@H]1C(=O)[C@@H]23	
InChI=1S/C6H8N2O/c1-7-6-2-8-4(6)3(9)5(6)8/h4-5,7H,2H2,1H3	InChI=1S/C6H8N2O/c1-7-6-2-8-4(6)3(9)5(6)8/h4-5,7H,2H2,1H3/t4-,5+,6+
