15
gdb 14451	3.52366	2.52699	2.06621	1.7012	64.94	-0.2241	-0.0051	0.219	705.5287	0.120059	-362.579413	-362.573369	-362.572425	-362.609118	24.811	
O	-0.0369309634	 1.4141115823	 0.0674597698	-0.461876
C	 0.0372992251	 0.0379329509	 0.0184184083	 0.34629
C	 0.7123740561	-0.958584088	 0.9712141039	-0.248871
N	 0.0214909638	-1.8847171695	-0.0250466317	-0.137357
C	-1.1973388655	-0.9095663636	-0.0044785248	-0.06583
C	-1.7579124398	-0.9577222235	-1.4054912784	-0.089102
C	-0.6632380018	-0.9694987365	-2.1702335274	-0.086047
C	 0.4593349322	-0.9240257129	-1.1647597409	-0.107438
H	 0.8478837208	 1.7698283901	 0.2061140442	 0.28484
H	 1.803536913	-1.0377815714	 0.9544510202	 0.094958
H	 0.3237609996	-1.0426220306	 1.9898430149	 0.102711
H	-1.8481128134	-0.9966727993	 0.8658797448	 0.075542
H	-2.8020542721	-0.9945382499	-1.6790297099	 0.111833
H	-0.5644530018	-1.0114424238	-3.2450805154	 0.110884
H	 1.5005296974	-1.0169296843	-1.4763414375	 0.069462
203.9936	276.1344	300.3231	458.4628	472.3886	544.0087	599.5138	720.3646	747.8128	756.9504	812.9504	830.2164	912.545	916.3645	919.1133	954.8728	981.556	1004.4315	1025.9149	1082.7662	1114.6264	1130.4532	1135.7307	1174.868	1232.3095	1264.5752	1279.1677	1299.7175	1342.062	1362.8642	1524.5336	1631.4808	3047.6164	3110.6383	3113.389	3122.0906	3230.7417	3256.8491	3805.3346
OC12CN3C1C=CC23	O[C@@]12CN3[C@@H]1C=C[C@@H]23	
InChI=1S/C6H7NO/c8-6-3-7-4(6)1-2-5(6)7/h1-2,4-5,8H,3H2	InChI=1S/C6H7NO/c8-6-3-7-4(6)1-2-5(6)7/h1-2,4-5,8H,3H2/t4-,5+,6+
