22
gdb 12687	2.78604	1.85176	1.19312	0.1763	85.74	-0.2148	0.0387	0.2534	1093.7869	0.19968	-313.106873	-313.097651	-313.096707	-313.140226	34.478	
C	-0.1096872235	 1.5694622334	-0.0090145004	-0.400818
C	 0.0451750721	 0.0441590639	 0.0236833877	-0.043141
C	 0.8510221342	-0.5154982821	-1.1733126368	-0.217091
C	 1.6138110477	-1.7351302169	-0.617565748	-0.294068
C	 1.6509915598	-1.4796727857	 0.8759995367	 0.214681
C	 2.5290208318	-2.3177101701	 1.7528028207	-0.495813
C	 0.7964055077	-0.508923025	 1.2290271675	 0.238937
C	 0.4847796383	-0.0136082882	 2.6085022436	-0.503701
H	 0.8682636564	 2.0630963161	 0.0316238455	 0.111193
H	-0.6065161195	 1.888241901	-0.9317306877	 0.110574
H	-0.7080497615	 1.9379703958	 0.8305013025	 0.110394
H	-0.9692653266	-0.3888806079	 0.0234196397	 0.06825
H	 0.2209495137	-0.7538203326	-2.0349536904	 0.089891
H	 1.5696452008	 0.2452333641	-1.4999969631	 0.095639
H	 1.0885325285	-2.6792866746	-0.828326685	 0.096493
H	 2.6147928162	-1.8443557793	-1.0535699534	 0.092775
H	 2.2827346598	-3.3831377622	 1.6502932415	 0.12135
H	 3.5835767782	-2.2175564441	 1.4638992041	 0.121317
H	 2.4469413554	-2.056926485	 2.8106892946	 0.119149
H	 1.0438546035	-0.546807883	 3.3809940065	 0.118772
H	 0.7100494981	 1.0548579276	 2.7134965509	 0.125143
H	-0.5846423412	-0.1263808353	 2.8330363533	 0.120074
90.6071	142.4425	158.5199	167.4826	222.0541	255.1286	293.4147	301.6314	402.0841	416.6314	534.2934	576.0473	614.6515	683.6307	818.8332	875.9391	903.5877	955.3029	975.1997	998.5581	1000.7758	1046.4966	1058.5489	1094.074	1120.4495	1134.4558	1187.2792	1206.3756	1236.9095	1262.1739	1312.1343	1323.8151	1343.6417	1361.2793	1404.1546	1407.8467	1420.4479	1477.262	1480.9973	1483.4197	1485.0535	1491.5914	1497.1435	1500.7885	1503.3863	1738.5404	2955.6954	2990.1334	3011.7459	3014.4082	3024.1627	3029.1146	3043.7917	3052.9343	3057.7796	3087.006	3092.8108	3097.0252	3110.4746	3117.3498
CC1CCC(C)=C1C	C[C@H]1CCC(=C1C)C	
InChI=1S/C8H14/c1-6-4-5-7(2)8(6)3/h6H,4-5H2,1-3H3	InChI=1S/C8H14/c1-6-4-5-7(2)8(6)3/h6H,4-5H2,1-3H3/t6-/m0/s1
