19
gdb 41907	2.20445	2.04324	1.78017	1.3036	69.62	-0.2544	0.075	0.3294	907.486	0.162813	-460.160616	-460.153567	-460.152623	-460.191878	28.441	
C	 0.0269725288	 1.5436258268	-0.0204133641	-0.081839
O	 1.3649367816	 2.0337922158	-0.0129074479	-0.263547
C	 2.3249122938	 1.1130862698	 0.4642933147	 0.188356
C	 1.7438956332	 0.2746260419	 1.6076749734	-0.132404
O	 0.5689099582	-0.4447331448	 1.2329660073	-0.278126
C	-0.0107706745	 0.020036117	 0.012430838	 0.078254
C	 0.6932308039	-0.6214080856	-1.2081082512	-0.232788
C	 2.1891989117	-0.8261602193	-0.9642581931	-0.068952
O	 2.8875109156	 0.3535862238	-0.5802587853	-0.258356
H	-0.5173023352	 1.9337099211	 0.8518071452	 0.101935
H	-0.4615548416	 1.924850515	-0.9239076566	 0.110045
H	 3.152220952	 1.7223477239	 0.8401562786	 0.094824
H	 2.4891547853	-0.4481628611	 1.9579815096	 0.117651
H	 1.5119290992	 0.9565561503	 2.4378116669	 0.10885
H	-1.0580908132	-0.2976706931	 0.0446694154	 0.085193
H	 0.2537558798	-1.6044430921	-1.410286312	 0.104494
H	 0.5294038445	 0.0001398467	-2.0951979904	 0.110661
H	 2.3216584872	-1.6075494489	-0.2036883469	 0.106072
H	 2.6798837497	-1.1677352571	-1.8797665015	 0.109677
112.258	247.2789	262.0471	318.4441	375.7639	415.9917	479.2042	500.951	590.2982	700.4027	777.4904	806.6888	853.8315	870.8283	902.7555	914.8017	980.9473	1000.8191	1018.6383	1070.7418	1086.9526	1102.9569	1125.8228	1146.2522	1175.1223	1236.0783	1255.0571	1268.3891	1290.1617	1341.0507	1356.5426	1360.7221	1369.5026	1397.8272	1407.1808	1414.8036	1422.7728	1476.9527	1505.1707	1510.7183	1518.7055	3000.4728	3006.6723	3013.0695	3038.3535	3056.7051	3063.2021	3065.976	3074.7216	3085.0354	3093.6111
C1OC2COC1CCO2	C1O[C@H]2CO[C@@H]1CCO2	
InChI=1S/C6H10O3/c1-2-7-6-4-8-5(1)3-9-6/h5-6H,1-4H2	InChI=1S/C6H10O3/c1-2-7-6-4-8-5(1)3-9-6/h5-6H,1-4H2/t5-,6+/m1/s1
