18
gdb 95605	2.23838	1.76147	1.02858	5.9148	74.46	-0.2381	-0.0566	0.1815	1143.2278	0.148485	-439.140398	-439.131786	-439.130842	-439.174169	31.398	
C	-0.0542409166	 1.4567571615	 0.0200185224	-0.35018
N	 0.0142322092	 0.0064128186	-0.0797386677	-0.10484
C	-1.262060846	-0.6992179568	-0.0117944995	-0.144437
C	-1.1754737183	-2.1232820988	-0.547409129	-0.241355
C	-0.0384685021	-2.875870662	 0.1453830525	-0.309377
C	 1.2751408152	-2.15006407	-0.0697930038	 0.310688
O	 2.3270038001	-2.7125801465	-0.2197129321	-0.266513
C	 1.249436756	-0.5937789971	-0.0734436326	 0.305571
O	 2.2962373798	 0.0222745933	-0.0723683777	-0.354529
H	 0.9597886883	 1.8501133053	-0.0232548431	 0.175935
H	-0.6472994443	 1.8675247034	-0.8052124211	 0.126595
H	-0.5233269095	 1.7600068438	 0.9649797285	 0.125796
H	-1.627177282	-0.7115916077	 1.0283697176	 0.110727
H	-1.9927102624	-0.1227624586	-0.5909520558	 0.115991
H	-2.1330174447	-2.6271330162	-0.3856776991	 0.116323
H	-1.000680387	-2.098943823	-1.6295308474	 0.1223
H	-0.2254736991	-2.9094087846	 1.2291531605	 0.129882
H	 0.0704581234	-3.9073007646	-0.1983406028	 0.131423
60.0313	96.4321	138.3955	200.2979	284.3616	330.0586	373.1122	409.7138	426.0188	476.4597	571.2763	579.4496	674.6476	745.168	888.3961	895.4464	929.1589	965.4484	1057.6523	1073.0739	1106.3865	1145.31	1169.0679	1198.5064	1210.5417	1275.783	1298.6738	1344.0816	1360.9981	1380.7908	1430.4204	1451.8821	1464.0021	1490.4476	1501.2374	1504.5871	1535.643	1770.5071	1834.4108	2971.6556	3010.3142	3016.863	3038.8807	3053.52	3069.0166	3091.6741	3105.2263	3172.2912
CN1CCCC(=O)C1=O	CN1CCCC(=O)C1=O	
InChI=1S/C6H9NO2/c1-7-4-2-3-5(8)6(7)9/h2-4H2,1H3	InChI=1S/C6H9NO2/c1-7-4-2-3-5(8)6(7)9/h2-4H2,1H3
