24
gdb 5852	2.76569	1.36867	1.19329	1.2664	81.06	-0.2581	0.0685	0.3266	1194.7435	0.220336	-351.421074	-351.410365	-351.40942	-351.455793	40.264	
C	 0.0162744988	 1.5728766074	 0.2443567908	-0.393162
C	-0.0106753609	 0.0757200674	-0.082785242	-0.179584
C	-1.4299622329	-0.5268148909	-0.1441477876	 0.033998
C	-2.1697140048	-0.0956262425	-1.4201629426	-0.414212
C	-1.4206406143	-2.0704089349	 0.0835125678	 0.343505
C	-2.8470215861	-2.6417178688	 0.1180648178	-0.428362
C	-0.5739703501	-2.8270458763	-0.9444816799	-0.397315
O	-0.7897380672	-2.3487543599	 1.3445477862	-0.459206
H	 1.0451758269	 1.9434503553	 0.2929649807	 0.111462
H	-0.5103552969	 2.1720238393	-0.5057314295	 0.113949
H	-0.4526760956	 1.7727241064	 1.2147982191	 0.10921
H	 0.498772524	-0.093235125	-1.0402772923	 0.090213
H	 0.5595301151	-0.4672056145	 0.6767074889	 0.112275
H	-1.9919869196	-0.1186952376	 0.712764204	 0.048984
H	-1.6933339314	-0.5108469275	-2.3149622843	 0.116852
H	-3.216701893	-0.4097095676	-1.4194468826	 0.113763
H	-2.1600289454	 0.9934124851	-1.5227867654	 0.115654
H	-3.3299937663	-2.6148707594	-0.8623415994	 0.117623
H	-2.8108187745	-3.6822109533	 0.4528249093	 0.120029
H	-3.4787317605	-2.0798183893	 0.8173709877	 0.099557
H	 0.4646472295	-2.4899345086	-0.9206062222	 0.123485
H	-0.5851001841	-3.8958430264	-0.7132816776	 0.118471
H	-0.9623930415	-2.6920909663	-1.9572691011	 0.112114
H	-1.319826929	-1.9316533422	 2.0328014743	 0.270696
77.8255	85.2675	197.3817	200.2571	218.3987	237.0922	261.4713	293.292	315.7778	321.4074	342.3666	367.5701	395.6453	473.9211	489.0846	540.9345	729.4514	784.4352	847.7165	901.0993	929.5269	952.1463	980.249	987.8428	1005.6099	1037.5905	1074.7547	1124.7819	1151.6454	1185.2529	1212.3362	1234.4418	1298.1584	1306.218	1352.1497	1370.4783	1387.3239	1401.0146	1407.5421	1419.4645	1426.5	1477.8862	1485.5503	1490.4514	1496.2391	1501.3459	1504.6938	1508.9532	1509.883	1514.9351	2958.32	3024.4121	3026.0304	3029.5235	3041.456	3053.0662	3078.7224	3095.9823	3096.6452	3102.2093	3106.5229	3112.3362	3120.3256	3124.2231	3133.6146	3797.7376
CCC(C)C(C)(C)O	CC[C@@H](C)C(C)(C)O	
InChI=1S/C7H16O/c1-5-6(2)7(3,4)8/h6,8H,5H2,1-4H3	InChI=1S/C7H16O/c1-5-6(2)7(3,4)8/h6,8H,5H2,1-4H3/t6-/m1/s1
