13
gdb 131574	7.59991	0.66239	0.61161	3.4366	74.72	-0.2646	-0.0569	0.2078	1695.9461	0.088852	-452.699768	-452.691522	-452.690578	-452.734755	27.672	
O	 0.0242210246	 1.4143919531	 0.0089185639	-0.401229
C	-0.0164997888	-0.0008674379	 0.0024493168	-0.230979
C	-1.4035342351	-0.4479808412	 0.0127628852	 0.372621
C	-2.540275726	-0.8457655856	 0.0211002441	-0.108009
C	-3.866606417	-1.3206324567	 0.0307920349	 0.2503
N	-4.9797494028	-0.6369757693	 0.0417152933	-0.310337
C	-5.9166333402	-1.6346888376	 0.0468801941	 0.003455
N	-5.4420580695	-2.8518846643	 0.0398379401	-0.094515
O	-4.062468695	-2.6554817185	 0.0289942254	-0.196822
H	 0.949941436	 1.6786268234	 0.0002413647	 0.298654
H	 0.4765427025	-0.4227414061	-0.8890619367	 0.13416
H	 0.4924814279	-0.4312749799	 0.8808364049	 0.134159
H	-6.9808665866	-1.4492333593	 0.0561287895	 0.148541
22.4742	75.6489	103.2162	202.9965	207.6857	290.2133	427.6015	464.7638	522.4694	626.1165	652.7609	770.1441	927.173	929.8644	951.0936	980.9045	1017.8679	1040.7445	1082.5066	1188.8549	1244.7338	1246.1446	1262.5347	1306.5202	1458.1916	1494.7516	1502.9662	1596.3813	2370.7193	2964.7676	2984.5829	3261.7542	3822.4577
OCC#CC1=NC=NO1	OCC#Cc1ncno1	
InChI=1S/C5H4N2O2/c8-3-1-2-5-6-4-7-9-5/h4,8H,3H2	InChI=1S/C5H4N2O2/c8-3-1-2-5-6-4-7-9-5/h4,8H,3H2
