22
gdb 119229	1.87589	1.31549	0.89588	2.9467	84.09	-0.2367	-0.0217	0.215	1404.0763	0.191577	-404.335137	-404.324728	-404.323784	-404.37067	37.71	
C	 0.0243449468	 1.6735982448	-0.0483166721	-0.380614
C	 0.2681531201	 0.1650930562	 0.0427988091	-0.176455
C	 0.4753590409	-0.4759632642	-1.3388439996	-0.276977
C	 0.6710362535	-1.9811845509	-1.3060680995	 0.213967
C	 1.5557202597	-2.654103591	-2.3301363579	-0.291088
N	 1.93508062	-2.6518320072	-0.9388329237	-0.112844
C	 3.0936502104	-1.8646500363	-0.5404998415	-0.316895
C	-0.5140942697	-2.7930555849	-0.8809331236	 0.142895
O	-1.633354021	-2.3618474182	-0.7546831374	-0.269989
H	 0.8710379614	 2.1882009611	-0.5171130223	 0.109346
H	-0.8674875555	 1.8929659842	-0.6455378868	 0.119978
H	-0.1234371799	 2.1123375154	 0.9431605796	 0.113492
H	 1.1437129975	-0.0273665554	 0.6746143788	 0.094334
H	-0.5840667001	-0.3164003076	 0.5321739473	 0.125495
H	-0.4098095964	-0.2802382125	-1.9555743388	 0.119785
H	 1.3181948723	 0.0022422042	-1.849128358	 0.094142
H	 1.2878868386	-3.616985485	-2.7599186381	 0.12067
H	 2.0665536037	-1.9760666466	-3.0140878577	 0.116419
H	 3.2210796129	-0.9234020068	-1.0951483144	 0.107905
H	 3.0274947958	-1.6345809717	 0.5266383683	 0.133395
H	 3.9887382803	-2.4738368489	-0.7004968474	 0.130446
H	-0.2673965012	-3.8627134688	-0.6999479843	 0.082595
72.2506	97.1201	109.6903	145.052	209.9663	228.3136	233.5747	259.0187	293.3003	347.3316	391.3668	433.0854	481.1262	569.8821	716.9489	752.7625	797.0898	871.9857	900.3476	914.9842	949.6666	1025.6499	1046.4196	1062.237	1087.3423	1119.9498	1125.8962	1150.2145	1159.8448	1200.2194	1263.3157	1303.1025	1324.8657	1337.8304	1358.8731	1394.6946	1411.1865	1422.4575	1448.8908	1473.0052	1488.9496	1493.4495	1498.5341	1500.3146	1507.126	1513.0586	1817.756	2894.5567	2992.3731	3027.9364	3031.8474	3041.8561	3068.6277	3076.4868	3080.9488	3083.0043	3103.7075	3104.1129	3110.6716	3166.349
CCCC1(CN1C)C=O	CCC[C@]1(CN1C)C=O	
InChI=1S/C7H13NO/c1-3-4-7(6-9)5-8(7)2/h6H,3-5H2,1-2H3	InChI=1S/C7H13NO/c1-3-4-7(6-9)5-8(7)2/h6H,3-5H2,1-2H3/t7-,8?/m0/s1
