22
gdb 94621	3.24802	0.96835	0.82603	1.7334	82.74	-0.226	0.0717	0.2976	1456.2005	0.194127	-404.296428	-404.28712	-404.286176	-404.331016	35.025	
O	 0.3577587194	 0.9636465702	-0.7010251157	-0.430883
C	 0.0500247198	-0.1630131326	 0.08967036	 0.131351
C	-0.2154430853	 0.0226214965	 1.6074152291	-0.258763
C	-1.4326301133	-0.9316476175	 1.4567419103	-0.228865
C	-1.397497884	-0.6974518612	-0.0855270539	-0.023964
C	-2.3829537357	 0.3413878271	-0.6182591114	-0.142989
N	-3.7141537644	-0.2408694747	-0.7744220513	-0.065449
C	-4.6707555361	-0.023829403	 0.30630515	-0.216154
C	-4.8077945324	 0.6979083826	-0.9879868473	-0.223259
H	 1.2562014768	 1.241361306	-0.4972689146	 0.283298
H	 0.7768970465	-0.970738419	-0.0806466797	 0.065709
H	 0.577482876	-0.2572135139	 2.3059619475	 0.089472
H	-0.525397102	 1.050714991	 1.8151969874	 0.105489
H	-1.1876303695	-1.9633857826	 1.7213042899	 0.101452
H	-2.3487088071	-0.6532113868	 1.980374035	 0.102281
H	-1.4917237477	-1.5951346552	-0.701689192	 0.077956
H	-2.3975294116	 1.237873165	 0.027445906	 0.077381
H	-2.0444321162	 0.6727634489	-1.6053173678	 0.117274
H	-5.3178151846	-0.8627789645	 0.5470194922	 0.113258
H	-4.3494874103	 0.5646622776	 1.1647610284	 0.105202
H	-4.5763642727	 1.7624303128	-0.9878904682	 0.106848
H	-5.5561862457	 0.3962847532	-1.7157167539	 0.113354
65.1925	93.3501	128.3017	140.6069	236.5441	248.433	309.7849	375.184	401.5905	461.6457	533.2521	651.5481	759.0379	773.8373	841.0505	851.5238	890.3179	910.4237	927.0663	953.712	955.1982	1024.8091	1034.5281	1064.4321	1105.5233	1111.276	1118.2026	1135.253	1152.1084	1173.6238	1181.8706	1196.2615	1224.5353	1247.1834	1261.9457	1268.9382	1299.1446	1321.1986	1335.212	1348.5506	1406.203	1421.0383	1479.3679	1484.5059	1493.4567	1500.9758	1522.8073	2940.9681	2987.1354	3054.9327	3065.2884	3070.9898	3080.3616	3089.7245	3094.3014	3105.8862	3124.397	3171.2358	3185.8528	3820.0962
OC1CCC1CN1CC1	O[C@H]1CC[C@H]1CN1CC1	
InChI=1S/C7H13NO/c9-7-2-1-6(7)5-8-3-4-8/h6-7,9H,1-5H2	InChI=1S/C7H13NO/c9-7-2-1-6(7)5-8-3-4-8/h6-7,9H,1-5H2/t6-,7-/m0/s1
