23
gdb 100332	2.38054	1.10708	0.93227	1.6543	87.	-0.2585	0.051	0.3095	1382.6015	0.202057	-388.259697	-388.24834	-388.247396	-388.296019	41.865	
C	-0.1513000704	 1.544657951	 0.1335393401	-0.406881
C	-0.038089051	 0.0214827135	 0.0078562141	-0.179215
C	 0.6908939073	-0.5198174253	-1.2460723552	 0.243479
C	 0.6225232701	-2.0566071917	-1.2343884555	-0.41749
C	 0.0398567362	 0.0051884604	-2.5367516493	-0.094886
O	-1.3409196495	-0.3261661045	-2.5234366979	-0.427504
C	 2.1788956685	-0.0617997158	-1.2844005745	-0.391037
C	 2.9666379088	-0.4705168324	-0.1278720971	 0.312152
C	 3.6141497284	-0.8058559272	 0.8283186918	-0.448318
H	 0.8267163517	 2.0369280722	 0.1477381251	 0.114827
H	-0.739614804	 1.9765101404	-0.6818002394	 0.118809
H	-0.6550945791	 1.806598163	 1.0693124176	 0.113214
H	 0.4798067682	-0.3744942942	 0.8885058495	 0.104787
H	-1.0449513885	-0.4069015166	 0.0147833657	 0.110559
H	-0.4165072008	-2.3892521874	-1.290175475	 0.129354
H	 1.1602363745	-2.4812971384	-2.0901786315	 0.09996
H	 1.0731558368	-2.4589287862	-0.3229556006	 0.122964
H	 0.1802379507	 1.0946561835	-2.6127934192	 0.083506
H	 0.5455705564	-0.4502910578	-3.4039551403	 0.081223
H	-1.731760266	-0.0239113371	-3.3478893151	 0.28826
H	 2.6471730511	-0.4641467461	-2.1929232349	 0.123431
H	 2.2275640268	 1.0302907216	-1.3792369974	 0.126203
H	 4.1915983739	-1.1000899949	 1.6692426889	 0.192603
42.0042	87.2587	131.2906	142.5046	223.2951	230.226	240.5883	249.3867	299.3262	325.766	339.9582	358.813	390.0028	421.5868	477.7451	600.7444	612.6063	633.8843	727.8755	779.5056	875.8281	898.7004	942.3717	969.2062	984.66	1020.503	1057.7059	1082.7714	1087.828	1166.4856	1186.4617	1212.0742	1243.0491	1272.9929	1312.2917	1323.2619	1357.9621	1384.7992	1405.3831	1412.5181	1455.5684	1469.9048	1481.6971	1496.1791	1502.4634	1503.148	1508.5197	1526.2837	2234.3364	2961.9543	2993.3657	3014.2926	3033.1601	3037.4901	3045.2444	3048.4558	3082.6396	3100.5673	3102.486	3110.7275	3130.1014	3505.7414	3837.3277
CCC(C)(CO)CC#C	CC[C@@](C)(CO)CC#C	
InChI=1S/C8H14O/c1-4-6-8(3,5-2)7-9/h1,9H,5-7H2,2-3H3	InChI=1S/C8H14O/c1-4-6-8(3,5-2)7-9/h1,9H,5-7H2,2-3H3/t8-/m1/s1
