17
gdb 78439	3.20008	1.43814	1.24516	3.122	71.49	-0.247	-0.0074	0.2396	1046.2887	0.136143	-421.78792	-421.780615	-421.77967	-421.819492	28.951	
C	-0.0422953303	 1.4861212735	 0.0072365158	-0.433464
C	 0.0010031339	-0.0264344058	 0.0113381128	-0.032546
C	 1.3162718734	-0.7206023923	-0.2647573742	-0.066985
C	 0.7165636583	-0.733954758	 1.1406814378	-0.066983
C	 0.4988692444	-2.2425449025	 1.2984853707	-0.054114
O	 1.7254337421	-2.8263143952	 0.7205643749	-0.292245
C	 1.2899058596	-2.2249333256	-0.5553267113	-0.054114
C	-0.1031928592	-2.6818416033	-0.0583526903	 0.430835
O	-1.0289784385	-3.3130399375	-0.4593877742	-0.328517
H	 0.884376987	 1.9109216759	 0.4066517012	 0.119844
H	-0.1763325447	 1.8712740491	-1.0087797694	 0.127617
H	-0.8711097988	 1.8558014699	 0.6196100114	 0.127617
H	-0.9004258005	-0.4943949361	-0.3777530489	 0.112493
H	 2.196639754	-0.1408562041	-0.5154296539	 0.102687
H	 1.1408074162	-0.1643654865	 1.9589572076	 0.102687
H	 0.2229353671	-2.6622049185	 2.2631059256	 0.102593
H	 1.798216626	-2.6271317132	-1.4285983559	 0.102593
136.5458	194.3062	235.1305	250.3951	317.638	425.9782	456.3398	525.1573	629.4721	692.2015	777.8009	816.9478	822.6206	841.2635	844.3687	888.4477	963.8364	964.5545	999.1353	999.9679	1053.3054	1054.2173	1080.0767	1125.0357	1141.8675	1163.5031	1198.2038	1228.5799	1233.2692	1277.6364	1296.8316	1314.9716	1415.3563	1431.6729	1492.8925	1499.4802	1917.4037	3033.2786	3100.0412	3102.0062	3132.1955	3157.9612	3160.4991	3179.6709	3187.8725
CC1C2C1C1OC2C1=O	C[C@H]1[C@H]2[C@@H]1[C@@H]1O[C@H]2C1=O	
InChI=1S/C7H8O2/c1-2-3-4(2)7-5(8)6(3)9-7/h2-4,6-7H,1H3	InChI=1S/C7H8O2/c1-2-3-4(2)7-5(8)6(3)9-7/h2-4,6-7H,1H3/t2-,3-,4+,6+,7-
