18
gdb 78856	3.38702	1.58399	1.36791	2.8259	73.41	-0.2205	0.0726	0.2931	983.8135	0.148277	-401.884799	-401.877504	-401.876559	-401.916058	29.813	
C	-0.175248179	 1.4914671404	 0.0217427002	-0.396007
C	 0.0396100042	-0.0244058116	 0.0165107649	-0.010109
C	 0.9653037295	-0.5088904847	-1.0849906207	-0.048725
C	 1.6678519879	-1.7603034618	-0.7115898116	-0.153149
N	 2.4069411245	-0.4561334801	-0.6670360087	-0.153165
C	 2.3243387895	-0.5029026406	 0.8446650904	-0.082434
C	 0.844106883	-0.5477273616	 1.1932531013	-0.169286
C	 1.6081789821	-1.8142916938	 0.833360767	 0.36674
O	 1.7910001171	-2.9159592143	 1.634758754	-0.462537
H	 0.782236383	 2.0181118312	 0.0808810777	 0.130198
H	-0.6874605709	 1.8205632839	-0.8883392537	 0.113873
H	-0.7855659811	 1.7993524385	 0.87682123	 0.112545
H	-0.9285213999	-0.5373737797	-0.0578518677	 0.075172
H	 0.7881288055	-0.2494366213	-2.1239041878	 0.093725
H	 1.9659404542	-2.5624192117	-1.3773757593	 0.099231
H	 3.1169334969	-0.0891510781	 1.4522434146	 0.10402
H	 0.5510540234	-0.3984808203	 2.2255325819	 0.091916
H	 0.9370000702	-3.3423983244	 1.7699712274	 0.287991
159.2491	219.4512	239.6894	267.077	327.3415	372.4729	504.8761	589.6002	617.0882	696.5132	718.4319	743.3655	792.9606	830.828	864.1318	896.5885	922.4878	938.3927	965.4968	983.7386	1010.0076	1032.1892	1040.6329	1059.5511	1116.8372	1120.3696	1142.0188	1180.9259	1211.3878	1241.4778	1268.4433	1295.8847	1309.565	1336.4423	1383.3707	1409.0158	1478.2159	1497.7519	1498.459	3020.9611	3034.1414	3100.1563	3111.0276	3165.8973	3178.9536	3195.2667	3213.5999	3783.9035
CC1C2C3N2C2C1C32O	C[C@H]1[C@@H]2[C@H]3N2[C@H]2[C@@H]1[C@@]32O	
InChI=1S/C7H9NO/c1-2-3-5-7(3,9)6-4(2)8(5)6/h2-6,9H,1H3	InChI=1S/C7H9NO/c1-2-3-5-7(3,9)6-4(2)8(5)6/h2-6,9H,1H3/t2-,3-,4-,5+,6-,7+,8?/m1/s1
