16
gdb 50391	5.92596	0.87241	0.76771	3.6444	82.7	-0.2393	-0.0355	0.2038	1400.0816	0.123888	-400.753307	-400.744842	-400.743898	-400.78714	30.622	
O	-0.0198209703	 0.0160745401	-0.1079996201	-0.339098
C	 0.0417982473	 1.2288620379	-0.081545383	 0.145955
N	 1.1972987041	 1.9348870159	-0.0553105734	-0.074091
C	 2.5041308601	 1.2750015721	-0.0566187969	-0.190209
C	 3.4460697914	 2.439961125	-0.0224188271	-0.206775
C	 2.7961923522	 3.611575342	-0.0038395184	 0.194408
C	 1.2946286623	 3.3929550074	-0.0231026445	-0.275825
C	 3.3506307595	 4.9112636782	 0.0293884024	 0.233932
C	 3.7762236423	 6.037791455	 0.0576685478	-0.421955
H	-0.8528123834	 1.8837689918	-0.0762127621	 0.072352
H	 2.6134226862	 0.6079182084	 0.8097672047	 0.137707
H	 2.6307085736	 0.6455273861	-0.9484188521	 0.137712
H	 4.5214191212	 2.3234954969	-0.0143548891	 0.119144
H	 0.8326457344	 3.8611177695	-0.903017948	 0.132742
H	 0.8153857087	 3.8231957524	 0.8668842889	 0.132749
H	 4.1677441906	 7.0247115713	 0.082650831	 0.201253
37.1361	129.1001	158.8411	193.4851	232.7122	324.6562	371.1351	425.303	534.9305	537.318	608.8522	615.0683	651.2446	771.7621	845.8032	872.6717	896.3204	1001.3191	1017.9708	1035.8408	1047.0682	1167.9538	1186.0904	1198.8707	1240.2266	1281.6739	1329.322	1356.1183	1406.362	1446.3074	1507.7084	1520.632	1683.298	1792.9915	2228.4733	2929.8175	3001.8349	3007.9663	3024.8875	3028.5182	3231.2986	3501.7127
O=CN1CC=C(C1)C#C	O=CN1CC=C(C1)C#C	
InChI=1S/C7H7NO/c1-2-7-3-4-8(5-7)6-9/h1,3,6H,4-5H2	InChI=1S/C7H7NO/c1-2-7-3-4-8(5-7)6-9/h1,3,6H,4-5H2
