16
gdb 19317	4.7621	1.67593	1.48385	0.9143	75.76	-0.2064	0.0365	0.2429	876.4055	0.129855	-309.362909	-309.356031	-309.355087	-309.393503	28.009	
C	 0.0498859737	-1.1806813282	-0.020815403	-0.416917
C	 0.0236329725	 0.0238620844	-0.0191237894	 0.197882
C	-0.0285741779	 1.4413819275	 0.0121647719	 0.169913
C	 0.2568319456	 2.3072755897	-1.2002265655	-0.347951
C	 1.1339794024	 2.454592034	 0.0027309778	-0.10561
C	 0.4857017777	 3.2129113961	 1.1895000532	-0.049969
C	-0.9206943161	 3.6848071714	 0.9304194848	-0.305384
C	-0.6683285843	 2.2287975342	 1.203265866	-0.099616
H	 0.0778520368	-2.2416218155	-0.029708022	 0.183212
H	 0.7107612557	 1.7562960257	-2.0174516038	 0.128513
H	-0.4319959121	 3.077957492	-1.5265668758	 0.118014
H	 2.1886318139	 2.2150512203	-0.0262858211	 0.10556
H	 1.0679897055	 3.5708185227	 2.0279276088	 0.094471
H	-1.3653105743	 4.211968491	 1.7697716118	 0.116764
H	-1.2530913745	 4.0612382972	-0.030268641	 0.115216
H	-1.0989106347	 1.7058548375	 2.0464144374	 0.095902
144.7625	153.2192	317.2571	417.1964	458.91	490.8163	511.2281	537.0127	592.4849	647.2979	701.1752	762.2562	785.7866	824.2041	879.4667	906.7003	927.4124	961.0285	986.1654	1025.4314	1030.0319	1060.9064	1069.0647	1094.5618	1099.4242	1178.627	1185.7739	1258.8254	1288.341	1315.6757	1379.5349	1472.0846	1509.9622	2225.6474	3126.4812	3139.2241	3194.2057	3201.0827	3205.4612	3211.3111	3218.7236	3504.9411
C#CC12CC1C1CC21	C#C[C@]12C[C@H]1[C@H]1C[C@@H]21	
InChI=1S/C8H8/c1-2-8-4-7(8)5-3-6(5)8/h1,5-7H,3-4H2	InChI=1S/C8H8/c1-2-8-4-7(8)5-3-6(5)8/h1,5-7H,3-4H2/t5-,6+,7-,8+/m0/s1
