17
gdb 114162	5.02257	0.892	0.825	2.1463	74.94	-0.2518	0.0047	0.2565	1357.8425	0.13646	-417.967095	-417.958568	-417.957624	-418.00055	31.475	
O	 0.1175560841	 1.3858663589	-0.038097071	-0.417304
C	 0.0585640595	-0.0182592615	 0.1661715254	-0.093191
C	-1.3632809163	-0.5507154183	 0.040499129	 0.014663
C	-2.0436441366	-0.5541849442	-1.3803267588	-0.318415
C	-2.2461696264	-2.0697888352	-1.2340670819	 0.247847
N	-0.8867873652	-2.6547747288	-1.0648034118	-0.354726
C	-1.5654874701	-2.0728518415	 0.10546809	-0.134803
C	-3.3414741454	-2.8558612095	-1.6921043428	 0.17085
N	-4.2376646639	-3.4845163144	-2.0697113805	-0.342065
H	-0.0215782292	 1.5545856361	-0.975196247	 0.286493
H	 0.7204637561	-0.5606928105	-0.521425808	 0.114158
H	 0.426969504	-0.1887123551	 1.1841071284	 0.111586
H	-2.0095857476	-0.0417066422	 0.7598424969	 0.097747
H	-2.9783783346	 0.0061810025	-1.4052606188	 0.132779
H	-1.4177712976	-0.2745097979	-2.2317990689	 0.113629
H	-0.9904469639	-3.668374136	-1.0128612989	 0.250774
H	-1.7929449769	-2.6781990524	 0.9743413886	 0.11998
83.3998	106.3626	140.2226	213.3927	240.8666	284.1882	380.4071	438.9602	461.1452	554.8003	576.5081	618.0298	697.4209	820.4272	848.2911	903.8488	914.6761	969.5233	1009.9843	1030.3579	1057.9378	1071.3581	1115.4119	1132.7452	1145.2622	1219.8312	1232.24	1240.7227	1289.9864	1316.6106	1361.2244	1389.8469	1398.4622	1420.7706	1474.9979	1507.4143	2343.7902	3021.4488	3068.2828	3070.2568	3087.7797	3142.1544	3197.0711	3479.1366	3821.4311
OCC1CC2(NC12)C#N	OC[C@H]1C[C@]2(N[C@@H]12)C#N	
InChI=1S/C6H8N2O/c7-3-6-1-4(2-9)5(6)8-6/h4-5,8-9H,1-2H2	InChI=1S/C6H8N2O/c7-3-6-1-4(2-9)5(6)8-6/h4-5,8-9H,1-2H2/t4-,5+,6+/m1/s1
