17
gdb 74605	3.22187	1.87584	1.50495	2.0036	76.76	-0.2318	-0.0088	0.223	906.6044	0.138183	-380.857579	-380.850726	-380.849782	-380.888469	27.652	
C	-0.1292606936	 1.4636953105	 0.0744203737	-0.493469
C	 0.0693022522	-0.0125243651	-0.0157269339	 0.324085
C	 0.0050052857	-0.8013313388	-1.1060405236	-0.168714
C	 0.1967986321	-2.2154559698	-0.7588637456	-0.055363
C	 0.5340715178	-2.2905679943	 0.6728699979	-0.056281
C	 0.1561387929	-0.9002632965	 1.2285418653	-0.131763
N	-1.2942062546	-1.0174547441	 1.5628025516	-0.209808
C	-1.6959044631	-2.0670996718	 0.9491468908	 0.054075
N	-0.7528849812	-2.9182621477	 0.341682555	-0.177907
H	 0.7404479096	 1.9486843184	 0.5356636691	 0.127177
H	-0.2873915822	 1.9092089859	-0.9113784599	 0.124953
H	-0.9947100746	 1.6959157968	 0.7040358944	 0.156424
H	-0.212431186	-0.4612310931	-2.11151995	 0.097617
H	 0.5061362805	-2.9556561723	-1.4847671761	 0.112596
H	 1.3124193274	-2.9174439275	 1.0965580135	 0.097242
H	 0.7406076503	-0.5145896589	 2.0643749552	 0.076565
H	-2.7455791132	-2.337694312	 0.8790642024	 0.12257
161.9469	176.5831	271.8837	350.6916	360.5494	451.2978	559.5763	579.5006	627.1614	740.5305	796.0993	841.536	866.1171	877.3248	896.3792	908.2186	939.4537	969.4189	995.3093	1007.272	1016.8026	1054.8892	1081.3291	1115.3116	1179.8105	1231.8634	1262.2149	1274.2744	1285.5201	1314.0393	1344.4247	1371.7344	1407.8986	1476.6796	1487.9423	1620.5351	1668.5852	3024.7198	3082.6835	3107.122	3116.9675	3156.8604	3184.0525	3198.6634	3213.4042
CC1=CC2C3C1N=CN23	CC1=C[C@H]2[C@H]3[C@@H]1[N][CH]N23	
InChI=1S/C7H8N2/c1-4-2-5-7-6(4)8-3-9(5)7/h2-3,5-7H,1H3	InChI=1S/C7H8N2/c1-4-2-5-7-6(4)8-3-9(5)7/h2-3,5-7H,1H3/t5-,6+,7-,9?/m0/s1
