17
gdb 33738	3.31556	1.51091	1.29652	3.2938	76.39	-0.2512	0.019	0.2702	992.5187	0.138861	-380.827309	-380.820608	-380.819664	-380.858252	27.621	
N	 0.0194516108	-1.1457725555	-0.0607101042	-0.341841
C	 0.0379873085	 0.0102928719	-0.0430911668	 0.154504
C	 0.0638316018	 1.4542082388	-0.0111891269	 0.210434
C	-0.3402456301	 2.2891476945	 1.2705096506	-0.237097
C	 0.4247451019	 3.3938392039	 0.4827774234	-0.014825
C	 1.3950980182	 2.2616566594	 0.0485567491	-0.284973
N	-0.5523058346	 3.6311702246	-0.6296337752	-0.106749
C	-0.1332983833	 3.1864884919	-1.9724452822	-0.254801
C	-0.7823876518	 2.2239418076	-1.0494852069	-0.067469
H	-1.4064281764	 2.4507175521	 1.4364186862	 0.123744
H	 0.1622871071	 1.9495700527	 2.1770902909	 0.119379
H	 0.7716368873	 4.3158885481	 0.9441777134	 0.090123
H	 2.0175588084	 1.9286467031	 0.8788770232	 0.124714
H	 2.0050843517	 2.3501787335	-0.8486329424	 0.116015
H	-0.7446792136	 3.6116245856	-2.7633252324	 0.129215
H	 0.9153902014	 3.1006362298	-2.2300414096	 0.124787
H	-1.8058161872	 1.894833468	-1.2024405702	 0.11484
144.4772	162.5571	343.9451	421.6592	505.217	513.6454	529.1251	566.502	578.2576	644.9444	752.4565	789.4297	841.4015	857.413	917.3319	934.1964	960.7516	975.5146	994.7365	1028.137	1068.798	1083.1268	1101.6167	1122.736	1143.7459	1179.4017	1185.4789	1222.17	1228.0756	1237.6912	1254.9697	1280.4793	1367.0356	1476.1879	1500.9333	1542.1354	2354.5785	3082.4219	3100.8406	3131.0995	3145.319	3153.6932	3156.2146	3157.2216	3215.3795
N#CC12CC(C1)N1CC21	N#C[C@@]12C[C@@H](C1)N1C[C@@H]21	
InChI=1S/C7H8N2/c8-4-7-1-5(2-7)9-3-6(7)9/h5-6H,1-3H2	InChI=1S/C7H8N2/c8-4-7-1-5(2-7)9-3-6(7)9/h5-6H,1-3H2/t5-,6-,7+,9?/m0/s1
