18
gdb 34864	3.7372	1.27738	1.1705	4.6504	76.21	-0.2196	0.0186	0.2382	1083.7445	0.151385	-398.094212	-398.086857	-398.085913	-398.125939	29.065	
N	-0.0766620464	-1.1235282778	-0.1100626314	-0.328549
C	-0.0154309325	 0.0304296196	-0.0682168384	 0.296985
C	 0.0109150096	 1.4840768972	 0.0396649775	-0.151388
C	-0.1555327105	 2.0621320984	 1.4960548567	-0.004357
C	 1.3795044435	 1.9252189008	 1.5549616019	-0.195903
N	 1.4201425871	 2.0389030684	 0.0468158032	-0.113155
C	 1.3166984393	 3.4682957203	-0.3188704948	-0.173858
C	 0.4706653375	 4.288700918	 0.7023846544	-0.182605
N	-0.5075650535	 3.4698915048	 1.4475341472	-0.283086
H	-0.6434983756	 1.9168866132	-0.7230016826	 0.106777
H	-0.7914468693	 1.5228263346	 2.2024723158	 0.093516
H	 1.9470214947	 2.678404202	 2.1037393623	 0.119909
H	 1.7062547684	 0.9280879939	 1.8560959057	 0.137043
H	 2.3288120164	 3.8834371721	-0.3728607488	 0.113653
H	 0.8951330489	 3.5164446897	-1.3285880178	 0.111422
H	 1.1469211607	 4.7595101007	 1.4248657336	 0.11994
H	-0.0544727505	 5.1072299238	 0.2033583346	 0.110251
H	-1.4402620976	 3.5805625905	 1.0665220308	 0.223404
125.8518	146.1924	208.2825	328.7467	363.9809	429.7542	470.2768	502.4876	547.2499	649.6745	728.9423	809.4898	823.397	857.9156	890.2866	898.7439	929.3457	950.154	975.7491	1030.3262	1049.169	1083.1065	1123.8409	1139.5243	1181.7357	1208.1127	1252.0591	1256.5905	1280.9816	1291.61	1332.0391	1350.8092	1367.2045	1393.5555	1473.1876	1494.101	1499.4862	1520.9328	2349.6999	3030.9582	3038.0414	3064.9762	3074.3137	3077.8373	3083.0151	3095.6298	3137.4561	3533.6284
N#CC1C2CN1CCN2	N#C[C@H]1[C@H]2CN1CCN2	
InChI=1S/C6H9N3/c7-3-6-5-4-9(6)2-1-8-5/h5-6,8H,1-2,4H2	InChI=1S/C6H9N3/c7-3-6-5-4-9(6)2-1-8-5/h5-6,8H,1-2,4H2/t5-,6+/m1/s1
