17
gdb 130461	3.69547	1.13528	0.9017	8.8616	70.44	-0.2249	0.0432	0.2681	1255.6404	0.138517	-451.323832	-451.315704	-451.31476	-451.357219	29.869	
N	 1.0792253669	 1.1019033127	 0.4952386853	-0.50733
H	 0.9646509988	 0.1556210893	 0.1426520931	 0.24458
H	 2.3882157084	 0.9324181201	 1.9552569195	 0.277101
H	 1.3089582785	 1.6791943605	-0.3071522684	 0.248917
C	-0.1784066042	 1.5649452486	 1.1109186868	-0.163247
C	-0.3875437733	 1.0177575751	 2.5250520631	-0.076634
O	 0.3582668893	 1.7200347618	 3.5245408077	-0.262632
C	 1.5658186801	 1.2427602865	 3.8727249196	 0.425669
N	 2.5252286011	 0.888672369	 2.9680638997	-0.308364
C	 3.5913118659	 0.5375768302	 3.7477316199	 0.018355
N	 3.3038456195	 0.6746914524	 5.0159612682	-0.218186
N	 1.9939127284	 1.1237427887	 5.100327317	-0.2971
H	-0.1487646082	 2.6569194711	 1.1752885552	 0.137096
H	-1.0619800203	 1.2970393507	 0.5119138492	 0.10414
H	-1.4365615784	 1.1575850503	 2.8018002429	 0.130226
H	-0.1635460731	-0.0558107497	 2.5703025976	 0.114651
H	 4.5318911406	 0.1909207727	 3.3483786437	 0.132759
63.7552	93.5825	173.2188	220.4203	300.0741	305.3742	378.3636	435.846	528.2312	658.9473	674.7806	743.8642	810.5238	843.1732	860.0588	876.7935	968.974	984.1167	1003.1341	1030.529	1044.0935	1088.7487	1112.8692	1146.4123	1210.0561	1242.8593	1324.519	1342.391	1376.1927	1421.0179	1425.7597	1435.1339	1486.1371	1489.0392	1532.2871	1611.6917	1656.3974	2991.2878	3028.0731	3089.0212	3097.9236	3261.0747	3363.7108	3496.658	3574.8022
[NH3+]CCOC1=NC=N[N-]1	NCCOc1[nH]cnn1	
InChI=1S/C4H7N4O/c5-1-2-9-4-6-3-7-8-4/h3H,1-2,5H2/q-1/p+1	InChI=1S/C4H8N4O/c5-1-2-9-4-6-3-7-8-4/h3H,1-2,5H2,(H,6,7,8)
