27
gdb 117651	2.50054	0.90137	0.796	1.2962	92.01	-0.2608	0.0734	0.3342	1628.2767	0.249234	-390.694547	-390.682498	-390.681553	-390.731465	44.961	
C	 0.1225110204	 1.5434702341	 0.0439984436	-0.410979
C	-0.0416244752	 0.0131781569	 0.0369130314	 0.044923
C	 0.8469152473	-0.5817304092	 1.1441902692	-0.40862
C	-1.5345942737	-0.4742764286	 0.077624793	 0.26312
C	-2.2753462765	 0.0878138	 1.3078738632	-0.420269
C	-2.2541005288	 0.0055290956	-1.200783873	-0.421526
C	-1.5374751238	-2.0260232684	 0.1204955501	-0.185215
C	-2.8714194765	-2.7257290965	-0.1313632139	-0.102777
O	-2.6635989207	-4.108841535	 0.1330329514	-0.422359
H	 1.1744368898	 1.804122715	-0.1126585383	 0.110212
H	-0.4535290482	 2.0380036514	-0.7418595372	 0.111157
H	-0.1763224845	 1.9769533512	 1.0043134081	 0.114859
H	 0.3570319206	-0.3490301595	-0.922158874	 0.066675
H	 0.4959434388	-0.2967303022	 2.1422194307	 0.113183
H	 0.8978527823	-1.6718172819	 1.1041017152	 0.119141
H	 1.869493422	-0.2033212474	 1.0430111326	 0.107477
H	-2.3249009097	 1.1803146322	 1.2802800214	 0.111711
H	-3.3059544699	-0.277791523	 1.3482240555	 0.109504
H	-1.7892612878	-0.2037019143	 2.2440332351	 0.112969
H	-1.7809598441	-0.4049961913	-2.1002763438	 0.107516
H	-3.3043768158	-0.3013251868	-1.2062597144	 0.110185
H	-2.2447412471	 1.095064057	-1.2856678699	 0.111298
H	-0.8202212313	-2.4121918301	-0.6151885674	 0.095654
H	-1.1888147462	-2.3701359699	 1.0995866571	 0.107569
H	-3.6569437829	-2.3179410873	 0.5240678963	 0.08483
H	-3.2009807768	-2.5746809107	-1.1695585774	 0.086635
H	-3.4799907517	-4.5763638011	-0.0656428746	 0.283125
48.4534	86.3775	108.3955	151.8376	205.8128	236.8618	242.8287	262.5191	273.8158	305.8024	316.6825	324.8545	350.1553	374.6049	386.3108	445.617	484.5435	560.3934	714.701	797.2443	834.728	917.8728	928.4524	936.4282	960.1256	973.2553	994.421	1021.5757	1024.6896	1069.2885	1110.5839	1123.66	1170.5474	1206.0224	1222.365	1241.2514	1259.8822	1273.0172	1328.6132	1348.6047	1354.0856	1369.2477	1396.3237	1402.6837	1414.842	1429.9841	1459.3868	1482.4357	1483.9506	1487.9232	1492.1627	1506.1942	1509.5481	1513.4315	1514.6381	1521.201	1530.9146	2976.1251	2991.1058	3005.6993	3026.3848	3032.4341	3034.8637	3037.5503	3043.8485	3079.912	3090.9709	3096.0967	3098.9734	3103.3469	3107.723	3111.1905	3121.3791	3122.0964	3829.0409
CC(C)C(C)(C)CCO	CC(C)C(C)(C)CCO	
InChI=1S/C8H18O/c1-7(2)8(3,4)5-6-9/h7,9H,5-6H2,1-4H3	InChI=1S/C8H18O/c1-7(2)8(3,4)5-6-9/h7,9H,5-6H2,1-4H3
