19
gdb 41853	2.39772	2.04667	1.6271	1.8597	74.59	-0.2412	0.0164	0.2576	921.8641	0.163007	-423.042876	-423.036046	-423.035102	-423.07375	28.426	
C	-0.018659956	 1.3699702621	-0.1062652759	-0.081482
C	 1.3875497658	 1.9659327362	 0.0060282812	-0.217013
C	 2.1009855747	 1.3270216504	 1.2154263079	 0.040348
O	 2.0848355275	-0.0933179169	 1.029713434	-0.257779
C	 0.7625049267	-0.5820479249	 1.0273580756	 0.185194
C	 0.0987455002	-0.3679622208	 2.4060721968	-0.29277
C	 0.535882242	 0.9085337878	 3.0732820768	-0.065792
C	 1.4582485975	 1.6978629678	 2.5289537082	-0.063046
O	 0.015765574	-0.054349492	-0.0508173405	-0.261302
H	-0.6658501133	 1.7704814326	 0.6871622831	 0.099135
H	-0.4764303595	 1.6185928917	-1.0675678852	 0.109813
H	 1.9633227358	 1.733224308	-0.8955933944	 0.111634
H	 1.3310282823	 3.0551724892	 0.1086207895	 0.097129
H	 3.1590076963	 1.6067734274	 1.2201446813	 0.085506
H	 0.8395053994	-1.6501063297	 0.809024711	 0.091118
H	-0.9900743141	-0.3906874237	 2.2766980511	 0.120501
H	 0.3442105845	-1.2219941756	 3.0517683162	 0.1165
H	 0.0801418883	 1.15597506	 4.0287375241	 0.091978
H	 1.7639453478	 2.6288838306	 2.997505849	 0.09033
145.3641	236.4192	299.5787	384.4053	411.7378	454.1521	501.5999	520.0651	651.9269	691.1122	726.7931	798.9743	832.9273	861.2963	901.1147	914.0322	949.2107	967.2146	994.5001	1014.5725	1039.0689	1050.345	1099.0016	1100.7579	1141.8285	1192.3539	1226.1533	1237.2218	1267.6485	1317.5626	1333.7849	1359.8618	1363.3083	1388.6986	1401.66	1416.0463	1423.9255	1461.0394	1469.2176	1508.7081	1722.6236	3006.0911	3017.5941	3041.3377	3055.9941	3059.7981	3083.3027	3086.5337	3095.4924	3150.9252	3176.9259
C1CC2OC(CC=C2)O1	C1C[C@@H]2O[C@@H](CC=C2)O1	
InChI=1S/C7H10O2/c1-2-6-4-5-8-7(3-1)9-6/h1-2,6-7H,3-5H2	InChI=1S/C7H10O2/c1-2-6-4-5-8-7(3-1)9-6/h1-2,6-7H,3-5H2/t6-,7+/m1/s1
