21
gdb 40077	3.15019	1.39441	1.34253	1.6811	81.04	-0.2401	0.0829	0.323	1072.7618	0.184783	-387.074999	-387.067414	-387.06647	-387.106958	30.801	
C	-0.3707057777	 1.331864681	 0.1855266167	-0.29271
C	 1.0887780439	 0.9929604124	-0.0131446381	-0.346358
C	 0.0649243603	-0.1046280879	 0.0234264036	 0.394699
C	-0.0426892345	-1.0889929461	 1.18772723	-0.308691
C	-1.2287858103	-1.9943722576	 0.8178084215	-0.069927
C	-2.6319124408	-1.3589678513	 0.9034150278	-0.075003
O	-2.6972097998	-1.1754744324	-0.5259187648	-0.297016
C	-1.4257999459	-1.8390156475	-0.7201276119	 0.134773
C	-0.3339041355	-0.8943358009	-1.220124068	-0.304308
H	-0.6835891633	 1.6679773239	 1.1689084511	 0.106049
H	-0.9075099775	 1.7974944315	-0.6339410921	 0.115701
H	 1.5452504673	 1.2358181899	-0.9674412927	 0.108799
H	 1.7571417524	 1.0989432249	 0.8356098434	 0.107413
H	 0.8713159749	-1.6936743283	 1.2552643423	 0.097979
H	-0.1723587165	-0.5914917569	 2.1548284265	 0.096571
H	-1.1491864069	-3.0039211413	 1.2220428663	 0.072049
H	-3.4236379567	-2.029472755	 1.262170201	 0.094885
H	-2.6987507559	-0.4069261712	 1.4447638329	 0.098654
H	-1.5400278601	-2.7442651313	-1.3265708299	 0.065658
H	-0.6856308983	-0.2663944786	-2.0439558278	 0.107519
H	 0.5141886608	-1.4886162373	-1.5880382277	 0.093264
105.3661	123.4606	253.2153	322.3282	338.277	379.2976	384.553	531.545	624.0238	762.9213	775.6374	796.7459	848.1764	857.3034	875.224	897.5811	913.6967	938.8521	943.7857	984.4326	1019.7041	1023.741	1044.4225	1055.4556	1074.9264	1079.729	1113.2395	1157.7782	1161.2007	1171.8399	1187.1751	1248.111	1267.1595	1279.9488	1297.1372	1300.8697	1345.6025	1347.4008	1370.9395	1393.7876	1465.1567	1469.514	1488.2574	1506.9647	1524.0292	3006.0531	3012.3203	3018.7031	3044.3706	3048.5633	3069.8684	3089.2403	3104.336	3122.1748	3128.2143	3199.9041	3216.0232
C1CC11CC2COC2C1	C1CC21C[C@H]1CO[C@H]1C2	
InChI=1S/C8H12O/c1-2-8(1)3-6-5-9-7(6)4-8/h6-7H,1-5H2	InChI=1S/C8H12O/c1-2-8(1)3-6-5-9-7(6)4-8/h6-7H,1-5H2/t6-,7-/m0/s1
