16
gdb 49499	2.25556	1.65651	1.16089	2.3073	70.75	-0.2463	-0.0528	0.1936	1055.8198	0.123144	-437.819208	-437.811121	-437.810177	-437.85269	29.148	
O	-0.9575012385	 1.1113313342	-0.2168266882	-0.250446
C	 0.0877928076	 0.9234540248	 0.3565862747	 0.120826
C	 1.2983385434	 1.8154764801	 0.2655584249	-0.115117
C	 1.3503992321	 3.0933455275	-0.623775337	-0.037416
C	 0.3588671245	 3.8023294005	 0.3330110012	-0.242682
C	 1.4385428887	 3.0750275608	 1.1969751741	 0.229642
N	 2.4614209842	 3.6742839634	 0.2500273955	-0.353675
C	 1.5822947173	 3.087344682	 2.6828940079	 0.026539
O	 1.2817870889	 2.1521243688	 3.3814661905	-0.242217
H	 0.2275691202	 0.041092656	 1.0183780895	 0.097958
H	 2.2102247274	 1.2060744369	 0.261730459	 0.087156
H	 1.393189497	 3.1458274846	-1.7108489729	 0.102794
H	 0.4332127547	 4.8889173374	 0.3477030457	 0.120582
H	-0.6577001116	 3.4217292741	 0.3734943648	 0.145025
H	 3.2801593738	 3.0569439887	 0.211247271	 0.212886
H	 1.9782916104	 4.0377728102	 3.1024288295	 0.098147
65.766	85.6841	132.4829	218.5063	269.3236	288.1606	420.7499	472.4029	577.0607	671.1354	720.9157	769.8742	820.1718	868.7549	899.1917	931.3541	978.3496	1014.0032	1028.0108	1061.9951	1068.3487	1106.27	1151.8369	1165.6558	1201.7118	1214.7676	1259.4687	1287.7289	1300.7475	1385.6083	1405.7978	1424.9607	1498.766	1811.3518	1819.5931	2896.947	2900.8573	3043.9014	3109.3569	3129.2197	3204.2815	3372.7675
O=CC1C2CC1(N2)C=O	O=C[C@H]1[C@H]2C[C@@]1(N2)C=O	
InChI=1S/C6H7NO2/c8-2-4-5-1-6(4,3-9)7-5/h2-5,7H,1H2	InChI=1S/C6H7NO2/c8-2-4-5-1-6(4,3-9)7-5/h2-5,7H,1H2/t4-,5+,6+/m0/s1
