20
gdb 5870	4.21704	0.97188	0.94805	1.372	77.38	-0.2529	0.0576	0.3105	1318.2961	0.173102	-348.98173	-348.971715	-348.970771	-349.016183	37.13	
C	-0.1027743334	 1.5513252474	 0.1835256982	-0.394151
C	 0.0167064389	 0.0336637949	 0.0176395647	 0.344177
C	 0.7198163306	-0.5817755163	 1.2354733599	-0.424023
O	-1.3359292058	-0.4404241065	-0.0494693711	-0.455854
C	 0.7747271452	-0.3575067386	-1.2699573902	-0.197251
C	 0.0990629351	 0.12527229	-2.5694839467	-0.368399
C	 0.726028485	-0.4267462231	-3.7635156731	 0.289387
C	 1.2609640843	-0.897807249	-4.731782749	-0.435172
H	 0.8851665721	 2.0211867119	 0.1901540994	 0.112575
H	-0.693021529	 1.9892518885	-0.6250147406	 0.126041
H	-0.6053721329	 1.785212716	 1.1260037142	 0.120524
H	 0.1604637025	-0.3553072328	 2.1476347772	 0.122212
H	 0.7884612695	-1.6718359154	 1.1364969871	 0.10378
H	 1.7381169112	-0.1957263237	 1.3470734807	 0.117
H	-1.3105073497	-1.4037063028	-0.0516835089	 0.276202
H	 1.8018818367	 0.02158587	-1.224225607	 0.10604
H	 0.8540281546	-1.4516437034	-1.3057813499	 0.095648
H	-0.9599802016	-0.154980532	-2.5353766029	 0.141304
H	 0.1245071677	 1.2200528278	-2.6233544061	 0.129629
H	 1.7229429191	-1.305529533	-5.5961927358	 0.19033
60.6514	107.3565	127.3738	209.9863	233.9962	249.5604	311.5075	333.9732	340.5689	354.9215	399.2908	439.928	505.8787	541.4312	612.9346	631.9782	766.7955	775.9114	908.5584	933.1711	943.2789	958.8676	997.7242	1036.4705	1050.9099	1127.8621	1165.896	1221.57	1240.0301	1288.8268	1312.5664	1372.2425	1383.7069	1403.84	1421.2041	1469.2836	1481.4023	1488.6609	1490.998	1499.2623	1510.8731	2237.785	3021.5445	3027.3779	3037.0081	3046.5613	3060.3995	3080.4958	3093.9464	3113.6881	3120.801	3124.5239	3507.7786	3800.016
CC(C)(O)CCC#C	CC(C)(O)CCC#C	
InChI=1S/C7H12O/c1-4-5-6-7(2,3)8/h1,8H,5-6H2,2-3H3	InChI=1S/C7H12O/c1-4-5-6-7(2,3)8/h1,8H,5-6H2,2-3H3
