15
gdb 13916	3.73736	1.8706	1.54723	2.8319	62.16	-0.258	0.0048	0.2628	843.4323	0.119387	-399.77148	-399.764467	-399.763523	-399.803212	25.549	
N	 0.143358252	 1.2327783911	-0.1734270401	-0.544711
C	 0.0740317988	 0.0026238778	 0.0476182871	 0.388633
O	 1.0227528689	-0.9039594588	 0.47788323	-0.261284
C	 0.0756531123	-2.0158204662	 0.3931790992	-0.137798
C	-1.040888823	-1.0367440378	-0.0203026126	 0.305294
C	-2.3707318949	-0.8334166502	 0.7300645274	-0.35113
C	-3.0068873575	-0.9863330066	-0.6655594784	-0.07187
O	-1.7118752417	-1.2524605079	-1.2588643888	-0.301815
H	 1.0844688278	 1.5963469388	-0.0128764129	 0.231601
H	 0.3593028601	-2.7224275622	-0.3903548995	 0.133165
H	-0.0329198383	-2.5174728419	 1.3581355267	 0.119582
H	-2.6135116055	-1.6242530403	 1.4418970158	 0.118492
H	-2.4831810416	 0.1412438654	 1.2047640812	 0.139021
H	-3.6938243063	-1.8279903366	-0.802510852	 0.110175
H	-3.456653291	-0.0766982847	-1.0763243231	 0.122647
76.4147	117.5804	192.0291	269.3471	323.8094	478.3525	562.7634	673.1998	752.2359	786.6046	863.0176	873.5316	894.8739	906.0825	966.1325	980.3397	1004.3049	1023.2308	1138.6191	1144.6943	1167.0169	1172.2342	1216.5495	1228.3289	1242.8679	1274.6727	1352.7504	1364.5838	1481.9777	1501.3483	1527.8256	1826.0979	3038.4254	3061.1496	3083.2329	3087.6482	3127.2289	3148.5415	3475.0513
N=C1OCC11CCO1	[NH][C]1OC[C@]21CCO2	
InChI=1S/C5H7NO2/c6-4-5(3-7-4)1-2-8-5/h6H,1-3H2	InChI=1S/C5H7NO2/c6-4-5(3-7-4)1-2-8-5/h6H,1-3H2/t5-/m0/s1
