17
gdb 115195	4.6676	0.98541	0.84725	4.8896	72.34	-0.266	-0.0512	0.2148	1326.196	0.135863	-458.988679	-458.980246	-458.979301	-459.022261	30.512	
C	 0.0487990038	 1.4482917491	-0.050691951	-0.242696
O	 0.1406696174	 0.0412681694	 0.0303792004	-0.24191
C	 0.6437396381	-0.5786667376	-1.1379992432	 0.051023
C	 1.2014607649	-1.9294437433	-0.6961467012	-0.102426
O	 1.5753797349	-2.7565544345	-1.802939802	-0.242951
C	 0.7057546142	-2.8984230837	-2.8414173156	 0.427274
O	 0.8950240136	-3.7573535602	-3.6615687071	-0.335253
C	-0.4063239923	-1.9206892796	-2.9219589825	-0.199151
C	-0.4261312423	-0.8174415401	-2.1730680822	-0.07787
H	 1.0310519418	 1.9056031521	-0.2424072171	 0.115271
H	-0.645565835	 1.7792316877	-0.8367672346	 0.111926
H	-0.3255433232	 1.7991124589	 0.913367335	 0.138448
H	 1.4508727475	 0.0357564857	-1.5732315345	 0.094223
H	 2.1030721516	-1.8057232329	-0.0947604444	 0.130163
H	 0.440535811	-2.4348482766	-0.0889839956	 0.127655
H	-1.1484557066	-2.1358837265	-3.6814497285	 0.127572
H	-1.2070729893	-0.0705735979	-2.2851579357	 0.118701
73.1095	91.6896	168.6403	194.5269	258.2673	277.6862	362.0216	435.125	470.8689	505.3752	590.0278	706.5226	753.251	805.837	842.4936	935.4326	1004.6168	1006.9476	1065.1285	1086.0468	1118.6856	1139.2194	1168.1418	1184.01	1221.2666	1237.4668	1264.0869	1344.1622	1357.9768	1394.1731	1420.3794	1479.3282	1489.9265	1506.7585	1508.2479	1691.6049	1832.1743	2953.5647	2983.901	3033.2047	3041.6373	3123.9683	3126.3149	3170.9041	3212.4317
COC1COC(=O)C=C1	CO[C@H]1COC(=O)C=C1	
InChI=1S/C6H8O3/c1-8-5-2-3-6(7)9-4-5/h2-3,5H,4H2,1H3	InChI=1S/C6H8O3/c1-8-5-2-3-6(7)9-4-5/h2-3,5H,4H2,1H3/t5-/m1/s1
