14
gdb 19900	4.1204	2.0293	1.74513	4.3634	60.92	-0.2324	-0.0038	0.2286	756.0478	0.106108	-382.45698	-382.450627	-382.449683	-382.487619	24.421	
O	-0.1645167732	 0.1851121506	 0.4678262371	-0.268666
C	-0.0614321854	 1.2310123237	-0.1198649056	 0.151046
C	 1.187854372	 2.0812949094	-0.0574522961	-0.114192
C	 1.2533282885	 3.576256827	-0.1981677872	-0.132489
C	 0.0634847718	 4.2700088152	 0.5358434643	 0.020997
O	-0.7845213176	 3.2554909578	 1.0970791018	-0.231604
C	 0.4165019696	 3.6237996656	 1.7956748212	 0.027663
C	 1.6240007465	 2.9032717877	 1.1283607342	-0.104878
H	-0.8441826563	 1.592223706	-0.8179064139	 0.079684
H	 2.0318534608	 1.5776271406	-0.5266624436	 0.124258
H	 1.9025979712	 4.0858234647	-0.8971859656	 0.10243
H	-0.3841087278	 5.2289961487	 0.307276467	 0.118703
H	 0.3192863312	 3.9319577533	 2.8287184364	 0.120832
H	 2.5980128188	 2.8074675097	 1.5883586799	 0.106218
91.2052	168.6598	292.7656	393.6635	459.6582	592.5772	676.9609	726.5612	743.2102	780.8939	809.652	862.5594	882.4782	917.8357	957.476	981.5671	999.2661	1024.0598	1040.6167	1044.1596	1069.7004	1159.9959	1228.484	1232.9589	1268.5529	1298.0726	1354.5852	1412.2874	1422.4505	1814.2761	2912.9935	3132.6423	3192.9109	3205.931	3207.0969	3217.1713
O=CC1C2C3OC3C12	O=C[C@H]1[C@H]2[C@H]3O[C@H]3[C@@H]12	
InChI=1S/C6H6O2/c7-1-2-3-4(2)6-5(3)8-6/h1-6H	InChI=1S/C6H6O2/c7-1-2-3-4(2)6-5(3)8-6/h1-6H/t2-,3+,4-,5+,6-
