21
gdb 78367	3.99476	1.16826	1.07698	0.579	90.18	-0.2168	0.0227	0.2395	1226.6581	0.184161	-349.917733	-349.909941	-349.908997	-349.949645	31.721	
C	-0.1717662318	 1.3249997777	 0.1006395161	-0.423799
C	 0.0876291747	-0.1518808694	-0.1073711258	 0.010245
C	 0.9538839645	-0.5466653808	-1.2663540475	-0.106792
C	 1.4907315163	-0.6677709193	 0.1864274575	-0.202606
C	 1.4219442964	-2.1616415742	 0.0455303574	 0.318514
C	 1.1250411226	-3.3422568709	 0.5788232656	-0.242861
C	 0.5372109077	-4.2331896997	-0.5215318231	-0.233249
C	 0.0845759331	-3.2118917734	-1.6237118272	-0.257901
C	 1.1098912587	-2.0836659667	-1.4274106688	-0.028487
H	 0.7050541799	 1.9238834211	-0.1678725183	 0.116097
H	-1.0091520636	 1.6666403126	-0.5178823511	 0.119553
H	-0.4168644373	 1.5420270326	 1.1457791215	 0.11931
H	-0.744016639	-0.7973757979	 0.1682837205	 0.084376
H	 1.2374675171	 0.1806620995	-2.0187757471	 0.080372
H	 2.2149485576	-0.059129224	 0.7138945245	 0.089976
H	 1.2048368271	-3.6549722839	 1.6133851061	 0.088878
H	 1.2799997111	-4.9389621091	-0.9222180219	 0.101105
H	-0.2965607036	-4.8413822762	-0.153556232	 0.099369
H	 0.0687473598	-3.6481938355	-2.6267167322	 0.088583
H	-0.9265494158	-2.8591569554	-1.3913482581	 0.099956
H	 2.0165887846	-2.2681845371	-2.020709106	 0.079361
131.4615	175.3895	223.0358	248.3941	288.2264	334.7911	451.1125	484.6762	611.9343	660.5878	712.6284	747.6141	813.2766	832.2171	864.0944	876.5913	888.3838	900.3775	939.2321	957.2382	989.1992	1013.2954	1035.5728	1067.6859	1084.1822	1096.5778	1119.5651	1145.6697	1158.0517	1170.9301	1199.3426	1216.7789	1247.6505	1258.8185	1293.5147	1306.5667	1321.1959	1357.5708	1411.2036	1417.2618	1480.2613	1493.0581	1495.6112	1500.9122	1729.3175	2997.3391	3002.5153	3027.7962	3040.3059	3061.5855	3091.2996	3093.8772	3095.0071	3123.2105	3170.7448	3186.3811	3196.3559
CC1C2C1C1=CCCC21	C[C@H]1[C@H]2[C@@H]1[C]1[CH]CC[C@@H]21	
InChI=1S/C9H12/c1-5-8-6-3-2-4-7(6)9(5)8/h3,5,7-9H,2,4H2,1H3	InChI=1S/C9H12/c1-5-8-6-3-2-4-7(6)9(5)8/h3,5,7-9H,2,4H2,1H3/t5-,7-,8+,9-/m1/s1
