15
gdb 7918	3.51003	1.84774	1.29265	6.8474	65.31	-0.233	-0.0101	0.2229	915.1641	0.119443	-399.862198	-399.854667	-399.853723	-399.893742	28.388	
C	-0.0319708641	 1.5286071697	 0.0100949141	-0.401103
C	 0.0392592281	 0.002203273	 0.0334092478	 0.047942
O	 0.7838095711	-0.4630602248	-1.0856372149	-0.249711
C	 1.8571699097	-1.2393030802	-0.6560023263	 0.44785
O	 2.6195855453	-1.7309526424	-1.4404489214	-0.363368
C	 1.8190097067	-1.2882438603	 0.8033597729	-0.407344
C	 0.7615878293	-0.5739544077	 1.2356411488	 0.371578
N	 0.2777048148	-0.3790068618	 2.4933372899	-0.588212
H	 0.9704158582	 1.9572377348	 0.0931375711	 0.137448
H	-0.4776831602	 1.8611103331	-0.9302302725	 0.1455
H	-0.6503036236	 1.9112476091	 0.8294892344	 0.108112
H	-0.9746749384	-0.4181129429	-0.0275717763	 0.110936
H	 2.5489591076	-1.8303772693	 1.3846791751	 0.11049
H	 0.8710622571	-0.6127598898	 3.2731161747	 0.267622
H	-0.3406367516	 0.3990521895	 2.6547191425	 0.26226
124.5281	172.8357	227.8021	249.8869	341.4608	367.2401	405.0023	467.3537	541.5218	600.2684	641.3522	699.5612	742.619	805.9204	826.8772	893.9912	959.5441	1067.8336	1077.1767	1115.4911	1119.1771	1169.751	1265.3646	1327.5562	1357.3672	1400.139	1416.3652	1484.2161	1496.1561	1643.9372	1704.0493	1870.0294	3010.7232	3039.8735	3112.1473	3135.0107	3251.3294	3595.1835	3702.7045
CC1OC(=O)C=C1N	C[C@H]1OC(=O)C=C1N	
InChI=1S/C5H7NO2/c1-3-4(6)2-5(7)8-3/h2-3H,6H2,1H3	InChI=1S/C5H7NO2/c1-3-4(6)2-5(7)8-3/h2-3H,6H2,1H3/t3-/m1/s1
