14
gdb 29066	2.78431	1.73903	1.07045	4.3428	78.96	-0.2407	-0.0892	0.1514	1033.2685	0.103008	-436.739459	-436.732602	-436.731658	-436.771147	26.15	
O	 0.0173114665	 1.3156863533	 0.0077434461	-0.368505
C	-0.0407497022	-0.0027862599	 0.0014080437	 0.281437
C	-1.2621717101	-0.6264984322	 0.0051569252	-0.195251
C	-1.5025577202	-2.0121362936	-0.0009374192	-0.053737
C	-0.5922833845	-3.0391923513	-0.0110994325	-0.117633
C	 0.8216916702	-2.9353646448	-0.0174753422	 0.025412
N	 1.6492526222	-1.924934268	-0.0170772451	-0.313162
C	 1.3447077225	-0.5956990024	-0.0098867192	 0.334097
O	 2.2350923037	 0.2596113743	-0.011824073	-0.389673
H	 1.0006843052	 1.4790486524	 0.002107364	 0.323645
H	-2.1232917511	 0.0344745382	 0.0133797923	 0.121575
H	-2.5518681618	-2.2972619045	 0.0030944793	 0.121881
H	-0.980498368	-4.0527878558	-0.0142899843	 0.107362
H	 1.3321755376	-3.9022915654	-0.024069075	 0.122553
69.1981	178.6428	362.7793	384.9318	386.8408	413.2866	451.6331	577.0333	591.986	683.6303	751.2357	780.3393	819.8596	891.4386	903.499	921.407	976.6698	1008.069	1025.3071	1087.4023	1210.3607	1246.7825	1295.6473	1364.3723	1457.3333	1459.1877	1497.2623	1534.3757	1650.0817	1655.2937	1698.2226	3090.2482	3157.8698	3180.3856	3187.2835	3265.5451
OC1=CC=CC=NC1=O	Oc1ccccnc1=O	
InChI=1S/C6H5NO2/c8-5-3-1-2-4-7-6(5)9/h1-4H,(H,7,8,9)	InChI=1S/C6H5NO2/c8-5-3-1-2-4-7-6(5)9/h1-4H,(H,7,8,9)
