22
gdb 102622	1.82683	1.20027	0.91175	2.3599	79.85	-0.2524	0.0255	0.2779	1437.5764	0.191767	-441.501666	-441.49059	-441.489646	-441.538758	39.113	
C	 0.7381448647	 1.414238413	 0.0818306433	-0.388909
C	 0.3127205558	-0.0518345983	-0.0217674476	-0.173285
C	-1.1997513805	-0.2510938969	-0.0613307854	 0.110752
C	-1.6166749243	-1.7184374613	-0.1704321373	-0.085983
O	-1.1301424401	-2.4991011097	 0.9092215482	-0.422847
O	-1.7272263558	 0.2687983557	 1.1903203173	-0.273878
C	-2.9688139653	 0.8058055685	 1.19396226	 0.397679
C	-3.2945030855	 1.3288487445	 2.5706719459	-0.461749
N	-3.6905144012	 0.8317205493	 0.1499057269	-0.514498
H	 1.8284191523	 1.5047759367	 0.0953426726	 0.112824
H	 0.3650838052	 1.9982488781	-0.7670102861	 0.114318
H	 0.3508447881	 1.8698316634	 0.997270966	 0.12174
H	 0.7221768789	-0.4965541572	-0.9371338243	 0.099343
H	 0.7203196741	-0.6332373993	 0.8114750068	 0.111563
H	-1.6530871725	 0.3133782935	-0.8811923083	 0.111208
H	-2.7112235273	-1.771411752	-0.2471030266	 0.109306
H	-1.1935428274	-2.1491960074	-1.0841457599	 0.107471
H	-1.4222696312	-2.0584385033	 1.7150429931	 0.28381
H	-2.5722597706	 2.0978633858	 2.8612350859	 0.148838
H	-4.299936055	 1.7512039125	 2.60203752	 0.128384
H	-3.2218712008	 0.5240243409	 3.3085982286	 0.142768
H	-4.5799570914	 1.2860556235	 0.3412998511	 0.221146
51.4371	71.2287	92.6431	109.9956	120.0664	179.6996	216.9057	245.5477	284.6424	344.4928	381.8611	434.2482	453.9989	572.0391	600.5714	678.7812	768.184	846.2425	857.8792	868.1372	940.7106	959.7267	998.6899	1038.7186	1059.3339	1067.0466	1079.7745	1103.2687	1134.5652	1172.8573	1229.7705	1284.6742	1314.1577	1347.1992	1371.0368	1387.1292	1407.0363	1408.4261	1417.3245	1428.6651	1471.6727	1480.289	1481.534	1497.6432	1503.4277	1509.128	1724.8843	3015.1625	3036.0183	3037.4416	3048.5394	3073.3257	3077.9943	3088.1745	3105.0149	3111.3841	3117.7422	3144.4753	3520.5986	3802.7869
CCC(CO)OC(C)=N	CC[C@@H](CO)O[C](C)[NH]	
InChI=1S/C6H13NO2/c1-3-6(4-8)9-5(2)7/h6-8H,3-4H2,1-2H3	InChI=1S/C6H13NO2/c1-3-6(4-8)9-5(2)7/h6-8H,3-4H2,1-2H3/t6-/m0/s1
