14
gdb 43604	2.37452	1.45285	1.04809	2.4433	76.9	-0.2726	-0.0185	0.2541	1130.2399	0.097713	-399.467005	-399.458511	-399.457567	-399.500212	31.858	
N	 0.0220185264	 1.0675300893	 0.8468870873	-0.536116
C	-0.0227790896	 0.0090037472	 0.1822665241	 0.439686
C	-1.1295555669	-0.9099039193	-0.27542616	-0.40133
C	 0.0341872516	-1.7337646823	-0.9265497865	 0.051419
O	 0.9926835255	-0.7289253251	-0.3979508464	-0.264061
C	 0.275086487	-3.0466108818	-0.3486255452	 0.306393
C	 0.4521250698	-4.1273001668	 0.1436729761	-0.435919
C	 0.0481443105	-1.7611454115	-2.3807323626	 0.306382
C	 0.0361600185	-1.770990766	-3.5812944561	-0.435913
H	 0.9795089436	 1.4059912698	 0.9540649238	 0.234407
H	-1.6626269686	-1.4299752188	 0.5198777267	 0.15538
H	-1.8309527371	-0.4763485892	-0.9876202946	 0.155381
H	 0.6182328274	-5.0851813339	 0.5722530929	 0.212145
H	 0.0360195622	-1.7859071315	-4.6436439797	 0.212145
74.9351	123.4886	165.5031	186.915	258.8846	414.1021	452.6111	471.5872	509.5201	511.7946	575.3048	599.4062	645.0528	647.2134	679.7129	680.3536	788.9851	862.9286	893.7497	896.5964	957.161	1031.7452	1078.5829	1109.0358	1224.6836	1238.2609	1278.7899	1453.9655	1838.2017	2244.3247	2244.3581	3103.767	3167.4742	3482.5544	3499.4028	3499.9727
N=C1CC(O1)(C#C)C#C	[NH][C]1CC(O1)(C#C)C#C	
InChI=1S/C7H5NO/c1-3-7(4-2)5-6(8)9-7/h1-2,8H,5H2	InChI=1S/C7H5NO/c1-3-7(4-2)5-6(8)9-7/h1-2,8H,5H2
