25
gdb 120622	3.06881	0.73107	0.66129	1.258	90.22	-0.2571	0.0815	0.3387	1831.7275	0.226926	-389.48282	-389.471527	-389.470582	-389.519703	41.187	
C	-0.4549395801	 1.4786024262	 0.1938098727	-0.381994
C	 0.2148256746	 0.1241405191	-0.0763180601	-0.24343
C	 0.8761228349	-0.4957345064	 1.1487147626	 0.350589
C	 2.0308499851	 0.3097653145	 1.7209862062	-0.458976
C	 0.0056877434	-1.2493705589	 2.132055338	-0.329005
C	 0.9949881493	-2.0034694942	 1.2675095602	-0.048265
C	 0.5356745494	-2.9892839491	 0.2135914994	-0.208704
C	 0.3376843292	-4.3883052295	 0.7891263291	-0.066744
O	-0.0929233936	-5.2371830583	-0.2650798444	-0.423161
H	 0.2693472826	 2.2406432571	 0.4973898754	 0.116439
H	-0.9610562805	 1.8470002675	-0.7040308871	 0.109551
H	-1.2021765604	 1.3942684656	 0.9902096444	 0.115941
H	-0.5386961966	-0.5612895552	-0.476468872	 0.096199
H	 0.9669479603	 0.2430245123	-0.8686049075	 0.092318
H	 1.706802964	 1.2970102753	 2.0675183532	 0.116224
H	 2.4843009497	-0.2031382994	 2.5749662376	 0.10948
H	 2.8154361537	 0.4626478842	 0.9696758303	 0.111501
H	 0.2024871048	-1.1476453805	 3.194631976	 0.101959
H	-1.0473991353	-1.3587415486	 1.8877734656	 0.103759
H	 1.8967924624	-2.3287240739	 1.784553854	 0.073414
H	-0.4107968057	-2.6770808504	-0.2383608623	 0.106134
H	 1.2669309256	-3.0527924056	-0.6021841091	 0.103711
H	 1.2835513966	-4.7467814661	 1.2279642728	 0.081138
H	-0.4041629295	-4.3503573152	 1.6027819819	 0.087897
H	-0.2274178837	-6.1185189607	 0.0948193432	 0.284026
57.4827	80.793	88.4737	109.153	187.5703	221.2634	228.6743	260.1689	266.0341	296.1473	324.9801	370.2713	418.9154	494.9189	557.7291	679.2564	780.1418	797.2169	840.3629	886.8795	906.7616	933.9774	980.4996	1010.6388	1019.4604	1039.5342	1064.2151	1068.6698	1081.3426	1110.7215	1129.6198	1153.9115	1185.1015	1227.2224	1239.7418	1264.9468	1313.9635	1316.127	1323.0065	1341.1598	1377.0984	1408.3663	1416.9419	1434.6253	1459.5551	1478.2485	1488.069	1491.0619	1498.1126	1500.9212	1508.5952	1511.339	1527.0259	2960.3976	2989.198	3013.493	3021.7622	3031.2524	3035.097	3068.0185	3082.0098	3084.8867	3096.4391	3101.7521	3108.7434	3112.0081	3117.2119	3199.1472	3830.5166
CCC1(C)CC1CCO	CC[C@@]1(C)C[C@H]1CCO	
InChI=1S/C8H16O/c1-3-8(2)6-7(8)4-5-9/h7,9H,3-6H2,1-2H3	InChI=1S/C8H16O/c1-3-8(2)6-7(8)4-5-9/h7,9H,3-6H2,1-2H3/t7-,8+/m1/s1
