18
gdb 23209	2.51625	1.30497	0.9473	1.9388	77.44	-0.245	-0.0121	0.233	1251.2998	0.145356	-439.010268	-439.001286	-439.000342	-439.044148	33.405	
C	-0.6937317928	 1.2953954084	 0.0185145829	-0.413488
C	 0.0965850893	-0.0030841778	-0.0381608486	-0.067983
C	 1.4563505733	-0.0049897547	-0.8243172854	-0.356805
C	 2.11703737	-0.6131147578	 0.3998314339	 0.345637
N	 3.2342497944	-1.133795985	 0.6912094069	-0.245304
O	 4.1094109605	-1.1002669297	-0.4043555722	-0.386761
C	 0.8770021625	-0.4451283842	 1.2208653105	 0.373467
C	 0.7438433495	-0.0180067816	 2.621072313	-0.256108
O	 0.4030755748	-1.343519663	 2.2051239561	-0.266619
H	-0.0671409788	 2.1253080813	 0.3631691459	 0.117044
H	-1.0851079029	 1.5586836413	-0.9696851872	 0.122157
H	-1.5467975018	 1.2107513708	 0.7001638212	 0.124588
H	-0.5414171813	-0.8268160776	-0.3735319354	 0.09677
H	 1.4989143231	-0.6159926265	-1.7289005351	 0.132106
H	 1.8312529243	 0.9954474755	-1.0639868126	 0.125567
H	 4.8898290224	-1.5452365128	-0.0560136053	 0.3095
H	 1.6378433629	 0.0635356107	 3.2370343412	 0.128321
H	-0.0952779894	 0.6119006727	 2.9136186302	 0.117912
58.5323	149.3477	160.3555	207.1017	222.7114	262.1077	338.5132	367.7744	408.3457	472.5427	517.8852	555.2784	601.8399	745.7477	804.8127	854.5482	876.9003	912.9171	942.9888	970.377	1054.7301	1065.4347	1103.013	1115.8661	1128.4893	1157.6077	1173.7246	1193.6822	1243.2692	1258.2508	1360.7548	1387.1187	1410.9359	1432.4793	1467.1819	1494.7218	1497.7785	1523.7559	1777.4543	3028.905	3056.2681	3060.0616	3082.8672	3098.4705	3099.9955	3111.8466	3175.7639	3812.8076
CC1CC(=NO)C11CO1	C[C@H]1CC(=NO)[C@]21CO2	
InChI=1S/C6H9NO2/c1-4-2-5(7-8)6(4)3-9-6/h4,8H,2-3H2,1H3	InChI=1S/C6H9NO2/c1-4-2-5(7-8)6(4)3-9-6/h4,8H,2-3H2,1H3/t4-,6+/m0/s1
