21
gdb 105407	2.28992	1.26924	0.97716	3.295	78.54	-0.244	-0.0229	0.2212	1290.3691	0.180358	-424.223816	-424.213937	-424.212993	-424.259565	35.384	
C	 0.5413867733	-1.1246042591	-1.4711652839	-0.401985
C	 0.0944371711	-0.4509837185	-0.1691168005	-0.228358
C	-1.4158576589	-0.461558514	 0.0702786208	 0.418432
C	-2.2222798754	 0.2071473534	-1.0590830231	-0.322033
C	-1.788907014	 1.635973886	-1.2986272065	 0.15403
O	-1.311832934	 2.0388752571	-2.3306236381	-0.248438
C	-2.0173770341	-1.8023922168	 0.5688778203	-0.33379
C	-2.3271564406	-1.0261384124	 1.8629239239	-0.072059
O	-1.7208356012	 0.1761782899	 1.3459391119	-0.325096
H	 1.6323930566	-1.1893510399	-1.512232983	 0.120761
H	 0.1477269915	-2.1442006625	-1.5535924154	 0.114206
H	 0.2117043817	-0.5606632692	-2.3482122955	 0.14173
H	 0.5663801684	-0.9389635832	 0.6912543858	 0.098363
H	 0.436506219	 0.591218827	-0.15297678	 0.115719
H	-2.1264913153	-0.354809085	-1.9921320041	 0.121523
H	-3.2775302843	 0.2134145213	-0.7580062239	 0.114375
H	-1.9322741613	 2.3121408964	-0.4282766234	 0.097467
H	-2.8842054182	-2.1642539407	 0.0135057487	 0.1105
H	-1.2938586576	-2.6131108621	 0.6720742412	 0.112949
H	-3.3913893699	-0.8847599284	 2.0876090052	 0.104075
H	-1.8215017868	-1.3801247294	 2.7686718395	 0.107629
50.755	77.2136	78.7481	126.3602	197.8255	211.9513	277.2965	339.7029	347.4762	408.4609	486.4806	503.121	666.8158	785.6286	794.3461	830.1885	872.1027	898.9332	946.8509	969.547	1007.0489	1018.6589	1023.8753	1048.2832	1076.2101	1126.1422	1162.1747	1192.6608	1202.0345	1217.3792	1256.1532	1274.8426	1304.1729	1324.8765	1358.0209	1366.3577	1417.2748	1421.1942	1457.8897	1484.9485	1496.2918	1504.3695	1514.3259	1532.5299	1822.7234	2903.6793	3019.5412	3031.1711	3033.6283	3036.8037	3059.0116	3066.8186	3077.6886	3102.9592	3105.1683	3119.196	3132.1826
CCC1(CC=O)CCO1	CC[C@@]1(CC=O)CCO1	
InChI=1S/C7H12O2/c1-2-7(3-5-8)4-6-9-7/h5H,2-4,6H2,1H3	InChI=1S/C7H12O2/c1-2-7(3-5-8)4-6-9-7/h5H,2-4,6H2,1H3/t7-/m1/s1
