15
gdb 45729	2.78256	1.39217	1.07451	3.0423	73.62	-0.2218	-0.0025	0.2194	1104.5044	0.113856	-416.82119	-416.81311	-416.812166	-416.854324	30.4	
O	 0.0660482582	-0.0280935055	-0.106445698	-0.401143
C	 0.0018004523	 1.1822694367	-0.0232761321	 0.460759
N	-1.1982683021	 1.870325046	-0.1330798682	-0.366769
C	-1.3031495936	 3.2413115718	 0.0482741459	 0.027505
C	-0.2312645716	 4.0249277393	 0.1599925653	-0.125957
C	 1.1578151694	 3.4377275797	 0.0471144438	-0.205519
N	 1.0890499662	 1.9839006694	 0.2404797407	-0.345005
C	 1.8001123815	 3.8025845096	-1.229055046	 0.34225
C	 2.3374609187	 4.0972166383	-2.2632246614	-0.473792
H	-2.0143612961	 1.2875708019	-0.2097187453	 0.264321
H	-2.3151953057	 3.6255048564	 0.0960358744	 0.124532
H	-0.3245873718	 5.0939875876	 0.2846383472	 0.111961
H	 1.7842764231	 3.8436975549	 0.8541906082	 0.124932
H	 1.9603585208	 1.4774185063	 0.1937345431	 0.258272
H	 2.8046710005	 4.3549603476	-3.1817164976	 0.203656
53.9889	101.9595	176.4139	237.4582	381.9979	435.1803	456.7589	495.7353	516.9008	583.4356	594.3023	629.0935	648.3122	666.2796	730.257	763.403	840.114	911.3675	946.8015	969.227	1022.651	1069.5126	1161.0219	1199.0644	1284.384	1334.6203	1376.1432	1436.6974	1459.7996	1470.1788	1738.7726	1818.6165	2227.9863	2991.2442	3202.6746	3240.6615	3501.4047	3629.1219	3673.6409
O=C1NC=CC(N1)C#C	O=C1NC=C[C@@H](N1)C#C	
InChI=1S/C6H6N2O/c1-2-5-3-4-7-6(9)8-5/h1,3-5H,(H2,7,8,9)	InChI=1S/C6H6N2O/c1-2-5-3-4-7-6(9)8-5/h1,3-5H,(H2,7,8,9)/t5-/m0/s1
