19
gdb 116901	4.35662	0.50759	0.46935	2.7226	77.99	-0.2534	0.0256	0.279	2262.8881	0.156673	-460.118633	-460.107692	-460.106748	-460.156743	37.663	
O	-0.1606304399	 1.408252365	-0.0520260828	-0.413855
C	-0.1015966908	 0.0117369077	-0.279257587	-0.062357
C	-1.3219988801	-0.6014150663	 0.4174597466	-0.328291
C	-1.3938597245	-2.0474703055	 0.2584682093	 0.061378
C	-1.4373378717	-3.2453679627	 0.1323180802	 0.047131
C	-1.4862764947	-4.6870933808	-0.0837219044	-0.070612
O	-2.7520363042	-5.1232086004	-0.6034928874	-0.430648
C	-0.371144079	-5.1678761353	-1.032073098	-0.051296
O	-0.4971640266	-6.5491700839	-1.2688373166	-0.418871
H	 0.6051729741	 1.8159193422	-0.4664069453	 0.291089
H	-0.1331996789	-0.2303238893	-1.352214279	 0.098064
H	 0.8161745459	-0.4320625368	 0.1342618156	 0.100754
H	-1.2864680385	-0.3351271467	 1.4807144991	 0.143308
H	-2.2254059108	-0.1302959061	 0.011322095	 0.141762
H	-1.3783839424	-5.223679776	 0.8661372461	 0.122672
H	-3.0267260412	-4.4769693857	-1.2643527582	 0.287781
H	-0.4259395052	-4.5792449998	-1.9639573489	 0.080049
H	 0.6098479733	-4.9898370338	-0.5806354674	 0.115038
H	-1.4397554747	-6.6954075358	-1.4256625667	 0.286902
22.4491	55.4928	72.2539	117.8607	158.4439	188.9425	240.1497	287.272	316.0135	327.265	377.5048	398.4921	502.7266	523.4971	557.1912	574.1163	793.1348	820.6279	886.6097	1000.2567	1044.4803	1065.9318	1083.4452	1087.4478	1095.8396	1162.0598	1202.7331	1222.1778	1239.5625	1269.81	1297.9987	1304.3794	1332.8248	1374.8471	1417.0818	1436.1621	1456.3432	1475.206	1503.0574	1528.2201	2361.3673	2959.1081	2983.5284	3014.4799	3033.2686	3048.7894	3070.9106	3083.7693	3760.7672	3800.1123	3835.5854
OCCC#CC(O)CO	OCCC#C[C@@H](O)CO	
InChI=1S/C6H10O3/c7-4-2-1-3-6(9)5-8/h6-9H,2,4-5H2	InChI=1S/C6H10O3/c7-4-2-1-3-6(9)5-8/h6-9H,2,4-5H2/t6-/m1/s1
