17
gdb 34932	2.92307	1.50127	1.2128	1.7181	78.54	-0.2253	0.0473	0.2726	1056.9319	0.13411	-384.588608	-384.580689	-384.579745	-384.6209	31.27	
C	-0.0049298784	-1.226127589	 0.0060086371	-0.441702
C	 0.0405747851	-0.0249294925	 0.0405099395	 0.342495
C	 0.0677416781	 1.4078373266	 0.0704743633	-0.258724
C	 0.5834157173	 2.2175769673	 1.2427667789	 0.07793
O	 1.6293060891	 1.5480648765	 1.9379477266	-0.305246
C	 2.4454111633	 1.6087714362	 0.7493136565	 0.470011
C	 3.8867135852	 1.984323787	 0.8256918934	-0.351965
C	 3.4636338073	 0.5744798461	 0.426967423	-0.321078
C	 1.344041066	 2.2493058159	-0.0558900748	-0.245626
H	-0.0398676863	-2.2868889048	-0.0160654198	 0.193157
H	-0.7750685221	 1.893109906	-0.418672425	 0.118039
H	-0.0017673947	 2.9520855282	 1.7832957173	 0.113706
H	 4.2892419479	 2.643885196	 0.0635355851	 0.116913
H	 4.3054775213	 2.1213326078	 1.8165509452	 0.128726
H	 3.6057334221	-0.2127499554	 1.158656384	 0.13161
H	 3.5779568268	 0.263067038	-0.6053908751	 0.12307
H	 1.460537502	 3.02065772	-0.8050425651	 0.108683
92.7588	132.5422	204.6336	266.4473	303.8237	372.5582	447.8393	553.766	582.5315	625.9899	647.6332	654.4973	748.6304	751.2561	803.3819	859.7598	879.4647	897.6904	925.0987	972.9576	984.5671	1012.9988	1044.2391	1049.5871	1053.7844	1068.0361	1071.0038	1155.6607	1185.1521	1193.0483	1261.7964	1325.4316	1392.2651	1412.8169	1449.4481	1505.7	2237.6008	3128.663	3130.0123	3139.4519	3183.6381	3205.8105	3216.6248	3232.0265	3504.9894
C#CC1C2OC3(CC3)C12	C#C[C@H]1[C@H]2OC3(CC3)[C@@H]12	
InChI=1S/C8H8O/c1-2-5-6-7(5)9-8(6)3-4-8/h1,5-7H,3-4H2	InChI=1S/C8H8O/c1-2-5-6-7(5)9-8(6)3-4-8/h1,5-7H,3-4H2/t5-,6+,7-/m1/s1
