14
gdb 132463	3.17765	1.34839	0.94668	2.7302	71.36	-0.187	-0.0174	0.1696	1117.9703	0.101534	-478.002742	-477.995282	-477.994338	-478.034548	29.194	
O	-0.0733541251	 1.3587857424	 0.0109208079	-0.414346
C	 0.0300822917	 0.0073610275	 0.0028106556	 0.325656
C	 1.2020341183	-0.6812057595	-0.0079816727	-0.212471
C	 1.2467644875	-2.1164431531	-0.0162060129	-0.345304
C	 0.0636255715	-2.7554787915	-0.012713959	 0.395302
F	-0.0801587326	-4.075899294	-0.0191752698	-0.064773
N	-1.1243739766	-2.0830400986	-0.0019267236	-0.455041
C	-1.2639619964	-0.6824141598	 0.0066814566	 0.341166
N	-2.3778741844	-0.0495816899	 0.0168376477	-0.537387
H	 0.8127223707	 1.7371915081	 0.0077729636	 0.296878
H	 2.1406165891	-0.1343082539	-0.0105347144	 0.096427
H	 2.1745644296	-2.6677475667	-0.0247584976	 0.118327
H	-1.9684273735	-2.6366571528	-2.7456*^-6	 0.258853
H	-3.1747897197	-0.6876265983	 0.0180500043	 0.196713
123.9061	169.4802	333.5597	346.0583	368.0714	398.4219	420.4647	456.9204	520.7955	529.5218	600.2027	632.0985	738.344	748.9683	780.0816	780.7215	792.3701	872.7729	1017.8229	1068.129	1127.9639	1190.9873	1256.4241	1298.4333	1308.0797	1353.0998	1469.165	1499.1507	1631.5778	1688.3966	1729.3292	3167.242	3248.9934	3463.1652	3622.8163	3814.6751
OC1=CC=C(F)NC1=N	OC1=C(NC(=CC1)F)[NH]	
InChI=1S/C5H5FN2O/c6-4-2-1-3(9)5(7)8-4/h1-2,9H,(H2,7,8)	InChI=1S/C5H6FN2O/c6-4-2-1-3(9)5(7)8-4/h2,7-9H,1H2
