23
gdb 104886	1.80495	1.59805	1.16489	2.6342	80.71	-0.2434	0.0747	0.3182	1223.2859	0.206165	-425.440495	-425.430877	-425.429933	-425.474797	36.621	
C	 0.9869961697	-0.1555308169	 1.0999576682	-0.400318
C	 0.1811261494	-0.177050216	-0.2007051648	-0.217997
C	-1.2428015101	-0.7427482053	-0.0766023581	 0.380736
C	-2.0567845302	-0.4110846161	-1.3436605912	-0.088148
O	-2.3062194045	 0.973779289	-1.4489458449	-0.424759
C	-1.3203343904	-2.245888448	 0.2562558092	-0.286339
C	-2.5209783784	-2.3430352709	 1.2111683342	-0.226098
C	-2.435422057	-1.0080075304	 1.9541673881	-0.069298
O	-1.9252995192	-0.0663788578	 1.0121842253	-0.318136
H	 1.9634737326	 0.3105960222	 0.9375006523	 0.112498
H	 0.4599401383	 0.41831604	 1.8665028108	 0.130813
H	 1.170009711	-1.1605729667	 1.4951174462	 0.108587
H	 0.093331632	 0.841256212	-0.5937430623	 0.11644
H	 0.7093649768	-0.7611463049	-0.9656860345	 0.091622
H	-1.4995481509	-0.7102657274	-2.2386971162	 0.101373
H	-2.9982708799	-0.9853308432	-1.3291539676	 0.073171
H	-2.6064390732	 1.2388496918	-0.5691379571	 0.287538
H	-1.4415536665	-2.8519857711	-0.6461375873	 0.106258
H	-0.4063895681	-2.5793752639	 0.7563403447	 0.105999
H	-3.458910845	-2.4077659831	 0.6509016228	 0.111024
H	-2.4707516876	-3.2042796254	 1.8818859727	 0.104034
H	-3.4021910708	-0.6453115877	 2.3176411692	 0.105953
H	-1.7534478281	-1.0803537002	 2.8148334401	 0.095046
78.8982	114.6488	138.1007	188.6285	209.6202	234.1452	288.8289	325.3294	365.8678	430.9164	508.693	554.6555	602.8612	631.9245	749.2125	782.098	866.0406	874.4577	890.299	931.4761	965.4483	979.0989	1005.7538	1030.3723	1066.4854	1080.6661	1087.7889	1136.412	1178.5268	1198.9485	1208.9409	1233.039	1258.0271	1268.4508	1309.8485	1332.4526	1340.7692	1376.3587	1385.1458	1388.8013	1405.5187	1440.7114	1482.9032	1488.2166	1494.7834	1503.8329	1506.7366	1510.7649	1529.3889	2962.6747	2989.1175	3026.0413	3038.9234	3053.8091	3057.0753	3063.9864	3073.2533	3075.6884	3095.7182	3102.1625	3112.4699	3122.5442	3761.4307
CCC1(CO)CCCO1	CC[C@@]1(CO)CCCO1	
InChI=1S/C7H14O2/c1-2-7(6-8)4-3-5-9-7/h8H,2-6H2,1H3	InChI=1S/C7H14O2/c1-2-7(6-8)4-3-5-9-7/h8H,2-6H2,1H3/t7-/m0/s1
