22
gdb 100071	3.04786	0.96476	0.88393	3.2207	79.63	-0.2565	0.037	0.2936	1433.1867	0.190117	-441.494634	-441.483219	-441.482274	-441.531312	40.82	
C	 0.277702138	 1.2066193224	 0.2212407604	-0.429625
C	 0.35791384	-0.2928759043	 0.3312882879	 0.39721
N	 1.4696796337	-0.873083972	 0.5248209686	-0.521342
O	-0.8924462771	-0.8113591582	 0.1907536879	-0.300003
C	-1.2104035666	-2.2248983793	 0.2388641661	 0.333877
C	-0.5593795686	-2.9970429608	-0.9144537809	-0.425536
C	-0.9132618674	-2.8312616503	 1.6151718527	-0.425529
C	-2.7357833358	-2.1759832317	 0.0223170299	-0.095532
O	-3.2379574326	-3.5010954591	 0.0401145392	-0.418722
H	 1.272970712	 1.6338361763	 0.334296609	 0.144273
H	-0.1409196805	 1.4932628134	-0.7485582399	 0.133219
H	-0.3881033587	 1.6079060022	 0.9916491243	 0.133183
H	 1.382236145	-1.8833831418	 0.579047347	 0.21301
H	 0.5109863931	-3.1581054489	-0.7737652601	 0.12042
H	-1.0450676581	-3.9716479134	-1.0021710675	 0.144546
H	-0.7019969711	-2.4547403	-1.8538617587	 0.12265
H	-1.2979199769	-2.1760680594	 2.4023628351	 0.122686
H	-1.4212936064	-3.7954428855	 1.6907404928	 0.144642
H	 0.1518017938	-2.9892615576	 1.7943273778	 0.120402
H	-3.1782665728	-1.5615462988	 0.8193681834	 0.095506
H	-2.9325454754	-1.6781405957	-0.9378864728	 0.095493
H	-4.1878802576	-3.4661354376	-0.0999435521	 0.295172
50.3961	82.0544	122.1485	146.8032	148.9149	199.1476	207.6264	213.6605	285.1519	311.4195	345.5239	351.8353	416.2862	450.3491	522.7147	562.4305	642.946	750.4725	831.1941	881.7968	920.011	941.0433	968.2426	977.0273	1048.0534	1049.3889	1074.7132	1086.0141	1122.2519	1170.6321	1201.0163	1234.1263	1288.8317	1298.8867	1329.1124	1401.0422	1404.139	1413.5069	1452.9583	1474.1566	1478.0155	1478.8047	1490.4874	1492.1735	1507.7299	1523.956	1730.8078	2990.7341	3030.3282	3049.6107	3051.6225	3055.5597	3107.2723	3124.5022	3126.5106	3136.251	3140.3393	3168.673	3544.5311	3845.7883
CC(=N)OC(C)(C)CO	C[C]([NH])OC(C)(C)CO	
InChI=1S/C6H13NO2/c1-5(7)9-6(2,3)4-8/h7-8H,4H2,1-3H3	InChI=1S/C6H13NO2/c1-5(7)9-6(2,3)4-8/h7-8H,4H2,1-3H3
