18
gdb 19521	3.66006	1.60755	1.51971	1.7476	71.75	-0.2309	0.0144	0.2454	918.8538	0.155432	-347.792821	-347.785514	-347.78457	-347.824483	28.362	
O	 0.088598822	 1.3702066348	 0.2876522081	-0.421721
C	 0.0586162564	 0.0378583137	-0.2114222361	-0.085536
C	-1.3147799127	-0.5766919539	-0.0972551194	-0.035265
C	-1.5965102089	-2.0585689068	-0.0923215161	-0.077536
C	-0.4703986228	-3.0500443335	 0.2202647442	-0.272607
C	-0.0721621598	-2.7073296619	 1.6413205165	-0.071859
C	-0.841479967	-1.7445835061	 2.1570572027	-0.077755
C	-1.8440047369	-1.2445100549	 1.1736970426	-0.106978
H	-0.194751291	 1.3308850244	 1.2071237426	 0.279434
H	 0.3406143932	 0.1146219472	-1.2674877169	 0.107147
H	 0.8133736135	-0.586434997	 0.284646408	 0.092005
H	-2.069652547	 0.010786728	-0.6152512737	 0.091755
H	-2.4269565779	-2.4065719729	-0.6954739937	 0.086017
H	-0.8266194689	-4.0859483667	 0.1448969961	 0.108977
H	 0.3746239616	-2.9690010112	-0.47591131	 0.111933
H	 0.7580048512	-3.1882192423	 2.1466440384	 0.094506
H	-0.751010528	-1.3429675403	 3.1605560372	 0.09136
H	-2.841439997	-0.9794634906	 1.5081205697	 0.086123
74.1826	153.7949	228.0365	285.0726	342.0006	395.9531	507.4773	555.5892	692.1818	745.6147	772.5288	782.3624	809.1749	902.8233	937.1985	947.2295	957.1739	959.5002	1020.403	1024.2129	1062.2386	1071.1376	1091.9689	1108.6991	1137.1247	1184.9848	1198.3969	1245.5093	1302.6499	1308.2431	1348.2403	1371.8928	1383.0123	1413.7952	1445.3941	1479.2113	1504.9728	1665.8427	3015.8189	3019.8923	3040.9775	3066.3589	3133.1414	3160.3359	3175.6764	3181.4664	3206.5819	3810.8648
OCC1C2CC=CC12	OC[C@H]1[C@H]2CC=C[C@@H]12	
InChI=1S/C7H10O/c8-4-7-5-2-1-3-6(5)7/h1-2,5-8H,3-4H2	InChI=1S/C7H10O/c8-4-7-5-2-1-3-6(5)7/h1-2,5-8H,3-4H2/t5-,6+,7-/m1/s1
