21
gdb 114701	2.93582	1.30505	1.14837	0.5702	78.74	-0.2356	0.0884	0.324	1189.1196	0.182141	-424.223563	-424.214675	-424.213731	-424.256845	34.142	
C	 0.4399495719	 1.1065286233	-0.3266801672	-0.242908
O	 0.4730998212	-0.2870908311	-0.0766707273	-0.234464
C	 0.4876669138	-0.609555723	 1.2931238995	 0.184033
C	 0.4773797575	-2.1452689251	 1.4233298559	-0.259414
C	 1.930971808	-2.4940626906	 1.6887816211	-0.11952
C	 2.9671838881	-1.9031557953	 0.7418738804	-0.34908
C	 2.6113698099	-1.1977683418	 2.0265603513	 0.450109
C	 3.5938627833	-0.9724470654	 3.1388957904	-0.470771
O	 1.6601237976	-0.1481310355	 1.940324935	-0.297565
H	 1.3298204624	 1.6081687027	 0.0700337072	 0.12689
H	 0.4002428977	 1.2360419938	-1.4104063377	 0.123868
H	-0.4528909224	 1.5692347415	 0.121565659	 0.103899
H	-0.3557027905	-0.106904038	 1.7890837485	 0.072029
H	-0.1439421308	-2.446371645	 2.2725012141	 0.106013
H	 0.0610994154	-2.59024095	 0.5167659048	 0.119621
H	 2.1609334345	-3.4107423051	 2.2196672554	 0.086206
H	 3.9318244771	-2.3990523733	 0.6996076557	 0.104186
H	 2.6230628116	-1.4764788449	-0.1925814894	 0.131785
H	 4.290093815	-1.8126094431	 3.2095379907	 0.11723
H	 4.1771575293	-0.0622336128	 2.9638883815	 0.126333
H	 3.0774232796	-0.8651327614	 4.0983167907	 0.12152
101.1561	144.023	161.3	208.3544	212.863	279.2053	323.5336	396.5833	421.976	428.2357	558.2306	625.2267	711.068	781.0901	826.0908	836.9975	854.1797	925.569	952.2718	977.0338	991.8466	1029.0144	1055.9881	1078.6053	1092.8105	1109.4606	1128.2646	1132.3056	1181.0293	1200.8693	1227.2821	1252.9379	1269.0216	1324.8127	1369.2296	1394.0036	1401.4302	1429.3326	1473.1971	1477.0847	1478.9162	1483.5239	1489.9561	1505.3907	1515.2785	2987.6533	2997.6843	3035.6021	3059.171	3066.5567	3099.2587	3111.6042	3117.916	3124.4684	3131.4329	3172.9072	3229.9257
COC1CC2CC2(C)O1	CO[C@H]1C[C@H]2C[C@@]2(C)O1	
InChI=1S/C7H12O2/c1-7-4-5(7)3-6(8-2)9-7/h5-6H,3-4H2,1-2H3	InChI=1S/C7H12O2/c1-7-4-5(7)3-6(8-2)9-7/h5-6H,3-4H2,1-2H3/t5-,6+,7+/m0/s1
