19
gdb 99158	4.18008	0.73234	0.66936	3.4604	72.44	-0.2606	-0.0207	0.2399	1662.2596	0.156468	-460.155177	-460.145285	-460.144341	-460.19174	35.348	
O	 0.1909322225	 1.236407827	-0.3306005033	-0.420574
C	 0.0317225628	-0.1308884174	-0.1013535021	-0.127969
C	-1.4398650205	-0.5046063897	 0.0355008869	 0.35511
O	-2.2799460784	 0.3536553069	-0.1385920506	-0.321616
C	-1.773851212	-1.9359908063	 0.4035314368	-0.331421
C	-3.2140028484	-2.3064280255	 0.1385387585	 0.002239
C	-3.6264981885	-2.8352543158	-1.2215730074	-0.319952
C	-3.60139478	-3.7469955173	-0.0196361633	 0.074656
O	-2.5719505931	-4.6876503992	 0.1073211085	-0.418528
H	-0.7140547345	 1.5797890557	-0.4117537188	 0.293011
H	 0.4515233158	-0.7336102382	-0.9261613862	 0.112188
H	 0.5650494132	-0.4479833023	 0.8095134599	 0.114522
H	-1.0887661105	-2.6217124161	-0.10518119	 0.131941
H	-1.5397305281	-2.0450130487	 1.4737679717	 0.138121
H	-3.934391556	-1.6668431585	 0.6366127479	 0.10684
H	-4.5801621968	-2.5290915615	-1.6365388962	 0.118037
H	-2.8377258341	-2.9816032444	-1.9530822605	 0.111821
H	-4.555416396	-4.058979702	 0.4047986084	 0.090819
H	-2.7354848075	-5.3940561468	-0.5259783702	 0.290752
25.2732	47.454	99.4895	130.5844	205.3698	278.9228	302.3057	333.5235	390.949	407.8374	460.1573	488.5474	541.3199	706.5868	769.4576	801.2715	838.4808	869.3342	903.746	965.0014	1000.3449	1048.2957	1061.1154	1072.6447	1129.4003	1141.74	1159.1671	1175.9082	1223.7263	1238.9695	1262.9738	1298.0649	1304.7193	1338.2993	1404.1397	1426.6622	1452.1588	1455.0794	1491.5129	1492.5	1794.728	2958.6092	2988.7431	3007.8535	3084.1371	3100.582	3129.7168	3172.1237	3219.6288	3673.8835	3808.6703
OCC(=O)CC1CC1O	OCC(=O)C[C@H]1C[C@H]1O	
InChI=1S/C6H10O3/c7-3-5(8)1-4-2-6(4)9/h4,6-7,9H,1-3H2	InChI=1S/C6H10O3/c7-3-5(8)1-4-2-6(4)9/h4,6-7,9H,1-3H2/t4-,6+/m0/s1
