20
gdb 117389	2.82632	0.81514	0.66763	1.5012	76.1	-0.2439	-0.0181	0.2258	1679.1279	0.169199	-440.264662	-440.254439	-440.253495	-440.302219	35.479	
O	-0.5193162784	 0.8713595607	-1.1724932108	-0.425356
C	-0.1929667641	-0.1319299393	-0.2219712734	-0.072349
C	-1.368826906	-1.0959513012	-0.1682214329	-0.298097
C	-1.180920574	-2.2187644179	 0.8359403248	 0.369136
O	-0.1871197057	-2.3050248245	 1.5223015844	-0.302446
C	-2.2987620906	-3.2591067871	 0.9350422612	-0.316173
C	-2.3307701624	-4.1801371613	-0.2722335641	 0.025388
C	-3.5789836359	-4.8810596878	-0.6580789751	-0.246165
N	-3.0379261755	-3.8033488178	-1.5084107423	-0.309761
H	 0.2220552121	 1.4810372074	-1.2280809925	 0.287777
H	 0.7182541743	-0.6792026861	-0.5017782324	 0.103042
H	-0.0180720871	 0.2928977909	 0.7765894765	 0.101672
H	-2.287547451	-0.5470726033	 0.0807126525	 0.125463
H	-1.5460578326	-1.5290504685	-1.1611035903	 0.152378
H	-2.1163970199	-3.8402142156	 1.8442385977	 0.128181
H	-3.2701453667	-2.7567851915	 1.0323476849	 0.101214
H	-1.3874818012	-4.6882313044	-0.464611716	 0.10824
H	-3.5357114563	-5.8752214739	-1.0931203289	 0.124668
H	-4.4730049567	-4.6818091931	-0.0723004022	 0.113688
H	-3.5748007422	-2.9524003756	-1.355490271	 0.229499
20.4097	62.6712	73.7338	94.1979	162.5665	179.2781	271.3379	309.9292	344.7525	391.3869	439.7659	542.1265	633.6299	772.4664	813.1715	825.3041	849.5547	910.4493	938.253	972.4844	1018.5055	1031.099	1056.7303	1082.557	1112.1526	1126.4707	1165.0299	1199.7005	1209.528	1245.1126	1259.6646	1266.9431	1297.1676	1306.1553	1309.6536	1357.7018	1415.3454	1449.9927	1461.1688	1471.7377	1512.0792	1522.589	1802.2428	2997.2586	3019.8642	3025.2794	3029.2688	3065.5527	3091.7125	3109.0305	3127.111	3195.0948	3490.2818	3832.5238
OCCC(=O)CC1CN1	OCCC(=O)C[C@H]1CN1	
InChI=1S/C6H11NO2/c8-2-1-6(9)3-5-4-7-5/h5,7-8H,1-4H2	InChI=1S/C6H11NO2/c8-2-1-6(9)3-5-4-7-5/h5,7-8H,1-4H2/t5-/m0/s1
