23
gdb 60413	4.16925	0.71501	0.64248	1.4779	83.07	-0.2429	0.076	0.3188	1817.2493	0.203684	-425.405217	-425.394712	-425.393768	-425.442513	37.18	
C	-0.1670618819	 1.6676814637	 0.1377125908	-0.387579
C	-0.1124305168	 0.1457491655	 0.2112884736	 0.165919
C	 0.5987438454	-0.4646649845	-0.9997925674	-0.392909
O	 0.5493775153	-0.1733147955	 1.4321718362	-0.265017
C	 0.3769448346	-1.4950658705	 1.8904818349	-0.082454
C	 1.004922181	-1.5807975415	 3.2700715086	 0.140505
C	 0.2367621537	-0.9492359915	 4.4494062117	-0.280323
C	 0.1923327325	-2.3887380719	 5.0008503382	-0.061087
O	 0.8603455279	-2.9065450487	 3.8285872644	-0.29667
H	 0.8458293773	 2.0820303524	 0.1097234809	 0.122819
H	-0.6987250169	 1.9931998798	-0.7612693913	 0.111978
H	-0.6783224783	 2.0744208091	 1.0141640896	 0.118499
H	-1.1418442377	-0.2494874049	 0.2557739827	 0.063217
H	 1.6279668544	-0.0959719716	-1.0587714544	 0.121829
H	 0.6274784329	-1.556604057	-0.9471512783	 0.118903
H	 0.0796916736	-0.1913979104	-1.9240162878	 0.114172
H	-0.6928464457	-1.7573733113	 1.9517891814	 0.082778
H	 0.8600542537	-2.2344555339	 1.2327418356	 0.096813
H	 2.0597479897	-1.2829520356	 3.2058428923	 0.081638
H	 0.7924644215	-0.226069586	 5.0469309585	 0.111943
H	-0.7303446449	-0.5220852649	 4.1776558095	 0.111039
H	 0.7795181545	-2.5613277379	 5.9114618696	 0.101456
H	-0.8016890661	-2.8322196732	 5.1334104807	 0.102532
30.7646	50.1042	75.152	124.1059	144.1105	208.1231	246.1629	274.3717	310.6736	398.0617	424.3805	461.018	522.7349	764.3967	801.1594	837.1338	886.326	926.2879	930.311	938.4939	943.9884	958.0988	1020.5256	1044.1589	1116.0316	1123.0949	1151.4484	1154.3339	1166.148	1184.5957	1202.1015	1210.9931	1248.6562	1253.1619	1276.8019	1343.326	1365.7725	1370.756	1388.3401	1398.1462	1413.9996	1432.9067	1480.4416	1485.5246	1491.149	1495.1917	1509.4951	1520.7413	1532.1288	2952.8955	2961.9693	2998.7926	3014.5888	3024.4649	3037.7624	3042.9974	3054.8426	3082.6169	3108.1651	3114.5599	3117.0332	3122.2095	3138.1098
CC(C)OCC1CCO1	CC(C)OC[C@H]1CCO1	
InChI=1S/C7H14O2/c1-6(2)9-5-7-3-4-8-7/h6-7H,3-5H2,1-2H3	InChI=1S/C7H14O2/c1-6(2)9-5-7-3-4-8-7/h6-7H,3-5H2,1-2H3/t7-/m1/s1
