19
gdb 38693	2.53598	2.16179	2.0602	2.455	71.63	-0.2462	0.0805	0.3267	832.6428	0.165151	-423.061691	-423.055949	-423.055005	-423.091389	25.752	
C	-0.0274667354	 1.5710924944	-0.0147701135	-0.212985
C	 1.4870560625	 1.8238983121	-0.0024981394	 0.07542
C	 2.1265884456	 1.3457235164	 1.3250616179	-0.231369
C	 1.7926780615	-0.1538583868	 1.5246139232	 0.07542
C	 0.2763838693	-0.3952062721	 1.5034810703	-0.212984
C	-0.0060058195	 0.0302909926	 0.0482508643	-0.100273
C	 1.3726788241	-0.3031425486	-0.6595009961	 0.199632
O	 1.9134352755	 0.9431208242	-1.0547500288	-0.25835
O	 2.1934650696	-0.8689915237	 0.344460711	-0.258352
H	-0.5687658803	 2.0239295485	 0.8200139262	 0.095071
H	-0.450116947	 1.942194726	-0.9520025103	 0.104729
H	 1.789252798	 2.8390704065	-0.2667836712	 0.076555
H	 3.2119771365	 1.4687938815	 1.2672316979	 0.114334
H	 1.7596104032	 1.940879513	 2.1692841745	 0.094836
H	 2.3185560144	-0.5861946471	 2.3780082078	 0.076555
H	 0.0750556516	-1.4562465951	 1.6720538834	 0.10473
H	-0.2855417661	 0.1910536265	 2.2352378646	 0.095071
H	-0.863252137	-0.4586003863	-0.4133601933	 0.073943
H	 1.3579111933	-0.9702414121	-1.5205024586	 0.088018
303.1979	359.9944	426.973	472.9451	529.1099	559.2462	610.7218	705.0322	797.6187	798.6815	839.2923	851.1923	886.5664	906.4521	919.7086	925.1235	937.6337	982.2217	999.8114	1005.1365	1038.0205	1039.0641	1087.3956	1112.1022	1112.6492	1189.8937	1195.093	1242.9416	1254.5733	1272.7938	1302.3674	1311.4547	1320.0442	1326.396	1355.7822	1368.1234	1382.2995	1391.2611	1468.149	1484.4525	1502.3221	3041.3608	3058.8522	3062.3998	3093.6688	3095.5081	3099.2971	3107.7951	3111.0064	3117.1138	3131.9015
C1C2CC3CC1C(O2)O3	C1[C@H]2C[C@H]3C[C@@H]1[C@@H](O2)O3	
InChI=1S/C7H10O2/c1-4-2-6-3-5(1)8-7(4)9-6/h4-7H,1-3H2	InChI=1S/C7H10O2/c1-4-2-6-3-5(1)8-7(4)9-6/h4-7H,1-3H2/t4-,5+,6-,7+
