20
gdb 56886	2.35902	1.33471	1.07352	3.6624	78.84	-0.2586	0.0345	0.2931	1228.052	0.169939	-403.160333	-403.150794	-403.14985	-403.194956	34.769	
C	-0.2016284833	 1.5394132994	-0.1849051608	-0.393405
C	-0.0418734868	 0.0151984913	-0.0212272315	-0.164909
C	-1.3499159979	-0.647686876	 0.0017971485	 0.290139
N	-2.3751691061	-1.1812425507	 0.0239729984	-0.341489
C	 0.8547041043	-0.5616037265	-1.1309866071	 0.16077
C	 0.9214397472	-2.0839983679	-1.363082078	-0.344743
C	 0.4882995845	-1.7382449568	-2.8077522449	 0.1771
C	-0.773412246	-2.3616888675	-3.3635875181	-0.411138
O	 0.3088916602	-0.3385031977	-2.4411547425	-0.308993
H	 0.7774932906	 2.021663259	-0.1131351209	 0.124188
H	-0.630052605	 1.7647880644	-1.1636467508	 0.160126
H	-0.8508320817	 1.9533083735	 0.5897318105	 0.135329
H	 0.445330696	-0.1992675035	 0.9396660914	 0.125572
H	 1.8419555399	-0.0872404948	-1.0276334936	 0.078753
H	 1.9019716031	-2.5457269056	-1.2426017132	 0.110383
H	 0.1753678609	-2.6560073036	-0.8075054656	 0.130265
H	 1.3110617672	-1.8255087395	-3.5301614567	 0.078181
H	-1.5933284186	-2.2897258003	-2.6440549196	 0.150325
H	-1.0734380266	-1.854330218	-4.2859961201	 0.127157
H	-0.599258912	-3.4178779993	-3.5976793654	 0.11639
70.3958	72.9892	150.0569	190.2143	216.9233	235.6324	248.7125	331.4833	379.8282	406.4605	434.8285	575.3712	661.1275	673.6731	775.3038	851.3401	891.9239	915.3436	931.5146	974.9338	1016.3902	1033.4366	1073.4925	1099.3032	1116.2078	1145.3101	1161.8653	1206.4855	1257.5206	1273.8886	1293.8771	1319.5739	1343.4565	1377.2545	1398.6839	1409.1638	1418.1621	1483.4406	1491.0723	1492.4092	1499.7068	1502.2326	2354.7621	2989.4881	3010.3552	3027.7101	3036.557	3052.4895	3079.7285	3105.2096	3126.7419	3127.0008	3138.9246	3144.4249
CC(C#N)C1CC(C)O1	C[C@@H](C#N)[C@H]1C[C@@H](C)O1	
InChI=1S/C7H11NO/c1-5(4-8)7-3-6(2)9-7/h5-7H,3H2,1-2H3	InChI=1S/C7H11NO/c1-5(4-8)7-3-6(2)9-7/h5-7H,3H2,1-2H3/t5-,6+,7+/m0/s1
