13
gdb 5189	7.68041	1.19966	1.05669	2.5689	62.66	-0.2304	0.0021	0.2325	1037.8077	0.096196	-398.609762	-398.602988	-398.602044	-398.641435	24.414	
N	 0.0021572566	 1.2872848848	 0.2819008037	-0.425491
C	-0.0783016258	 0.0847548876	-0.0789902537	 0.1073
O	-1.07174861	-0.6968640298	 0.4244605528	-0.210491
C	-0.9844647114	-2.0448259835	 0.2251026331	 0.306661
C	 0.1136676939	-2.852242121	 0.2592797497	-0.124155
O	-0.2690009101	-4.1395327093	 0.031034272	-0.137576
C	-1.6155771635	-4.1383363526	-0.1339897322	 0.02392
C	-2.1169525379	-2.8813361442	-0.0281579656	-0.29859
H	 0.7651332663	 1.748284852	-0.2096658951	 0.236596
H	 0.5582319119	-0.4506966118	-0.7937573166	 0.102431
H	 1.1603125476	-2.6853280642	 0.4443820607	 0.144415
H	-2.0649335613	-5.0995507862	-0.3201174863	 0.145201
H	-3.1444737763	-2.5684950618	-0.1154162524	 0.12978
67.3001	115.3829	183.4421	355.5973	434.9518	483.9601	616.8053	656.0557	715.2705	772.1232	785.5939	831.2836	836.8058	884.7598	997.1698	1031.8646	1053.0798	1076.8356	1099.4161	1214.3568	1256.2093	1270.0131	1321.6498	1402.5011	1418.5873	1541.7444	1633.163	1748.3808	3051.5291	3267.7909	3287.9774	3292.4603	3520.9269
N=COC1=COC=C1	[NH][CH]Oc1cocc1	
InChI=1S/C5H5NO2/c6-4-8-5-1-2-7-3-5/h1-4,6H	InChI=1S/C5H5NO2/c6-4-8-5-1-2-7-3-5/h1-4,6H
