22
gdb 6936	4.44891	1.05202	0.97685	0.886	80.21	-0.2391	0.0928	0.3319	1329.1612	0.197554	-350.195563	-350.185652	-350.184708	-350.230178	36.116	
C	-0.10231234	 1.5011326234	 0.0786752329	-0.385234
C	-0.1895564546	 0.0118975602	 0.3650334839	-0.031156
O	-1.145549649	-0.5578546923	-0.5151955475	-0.249803
C	-1.3126581443	-1.9281327655	-0.3399735445	 0.105621
C	-2.2209785683	-2.4339973207	 0.7609987749	-0.361197
C	-2.6427188465	-2.5276342537	-0.6982694667	 0.301348
C	-3.7442540237	-1.6030602084	-1.1788581682	-0.444501
C	-2.6382446748	-3.8991828508	-1.3459048949	-0.451156
H	 0.6315306677	 1.9740839722	 0.7381637625	 0.113801
H	 0.1981023914	 1.6761455003	-0.9583038805	 0.126543
H	-1.0725148667	 1.9803431469	 0.2385488347	 0.124706
H	 0.7912220825	-0.4692813851	 0.2164145325	 0.08553
H	-0.4833257833	-0.1706260811	 1.41043737	 0.090217
H	-0.4177645369	-2.5138193418	-0.5624159729	 0.075116
H	-1.950892448	-3.3413118046	 1.2919571879	 0.10368
H	-2.7115046542	-1.6807202968	 1.3689530962	 0.11073
H	-3.6542502426	-0.6124118918	-0.729847275	 0.125346
H	-3.7012650219	-1.4785854219	-2.2671862419	 0.11292
H	-4.7297176386	-2.0127548977	-0.9289950246	 0.107943
H	-3.5704247618	-4.4352367933	-1.1315144575	 0.1141
H	-2.5421230884	-3.8208974876	-2.435294898	 0.115618
H	-1.810910768	-4.51604182	-0.9806025433	 0.10983
67.4271	87.6511	122.6528	194.7764	213.2337	229.5711	252.9932	292.2961	316.6249	367.7804	411.0068	510.3512	511.254	699.2564	818.8696	841.2204	874.7618	909.3083	924.2576	974.0361	986.3769	1027.8856	1039.4668	1073.4635	1079.7752	1121.1812	1153.8413	1159.4798	1188.4671	1203.5276	1288.4902	1293.4397	1335.921	1385.8393	1404.9159	1409.4063	1422.0322	1438.1512	1482.0826	1483.495	1485.6101	1490.378	1499.5001	1502.2906	1514.5362	1529.1646	2966.7065	2998.8719	3019.8223	3028.4787	3044.294	3070.516	3080.3342	3083.6596	3095.8002	3118.566	3120.708	3124.2305	3133.119	3212.8521
CCOC1CC1(C)C	CCO[C@H]1CC1(C)C	
InChI=1S/C7H14O/c1-4-8-6-5-7(6,2)3/h6H,4-5H2,1-3H3	InChI=1S/C7H14O/c1-4-8-6-5-7(6,2)3/h6H,4-5H2,1-3H3/t6-/m0/s1
