14
gdb 123935	3.55788	1.67795	1.18148	5.6243	64.17	-0.2193	-0.0263	0.193	959.3946	0.103136	-469.969147	-469.962482	-469.961538	-470.000189	25.765	
C	-0.0180375687	 1.4122590651	 0.0823177723	-0.20034
C	 1.4190653546	 1.9599856982	-0.0077792925	-0.092162
O	 2.2607199141	 1.4476481743	 1.0572823863	-0.252195
C	 2.0010371844	 0.1657506054	 1.2913781587	 0.466641
C	 0.9601911868	-0.5777080464	 0.7955941496	 0.150017
N	-0.0901401936	-0.0523481418	 0.0257801298	-0.388202
N	 1.0962406235	-1.8242077215	 1.3257803949	-0.162402
N	 2.1036925821	-1.9192399303	 2.0604193643	-0.044706
O	 2.7541166421	-0.5449628337	 2.0883936362	-0.24854
H	-0.4612778981	 1.744432398	 1.0282076271	 0.140415
H	-0.6111451522	 1.8372437226	-0.7312019687	 0.126751
H	 1.8783877279	 1.6864859692	-0.9650661687	 0.125007
H	 1.4423326075	 3.0452896234	 0.1037266614	 0.13753
H	-0.0915415204	-0.3979615424	-0.9281691907	 0.242187
124.5839	234.2337	323.6798	339.2769	369.3222	456.4117	501.319	543.8246	651.7954	709.1557	717.9704	729.6094	794.8435	877.0219	939.6999	972.2241	1037.7984	1056.987	1126.5921	1230.7799	1279.8794	1285.3085	1322.4488	1379.2014	1388.5809	1438.8532	1467.5093	1471.5132	1484.5686	1520.9445	1654.4879	3039.058	3049.5281	3111.5469	3127.3969	3513.3222
C1COC2=C(N1)N=NO2	C1COc2c(N1)nno2	
InChI=1S/C4H5N3O2/c1-2-8-4-3(5-1)6-7-9-4/h5H,1-2H2	InChI=1S/C4H5N3O2/c1-2-8-4-3(5-1)6-7-9-4/h5H,1-2H2
