23
gdb 120488	2.41151	1.07403	1.0071	2.427	82.83	-0.2456	0.075	0.3206	1386.861	0.204273	-425.413222	-425.403036	-425.402092	-425.448474	37.871	
C	 0.8616680646	 1.4029750033	 0.1974843844	-0.388652
C	 0.4582475222	-0.0580657167	 0.0966758265	-0.038573
O	 0.7584754213	-0.6956986102	 1.3279361707	-0.265326
C	 0.4273628089	-2.0766701077	 1.3600967366	 0.100478
C	 1.5510922113	-2.9600142691	 0.7447703627	-0.279754
C	 2.205351175	-3.0116435872	 2.1566931792	 0.134601
O	 3.1941909884	-2.0255698133	 2.3597313653	-0.439213
C	 0.8040287091	-2.6512818431	 2.7531082171	-0.020552
C	 0.7017610041	-1.7836955029	 3.9955197685	-0.404421
H	 1.9374038456	 1.4970357932	 0.3733786423	 0.125327
H	 0.6174723925	 1.9291891347	-0.7300526413	 0.118613
H	 0.3355314483	 1.8901413287	 1.023173124	 0.129834
H	-0.6203194565	-0.1505008934	-0.1097229692	 0.092609
H	 0.9892310246	-0.5500737421	-0.7328609755	 0.094012
H	-0.6014730044	-2.2227902575	 1.003046622	 0.058546
H	 1.1769976497	-3.9340768559	 0.4168646573	 0.100495
H	 2.1568771078	-2.518446388	-0.0505036171	 0.101301
H	 2.6500882912	-3.9584789178	 2.472728046	 0.074923
H	 2.8125897378	-1.1882387888	 2.0646186111	 0.281909
H	 0.2408922287	-3.5817241292	 2.8900504655	 0.074641
H	 1.2745312343	-0.8611077355	 3.8866841293	 0.124142
H	-0.3391323554	-1.5114379876	 4.1999380661	 0.110022
H	 1.0884386007	-2.3190199539	 4.8688321285	 0.115038
67.3277	98.3355	122.8432	157.73	170.2471	227.6754	253.5904	278.852	345.0302	399.1192	469.0265	471.1694	520.1295	594.5528	709.6959	815.8227	821.696	848.5716	882.568	906.2659	915.0284	987.6897	1003.821	1021.703	1059.3293	1090.31	1140.4115	1152.1301	1158.3591	1168.466	1189.6636	1196.3365	1249.6663	1258.7381	1282.7217	1298.4003	1333.0782	1360.5124	1367.4334	1403.5692	1413.3448	1436.7291	1451.9765	1467.1199	1485.0038	1493.1628	1494.8449	1499.4361	1528.7645	2971.6463	3001.562	3003.7746	3037.6655	3044.2144	3044.5761	3058.2665	3082.4995	3099.3636	3116.5269	3117.7628	3122.6421	3134.2733	3762.5255
CCOC1CC(O)C1C	CCO[C@H]1C[C@@H](O)[C@H]1C	
InChI=1S/C7H14O2/c1-3-9-7-4-6(8)5(7)2/h5-8H,3-4H2,1-2H3	InChI=1S/C7H14O2/c1-3-9-7-4-6(8)5(7)2/h5-8H,3-4H2,1-2H3/t5-,6-,7+/m1/s1
