15
gdb 44213	4.19706	1.19693	1.13916	3.5704	65.99	-0.2535	-0.0016	0.2518	1073.5596	0.112227	-457.729323	-457.722098	-457.721153	-457.761505	27.146	
O	 0.1464245335	 0.0667278205	-0.1059017757	-0.322936
C	 0.1533302928	 1.2521257747	-0.0626741085	 0.475602
O	-0.9560905036	 2.1042531742	-0.1100702337	-0.258767
C	-0.1034205305	 3.2559763719	 0.1077902894	-0.025037
C	 1.1387156878	 2.3750554039	 0.0542203109	-0.373632
C	 0.7957037802	 3.3949024241	-1.0544441559	 0.461095
C	 0.5791954936	 3.2487619279	-2.5547341989	-0.358131
C	 1.5138227224	 4.4779737941	-2.6302214918	-0.083447
O	 1.6408074105	 4.5169127403	-1.1796229246	-0.311608
H	-0.4205794104	 4.0073209485	 0.8171356035	 0.138205
H	 2.0807945931	 2.4038537665	 0.5809745147	 0.138565
H	 0.9695873306	 2.3321948014	-2.9970986782	 0.137401
H	-0.4463626741	 3.4108184538	-2.8866799094	 0.137914
H	 2.4843693735	 4.3145230406	-3.1075724371	 0.122458
H	 1.0641899106	 5.3996024476	-3.0109532048	 0.122317
82.3029	118.8833	194.2953	254.4363	398.8773	437.2079	506.1006	577.3317	691.4032	781.9527	791.4453	817.6782	856.8207	874.7427	917.2754	958.008	969.7917	979.973	1008.7258	1047.2032	1070.8228	1107.6686	1143.7285	1162.4113	1204.4683	1213.2428	1235.0604	1259.0604	1353.3981	1425.4119	1487.3348	1529.6467	1943.6864	3049.4435	3095.6156	3099.829	3153.1767	3223.1341	3240.1795
O=C1OC2C1C21CCO1	O=C1O[C@H]2[C@@H]1[C@]12CCO1	
InChI=1S/C6H6O3/c7-5-3-4(9-5)6(3)1-2-8-6/h3-4H,1-2H2	InChI=1S/C6H6O3/c7-5-3-4(9-5)6(3)1-2-8-6/h3-4H,1-2H2/t3-,4-,6-/m0/s1
