15
gdb 46816	2.66459	1.63342	1.16413	5.3341	70.78	-0.2581	-0.043	0.2151	1028.3804	0.11389	-416.823904	-416.81638	-416.815436	-416.856078	28.309	
O	 0.0303533382	-0.0120226618	 0.0032109113	-0.28961
C	-0.0181782901	 1.1849433824	-0.0452090335	 0.388959
C	-1.2679945945	 2.065300372	-0.1421743969	-0.338081
C	-0.8137479415	 3.3574652032	-0.8552735361	-0.223399
C	 0.679620977	 3.457535222	-0.5719401945	-0.078281
N	 0.9980789396	 3.2747073239	 0.8385421546	-0.352634
C	 1.1813900103	 2.1190655924	-0.1042323612	 0.087178
C	 2.4955266771	 1.6275201678	-0.3849276717	 0.201162
N	 3.5627485304	 1.2378979857	-0.6010337174	-0.331394
H	-2.0630399284	 1.5267489994	-0.6594177022	 0.140588
H	-1.6107139164	 2.2727907374	 0.8764100932	 0.157601
H	-0.9685689909	 3.2786611355	-1.9359651757	 0.125168
H	-1.3446689665	 4.2460176843	-0.5033788087	 0.126581
H	 1.3162597836	 4.0867126358	-1.1849923244	 0.124977
H	 1.919607582	 3.6570796701	 1.0443055632	 0.261185
101.8027	139.4371	171.6522	250.4812	382.1958	401.2044	470.3129	536.0043	579.2095	606.9979	641.6366	674.5771	815.104	823.9055	877.0068	898.5731	983.1588	1016.0854	1020.1962	1077.2296	1095.5439	1154.7793	1181.1443	1239.5914	1270.2078	1291.614	1336.0781	1344.8311	1415.5906	1450.8284	1488.8815	1859.206	2356.2677	3058.3192	3070.0626	3103.8351	3134.4109	3177.3245	3496.4665
O=C1CCC2NC12C#N	O=C1CC[C@H]2N[C@@]12C#N	
InChI=1S/C6H6N2O/c7-3-6-4(8-6)1-2-5(6)9/h4,8H,1-2H2	InChI=1S/C6H6N2O/c7-3-6-4(8-6)1-2-5(6)9/h4,8H,1-2H2/t4-,6-/m1/s1
