19
gdb 105890	2.15512	1.48419	1.30109	1.3351	71.12	-0.227	0.0639	0.2909	1109.9576	0.156829	-460.09834	-460.089069	-460.088124	-460.132184	34.419	
C	-0.3209455448	 1.3361489514	-0.0509217062	-0.256226
O	 0.2553541085	 0.0450143911	 0.1036825875	-0.275801
C	 0.7182041385	-0.5013406529	-1.0683237398	 0.277832
C	-0.1919781536	-1.0741606558	-2.1489842562	 0.042891
O	-0.1163849815	-0.7948954304	-3.5124871384	-0.432209
C	 0.7972125724	-1.9662076578	-1.4707034948	-0.065135
O	 2.0742895113	-1.7730806993	-2.0997213025	-0.32518
C	 2.166545988	-0.4074789862	-1.5627688004	 0.085051
C	 2.6125517934	 0.6316475127	-2.5710481571	-0.429674
H	 0.4205922537	 2.0749613268	-0.3834425885	 0.11546
H	-1.1479162552	 1.3203956783	-0.7725595021	 0.121976
H	-0.7004685511	 1.6309313995	 0.9295852946	 0.131174
H	-1.2162006472	-1.1872329791	-1.801326346	 0.115031
H	 0.7032547691	-1.2083152867	-3.8168489025	 0.295279
H	 0.6157869317	-2.9023352872	-0.9555891369	 0.114735
H	 2.8456651119	-0.4316338524	-0.7006209048	 0.094977
H	 1.8968053261	 0.7301608998	-3.3888471676	 0.138444
H	 2.7111519398	 1.604438127	-2.0770397556	 0.123135
H	 3.5935018491	 0.366476491	-2.9793108126	 0.12824
81.7015	146.18	161.6393	181.6505	214.0584	225.311	295.3983	350.9461	393.0863	422.3521	457.792	563.0947	628.8928	685.6568	750.3494	834.7618	855.4502	925.7553	955.7925	1005.5502	1027.4285	1055.9319	1079.677	1105.1162	1136.7104	1153.094	1179.1606	1213.4649	1220.5173	1254.0464	1284.016	1296.7006	1376.815	1393.534	1408.553	1455.8081	1485.1196	1489.9197	1497.0177	1501.8626	1507.2279	3002.3123	3023.8064	3040.2303	3060.4971	3101.789	3127.3582	3142.6567	3150.4009	3182.2189	3751.5993
COC12C(O)C1OC2C	CO[C@]12[C@@H](O)[C@H]1O[C@H]2C	
InChI=1S/C6H10O3/c1-3-6(8-2)4(7)5(6)9-3/h3-5,7H,1-2H3	InChI=1S/C6H10O3/c1-3-6(8-2)4(7)5(6)9-3/h3-5,7H,1-2H3/t3-,4-,5+,6+/m0/s1
