17
gdb 51256	4.40853	1.10149	1.01847	5.3295	76.53	-0.2377	-0.0191	0.2187	1187.8813	0.138245	-418.003445	-417.996083	-417.995138	-418.035896	28.228	
O	-0.3252381764	 0.0479998764	 0.0360854628	-0.254883
C	-0.0496477173	 1.216291001	 0.0312645133	 0.147822
N	 1.2258475604	 1.7607448686	 0.0036204631	-0.458125
C	 2.4408533311	 1.0989640941	-0.0240459576	 0.480463
N	 2.6625160672	-0.162513889	-0.0302382001	-0.243942
C	 4.1688353629	-0.1473045968	-0.0636542716	 0.021102
C	 4.5212852236	 0.9369169955	 0.9988331499	-0.209161
C	 3.7796575502	 1.8352012836	-0.0531115403	-0.175861
C	 4.4738092704	 0.9389530225	-1.1386677574	-0.209159
H	-0.8064529305	 2.0273903676	 0.048922988	 0.079275
H	 1.2728567351	 2.7683523173	 0.0036640927	 0.255467
H	 4.6073184471	-1.142466273	-0.0743430299	 0.0795
H	 4.0692169511	 0.8320199033	 1.9875180517	 0.108012
H	 5.5885145232	 1.1612406468	 1.0726745282	 0.10238
H	 3.8123748196	 2.9257232305	-0.0527996765	 0.066713
H	 5.5367185462	 1.1634543798	-1.2593970332	 0.10238
H	 3.9782825461	 0.8359229418	-2.1065029034	 0.108016
53.6575	158.7314	171.6034	314.1558	323.2449	490.2914	513.4518	571.5219	598.6994	708.8597	767.0989	827.2733	830.2932	846.5779	888.5461	919.8105	955.2341	998.0673	1018.4765	1026.8421	1059.4766	1100.2641	1105.1904	1109.9283	1120.6184	1213.0757	1219.8262	1241.9382	1248.9098	1274.7292	1325.6998	1442.1716	1477.8124	1512.7595	1542.4808	1676.1232	1845.5279	2920.9185	3058.9061	3065.8386	3105.9657	3127.8117	3132.9124	3147.968	3623.3134
O=CNC1=NC2CC1C2	O=CN[C]1[N][C@@H]2C[C@H]1C2	
InChI=1S/C6H8N2O/c9-3-7-6-4-1-5(2-4)8-6/h3-5H,1-2H2,(H,7,8,9)	InChI=1S/C6H8N2O/c9-3-7-6-4-1-5(2-4)8-6/h3-5H,1-2H2,(H,7,8,9)/t4-,5+
