20
gdb 115214	4.23266	0.96061	0.81901	5.1245	77.64	-0.2415	0.0459	0.2874	1423.1312	0.171828	-440.305074	-440.296034	-440.29509	-440.339587	33.024	
C	-0.1457820553	 1.6148531783	-0.0705623884	-0.3923
C	-0.0628476614	 0.084407023	-0.0622612461	-0.195443
C	 0.7780570142	-0.5067406855	-1.2025234794	-0.023779
C	 2.2620006132	-0.1857913811	-1.0860422228	-0.072779
O	 3.0163513576	-0.8018420082	-2.1306785011	-0.238937
C	 2.7611695671	-2.0730282487	-2.5045261327	 0.458635
N	 3.6343530142	-2.6949012718	-3.1711804742	-0.544614
O	 1.5376251547	-2.6018717114	-2.2250859072	-0.271048
C	 0.6831645924	-2.0251101944	-1.2314555483	-0.085165
H	 0.8335755546	 2.0798522068	 0.0785489775	 0.125111
H	-0.5482902443	 1.9833791575	-1.0201419996	 0.123732
H	-0.8010488634	 1.971009287	 0.7295747712	 0.12254
H	 0.3401441622	-0.2590894286	 0.8999134521	 0.103664
H	-1.0767460116	-0.3299603867	-0.1300530654	 0.105532
H	 0.4165683907	-0.116953012	-2.1632309021	 0.096202
H	 2.4706237012	 0.8812669253	-1.1824904319	 0.126007
H	 2.6459520607	-0.5211772902	-0.1104340358	 0.108474
H	 3.2742743614	-3.6134104717	-3.4217936874	 0.223561
H	 0.950104614	-2.4395313816	-0.2479644439	 0.108643
H	-0.3245358623	-2.3683512059	-1.4803791747	 0.121964
58.4541	84.211	116.4456	168.6533	204.9228	262.62	346.9216	420.196	423.2598	480.7109	560.1126	688.1571	728.6185	775.9415	812.8049	825.7938	911.3369	924.3799	948.6383	979.5654	1025.3514	1052.7042	1110.1099	1121.9892	1162.6092	1174.1598	1187.2829	1250.735	1273.8639	1283.9287	1310.7464	1324.8831	1375.4822	1394.9549	1417.2555	1431.2951	1435.4536	1487.7004	1502.223	1507.1749	1512.487	1521.5284	1758.5608	2992.936	3000.1103	3015.9259	3030.5952	3039.4035	3051.5758	3091.767	3106.5977	3109.7222	3115.2603	3525.5265
CCC1COC(=N)OC1	CC[C@H]1CO[C]([NH])OC1	
InChI=1S/C6H11NO2/c1-2-5-3-8-6(7)9-4-5/h5,7H,2-4H2,1H3	InChI=1S/C6H11NO2/c1-2-5-3-8-6(7)9-4-5/h5,7H,2-4H2,1H3/t5-
