15
gdb 27440	2.40821	1.78749	1.08531	4.4302	80.98	-0.23	-0.08	0.1499	1063.0652	0.115024	-413.005255	-412.997646	-412.996702	-413.03744	29.194	
N	 0.0503295514	 1.3288035084	-0.205876493	-0.533772
C	-0.0536009186	-0.0276555448	-0.0194544896	 0.335062
N	-1.1992693985	-0.5861154075	-0.1921270638	-0.35553
C	-1.4778689555	-1.9368912138	 0.03867023	 0.276446
N	-2.6080993621	-2.3418239728	 0.4804746439	-0.504654
C	-0.4997783983	-2.9552665948	-0.3869577902	-0.064219
C	 0.8391890936	-2.8677997792	-0.2945932302	-0.015681
N	 1.5987443054	-1.8619381158	 0.2868126413	-0.214922
C	 1.2125445049	-0.6549080181	 0.4395520686	-0.029575
H	 0.9521020942	 1.7259562735	-0.411757016	 0.264557
H	-0.7427386114	 1.7703460416	-0.6460219993	 0.266945
H	-3.193441023	-1.5296528133	 0.6913762546	 0.213589
H	-0.9344044767	-3.884263716	-0.7434394119	 0.126283
H	 1.4414016568	-3.7158276721	-0.6090953194	 0.117125
H	 1.9157162277	 0.0277185647	 0.925148965	 0.118345
72.9744	161.8391	261.6022	318.105	382.5184	391.4386	428.9084	452.4364	504.7506	556.6592	620.8289	659.5597	714.6146	817.4518	838.9883	865.2319	912.7776	944.2277	960.7809	990.5219	1001.9901	1093.9044	1207.5491	1257.0588	1331.9038	1366.7882	1440.1739	1446.2582	1610.7486	1628.1082	1668.9913	1692.577	1708.7974	3083.1369	3163.0785	3188.7465	3447.5384	3585.961	3710.1559
NC1=NC(=N)C=CN=C1	NC1=N[C]([NH])C=CN=C1	
InChI=1S/C5H6N4/c6-4-1-2-8-3-5(7)9-4/h1-3H,(H3,6,7,9)	InChI=1S/C5H6N4/c6-4-1-2-8-3-5(7)9-4/h1-3H,(H3,6,7,9)
