19
gdb 89705	3.38753	1.24655	1.11717	2.6258	75.46	-0.2555	-0.0382	0.2173	1150.0818	0.158808	-423.018394	-423.010145	-423.009201	-423.051478	31.485	
C	-0.0822520644	 1.5370524197	 0.167665686	-0.412802
C	 0.0784320591	 0.032809443	-0.033455829	 0.031398
C	 1.2246254882	-0.3671146653	-1.0252718113	-0.279122
C	 2.0863835728	-1.1663721433	-0.0261850817	 0.331734
C	 1.0490988994	-2.0880307508	 0.6825773548	-0.272829
C	 0.6511447226	-0.6949606217	 1.2086951335	 0.066737
O	 2.0679180405	-0.3188855289	 1.16572669	-0.333619
C	 3.4398616297	-1.6774811089	-0.4148340874	 0.053936
O	 3.7115183881	-2.0708952896	-1.521027969	-0.251653
H	 0.8556473141	 1.9719850242	 0.5257464671	 0.133051
H	-0.3523765068	 2.0337831397	-0.7696871547	 0.117032
H	-0.865593411	 1.7592169445	 0.9007245596	 0.110996
H	-0.878326984	-0.4106663358	-0.3289114735	 0.073981
H	 0.8958598851	-0.9720608221	-1.87193723	 0.117052
H	 1.7679883334	 0.5004140357	-1.4062349802	 0.113688
H	 0.3502780658	-2.6571606499	 0.0656467327	 0.108675
H	 1.5101655148	-2.706142042	 1.4536282614	 0.11653
H	 0.1806135779	-0.5320140172	 2.1788268102	 0.082306
H	 4.1764586348	-1.6908987713	 0.4185287212	 0.092909
58.3084	145.1551	173.9654	241.5187	251.9027	320.8024	408.9407	436.9895	481.8501	570.3087	664.5452	739.7492	796.9478	832.4246	844.9604	882.9405	912.9708	931.1018	961.9579	1010.1674	1022.0501	1034.0349	1050.6803	1113.1944	1135.0265	1156.22	1201.3392	1212.2876	1225.8039	1256.6963	1278.7194	1305.2259	1325.6719	1371.8907	1404.6722	1408.8001	1478.1032	1494.5217	1497.3613	1506.0579	1824.211	2896.3893	3032.3339	3049.0275	3073.0695	3077.5193	3097.3488	3114.8844	3119.5845	3129.7864	3148.56
CC1CC2(CC1O2)C=O	C[C@H]1C[C@@]2(C[C@H]1O2)C=O	
InChI=1S/C7H10O2/c1-5-2-7(4-8)3-6(5)9-7/h4-6H,2-3H2,1H3	InChI=1S/C7H10O2/c1-5-2-7(4-8)3-6(5)9-7/h4-6H,2-3H2,1H3/t5-,6+,7+/m0/s1
