13
gdb 15744	6.55315	1.06929	0.97222	3.0283	56.99	-0.2799	-0.0361	0.2439	1122.228	0.093902	-435.734165	-435.726457	-435.725513	-435.767314	25.973	
N	-0.0879985757	 1.4706923887	 0.3560966941	-0.510178
C	 0.0070496173	 0.2242509779	 0.196469972	 0.402884
O	-1.0551454946	-0.571534186	-0.1555724594	-0.218759
C	-2.3355986435	-0.0688247519	-0.0535829675	 0.173699
O	-3.2633079127	-0.7056988974	-0.4381447577	-0.249083
C	 1.2403941295	-0.6136950261	 0.3197064517	-0.019435
C	 2.3732494016	-0.3887665982	-0.5974575505	-0.161123
O	 2.3977173648	 0.090578302	 0.7464389692	-0.220056
H	 0.8214763064	 1.838030269	 0.6405005388	 0.25104
H	-2.3598662777	 0.9235223167	 0.4122824369	 0.146877
H	 1.0952774666	-1.6045418161	 0.7456723818	 0.129159
H	 3.0512976563	-1.2111287358	-0.8155026627	 0.138194
H	 2.2865456817	 0.3781670072	-1.3642874167	 0.136782
61.245	89.1714	125.1991	186.6069	268.5727	312.5001	394.6855	546.416	683.148	722.5033	846.0196	894.4343	911.5166	951.0643	1033.5755	1052.3861	1065.7489	1087.6679	1098.7502	1163.0475	1164.9164	1263.6744	1321.4771	1391.8476	1438.4238	1519.1141	1747.175	1876.3872	3087.677	3097.2454	3139.7043	3194.0798	3482.3591
N=C(OC=O)C1CO1	[NH][C](OC=O)[C@H]1CO1	
InChI=1S/C4H5NO3/c5-4(8-2-6)3-1-7-3/h2-3,5H,1H2	InChI=1S/C4H5NO3/c5-4(8-2-6)3-1-7-3/h2-3,5H,1H2/t3-/m1/s1
