25
gdb 65024	2.62844	1.31816	1.13627	0.0752	91.78	-0.254	0.0806	0.3347	1250.0499	0.228906	-352.336064	-352.326543	-352.325599	-352.369881	38.374	
C	 0.0279227356	 1.5080751422	-0.007069219	-0.474663
C	 0.0231118709	-0.0142457824	-0.022063772	 0.306719
C	 1.199663829	-0.6422936628	-0.7398959401	-0.309283
C	 1.1396655133	-0.6673098744	 0.7679611838	-0.300126
C	-1.3577754556	-0.6844876044	-0.0179728628	 0.296861
C	-1.3222229946	-2.174510073	-0.3795901322	-0.467779
C	-2.203953959	-0.4662285539	 1.2847377997	-0.248331
C	-3.4514837296	-0.1738778728	 0.4100804356	-0.213381
C	-2.518493961	 0.0114716502	-0.8160218592	-0.261366
H	 1.0441566277	 1.8845171225	 0.1451487104	 0.108952
H	-0.3333075387	 1.927083794	-0.9520634606	 0.118175
H	-0.5931093378	 1.9157299776	 0.7981178654	 0.114173
H	 1.0672827477	-1.5804416495	-1.2643555456	 0.107989
H	 1.9106499482	 0.0266751285	-1.2139042036	 0.102425
H	 1.8106199363	-0.0211501044	 1.3243776114	 0.104237
H	 0.9529673505	-1.6203342336	 1.2500848196	 0.10807
H	-0.6532170252	-2.7460763492	 0.2719938833	 0.113589
H	-2.3204151608	-2.6116511959	-0.2766650095	 0.111807
H	-1.0061437833	-2.3278537605	-1.416175449	 0.116035
H	-2.2569367223	-1.3127242498	 1.9756843865	 0.088955
H	-1.880089364	 0.412147451	 1.8483882061	 0.096373
H	-4.1122182557	-1.0391060148	 0.3132376975	 0.10081
H	-4.061886466	 0.6856974227	 0.6962413752	 0.094028
H	-2.3254415663	 1.0653505346	-1.0218491436	 0.097383
H	-2.8153608193	-0.4702033817	-1.7522578572	 0.08835
52.6635	123.1553	227.6355	244.2201	270.3522	300.6066	341.6284	353.3093	368.5061	383.2708	417.1876	491.2473	542.2478	696.4296	784.9061	791.7204	804.0135	860.4503	867.196	894.4636	921.0346	936.2784	943.4561	952.1013	955.3331	993.1505	1036.9576	1049.9557	1068.7228	1081.2941	1117.5677	1160.993	1167.8991	1188.3653	1190.8404	1212.0114	1251.2786	1256.0859	1273.6968	1287.8808	1319.6267	1347.645	1411.0217	1421.0144	1465.2593	1476.2917	1482.832	1496.5106	1496.6695	1505.1637	1508.632	1510.9152	1513.6617	3029.1434	3032.2525	3052.1417	3056.6959	3066.4735	3089.8592	3095.2812	3097.1781	3099.9378	3101.2021	3112.0791	3127.2151	3131.254	3137.8889	3208.6755	3225.4472
CC1(CC1)C1(C)CCC1	CC1(CC1)C1(C)CCC1	
InChI=1S/C9H16/c1-8(4-3-5-8)9(2)6-7-9/h3-7H2,1-2H3	InChI=1S/C9H16/c1-8(4-3-5-8)9(2)6-7-9/h3-7H2,1-2H3
