19
gdb 62256	3.65392	0.59815	0.53643	3.496	75.	-0.2593	-0.0329	0.2264	1972.4944	0.155599	-460.193868	-460.183268	-460.182324	-460.232155	35.2	
C	 0.2078413539	 1.5895715372	-0.2022970524	-0.413008
C	-0.0491989413	 0.0877636529	 0.0197787321	-0.069637
C	-1.548631932	-0.2604713464	 0.1462036917	-0.205198
C	-2.1992996907	 0.3086716901	 1.4047291801	-0.098413
O	-3.5934894942	-0.0190599059	 1.4288392944	-0.174068
C	-4.0032328268	-0.9862778406	 2.2726754537	 0.170919
O	-5.1369326112	-1.3525894363	 2.3341223532	-0.269145
C	 0.5233522994	-0.689780685	-1.1529117062	 0.160513
O	 1.3672312066	-1.5425607956	-1.0718842564	-0.242304
H	 1.2785441032	 1.7903392011	-0.3027099324	 0.137165
H	-0.2890474473	 1.9429900395	-1.1128449945	 0.128764
H	-0.1618007931	 2.189304601	 0.6333450663	 0.130917
H	 0.4853478123	-0.2569929838	 0.9122610866	 0.098284
H	-2.0966295325	 0.1063975712	-0.7300646811	 0.123497
H	-1.6703556318	-1.350333149	 0.1615054581	 0.121449
H	-1.7059149086	-0.0778002663	 2.3065769457	 0.11606
H	-2.1452278197	 1.3994345124	 1.4318713313	 0.131098
H	-3.1794221814	-1.3866327281	 2.896965958	 0.078227
H	 0.0864148752	-0.4038560285	-2.1400673882	 0.07488
35.9226	40.1501	60.6063	76.4905	139.1092	190.2952	208.5407	275.4085	338.4337	357.5269	381.089	405.2113	566.6954	678.8678	775.9707	880.8025	916.6637	955.4832	978.2474	1035.2694	1046.4885	1054.2429	1121.4951	1130.7368	1159.2695	1194.3158	1256.9673	1282.9044	1333.3823	1344.4687	1360.5909	1409.0272	1410.6467	1427.778	1433.6624	1485.5742	1497.0978	1503.8958	1511.0829	1839.2289	1870.4543	2845.1881	2937.9749	3021.0539	3031.4909	3038.045	3050.4637	3073.2951	3104.5895	3107.73	3120.136
CC(CCOC=O)C=O	C[C@@H](CCOC=O)C=O	
InChI=1S/C6H10O3/c1-6(4-7)2-3-9-5-8/h4-6H,2-3H2,1H3	InChI=1S/C6H10O3/c1-6(4-7)2-3-9-5-8/h4-6H,2-3H2,1H3/t6-/m0/s1
