14
gdb 54677	2.93931	1.47054	0.98623	2.0404	65.51	-0.2585	-0.0685	0.1899	1103.5243	0.102081	-473.911187	-473.903557	-473.902613	-473.943638	28.25	
N	-0.0484797225	 1.3212738215	 0.0106146782	-0.553416
C	 0.0721180029	-0.028033354	 0.0025326135	 0.339829
O	 1.128536551	-0.6346461689	-0.0104340921	-0.370961
C	-1.2384076291	-0.7520995571	 0.0115444269	 0.04542
C	-1.3992211392	-2.0773922338	 0.0087814774	-0.174812
C	-2.8595037555	-2.3944689816	 0.0200497699	-0.13577
O	-3.5178301155	-1.1258907427	 0.0294216072	-0.223935
C	-2.5880149295	-0.1276970836	 0.0246868524	 0.432255
O	-2.8930471353	 1.0380357423	 0.0307531609	-0.370026
H	 0.7900171593	 1.8776284807	 0.002511683	 0.263323
H	-0.9639434015	 1.7522792173	 0.0178609129	 0.287091
H	-0.6090308277	-2.81592351	-0.0001885129	 0.16036
H	-3.1793776569	-2.9567868415	-0.8660139817	 0.150322
H	-3.1645306304	-2.9622029086	 0.9078916445	 0.15032
78.3867	161.3375	212.7351	233.6826	360.7112	376.8882	408.9715	411.2051	606.1473	635.5934	643.4974	740.7848	763.7199	807.995	818.8046	875.6828	946.1598	1035.009	1040.3426	1086.9782	1131.8613	1169.6752	1200.9243	1313.3117	1365.9947	1375.3081	1484.3692	1618.9671	1697.1074	1788.0878	1840.5487	3031.6938	3065.2742	3241.6265	3532.0579	3706.7249
NC(=O)C1=CCOC1=O	NC(=O)C1=CCOC1=O	
InChI=1S/C5H5NO3/c6-4(7)3-1-2-9-5(3)8/h1H,2H2,(H2,6,7)	InChI=1S/C5H5NO3/c6-4(7)3-1-2-9-5(3)8/h1H,2H2,(H2,6,7)
