18
gdb 18243	4.43146	1.48658	1.21928	1.474	73.51	-0.2158	0.0329	0.2487	1010.1224	0.154693	-347.796684	-347.789138	-347.788194	-347.828544	28.853	
O	 0.0136647267	 1.4024276915	-0.0053176945	-0.413811
C	-0.0142114577	-0.013292594	 0.0100687835	-0.185243
C	-1.4278963074	-0.4956735753	 0.0289871211	 0.327273
C	-2.5383000118	 0.2463871051	-0.0171429597	-0.175401
C	-3.7943710937	-0.5974045252	 0.043707167	-0.270103
C	-3.2660403341	-2.0322109414	 0.0183046345	-0.032723
C	-2.4625984214	-2.477202036	-1.1755646262	-0.277102
C	-1.7479205073	-1.9568111522	 0.0573509616	-0.136979
H	 0.9328496028	 1.6821468083	-0.0288537821	 0.288535
H	 0.5010200542	-0.4359296095	-0.8712048551	 0.096698
H	 0.5147642471	-0.4160569298	 0.893083926	 0.091885
H	-2.5502596447	 1.3248765412	-0.1065642912	 0.10355
H	-4.365114967	-0.3984440468	 0.9614530951	 0.103531
H	-4.476963583	-0.3888022336	-0.7908782076	 0.105262
H	-3.7939059317	-2.7938220071	 0.5799522755	 0.082441
H	-2.421672047	-3.5445350402	-1.3686563504	 0.104905
H	-2.4507662439	-1.8538390745	-2.0645003379	 0.109976
H	-1.14188179	-2.6399040205	 0.6444138103	 0.077305
81.6	176.47	201.9801	239.7792	286.5804	365.8607	408.2542	566.6273	637.1009	718.0505	782.0332	808.4156	824.0767	861.2439	901.4074	958.2286	986.6535	1000.4831	1039.0676	1058.1121	1070.7782	1079.557	1096.4923	1102.7747	1169.8055	1184.9252	1206.1291	1212.8262	1248.048	1278.1301	1314.7913	1365.7016	1378.9908	1467.0651	1474.5905	1486.3496	1507.2244	1711.3506	2935.0477	2947.3545	3007.8549	3034.5417	3118.8631	3153.6503	3177.356	3208.1066	3222.6376	3839.5803
OCC1=CCC2CC12	OCC1=CC[C@H]2C[C@@H]12	
InChI=1S/C7H10O/c8-4-6-2-1-5-3-7(5)6/h2,5,7-8H,1,3-4H2	InChI=1S/C7H10O/c8-4-6-2-1-5-3-7(5)6/h2,5,7-8H,1,3-4H2/t5-,7+/m0/s1
