20
gdb 91116	2.72003	1.80415	1.45002	1.8985	76.11	-0.2232	0.0657	0.2888	971.2928	0.174842	-403.142816	-403.135623	-403.134679	-403.174239	29.68	
O	 0.0438137341	 1.4245062448	-0.1215639046	-0.432434
C	 0.0293329123	 0.0147340806	 0.0049812619	 0.139132
C	 0.6713130667	-0.5445557004	 1.2993308841	-0.292471
C	-0.1377263999	-1.8046759349	 1.5606367232	-0.027144
C	-1.5235750476	-1.6968444098	 2.0930720853	-0.018023
C	-2.1108510341	-0.3245397081	 2.3954699807	-0.251103
C	-2.3346448527	 0.2986412656	 0.9958305123	-0.205891
C	-1.420975183	-0.5102802754	 0.05454873	-0.026617
N	-1.3097224147	-1.8837731393	 0.6367637489	-0.131952
H	 0.9539979766	 1.7082226965	-0.247857598	 0.286325
H	 0.524661013	-0.450992899	-0.8601647529	 0.07381
H	 1.7334516747	-0.7712244412	 1.1723136885	 0.095528
H	 0.5868466224	 0.1977846651	 2.1012615206	 0.108759
H	 0.3999526411	-2.7390992334	 1.6962828944	 0.084298
H	-1.942101547	-2.5581911772	 2.6072681344	 0.08416
H	-3.0460963457	-0.4192458444	 2.9529576285	 0.101646
H	-1.4369998905	 0.2828756342	 3.0095063631	 0.107267
H	-3.3754324874	 0.1566066674	 0.6904139172	 0.101549
H	-2.1153187489	 1.3668866474	 0.9550110081	 0.123384
H	-1.8402636696	-0.5807497084	-0.9512764758	 0.079777
94.667	249.6155	255.6982	279.4194	378.8735	459.5182	510.8915	526.8725	670.5746	700.9211	738.4403	761.9991	792.7838	808.9271	877.7526	909.9404	934.3902	964.4683	978.7458	986.8529	1033.7221	1065.5206	1082.0052	1107.963	1116.0281	1136.3879	1175.1373	1202.9471	1209.8006	1240.6279	1248.1827	1276.5312	1291.5028	1303.7224	1327.5471	1347.0502	1358.0817	1383.2137	1407.9319	1427.5838	1486.1323	1494.0429	1518.5497	2984.6465	3038.132	3046.3337	3058.5903	3085.7893	3088.2692	3092.4367	3125.5764	3132.9134	3144.2209	3828.3394
OC1CC2C3CCC1N23	O[C@H]1C[C@H]2[C@H]3CC[C@@H]1N23	
InChI=1S/C7H11NO/c9-7-3-6-4-1-2-5(7)8(4)6/h4-7,9H,1-3H2	InChI=1S/C7H11NO/c9-7-3-6-4-1-2-5(7)8(4)6/h4-7,9H,1-3H2/t4-,5+,6+,7+,8?/m1/s1
