18
gdb 70546	2.77639	1.62454	1.20828	4.4454	73.79	-0.2401	0.0478	0.288	1058.1117	0.148054	-439.089962	-439.081966	-439.081022	-439.122472	31.007	
C	-0.0361742303	 1.4635966048	-0.08483421	-0.45384
C	 0.0305459444	-0.0293930254	 0.0824390824	 0.433978
C	-0.8357165266	-0.7515146837	 1.0811957658	-0.355431
C	 0.6728979985	-0.6912970827	 1.2585945117	-0.101942
C	 1.4821847421	-1.9112536154	 0.8987330202	-0.109281
O	 0.8841223292	-2.6224257458	-0.1934373667	-0.262726
C	 0.5324097141	-1.9362718675	-1.3176911785	 0.441726
N	 0.4210469736	-2.4759410734	-2.452576874	-0.547636
O	 0.2699820775	-0.6189277167	-1.1887001655	-0.270825
H	 0.9003684856	 1.8476305717	-0.5005424736	 0.132661
H	-0.8492646177	 1.7365586362	-0.7640683886	 0.139698
H	-0.212681624	 1.944983549	 0.8804638906	 0.120195
H	-1.4522646371	-0.1468526155	 1.7367150827	 0.120929
H	-1.2713893019	-1.7018478373	 0.7946226813	 0.141889
H	 1.0883093993	-0.0725969803	 2.0481804619	 0.098753
H	 2.5087235446	-1.6257160428	 0.6305305628	 0.119241
H	 1.52958794	-2.6372711578	 1.7147474929	 0.127146
H	 0.7176471687	-3.4478325574	-2.3929048454	 0.225465
75.4372	164.3528	211.3259	236.3471	288.4081	373.3558	400.7615	465.2777	510.9891	565.5611	677.6083	729.0701	756.499	788.3599	826.9727	844.6336	882.227	940.5857	952.3958	985.9027	1043.1595	1059.1322	1104.9375	1113.475	1116.6383	1135.0225	1139.7508	1261.484	1267.1139	1288.3824	1325.8873	1406.8564	1425.3956	1433.2115	1477.7303	1487.9605	1506.9512	1515.0289	1762.1678	3013.4158	3043.4253	3090.5646	3113.0276	3125.2589	3140.5348	3158.1362	3230.7867	3526.6131
CC12CC1COC(=N)O2	C[C@]12C[C@H]1CO[C]([NH])O2	
InChI=1S/C6H9NO2/c1-6-2-4(6)3-8-5(7)9-6/h4,7H,2-3H2,1H3	InChI=1S/C6H9NO2/c1-6-2-4(6)3-8-5(7)9-6/h4,7H,2-3H2,1H3/t4-,6-/m0/s1
