18
gdb 71497	2.99499	1.80861	1.6837	2.1928	74.5	-0.2185	0.0075	0.226	887.5211	0.150486	-401.909315	-401.902677	-401.901733	-401.939835	28.278	
O	-0.063063891	 1.4071833446	-0.0233047599	-0.488406
C	 0.0213165345	 0.0193980787	 0.0133556243	 0.383977
C	 0.3298770286	-0.8235979411	 1.277303723	-0.232211
N	-0.4406374447	-1.9206416112	 0.5908772102	-0.128956
C	-1.3200772626	-0.8356632084	-0.0094041894	-0.072231
C	-1.7950551818	-1.4148499045	-1.3059992455	-0.08559
C	-0.8529596153	-2.2731202455	-1.7044429484	-0.072156
C	 0.2946471118	-2.1461869342	-0.724388409	-0.036895
C	 0.912778277	-0.7227166359	-0.9966323031	-0.306953
H	 0.803889338	 1.7690413202	-0.2327549964	 0.283881
H	 1.3697007045	-1.0581434068	 1.5250951351	 0.089905
H	-0.2118697645	-0.4991139872	 2.1685997583	 0.108561
H	-2.0688734677	-0.4598608204	 0.6891755148	 0.080392
H	-2.7219106381	-1.1599512719	-1.8019111448	 0.10605
H	-0.8251504006	-2.8658365967	-2.6094384773	 0.102951
H	 1.0038850738	-2.9718694022	-0.6746322498	 0.072583
H	 0.7854092697	-0.3977676488	-2.0311628386	 0.102614
H	 1.9702090983	-0.6477221187	-0.7222913135	 0.092483
183.6657	237.9099	321.9366	397.4937	446.5716	479.5189	527.1347	616.4765	644.5177	732.2204	768.7561	774.9611	818.4544	851.8272	870.9988	900.4627	935.4684	941.0471	963.8953	989.2687	1000.3461	1036.129	1063.9149	1105.4664	1118.912	1133.0343	1161.6824	1195.2412	1200.3439	1234.7589	1264.4846	1287.6071	1312.6311	1338.6544	1362.3454	1364.0208	1494.5198	1520.7031	1646.5639	3047.0241	3052.2988	3108.4818	3109.4353	3116.41	3118.3667	3209.7839	3235.059	3814.7614
OC12CN3C1C=CC3C2	O[C@@]12CN3[C@@H]1C=C[C@H]3C2	
InChI=1S/C7H9NO/c9-7-3-5-1-2-6(7)8(5)4-7/h1-2,5-6,9H,3-4H2	InChI=1S/C7H9NO/c9-7-3-5-1-2-6(7)8(5)4-7/h1-2,5-6,9H,3-4H2/t5-,6+,7-/m0/s1
