19
gdb 78087	2.75728	1.26832	1.03431	3.509	80.83	-0.2338	0.0144	0.2482	1215.3451	0.159057	-382.044618	-382.03564	-382.034696	-382.078115	33.673	
C	 0.0015423077	 1.5757743887	 0.0633307095	-0.424405
C	 0.0770056244	 0.0651158846	 0.0604576566	-0.057159
C	 1.3109219901	-0.7540193424	-0.2739374506	-0.15576
C	 2.565312969	-0.1128597612	 0.3472755225	-0.125172
N	 1.8716524064	-0.0113967652	 1.6797694742	-0.373687
C	 0.7134427806	-0.7732902676	 1.1321015101	 0.361839
C	 0.0418201442	-1.8359054665	 1.9433707158	-0.510551
C	 3.7148058877	-1.0107633685	 0.3614045957	 0.272095
N	 4.6237310603	-1.7251934172	 0.3924527602	-0.322149
H	 0.8312632638	 2.0128612871	 0.6234138387	 0.142362
H	 0.0142703563	 1.9755437678	-0.9561081986	 0.117937
H	-0.9256437874	 1.9098229444	 0.5406666352	 0.119422
H	-0.806108379	-0.42327782	-0.349191026	 0.09239
H	 1.3374997688	-1.5011443296	-1.0566265058	 0.109848
H	 2.8783359016	 0.8588677892	-0.0513571066	 0.12247
H	 2.370896476	-0.5537077509	 2.3785547198	 0.236573
H	-0.4300337779	-1.4039180656	 2.8338504225	 0.134703
H	-0.7388014548	-2.3322006316	 1.3598190835	 0.131094
H	 0.7555620422	-2.5993507352	 2.2738745534	 0.128151
89.5269	151.2704	164.3262	198.5756	211.8111	256.9806	289.3614	327.5963	451.4277	502.6335	553.8494	560.3678	674.6365	742.8543	790.1296	820.811	888.9808	915.5464	918.7988	973.5669	1010.7779	1026.1339	1066.5137	1089.6713	1116.9781	1127.9633	1157.0801	1214.9675	1241.4852	1261.5025	1296.8035	1332.4777	1376.8325	1411.4685	1414.7202	1481.0904	1483.8298	1493.7689	1500.5615	1515.6216	2350.4535	3025.1809	3037.2421	3044.8392	3084.6862	3095.5277	3111.3843	3117.1035	3131.9971	3194.3289	3522.0601
CC1C2C(NC12C)C#N	C[C@H]1[C@H]2[C@@H](N[C@@]12C)C#N	
InChI=1S/C7H10N2/c1-4-6-5(3-8)9-7(4,6)2/h4-6,9H,1-2H3	InChI=1S/C7H10N2/c1-4-6-5(3-8)9-7(4,6)2/h4-6,9H,1-2H3/t4-,5-,6-,7-/m0/s1
