15
gdb 36131	4.1903	1.18754	1.0608	2.6033	68.08	-0.2625	-0.0026	0.2599	1096.1519	0.113704	-416.816542	-416.809156	-416.808212	-416.848945	27.658	
N	-0.817245869	 0.2221951969	 1.4766440952	-0.312702
C	-0.2465944326	 0.4508913176	 0.4982784629	 0.259425
C	 0.4967603371	 0.7649034717	-0.7186367404	-0.423252
C	 1.668339396	 1.6989291158	-0.4714709016	 0.315651
C	 2.5438342641	 1.6360730999	 0.7625362351	-0.357016
C	 1.7437284486	 2.8779454488	 0.486680379	 0.034228
O	 2.400346995	 3.9065480936	-0.2427327775	-0.205602
C	 2.7072365527	 3.3466507418	-1.4388055942	 0.094476
N	 2.3356800307	 2.1521067651	-1.6751034185	-0.311815
H	 0.8640177182	-0.1665064869	-1.1649492939	 0.169766
H	-0.1861125564	 1.2172467649	-1.4464731088	 0.164105
H	 2.1821664983	 1.0342698783	 1.5893612747	 0.149928
H	 3.6198893658	 1.6534707635	 0.6271201251	 0.132131
H	 0.9763003919	 3.2468389688	 1.1538342394	 0.137125
H	 3.2570296694	 3.9879037602	-2.1164076665	 0.153552
57.1118	125.535	233.0552	305.7723	369.1199	388.0879	440.6556	494.2923	619.5573	669.381	758.7257	781.2628	860.2382	900.3329	940.2922	947.5018	968.2292	999.8868	1012.7748	1046.4262	1075.3001	1103.7893	1146.2168	1197.6192	1235.0133	1274.7596	1329.9863	1345.7457	1386.7148	1463.5249	1469.0743	1662.7198	2364.5539	3044.797	3082.3189	3134.2857	3210.2844	3230.3591	3235.0602
N#CCC12CC1OC=N2	N#CC[C@]12C[C@H]1OC=N2	
InChI=1S/C6H6N2O/c7-2-1-6-3-5(6)9-4-8-6/h4-5H,1,3H2	InChI=1S/C6H6N2O/c7-2-1-6-3-5(6)9-4-8-6/h4-5H,1,3H2/t5-,6+/m1/s1
