12
gdb 42650	3.0998	1.46862	1.22265	2.4748	64.8	-0.2617	-0.0428	0.2189	970.0617	0.077382	-435.433726	-435.427057	-435.426113	-435.46515	25.125	
O	 0.0096046808	 0.0549795725	 0.0135424954	-0.306201
C	-0.0005142492	 1.2450196343	 0.0727730921	 0.490595
C	-1.0679480503	 2.3081160925	-0.0058549386	-0.295299
C	-0.4005951697	 3.5273836533	 0.6121155123	 0.047284
O	 0.8448441873	 3.1377089756	 1.1842089058	-0.271245
C	 1.082525361	 2.3558419607	-0.0149059482	-0.138784
C	-0.0187429046	 3.1903283443	-0.7921415933	 0.225861
C	-0.1149937055	 3.804277434	-2.058923124	 0.148984
N	-0.1801488468	 4.3114651586	-3.0976476432	-0.342607
H	-2.1278594302	 2.2281126195	-0.2005243629	 0.149934
H	-0.9382012869	 4.3715752162	 1.0223715531	 0.155351
H	 2.1258353242	 2.1982489184	-0.2697366086	 0.136127
97.9978	165.3339	224.4564	419.1555	482.4791	496.2447	523.5657	567.9346	626.507	729.2431	754.8928	810.3707	835.4202	904.4973	926.0637	975.4457	1020.8319	1041.3044	1082.5965	1121.4605	1126.0564	1188.5245	1219.5454	1297.3508	1416.8866	1912.2427	2348.9998	3190.1444	3221.9428	3239.3262
O=C1C2C3OC1C23C#N	O=C1[C@H]2[C@H]3O[C@@H]1[C@@]23C#N	
InChI=1S/C6H3NO2/c7-1-6-2-3(8)5(6)9-4(2)6/h2,4-5H	InChI=1S/C6H3NO2/c7-1-6-2-3(8)5(6)9-4(2)6/h2,4-5H/t2-,4+,5-,6-/m0/s1
