21
gdb 38855	2.66677	1.89194	1.81255	1.4464	80.03	-0.2301	0.0792	0.3092	913.052	0.187847	-387.100821	-387.094352	-387.093408	-387.131206	28.166	
C	-0.0401251325	 1.5333376398	 0.0600068444	-0.222304
C	 1.5043339295	 1.44742946	-0.0446350963	-0.02708
C	 2.1083196173	 1.1612984513	 1.3460361842	-0.222034
C	 1.7531412136	-0.2926507265	 1.7096600484	 0.111154
C	 0.2658007422	-0.5754922962	 1.4265294627	-0.222044
C	-0.0488332695	-0.0165802466	 0.0232248655	-0.027077
C	 1.3006948963	 0.0726573659	-0.7641624947	-0.012433
C	 2.3318645389	-1.0086467724	-0.4894820501	-0.101929
O	 2.5500660826	-1.1749273457	 0.9138405811	-0.277186
H	-0.4628124816	 2.0227778688	 0.9447621193	 0.08425
H	-0.4867971618	 1.9655045875	-0.8397423087	 0.092046
H	 2.0314439656	 2.2420290912	-0.5780412656	 0.058035
H	 3.1991018932	 1.2527640767	 1.3395528281	 0.101656
H	 1.7201466578	 1.867657515	 2.0900073098	 0.090491
H	 2.0207333566	-0.5286628889	 2.7426846729	 0.069896
H	 0.1110686243	-1.6580723522	 1.4744290317	 0.101657
H	-0.3817277838	-0.1136361891	 2.1818495935	 0.090494
H	-0.8964683705	-0.5178130286	-0.4501012606	 0.058034
H	 1.136892352	 0.1966719031	-1.8377423358	 0.067374
H	 2.0035574841	-1.9706061474	-0.9107181816	 0.093497
H	 3.2907216857	-0.7575097857	-0.9670842481	 0.093503
179.7025	296.2497	333.1233	419.5652	427.2161	471.9489	535.1584	653.733	715.0287	793.7356	812.9489	820.8241	847.9152	866.7933	904.0822	907.5008	933.3329	963.1795	1007.7751	1014.9152	1059.1903	1060.0055	1080.352	1098.6964	1098.831	1125.8491	1137.1266	1189.0597	1223.0341	1237.006	1252.1023	1264.9726	1294.0237	1299.0416	1300.2573	1339.3833	1348.4348	1365.3597	1371.1596	1380.2163	1414.602	1480.4239	1481.1968	1499.5652	1522.656	2981.5422	3005.5709	3026.7715	3028.8683	3033.4986	3066.4679	3069.6412	3076.8737	3078.8479	3080.428	3083.8246	3095.6774
C1C2CC3CC1C2CO3	C1[C@H]2C[C@H]3C[C@@H]1[C@@H]2CO3	
InChI=1S/C8H12O/c1-5-2-7-3-6(1)8(5)4-9-7/h5-8H,1-4H2	InChI=1S/C8H12O/c1-5-2-7-3-6(1)8(5)4-9-7/h5-8H,1-4H2/t5-,6+,7-,8+
