19
gdb 92460	2.27743	1.78898	1.45807	1.9545	69.49	-0.2345	0.0642	0.2987	982.3868	0.161247	-460.160907	-460.153113	-460.152169	-460.192724	31.3	
O	-0.015306081	 1.4260362784	-0.052898478	-0.442439
C	 0.0322601895	 0.0100889304	 0.029123214	 0.137657
C	 0.6502118858	-0.551756211	 1.3549403399	-0.256426
C	-0.5129625104	-1.3787458732	 1.9311725214	 0.061494
O	-1.5214994518	-0.4950169815	 2.4224686546	-0.283712
C	-2.1389350464	 0.1000480446	 1.2542483853	-0.08391
C	-1.4078312942	-0.5506697876	 0.0717232025	-0.087078
C	-1.1764620718	-1.9535698726	 0.6572985393	 0.110157
O	-0.3456712611	-2.7307157497	-0.1811254683	-0.442462
H	 0.8886589871	 1.7530381464	-0.0754567381	 0.283812
H	 0.5585404104	-0.4010042853	-0.8394417649	 0.082026
H	 1.5328960245	-1.1668740337	 1.1622915452	 0.095862
H	 0.9175041903	 0.2586439428	 2.0379497873	 0.103703
H	-0.2554410684	-2.0808059199	 2.7271763515	 0.064879
H	-3.211104362	-0.1324135282	 1.2572159405	 0.093395
H	-2.0066815678	 1.1842329854	 1.2760508914	 0.126051
H	-1.9425669041	-0.4963907328	-0.8764457848	 0.07606
H	-2.1166911945	-2.4701423664	 0.8907906207	 0.073625
H	-0.175836474	-3.569775406	 0.2579644106	 0.287307
134.3189	227.3055	252.4358	283.1644	297.8949	311.0946	383.9861	417.3538	508.8623	576.343	594.7206	742.7535	790.6736	830.924	853.5743	889.0834	937.6783	961.3911	989.1198	1023.645	1030.4195	1042.7438	1072.1429	1098.4335	1138.5635	1178.3141	1196.2653	1196.9436	1203.6584	1247.6145	1272.3384	1298.3146	1317.3224	1326.618	1336.6743	1369.9672	1374.7103	1416.2617	1437.1691	1464.9333	1525.209	3019.8266	3025.3644	3034.7759	3061.3444	3095.413	3099.4635	3116.9059	3121.9078	3822.7173	3830.6779
OC1CC2OCC1C2O	O[C@H]1C[C@H]2OC[C@@H]1[C@H]2O	
InChI=1S/C6H10O3/c7-4-1-5-6(8)3(4)2-9-5/h3-8H,1-2H2	InChI=1S/C6H10O3/c7-4-1-5-6(8)3(4)2-9-5/h3-8H,1-2H2/t3-,4-,5+,6+/m0/s1
