21
gdb 96009	2.95339	1.22094	0.96984	1.4257	78.51	-0.2487	0.0867	0.3355	1275.6886	0.182873	-424.215714	-424.206827	-424.205883	-424.250027	33.167	
C	-0.1118755957	 1.5773023589	-0.1025573743	-0.402036
C	 0.0140655439	 0.0687607334	 0.0756992978	 0.123536
O	 0.6730209239	-0.4886044722	-1.0696146406	-0.277817
C	 1.8882801969	-1.0713100895	-0.6370946199	 0.022967
O	 2.1815633339	-0.5431786991	 0.6263327147	-0.252352
C	 0.9068237017	-0.4009647454	 1.2552089908	 0.073808
C	 1.0137324868	 0.4981573006	 2.4510564043	 0.007267
C	 0.0004016928	 0.3690653447	 3.5646464988	-0.273285
C	 1.4216585035	-0.0790420579	 3.7820583291	-0.274793
H	 0.8754832962	 2.0469498254	-0.1399321312	 0.124912
H	-0.6247427646	 1.790615922	-1.0442271095	 0.123462
H	-0.6878768825	 2.0243050346	 0.713597315	 0.115038
H	-0.9834696543	-0.3811342784	 0.1556178063	 0.077861
H	 1.777079354	-2.1706079385	-0.5874290388	 0.07926
H	 2.6958579452	-0.8105036132	-1.3294917525	 0.112461
H	 0.5540182983	-1.3946313528	 1.5838482871	 0.062158
H	 1.3699687711	 1.4983099111	 2.2292105161	 0.093372
H	-0.3391460797	 1.2762432892	 4.0510391939	 0.115696
H	-0.7637838881	-0.3956475733	 3.4713777359	 0.113972
H	 1.6174805663	-1.1449486255	 3.8297829908	 0.118048
H	 2.0604915803	 0.520097786	 4.4205185162	 0.116465
48.5372	82.7875	158.0577	167.6737	264.1305	276.8101	299.2168	407.5693	437.6727	461.2414	721.1035	746.6235	767.0288	810.8768	837.3325	885.799	907.4311	927.7704	970.1848	1018.9598	1031.4172	1060.9911	1066.9803	1079.9745	1092.7435	1127.37	1137.7145	1144.5776	1174.3467	1197.5142	1210.9306	1226.9839	1239.1451	1316.91	1321.5257	1342.4222	1385.6034	1405.3862	1428.3116	1453.4803	1470.2706	1488.2279	1497.8217	1507.7366	1546.9829	2926.0156	2941.8644	3025.2095	3040.8872	3065.2727	3116.545	3120.5356	3133.6221	3139.0965	3169.8049	3212.7067	3228.2131
CC1OCOC1C1CC1	C[C@H]1OCO[C@H]1C1CC1	
InChI=1S/C7H12O2/c1-5-7(6-2-3-6)9-4-8-5/h5-7H,2-4H2,1H3	InChI=1S/C7H12O2/c1-5-7(6-2-3-6)9-4-8-5/h5-7H,2-4H2,1H3/t5-,7-/m1/s1
