18
gdb 9882	4.83351	1.0166	0.94129	2.9053	69.1	-0.2546	-0.0268	0.2278	1256.1392	0.150145	-384.924694	-384.915647	-384.914703	-384.95939	31.911	
C	 0.1361585167	 1.6274501084	 0.2833686585	-0.458661
C	-0.0165048722	 0.1388347759	 0.0631600794	 0.456828
C	 1.1187177774	-0.671304759	-0.5153374549	-0.318504
C	 0.7125471891	-0.8316728676	 0.9386254053	-0.311643
O	-1.3180703111	-0.2802222218	-0.269076144	-0.292248
C	-1.7557218367	 0.0825260419	-1.5578969763	-0.164985
C	-3.0409828613	-0.6746664966	-1.8441898974	 0.139428
O	-3.7171112957	-0.49500037	-2.821681502	-0.23855
H	 1.1483756878	 1.8631360463	 0.6230045384	 0.12174
H	-0.0429607785	 2.1965857975	-0.6352809788	 0.120757
H	-0.5706784092	 1.9748194022	 1.0441009625	 0.128348
H	 0.8619577953	-1.4814537382	-1.1886573684	 0.117928
H	 2.052494892	-0.1695085095	-0.7449328714	 0.115477
H	 1.3663724843	-0.4397508125	 1.7097698102	 0.114274
H	 0.1809299082	-1.7374724317	 1.2053743592	 0.125024
H	-1.9536775785	 1.1604660882	-1.654735158	 0.126268
H	-1.0157809514	-0.1829775293	-2.3306803249	 0.123157
H	-3.2986594759	-1.4244179842	-1.0637792973	 0.095361
50.0501	54.121	117.0078	152.9834	220.4343	284.103	318.3898	373.0585	406.4181	467.373	566.8567	724.004	740.1227	779.0954	861.4537	927.0075	937.3389	956.5931	1034.5488	1052.3668	1060.4755	1079.9674	1114.4584	1124.3316	1138.8049	1189.3578	1235.74	1286.7154	1336.1064	1358.9226	1405.205	1418.4903	1454.2612	1478.9446	1485.4816	1492.1817	1509.037	1844.0938	2897.5689	2978.269	3016.3777	3034.8105	3097.0208	3116.6943	3134.5481	3141.1782	3218.8856	3234.5819
CC1(CC1)OCC=O	CC1(CC1)OCC=O	
InChI=1S/C6H10O2/c1-6(2-3-6)8-5-4-7/h4H,2-3,5H2,1H3	InChI=1S/C6H10O2/c1-6(2-3-6)8-5-4-7/h4H,2-3,5H2,1H3
