21
gdb 63848	2.84021	1.40387	1.39489	2.6232	77.	-0.2377	0.0739	0.3115	1065.1891	0.183555	-424.219147	-424.211036	-424.210092	-424.251192	33.301	
C	-0.0663353591	 1.5480357105	 0.0007948155	-0.440593
C	-0.0025422635	 0.0128280347	-0.0111961991	 0.415404
O	-1.3394172588	-0.49005164	 0.1093599324	-0.476999
C	 0.6518631309	-0.5103815703	-1.333870429	-0.273981
C	 2.0627983543	-1.0513261692	-1.1071838942	 0.093572
C	 2.8852500383	-0.1984282303	-0.1204032589	-0.25586
C	 2.130525912	-1.0659903711	 0.9075237188	 0.085914
C	 0.7419838641	-0.5292935624	 1.2444898414	-0.243341
O	 1.9751966794	-2.1022854907	-0.1045110275	-0.292629
H	 0.926339704	 2.0062103164	-0.0376372739	 0.118435
H	-0.6282945867	 1.9155633571	-0.8669779034	 0.102774
H	-0.5713325951	 1.8934562038	 0.9075701917	 0.123734
H	-1.8601757882	-0.1186857022	-0.6115762893	 0.269859
H	 0.0377992767	-1.3347872997	-1.7090391757	 0.114044
H	 0.6601857702	 0.2774462105	-2.0977941589	 0.0848
H	 2.5361907786	-1.3972113821	-2.0302882571	 0.074434
H	 3.9453305151	-0.4538648593	-0.1586018374	 0.110073
H	 2.7591611515	 0.8850813666	-0.1085905901	 0.098112
H	 2.6668154687	-1.4265088123	 1.7894595619	 0.075685
H	 0.8042955245	 0.2477385999	 2.0152249965	 0.090147
H	 0.1488618428	-1.3516506398	 1.6530518765	 0.126418
103.8284	214.6196	275.909	298.431	329.0067	360.9637	366.8005	433.5328	436.3359	468.4678	537.1918	613.5236	720.06	843.85	856.3631	862.1213	863.949	918.831	940.8	948.8776	969.8963	972.9802	1007.9011	1044.5265	1091.9356	1104.1279	1113.4941	1136.2375	1170.7629	1192.3315	1242.5506	1264.9309	1278.3283	1300.8654	1334.6779	1346.1586	1354.6319	1371.7334	1394.6715	1412.6781	1467.854	1472.3935	1489.5476	1491.8183	1502.5704	3021.9908	3027.1298	3039.0879	3068.4413	3071.5837	3084.9098	3085.8559	3093.7911	3101.5239	3118.1628	3139.7601	3795.9668
CC1(O)CC2CC(C1)O2	C[C@@]1(O)C[C@H]2C[C@@H](C1)O2	
InChI=1S/C7H12O2/c1-7(8)3-5-2-6(4-7)9-5/h5-6,8H,2-4H2,1H3	InChI=1S/C7H12O2/c1-7(8)3-5-2-6(4-7)9-5/h5-6,8H,2-4H2,1H3/t5-,6+,7-
