17
gdb 51925	8.91367	0.44868	0.44292	2.3037	81.38	-0.251	-0.0309	0.22	2352.3916	0.132819	-421.778191	-421.768343	-421.767399	-421.816596	32.72	
O	-0.4941214266	 0.3428220286	 0.4805557812	-0.229599
C	-0.2298212419	 1.4063101079	-0.0152901924	 0.155368
C	 1.1332787867	 2.0617610473	 0.0138569129	-0.261585
C	 1.5945365109	 2.4817645786	-1.4021400019	-0.369823
C	 2.8483930762	 3.2224554851	-1.3898127151	 0.056282
C	 3.8821649654	 3.8399897702	-1.3557647647	 0.14275
C	 5.1283586873	 4.5548636889	-1.301491377	-0.117624
C	 5.5194506683	 5.5202987896	-2.3483581841	-0.159039
O	 5.071887868	 5.9745529365	-1.0785329792	-0.214608
H	-1.0112395692	 2.0005197662	-0.547238228	 0.073202
H	 1.058345141	 2.9621277037	 0.6381912953	 0.138735
H	 1.849131411	 1.3819877873	 0.4812832521	 0.135841
H	 1.7013828334	 1.5880880593	-2.0301723256	 0.146806
H	 0.8139029037	 3.0935041006	-1.8739339388	 0.139965
H	 5.9281032202	 4.0591863483	-0.7520548344	 0.118238
H	 6.5771824852	 5.6713457575	-2.5607362007	 0.120768
H	 4.8392121903	 5.6987086744	-3.1788744899	 0.124324
9.1995	52.031	59.3226	83.9571	135.3604	184.5818	273.8113	336.1853	416.6888	501.7066	523.9609	557.8052	730.7726	755.6719	834.2726	846.9137	904.3354	980.1799	1006.3994	1074.3379	1085.6766	1092.118	1150.1686	1160.1226	1187.4417	1198.6219	1263.5794	1284.1617	1304.5775	1363.1517	1408.155	1430.1429	1460.9613	1477.4594	1519.3035	1839.7865	2367.422	2846.2117	3016.2495	3031.9067	3050.4003	3084.9024	3113.4209	3118.7164	3178.5826
O=CCCC#CC1CO1	O=CCCC#C[C@H]1CO1	
InChI=1S/C7H8O2/c8-5-3-1-2-4-7-6-9-7/h5,7H,1,3,6H2	InChI=1S/C7H8O2/c8-5-3-1-2-4-7-6-9-7/h5,7H,1,3,6H2/t7-/m0/s1
