15
gdb 17303	3.2027	2.51699	1.91266	3.7994	59.98	-0.2356	0.0511	0.2867	730.4868	0.119094	-399.703373	-399.696974	-399.69603	-399.733476	25.712	
O	-0.0924993752	 1.4199855515	-0.0665657403	-0.46918
C	 0.0349234147	 0.0377064591	 0.0066257842	 0.371012
C	-1.294291786	-0.7404715007	 0.0519307234	-0.113187
O	-0.867285124	-1.4773548469	 1.2295089309	-0.283326
C	 0.3885805083	-0.7873242173	 1.2736462302	 0.034732
C	 1.5738445467	-1.4308945786	 0.4962340466	-0.069698
N	 1.0146844268	-2.0852486882	-0.7076328348	-0.315259
C	 1.2409306111	-0.6260388314	-0.7213504879	-0.164851
H	 0.7808949769	 1.8165934192	 0.026895457	 0.2833
H	-2.1490230925	-0.091785097	 0.2747147857	 0.106072
H	-1.5101866256	-1.4022407895	-0.7897787394	 0.119325
H	 0.631717392	-0.3524569467	 2.2468665121	 0.078736
H	 2.5332819295	-1.7392373684	 0.8943256224	 0.09422
H	 1.7932297185	-2.5215182981	-1.200851305	 0.23497
H	 1.8781226589	-0.1597499168	-1.4651923252	 0.093133
209.8439	260.3693	296.0183	323.7217	362.0938	472.9261	546.4705	663.4991	709.2287	794.9721	824.9336	828.5962	901.1727	908.3586	946.4789	982.0216	992.7064	1029.8882	1032.8132	1084.2336	1090.3952	1117.8414	1153.7907	1168.4756	1231.4421	1269.7987	1291.3631	1322.4195	1339.343	1371.6624	1402.842	1492.2886	3038.1256	3079.128	3111.6547	3168.1104	3185.059	3473.7237	3798.3136
OC12COC1C1NC21	O[C@]12CO[C@H]1[C@H]1N[C@@H]21	
InChI=1S/C5H7NO2/c7-5-1-8-4(5)2-3(5)6-2/h2-4,6-7H,1H2	InChI=1S/C5H7NO2/c7-5-1-8-4(5)2-3(5)6-2/h2-4,6-7H,1H2/t2-,3+,4-,5-/m0/s1
