21
gdb 115676	2.10025	1.47728	0.93487	3.9255	80.4	-0.2318	0.0561	0.2879	1300.4577	0.182572	-420.442473	-420.432502	-420.431558	-420.477793	36.208	
C	-0.1013936346	 1.4392124109	-0.3603687129	-0.381041
C	-0.1711908494	-0.0374768671	 0.0381335777	-0.180846
C	 0.7986366211	-0.4497847597	 1.1407049401	 0.076907
C	 0.7749163957	-1.9532527501	 1.551115267	-0.273324
C	 2.2966126921	-2.0064974198	 1.2611265284	-0.184354
N	 2.2144941272	-0.6315080728	 0.7463676755	-0.102828
C	 3.1755628592	 0.351951908	 0.7936849566	 0.420332
N	 4.4768816729	-0.1123495352	 0.7473660055	-0.557742
O	 2.9052063878	 1.5417252359	 0.8145232183	-0.404949
H	 0.9023501185	 1.7133066474	-0.6895298566	 0.152139
H	-0.8127985867	 1.6553786374	-1.1638880609	 0.099233
H	-0.3466934273	 2.0850818468	 0.4893219669	 0.113535
H	-1.1833712173	-0.2780266042	 0.3930193444	 0.092374
H	 0.0115343024	-0.676588205	-0.8353485167	 0.091746
H	 0.7106405768	 0.2352404853	 1.9937684943	 0.085454
H	 0.4858678214	-2.159498529	 2.5817977884	 0.113175
H	 0.1770691293	-2.5733001147	 0.8803490986	 0.112774
H	 2.9196873796	-2.1027230728	 2.1610883158	 0.102507
H	 2.6261732232	-2.7482122871	 0.5248476394	 0.112376
H	 4.691831684	-1.0608790122	 1.0053577999	 0.251556
H	 5.1707197143	 0.5803598078	 0.9757106203	 0.260973
52.305	106.0366	117.2707	128.4735	183.3637	223.9112	249.5675	314.4658	364.9665	408.1275	469.923	501.7867	555.3033	684.9388	736.5637	776.789	801.2661	836.175	909.514	957.745	974.9384	1019.2733	1045.2692	1085.7316	1104.9979	1149.0131	1169.6684	1174.7769	1194.9448	1229.8529	1256.392	1277.224	1300.9778	1323.9023	1355.6998	1402.6286	1420.8904	1425.4682	1474.6676	1490.7421	1495.206	1502.6992	1525.6321	1618.8231	1775.8184	3000.027	3008.9058	3021.9858	3039.6527	3051.1848	3051.3075	3083.4573	3100.9948	3139.7851	3143.6163	3600.969	3724.1373
CCC1CCN1C(N)=O	CC[C@H]1CCN1C(=O)N	
InChI=1S/C6H12N2O/c1-2-5-3-4-8(5)6(7)9/h5H,2-4H2,1H3,(H2,7,9)	InChI=1S/C6H12N2O/c1-2-5-3-4-8(5)6(7)9/h5H,2-4H2,1H3,(H2,7,9)/t5-/m0/s1
