23
gdb 101702	2.53546	1.0243	0.90391	1.3856	82.52	-0.2437	0.0759	0.3196	1450.6201	0.202637	-425.404017	-425.393251	-425.392307	-425.440196	39.647	
C	 0.6318018616	 2.0477515091	-0.3180112219	-0.236976
O	 0.3971693341	 0.6618818064	-0.241888021	-0.245616
C	 1.0007184155	 0.0166239758	 0.8765206169	 0.152951
C	 0.158898397	 0.1990353818	 2.1424772636	-0.405897
C	 1.159881949	-1.4597693168	 0.4993284708	-0.277531
C	 2.2395740351	-1.7101801897	-0.5351784052	 0.425378
O	 3.5308125635	-1.3242704864	-0.1225775412	-0.470046
C	 2.1402494359	-2.8981112362	-1.4616693874	-0.340453
C	 1.9740635647	-1.4848052312	-1.989287425	-0.278607
H	 1.7081638373	 2.2767084875	-0.3501493253	 0.109188
H	 0.1695494192	 2.4027509893	-1.2429744727	 0.122869
H	 0.1879804352	 2.6016251343	 0.5229938712	 0.101498
H	 2.0044526944	 0.4392972705	 1.0377327155	 0.077585
H	 0.6435666536	-0.2759735627	 3.0017182807	 0.110374
H	 0.022696045	 1.2573560919	 2.3831400295	 0.114981
H	-0.8309410226	-0.2503014709	 2.0108093515	 0.11981
H	 1.3941680322	-2.0341487663	 1.4067373437	 0.080817
H	 0.1961884565	-1.8300401315	 0.1314853256	 0.104664
H	 3.8132733818	-1.9376142161	 0.5655027923	 0.276624
H	 3.0665915263	-3.4082464168	-1.7016706862	 0.108898
H	 1.2670544074	-3.5392905391	-1.3996422202	 0.106998
H	 0.9881311504	-1.1421517489	-2.2763584211	 0.125245
H	 2.7921551967	-1.076010004	-2.5708557641	 0.117247
45.7716	72.5075	103.0427	150.7031	204.5467	231.0234	272.1159	290.5502	310.7274	334.3811	373.8997	420.3402	442.3857	483.6991	554.1594	750.4112	776.6538	813.0376	881.1725	897.0443	929.0102	942.0316	955.0635	984.0116	1046.8433	1070.765	1077.7641	1105.0561	1120.934	1160.5331	1182.9571	1186.034	1197.8663	1249.3407	1265.1259	1292.7791	1333.6276	1383.8082	1391.5825	1403.9984	1410.158	1455.4193	1461.5629	1479.6898	1483.1514	1494.9942	1501.0754	1505.1072	1512.6512	2976.4109	2991.7593	3010.4865	3023.0339	3036.7075	3069.6164	3106.4726	3106.6142	3111.627	3128.9156	3149.6676	3216.6451	3242.7811	3785.6752
COC(C)CC1(O)CC1	CO[C@@H](C)CC1(O)CC1	
InChI=1S/C7H14O2/c1-6(9-2)5-7(8)3-4-7/h6,8H,3-5H2,1-2H3	InChI=1S/C7H14O2/c1-6(9-2)5-7(8)3-4-7/h6,8H,3-5H2,1-2H3/t6-/m0/s1
