16
gdb 48819	2.68952	1.61037	1.16237	3.3368	70.93	-0.2581	-0.0348	0.2233	1038.0693	0.125011	-437.904915	-437.897209	-437.896265	-437.937335	28.753	
N	 0.1028185222	 1.2801416214	 0.2578718764	-0.548612
C	 0.0572438394	 0.0428059023	 0.0119114609	 0.348877
O	 1.1220617598	-0.7222398414	-0.3890767706	-0.249254
C	 0.6820264211	-1.9880832082	-0.9168890778	-0.109916
C	-0.7557207908	-2.1673444276	-0.4653162925	-0.099663
C	-1.0194128835	-2.0482150811	 0.9876147203	-0.311773
C	-1.1594293749	-0.8051708363	 0.1037096966	 0.157249
C	-2.5132451767	-0.2291628383	-0.1009365973	 0.071401
O	-3.5224763025	-0.8937691537	-0.091639075	-0.275776
H	 1.0342156506	 1.6545684514	 0.0720703104	 0.228375
H	 0.7548634184	-1.9623633996	-2.0102079494	 0.124791
H	 1.3590956567	-2.75878665	-0.5362077492	 0.128462
H	-1.4541705327	-2.7032859643	-1.0958184612	 0.128579
H	-1.9657286115	-2.4326590222	 1.3504122983	 0.153624
H	-0.1906512113	-2.0674671985	 1.6875877982	 0.138471
H	-2.5261817442	 0.8658629163	-0.2645163882	 0.115164
99.4599	146.0584	179.1372	217.2982	263.2675	370.1988	397.0991	533.3577	611.6326	698.0427	729.2172	743.2311	820.7209	880.9319	889.7048	912.1315	957.1097	981.529	1027.7058	1055.0659	1071.0295	1089.8969	1102.6137	1131.4081	1202.9554	1229.0718	1271.0019	1335.6049	1383.1439	1407.062	1426.7822	1473.8086	1520.1709	1776.8862	1804.1665	2954.0195	3038.5598	3087.476	3135.8976	3199.0987	3236.7153	3483.0494
N=C1OCC2CC12C=O	[NH][C]1OC[C@H]2C[C@@]12C=O	
InChI=1S/C6H7NO2/c7-5-6(3-8)1-4(6)2-9-5/h3-4,7H,1-2H2	InChI=1S/C6H7NO2/c7-5-6(3-8)1-4(6)2-9-5/h3-4,7H,1-2H2/t4-,6+/m1/s1
