15
gdb 15547	2.98	2.1784	1.5136	2.5744	61.64	-0.2524	-0.0361	0.2163	840.3228	0.118549	-399.817354	-399.809882	-399.808938	-399.849952	26.447	
C	 0.1267870076	 1.5501305536	-0.0984488026	-0.401803
C	 0.036426005	 0.0290173826	 0.0294083159	 0.002195
N	 0.6085492387	-0.6320372255	-1.1562036544	-0.259873
C	 1.4660129377	-1.4600149004	-0.734423053	 0.124269
O	 1.6819035488	-1.5936993028	 0.5969546728	-0.205214
C	 0.837666668	-0.6198713552	 1.2290763512	-0.012905
C	 1.6764671564	 0.3604843557	 2.0289623468	 0.141006
O	 2.8671619667	 0.4824735963	 1.9330884419	-0.230473
H	 1.1677012898	 1.8803138117	-0.1627953109	 0.142357
H	-0.3838930695	 1.8633111075	-1.0120322681	 0.139262
H	-0.3489438798	 2.0526097906	 0.7498899685	 0.116275
H	-1.0192685909	-0.2550262092	 0.1031080667	 0.101049
H	 2.0740487672	-2.112105992	-1.3507588913	 0.149945
H	 0.1644767259	-1.1383409876	 1.9217422835	 0.111231
H	 1.0752278883	 0.9843341747	 2.7293712329	 0.08268
44.5622	92.0006	240.8968	255.9178	267.2969	345.1895	411.5871	559.0651	682.2401	741.3235	774.9099	840.8196	885.746	945.7137	966.7934	988.7392	1068.8922	1073.8384	1110.8632	1135.4588	1144.5272	1256.4487	1303.2463	1327.9586	1353.1726	1376.0048	1411.7627	1420.2411	1489.8718	1501.4474	1713.4391	1842.8214	2869.7781	3031.816	3042.754	3050.5201	3115.0185	3129.7639	3224.5886
CC1N=COC1C=O	C[C@H]1N=CO[C@H]1C=O	
InChI=1S/C5H7NO2/c1-4-5(2-7)8-3-6-4/h2-5H,1H3	InChI=1S/C5H7NO2/c1-4-5(2-7)8-3-6-4/h2-5H,1H3/t4-,5+/m1/s1
