21
gdb 58935	3.33861	1.23898	1.15345	1.8503	81.11	-0.2241	0.0794	0.3034	1177.1865	0.181813	-387.027774	-387.019273	-387.018329	-387.060829	33.368	
C	 0.0600047204	 1.4388472874	-0.2366592597	-0.386176
C	-0.0260066762	-0.0613498445	 0.0890519504	-0.098353
C	 0.6967687361	-0.3866311109	 1.4060676497	-0.387167
C	-1.4592130607	-0.5277819657	 0.1014330706	 0.328031
C	-2.5926958737	-0.1540111875	 1.0677356495	-0.29397
C	-3.3803995626	-1.2993391992	 0.3847098028	 0.068387
O	-3.6101101665	-0.8008562114	-0.9649751685	-0.300364
C	-2.2092690748	-0.9802040589	-1.1690457174	 0.044076
C	-2.0140732476	-1.948479145	-0.0522404481	-0.213509
H	 1.1025115768	 1.7685714221	-0.2916388521	 0.109232
H	-0.4212108425	 1.666146501	-1.192709262	 0.117163
H	-0.4367374995	 2.0350412027	 0.5370540228	 0.117982
H	 0.4862110015	-0.6109074283	-0.7148063541	 0.070532
H	 0.2485554819	 0.1573555242	 2.2449680084	 0.115832
H	 0.6452683762	-1.4559159654	 1.6340349204	 0.112294
H	 1.752411493	-0.1009663903	 1.3528504581	 0.109856
H	-2.3352192388	-0.4021329487	 2.1009054755	 0.101714
H	-3.0431739512	 0.8424283475	 1.0105654714	 0.098797
H	-4.2517583581	-1.776876835	 0.8275359128	 0.085578
H	-1.8089922442	-0.9291021299	-2.1735551929	 0.104476
H	-1.5754127194	-2.9342574742	 0.0225388422	 0.095589
66.5559	143.9092	185.7031	226.3516	259.4601	298.9932	363.4473	445.2937	471.6682	559.6057	610.4393	762.6741	772.8725	796.2907	815.3818	873.3217	913.4457	918.988	926.9049	943.4986	963.7726	973.0477	1000.8655	1040.1454	1044.5486	1078.0217	1127.4959	1130.3121	1156.8955	1166.978	1178.4639	1201.8739	1246.5511	1274.2575	1313.6981	1337.6616	1354.1155	1396.9582	1409.9276	1419.9761	1486.2486	1487.6873	1491.8498	1501.2187	1512.0023	2990.3891	3028.0347	3032.2238	3044.0901	3094.012	3100.027	3103.3856	3107.2633	3108.2816	3144.616	3195.4712	3209.4908
CC(C)C12CC3OC1C23	CC(C)[C@@]12C[C@H]3O[C@@H]1[C@@H]23	
InChI=1S/C8H12O/c1-4(2)8-3-5-6(8)7(8)9-5/h4-7H,3H2,1-2H3	InChI=1S/C8H12O/c1-4(2)8-3-5-6(8)7(8)9-5/h4-7H,3H2,1-2H3/t5-,6+,7-,8-/m1/s1
