19
gdb 56894	3.33804	0.98391	0.80226	1.1684	78.04	-0.2425	0.0278	0.2703	1437.1437	0.156316	-422.970903	-422.961068	-422.960124	-423.00617	35.784	
C	-0.5808077503	 1.3431914364	 0.1238943447	-0.397988
C	 0.1940358331	 0.0466853873	 0.0080930928	 0.171585
C	 0.9027512766	-0.2661002375	-1.3302026371	-0.321555
C	 2.193108231	-0.2486745333	-0.4914094374	 0.139897
O	 1.4714490798	 0.1040620631	 0.7032454881	-0.307014
C	 2.9110548776	-1.6031978202	-0.3607317656	-0.073252
O	 3.4011924795	-2.0188118366	-1.6334593881	-0.419069
C	 3.9687507007	-1.5512108855	 0.6476988971	 0.295779
C	 4.8754042677	-1.4705313965	 1.43287466	-0.43902
H	-0.0004538606	 2.1814338781	-0.2743119152	 0.119161
H	-1.523363001	 1.2756823816	-0.430822199	 0.116092
H	-0.8152036318	 1.5552263434	 1.1717612988	 0.128687
H	-0.4076492781	-0.7871243199	 0.3945918791	 0.077584
H	 0.6655874932	-1.2227258476	-1.797834027	 0.119516
H	 0.8290611307	 0.526632163	-2.0767462728	 0.106626
H	 2.9311073794	 0.5191680949	-0.7603727652	 0.074987
H	 2.1659526028	-2.3541626205	-0.0713679644	 0.117718
H	 4.2285236435	-1.5509121003	-1.7918708001	 0.28889
H	 5.6629642161	-1.4137356798	 2.1432834812	 0.201377
53.7322	67.8823	112.6759	194.0654	225.9033	240.9597	269.7551	310.3359	329.7803	426.494	472.9857	511.1747	591.0714	634.3181	673.53	750.9836	835.3097	888.4318	892.5674	927.9571	965.7889	1033.7562	1043.9037	1067.8206	1090.7341	1131.3023	1141.0223	1198.2666	1247.6053	1251.5592	1271.7279	1297.361	1330.2315	1374.8565	1392.2962	1407.3877	1417.5597	1482.6188	1490.0961	1497.1074	2233.6641	3005.5666	3010.5516	3032.6071	3044.5115	3079.9137	3104.866	3112.5855	3135.1261	3502.9997	3809.7017
CC1CC(O1)C(O)C#C	C[C@H]1C[C@@H](O1)[C@@H](O)C#C	
InChI=1S/C7H10O2/c1-3-6(8)7-4-5(2)9-7/h1,5-8H,4H2,2H3	InChI=1S/C7H10O2/c1-3-6(8)7-4-5(2)9-7/h1,5-8H,4H2,2H3/t5-,6-,7+/m0/s1
