25
gdb 123258	9.8817	0.36141	0.35403	2.2199	88.34	-0.2486	0.0798	0.3284	3074.3055	0.226357	-426.621437	-426.609405	-426.608461	-426.660436	41.072	
C	 0.0225044185	 1.5375992421	 0.0859158386	-0.384051
C	 0.0212799635	 0.0192352848	 0.0278799851	-0.026402
O	 0.6941871159	-0.4771195375	 1.1649916094	-0.24315
C	 0.7511417914	-1.8857100587	 1.2114686687	-0.049857
C	 1.4951487906	-2.3061338595	 2.4718252728	-0.19575
C	 1.609625779	-3.8271723961	 2.6134016282	-0.187967
C	 2.3575532201	-4.2533627302	 3.8800444179	-0.164525
C	 2.4721398639	-5.7651462492	 4.0223222946	-0.073739
O	 3.1784698349	-6.0419050925	 5.2225981214	-0.421281
H	 1.047182176	 1.919932167	 0.0990185482	 0.125775
H	-0.4931461479	 1.9541770491	-0.784582614	 0.11244
H	-0.4838008271	 1.8871434486	 0.9902300001	 0.125768
H	-1.0129920949	-0.3656451013	-0.0016020937	 0.08203
H	 0.5178035637	-0.3328067772	-0.8931256163	 0.082035
H	-0.2682168669	-2.3115157079	 1.2076772215	 0.079889
H	 1.2626571692	-2.2790812757	 0.3147967758	 0.079886
H	 2.4938592973	-1.8533131931	 2.4560250926	 0.105531
H	 0.9760859868	-1.8851390888	 3.3413411227	 0.105538
H	 0.6039354467	-4.2704326794	 2.6157432154	 0.094147
H	 2.1199369713	-4.2386672554	 1.7312721193	 0.094149
H	 3.3679383739	-3.8265036973	 3.883248514	 0.105634
H	 1.8503740589	-3.858173093	 4.7686884791	 0.105626
H	 1.4649605518	-6.2140184364	 4.0401070164	 0.081909
H	 2.9964503745	-6.1820530842	 3.1462457811	 0.081905
H	 3.2518651689	-6.9960686179	 5.315304931	 0.28446
42.2138	60.4097	65.6347	96.8135	115.6954	154.1945	163.3097	168.8459	248.468	248.9009	267.472	306.7402	437.3684	480.379	523.3233	744.4609	780.7984	820.9602	861.2266	896.0791	982.907	998.5802	1017.9993	1053.0706	1062.1857	1076.7119	1095.1143	1147.6963	1170.4834	1178.1031	1194.4238	1219.7905	1229.1036	1270.4995	1284.2151	1295.0229	1307.9106	1322.2034	1328.8854	1340.3057	1389.1548	1400.9442	1410.5844	1454.3054	1463.85	1483.8037	1488.8495	1493.5852	1499.3475	1507.3169	1519.2026	1529.8101	1539.9316	2935.4246	2951.5171	2955.2945	2961.9705	2969.9391	2979.6915	3004.2403	3029.514	3030.753	3035.8498	3044.2555	3070.223	3082.072	3118.3603	3120.4511	3830.4154
CCOCCCCCO	CCOCCCCCO	
InChI=1S/C7H16O2/c1-2-9-7-5-3-4-6-8/h8H,2-7H2,1H3	InChI=1S/C7H16O2/c1-2-9-7-5-3-4-6-8/h8H,2-7H2,1H3
