18
gdb 126990	3.24664	1.06029	0.80993	2.3846	75.79	-0.1928	0.0332	0.2261	1401.8832	0.148599	-435.27071	-435.261363	-435.260419	-435.305666	33.274	
C	-0.0847076516	 1.5376348344	 0.0166727128	-0.391715
C	-0.0136579242	 0.0217397148	-0.000262327	-0.049765
O	-1.3428604538	-0.4825831597	-0.0332527095	-0.290953
C	-1.457623822	-1.8389211827	-0.0138945318	 0.236903
C	-2.6794195566	-2.4885672161	 0.0561176301	 0.225935
N	-3.9960353875	-2.0140432192	 0.1765061364	-0.616939
N	-2.3806353748	-3.8148866065	 0.0536724224	-0.216365
N	-1.062977121	-4.0728553406	-0.0275984648	-0.241
C	-0.4905185574	-2.8671390578	-0.0589964985	-0.121657
H	 0.9232394408	 1.9620729518	 0.0382477842	 0.120138
H	-0.5984188628	 1.9092136902	-0.874456727	 0.128649
H	-0.6277785783	 1.888355239	 0.8988059187	 0.128189
H	 0.5399677045	-0.3339545443	-0.8819271255	 0.103194
H	 0.5049682143	-0.358823108	 0.8919878927	 0.104098
H	-3.980343047	-1.0479524624	 0.4845937095	 0.25574
H	-4.4987271	-2.0420270786	-0.7064342652	 0.248306
H	-3.0356922727	-4.5742211318	 0.1321588327	 0.270594
H	 0.5836779299	-2.7866423326	-0.1221857001	 0.106647
53.8351	83.9765	113.5615	138.1792	244.4646	257.3989	283.2606	344.9057	348.6503	477.0082	526.2703	658.3328	674.3838	698.7253	775.4816	823.4863	840.6867	847.4652	919.6578	959.869	1082.004	1125.1742	1143.3221	1154.0017	1187.1141	1229.388	1265.6235	1296.1403	1340.1972	1393.3024	1402.8281	1419.6774	1446.8216	1483.7311	1500.8209	1527.4406	1557.233	1643.1216	1671.9964	2986.0357	3019.1077	3045.8555	3121.4073	3122.4694	3250.9251	3489.0859	3580.4829	3672.4806
CCOC1=C(N)NN=C1	CCOc1c(N)[nH]nc1	
InChI=1S/C5H9N3O/c1-2-9-4-3-7-8-5(4)6/h3H,2H2,1H3,(H3,6,7,8)	InChI=1S/C5H9N3O/c1-2-9-4-3-7-8-5(4)6/h3H,2H2,1H3,(H3,6,7,8)
