19
gdb 64099	3.17306	1.27067	1.14855	2.2529	71.24	-0.2361	-0.03	0.2061	1139.2084	0.156937	-460.184062	-460.175043	-460.174099	-460.217771	34.063	
C	-0.0468777777	 1.5134285844	 0.0106042533	-0.411765
C	-0.067976163	-0.0079756933	 0.0026601423	 0.418099
C	-1.5012932782	-0.5607049976	 0.0193099391	-0.437358
O	 0.6326191002	-0.3935820159	-1.171599015	-0.267838
C	 0.8664294479	-1.7806480593	-1.3157046803	-0.193397
C	 1.2623635871	-2.4958101536	-0.0290093091	 0.336029
O	 1.7702430437	-3.5906887371	-0.0418983052	-0.293871
C	 0.9019345585	-1.7946560424	 1.2756977513	-0.193405
O	 0.6645167957	-0.406142359	 1.1530141182	-0.267836
H	 0.9893341081	 1.856353	-0.0019486375	 0.134697
H	-0.5616182378	 1.9011247971	-0.8710977635	 0.125024
H	-0.5368388248	 1.8914423359	 0.9104416992	 0.125031
H	-2.0431293703	-0.2048885088	-0.8604875459	 0.131866
H	-1.5357772	-1.6530954208	 0.0140275581	 0.115904
H	-2.0189025348	-0.2142565772	 0.917246806	 0.131862
H	-0.0150550517	-2.3071341376	-1.7196100874	 0.126781
H	 1.6717060651	-1.9021493291	-2.0453529425	 0.146697
H	 0.0317433827	-2.3255729578	 1.6978761166	 0.126783
H	 1.7268565892	-1.9239232579	 1.981680812	 0.146697
48.7898	143.8502	197.9155	227.2724	244.0447	282.152	329.7946	386.3389	444.2193	447.5381	494.9785	510.3232	521.9014	695.8229	732.8852	804.1283	832.196	857.6475	927.8976	955.7624	1009.2398	1070.091	1085.3847	1154.5159	1175.8509	1217.7702	1223.2687	1246.7425	1259.457	1299.9273	1360.5602	1374.0887	1402.5508	1415.6533	1459.6367	1466.3458	1477.3287	1480.8965	1498.0614	1506.9836	1829.0388	2967.5349	2970.3961	3053.0036	3061.6845	3095.2443	3096.2034	3122.5321	3131.9364	3143.3607	3146.8234
CC1(C)OCC(=O)CO1	CC1(C)OCC(=O)CO1	
InChI=1S/C6H10O3/c1-6(2)8-3-5(7)4-9-6/h3-4H2,1-2H3	InChI=1S/C6H10O3/c1-6(2)8-3-5(7)4-9-6/h3-4H2,1-2H3
