18
gdb 53307	1.85592	1.25539	0.80683	3.1396	83.59	-0.234	0.0215	0.2554	1441.4676	0.145318	-401.904198	-401.894197	-401.893253	-401.941372	34.298	
C	-0.4508301818	 1.3276707149	-0.2029401498	-0.500272
C	-0.3170377254	-0.1206815772	-0.1512343687	 0.084196
C	-0.2081507042	-1.3195740037	-0.0967661398	 0.072628
C	-0.0895820274	-2.7463010805	-0.0532479133	-0.234071
C	-0.2638641114	-3.5010337173	 1.2635008654	-0.315525
C	-1.3143148463	-3.6189012997	 0.2164029548	 0.112505
O	-2.5419199591	-3.017708421	 0.5112047855	-0.185348
C	-3.211757733	-2.4863438978	-0.540376727	 0.135933
N	-4.3722938785	-2.0247615191	-0.3684427823	-0.441382
H	 0.1657080919	 1.8148011662	 0.5607190641	 0.149163
H	-0.1430409872	 1.7210027853	-1.1781580427	 0.147275
H	-1.4895717422	 1.6326750651	-0.0350712947	 0.15575
H	 0.6262796743	-3.1755718472	-0.7494684833	 0.114456
H	 0.3796036313	-4.3510966664	 1.4570798901	 0.124429
H	-0.5213387305	-2.9010525903	 2.1277456084	 0.147538
H	-1.3975537187	-4.546902002	-0.344819629	 0.108894
H	-2.6425508569	-2.5150861579	-1.4771702031	 0.095134
H	-4.730067095	-1.6574308917	-1.2478529945	 0.228697
21.7902	47.2872	99.6865	120.3518	129.6147	196.0888	256.6788	305.9124	382.1005	428.829	517.749	547.3247	645.7024	717.9748	787.6754	822.8942	854.1916	942.8845	979.9216	1043.2905	1051.314	1051.8178	1065.2254	1077.1113	1077.8444	1123.7666	1171.9057	1198.7546	1248.6428	1288.0805	1377.6674	1395.8922	1414.8398	1418.8039	1475.7171	1476.9461	1478.5701	1746.9806	2369.5101	3026.6501	3050.3874	3086.4237	3089.7333	3126.8537	3138.5765	3149.1837	3245.3983	3516.8624
CC#CC1CC1OC=N	CC#C[C@H]1C[C@H]1O[CH][NH]	
InChI=1S/C7H9NO/c1-2-3-6-4-7(6)9-5-8/h5-8H,4H2,1H3	InChI=1S/C7H9NO/c1-2-3-6-4-7(6)9-5-8/h5-8H,4H2,1H3/t6-,7+/m0/s1
