20
gdb 93277	2.2271	1.65513	1.21578	2.2884	74.89	-0.2371	-0.0283	0.2088	1103.8062	0.169738	-440.309414	-440.300074	-440.299129	-440.342878	35.827	
C	-0.2828503567	 1.5171176229	-0.0315526326	-0.422778
C	 0.0255465271	 0.030720398	 0.0639075063	 0.020868
N	 0.9311425155	-0.4159329669	-1.0127132627	-0.322586
C	 1.3623879891	-1.7768019052	-0.6932443376	-0.279978
C	 1.3082297468	-1.8054365112	 0.8286347281	 0.362293
O	 1.5401752087	-2.7367288189	 1.5575758746	-0.33598
C	 0.7844596535	-0.4482203042	 1.3212272854	 0.307812
C	 1.9764338108	 0.4427311552	 1.7078579011	-0.433625
O	-0.0853722923	-0.630602084	 2.4165191071	-0.490284
H	 0.6336625911	 2.1114047777	-0.0614456532	 0.126878
H	-0.85361354	 1.7326643257	-0.9414502851	 0.110462
H	-0.8871027729	 1.8341032279	 0.8235866759	 0.134074
H	-0.9289770595	-0.5271270818	 0.0679746846	 0.068626
H	 0.4959205783	-0.3483404527	-1.9244441622	 0.225533
H	 0.6948152283	-2.5771574354	-1.0568281322	 0.12185
H	 2.3688626642	-1.9979577753	-1.0660893982	 0.134511
H	 2.6074130343	 0.6667549892	 0.8435307826	 0.132534
H	 1.6063661377	 1.3790323804	 2.1333252046	 0.130187
H	 2.581059126	-0.0627144383	 2.4669883256	 0.122199
H	 0.2325855501	-1.4168405931	 2.8831517579	 0.287404
79.8118	179.7438	203.1333	221.4199	253.6852	279.5315	280.9707	302.1968	368.1018	405.4966	477.6564	532.2838	565.521	586.3724	633.022	685.1814	780.0575	852.4025	912.3859	954.977	993.1685	1030.1265	1065.1134	1084.6241	1104.2747	1115.7355	1154.9829	1175.3994	1205.0013	1257.1201	1281.2776	1355.6235	1374.0243	1389.7844	1395.2344	1414.919	1441.1827	1479.7707	1485.901	1495.5698	1500.4271	1507.6184	1849.0658	2928.4511	2960.1947	3038.8025	3042.9525	3057.047	3103.3157	3117.3025	3128.628	3129.7206	3553.6149	3736.2426
CC1NCC(=O)C1(C)O	C[C@H]1NCC(=O)[C@]1(C)O	
InChI=1S/C6H11NO2/c1-4-6(2,9)5(8)3-7-4/h4,7,9H,3H2,1-2H3	InChI=1S/C6H11NO2/c1-4-6(2,9)5(8)3-7-4/h4,7,9H,3H2,1-2H3/t4-,6-/m1/s1
