23
gdb 65474	2.78705	1.15275	0.99495	1.7311	85.29	-0.2536	0.0813	0.3349	1324.9983	0.203839	-388.265088	-388.255247	-388.254302	-388.299749	37.788	
C	 0.7847679197	-0.7169387172	-1.3471873655	-0.465469
C	 0.0436882371	-0.1344914449	-0.155731849	 0.379647
C	-1.4252521797	-0.5389409627	-0.0141781054	-0.356413
C	-2.4391978093	 0.3459799748	-0.7297296399	 0.439681
C	-2.2900604435	 0.5595179398	-2.220141221	-0.459748
C	-3.7707927034	 0.4974338802	-0.1200715205	-0.232066
O	-2.7975656899	 1.5380144532	-0.0041896027	-0.272953
C	 0.8439634715	 0.0205897693	 1.1195459659	-0.311679
C	 0.4401873054	 1.242026922	 0.3314398496	-0.299502
H	 1.8282213601	-0.3861708417	-1.3567772467	 0.11217
H	 0.7855519327	-1.8132933931	-1.308952702	 0.112046
H	 0.339367967	-0.4215418063	-2.3024478404	 0.11478
H	-1.5499035404	-1.5727222707	-0.3654493032	 0.096293
H	-1.7002698576	-0.5357460531	 1.0454291837	 0.100371
H	-2.2734538099	-0.3960983518	-2.7550856694	 0.117595
H	-3.1191609969	 1.1588752469	-2.6044408478	 0.120973
H	-1.3599790274	 1.0902349511	-2.4428017687	 0.136762
H	-4.6299629238	 0.7299776884	-0.748608983	 0.10752
H	-4.0083122163	-0.0272335923	 0.8051530033	 0.107025
H	 0.3466212843	-0.1637388906	 2.0662192731	 0.107297
H	 1.8868776341	-0.2788602263	 1.102498056	 0.104815
H	 1.2111171579	 1.7747291857	-0.2159613181	 0.103743
H	-0.3407188518	 1.8748489492	 0.7360262618	 0.137112
47.3646	94.5845	166.4359	208.1774	242.4783	284.7891	308.4396	324.9598	368.3432	388.0418	396.3805	419.1321	516.2631	727.0508	732.1368	786.6508	824.3808	868.8526	888.4133	912.1258	926.6174	950.4396	959.4772	978.1131	1022.6818	1049.9868	1076.3473	1082.0381	1097.8425	1126.6069	1135.818	1159.4677	1190.7333	1205.8963	1291.8044	1307.8552	1345.7023	1363.0541	1400.2492	1419.4138	1429.5257	1462.9478	1470.3375	1483.1493	1489.9381	1501.7519	1505.117	1510.4762	1531.9894	3013.9106	3024.5261	3039.6946	3072.4017	3075.6636	3085.69	3102.1959	3108.156	3121.9632	3124.0493	3135.1316	3158.9974	3204.8208	3227.5373
CC1(CC2(C)CO2)CC1	CC1(C[C@@]2(C)CO2)CC1	
InChI=1S/C8H14O/c1-7(3-4-7)5-8(2)6-9-8/h3-6H2,1-2H3	InChI=1S/C8H14O/c1-7(3-4-7)5-8(2)6-9-8/h3-6H2,1-2H3/t8-/m0/s1
