19
gdb 36596	5.27055	0.79052	0.7755	1.9716	82.38	-0.2375	0.056	0.2935	1506.2302	0.157571	-385.791911	-385.783232	-385.782288	-385.825944	32.985	
C	-0.0091176481	-1.1642788366	-0.1100240832	-0.436993
C	-0.0202807922	 0.0360387145	-0.0472266086	 0.294568
C	 0.0015819451	 1.4906400627	 0.0307451375	-0.360069
C	 1.4344942396	 2.0627887355	 0.07776898	-0.342862
C	 1.4437641866	 3.5617857614	 0.1205636616	 0.447427
C	 0.7634983959	 4.5484491394	 1.1150977963	-0.258473
C	 1.3093478367	 5.3389041898	-0.0931853841	 0.05381
C	 2.6346418108	 4.5494927343	-0.0140380739	-0.272626
O	 0.7689019001	 4.2946947653	-0.9933493924	-0.349153
H	-0.0155102878	-2.224284873	-0.1683991515	 0.192997
H	-0.5213822773	 1.922405875	-0.8302428435	 0.155226
H	-0.5519816304	 1.8187484468	 0.9195573545	 0.131694
H	 1.9633778282	 1.677635713	 0.9567634312	 0.118455
H	 1.9909285681	 1.7276504294	-0.804143855	 0.125393
H	-0.3238817454	 4.4837240906	 1.1708922789	 0.107256
H	 1.2347305493	 4.7002841096	 2.0898024339	 0.09476
H	 1.1370910777	 6.377262367	-0.3742192586	 0.096852
H	 3.2789078427	 4.7016495107	 0.8559704706	 0.094367
H	 3.1878379001	 4.4771603544	-0.9514153739	 0.107372
59.1992	79.9658	105.2038	196.9803	303.1835	356.1277	361.4626	477.8557	520.0146	598.561	618.2224	641.4356	692.7376	708.5955	768.0481	801.645	894.1128	902.9369	932.8323	971.7188	986.3308	988.0726	1020.8535	1036.8205	1094.2276	1104.6305	1119.1782	1157.4078	1202.4932	1214.8835	1235.7782	1246.6807	1282.5351	1313.7894	1332.5327	1391.61	1465.6794	1469.376	1482.0927	1513.3666	2240.0169	3028.8533	3045.6787	3056.8328	3064.3943	3065.7571	3092.1258	3125.852	3142.6445	3147.1935	3507.3208
C#CCCC12CC(C1)O2	C#CCC[C@@]12C[C@@H](C1)O2	
InChI=1S/C8H10O/c1-2-3-4-8-5-7(6-8)9-8/h1,7H,3-6H2	InChI=1S/C8H10O/c1-2-3-4-8-5-7(6-8)9-8/h1,7H,3-6H2/t7-,8+
