17
gdb 71917	2.56379	1.98162	1.41263	3.4081	71.62	-0.2298	-0.029	0.2008	941.9139	0.135764	-421.792211	-421.784796	-421.783852	-421.823915	28.889	
C	-0.0633380152	 1.558007749	-0.079374561	-0.493175
C	 0.0089615194	 0.0544201641	 0.0363305476	 0.168065
C	-1.2983168567	-0.7604588208	 0.3115085462	-0.282233
C	-0.4893363778	-1.7773351613	 1.1413422422	 0.106799
O	 0.2336060912	-2.7010794135	 0.2916368831	-0.298395
C	 1.3134670483	-1.7558947523	 0.1076132935	-0.029886
C	 0.7154711405	-0.7988577052	 1.1852607992	-0.146745
C	 0.9190560175	-0.7007076556	-0.9537082519	 0.402222
O	 1.3242224166	-0.4302029455	-2.0470950237	-0.312529
H	 0.934718127	 2.0052224587	-0.1230787684	 0.128098
H	-0.5899899963	 1.8415537766	-0.9968575683	 0.139039
H	-0.6003887775	 1.9949750835	 0.7689547436	 0.11712
H	-1.9637836502	-0.1739844419	 0.9554335361	 0.108787
H	-1.8636817312	-1.146800314	-0.5403943446	 0.118518
H	-0.9603836626	-2.2873593966	 1.9828956718	 0.087609
H	 2.2988509516	-2.2242572052	 0.0852143428	 0.095957
H	 1.2347445656	-0.39783217	 2.0498621217	 0.090749
116.6858	180.1167	218.7214	253.0869	289.1024	385.2277	448.0061	562.0642	643.1789	703.209	787.8024	790.2334	819.2292	836.3234	864.6239	904.0529	953.5115	981.5641	987.5712	997.5011	1033.146	1101.944	1118.1722	1143.8447	1158.344	1180.465	1214.4795	1238.4592	1258.8629	1275.4579	1320.3484	1333.9708	1409.8075	1468.9879	1487.2073	1489.7034	1879.1264	3031.7608	3039.5218	3100.1074	3101.0794	3104.0549	3104.904	3107.4632	3170.3538
CC12CC3OC(C13)C2=O	C[C@]12C[C@H]3O[C@H]([C@@H]13)C2=O	
InChI=1S/C7H8O2/c1-7-2-3-4(7)5(9-3)6(7)8/h3-5H,2H2,1H3	InChI=1S/C7H8O2/c1-7-2-3-4(7)5(9-3)6(7)8/h3-5H,2H2,1H3/t3-,4+,5-,7+/m1/s1
