19
gdb 108906	3.10413	0.92618	0.74412	4.6084	79.97	-0.2346	-0.0201	0.2145	1497.5378	0.158169	-423.043519	-423.03416	-423.033216	-423.078746	33.275	
O	 0.0685187941	 1.3922227412	 0.1924702348	-0.412237
C	 0.0498744559	 0.0020525499	-0.0675243074	-0.174601
C	-1.3556105212	-0.502757846	-0.0451656572	 0.307543
C	-2.4576409626	 0.2129477654	 0.1807001292	-0.181578
C	-3.7220791245	-0.6184548646	 0.0729767466	-0.097338
C	-3.1684567661	-2.0727865004	 0.0269435113	-0.246164
C	-1.6744818138	-1.9466093233	-0.3598009536	-0.307835
C	-4.6417167257	-0.4064535584	 1.2600903157	 0.158536
O	-5.7657406793	 0.0191468228	 1.2056433618	-0.251395
H	 0.9833533687	 1.6869694334	 0.1878112053	 0.291744
H	 0.4995457411	-0.2331190394	-1.0492824151	 0.097675
H	 0.6423386132	-0.5568730786	 0.6792225376	 0.098201
H	-2.4693161437	 1.2773377786	 0.3769596547	 0.1194
H	-4.295773393	-0.3589709931	-0.8254411393	 0.093869
H	-3.24741889	-2.5203593003	 1.0247804441	 0.107826
H	-3.7386795094	-2.7074795062	-0.6544211931	 0.112933
H	-1.5082554196	-2.1520601718	-1.4267590307	 0.110554
H	-1.0417479586	-2.6544210584	 0.1892669795	 0.104785
H	-4.1742723356	-0.6820953307	 2.236448876	 0.068083
57.329	78.2821	94.3795	151.3175	190.549	231.197	328.2782	356.5451	410.2441	439.9993	464.8098	632.9765	693.253	833.2382	863.5541	906.8989	915.5179	942.8837	989.4877	999.7421	1029.923	1078.3599	1087.1421	1107.0076	1163.597	1182.7929	1214.7468	1235.9652	1256.0099	1263.5977	1282.6404	1295.3876	1335.1557	1363.1443	1421.0283	1466.3812	1482.4596	1498.0654	1505.8922	1719.2792	1833.4036	2840.3957	2937.4431	2949.4611	3008.9027	3031.3923	3035.5235	3051.8574	3108.7767	3222.1324	3839.9718
OCC1=CC(CC1)C=O	OCC1=C[C@@H](CC1)C=O	
InChI=1S/C7H10O2/c8-4-6-1-2-7(3-6)5-9/h3-4,6,9H,1-2,5H2	InChI=1S/C7H10O2/c8-4-6-1-2-7(3-6)5-9/h3-4,6,9H,1-2,5H2/t6-/m1/s1
