15
gdb 46820	2.60988	1.66627	1.19076	5.9292	70.51	-0.2692	-0.0483	0.2209	1018.0222	0.113446	-416.815441	-416.807937	-416.806993	-416.847573	28.255	
O	 0.0556715594	 0.0352120314	 0.2282810174	-0.286628
C	-0.0023481893	 1.218538307	 0.0486000767	 0.375382
C	-1.2530842202	 2.05975869	-0.2390029373	-0.365197
C	-0.7091367576	 3.3489600129	-0.8783585964	-0.167538
N	 0.7362481654	 3.4811170027	-0.5370655459	-0.120786
C	 1.0083277892	 3.3895493927	 0.880264432	-0.261099
C	 1.1786060657	 2.1721553854	 0.0056340284	 0.060564
C	 2.4823942258	 1.6658632881	-0.3248368365	 0.234934
N	 3.5298419174	 1.2477636634	-0.5754840898	-0.328264
H	-1.921224337	 1.4992761021	-0.8948063	 0.154338
H	-1.7940560095	 2.2276757796	 0.6984458658	 0.146116
H	-0.7705662413	 3.2979622634	-1.968274237	 0.137494
H	-1.2271151051	 4.2544697529	-0.5533437695	 0.129313
H	 1.9088141419	 3.8950975035	 1.2137149831	 0.158056
H	 0.1866126451	 3.3843579149	 1.5933888489	 0.133315
103.2846	142.7169	170.7905	251.8066	386.0011	402.5692	482.3711	533.7147	574.9827	603.3712	650.8811	668.4301	791.2716	830.0253	872.286	906.4802	980.3176	1005.325	1032.3479	1063.7225	1118.8899	1154.4118	1199.4432	1243.9971	1260.7488	1289.3352	1327.7755	1364.8172	1457.1941	1499.3895	1513.332	1858.4202	2366.5796	3060.54	3069.4626	3110.279	3112.9707	3129.268	3207.4314
O=C1CCN2CC12C#N	O=C1CCN2C[C@@]12C#N	
InChI=1S/C6H6N2O/c7-3-6-4-8(6)2-1-5(6)9/h1-2,4H2	InChI=1S/C6H6N2O/c7-3-6-4-8(6)2-1-5(6)9/h1-2,4H2/t6-,8?/m0/s1
