17
gdb 88135	2.63045	1.47317	1.09725	2.3546	69.57	-0.2418	-0.0421	0.1996	1121.3748	0.134469	-458.959119	-458.950717	-458.949773	-458.992399	30.782	
C	-0.1037661548	 1.5136612654	-0.1390150399	-0.42525
C	-0.0226214759	 0.0236048515	 0.0503265823	 0.018348
O	 1.2600879843	-0.5934244667	-0.0805715513	-0.2814
C	 0.6483999667	-0.6101198671	 1.2044697017	 0.283227
C	 1.297736713	 0.0706843683	 2.3936941301	-0.185289
O	 0.705217685	-0.5483211638	 3.5372353735	-0.25445
C	 0.4310190457	-1.9076946282	 3.2334851423	-0.19055
C	 0.1721305532	-1.9504578161	 1.7308254749	 0.308805
O	-0.2987593037	-2.8472337289	 1.0838060931	-0.302965
H	 0.7412509199	 2.0245395935	 0.3286640707	 0.130852
H	-0.0977937619	 1.7559100932	-1.2065831057	 0.140399
H	-1.0339743383	 1.9028397288	 0.2879889581	 0.133133
H	-0.8233108049	-0.5613548306	-0.4050170353	 0.116201
H	 2.3869194407	-0.0913513211	 2.3672143846	 0.114245
H	 1.1059016236	 1.1432143856	 2.4648994589	 0.123876
H	 1.2841606171	-2.5659317164	 3.4709409622	 0.126471
H	-0.4331474897	-2.2414640274	 3.8136504599	 0.144346
78.0496	146.5943	161.0723	182.8583	217.6119	284.0848	366.1377	451.7533	491.6803	546.8559	581.0547	659.9	731.0857	795.6559	856.9657	947.2667	980.8879	987.9621	1013.4747	1073.7803	1087.3226	1109.4281	1133.6973	1186.5518	1202.6799	1218.9437	1244.7789	1313.6594	1340.0795	1385.8282	1408.2134	1462.317	1474.6797	1484.7535	1503.5819	1510.9962	1860.506	2967.9008	2986.6139	3041.1485	3098.6688	3104.1907	3106.2395	3106.7725	3130.9557
CC1OC11COCC1=O	C[C@H]1O[C@]21COCC2=O	
InChI=1S/C6H8O3/c1-4-6(9-4)3-8-2-5(6)7/h4H,2-3H2,1H3	InChI=1S/C6H8O3/c1-4-6(9-4)3-8-2-5(6)7/h4H,2-3H2,1H3/t4-,6+/m1/s1
