21
gdb 121369	3.2617	0.94758	0.80895	2.3239	75.64	-0.2411	0.0671	0.3082	1473.078	0.18177	-461.34634	-461.336451	-461.335506	-461.381996	34.923	
C	-0.0314062718	 1.3301276361	 0.1469527932	-0.224278
O	-0.0417567567	-0.0685695376	-0.002370503	-0.240357
C	 0.7128487442	-0.5058568926	-1.1162085838	-0.080952
C	 0.5896290832	-2.018524467	-1.190295275	-0.029015
C	-0.8295667205	-2.5410337217	-1.4478940683	-0.063305
O	-0.6678414997	-3.8720293831	-1.9393634017	-0.265856
C	 0.654313421	-4.0422887896	-2.4349447268	-0.08309
C	 1.3614039552	-2.6816144946	-2.3400935799	 0.064107
O	 1.1688504075	-1.8859964286	-3.5053605167	-0.435648
H	 0.9885788918	 1.7172314522	 0.3024752732	 0.101882
H	-0.4580866599	 1.8390240125	-0.7319855743	 0.104453
H	-0.6372055545	 1.5716848425	 1.0238497493	 0.125745
H	 0.3408875008	-0.0470146403	-2.0435429195	 0.108938
H	 1.7699874311	-0.208930787	-1.0054049398	 0.083477
H	 0.9558298279	-2.4447210975	-0.2488636334	 0.088326
H	-1.4446468789	-2.5764969222	-0.5457881751	 0.1146
H	-1.3390906917	-1.9157621211	-2.1957328753	 0.097147
H	 1.1782883262	-4.8010144316	-1.8350403148	 0.094223
H	 0.6222825909	-4.3979435665	-3.4746340797	 0.086625
H	 2.4326183223	-2.7932967547	-2.1208332139	 0.067162
H	 1.5187171616	-2.3677702777	-4.2609008445	 0.285818
70.7029	74.1362	99.8101	122.0955	158.8349	234.915	269.4059	289.4714	332.7145	352.7513	439.3412	553.6565	677.5874	774.0907	864.5928	873.9807	928.8768	944.524	980.1698	1004.1301	1022.5954	1094.0957	1127.5454	1138.4659	1146.1792	1167.0402	1185.8376	1192.515	1221.3013	1231.8108	1241.5845	1273.408	1302.3345	1340.0952	1345.6643	1377.9326	1391.1512	1421.5301	1434.0399	1481.7769	1485.7278	1504.1508	1509.64	1522.778	1529.278	2955.3523	2969.9506	2985.1093	2997.6093	3007.003	3010.8994	3017.9484	3022.7676	3050.2817	3098.7118	3112.4101	3825.2989
COCC1COCC1O	COC[C@H]1COC[C@H]1O	
InChI=1S/C6H12O3/c1-8-2-5-3-9-4-6(5)7/h5-7H,2-4H2,1H3	InChI=1S/C6H12O3/c1-8-2-5-3-9-4-6(5)7/h5-7H,2-4H2,1H3/t5-,6+/m0/s1
