18
gdb 92010	2.64259	1.59397	1.28239	3.944	70.9	-0.2428	-0.0145	0.2282	1023.0064	0.148842	-439.079408	-439.071629	-439.070685	-439.111797	30.178	
O	 0.0724188597	 1.4727658425	-0.036113368	-0.432642
C	 0.1245289484	 0.0612431207	 0.0525532336	 0.082745
C	 0.6290825073	-0.4284119206	 1.4359742078	-0.236275
C	-0.6332731824	-0.5396893177	 2.2724766691	-0.039602
N	-1.5179298708	 0.636762133	 2.1006253714	-0.351195
C	-1.8039313983	-0.6162763244	 1.3619674567	-0.023573
C	-1.303591741	-0.5642325266	-0.068781336	-0.129593
C	-2.1819725605	 0.192404734	-1.0421767767	 0.164477
O	-3.2919385018	 0.585339709	-0.7896021669	-0.252552
H	-0.4910423118	 1.7492081263	 0.7061848983	 0.294636
H	 0.7790109328	-0.2676291064	-0.758166629	 0.085441
H	 1.102866755	-1.4138254801	 1.3538910635	 0.10227
H	 1.3639646214	 0.2737895075	 1.8393883176	 0.117458
H	-0.6200151762	-1.0451448718	 3.2322747304	 0.092866
H	-2.1536290454	 0.7250546787	 2.8877386469	 0.241924
H	-2.7032015825	-1.1675980132	 1.6090922471	 0.101636
H	-1.2095565501	-1.5914789857	-0.4547995548	 0.098791
H	-1.7304690937	 0.3461199049	-2.046812691	 0.083189
89.3849	135.6155	195.5804	236.4414	313.158	385.747	436.0198	480.343	626.7097	659.468	708.8884	749.2244	808.7386	820.7264	865.1325	883.7043	893.2354	938.0985	959.7344	995.6318	1046.7854	1055.9196	1071.0832	1104.0378	1127.1036	1156.4078	1205.2949	1232.3002	1253.701	1259.2092	1309.3425	1329.8213	1345.2564	1380.1741	1420.8585	1430.4017	1468.74	1479.4808	1828.6567	2891.5989	2996.175	3040.8051	3083.979	3099.677	3167.913	3188.0519	3523.2012	3656.339
OC1CC2NC2C1C=O	O[C@H]1C[C@H]2N[C@H]2[C@H]1C=O	
InChI=1S/C6H9NO2/c8-2-3-5(9)1-4-6(3)7-4/h2-7,9H,1H2	InChI=1S/C6H9NO2/c8-2-3-5(9)1-4-6(3)7-4/h2-7,9H,1H2/t3-,4+,5-,6-/m0/s1
