20
gdb 94594	3.28611	0.95739	0.79499	4.2858	75.3	-0.2371	0.027	0.2641	1449.2657	0.169699	-440.305664	-440.295617	-440.294673	-440.342133	35.514	
C	-0.4047129829	 1.4599703771	-0.0706743167	-0.402181
C	 0.1225428544	 0.0380954882	-0.0660296816	 0.132559
O	 1.3730918586	-0.0902277153	-0.7803673515	-0.296316
C	 1.9641199491	-0.8493363948	 0.2985007494	-0.06913
C	 0.7491181758	-0.5919913861	 1.2114912899	-0.031662
C	 1.0038651917	 0.3139671975	 2.4084844195	-0.346207
C	 1.8227474694	-0.4020191066	 3.4835130298	 0.414809
N	 1.8652543562	 0.2347448711	 4.6907517878	-0.525978
O	 2.3933920659	-1.4578315116	 3.2850885198	-0.353087
H	 0.3154319588	 2.1607306345	 0.3604985421	 0.114779
H	-0.6020408341	 1.7736017959	-1.1006463603	 0.128274
H	-1.3442116859	 1.5286772196	 0.4888920107	 0.11156
H	-0.6355992143	-0.6276828795	-0.5064149194	 0.068609
H	 2.1217538249	-1.8999441896	 0.0280951408	 0.103554
H	 2.9179439293	-0.4229850608	 0.6270075344	 0.102698
H	 0.2472846351	-1.5010314976	 1.5470229329	 0.085941
H	 1.5604449075	 1.2107079917	 2.1057277447	 0.12969
H	 0.0621893348	 0.6705295896	 2.8448471799	 0.112857
H	 1.4641541597	 1.1453603344	 4.8304629324	 0.257934
H	 2.4631753559	-0.1441683277	 5.4068140354	 0.261298
30.9837	61.2405	86.9463	134.4167	171.3641	208.5958	241.3519	326.8267	374.1608	424.2548	501.8649	515.097	607.5706	653.2287	746.0465	846.851	859.7891	880.4579	901.0837	929.5719	1009.0917	1016.8666	1070.8442	1092.8333	1102.5458	1150.7031	1153.1941	1170.804	1229.6435	1237.3648	1286.5934	1294.4859	1354.6407	1379.8215	1390.4599	1405.8529	1411.1457	1462.1269	1483.5594	1498.7003	1526.3264	1618.1636	1792.7603	2976.7494	3021.1516	3027.4199	3036.2978	3056.9628	3071.1244	3098.1264	3104.2942	3117.6669	3601.6728	3737.4755
CC1OCC1CC(N)=O	C[C@H]1OC[C@H]1CC(=O)N	
InChI=1S/C6H11NO2/c1-4-5(3-9-4)2-6(7)8/h4-5H,2-3H2,1H3,(H2,7,8)	InChI=1S/C6H11NO2/c1-4-5(3-9-4)2-6(7)8/h4-5H,2-3H2,1H3,(H2,7,8)/t4-,5-/m1/s1
