18
gdb 46051	4.65912	0.9671	0.83519	4.7894	72.69	-0.2552	0.0141	0.2693	1342.1612	0.148627	-439.096888	-439.088904	-439.08796	-439.130086	29.806	
O	-0.0489267919	-0.0015270621	 0.3155558472	-0.33152
C	-0.0569213099	 1.1882810662	 0.2056649676	 0.430916
C	-1.2507328925	 2.1352027624	 0.1638657862	-0.37723
C	-0.6377773994	 3.5070477104	 0.4513142281	 0.01334
C	 0.799033368	 3.3116793506	-0.071466401	-0.090544
O	 1.0911038364	 1.9168047363	 0.0899925915	-0.217148
N	-1.3080153589	 4.594422467	-0.2401634694	-0.065761
C	-2.4262202179	 5.2195348177	 0.4633183417	-0.223829
C	-1.1281612109	 5.9320771567	 0.3263357752	-0.227232
H	-1.6712388652	 2.1207608966	-0.8483891628	 0.149067
H	-2.0245539698	 1.8105042783	 0.8597373788	 0.137175
H	-0.6036034128	 3.6722388466	 1.5428644203	 0.07135
H	 0.8511406779	 3.5791710037	-1.132924128	 0.12556
H	 1.5512851014	 3.8788001007	 0.4803578015	 0.122156
H	-3.2749467834	 5.4935609415	-0.1556728437	 0.125478
H	-2.6836602105	 4.8406010243	 1.4508632349	 0.116776
H	-0.5183469947	 6.0304361227	 1.222922844	 0.11597
H	-1.0114596559	 6.7352268704	-0.3946773121	 0.125476
75.5891	91.8487	167.6774	196.1652	286.5227	375.911	426.0744	525.2041	537.8957	615.0821	688.815	787.0432	835.3368	870.3813	894.3623	917.2645	924.9184	1024.6384	1060.0982	1067.9733	1073.1049	1115.6713	1116.0261	1124.0013	1170.1983	1171.8042	1180.2818	1205.0705	1246.8171	1267.2206	1322.7241	1345.079	1361.2364	1410.007	1463.9007	1490.1459	1517.4945	1521.3082	1890.1574	2939.1155	3046.6015	3057.9342	3098.4982	3103.0721	3114.1306	3135.0642	3185.169	3199.0334
O=C1CC(CO1)N1CC1	O=C1C[C@@H](CO1)N1CC1	
InChI=1S/C6H9NO2/c8-6-3-5(4-9-6)7-1-2-7/h5H,1-4H2	InChI=1S/C6H9NO2/c8-6-3-5(4-9-6)7-1-2-7/h5H,1-4H2/t5-/m0/s1
