18
gdb 91471	2.56594	1.65402	1.23329	2.9421	76.12	-0.2601	0.0193	0.2794	1040.7194	0.148915	-401.948885	-401.941159	-401.940214	-401.980879	30.403	
C	-0.1077938227	 1.5113421071	-0.0493904154	-0.423077
C	 0.0644590403	 0.0064756435	 0.0392645701	 0.116698
O	 0.9434863998	-0.4975565645	-0.994730668	-0.292316
C	 1.9172753933	-1.2389055727	-0.2471457989	 0.089689
C	 1.068905915	-2.0208276462	 0.7844823414	-0.270414
C	 0.8047123863	-0.5568475273	 1.2862507415	 0.154378
C	 2.3002793143	-0.2757736929	 0.9012247563	-0.271339
C	 0.2547355136	-0.2597321099	 2.5856824916	 0.171353
N	-0.1892633679	-0.0195907352	 3.6262923903	-0.345998
H	 0.8380152406	 2.0414383969	 0.0875541823	 0.124691
H	-0.5048975646	 1.7763644745	-1.0332229337	 0.136078
H	-0.815869947	 1.8552607772	 0.7110484806	 0.137638
H	-0.9147629934	-0.4798601221	-0.057242634	 0.093021
H	 2.6357367645	-1.7000701893	-0.920764724	 0.095755
H	 0.2127091283	-2.5859000983	 0.4116818371	 0.118966
H	 1.6570758478	-2.6050707951	 1.4922331723	 0.122337
H	 2.9930491658	-0.7054603872	 1.6249324764	 0.122968
H	 2.584235496	 0.7432107417	 0.6378451641	 0.119572
132.0413	153.27	209.2154	232.372	298.3826	473.1963	477.9611	502.4241	527.7309	546.8946	571.704	660.8572	810.5183	835.4942	857.7251	924.7227	928.5795	948.49	972.2918	983.1942	1034.296	1090.7747	1096.7045	1122.7095	1152.0313	1177.522	1196.2456	1228.9155	1234.0187	1251.7938	1296.2376	1345.4275	1393.1006	1415.2428	1472.9135	1487.7267	1495.7707	1513.2532	2352.5519	3020.3775	3047.0882	3081.8574	3092.6849	3119.8995	3127.9864	3154.0164	3156.3034	3161.4711
CC1OC2CC1(C2)C#N	C[C@H]1O[C@@H]2C[C@]1(C2)C#N	
InChI=1S/C7H9NO/c1-5-7(4-8)2-6(3-7)9-5/h5-6H,2-3H2,1H3	InChI=1S/C7H9NO/c1-5-7(4-8)2-6(3-7)9-5/h5-6H,2-3H2,1H3/t5-,6-,7+/m1/s1
