17
gdb 11609	4.36777	1.19826	1.11992	5.1806	64.44	-0.2475	0.0213	0.2687	1095.6807	0.142846	-401.010851	-401.002913	-401.001969	-401.044039	29.056	
O	-0.6898462996	 0.0169293255	-0.4190599406	-0.362294
C	-0.3723476641	 1.3180393667	-0.3214965308	 0.428721
O	 0.5715169627	 1.8115853323	-0.8740476548	-0.330296
C	-1.3141506777	 2.1023979041	 0.6072701345	-0.313258
N	-2.5513066258	 1.3633438593	 0.8778926284	-0.322696
H	-1.5064521148	-0.0778727962	 0.1182883621	 0.297623
H	-2.7965154498	 1.41650808	 1.8593899782	 0.237608
C	-3.6796995881	 1.750826737	 0.0627005348	 0.042191
C	-3.8539509911	 1.0991976788	-1.2852385651	-0.259022
C	-4.7783463321	 0.7464811588	-0.1450472429	-0.282265
H	-0.7669574617	 2.2596015905	 1.5429186142	 0.139186
H	-1.4832665511	 3.0904821178	 0.1638272014	 0.135988
H	-3.9761555085	 2.7989737182	 0.1333330711	 0.089264
H	-4.2388012826	 1.7088500797	-2.0944240963	 0.123256
H	-3.1168905226	 0.3646718436	-1.5861566731	 0.134811
H	-4.6508225611	-0.2252765575	 0.3183587507	 0.120448
H	-5.800656562	 1.1054698115	-0.171496392	 0.120736
60.7597	79.6165	118.4653	245.9859	293.0099	390.5261	427.0339	547.7402	555.6221	648.4756	759.4238	768.9853	817.5203	839.7431	863.0679	879.3625	953.1026	958.3396	1052.4565	1062.5468	1082.8825	1106.3235	1139.2887	1179.1087	1195.6948	1213.3999	1243.644	1286.7722	1334.4682	1396.22	1426.0583	1458.696	1464.1282	1472.3723	1508.209	1880.6328	3039.7052	3079.9564	3088.6596	3141.8129	3150.2094	3225.4499	3240.8353	3485.4407	3540.3057
[O-]C(=O)C[NH2+]C1CC1	OC(=O)CNC1CC1	
InChI=1S/C5H9NO2/c7-5(8)3-6-4-1-2-4/h4,6H,1-3H2,(H,7,8)	InChI=1S/C5H9NO2/c7-5(8)3-6-4-1-2-4/h4,6H,1-3H2,(H,7,8)
