18
gdb 60669	1.82635	1.59558	1.2547	2.7954	77.69	-0.2443	-0.0364	0.2079	1122.8043	0.144438	-401.89076	-401.880999	-401.880055	-401.925611	35.267	
C	 0.0297410541	 1.4112177177	-0.0600787236	-0.420388
C	-0.1071679106	-0.1332677522	 0.0581202711	-0.053615
C	 0.4192183736	-0.5129194767	 1.4583175619	 0.158575
O	 1.4356456837	-1.1170519359	 1.6601888995	-0.239384
C	-1.5202382849	-0.5049586479	 0.000628058	 0.294243
C	-2.6845778716	-0.806535173	-0.0201289423	-0.47604
C	 0.7286409418	-0.8183859216	-1.0235315416	 0.032425
C	 0.4089798368	-2.1665414604	-1.5381592373	-0.252473
N	 0.2190220326	-0.9745958318	-2.3912887715	-0.341387
H	 1.0843214572	 1.6965634614	-0.0077894825	 0.136011
H	-0.3768223752	 1.7453244711	-1.0173813259	 0.145443
H	-0.5147923029	 1.917773916	 0.7415323702	 0.131052
H	-0.2242554835	-0.1466969933	 2.2885463437	 0.094135
H	-3.7131465341	-1.0725175789	-0.0419693047	 0.209962
H	 1.7734985985	-0.5247900452	-0.9755693428	 0.106328
H	 1.213826781	-2.8282630604	-1.842876909	 0.122598
H	-0.4750383833	-2.6632134375	-1.1495037289	 0.121155
H	-0.773620183	-0.7450212616	-2.4104181443	 0.231362
59.7047	80.7259	142.7603	170.1531	185.9033	232.3071	263.7255	294.3244	377.793	422.5057	497.0581	575.3516	613.9951	627.5478	665.3086	673.9836	847.1261	892.1657	901.2851	950.9432	969.6615	980.3827	1012.2792	1087.5781	1112.4875	1143.7708	1169.3445	1197.7527	1262.6608	1269.1003	1309.3688	1395.0175	1402.0627	1423.0041	1489.7883	1493.4927	1504.8905	1838.6942	2225.3567	2891.019	3044.5958	3119.4253	3122.9347	3131.8272	3148.4301	3207.5596	3477.2822	3496.3971
CC(C=O)(C#C)C1CN1	C[C@@](C=O)(C#C)[C@H]1CN1	
InChI=1S/C7H9NO/c1-3-7(2,5-9)6-4-8-6/h1,5-6,8H,4H2,2H3	InChI=1S/C7H9NO/c1-3-7(2,5-9)6-4-8-6/h1,5-6,8H,4H2,2H3/t6-,7+/m1/s1
