20
gdb 11396	3.5627	1.49311	1.19825	1.319	77.37	-0.2298	0.0178	0.2475	1089.5302	0.176459	-349.021541	-349.01301	-349.012066	-349.05473	31.777	
C	-0.2252200715	 1.4960661847	 0.1357032703	-0.379834
C	-0.0917691719	-0.0274931504	 0.0800545824	-0.174046
C	 0.8442632224	-0.5789676474	 1.1622445378	 0.093173
O	 0.3553696945	-0.2339877951	 2.4634507077	-0.28853
C	 0.2627348746	-1.3906423759	 3.3023735174	 0.095823
C	-1.131738976	-1.4762301595	 3.9229116176	-0.388389
C	 0.6255883276	-2.5374965453	 2.3947531396	-0.102397
C	 0.9549646984	-2.080419396	 1.193402911	-0.102306
H	 0.7434363365	 1.9833625804	-0.0235043949	 0.110261
H	-0.9137026886	 1.8615724955	-0.6321300255	 0.107286
H	-0.600691206	 1.8096372136	 1.1131868278	 0.134968
H	-1.0737265204	-0.4999979994	 0.201675541	 0.096783
H	 0.2944129198	-0.3384892175	-0.899578991	 0.088645
H	 1.8392396348	-0.1172731082	 1.0242782673	 0.072977
H	 1.0010341859	-1.2963494821	 4.1181880897	 0.077453
H	-1.8906968567	-1.6056748231	 3.1458914645	 0.118234
H	-1.1929278194	-2.3200761308	 4.6185098031	 0.109271
H	-1.3525635653	-0.5591621856	 4.476421122	 0.12511
H	 0.6134905332	-3.5704168752	 2.7200829692	 0.102761
H	 1.2657957181	-2.663643353	 0.3354288129	 0.102758
62.6571	101.8185	175.7356	224.4101	237.6354	273.8088	338.2944	415.3313	441.2842	553.0992	681.2626	758.5273	769.7412	806.8952	855.2318	874.5885	908.6172	957.8532	985.9311	997.71	1048.1003	1073.4427	1097.5897	1125.1926	1132.4319	1143.7231	1149.598	1287.4421	1291.1462	1325.6873	1355.1055	1366.655	1378.1391	1392.6472	1399.919	1406.5042	1474.478	1485.7129	1495.4799	1497.4891	1508.8368	1692.2105	2929.1115	2941.7429	3021.4546	3035.2333	3036.3207	3063.5624	3100.772	3109.7637	3120.7109	3123.3377	3200.8783	3225.8814
CCC1OC(C)C=C1	CC[C@H]1O[C@@H](C)C=C1	
InChI=1S/C7H12O/c1-3-7-5-4-6(2)8-7/h4-7H,3H2,1-2H3	InChI=1S/C7H12O/c1-3-7-5-4-6(2)8-7/h4-7H,3H2,1-2H3/t6-,7+/m0/s1
