16
gdb 12714	3.03102	2.29531	1.71339	3.4686	65.73	-0.2346	0.0246	0.2592	811.925	0.131054	-379.889796	-379.882581	-379.881637	-379.920998	27.461	
C	-0.136741517	 1.472789958	 0.0387275292	-0.505248
C	 0.0510065925	-0.0198520442	 0.0124080195	 0.194538
N	-1.16067984	-0.889791996	 0.1441692834	-0.345986
C	-0.5373789697	-1.655973152	 1.2626346027	-0.19276
C	 0.7977539343	-0.933533391	 1.0267270946	 0.053041
O	 1.5802485709	-1.5030652136	-0.0647019663	-0.280844
C	 1.0054840398	-0.6474402134	-0.9959277776	 0.451873
N	 1.2468363891	-0.4818125929	-2.2123828417	-0.555868
H	 0.8254532599	 1.9918999435	 0.0127279896	 0.137669
H	-0.7072499729	 1.7879597082	-0.8413542269	 0.151122
H	-0.6797715662	 1.7879668363	 0.9360016773	 0.116255
H	-1.9809504121	-0.3648466659	 0.4249937219	 0.222822
H	-0.9561951531	-1.4319562225	 2.251232636	 0.1054
H	-0.5258402323	-2.7398432446	 1.1139119532	 0.121233
H	 1.4314775351	-0.626526614	 1.8575011957	 0.098056
H	 1.9752185617	-1.117172056	-2.5434789606	 0.228699
127.8527	189.2178	195.0236	276.501	288.4137	373.6065	471.1573	627.9482	658.7755	675.3765	762.2346	833.5827	841.4042	865.71	878.3639	940.0406	983.4461	1001.4585	1017.6615	1063.5423	1137.5777	1147.8831	1156.8828	1212.6911	1239.7769	1265.5873	1320.6622	1345.9119	1404.5094	1419.0491	1485.1073	1488.4632	1493.8653	1829.453	3026.6019	3034.8564	3086.7395	3104.3406	3115.7952	3126.2468	3472.4175	3540.1915
CC12NCC1OC2=N	C[C@]12NC[C@H]1O[C]2[NH]	
InChI=1S/C5H8N2O/c1-5-3(2-7-5)8-4(5)6/h3,6-7H,2H2,1H3	InChI=1S/C5H8N2O/c1-5-3(2-7-5)8-4(5)6/h3,6-7H,2H2,1H3/t3-,5+/m1/s1
