17
gdb 72716	2.71633	2.12663	1.65685	0.9117	72.39	-0.221	0.0008	0.2218	858.6111	0.13571	-421.684706	-421.67795	-421.677006	-421.715108	29.218	
O	 0.1622352164	 1.3435876405	 0.1007070963	-0.4755
C	 0.155287288	-0.0626701248	-0.0014667219	 0.419403
C	 0.1591127097	-0.4645081579	-1.5148053328	-0.221546
O	-1.3382067698	-0.4584500818	-1.4640024803	-0.376786
C	-1.1899225372	-0.751667819	-0.0376531561	 0.313017
C	-1.4316670421	-0.2200889118	 1.4346187342	-0.304051
C	 0.1428358202	-0.6423918428	 1.4795821443	-0.170308
C	 0.0431230099	-2.1416094802	 1.2313939188	-0.072297
C	-0.8513548306	-2.2169700971	 0.2437010863	-0.16824
H	-0.3451841079	 1.6997213263	-0.6395963961	 0.287681
H	 0.5355153795	 0.2885350721	-2.2122741903	 0.11168
H	 0.5321145407	-1.4590976361	-1.7657793048	 0.126915
H	-1.5900692931	 0.8511698022	 1.5312894359	 0.126681
H	-2.1006407282	-0.8037436629	 2.0692732431	 0.103572
H	 0.799548217	-0.2536058285	 2.256780122	 0.082817
H	 0.5757277044	-2.9180451483	 1.7614942155	 0.108541
H	-1.2489700769	-3.0595804496	-0.3042009442	 0.108422
231.5862	305.3031	310.0154	410.5865	444.9658	470.3338	480.7184	515.0133	564.738	628.1173	694.0685	721.0727	762.4551	835.1816	864.5909	877.5974	901.5882	916.2458	933.1977	971.7642	1006.9312	1033.3971	1052.3591	1069.0638	1115.7364	1131.1117	1131.9182	1180.243	1186.7335	1211.4418	1246.4019	1278.9308	1308.4057	1351.8304	1473.925	1491.8316	1626.8334	3058.7897	3088.766	3129.8723	3131.3987	3184.1016	3220.9486	3247.6618	3772.0158
OC12COC11CC2C=C1	O[C@]12CO[C@@]31C[C@H]2C=C3	
InChI=1S/C7H8O2/c8-7-4-9-6(7)2-1-5(7)3-6/h1-2,5,8H,3-4H2	InChI=1S/C7H8O2/c8-7-4-9-6(7)2-1-5(7)3-6/h1-2,5,8H,3-4H2/t5-,6-,7+/m1/s1
