18
gdb 126261	1.97615	1.76824	1.00782	3.4249	75.39	-0.2164	0.0045	0.2209	1188.318	0.147671	-435.276959	-435.267696	-435.266752	-435.311543	33.025	
C	 0.0750203215	 1.6167905276	 0.183570373	-0.373404
C	-0.0172569175	 0.0872692246	 0.026714534	-0.306617
C	 0.6383772181	-0.4367689394	-1.2082909649	 0.227551
C	 0.1380038687	-0.7381298545	-2.4584278403	 0.291795
O	-1.1462436382	-0.6350921293	-2.8624034666	-0.434794
N	 1.1269280546	-1.1708338889	-3.2669671257	-0.287902
N	 2.2502529212	-1.1608732354	-2.5886387525	-0.166639
N	 1.9678725286	-0.7188107458	-1.3537522473	 0.005564
C	 3.0289732672	-0.6234512794	-0.3743059615	-0.337123
H	 1.1151100084	 1.9519963034	 0.2475247187	 0.118004
H	-0.3854034426	 2.1203037815	-0.6710094494	 0.135817
H	-0.4397748048	 1.9426137424	 1.0925952001	 0.118536
H	 0.4076827836	-0.3999554024	 0.9130334375	 0.108532
H	-1.0708607471	-0.2077670364	-0.0094969093	 0.133524
H	-1.1739408318	-0.9459345364	-3.7759732645	 0.305555
H	 3.1669867401	 0.4101421663	-0.0441773225	 0.145792
H	 2.8122589963	-1.2503109059	 0.4957501018	 0.145325
H	 3.9400589838	-0.9758681621	-0.8574286005	 0.170482
48.8943	102.2383	142.2917	177.2102	188.453	274.1362	290.9664	345.4381	362.3005	434.2296	518.4201	597.4896	683.7728	700.1426	750.677	765.7496	833.0486	970.1661	1026.0937	1045.8595	1081.4896	1151.0313	1155.1533	1180.4427	1258.7498	1289.1122	1301.5563	1335.8376	1373.2568	1407.1174	1420.8647	1448.8143	1479.8074	1483.5171	1495.9096	1499.9253	1504.516	1532.8178	1670.9299	3030.3538	3038.4159	3046.2176	3078.3664	3107.7111	3109.6965	3120.1336	3163.7202	3797.2129
CCC1=C(O)N=NN1C	CCc1c(O)nnn1C	
InChI=1S/C5H9N3O/c1-3-4-5(9)6-7-8(4)2/h9H,3H2,1-2H3	InChI=1S/C5H9N3O/c1-3-4-5(9)6-7-8(4)2/h9H,3H2,1-2H3
