17
gdb 30954	2.3878	1.40643	0.93477	4.4072	72.65	-0.2068	0.0299	0.2367	1243.9	0.135769	-455.200536	-455.191382	-455.190437	-455.234739	32.842	
C	 0.3873236929	 1.1975130915	 0.3931342495	-0.330144
N	-0.3472970302	 0.0940076343	-0.242816584	-0.383835
C	 0.3788327444	-0.6848532449	-1.1280633427	 0.225803
C	 0.7182064834	-1.9828470489	-1.0884464258	 0.27651
C	 0.4089873034	-3.0300937346	-0.0806734399	-0.504445
N	 1.4724841527	-2.2202473326	-2.2432606906	-0.428339
C	 1.5958702218	-1.0704418057	-2.9938197293	 0.474068
O	 2.1638811441	-0.8967266114	-4.0385360919	-0.407928
O	 0.9123996827	-0.1032366805	-2.2938714883	-0.241537
H	 1.2238034201	 0.7835277299	 0.9629390293	 0.131872
H	 0.7846280689	 1.9306596468	-0.3215664483	 0.12964
H	-0.2813339462	 1.7102353229	 1.0898283446	 0.122729
H	-1.2062747289	 0.4355540304	-0.6622197487	 0.238264
H	-0.1510290097	-3.8630939727	-0.5224274125	 0.134789
H	 1.3212447256	-3.446045219	 0.3634157354	 0.135191
H	-0.1951293969	-2.5910928387	 0.7150702985	 0.157222
H	 1.8733505018	-3.094170287	-2.5349873253	 0.27014
65.0845	127.6616	160.0647	176.6086	197.4464	251.0007	264.7212	329.6013	390.3378	479.4052	580.7431	617.2461	621.542	650.7791	760.2339	770.1042	831.922	949.5202	995.2091	1021.3733	1046.096	1070.7081	1147.569	1170.8166	1227.1842	1281.899	1314.2579	1408.6709	1438.0426	1456.5015	1472.6774	1482.4183	1489.5047	1494.2913	1519.8895	1781.8214	1892.2693	3012.2969	3025.198	3072.7259	3087.3117	3121.5641	3141.3386	3509.4938	3690.6427
CNC1=C(C)NC(=O)O1	CNc1c(C)[nH]c(=O)o1	
InChI=1S/C5H8N2O2/c1-3-4(6-2)9-5(8)7-3/h6H,1-2H3,(H,7,8)	InChI=1S/C5H8N2O2/c1-3-4(6-2)9-5(8)7-3/h6H,1-2H3,(H,7,8)
