19
gdb 127030	6.50747	0.7898	0.71373	1.9974	80.37	-0.2091	0.0331	0.2422	1617.3224	0.159064	-419.237527	-419.227874	-419.22693	-419.273626	33.92	
C	-0.0409754548	 1.4697804499	 0.0253619573	-0.392433
C	 0.0264009535	-0.0455704106	-0.0096545229	-0.03071
O	 0.6644305868	-0.478051144	 1.1957659563	-0.278656
C	 0.8143272921	-1.8055368913	 1.3428382148	 0.471678
N	 0.4053618853	-2.6874455441	 0.4413850557	-0.325607
N	 0.7527261956	-3.8835416136	 0.9911067078	-0.285987
C	 1.3607523617	-3.7692185531	 2.1984565346	 0.416731
C	 1.8263695128	-4.9532027363	 2.9812378695	-0.500459
C	 1.420854073	-2.4169840076	 2.4668411524	-0.448705
H	 0.9619614151	 1.9019478618	 0.0866475115	 0.126164
H	-0.5242988379	 1.8439982385	-0.8821068479	 0.116197
H	-0.6157090806	 1.8131994622	 0.8903208914	 0.126168
H	-0.9723467849	-0.4943957265	-0.0740025662	 0.111301
H	 0.598033681	-0.4061153753	-0.8735476292	 0.111323
H	 0.54268103	-4.7254117466	 0.4844341974	 0.264903
H	 2.575161162	-5.5353126216	 2.431705702	 0.135709
H	 2.2805459098	-4.6269889865	 3.9188321162	 0.143895
H	 0.9990980835	-5.6287790362	 3.2276273935	 0.135587
H	 1.8361634261	-1.935839959	 3.3362985857	 0.102899
23.207	58.4813	90.92	142.7254	208.6687	254.2648	302.9927	340.9755	346.9138	419.8269	471.3046	656.7846	661.6458	720.4697	776.2444	782.506	812.8517	913.276	985.6971	1009.7706	1045.6174	1061.0956	1073.9406	1129.4967	1179.2012	1184.7599	1204.9953	1289.127	1300.0788	1389.0153	1411.6483	1415.4174	1437.4569	1476.4723	1481.9568	1484.5834	1498.4662	1515.6693	1522.7953	1550.8292	1620.199	3024.9822	3029.9678	3044.4703	3059.3706	3079.6274	3118.9723	3121.584	3131.2917	3274.5541	3683.8403
CCOC1=NNC(C)=C1	CCOc1n[nH]c(C)c1	
InChI=1S/C6H10N2O/c1-3-9-6-4-5(2)7-8-6/h4H,3H2,1-2H3,(H,7,8)	InChI=1S/C6H10N2O/c1-3-9-6-4-5(2)7-8-6/h4H,3H2,1-2H3,(H,7,8)
