17
gdb 78331	2.96919	1.43354	1.21614	1.13	67.28	-0.2356	0.054	0.2897	1044.7942	0.134786	-458.880407	-458.872655	-458.871711	-458.912148	30.989	
O	-0.0680312133	 1.2946986051	-0.0596242431	-0.440599
C	-0.0322825176	-0.101663798	 0.0218387978	 0.082813
C	-0.5040755109	-0.7023227704	 1.322005276	-0.117731
C	-1.3973723664	-0.7071838176	 0.0591781919	-0.116392
C	-1.3794314438	-2.2490691196	 0.0326583704	 0.352851
O	-2.6684075807	-2.7641158497	-0.0126241564	-0.47297
C	-0.2155548373	-2.9790298766	-0.6832718591	-0.161443
O	 0.6363024638	-2.8176520492	 0.479222959	-0.299824
C	-0.4424274601	-2.2392069269	 1.2669124197	 0.01082
H	 0.7021611212	 1.6355701968	 0.4073518417	 0.288883
H	 0.7837140713	-0.5718820195	-0.5230008439	 0.105609
H	-0.5860226678	-0.0964249907	 2.2163305824	 0.090231
H	-2.2746162275	-0.1147025916	-0.165939242	 0.109534
H	-2.6239004784	-3.7155568832	 0.1347481136	 0.284007
H	-0.4316250957	-4.0402646256	-0.8765255144	 0.090386
H	 0.2100551747	-2.5289405981	-1.5867270464	 0.11139
H	-0.6392122617	-2.7825684452	 2.1942669426	 0.082435
188.2141	194.2261	247.3072	288.0156	298.0744	343.9629	371.8991	398.8574	469.232	532.947	651.398	725.2321	804.1485	839.1482	862.2805	901.362	906.1437	962.8053	975.769	1001.1557	1022.6648	1063.1068	1076.4104	1090.3429	1125.3399	1146.8443	1166.7075	1169.4946	1220.6011	1262.0164	1269.4647	1291.4255	1321.4221	1357.4337	1396.8337	1449.6065	1511.442	2992.1036	3065.2671	3084.3078	3121.6117	3184.0282	3207.0357	3799.187	3807.2349
OC1C2C1C1(O)COC21	O[C@H]1[C@H]2[C@@H]1[C@@]1(O)CO[C@@H]21	
InChI=1S/C6H8O3/c7-4-2-3(4)6(8)1-9-5(2)6/h2-5,7-8H,1H2	InChI=1S/C6H8O3/c7-4-2-3(4)6(8)1-9-5(2)6/h2-5,7-8H,1H2/t2-,3+,4+,5+,6+/m1/s1
