18
gdb 23524	3.33135	1.235	1.15144	1.1007	80.78	-0.2314	0.0024	0.2338	1139.3764	0.147465	-401.866719	-401.858681	-401.857737	-401.898968	31.761	
C	-0.1101195775	 1.6018359467	 0.0072918807	-0.432208
C	 0.0306975307	 0.0894112559	 0.0218238055	 0.042942
C	 1.1926912875	-0.6357157612	-0.7766070305	-0.182705
C	 2.4374046999	-0.0595449633	-0.084093411	-0.083486
C	 2.1212264713	-0.0768550011	 1.216643637	-0.087164
C	 0.7013362744	-0.6662543279	 1.2422513219	-0.170325
C	 0.9127921196	-1.7832017068	 0.2125331054	 0.500658
N	 0.7725901904	-3.0330734467	 0.2465009697	-0.318567
O	 1.0254147654	-3.6144728455	-1.0209394723	-0.401749
H	 0.8326148187	 2.0997398717	 0.2443930017	 0.123916
H	-0.4413908992	 1.9444680063	-0.9787676555	 0.118375
H	-0.8613015525	 1.9226983276	 0.7368693575	 0.117851
H	-0.9283531889	-0.3845041459	-0.2173528856	 0.088432
H	 1.1811876446	-0.7654780664	-1.8553301454	 0.085501
H	 3.354067557	 0.2385831914	-0.5717257169	 0.108128
H	 2.7094435655	 0.2041349722	 2.077980914	 0.108089
H	 0.195928842	-0.8228208425	 2.1925273224	 0.077742
H	 0.8861715111	-4.5495276445	-0.8375569487	 0.304571
107.913	172.911	225.8281	264.6382	283.3239	314.9175	391.3645	437.4968	532.8901	593.7422	675.6762	676.6357	735.2621	764.2204	797.3429	816.4773	891.4723	913.6302	916.9517	942.0227	992.4135	1041.3452	1049.4761	1087.3534	1111.4281	1124.5041	1142.421	1181.5896	1199.5895	1245.9849	1248.9704	1322.5332	1385.539	1401.2773	1407.3399	1493.1558	1500.1269	1612.4301	1806.323	3036.5421	3048.3159	3096.8048	3127.43	3149.5993	3162.5421	3226.6329	3252.4916	3820.6512
CC1C2C=CC1C2=NO	C[C@H]1[C@H]2C=C[C@@H]1C2=NO	
InChI=1S/C7H9NO/c1-4-5-2-3-6(4)7(5)8-9/h2-6,9H,1H3	InChI=1S/C7H9NO/c1-4-5-2-3-6(4)7(5)8-9/h2-6,9H,1H3/t4-,5+,6-
