21
gdb 63661	3.10701	1.00863	0.92807	0.791	79.69	-0.2301	0.0781	0.3081	1372.2576	0.179615	-424.181129	-424.171418	-424.170474	-424.216002	36.802	
C	 0.254548577	 1.5481336028	 0.4957420008	-0.451046
C	 0.0889074622	 0.0631401203	 0.2822160913	 0.353618
O	-1.2283213726	-0.3608183323	 0.0360766945	-0.461938
C	 1.2054450808	-0.7248288397	-0.3869657663	-0.389914
C	 0.8949421754	-0.9339143081	 1.0692591494	 0.103527
O	 1.869623492	-0.5250792943	 1.9833560567	-0.250662
C	 1.4717152206	-0.6444289798	 3.319807116	 0.143609
C	 2.1979650773	 0.2059603557	 4.3081846899	-0.293063
C	 0.7363374434	 0.477384039	 4.0033561491	-0.285581
H	 1.263512215	 1.7793670461	 0.8445484759	 0.129507
H	 0.0789157267	 2.1011707395	-0.4351089954	 0.104552
H	-0.4646937432	 1.9044107596	 1.2402132289	 0.125514
H	-1.4728541595	-0.0659894644	-0.8486788042	 0.2797
H	 0.9354184173	-1.5150511073	-1.0785802172	 0.112939
H	 2.1228777516	-0.1935244045	-0.6176381127	 0.120589
H	 0.3719037726	-1.8506241222	 1.3392489958	 0.096223
H	 1.2164178001	-1.664993265	 3.606173013	 0.088687
H	 2.4683756076	-0.2249995596	 5.2654483199	 0.114318
H	 2.9231826176	 0.9017998087	 3.9018807638	 0.124307
H	 0.5117844716	 1.3570899529	 3.4128526958	 0.121878
H	-0.0106343937	 0.2264763827	 4.748687805	 0.113238
44.4379	91.9906	124.9624	209.6506	234.6629	270.5365	310.6019	354.1079	381.6233	405.2846	445.0921	472.3311	547.7585	717.4201	746.5031	801.4269	819.6382	846.7608	903.6503	910.4802	963.8242	978.3953	995.4417	1032.4116	1053.7953	1066.0586	1071.7258	1095.3119	1117.3378	1130.8272	1182.112	1192.9007	1201.8704	1239.1651	1248.7657	1299.031	1345.4115	1387.5086	1410.3646	1419.3139	1453.9732	1477.1907	1485.8708	1498.6394	1512.8071	3026.3677	3088.5563	3097.6517	3113.7069	3128.4646	3132.9644	3139.2006	3143.2599	3223.5232	3226.6116	3238.1017	3784.4067
CC1(O)CC1OC1CC1	C[C@@]1(O)C[C@H]1OC1CC1	
InChI=1S/C7H12O2/c1-7(8)4-6(7)9-5-2-3-5/h5-6,8H,2-4H2,1H3	InChI=1S/C7H12O2/c1-7(8)4-6(7)9-5-2-3-5/h5-6,8H,2-4H2,1H3/t6-,7-/m1/s1
