20
gdb 74492	2.81975	1.341	1.00607	2.1745	84.28	-0.2221	0.0144	0.2366	1229.1866	0.171972	-403.131995	-403.123605	-403.122661	-403.164775	32.592	
C	 0.0377531507	 1.510513095	-0.0503990476	-0.476862
C	-0.018180788	 0.0124549939	 0.0309218286	 0.252771
C	-1.1539161268	-0.6895870993	 0.0608919869	-0.215394
C	-1.1634720309	-2.1698343456	 0.0773005648	 0.309645
C	-2.1608576294	-2.8884411701	 0.9209337294	-0.27621
N	-2.2826167542	-2.9070627395	-0.5441844767	-0.361976
C	 0.2030335292	-2.7616628955	-0.217495539	-0.159169
O	 1.2168275227	-2.0599002265	 0.479765347	-0.243386
C	 1.310216016	-0.7087927962	 0.0790022506	-0.156665
H	 0.6067948851	 1.8400185599	-0.9296619053	 0.127489
H	-0.963012728	 1.945456105	-0.1151035278	 0.124422
H	 0.5419750346	 1.9393112552	 0.825251177	 0.127632
H	-2.1184658616	-0.1826078722	 0.0607406846	 0.074435
H	-1.8958112573	-3.8415395423	 1.3719832738	 0.120274
H	-2.8631010006	-2.2930666169	 1.4994226468	 0.110565
H	-3.0046983038	-2.2561719015	-0.8461642439	 0.228743
H	 0.2625176614	-3.805186176	 0.1005686379	 0.111442
H	 0.3798456676	-2.7247999974	-1.3052129429	 0.093332
H	 1.8061065025	-0.6287219667	-0.9076115068	 0.095509
H	 1.9743593508	-0.2225682233	 0.8040364525	 0.113402
104.4557	144.744	190.8444	237.6003	272.8343	358.524	383.775	390.6328	449.6253	471.7432	525.5809	586.281	785.0947	847.2496	865.8078	913.048	924.7315	939.8283	965.0226	980.9384	998.607	1034.7803	1060.0712	1083.1787	1094.8561	1134.8331	1141.7224	1177.6599	1239.0835	1265.7203	1303.412	1322.8854	1358.4764	1372.4581	1402.9578	1416.5169	1424.2727	1478.2934	1483.1986	1489.7381	1495.5662	1509.8983	1735.971	2921.3868	2972.0448	3014.5858	3046.6263	3060.093	3098.974	3100.4651	3111.8185	3126.5772	3185.8193	3486.0062
CC1=CC2(CN2)COC1	CC1=C[C@]2(CN2)COC1	
InChI=1S/C7H11NO/c1-6-2-7(4-8-7)5-9-3-6/h2,8H,3-5H2,1H3	InChI=1S/C7H11NO/c1-6-2-7(4-8-7)5-9-3-6/h2,8H,3-5H2,1H3/t7-/m0/s1
