23
gdb 107633	2.09585	1.5813	1.23194	1.2299	84.78	-0.2362	0.0825	0.3187	1178.3193	0.206047	-388.288122	-388.278855	-388.277911	-388.321821	35.833	
C	 0.7690418641	-0.2487452512	 1.3643624164	-0.255191
O	 0.116032366	 0.0308528099	 0.1411248106	-0.298118
C	 0.7416537312	-0.4862917341	-0.9932151061	 0.461443
C	-0.1786298935	-1.035706996	-2.0411585532	-0.347089
C	 0.7742228043	-1.9677388667	-1.3116615198	-0.115593
C	 2.1042326282	-2.2735944362	-1.983616733	-0.219586
C	 2.6295479492	-0.8942575888	-2.4536533457	-0.237602
C	 2.0574606011	 0.1408935385	-1.4567490108	-0.028205
C	 1.9143445956	 1.5577378973	-2.0128973097	-0.404705
H	 0.9237764529	-1.3280197494	 1.5034805979	 0.105936
H	 1.7423883702	 0.2546058665	 1.4470403406	 0.109401
H	 0.1193681696	 0.1229989159	 2.1604832009	 0.125025
H	-1.2196033743	-1.0977496134	-1.7453300834	 0.117132
H	-0.0209016679	-0.8045040228	-3.0897615938	 0.105533
H	 0.3394580623	-2.6925586152	-0.6321087685	 0.083329
H	 2.7889270316	-2.7148585808	-1.2489566554	 0.095932
H	 2.0211186995	-2.9853303743	-2.8125539961	 0.095729
H	 3.7211835698	-0.8587298482	-2.5054791471	 0.095713
H	 2.2631558012	-0.6733188579	-3.4624142348	 0.101849
H	 2.7226884084	 0.1782407379	-0.5824908524	 0.066975
H	 1.2686242778	 1.5679746671	-2.8980137	 0.113189
H	 1.4670715994	 2.2223046779	-1.267208236	 0.122336
H	 2.8855163133	 1.9745520938	-2.3000616005	 0.106565
78.0311	133.0528	177.3618	200.8452	228.2611	244.5485	274.5645	371.0399	410.7833	443.3788	529.3541	562.4637	635.868	657.9458	817.4099	832.6285	858.7382	911.7376	931.5721	959.391	970.2227	991.9925	1028.6543	1049.9578	1069.1619	1082.7073	1106.2145	1137.9914	1142.2142	1178.6144	1185.2497	1217.4126	1227.371	1259.9617	1286.0724	1315.6249	1330.9623	1342.5266	1371.5239	1398.2695	1407.5305	1470.7849	1487.5025	1491.201	1492.2501	1496.1961	1501.522	1508.4096	1511.3813	2989.4475	3001.472	3027.1125	3029.2699	3042.3191	3043.6285	3065.1545	3090.9818	3096.5671	3104.7858	3114.3652	3130.7398	3169.9766	3219.8973
COC12CC1CCC2C	CO[C@]12C[C@H]1CC[C@H]2C	
InChI=1S/C8H14O/c1-6-3-4-7-5-8(6,7)9-2/h6-7H,3-5H2,1-2H3	InChI=1S/C8H14O/c1-6-3-4-7-5-8(6,7)9-2/h6-7H,3-5H2,1-2H3/t6-,7-,8+/m1/s1
