16
gdb 25621	3.46585	0.98371	0.77361	2.1321	87.	-0.216	-0.0185	0.1974	1449.9899	0.123507	-400.773089	-400.763993	-400.763049	-400.809348	31.18	
C	-0.1624547917	 1.4777881144	-0.0204378669	-0.511656
C	-0.0644970034	 0.0278321035	-0.0159939125	 0.225067
C	 0.0130881811	-1.1771705468	-0.0122895909	-0.093705
C	 0.1282999397	-2.5741814552	-0.0082166394	 0.131654
C	 1.1914067618	-3.4359440661	-0.0103709971	 0.142389
C	 2.6471733823	-3.1239508514	-0.0178961615	-0.503063
N	 0.7108605792	-4.7392693392	-0.0039850333	-0.29378
C	-0.5761533062	-4.6100982905	 0.0016304318	 0.051076
O	-1.0234340801	-3.3413384147	-0.0003172414	-0.179662
H	 0.8328211931	 1.9353064918	-0.0224964483	 0.156184
H	-0.6963275745	 1.8391677716	-0.9065386708	 0.155628
H	-0.6951127104	 1.8445562848	 0.8641736517	 0.15566
H	 3.1399882757	-3.5452436733	 0.8647977565	 0.141247
H	 3.133539053	-3.5588180571	-0.8975167338	 0.141288
H	 2.8101210399	-2.0439410522	-0.0266015184	 0.13377
H	-1.3244845996	-5.3875975796	 0.0075759744	 0.147904
10.669	84.9143	106.2573	124.716	244.3516	260.6598	294.784	360.8775	472.6506	482.2044	545.8021	657.3274	685.6092	720.8662	844.7681	955.6148	974.4041	1000.6568	1049.4466	1050.6501	1065.3412	1086.8875	1164.5809	1260.515	1308.3625	1376.7863	1411.3571	1422.7986	1471.6696	1476.3148	1477.4182	1485.4389	1545.8443	1641.6916	2352.6617	3026.4172	3038.4337	3085.9339	3092.5369	3093.1498	3130.6255	3271.2554
CC#CC1=C(C)N=CO1	CC#Cc1c(C)nco1	
InChI=1S/C7H7NO/c1-3-4-7-6(2)8-5-9-7/h5H,1-2H3	InChI=1S/C7H7NO/c1-3-4-7-6(2)8-5-9-7/h5H,1-2H3
