19
gdb 92135	2.91321	1.78486	1.59157	2.0454	73.04	-0.2313	0.0828	0.3141	935.8938	0.162016	-423.031751	-423.024806	-423.023862	-423.063016	28.613	
C	 0.3033945958	 1.5121131827	-0.0511077804	-0.386862
C	-0.0498067172	 0.0304824274	 0.0403203056	 0.120347
O	 0.3664312463	-0.6020037968	-1.1866879084	-0.282039
C	 1.1977156553	-1.720684536	-0.9991242156	 0.168793
C	 0.4996254918	-2.7755037215	-0.1184733983	-0.254234
C	 0.7231269205	-2.1597001621	 1.2518233262	-0.136849
C	 1.9334879315	-1.2779282894	 1.0673877921	 0.097233
O	 2.3662434186	-1.3575290131	-0.2755190743	-0.251722
C	 0.5821040496	-0.6433101353	 1.2521885834	-0.108312
H	 1.388658322	 1.6412369792	-0.088663789	 0.130748
H	-0.128441249	 1.9437927945	-0.9581488315	 0.123238
H	-0.0894170302	 2.058484431	 0.8131475864	 0.10602
H	-1.1439863468	-0.0720498751	 0.105214059	 0.078572
H	 1.4995221038	-2.0517482165	-1.9927945055	 0.092464
H	-0.5483860592	-2.886513189	-0.4065320435	 0.112533
H	 0.9974326812	-3.7472004265	-0.1971085197	 0.108526
H	 0.5500130432	-2.7289506097	 2.1563936482	 0.089771
H	 2.7486751082	-1.173443143	 1.7713513588	 0.102055
H	 0.3729653246	-0.163879641	 2.2033423165	 0.08972
83.7961	238.1473	275.3487	351.4778	434.2268	467.618	515.3724	561.1994	689.6701	713.9323	756.7449	789.3455	826.9387	843.254	887.3896	929.0257	952.1844	978.5705	987.9808	1007.7671	1039.6992	1064.357	1086.6751	1102.822	1117.2002	1135.6573	1145.5307	1166.8554	1195.3324	1265.5145	1302.1853	1324.5463	1348.6469	1363.1704	1381.6199	1394.5345	1404.0106	1428.1053	1485.1221	1489.1277	1496.7501	2975.3228	3037.6846	3055.6778	3110.8519	3111.0847	3124.7151	3125.2522	3158.0532	3187.7987	3203.1018
CC1OC2CC3C(O2)C13	C[C@H]1O[C@@H]2C[C@H]3[C@@H](O2)[C@@H]13	
InChI=1S/C7H10O2/c1-3-6-4-2-5(8-3)9-7(4)6/h3-7H,2H2,1H3	InChI=1S/C7H10O2/c1-3-6-4-2-5(8-3)9-7(4)6/h3-7H,2H2,1H3/t3-,4-,5+,6+,7-/m1/s1
