20
gdb 102628	2.15794	1.27563	0.96788	10.1232	76.11	-0.1877	0.0142	0.2019	1284.7794	0.167609	-477.366379	-477.356404	-477.355459	-477.401854	35.804	
C	-0.1291418471	 1.3187863936	-0.0964144352	-0.252246
O	 0.3319679778	-0.0168249699	-0.0307833317	-0.27208
C	 0.6910501266	-0.6181346862	-1.2906556886	 0.117976
C	 1.1315066493	-2.0342544784	-0.9354413493	-0.375601
N	 2.0080482422	-1.9038323046	 0.303612063	-0.414382
H	 2.0551197381	-2.7833953194	 0.8122003226	 0.309681
H	 2.9691895516	-1.5564050576	 0.1713118651	 0.275567
H	 1.5032384822	-1.2015232056	 0.8659918064	 0.314646
C	-0.5028623595	-0.716610453	-2.2501477545	-0.362301
C	-1.7309556233	-1.4054340696	-1.6152643154	 0.401947
O	-1.4623580146	-2.4944294548	-0.9233845048	-0.396669
O	-2.8442209601	-0.9562520288	-1.7789313629	-0.373846
H	 0.5691703061	 1.9571558556	-0.6582935309	 0.104494
H	-1.121217387	 1.3784424757	-0.5582600175	 0.151601
H	-0.1970971249	 1.6854818413	 0.9308427884	 0.124914
H	 1.4697650278	 0.0341822545	-1.7412704207	 0.038203
H	-0.3955658179	-2.5513106225	-0.8152050534	 0.298636
H	 1.7539802377	-2.4569812447	-1.7287943943	 0.076405
H	-0.8163435454	 0.26030782	-2.6225207261	 0.112761
H	-0.1854137396	-1.3063296357	-3.1196882401	 0.120295
52.4012	83.1744	114.0845	147.8326	223.6503	237.246	254.4036	295.7017	312.2949	392.6043	435.4984	543.746	569.2714	581.9943	735.9452	787.2771	794.0214	886.6112	908.73	929.9478	992.1154	1024.6556	1092.5597	1115.612	1122.9189	1186.6269	1193.5045	1218.1786	1230.6629	1254.9965	1293.7092	1337.3416	1369.7574	1387.6423	1419.9215	1463.6289	1478.8009	1497.414	1515.2528	1622.2189	1640.7625	1656.5586	1765.6494	1999.3249	2850.2949	2991.5069	3040.3831	3070.6188	3082.6704	3112.9881	3117.8483	3270.6208	3335.6586	3532.8018
COC(C[NH3+])CC([O-])=O	CO[C@@H]([CH][NH3])CC(=O)O	
InChI=1S/C5H11NO3/c1-9-4(3-6)2-5(7)8/h4H,2-3,6H2,1H3,(H,7,8)	InChI=1S/C5H11NO3/c1-9-4(3-6)2-5(7)8/h3-4H,2H2,1,6H3,(H,7,8)/t4-/m1/s1
