16
gdb 132547	3.14218	1.3182	0.93459	4.8876	75.41	-0.2289	-0.0058	0.2231	1178.5318	0.125329	-442.110132	-442.102237	-442.101292	-442.142217	30.672	
C	-0.0593770774	 1.5120088676	-0.0022447672	-0.524372
C	-0.0186440975	 0.0079716015	 0.0091361253	 0.224735
C	-0.0024677189	-0.7296106334	-1.1649260536	-0.066136
N	 0.0238784417	-2.0680689112	-1.2435948045	-0.34754
C	 0.0343122955	-2.7012412234	-0.0942025407	 0.347087
F	 0.0617420575	-4.0332214885	-0.1558518932	-0.080069
C	 0.0239121266	-2.1130954788	 1.1612353409	-0.363828
C	-0.0045286877	-0.7172370266	 1.2241956273	 0.292291
N	-0.0707186588	-0.0619712222	 2.4370534407	-0.588563
H	 0.8258779923	 1.9544829471	 0.475654131	 0.122407
H	-0.0937495698	 1.8904753585	-1.026808517	 0.1345
H	-0.9391160501	 1.8994979259	 0.5264842681	 0.135034
H	-0.0118663526	-0.2036147564	-2.1176448606	 0.104326
H	 0.0355514555	-2.7264364214	 2.0545306113	 0.098134
H	 0.1994967649	-0.5921477968	 3.2506951104	 0.255786
H	 0.2473202087	 0.8936443682	 2.4578196317	 0.256207
140.1935	191.4787	220.1616	295.4519	329.2333	342.0633	401.5323	453.8683	473.4742	504.2927	542.5844	570.6901	692.7458	751.5431	760.4397	787.0802	853.3261	953.4422	986.6253	1027.6472	1065.5889	1091.419	1198.0678	1233.0329	1330.2244	1336.4928	1356.8169	1414.8161	1454.3848	1484.5776	1504.3877	1532.1544	1620.355	1643.9818	1666.1919	3006.68	3056.146	3115.0562	3145.0195	3197.2264	3588.4364	3693.9416
CC1=CN=C(F)C=C1N	Cc1cnc(F)cc1N	
InChI=1S/C6H7FN2/c1-4-3-9-6(7)2-5(4)8/h2-3H,1H3,(H2,8,9)	InChI=1S/C6H7FN2/c1-4-3-9-6(7)2-5(4)8/h2-3H,1H3,(H2,8,9)
