17
gdb 46878	2.99298	1.58695	1.22894	4.733	78.21	-0.2353	-0.0329	0.2023	1024.4962	0.13882	-417.987269	-417.979991	-417.979047	-418.019193	28.602	
N	-0.016034469	 1.0355953806	-1.1091276311	-0.50942
C	-0.0082077211	 0.1496937604	-0.1945104152	 0.359752
O	 1.1229765385	-0.0688495674	 0.5381253357	-0.240708
C	 1.3480935809	-1.312539085	 1.1848993651	-0.117306
C	 0.5574618273	-1.5044726466	 2.467225377	-0.03904
N	-0.1440547119	-0.342269929	 2.9943408332	-0.31438
C	-0.9346638823	-1.464455161	 2.4247846008	-0.082234
C	-1.6593247633	-1.2529936035	 1.1540392345	-0.04366
C	-1.2518071466	-0.5991798459	 0.0580865073	-0.118415
H	 0.904420379	 1.4765815622	-1.1659264937	 0.218968
H	 1.145036486	-2.1461655049	 0.4990900871	 0.116691
H	 2.4187292595	-1.3163479625	 1.4090880413	 0.123723
H	 1.0145651212	-2.2057782599	 3.1639800219	 0.092004
H	-0.1820299485	-0.3766470463	 4.0096120127	 0.239332
H	-1.4543888664	-2.1009753499	 3.1358312102	 0.08894
H	-2.6497549464	-1.6997862612	 1.1165679878	 0.103128
H	-1.9407889469	-0.50771598	-0.7742873647	 0.122625
64.7069	213.4704	250.2283	290.4316	339.5122	433.5461	477.1529	527.5158	667.0444	681.9861	743.9209	769.4945	818.2248	831.9621	848.9439	902.8493	907.3388	958.4575	969.4663	1012.7264	1049.6072	1062.8487	1102.7049	1151.6954	1182.7159	1214.8823	1229.5334	1263.7654	1308.6286	1342.763	1403.2403	1422.9235	1435.8918	1469.8784	1494.7507	1679.0009	1719.836	3018.5378	3085.9506	3117.1086	3138.4782	3159.9748	3198.5619	3465.5518	3507.2861
N=C1OCC2NC2C=C1	[NH][C]1OC[C@H]2N[C@H]2C=C1	
InChI=1S/C6H8N2O/c7-6-2-1-4-5(8-4)3-9-6/h1-2,4-5,7-8H,3H2	InChI=1S/C6H8N2O/c7-6-2-1-4-5(8-4)3-9-6/h1-2,4-5,7-8H,3H2/t4-,5+/m0/s1
