23
gdb 122228	2.58339	0.82811	0.70535	1.5065	82.99	-0.2498	0.0744	0.3242	1705.3019	0.203866	-425.397022	-425.386273	-425.385329	-425.433832	38.534	
O	-0.0571448383	 1.4475565633	-0.6430661083	-0.416685
C	 0.0004315457	 0.1261855868	-0.1259388117	-0.127713
C	-1.3743314588	-0.4866271576	 0.0726765478	 0.334951
C	-2.3126255824	 0.2730699595	 0.9974189172	-0.281806
C	-1.8819973946	 0.2570056372	 2.4615005675	-0.0523
O	-2.8784525705	 0.9103595439	 3.21865284	-0.22835
C	-2.5656633579	 0.9843748277	 4.5871812323	-0.227534
C	-1.9762518126	-1.1725791304	-1.1371414594	-0.326026
C	-1.4698625038	-1.9923034815	 0.0239448765	-0.30857
H	-0.5707366274	 1.4121903631	-1.4574409439	 0.281711
H	 0.6008597531	-0.5317906777	-0.7750859087	 0.079757
H	 0.5357221073	 0.2115581709	 0.8260015742	 0.111453
H	-2.3868091873	 1.3143541503	 0.6666154092	 0.114444
H	-3.3190094091	-0.156199288	 0.9387539295	 0.099454
H	-1.7507949248	-0.7813179084	 2.8132042879	 0.082006
H	-0.9126246403	 0.7664488399	 2.5923648808	 0.089563
H	-3.3896643387	 1.5013213125	 5.0855264094	 0.124847
H	-2.4504658227	-0.0152499651	 5.0371647719	 0.099859
H	-1.6347016927	 1.5464483425	 4.7655882534	 0.102832
H	-3.0482412084	-1.1015677887	-1.2858494107	 0.115152
H	-1.4006514709	-1.1934652221	-2.0578939218	 0.106688
H	-0.5590824032	-2.5658149864	-0.1148684068	 0.111295
H	-2.2019407619	-2.4731110816	 0.6641326937	 0.114971
44.4091	66.7536	102.3919	128.6626	143.9896	221.142	231.5551	284.4552	316.7938	326.0383	358.5789	423.6124	474.2974	545.272	747.5581	786.7453	802.2185	890.6641	930.8602	943.3685	963.0519	991.4475	1019.939	1047.0232	1067.6285	1078.2375	1083.9641	1099.1259	1163.5485	1181.7618	1186.7592	1207.355	1224.9617	1238.8171	1296.3978	1311.2028	1343.9216	1349.0566	1396.6191	1425.4353	1428.337	1466.0467	1481.0806	1484.1244	1484.6995	1499.9575	1504.529	1510.5606	1532.2698	2946.1925	2966.3759	2971.0244	2977.8525	3006.4829	3042.4977	3066.5117	3088.8148	3110.3828	3122.3356	3128.766	3202.0491	3216.2678	3804.257
OCC1(CCOC)CC1	OCC1(CCOC)CC1	
InChI=1S/C7H14O2/c1-9-5-4-7(6-8)2-3-7/h8H,2-6H2,1H3	InChI=1S/C7H14O2/c1-9-5-4-7(6-8)2-3-7/h8H,2-6H2,1H3
