21
gdb 84686	2.17796	1.785	1.37847	2.0194	82.26	-0.2394	0.0112	0.2507	1064.0387	0.182993	-387.088498	-387.080012	-387.079068	-387.121173	33.291	
C	-0.6911788905	 1.3302765216	 0.0014995678	-0.408178
C	 0.0008545927	-0.0376544932	-0.082439737	-0.089185
C	 1.0417202933	-0.1436730802	-1.1794521909	-0.069466
C	 2.1806277471	-0.7115846644	-0.7820810511	-0.107914
C	 2.1387221709	-1.0710076616	 0.6776276016	 0.053596
O	 2.9014992971	-0.1728226841	 1.5242598147	-0.297142
C	 1.7074439161	 0.5626801717	 1.8643711031	-0.124465
C	 0.7872987475	-0.4865793296	 1.1786537584	 0.277869
C	-0.0215807506	-1.3343104009	 2.148449536	-0.484329
H	 0.0280563575	 2.1457117667	 0.1225120127	 0.122508
H	-1.2626671783	 1.5283400717	-0.9112428636	 0.115618
H	-1.3914275305	 1.3669073893	 0.8428915415	 0.115896
H	-0.7898513941	-0.7803957096	-0.2721089206	 0.078059
H	 0.8403244165	 0.2070859133	-2.1876910427	 0.095076
H	 3.0498141925	-0.8908299991	-1.4049715709	 0.099684
H	 2.3899294922	-2.1163168606	 0.8953091416	 0.071717
H	 1.5881983152	 0.6610699076	 2.949962269	 0.097521
H	 1.7045782455	 1.5625746776	 1.4148078536	 0.096859
H	-0.8654884628	-0.7676499779	 2.5599450042	 0.116152
H	-0.4287742933	-2.2216915994	 1.6509272482	 0.116852
H	 0.5934669658	-1.6720697491	 2.9890619744	 0.123273
85.713	197.6181	210.8401	237.3237	259.6848	287.8047	306.2811	359.4952	479.2433	535.9986	586.2046	649.5374	754.4187	777.2182	855.7034	875.2935	912.4867	933.0286	952.0881	976.893	985.2897	1014.6173	1027.5435	1042.2711	1069.8381	1108.1995	1133.9507	1161.2835	1183.6112	1199.9406	1249.8556	1272.5079	1304.0795	1337.2787	1342.3048	1374.1455	1376.3321	1408.2057	1413.9896	1492.978	1494.775	1496.5929	1502.5561	1520.865	1676.4125	2974.0537	3017.2596	3021.8232	3032.2297	3034.2065	3061.8583	3085.4581	3096.6725	3097.7235	3108.4904	3169.2062	3203.1921
CC1C=CC2OCC12C	C[C@H]1C=C[C@H]2OC[C@@]12C	
InChI=1S/C8H12O/c1-6-3-4-7-8(6,2)5-9-7/h3-4,6-7H,5H2,1-2H3	InChI=1S/C8H12O/c1-6-3-4-7-8(6,2)5-9-7/h3-4,6-7H,5H2,1-2H3/t6-,7+,8-/m0/s1
