16
gdb 42958	2.55629	1.99768	1.37935	4.8468	67.65	-0.228	-0.0393	0.1887	927.2869	0.126342	-437.849374	-437.842573	-437.841629	-437.880741	26.61	
O	-0.0168743841	 0.0435230847	 0.1995497685	-0.311158
C	-0.0452487769	 1.2372948361	 0.0510916754	 0.439933
C	-1.2798290593	 2.0845806317	-0.1238970351	-0.170666
N	-1.3297192933	 3.213808358	 0.8464940738	-0.316056
C	-0.853243179	 3.46270048	-0.5168016041	-0.061945
C	 0.6728480977	 3.5322927169	-0.6016700328	-0.09416
C	 1.4174100167	 4.054562934	 0.6477362197	-0.072099
O	 1.7324351327	 2.7065015774	 1.0739266434	-0.285468
C	 1.1880097096	 2.1511307477	-0.1405557766	 0.01042
H	-2.2019380259	 1.6151210383	-0.4462184099	 0.110387
H	-2.2998097193	 3.5083691242	 0.9336504251	 0.244833
H	-1.4589299028	 4.0606987333	-1.1894307123	 0.099168
H	 1.0113966246	 3.9013995965	-1.5697437911	 0.087083
H	 2.3288222191	 4.6234330477	 0.4294862265	 0.100728
H	 0.8056172265	 4.5816143399	 1.384069879	 0.12224
H	 1.9485442337	 1.6342893037	-0.7372172394	 0.09676
97.3731	194.1856	235.9343	291.9638	438.1954	499.177	557.5407	617.4446	700.4394	783.5245	830.0499	859.006	873.2937	877.1566	902.8291	920.3217	982.3745	1023.1521	1045.4077	1049.9363	1070.7133	1120.371	1150.5036	1169.9633	1194.7094	1224.9274	1242.4152	1249.1661	1304.3107	1333.0029	1352.4254	1366.8563	1403.7497	1505.7557	1846.337	3029.8777	3044.2445	3101.4521	3113.8725	3167.4194	3188.7021	3497.7134
O=C1C2NC2C2COC12	O=C1[C@H]2N[C@H]2[C@H]2CO[C@@H]12	
InChI=1S/C6H7NO2/c8-5-4-3(7-4)2-1-9-6(2)5/h2-4,6-7H,1H2	InChI=1S/C6H7NO2/c8-5-4-3(7-4)2-1-9-6(2)5/h2-4,6-7H,1H2/t2-,3+,4+,6-/m1/s1
