14
gdb 25140	3.62035	1.20723	0.90534	3.9501	82.79	-0.2215	-0.06	0.1615	1191.8306	0.10231	-399.58997	-399.582571	-399.581627	-399.621861	28.566	
O	-0.0587324941	-0.0847643957	 0.0039347363	-0.399123
C	 0.0020027434	 1.1331358305	 0.0092086923	 0.44778
N	-1.1826291509	 1.9007672751	 0.0293019317	-0.362766
C	-1.2387436185	 3.2596727428	 0.0369145814	 0.047703
C	-0.1029005084	 4.0025997653	 0.0250393769	-0.251835
C	 1.1590558381	 3.3173941554	 0.0042462707	 0.19219
C	 1.201732613	 1.9458535271	-0.0032323938	-0.358928
C	 2.3609443147	 4.0838690496	-0.0084362765	 0.223371
C	 3.3644964133	 4.7485760742	-0.0189435782	-0.388027
H	-2.0311545379	 1.3518322901	 0.0382410818	 0.264393
H	-2.2296243107	 3.6973394108	 0.0527263498	 0.139592
H	-0.1440924348	 5.0818053317	 0.0310282711	 0.117388
H	 2.1431055083	 1.4125331824	-0.0188578032	 0.125254
H	 4.2562651745	 5.3256448805	-0.0284442203	 0.203009
132.311	145.3836	173.4032	352.8647	428.9597	444.2933	444.8494	549.8696	566.7261	621.8394	644.2597	652.1744	715.3529	738.4152	756.8758	784.1237	900.6849	905.3207	935.345	1005.7256	1121.6562	1161.9856	1211.001	1245.3514	1327.7389	1425.5329	1501.22	1556.7181	1662.2032	1781.8026	2229.079	3206.9833	3225.571	3244.9556	3500.0757	3608.3318
O=C1NC=CC(=C1)C#C	O=c1[nH]ccc(c1)C#C	
InChI=1S/C7H5NO/c1-2-6-3-4-8-7(9)5-6/h1,3-5H,(H,8,9)	InChI=1S/C7H5NO/c1-2-6-3-4-8-7(9)5-6/h1,3-5H,(H,8,9)
