16
gdb 125015	2.34	1.86369	1.04539	5.5392	78.21	-0.1982	-0.0285	0.1696	1087.2401	0.12629	-434.106016	-434.097821	-434.096877	-434.138614	31.022	
C	 0.0659718386	 1.5450089339	 0.0230514435	-0.51287
C	-0.0139542905	 0.0471751675	 0.0039240056	 0.323916
C	-1.1871543266	-0.6592652842	 0.0501196913	 0.109907
N	-2.4431082169	-0.0953599393	 0.1612244101	-0.589638
C	-1.1490555882	-2.1198463344	 0.0425698608	 0.323916
O	-2.1852118551	-2.7913615574	 0.0812348359	-0.426848
C	 0.1915675402	-2.6682402472	-0.0276903328	-0.098326
N	 1.297714092	-1.9706332424	-0.0817032345	-0.197063
N	 1.1657016781	-0.6493006329	-0.0645048076	-0.281341
H	 1.06585116	 1.8915619116	 0.3017914489	 0.130887
H	-0.175170427	 1.9820637679	-0.9540390371	 0.145451
H	-0.6446640748	 1.9487542099	 0.7509273713	 0.158268
H	-2.6191463638	 0.7549081174	-0.3515561855	 0.246386
H	-3.1517408156	-0.8108929287	 0.0304946736	 0.265633
H	 0.3078392036	-3.7465736212	-0.0513353247	 0.1297
H	 2.038671426	-0.1470576907	-0.1038926088	 0.272024
99.5011	135.7099	200.0066	269.437	304.2306	327.6649	377.7078	483.8596	508.9638	514.4126	546.365	586.8687	636.8338	679.4994	694.0212	791.4987	875.7746	929.4499	974.366	1017.76	1053.1467	1148.1189	1229.0254	1256.9011	1321.2149	1356.3528	1402.03	1430.8154	1475.4143	1496.6815	1530.8706	1585.4247	1611.0673	1667.6811	1704.1132	3024.3606	3084.0203	3111.859	3194.2279	3512.2985	3634.0392	3651.2403
CC1=C(N)C(=O)C=NN1	Cc1c(N)c(=O)cn[nH]1	
InChI=1S/C5H7N3O/c1-3-5(6)4(9)2-7-8-3/h2H,1H3,(H2,6,7)(H,8,9)	InChI=1S/C5H7N3O/c1-3-5(6)4(9)2-7-8-3/h2H,1H3,(H2,6,7)(H,8,9)
