21
gdb 75504	2.72575	1.46457	1.03981	1.1787	84.75	-0.2271	0.0277	0.2549	1202.9652	0.183607	-387.080908	-387.072637	-387.071693	-387.113402	32.937	
C	 0.2144625072	 1.5485272496	 0.0600176539	-0.474091
C	-0.0092422906	 0.0600820416	-0.015138979	 0.303202
C	-0.0112941928	-0.5783339188	-1.1885509619	-0.129148
C	-0.1719801526	-2.049745696	-1.4773314723	-0.135759
O	-0.2205927951	-2.9168989225	-0.3544534711	-0.246339
C	-1.3791449262	-2.7434808285	 0.402876428	 0.124726
C	-1.2617837069	-2.9892260157	 1.8755160887	-0.338723
C	-1.407615162	-1.5738846915	 1.3459718024	-0.033977
C	-0.2025449999	-0.6462947842	 1.3209272489	-0.322441
H	 1.0928452574	 1.7833700248	 0.6757779899	 0.123152
H	 0.3656562315	 1.9922857328	-0.9275569107	 0.116612
H	-0.6374393039	 2.0520361765	 0.5360990918	 0.120223
H	 0.1320101711	 0.0103339749	-2.0952613781	 0.074896
H	-1.0682288467	-2.2004071525	-2.1071077311	 0.094114
H	 0.6818818256	-2.3938850883	-2.0752099837	 0.114583
H	-2.2972783003	-3.0381238717	-0.1082331191	 0.077916
H	-2.0989300309	-3.4518552775	 2.3862841855	 0.110835
H	-0.284979797	-3.2840204659	 2.2436839812	 0.122274
H	-2.3668073151	-1.0851972776	 1.4927585649	 0.083264
H	 0.7016555997	-1.2187709861	 1.5556877304	 0.119777
H	-0.3012172823	 0.0992460265	 2.1178357014	 0.094904
96.0913	192.2982	225.9654	257.6696	293.1604	303.539	351.4806	397.8644	458.1494	489.9552	620.7706	722.5533	778.7683	794.9485	814.4728	840.61	875.5639	907.4934	936.4803	1000.9707	1025.1979	1049.1247	1055.9164	1070.3912	1075.439	1122.2758	1125.9346	1129.6239	1171.3396	1181.2039	1233.8375	1263.3395	1302.698	1330.3649	1368.114	1375.7475	1400.7499	1411.6457	1423.6061	1473.9327	1479.2055	1483.2907	1491.5515	1493.0953	1745.869	2934.8915	3009.9091	3035.4111	3035.6482	3054.5397	3068.1276	3082.1257	3108.8238	3120.8986	3134.2106	3144.148	3223.0924
CC1=CCOC2CC2C1	CC1=CCO[C@H]2C[C@H]2C1	
InChI=1S/C8H12O/c1-6-2-3-9-8-5-7(8)4-6/h2,7-8H,3-5H2,1H3	InChI=1S/C8H12O/c1-6-2-3-9-8-5-7(8)4-6/h2,7-8H,3-5H2,1H3/t7-,8+/m1/s1
