23
gdb 82513	3.05758	1.32956	1.24043	0.2186	88.46	-0.2311	0.078	0.3091	1168.5244	0.207436	-351.137734	-351.129245	-351.1283	-351.170142	34.669	
C	-0.2970100352	 1.5497054893	-0.1242103515	-0.426086
C	 0.0089551103	 0.0710812216	 0.037827722	-0.002626
C	 1.3082990798	-0.610805112	-0.3292193189	-0.06742
C	 2.6313600327	 0.1678493352	-0.3414687039	-0.316325
C	 3.0309379366	 0.4494153919	 1.123695574	 0.367648
C	 4.4767012998	 0.2201188775	 1.502250864	-0.477439
C	 2.2259935831	 1.463714586	 1.9007590713	-0.350349
C	 1.8708918228	-0.0057063719	 1.9908076814	-0.073934
C	 0.8171568957	-0.6429462239	 1.110520329	-0.063403
H	 0.5878534633	 2.1544669148	-0.333453238	 0.125134
H	-0.9757622453	 1.6857391931	-0.9730612359	 0.110378
H	-0.7906088521	 1.9687407158	 0.7591133593	 0.121808
H	-0.8510480217	-0.5348011308	-0.2434526858	 0.080904
H	 1.2549667863	-1.4882454055	-0.9660434266	 0.076144
H	 3.4020728512	-0.4567379728	-0.805216996	 0.098656
H	 2.5825974559	 1.0855918772	-0.9407005582	 0.099705
H	 5.1428122609	 0.9226751358	 0.9861778621	 0.113848
H	 4.6297971462	 0.3553352341	 2.5779769572	 0.110968
H	 4.8022854152	-0.7945083208	 1.2423897189	 0.111009
H	 2.7132604174	 1.8918020004	 2.7725292665	 0.1002
H	 1.5682257307	 2.1567097354	 1.3982006709	 0.109959
H	 2.0561188556	-0.5003088886	 2.9390439503	 0.07523
H	 0.3635021608	-1.5419225717	 1.5151295681	 0.075992
132.9103	148.5878	218.8633	228.1043	278.8981	312.814	370.8573	394.9949	464.1458	559.8387	619.2982	683.8592	687.0645	739.3037	768.9726	830.3351	850.0595	896.8406	918.3546	947.111	958.4944	987.0637	1014.8151	1025.7474	1050.568	1070.1318	1078.5283	1092.3316	1106.1013	1124.3263	1141.7172	1146.2141	1203.6068	1256.6086	1258.2811	1288.9713	1319.9397	1350.8799	1376.4941	1395.161	1417.3069	1424.1321	1440.9979	1482.9475	1487.714	1495.6557	1501.5663	1509.9116	1519.6832	3014.9784	3030.3713	3035.2703	3068.4904	3071.9364	3087.1733	3092.8489	3104.8245	3123.2215	3133.8669	3144.0102	3151.0474	3164.015	3254.5567
CC1C2CC3(C)CC3C12	C[C@H]1[C@H]2C[C@@]3(C)C[C@H]3[C@@H]12	
InChI=1S/C9H14/c1-5-6-3-9(2)4-7(9)8(5)6/h5-8H,3-4H2,1-2H3	InChI=1S/C9H14/c1-5-6-3-9(2)4-7(9)8(5)6/h5-8H,3-4H2,1-2H3/t5-,6+,7-,8-,9-/m0/s1
