15
gdb 130295	3.33365	1.51129	1.05505	2.5518	67.91	-0.2369	0.0008	0.2377	1063.7042	0.114859	-453.921002	-453.913657	-453.912712	-453.953001	27.527	
N	-0.0182479325	 1.4046406282	-0.1521311772	-0.589885
C	 0.0464258157	 0.0276952627	-0.0401500496	 0.243715
N	-1.0595650433	-0.7005280406	-0.0476899051	-0.230204
O	-0.6357035774	-2.0568274071	-0.0181515097	-0.23405
C	 0.6897864133	-2.042817875	 0.0273956372	 0.353372
C	 1.2050456414	-0.7997405843	 0.0184654556	 0.100363
C	 2.696010337	-0.8925842446	 0.0358069946	-0.19331
O	 2.9496948743	-2.315527766	 0.0953753123	-0.28182
C	 1.7461894761	-3.0943296958	 0.0558909879	-0.177933
H	 0.6715317317	 1.9011395349	 0.3931582083	 0.256678
H	-0.9503367994	 1.7673269182	-0.0002040706	 0.263397
H	 3.1720003482	-0.4798227152	-0.8647754587	 0.119777
H	 3.1657769501	-0.4190996308	 0.909079024	 0.113313
H	 1.6934273203	-3.7432919506	 0.9408569725	 0.128561
H	 1.7367218246	-3.736768004	-0.8362903816	 0.128025
101.3847	159.1629	213.2584	253.7625	319.2992	374.7165	503.616	588.3617	608.8959	633.4258	660.4466	742.7344	794.272	850.7454	886.4315	916.4971	1019.5236	1051.8921	1069.2557	1098.3668	1135.3916	1159.0258	1213.0567	1260.5348	1318.0579	1369.3978	1415.9581	1516.2507	1521.518	1529.9649	1549.4388	1646.2681	1683.026	2995.1409	3000.4331	3019.5966	3026.1186	3555.4751	3656.694
NC1=NOC2=C1COC2	Nc1noc2c1COC2	
InChI=1S/C5H6N2O2/c6-5-3-1-8-2-4(3)9-7-5/h1-2H2,(H2,6,7)	InChI=1S/C5H6N2O2/c6-5-3-1-8-2-4(3)9-7-5/h1-2H2,(H2,6,7)
