15
gdb 48757	2.98211	1.46138	1.10629	4.0739	69.11	-0.2352	-0.044	0.1912	1060.2173	0.112767	-453.953062	-453.945556	-453.944612	-453.985157	28.716	
N	-0.0996667237	 1.1668521822	 0.5656695064	-0.573227
C	-0.0440758674	 0.0425335325	 0.0006447504	 0.455796
N	-1.1282000437	-0.7442811957	-0.3627775918	-0.391896
C	-0.6957509423	-2.0210491866	-0.8338725798	 0.254717
C	 0.0511963199	-2.004699489	-2.1699036816	-0.361813
C	 0.8231497254	-1.8815561923	-0.8997801366	 0.031382
O	 1.1172367577	-0.601783457	-0.4077375442	-0.244101
C	-1.40698797	-3.2156071197	-0.3462026529	 0.086089
O	-2.3411299953	-3.1618503649	 0.4172424426	-0.270312
H	 0.833117319	 1.538212645	 0.7260863404	 0.231089
H	-1.9503190734	-0.7219493544	 0.2228297718	 0.277547
H	 0.1368822378	-2.9502911061	-2.6959342119	 0.135773
H	-0.0948170554	-1.1258254724	-2.7872427615	 0.152016
H	 1.520422581	-2.6433356035	-0.5721713019	 0.131233
H	-1.02712852	-4.1790975181	-0.7489427693	 0.085709
108.4968	139.0514	208.0451	261.8471	358.9204	432.289	465.6208	476.7668	540.2013	682.2863	705.5586	717.0559	776.674	796.6744	831.8947	880.2586	922.4621	963.8048	1014.3172	1040.8505	1061.9947	1074.4048	1101.7211	1159.796	1239.3681	1278.599	1324.0136	1381.5221	1423.0483	1437.001	1463.4739	1797.6638	1805.8601	2903.114	3133.3783	3188.3559	3235.3338	3540.2135	3627.2121
N=C1NC2(CC2O1)C=O	[NH][C]1N[C@]2(C[C@H]2O1)C=O	
InChI=1S/C5H6N2O2/c6-4-7-5(2-8)1-3(5)9-4/h2-3H,1H2,(H2,6,7)	InChI=1S/C5H6N2O2/c6-4-7-5(2-8)1-3(5)9-4/h2-3H,1H2,(H2,6,7)/t3-,5-/m1/s1
