15
gdb 20358	6.21613	1.38704	1.24594	4.0975	67.09	-0.2362	0.0009	0.2371	960.3198	0.121258	-358.829751	-358.823068	-358.822123	-358.86153	24.89	
C	-0.1694218945	 1.3550306736	-0.3029842985	-0.264722
C	 1.2347363096	 1.0813009987	 0.1554406554	-0.264682
C	 0.2280717241	-0.0501811029	 0.1017686206	-0.08534
C	-0.2943850736	-0.6683306317	 1.3331601757	 0.337114
C	-0.5932763037	-0.1305316307	 2.5676173035	-0.192059
N	-1.034281083	-1.1901139476	 3.2879631519	-0.147863
N	-1.0187406278	-2.3214961318	 2.5661759043	-0.115478
N	-0.5710191835	-2.0075556333	 1.3839004712	-0.260918
H	-0.8322315951	 1.8958016892	 0.3642885344	 0.112358
H	-0.3429231874	 1.5480937662	-1.3557149678	 0.120074
H	 2.0307218529	 1.0853647319	-0.5807711067	 0.120072
H	 1.5336017788	 1.4345523871	 1.13671101	 0.112365
H	 0.3486091465	-0.7716983027	-0.6981616085	 0.104759
H	-0.5339595025	 0.8634799588	 2.9770382026	 0.142924
H	-1.3518746209	-1.2182271347	 4.2435920318	 0.281396
36.5839	177.3973	178.0316	401.9425	420.4751	569.8472	629.0157	693.1706	737.0071	778.5595	788.2737	824.8042	914.6295	917.3828	989.1743	1019.4095	1048.5178	1060.3104	1075.8966	1099.7826	1133.6985	1136.8091	1201.9223	1212.4683	1243.6519	1287.334	1350.9652	1404.0038	1471.1899	1491.0397	1513.1678	1594.3124	3131.0962	3135.5093	3179.2812	3210.831	3227.3544	3282.9215	3658.4133
C1CC1C1=CNN=N1	C1CC1c1c[nH]nn1	
InChI=1S/C5H7N3/c1-2-4(1)5-3-6-8-7-5/h3-4H,1-2H2,(H,6,7,8)	InChI=1S/C5H7N3/c1-2-4(1)5-3-6-8-7-5/h3-4H,1-2H2,(H,6,7,8)
