23
gdb 37979	2.86525	1.61099	1.23656	0.2155	89.41	-0.2809	0.0859	0.3668	1106.7644	0.210615	-351.119491	-351.112289	-351.111345	-351.150765	30.708	
C	-0.0063837578	 1.7285305147	-0.0002878248	-0.222571
C	 1.4717158949	 1.2353848949	 0.0367617543	-0.084682
C	 0.9933614613	 0.2200026261	 1.1266248848	 0.071169
C	 1.8103630834	-0.9670197512	 1.6375731332	-0.253777
C	 2.7942461367	-1.6447002396	 0.6821432166	-0.188548
C	 2.1304991167	-2.1117408565	-0.6113500711	-0.188549
C	 1.8636772827	-0.9622033375	-1.5847442936	-0.253799
C	 1.0482356685	 0.235700394	-1.0972483049	 0.071219
C	-0.0813835133	 0.1717881686	-0.0167519976	-0.084683
H	-0.3782985967	 2.2266832345	 0.8985358994	 0.085025
H	-0.3276937694	 2.2431616329	-0.909294866	 0.085057
H	 2.3665832521	 1.8618903788	 0.0606791995	 0.05996
H	 0.593795093	 0.7310382646	 2.0116893448	 0.058487
H	 2.3639766181	-0.6240461377	 2.5215964013	 0.091229
H	 1.1030862039	-1.7216876612	 2.0119945614	 0.094538
H	 3.6158746214	-0.9561048008	 0.4408872151	 0.090812
H	 3.2518896571	-2.4945765152	 1.2026911268	 0.08705
H	 2.7618335891	-2.8528083459	-1.1162593538	 0.08705
H	 1.1890206852	-2.6252414746	-0.3718155656	 0.090811
H	 2.8265745098	-0.5809840675	-1.9554941621	 0.094532
H	 1.3516892034	-1.3659891329	-2.468169402	 0.091224
H	 0.7245995437	 0.7812295592	-1.9926912581	 0.058488
H	-0.9890676337	-0.4359926877	-0.0408492475	 0.05996
128.1376	208.0773	324.495	338.0238	358.8298	371.6711	486.0198	581.3581	634.5672	746.033	748.3616	800.546	838.6103	839.1802	863.4164	890.4737	922.3254	943.9527	948.9907	979.7737	1029.5829	1037.8313	1046.8851	1055.7418	1082.183	1106.0523	1131.3222	1133.9081	1156.5656	1191.2376	1192.1084	1221.8605	1234.2592	1237.3847	1257.3775	1293.8454	1294.3589	1317.54	1364.1835	1381.0991	1382.4141	1404.7843	1435.8807	1463.5377	1478.0991	1481.9673	1493.6077	1502.2982	1527.0426	2996.0795	2997.014	3007.7136	3009.7287	3014.416	3017.9292	3036.9824	3038.6433	3051.4155	3054.5151	3055.1692	3078.0166	3085.6842	3118.3606
C1C2C3CCCCC2C13	C1[C@H]2[C@@H]3CCCC[C@H]2[C@H]13	
InChI=1S/C9H14/c1-2-4-7-8-5-9(7)6(8)3-1/h6-9H,1-5H2	InChI=1S/C9H14/c1-2-4-7-8-5-9(7)6(8)3-1/h6-9H,1-5H2/t6-,7+,8-,9+
