16
gdb 25996	4.88392	1.03154	0.87345	5.2941	73.03	-0.2184	0.0162	0.2346	1289.7283	0.125363	-434.110149	-434.101882	-434.100938	-434.144412	29.999	
C	-0.2714838924	 1.5156839922	-0.035500975	-0.442808
C	 0.1622361431	 0.1077963661	 0.2504764245	 0.388601
N	 1.2318021906	-0.1828789392	 0.8468810412	-0.505043
O	-0.8068409564	-0.7552693954	-0.2584523874	-0.289775
C	-0.7747419181	-2.096486896	-0.0527520478	 0.365815
C	-1.8972314215	-2.883523556	 0.0115878499	-0.205063
N	-1.4060460038	-4.1652562459	 0.1588346719	-0.231681
C	-0.0524416507	-4.0891002992	 0.1837285698	 0.02179
N	 0.3648688133	-2.8461456886	 0.050978013	-0.324161
H	 0.4822825195	 2.2072444969	 0.3379948578	 0.146553
H	-0.4036874502	 1.6595042943	-1.1125873277	 0.137778
H	-1.2350923837	 1.7248776966	 0.4398393549	 0.133691
H	 1.370083099	-1.1916935125	 0.9079476255	 0.246262
H	-2.9472759546	-2.6579938597	-0.0398899677	 0.140508
H	-1.9578719692	-5.003065263	 0.2317470682	 0.27463
H	 0.5797579751	-4.9560272204	 0.2971343589	 0.142901
26.6286	76.5823	154.8017	174.5079	343.0432	351.5918	400.6595	522.9679	544.2493	567.2924	658.474	680.2609	716.7396	764.525	804.3789	884.0512	942.2686	949.1433	991.4647	1038.888	1076.8999	1089.1702	1107.0883	1150.0314	1248.4181	1317.9408	1326.6642	1353.7823	1406.5171	1472.9506	1475.7097	1477.6307	1519.5211	1608.0095	1765.8711	3048.5707	3105.5976	3168.8636	3261.3514	3295.943	3486.6934	3672.3816
CC(=N)OC1=CNC=N1	C[C]([NH])Oc1c[nH]cn1	
InChI=1S/C5H7N3O/c1-4(6)9-5-2-7-3-8-5/h2-3,6H,1H3,(H,7,8)	InChI=1S/C5H7N3O/c1-4(6)9-5-2-7-3-8-5/h2-3,6H,1H3,(H,7,8)
