21
gdb 107433	2.70382	1.45912	1.3272	1.3202	80.97	-0.2337	0.0778	0.3115	1094.8847	0.18341	-387.056852	-387.048701	-387.047757	-387.089249	32.65	
C	-0.1913803494	 1.3832297786	-0.0212436279	-0.252698
O	 0.1674560289	 0.0155642091	 0.0402548781	-0.289751
C	 0.7344440574	-0.4862697976	-1.1284058956	 0.448946
C	 1.8756737964	-1.4374369198	-0.9517627957	-0.352831
C	 2.1199483403	-0.090210429	-1.613113335	-0.11467
C	 2.0834892431	 0.043753177	-3.1374089779	-0.249128
C	 0.6482661677	-0.275966993	-3.5824140265	-0.029901
C	 0.1066891388	-1.6700864026	-3.3910201727	-0.299053
C	-0.1684069782	-0.61112196	-2.3512545302	-0.105165
H	 0.6752237154	 2.0188278782	-0.25170018	 0.106459
H	-0.9705472822	 1.5771614376	-0.7715525579	 0.108331
H	-0.5803455844	 1.6522586467	 0.9636883785	 0.12568
H	 2.245137703	-1.528604135	 0.0641013115	 0.116969
H	 1.9273362905	-2.3546334432	-1.5266748161	 0.109439
H	 2.7224507242	 0.6156634553	-1.0515874341	 0.087375
H	 2.3239074923	 1.0767362417	-3.4116372969	 0.101614
H	 2.8235612244	-0.5935650957	-3.6364795784	 0.102172
H	 0.2322903083	 0.3169612667	-4.3901582353	 0.081669
H	-0.7265207666	-1.9632937498	-4.0218578474	 0.107223
H	 0.7843521414	-2.4862787448	-3.1681755324	 0.111672
H	-1.1897194313	-0.2725130106	-2.222360578	 0.085646
111.6878	143.3939	179.3268	256.0217	275.2126	368.5277	408.4204	430.9347	527.404	585.4736	667.2362	690.0861	792.6307	807.4302	832.4018	846.4885	895.9426	929.848	965.2725	990.8775	1011.4201	1028.0522	1042.1288	1063.2864	1080.0188	1095.8354	1098.6834	1107.6703	1131.4281	1181.8683	1192.6972	1204.7936	1224.8669	1247.0117	1270.4079	1305.803	1342.762	1378.3265	1392.0124	1469.9641	1486.8104	1487.7874	1488.8159	1508.0813	1509.3127	2993.4713	3030.0833	3044.2783	3066.1882	3117.1452	3129.2342	3138.4596	3157.5914	3165.6512	3178.2687	3210.3054	3222.7605
COC12CC1CC1CC21	CO[C@]12C[C@H]1C[C@H]1C[C@@H]21	
InChI=1S/C8H12O/c1-9-8-4-6(8)2-5-3-7(5)8/h5-7H,2-4H2,1H3	InChI=1S/C8H12O/c1-9-8-4-6(8)2-5-3-7(5)8/h5-7H,2-4H2,1H3/t5-,6+,7+,8+/m0/s1
