17
gdb 102012	2.23721	1.44351	0.93133	0.725	74.07	-0.2605	-0.0909	0.1696	1226.6574	0.134567	-455.177767	-455.168204	-455.16726	-455.212907	33.235	
C	 0.2574366364	 1.3626538966	 0.0170964693	-0.383909
C	-0.0105195664	-0.1357270451	 0.1435875968	-0.143739
N	-1.4486907977	-0.4687744097	 0.08187878	-0.128715
C	-2.0257697476	-0.6590594815	-1.1808937782	 0.092559
N	-1.3340930171	-0.5442127341	-2.2395567963	-0.464974
C	-2.2721508921	-0.6209271591	 1.1767388864	 0.335104
O	-3.4445521598	-0.9495070283	 1.1123809932	-0.346486
C	-1.7573762387	-0.3353242468	 2.5968062603	 0.088
O	-0.7844669321	 0.2940353195	 2.9135396715	-0.233811
H	 1.3369757105	 1.54166777	 0.0288539369	 0.122386
H	-0.1414908291	 1.7471633089	-0.9243998666	 0.139005
H	-0.1859716368	 1.9101686237	 0.8519151534	 0.131712
H	 0.4507679878	-0.6702523974	-0.6882062773	 0.144421
H	 0.3923001727	-0.5226564442	 1.0769138308	 0.132724
H	-3.0851636319	-0.902829214	-1.1107838326	 0.150975
H	-1.9157187876	-0.720899623	-3.0565656614	 0.237296
H	-2.4829563904	-0.7423212054	 3.3290835839	 0.127451
47.8814	105.0133	113.4835	151.8422	211.7947	218.7155	234.7294	295.8577	387.1447	427.4258	499.4425	564.2616	586.5836	702.2008	746.7745	798.1575	841.9718	973.2972	1013.1424	1025.9249	1087.1837	1107.5104	1134.0993	1182.8651	1304.9067	1336.4531	1379.618	1384.6702	1399.6315	1413.1756	1445.2878	1482.0957	1495.8695	1502.3569	1708.1783	1749.3724	1829.1398	2951.1108	3051.1459	3098.221	3123.5661	3136.2319	3145.5828	3167.1541	3507.1092
CCN(C=N)C(=O)C=O	CCN(C=N)C(=O)C=O	
InChI=1S/C5H8N2O2/c1-2-7(4-6)5(9)3-8/h3-4,6H,2H2,1H3	InChI=1S/C5H8N2O2/c1-2-7(4-6)5(9)3-8/h3-4,6H,2H2,1H3
