15
gdb 19485	3.53871	2.04038	1.86648	1.3217	71.43	-0.2191	0.0047	0.2238	777.4203	0.119263	-325.466228	-325.459552	-325.458608	-325.49679	26.279	
C	-0.1292391836	-1.2355074275	-0.0713688782	-0.471786
C	-0.0695610945	-0.0378514522	 0.0282370432	 0.374657
C	-0.0089412374	 1.3931865653	 0.0706329241	-0.213108
C	 0.5127520134	 2.1553926362	 1.2640326994	-0.075842
C	 1.2942800978	 1.3931012947	 2.2740506833	-0.074452
C	 2.4033227291	 0.909443137	 1.7158479222	-0.071992
C	 2.4904322642	 1.3243992497	 0.2649674894	-0.211847
N	 1.2772741553	 2.1365542193	 0.0011821871	-0.122646
H	-0.1917702173	-2.2932469274	-0.1411964988	 0.198968
H	-0.7799627049	 1.8841457294	-0.5200317375	 0.116628
H	 0.0139642706	 3.0820954024	 1.5382940554	 0.098557
H	 0.9703609793	 1.2584142674	 3.2977906139	 0.104657
H	 3.1401907023	 0.2777993743	 2.1974131026	 0.103786
H	 3.3733775702	 1.9428027886	 0.0596034679	 0.116465
H	 2.5303581854	 0.4642801927	-0.4148428241	 0.127956
141.0437	148.7249	281.4238	355.0561	428.4389	579.9073	591.2276	610.5234	657.9852	716.8455	737.556	759.2623	775.7989	866.5439	902.9538	929.3341	953.2111	1002.3741	1023.5612	1044.1714	1090.6714	1114.6216	1127.618	1212.1159	1258.6389	1308.1982	1345.6271	1366.7296	1372.7911	1482.3045	1669.6981	2230.5657	3020.8982	3054.4696	3120.8018	3135.1805	3201.905	3229.0265	3502.7586
C#CC1C2C=CCN12	C#C[C@H]1[C@H]2C=CCN12	
InChI=1S/C7H7N/c1-2-6-7-4-3-5-8(6)7/h1,3-4,6-7H,5H2	InChI=1S/C7H7N/c1-2-6-7-4-3-5-8(6)7/h1,3-4,6-7H,5H2/t6-,7+,8?/m0/s1
