22
gdb 17626	2.68231	1.54839	1.19927	1.4596	77.67	-0.2564	0.0739	0.3303	1120.9981	0.198709	-350.196484	-350.186852	-350.185908	-350.230541	36.057	
C	-0.1844113039	 1.5271128625	 0.122498108	-0.416991
C	 0.0107428259	 0.0142721143	 0.0247865442	 0.144119
O	 0.593031111	-0.3443876637	-1.2296955983	-0.43946
C	 0.7916150495	-0.6075666721	 1.2102812424	 0.003941
C	 0.7054798558	-2.1400455024	 1.1469495919	-0.398613
C	 2.2416265779	-0.1530414249	 1.263017914	 0.031872
C	 2.6644337671	 1.1009696975	 1.9911152675	-0.273768
C	 3.025196157	-0.2526572104	 2.5478721333	-0.279371
H	 0.7768191964	 2.0520625383	 0.1101977747	 0.117901
H	-0.7795767246	 1.881010941	-0.7241040267	 0.120297
H	-0.7017141299	 1.802088746	 1.0475537094	 0.11214
H	-0.9783451499	-0.4607610669	 0.0046589274	 0.079592
H	 1.3755690781	 0.2032409874	-1.3525420974	 0.278894
H	 0.2981687842	-0.2674184664	 2.1325796493	 0.061156
H	 1.1176068469	-2.5020257802	 0.2004487543	 0.128878
H	 1.2633382514	-2.6015421662	 1.9668631611	 0.108447
H	-0.3340697176	-2.4797035062	 1.2086471211	 0.105172
H	 2.808782545	-0.3926781775	 0.3659290534	 0.075457
H	 3.4527202657	 1.7121933066	 1.5644392223	 0.107916
H	 1.8988608202	 1.6686373056	 2.5094089466	 0.111194
H	 2.4977383056	-0.5892292447	 3.4350158332	 0.11108
H	 4.0603343484	-0.5724646573	 2.5019856986	 0.110146
62.5586	103.9139	169.8873	216.8819	229.1828	260.6378	275.7895	294.5495	325.2531	341.3397	446.3977	520.3883	604.1756	737.42	797.0568	825.2776	846.4176	920.1924	929.3805	960.8818	984.2346	1015.9968	1033.924	1058.6373	1076.5257	1081.0348	1102.0195	1146.7777	1167.6858	1200.5671	1214.3445	1225.8981	1283.5915	1310.7449	1330.4464	1364.2229	1401.0106	1402.36	1417.9741	1430.7779	1469.5857	1490.1842	1494.435	1497.5278	1502.9359	1507.028	2998.0252	3026.5035	3034.4922	3035.8148	3101.0388	3103.6595	3114.1111	3116.7934	3124.6952	3126.428	3132.1169	3203.4283	3218.8573	3809.3203
CC(O)C(C)C1CC1	C[C@@H](O)[C@@H](C)C1CC1	
InChI=1S/C7H14O/c1-5(6(2)8)7-3-4-7/h5-8H,3-4H2,1-2H3	InChI=1S/C7H14O/c1-5(6(2)8)7-3-4-7/h5-8H,3-4H2,1-2H3/t5-,6-/m1/s1
