20
gdb 102734	2.82488	1.02111	0.79098	0.4798	82.68	-0.2328	0.0374	0.2702	1466.899	0.168162	-403.06299	-403.052959	-403.052014	-403.098492	36.092	
C	 0.0133340196	 1.2313622415	-0.2251772785	-0.238052
O	-0.1511829016	-0.1462050403	 0.0409024563	-0.228176
C	 0.6085221152	-0.6146659806	 1.1434964501	-0.071583
C	 0.1058674033	-2.0238882075	 1.4829879495	-0.162377
N	-1.2351112316	-1.9680208958	 2.0422415806	-0.066411
C	-2.3430049933	-2.0619057546	 1.0965159531	-0.206005
C	-2.0057055704	-3.2080674695	 1.9824342383	-0.231684
C	 2.0497554554	-0.6216689403	 0.8553591317	 0.343893
C	 3.2269631197	-0.6375479651	 0.6120984752	-0.471156
H	 1.0518226141	 1.4741932764	-0.4884950895	 0.119251
H	-0.6353354744	 1.471277901	-1.0706514467	 0.127212
H	-0.2826640657	 1.8462680437	 0.638500344	 0.107499
H	 0.4218313777	 0.0278802606	 2.0197212979	 0.103541
H	 0.1728446184	-2.64193158	 0.5710337457	 0.099246
H	 0.7761518134	-2.4579576731	 2.2319418475	 0.115275
H	-3.1988361915	-1.429914205	 1.3148910528	 0.113837
H	-2.0998188562	-2.149847813	 0.0408847615	 0.122062
H	-1.5391492151	-4.0761682007	 1.5191380597	 0.109022
H	-2.6069666358	-3.4306649359	 2.8593308516	 0.11552
H	 4.2681121887	-0.6467929319	 0.4020440391	 0.199086
64.6881	93.1463	97.8632	126.144	175.4577	235.1745	262.568	281.3376	355.4915	377.6806	467.4297	567.0944	585.8885	632.04	676.5042	771.1926	837.2521	847.6153	899.9208	976.2028	1020.016	1028.2993	1067.1217	1097.8568	1118.2586	1119.4673	1145.5146	1173.2694	1182.0009	1185.0086	1225.2057	1281.0057	1302.3394	1327.3463	1367.0081	1394.6143	1476.7779	1479.7711	1485.171	1495.4184	1510.7916	1523.609	2230.0736	2957.8181	2975.3559	2985.6482	3043.8414	3076.0786	3095.3739	3112.4959	3120.5484	3179.6055	3199.4295	3501.7382
COC(CN1CC1)C#C	CO[C@@H](CN1CC1)C#C	
InChI=1S/C7H11NO/c1-3-7(9-2)6-8-4-5-8/h1,7H,4-6H2,2H3	InChI=1S/C7H11NO/c1-3-7(9-2)6-8-4-5-8/h1,7H,4-6H2,2H3/t7-/m1/s1
