15
gdb 20619	3.29339	2.03364	1.26995	2.4421	63.63	-0.1957	0.0483	0.244	910.0564	0.119505	-396.002878	-395.994494	-395.99355	-396.035359	30.212	
C	 0.0720413498	 1.5671850709	-0.0135507644	-0.533868
C	 0.0385174327	 0.0717936612	-0.0087957905	 0.019554
C	 0.0105224622	-0.7961330404	-1.083498747	 0.385069
O	-0.0178023577	-0.6016564229	-2.4214235844	-0.432324
N	 0.0329299243	-2.0560439116	-0.6078792035	-0.269204
N	 0.0600940371	-2.0910009991	 0.7619360289	-0.323345
C	 0.071672019	-0.811251019	 1.1079485368	 0.303729
N	 0.1879440558	-0.4266339591	 2.4471822685	-0.587029
H	 0.7987742204	 1.9441958851	 0.7147103701	 0.142183
H	 0.3718643927	 1.9642904493	-0.9915725828	 0.102024
H	-0.8974879856	 2.0229075206	 0.2288805746	 0.123352
H	-0.0480792718	 0.3455309688	-2.5909320465	 0.308075
H	 0.0222205327	-2.9093720338	-1.1366667747	 0.272522
H	 0.0741651457	-1.2250196943	 3.0603277645	 0.247671
H	-0.4645383772	 0.3021777442	 2.7077690504	 0.241592
89.9138	168.074	220.2828	226.7698	246.1965	267.1115	292.7203	320.4638	440.5376	528.6876	586.8466	664.5754	704.7923	720.0442	783.0323	819.5686	954.7675	1062.4355	1070.7373	1151.6237	1175.2095	1198.9925	1270.2195	1366.4099	1423.241	1457.3246	1478.7759	1504.4777	1541.1707	1597.3373	1639.2144	1667.3881	3004.5702	3051.5263	3080.3752	3528.0408	3621.1986	3700.0506	3832.0299
CC1=C(O)NN=C1N	Cc1c(O)[nH]nc1N	
InChI=1S/C4H7N3O/c1-2-3(5)6-7-4(2)8/h1H3,(H4,5,6,7,8)	InChI=1S/C4H7N3O/c1-2-3(5)6-7-4(2)8/h1H3,(H4,5,6,7,8)
