18
gdb 122621	3.66219	0.85902	0.73025	1.7039	70.28	-0.2635	0.0083	0.2717	1513.6924	0.146854	-476.196515	-476.187345	-476.186401	-476.231837	32.457	
O	-0.0950767909	 1.3250743215	 0.3206513288	-0.421008
C	 0.0361748042	-0.0130781149	-0.1174289416	-0.064701
C	-1.3105801062	-0.7087583974	-0.2117938807	-0.088196
O	-2.0844225433	 0.0362774223	-1.1565011183	-0.270431
C	-3.4028454627	-0.4037667224	-1.2807712078	 0.003905
C	-4.200662848	 0.3187151661	-2.3811639113	-0.11517
O	-4.43095807	-0.9563996044	-3.060830638	-0.250504
C	-3.6542420844	-1.6383811737	-2.1474112052	 0.422298
N	-3.2908695927	-2.8363770358	-2.1025740056	-0.542891
H	-0.7565102245	 1.7273955679	-0.25365195	 0.287621
H	 0.5395543217	-0.0709378761	-1.0954468471	 0.097614
H	 0.6634108599	-0.5331095225	 0.6136581266	 0.113553
H	-1.2047255795	-1.750215064	-0.5400232337	 0.131736
H	-1.8140463677	-0.6949264572	 0.7670905391	 0.100025
H	-3.9071574028	-0.453477763	-0.3052003056	 0.102702
H	-5.1423665466	 0.7879971095	-2.0909647668	 0.126826
H	-3.5942193592	 0.9895127657	-2.9931797638	 0.133646
H	-3.6386985873	-3.3686714816	-2.902593329	 0.232974
45.6557	70.3777	99.9951	143.955	200.4455	264.8173	332.0066	377.6222	416.7902	468.8039	520.195	688.8255	744.1009	823.6612	873.3033	900.5274	908.2516	949.9854	967.4519	1013.351	1049.9158	1091.0585	1104.4136	1136.8718	1155.1006	1195.153	1231.6053	1236.9994	1253.7151	1270.5918	1336.3811	1376.9246	1387.6131	1423.9804	1442.2013	1498.2743	1506.7586	1509.7168	1824.7965	2983.22	2994.2403	3009.0022	3061.4942	3074.6489	3083.7224	3140.6284	3470.2011	3802.043
OCCOC1COC1=N	OCCO[C@H]1CO[C]1[NH]	
InChI=1S/C5H9NO3/c6-5-4(3-9-5)8-2-1-7/h4,6-7H,1-3H2	InChI=1S/C5H9NO3/c6-5-4(3-9-5)8-2-1-7/h4,6-7H,1-3H2/t4-/m0/s1
