16
gdb 111730	2.85643	1.17419	0.95483	2.8751	70.72	-0.2673	0.0024	0.2697	1214.102	0.124095	-437.841905	-437.833513	-437.832569	-437.87557	30.497	
O	 0.0975863646	 1.3255895292	-0.3145702217	-0.409873
C	 0.074016809	 0.0024839112	 0.1925493705	-0.099538
C	-1.3237735774	-0.5785856061	 0.1430630176	-0.120643
C	-1.9081447984	-1.2254441329	-1.0671975497	 0.042917
O	-0.9274573922	-1.9139568685	-1.8339664196	-0.276246
C	-0.6850921602	-2.8443482096	-0.7475634064	-0.140256
C	-1.6360145294	-2.0773178247	 0.1809074278	 0.098447
C	-2.5211195102	-2.6713028912	 1.1215923066	 0.195971
N	-3.2336495496	-3.1628022752	 1.890690543	-0.344642
H	-0.0709891613	 1.278181533	-1.2615217412	 0.29153
H	 0.7789565879	-0.6447177718	-0.3433591574	 0.10847
H	 0.407372837	 0.0701670985	 1.2325389066	 0.126622
H	-2.0611859432	-0.0090150699	 0.7041673158	 0.12697
H	-2.8405145305	-0.9564040719	-1.5499239654	 0.134403
H	-1.0684930422	-3.8365847362	-1.002085915	 0.138751
H	 0.3704771259	-2.9059104739	-0.4665593715	 0.127119
53.013	129.5022	150.429	212.4539	235.6107	320.8365	352.7823	408.8061	506.4497	544.4445	613.8336	623.5513	769.9964	811.7733	921.4707	934.2984	968.0066	994.1704	1033.8736	1063.0877	1074.779	1085.7573	1100.4884	1159.837	1200.3244	1219.5303	1273.4485	1295.3331	1346.6148	1398.697	1414.4417	1460.3743	1495.2596	1515.7152	2345.8406	3032.9645	3049.3155	3089.1964	3105.4892	3153.6402	3191.5318	3814.4839
OCC1C2OCC12C#N	OC[C@H]1[C@H]2OC[C@@]12C#N	
InChI=1S/C6H7NO2/c7-2-6-3-9-5(6)4(6)1-8/h4-5,8H,1,3H2	InChI=1S/C6H7NO2/c7-2-6-3-9-5(6)4(6)1-8/h4-5,8H,1,3H2/t4-,5+,6-/m0/s1
