17
gdb 84628	2.32064	1.83408	1.49239	2.7795	72.8	-0.2338	-0.0176	0.2162	951.4286	0.13733	-421.832388	-421.82503	-421.824086	-421.86402	29.327	
O	 0.0951345125	 1.3974616012	-0.1506900952	-0.435042
C	 0.0257734987	-0.0176080882	-0.0343271159	 0.101701
C	 0.7225861911	-0.5131031512	 1.2183011469	-0.118527
C	 0.0445062186	-1.208897301	 2.13366306	-0.064544
C	-1.4081328089	-1.5651947693	 1.8542367158	-0.180507
C	-1.5082651668	-2.0226445728	 0.3614191657	-0.247672
C	-1.4440406098	-0.5130068853	-0.036859636	-0.169875
C	-2.0445214296	-0.2488968264	 1.3558742376	 0.424117
O	-2.7738872874	 0.5755784967	 1.8233086804	-0.325277
H	-0.3255959799	 1.7797628235	 0.6289745811	 0.290307
H	 0.5339372182	-0.3854319804	-0.9345022116	 0.098651
H	 1.7645124644	-0.2390857471	 1.3500583455	 0.105904
H	 0.4924095462	-1.5280889278	 3.0690615856	 0.108367
H	-1.8877554262	-2.1379818392	 2.6465858046	 0.088148
H	-0.6935170278	-2.6572490585	 0.007932657	 0.112282
H	-2.4745522704	-2.4706738255	 0.1186401936	 0.115821
H	-1.976551613	-0.1491339587	-0.9164616051	 0.096146
110.4866	149.5379	285.0374	354.5422	368.1841	408.1407	437.2948	480.9649	572.5038	594.6263	692.9774	758.2932	814.7308	838.5572	846.8737	921.1566	951.445	953.3753	984.5996	1023.7011	1045.0874	1061.1868	1092.0531	1121.9869	1131.9194	1156.6304	1219.1514	1232.5541	1265.3799	1277.1836	1290.6486	1351.5342	1380.7685	1426.5075	1487.3352	1683.721	1886.8772	3029.3397	3067.7062	3111.831	3126.599	3132.124	3172.6763	3194.7507	3788.128
OC1C=CC2CC1C2=O	O[C@H]1C=C[C@@H]2C[C@H]1C2=O	
InChI=1S/C7H8O2/c8-6-2-1-4-3-5(6)7(4)9/h1-2,4-6,8H,3H2	InChI=1S/C7H8O2/c8-6-2-1-4-3-5(6)7(4)9/h1-2,4-6,8H,3H2/t4-,5-,6+/m1/s1
