19
gdb 98405	3.30666	0.98834	0.87706	3.5448	73.7	-0.2361	-0.01	0.2261	1379.3504	0.155491	-460.156524	-460.146328	-460.145384	-460.191714	36.969	
C	 0.0765080471	 1.5391685758	 0.0349763567	-0.429707
C	 0.0737633025	 0.0282234188	 0.0209295039	-0.033698
C	 1.325010325	-0.7497999312	-0.2484861519	-0.305027
C	 0.7432791647	-0.7475140074	 1.1529792068	 0.243813
O	 1.4862264684	-0.0537119884	 2.1201100774	-0.462631
C	 0.0783323203	-2.0163124476	 1.6020701437	 0.320223
O	-0.5801422881	-2.6911109609	 0.8446600657	-0.310345
C	 0.2993105813	-2.3974064432	 3.0615214484	-0.177505
O	-0.3663731092	-3.60252759	 3.3320522159	-0.396144
H	 1.0037665839	 1.9313228137	 0.4620670297	 0.127005
H	-0.01555405	 1.9322339959	-0.982689188	 0.130049
H	-0.7632374901	 1.9367079347	 0.6166485939	 0.116773
H	-0.8406763275	-0.4440030788	-0.3263404442	 0.116045
H	 1.2482298175	-1.6770384074	-0.8039091796	 0.137407
H	 2.2525993104	-0.1979562868	-0.3562296502	 0.124166
H	 0.8953229988	 0.545448515	 2.5894834012	 0.289457
H	 1.3867676246	-2.451149263	 3.231190478	 0.124766
H	-0.0604269512	-1.5618839112	 3.6879973881	 0.093426
H	-0.1610479684	-3.855576228	 4.2365421245	 0.291927
51.1106	111.543	159.4656	171.6922	188.7331	237.5739	250.5687	300.1287	322.8302	331.8312	372.8599	450.2923	493.1229	582.0718	607.8386	758.964	778.8256	851.6047	896.2525	934.1531	992.8001	1010.4388	1031.3842	1076.5655	1102.0317	1132.9569	1157.4578	1194.0391	1223.1024	1245.7454	1259.2581	1288.1527	1342.7588	1392.0283	1416.7756	1442.062	1462.2121	1479.1907	1497.5854	1503.9648	1805.186	2951.1487	2993.322	3031.0356	3091.2124	3111.4547	3137.2741	3160.1315	3236.8375	3795.1586	3837.8762
CC1CC1(O)C(=O)CO	C[C@H]1C[C@]1(O)C(=O)CO	
InChI=1S/C6H10O3/c1-4-2-6(4,9)5(8)3-7/h4,7,9H,2-3H2,1H3	InChI=1S/C6H10O3/c1-4-2-6(4,9)5(8)3-7/h4,7,9H,2-3H2,1H3/t4-,6+/m0/s1
