18
gdb 30143	3.85862	1.12881	1.05845	4.18	79.63	-0.2043	0.0267	0.231	1189.2352	0.149852	-398.134245	-398.126241	-398.125297	-398.167128	30.377	
C	 0.3346616204	 1.511197473	-0.5148976188	-0.319343
N	 0.0758010067	 0.1292433271	-0.1239736698	-0.096611
C	 1.2247727119	-0.7481721762	 0.0422232117	-0.254428
C	 0.4420037302	-0.3153418145	 1.2369475185	-0.109153
C	 1.0348793909	 0.5734903301	 2.2577243876	 0.306304
C	 0.5365855201	 0.8225974475	 3.5141060816	-0.198297
N	 1.4259875441	 1.694759277	 4.1010313481	-0.235207
C	 2.4097622838	 1.9386531072	 3.1918255108	 0.00951
N	 2.2100514432	 1.2801208166	 2.0749519655	-0.306939
H	 1.2690105787	 1.9260227182	-0.1160005475	 0.133441
H	 0.3671860292	 1.5548137659	-1.6085993523	 0.114129
H	-0.4974645811	 2.1383968536	-0.1775645198	 0.111466
H	 1.1167609368	-1.7587098407	-0.3454578838	 0.104587
H	 2.2183144603	-0.3148689307	-0.0558339412	 0.127357
H	-0.2895493376	-1.0067377495	 1.6512457829	 0.079288
H	-0.3406447905	 0.4679274668	 4.0288845213	 0.132645
H	 1.363399501	 2.0713334543	 5.0317929161	 0.268702
H	 3.2404638517	 2.5960277042	 3.4011514191	 0.132548
62.9716	134.5247	182.5309	211.9048	294.9039	360.8644	439.3699	484.3988	524.4215	656.4232	677.3512	716.5841	732.8861	789.2117	821.0827	870.4083	949.0096	957.3653	994.5745	1040.2422	1091.5249	1099.2295	1125.6764	1134.8258	1135.8224	1171.7477	1212.993	1229.5155	1300.8365	1323.605	1343.4171	1402.3662	1448.5419	1460.2181	1489.6889	1503.1022	1508.3112	1529.8205	1595.0347	3012.3299	3080.9618	3091.0773	3094.3437	3117.2212	3179.5145	3251.2274	3275.6052	3667.9758
CN1CC1C1=CNC=N1	CN1C[C@H]1c1c[nH]cn1	
InChI=1S/C6H9N3/c1-9-3-6(9)5-2-7-4-8-5/h2,4,6H,3H2,1H3,(H,7,8)	InChI=1S/C6H9N3/c1-9-3-6(9)5-2-7-4-8-5/h2,4,6H,3H2,1H3,(H,7,8)/t6-,9?/m0/s1
