20
gdb 96171	2.59488	1.44494	1.01237	1.5819	74.5	-0.2456	0.0683	0.314	1178.7785	0.173321	-440.252744	-440.244684	-440.24374	-440.285035	32.087	
O	-0.0804878167	 1.450188568	 0.1255834043	-0.430198
C	 0.0104892855	 0.0358626671	-0.0140851936	 0.105599
C	 0.7300808436	-0.5373939324	 1.2241321664	-0.096523
O	 1.0159343251	-1.9204543576	 1.1957675721	-0.243047
C	-0.1180185235	-2.7625575606	 1.3472530951	-0.091711
C	-0.8253838583	-3.0191788415	 0.029895212	-0.029286
N	-2.2938875228	-2.8814304383	 0.0224222638	-0.34029
C	-1.4699371175	-1.8992205461	-0.7034758112	-0.025948
C	-1.4237636244	-0.4776053295	-0.1761787259	-0.220038
H	 0.8122024203	 1.8047832548	 0.1922524741	 0.283395
H	 0.5930240116	-0.2316802067	-0.9110478332	 0.067692
H	 1.7042507351	-0.0410098511	 1.3203343697	 0.089244
H	 0.1344984633	-0.2774460318	 2.1149467254	 0.096458
H	 0.2578286363	-3.7023105311	 1.7653253157	 0.10356
H	-0.8308393536	-2.3354762695	 2.0661434516	 0.105772
H	-0.3890617437	-3.8079456527	-0.579679663	 0.085005
H	-2.7072211063	-3.547513782	-0.624597681	 0.232207
H	-1.4493512816	-1.9817167656	-1.7888552642	 0.08544
H	-1.9451943343	-0.4231938212	 0.7847476337	 0.115064
H	-1.9499566979	 0.1967433379	-0.8596451318	 0.107605
135.2379	151.197	264.9898	294.7699	315.3573	332.6345	363.6807	407.7192	448.0476	480.4724	545.5958	605.4872	796.9318	841.1733	888.9083	903.117	940.0266	957.218	986.0442	998.805	1044.169	1071.0095	1075.6615	1087.2028	1121.2088	1151.795	1189.8936	1235.6349	1249.4773	1256.2289	1268.391	1289.821	1322.824	1327.4791	1349.2317	1383.6099	1405.8437	1423.0979	1443.983	1473.9447	1484.2214	1490.4107	1504.8224	2963.7537	2975.782	3012.0834	3045.2273	3048.8344	3072.7132	3090.0668	3115.8146	3128.9936	3505.8484	3812.5645
OC1COCC2NC2C1	O[C@H]1COC[C@H]2N[C@H]2C1	
InChI=1S/C6H11NO2/c8-4-1-5-6(7-5)3-9-2-4/h4-8H,1-3H2	InChI=1S/C6H11NO2/c8-4-1-5-6(7-5)3-9-2-4/h4-8H,1-3H2/t4-,5+,6-/m1/s1
