18
gdb 33106	6.47653	0.75083	0.67857	0.9739	75.87	-0.1786	0.0675	0.2461	1619.9622	0.146794	-439.102144	-439.092577	-439.091633	-439.138142	33.916	
C	-0.3812958574	 1.4522142278	-0.4865989116	-0.21991
O	-0.3740969807	 0.0530365188	-0.610473881	-0.229505
C	-0.9115869675	-0.5984572583	 0.5209819604	-0.166143
C	-0.8677097758	-2.0785010807	 0.3116480035	 0.266321
C	-0.3848539946	-2.7244675835	-0.7948923899	-0.173226
N	-0.5293720516	-4.0863040556	-0.5824769578	-0.304193
C	-1.0947041441	-4.2922258787	 0.6396635402	 0.402192
O	-1.3145287434	-5.577092642	 1.0227238092	-0.436752
C	-1.3247617905	-3.0764892626	 1.2362943091	-0.419932
H	 0.0495244548	 1.8654181369	-1.4020783949	 0.123717
H	-1.4026059213	 1.8485984849	-0.3646264117	 0.101134
H	 0.2194697963	 1.7916466088	 0.3730168993	 0.101136
H	-0.3425481719	-0.3154334036	 1.4259091552	 0.089202
H	-1.9498023123	-0.2596837732	 0.6945736465	 0.089189
H	 0.0429640767	-2.3368232625	-1.7021986511	 0.12721
H	-0.2667678457	-4.8220076074	-1.2140445871	 0.263124
H	-1.7133915714	-5.5649144717	 1.8975862133	 0.306268
H	-1.7635041897	-2.9144573774	 2.2093382584	 0.080169
15.3258	71.558	127.6818	201.4543	215.0715	223.6608	303.1661	331.1683	348.8232	432.4185	462.7074	627.8329	652.7899	676.8141	694.2241	737.9869	770.4019	981.2534	1000.8089	1013.7406	1048.5953	1113.6794	1156.5503	1162.2671	1184.7675	1187.8835	1226.5659	1249.8609	1280.7879	1313.0279	1401.6059	1443.2518	1480.3185	1483.1956	1502.6477	1527.1426	1542.1965	1584.3807	1643.019	2924.4162	2935.6308	2963.9397	3004.0627	3110.3152	3237.7014	3295.4503	3691.3245	3851.4847
COCC1=CNC(O)=C1	COCc1c[nH]c(O)c1	
InChI=1S/C6H9NO2/c1-9-4-5-2-6(8)7-3-5/h2-3,7-8H,4H2,1H3	InChI=1S/C6H9NO2/c1-9-4-5-2-6(8)7-3-5/h2-3,7-8H,4H2,1H3
