19
gdb 111567	3.46196	1.49891	1.30966	2.1773	74.64	-0.2166	0.0688	0.2854	1022.7811	0.161992	-419.119126	-419.111883	-419.110938	-419.150999	28.857	
C	-0.3582209688	 1.1534416581	 0.1308134811	-0.234967
O	 0.3559858852	-0.0423686891	-0.0869096951	-0.243326
C	 0.8420687243	-0.6419825053	 1.0779067985	 0.200785
C	-0.198069862	-1.1011411239	 2.1333965149	-0.121707
N	-1.104001516	-1.9217859316	 1.2603975268	-0.316177
C	 0.0366005809	-2.8746981758	 1.2559283915	 0.002712
C	 0.5775390687	-2.426023506	 2.627310236	-0.023854
N	 1.9532822805	-2.4812954396	 2.114153327	-0.313459
C	 1.3417597302	-2.0809297645	 0.8148710141	-0.073032
H	 0.2377683946	 1.8872831143	 0.6971746577	 0.095742
H	-0.5881149555	 1.5734667672	-0.8513442761	 0.125737
H	-1.2994978193	 0.9732556189	 0.6671140024	 0.116586
H	 1.6347470175	-0.022479475	 1.5307303808	 0.051152
H	-0.6503682742	-0.3743100642	 2.8062891437	 0.068217
H	-1.8237881166	-2.3327639988	 1.8556035361	 0.215027
H	-0.0989557132	-3.9009104125	 0.9219201097	 0.084168
H	 0.3339798539	-2.8623129601	 3.5973873461	 0.07554
H	 2.5979283003	-1.7888214003	 2.4962912982	 0.209778
H	 1.8923465593	-2.275215582	-0.1038268737	 0.08108
73.4343	179.2001	210.0168	273.024	388.259	461.3737	498.1723	583.7047	707.3842	749.9317	783.5405	826.969	845.8822	856.6822	921.1146	954.0436	959.2539	975.8736	1002.7885	1021.9421	1039.9529	1049.7799	1082.6074	1110.2179	1149.5256	1165.7206	1169.676	1180.4421	1193.4155	1211.7303	1236.7876	1266.5549	1272.5497	1309.3115	1329.5818	1346.904	1360.3491	1387.2308	1479.9919	1488.0761	1504.8968	2953.7679	2974.5424	3039.4889	3102.3172	3114.1901	3130.387	3137.3896	3150.5747	3442.5416	3452.9954
COC1C2NC3C2NC13	CO[C@H]1[C@H]2N[C@@H]3[C@H]2N[C@H]13	
InChI=1S/C6H10N2O/c1-9-6-4-2-3(8-4)5(6)7-2/h2-8H,1H3	InChI=1S/C6H10N2O/c1-9-6-4-2-3(8-4)5(6)7-2/h2-8H,1H3/t2-,3-,4+,5+/m1/s1
