19
gdb 92211	2.54024	2.0516	1.68767	2.5301	72.96	-0.2537	0.0708	0.3245	892.939	0.162633	-423.003106	-422.996533	-422.995589	-423.033755	28.117	
O	 0.0897122491	 1.5086901715	 0.1636399269	-0.438077
C	 0.0544210091	 0.0979262469	 0.0258591939	 0.125339
C	 0.7422904262	-0.5960360547	 1.2256783112	-0.257752
C	-0.4060934875	-0.8859742597	 2.1750184747	 0.114247
O	-1.1326186766	 0.3324505026	 2.5583932803	-0.34032
C	-2.3542966311	-0.1154514798	 1.8933180326	 0.115939
C	-2.5110252539	 0.4759177232	 0.4846062272	-0.248296
C	-1.4005618042	-0.5007358612	-0.0110289886	-0.069432
C	-1.5917242946	-1.329080302	 1.3141598837	-0.091638
H	-0.2220022585	 1.6941267555	 1.0599693108	 0.285436
H	 0.5750936843	-0.10903716	-0.9125120892	 0.080268
H	 1.1935719527	-1.5520269721	 0.9298050176	 0.10034
H	 1.5293072237	 0.0333496049	 1.6500573676	 0.11337
H	-0.14924543	-1.4768594914	 3.0599282257	 0.072918
H	-3.1988985935	-0.1435729297	 2.5853675647	 0.076048
H	-3.4879209092	 0.2017125818	 0.0734636662	 0.1011
H	-2.3476296894	 1.5455550678	 0.345897307	 0.115038
H	-1.6078127217	-1.0099018479	-0.9525062083	 0.071678
H	-1.945632985	-2.3567317857	 1.2833292363	 0.073794
129.5083	279.9365	348.4151	400.4253	437.0719	488.9137	592.2958	626.5408	658.1126	745.9849	795.1527	807.0986	837.4236	847.3289	896.859	918.8073	939.921	967.2373	976.3743	985.6324	1010.9374	1026.0361	1057.6831	1083.1608	1128.7384	1154.0739	1172.7804	1205.2877	1216.9812	1236.7065	1251.3008	1262.5505	1296.2179	1300.7232	1328.2815	1334.5105	1348.7474	1358.9549	1458.2911	1469.5026	1480.5564	3030.2352	3056.5256	3057.9903	3074.5656	3084.2848	3100.1862	3103.7836	3128.5553	3142.822	3747.4502
OC1CC2OC3CC1C23	O[C@H]1C[C@H]2O[C@H]3C[C@@H]1[C@@H]23	
InChI=1S/C7H10O2/c8-4-2-6-7-3(4)1-5(7)9-6/h3-8H,1-2H2	InChI=1S/C7H10O2/c8-4-2-6-7-3(4)1-5(7)9-6/h3-8H,1-2H2/t3-,4-,5-,6+,7+/m0/s1
