16
gdb 47336	3.27526	1.17806	0.88549	4.1069	83.53	-0.2441	-0.0595	0.1845	1248.1049	0.125399	-400.769048	-400.760977	-400.760033	-400.80173	30.648	
O	-0.0205548039	-0.0454451464	-0.1795886282	-0.3784
C	-0.0263553639	 1.1632215648	-0.0175464927	 0.405842
N	-1.1790900767	 1.8717187566	 0.2326691726	-0.335373
C	-1.2416388	 3.3171868708	 0.0656936239	-0.177461
C	-0.0319603956	 3.9731335298	 0.7312972332	-0.292953
C	 1.2502652574	 3.2668356733	 0.329525836	 0.125901
C	 1.2185214175	 1.9693925574	-0.0299296718	-0.250653
C	 2.4597054869	 4.0064582251	 0.3947905258	 0.221784
C	 3.4614563615	 4.6729813464	 0.4626935278	-0.381503
H	-2.0234946445	 1.3345607319	 0.0986162469	 0.24754
H	-1.2656351283	 3.5955206843	-0.9997345085	 0.111656
H	-2.1666468803	 3.6831148088	 0.5199752194	 0.117642
H	 0.0173789973	 5.0297973715	 0.4548806563	 0.125878
H	-0.1280291405	 3.9337327757	 1.8244953536	 0.135245
H	 2.1167580942	 1.4264132258	-0.2962052918	 0.121584
H	 4.3555593089	 5.2437474943	 0.5176837074	 0.203268
108.9492	138.8773	144.1846	237.8316	319.6062	412.6318	429.0676	464.313	547.942	566.2845	576.1104	625.4395	640.8343	674.0936	743.7938	795.534	893.6304	924.3285	937.586	1002.0954	1077.8515	1114.2825	1152.8972	1224.7407	1257.9068	1291.4537	1348.4463	1370.1322	1400.2547	1462.8265	1475.1632	1516.0509	1658.5285	1776.7033	2217.7288	2978.687	3027.4365	3083.2146	3095.3098	3219.1177	3500.4337	3611.4959
O=C1NCCC(=C1)C#C	O=C1NCCC(=C1)C#C	
InChI=1S/C7H7NO/c1-2-6-3-4-8-7(9)5-6/h1,5H,3-4H2,(H,8,9)	InChI=1S/C7H7NO/c1-2-6-3-4-8-7(9)5-6/h1,5H,3-4H2,(H,8,9)
