23
gdb 118793	2.10588	1.06352	0.81023	0.9417	93.42	-0.2369	0.0509	0.2878	1540.6053	0.20308	-351.123861	-351.113187	-351.112243	-351.159529	39.895	
C	 0.0686613461	 1.5975040885	-0.0109343998	-0.379795
C	 0.2223444985	 0.0756216287	-0.0820657151	-0.166662
C	 0.4497642566	-0.5591431625	 1.2975809313	-0.250981
C	 0.6579518893	-2.0656502847	 1.2641068624	 0.348283
C	-0.5443888911	-2.8862178381	 0.833977622	-0.460806
C	 2.0225091488	-2.5840667077	 0.9021903957	-0.319801
C	 1.5403905795	-2.7016942194	 2.3441154272	-0.263884
C	 2.1515111416	-1.9300672577	 3.3851440635	 0.333627
C	 2.6618731343	-1.2955003211	 4.2717484253	-0.458521
H	 0.9616230419	 2.0660470977	 0.4175374477	 0.11515
H	-0.0910119534	 2.0295207531	-1.0038241397	 0.109811
H	-0.7839930503	 1.8808393016	 0.6162846072	 0.114002
H	-0.6707193248	-0.3556391022	-0.5504179369	 0.096203
H	 1.0640637831	-0.1798942727	-0.7385340007	 0.09651
H	 1.3186701091	-0.0882940731	 1.7704866625	 0.107587
H	-0.4064447081	-0.3308792924	 1.947853207	 0.093534
H	-0.8381899259	-2.6542207938	-0.1952809137	 0.121949
H	-0.3320356773	-3.9589879696	 0.879426845	 0.113504
H	-1.4071301175	-2.6874016833	 1.4802269496	 0.119352
H	 2.1034186139	-3.5022002591	 0.3298324523	 0.11204
H	 2.8091148589	-1.8622772775	 0.7116012706	 0.120775
H	 1.2338049929	-3.6976417342	 2.6529655835	 0.107056
H	 3.1124011939	-0.7354328804	 5.052864043	 0.191066
75.3674	87.101	105.0258	142.0266	201.1448	223.0767	241.4321	299.56	322.2985	351.904	393.6707	424.5059	528.7435	568.6739	595.9914	645.0624	724.6464	746.5166	790.7896	862.179	874.4417	902.6496	942.5859	967.011	1005.8993	1044.8999	1051.6913	1070.9812	1100.2306	1121.9781	1128.6397	1149.018	1242.0578	1297.6195	1306.0642	1332.8317	1342.8781	1397.2063	1405.0845	1412.2583	1423.4874	1477.1256	1485.1241	1492.8625	1496.1475	1498.5587	1505.0992	1511.8821	2231.0165	3010.5449	3023.7852	3027.3752	3029.0938	3049.5296	3073.1849	3090.9774	3096.5216	3099.5194	3101.1831	3130.6099	3137.3498	3219.933	3505.0591
CCCC1(C)CC1C#C	CCC[C@@]1(C)C[C@H]1C#C	
InChI=1S/C9H14/c1-4-6-9(3)7-8(9)5-2/h2,8H,4,6-7H2,1,3H3	InChI=1S/C9H14/c1-4-6-9(3)7-8(9)5-2/h2,8H,4,6-7H2,1,3H3/t8-,9+/m1/s1
