17
gdb 66731	2.67522	1.66063	1.25843	3.7385	78.6	-0.2303	-0.0162	0.2141	1024.7673	0.134275	-384.598678	-384.590947	-384.590003	-384.630892	29.817	
C	-0.0194152929	 1.4962301241	 0.0631971473	-0.524921
C	-0.0127679001	 0.0050158057	-0.0124314528	 0.283708
C	 0.2560457554	-0.9812538763	-1.1965519712	-0.146034
C	-0.6160702821	-2.0241073084	-0.5174798167	-0.082922
C	 0.8805412955	-1.9924285218	-0.2467202409	-0.168933
C	 0.6563457944	-1.0331281249	 0.9406236574	 0.268284
C	 1.3324816659	-0.8080274573	 2.2023783019	 0.004017
O	 2.3307047744	-1.3896197926	 2.5701544491	-0.282629
C	-0.8714915046	-1.0290322136	 0.6517026165	-0.207377
H	 0.9496654415	 1.9172540458	-0.2256236216	 0.134254
H	-0.7811608372	 1.9126100016	-0.6064316691	 0.130588
H	-0.2474631587	 1.8386282836	 1.0775573009	 0.130711
H	 0.4461015971	-0.809264284	-2.2469881019	 0.097601
H	-1.2270362154	-2.8052404178	-0.9470437176	 0.099345
H	 1.6383987448	-2.7401188166	-0.430442575	 0.107892
H	 0.8505171942	-0.0280694294	 2.8387038523	 0.055299
H	-1.6681866123	-0.9187857781	 1.3763323414	 0.101116
95.3453	151.499	214.6671	234.7533	253.2647	319.8875	474.2167	579.6645	669.6365	684.4784	717.5082	771.9936	784.189	802.9113	839.4044	899.8778	907.4708	933.1064	966.4012	979.3784	1007.2424	1021.9772	1040.4332	1086.7862	1089.4852	1154.605	1169.1884	1210.614	1254.007	1318.7095	1372.3065	1399.512	1415.9668	1454.6872	1480.617	1496.2753	1781.8623	2842.244	3025.6723	3086.7976	3102.7454	3196.4264	3207.3955	3215.3582	3229.1421
CC12C3C4C3C1(C=O)C24	C[C@@]12[C@@H]3[C@H]4[C@@H]3[C@]1(C=O)[C@@H]24	
InChI=1S/C8H8O/c1-7-4-3-5(4)8(7,2-9)6(3)7/h2-6H,1H3	InChI=1S/C8H8O/c1-7-4-3-5(4)8(7,2-9)6(3)7/h2-6H,1H3/t3-,4+,5-,6+,7-,8+/m0/s1
