19
gdb 86205	1.97267	1.92425	1.38057	1.647	65.78	-0.2714	0.056	0.3274	1007.0849	0.161691	-497.312145	-497.30439	-497.303446	-497.344087	31.922	
O	 0.0560816713	 0.9651954907	 1.2465836033	-0.448621
C	 0.1260759939	 0.0443955253	 0.1565828046	 0.081404
C	 0.9432426076	-1.1724350066	 0.5960554894	-0.263243
C	-0.0097253249	-1.9203574042	 1.5368586378	 0.087177
O	-0.0904931065	-1.3054892911	 2.8213694549	-0.454753
C	-1.3932934498	-1.8103532477	 0.8245819429	 0.070873
O	-2.4448918397	-1.6734299778	 1.7597577576	-0.443389
C	-1.292921548	-0.5373262392	-0.0991510672	 0.083616
O	-2.2853078846	 0.4127418181	 0.2273959088	-0.449307
H	-0.8347985549	 1.3497833929	 1.1674091315	 0.29164
H	 0.5377313172	 0.5457492901	-0.7280518258	 0.073901
H	 1.1791884878	-1.7951533036	-0.2749393971	 0.109658
H	 1.8825936924	-0.8979203368	 1.0823327789	 0.124472
H	 0.276321777	-2.9603849405	 1.7111254969	 0.08716
H	 0.0034866452	-0.3497262284	 2.6580249447	 0.294826
H	-1.5885476781	-2.6993293955	 0.2171136045	 0.086253
H	-1.9879754814	-1.4713350426	 2.5977595206	 0.294325
H	-1.3911673005	-0.8243449389	-1.1531114414	 0.077821
H	-2.815068764	-0.0289387443	 0.9173773252	 0.296185
91.9616	232.0958	292.7594	311.6571	355.5807	368.5525	417.0835	481.2012	513.6125	573.5587	602.5024	655.9848	682.6642	742.6997	787.2793	834.524	846.6676	862.9185	878.9892	963.9731	968.6953	1004.0795	1046.1402	1115.0175	1123.9555	1137.6381	1198.4466	1209.0718	1244.9643	1272.3807	1309.1433	1330.9181	1337.9911	1351.7735	1362.5263	1378.0796	1425.4598	1444.5789	1453.6585	1467.9666	1485.3642	3017.9041	3031.6919	3049.8678	3059.2963	3087.5334	3110.7213	3577.6032	3606.9917	3619.947	3648.623
OC1CC(O)C(O)C1O	O[C@H]1C[C@@H](O)[C@@H](O)[C@H]1O	
InChI=1S/C5H10O4/c6-2-1-3(7)5(9)4(2)8/h2-9H,1H2	InChI=1S/C5H10O4/c6-2-1-3(7)5(9)4(2)8/h2-9H,1H2/t2-,3+,4-,5+
