19
gdb 91095	2.69927	1.69483	1.56749	2.8969	73.32	-0.2425	0.0664	0.3089	961.1773	0.160689	-423.002359	-422.99504	-422.994096	-423.033862	29.421	
C	 0.4508232097	 1.4532322651	-0.3506205252	-0.412928
C	 0.0928415594	 0.0409756868	 0.0639421665	 0.158016
O	 0.596895327	-0.9673067814	-0.8558680603	-0.305953
C	 1.3159096202	-1.6430407366	 0.1903799031	 0.107598
C	 2.8284349759	-1.4841329221	 0.1399264013	 0.01043
O	 3.2456676825	-0.1538522245	-0.186540925	-0.234908
C	 3.2483933991	-0.5347774415	 1.1897597684	 0.047418
C	 2.042082127	-0.0202807859	 1.9598314633	-0.273385
C	 0.8119881645	-0.6444960179	 1.264150287	-0.11544
H	 1.5309073313	 1.5652250361	-0.4554820291	 0.146359
H	-0.0168831976	 1.6821200262	-1.3135604375	 0.123248
H	 0.0759562087	 2.1743830904	 0.3849287271	 0.106297
H	-0.9988085479	-0.0554513138	 0.1427369574	 0.0716
H	 1.0259832914	-2.6968239273	 0.2775837734	 0.07124
H	 3.4694165718	-2.2761244089	-0.238776354	 0.097806
H	 4.2289937247	-0.5728140361	 1.6595566288	 0.095935
H	 2.1034745573	-0.3523175761	 3.002078078	 0.104882
H	 2.0180969441	 1.0742418764	 1.9721024661	 0.119802
H	 0.1080197609	-1.0524913788	 1.9902123607	 0.081985
129.2312	195.1963	223.3265	257.4146	361.512	383.4563	482.8933	542.243	660.1025	674.1954	741.4291	819.9853	837.189	862.798	882.4766	893.0278	921.241	960.6656	994.3182	1026.5673	1034.2232	1059.1019	1090.5706	1109.1531	1121.1128	1156.5235	1198.7562	1225.1439	1255.1436	1258.5673	1297.3295	1317.9173	1329.864	1342.5053	1363.3474	1384.2321	1406.2896	1432.3594	1473.9961	1481.8207	1508.3968	3000.4036	3035.4264	3036.9726	3044.8111	3083.5079	3099.8271	3101.629	3135.4731	3149.1155	3151.7442
CC1OC2C3OC3CC12	C[C@H]1O[C@H]2[C@H]3O[C@H]3C[C@@H]12	
InChI=1S/C7H10O2/c1-3-4-2-5-7(9-5)6(4)8-3/h3-7H,2H2,1H3	InChI=1S/C7H10O2/c1-3-4-2-5-7(9-5)6(4)8-3/h3-7H,2H2,1H3/t3-,4+,5+,6-,7+/m1/s1
