18
gdb 37870	3.2222	2.18998	1.75459	1.7147	79.08	-0.2198	0.0055	0.2252	828.8461	0.151778	-364.725839	-364.720157	-364.719213	-364.755358	25.631	
C	-0.0331759781	 1.5336772162	 0.0454925832	-0.265143
N	 1.495058746	 1.2745890924	 0.0514909814	-0.188718
C	 1.193838595	 0.0527993014	 0.9320515122	 0.005836
C	 2.182931314	-1.0433264641	 0.5817260246	-0.237631
C	 1.7950849657	-1.1663769514	-0.9317487364	-0.137228
C	 0.5062738326	-2.0073735976	-1.004349192	-0.070028
C	-0.5509560395	-1.3265662147	-0.5179870724	-0.249263
C	 0.0189696819	 0.0034640104	-0.1288755253	 0.268259
C	 1.1923803871	 0.240927081	-1.0747233451	 0.042629
H	-0.3977133853	 1.9454790675	 0.990784716	 0.101562
H	-0.3700521276	 2.1356366183	-0.8033786408	 0.103913
H	 0.9785682371	 0.2777839661	 1.9774298985	 0.06985
H	 3.2168816187	-0.7080201033	 0.7084583654	 0.113534
H	 2.0316510858	-1.9661350553	 1.146972773	 0.100955
H	 2.59870292	-1.479825808	-1.597623053	 0.065738
H	 0.5048790327	-3.0522206076	-1.293880682	 0.098668
H	-1.5477975196	-1.7147448651	-0.3524491537	 0.103888
H	 1.0221197135	 0.6599875239	-2.0675792635	 0.073181
342.2123	360.9252	427.1005	439.6303	543.1224	615.55	699.4513	731.2108	735.2202	789.4642	809.2669	838.5436	867.2545	894.2222	908.0933	931.3511	940.1148	957.0708	986.4061	1014.9076	1018.5342	1041.9123	1084.1459	1107.7162	1109.7891	1135.3225	1169.66	1184.0074	1210.1218	1224.691	1252.6888	1276.2876	1293.8156	1313.1144	1350.0529	1355.7754	1478.3101	1526.175	1586.6157	3048.5384	3057.1627	3104.4315	3107.3036	3112.5734	3114.4617	3118.9899	3191.2402	3218.131
C1N2C3CC4C=CC13C24	C1N2[C@@H]3C[C@H]4C=C[C@@]13[C@@H]24	
InChI=1S/C8H9N/c1-2-8-4-9-6(8)3-5(1)7(8)9/h1-2,5-7H,3-4H2	InChI=1S/C8H9N/c1-2-8-4-9-6(8)3-5(1)7(8)9/h1-2,5-7H,3-4H2/t5-,6-,7+,8-/m1/s1
