13
gdb 129491	4.44122	1.16573	0.92336	1.36	61.71	-0.2531	-0.0318	0.2214	1148.4301	0.091238	-486.133716	-486.126066	-486.125122	-486.16616	27.969	
N	-0.0902893977	 1.3202665341	-0.0249457035	-0.566458
C	 0.0721437315	-0.0175512978	-0.0179623652	 0.523715
O	 1.110280679	-0.6363075381	-0.0446736248	-0.374806
N	-1.1779434471	-0.7096455224	 0.0258434199	-0.047308
C	-1.3657077805	-2.0483762215	 0.0420791895	 0.052498
N	-2.6505195947	-2.329399171	 0.0841760929	-0.369805
C	-3.2231774059	-1.0872057733	 0.0919013892	 0.45438
O	-4.5448551902	-0.91164039	 0.1314330812	-0.400456
N	-2.392052517	-0.0667973471	 0.0580881029	-0.343474
H	 0.7299723145	 1.8990866259	-0.052894873	 0.278361
H	-1.0163411365	 1.7160173529	 0.0019122026	 0.292703
H	-0.5416347507	-2.7430389526	 0.0221709769	 0.1827
H	-4.942599765	-1.7909831891	 0.1511281713	 0.317949
89.6401	131.4517	194.7027	250.2504	354.4305	400.735	428.2052	432.3127	554.5739	597.71	629.3159	672.5065	765.3155	773.0695	773.3411	902.5596	1009.1651	1043.5777	1103.0935	1166.5044	1221.9049	1288.1444	1340.2072	1415.3294	1442.496	1521.2329	1592.8288	1656.8756	1848.9867	3287.5793	3600.9847	3750.7266	3809.135
NC(=O)N1C=NC(O)=N1	NC(=O)n1cnc(O)n1	
InChI=1S/C3H4N4O2/c4-2(8)7-1-5-3(9)6-7/h1H,(H2,4,8)(H,6,9)	InChI=1S/C3H4N4O2/c4-2(8)7-1-5-3(9)6-7/h1H,(H2,4,8)(H,6,9)
