17
gdb 33255	5.57832	0.76799	0.6957	2.6169	71.54	-0.1954	0.0167	0.2121	1559.8949	0.13711	-455.158308	-455.149726	-455.148781	-455.192546	30.897	
O	-0.0310638291	 1.4036673926	-0.2866297023	-0.419394
C	-0.0217717713	 0.0209927582	 0.0469812142	-0.093817
C	-1.4683779766	-0.4436227841	 0.0797495332	-0.127561
N	-2.0753089462	-0.2433419911	-1.221900059	-0.391769
C	-3.4028263471	-0.5742232454	-1.3879675664	 0.318654
C	-4.221898855	-1.3794067008	-0.6533795097	-0.133638
O	-5.4451163844	-1.4180946274	-1.2967771165	-0.144642
C	-5.2830220826	-0.6244693849	-2.3649534882	 0.082647
N	-4.1094852811	-0.0925918191	-2.4851016549	-0.324231
H	 0.8676984283	 1.6756002311	-0.4916723086	 0.294273
H	 0.5301410573	-0.563610802	-0.7029849775	 0.102997
H	 0.440041925	-0.1525590659	 1.030342408	 0.093945
H	-1.4907061568	-1.5115921367	 0.3308805821	 0.109069
H	-2.007141877	 0.0931688324	 0.8791433782	 0.10398
H	-1.8396777524	 0.6528623956	-1.6277493564	 0.25191
H	-4.1325670857	-1.9570917273	 0.2473569311	 0.131658
H	-6.1336544052	-0.5013858453	-3.0171963471	 0.145919
58.2844	76.3198	128.2087	174.4883	255.0909	294.1569	342.5358	453.1927	486.5955	617.6742	632.6184	640.1946	737.9032	771.0859	843.5583	894.8832	927.4704	939.3826	1017.1376	1076.7445	1091.1852	1100.7118	1150.877	1165.0489	1209.6812	1250.152	1270.2498	1288.5551	1312.3419	1349.1275	1397.3909	1458.8015	1488.106	1506.0256	1513.2723	1568.4126	1664.2741	2960.8878	2987.28	3028.013	3045.1577	3272.153	3313.3699	3585.1715	3840.7472
OCCNC1=COC=N1	OCCNc1cocn1	
InChI=1S/C5H8N2O2/c8-2-1-6-5-3-9-4-7-5/h3-4,6,8H,1-2H2	InChI=1S/C5H8N2O2/c8-2-1-6-5-3-9-4-7-5/h3-4,6,8H,1-2H2
