21
gdb 53619	4.55428	0.71218	0.64722	1.4445	88.13	-0.2315	0.0632	0.2947	1795.5216	0.181898	-387.078838	-387.068745	-387.0678	-387.117044	34.915	
C	 0.0417479547	 1.5113043571	-0.0201663797	-0.497032
C	 0.044177243	 0.0562255278	 0.0292617509	 0.096625
C	 0.0446207804	-1.1464530389	 0.0790355378	 0.046751
C	 0.0327579356	-2.6038156276	 0.12374811	-0.368302
C	-1.3722055785	-3.2160007313	 0.0069282471	 0.162775
C	-1.379846676	-4.7514055596	-0.0414623128	-0.2444
C	-2.7258338846	-5.0887784039	 0.6128754529	-0.230898
C	-2.8284456461	-3.9916344723	 1.6785589336	-0.056678
O	-2.1544258987	-2.8527659285	 1.1472819557	-0.271122
H	 0.3568561162	 1.880855783	-1.0025624871	 0.142207
H	-0.9578102138	 1.9136127005	 0.1792256032	 0.147364
H	 0.7224303919	 1.9366332053	 0.725934362	 0.144538
H	 0.6495982545	-3.0050199341	-0.6923192018	 0.11892
H	 0.4810875961	-2.9588012263	 1.0607991176	 0.123344
H	-1.8561763755	-2.8062780083	-0.8926509275	 0.075789
H	-1.2761658157	-5.1382644755	-1.0580424174	 0.104191
H	-0.5522051559	-5.1504933113	 0.5577657863	 0.101715
H	-3.5387378043	-4.9921464665	-0.1147083583	 0.10832
H	-2.7673856794	-6.0960414124	 1.0344812092	 0.102595
H	-3.8615572492	-3.712148288	 1.9126291268	 0.102633
H	-2.3446982444	-4.3066863294	 2.6159125815	 0.090663
17.3161	28.6691	53.9258	82.3193	204.2626	207.5996	262.2483	319.6593	383.7312	401.0148	484.509	589.6476	668.5387	771.3719	820.2867	875.0738	889.823	916.7852	942.6345	984.1998	1025.8636	1052.2186	1054.0532	1080.5515	1109.0847	1135.1558	1171.0667	1193.6279	1205.1736	1236.2071	1266.0123	1295.0133	1326.1634	1341.844	1363.7658	1394.9429	1400.7922	1415.1706	1456.7066	1479.264	1479.8122	1486.2729	1498.1175	1532.3934	2376.516	2980.3446	2984.7935	3008.8571	3023.7844	3034.7906	3046.0846	3047.7312	3061.3106	3082.4277	3084.1208	3101.2592	3109.298
CC#CCC1CCCO1	CC#CC[C@H]1CCCO1	
InChI=1S/C8H12O/c1-2-3-5-8-6-4-7-9-8/h8H,4-7H2,1H3	InChI=1S/C8H12O/c1-2-3-5-8-6-4-7-9-8/h8H,4-7H2,1H3/t8-/m0/s1
