12
gdb 133372	3.133	1.48223	1.00699	3.9993	61.61	-0.2258	-0.0718	0.154	1047.0526	0.078889	-510.125406	-510.118229	-510.117284	-510.15708	27.114	
N	-0.0053752976	 1.3580036745	 0.1513359522	-0.553432
C	-0.0327140421	-0.0111499153	 0.0429091051	 0.462028
N	-1.1806371597	-0.6270759799	 0.0057217064	-0.286756
N	-1.0992028142	-1.9865024326	-0.0136026044	-0.272091
C	 0.0299521705	-2.7684501283	-0.0192948086	 0.314789
O	 0.0340162692	-3.9839823877	-0.0386075196	-0.377592
C	 1.2247838669	-1.8902664697	-0.0052571392	 0.24276
F	 2.3757844066	-2.5156605182	-0.0350334866	-0.022136
N	 1.2105028144	-0.6159140998	 0.0259447145	-0.328387
H	 0.8374674992	 1.7946558953	-0.1864251516	 0.2698
H	-0.8652732964	 1.828824751	-0.0831665946	 0.267812
H	-1.9902526569	-2.4635528793	-0.0338241735	 0.283205
106.532	223.6648	306.7438	320.1948	350.0204	419.9844	433.7621	503.8154	530.0742	547.1552	609.5806	680.0322	715.4788	740.8727	794.9759	840.8381	1007.2448	1095.0893	1243.9866	1263.8094	1370.6313	1410.1316	1476.5781	1589.5015	1642.7888	1695.9551	1797.5942	3592.7253	3607.3367	3711.1223
NC1=NNC(=O)C(F)=N1	Nc1n[nH]c(=O)c(F)n1	
InChI=1S/C3H3FN4O/c4-1-2(9)7-8-3(5)6-1/h(H,7,9)(H2,5,6,8)	InChI=1S/C3H3FN4O/c4-1-2(9)7-8-3(5)6-1/h(H,7,9)(H2,5,6,8)
