27
gdb 101614	2.9404	0.80615	0.76053	1.3013	92.68	-0.258	0.0648	0.3228	1728.8662	0.248896	-390.708767	-390.696838	-390.695893	-390.745673	44.859	
C	 0.8762030429	 0.8165914826	-0.7343623891	-0.382683
C	 0.438739998	-0.6337870255	-0.5182393074	-0.179096
C	-1.0732218542	-0.7807979311	-0.2833434437	 0.116395
O	-1.8118165075	-0.2064612074	-1.3651245669	-0.421977
C	-1.4560089357	-2.2419240005	-0.0032548242	-0.218789
C	-2.9202576485	-2.5696993182	 0.3961275917	 0.274395
C	-3.8841461791	-2.4116362398	-0.7959436848	-0.413795
C	-2.952105641	-4.0390622884	 0.8614050952	-0.40049
C	-3.3878832693	-1.6704957536	 1.5551262959	-0.407823
H	 1.9459607099	 0.8799102958	-0.9553661342	 0.107055
H	 0.323363306	 1.2653333598	-1.5635109505	 0.12695
H	 0.6830716462	 1.4222618868	 0.1581470687	 0.112711
H	 0.7177644134	-1.2433238563	-1.3906897847	 0.083017
H	 0.9739963349	-1.065280821	 0.3366918857	 0.094749
H	-1.3463936384	-0.162057957	 0.5799623714	 0.087832
H	-1.646799166	-0.7464462844	-2.1466632769	 0.275286
H	-1.1891945709	-2.8447708778	-0.8852898348	 0.077197
H	-0.7993477409	-2.5939821346	 0.8038597007	 0.090678
H	-3.5899927373	-3.0638563953	-1.6273530441	 0.094041
H	-4.902687126	-2.6932897368	-0.5051376865	 0.101231
H	-3.8984918783	-1.3831460038	-1.1598279975	 0.134685
H	-2.3219580573	-4.192639343	 1.7447986179	 0.104694
H	-3.9716924414	-4.344654818	 1.1205616473	 0.106359
H	-2.5932911602	-4.7120290612	 0.0742470103	 0.104873
H	-3.4743458133	-0.6243082115	 1.2472196956	 0.123651
H	-4.372628559	-1.989180844	 1.9139749584	 0.106385
H	-2.6954634271	-1.7195276359	 2.4037641268	 0.10247
37.0516	84.5231	133.9476	143.4982	223.1784	236.8643	259.9664	270.4445	288.1294	300.455	308.0406	330.4435	350.3548	389.9454	416.6533	458.6028	484.7681	561.9957	748.2122	778.4961	849.1803	894.7588	918.8085	933.5417	942.1394	963.1242	981.8032	1023.7846	1044.022	1051.0586	1077.6124	1107.4347	1140.4596	1168.1998	1230.3077	1263.9988	1270.3788	1289.89	1313.3965	1364.9275	1372.8929	1388.6729	1398.2306	1400.8478	1405.9154	1421.6131	1433.2197	1466.9375	1480.6214	1482.7114	1489.259	1492.882	1496.3612	1506.92	1509.3802	1512.0316	1524.4815	2987.5657	3000.4967	3019.2317	3022.1001	3029.	3032.0214	3037.148	3041.5135	3059.0913	3079.1424	3086.96	3089.4773	3093.8793	3100.6439	3105.3823	3123.0907	3136.3917	3792.4041
CCC(O)CC(C)(C)C	CC[C@@H](O)CC(C)(C)C	
InChI=1S/C8H18O/c1-5-7(9)6-8(2,3)4/h7,9H,5-6H2,1-4H3	InChI=1S/C8H18O/c1-5-7(9)6-8(2,3)4/h7,9H,5-6H2,1-4H3/t7-/m1/s1
