17
gdb 67714	2.28878	2.00664	1.71961	1.7174	66.21	-0.239	0.0645	0.3035	888.2882	0.137499	-458.939073	-458.932038	-458.931094	-458.970244	28.17	
O	-0.0525118183	 1.3561898828	-0.0869671349	-0.466636
C	 0.0220465031	-0.0252102414	-0.0234345094	 0.325969
C	-1.185603313	-0.9138162304	-0.0506413177	-0.153444
C	-0.953081719	-1.9821020495	-1.1065234277	-0.096669
O	 0.3277185495	-1.7081233332	-1.6859787333	-0.266897
C	 1.060804204	-0.8588455896	-0.8122257563	-0.000081
C	 1.7403676672	-1.6610013656	 0.3048589452	-0.096285
O	 0.7022169998	-1.9371987168	 1.2588276257	-0.261361
C	-0.245809664	-0.9046385119	 1.1579585902	 0.001234
H	 0.6213350682	 1.7265634877	 0.4936837366	 0.286381
H	-2.1735742602	-0.4914297314	 0.0909424749	 0.103723
H	-0.9627700587	-2.990767733	-0.6727558582	 0.109493
H	-1.7052622337	-1.9350185344	-1.901011381	 0.109802
H	 1.7506398714	-0.2560051069	-1.4065540571	 0.092095
H	 2.1510018365	-2.6113312463	-0.0426905576	 0.121636
H	 2.5387717924	-1.0666319335	 0.777005911	 0.086818
H	-0.6151938453	-0.5341015266	 2.1083013195	 0.104222
157.44	210.2292	238.1446	306.3384	322.5062	409.5861	535.6268	566.8546	625.5925	720.543	754.03	766.8133	845.8869	878.5041	931.0532	934.3505	963.3703	996.8665	1008.8245	1035.5155	1068.1824	1079.1208	1106.6553	1127.0257	1195.0752	1200.4204	1231.2937	1234.8896	1268.0043	1305.5128	1324.7403	1339.521	1365.5869	1383.4608	1467.984	1498.818	1516.863	2980.7129	3016.3717	3067.9081	3100.6007	3112.0248	3170.0492	3189.0875	3797.305
OC12C3COC1COC23	O[C@@]12[C@H]3CO[C@@H]1CO[C@@H]23	
InChI=1S/C6H8O3/c7-6-3-1-8-4(6)2-9-5(3)6/h3-5,7H,1-2H2	InChI=1S/C6H8O3/c7-6-3-1-8-4(6)2-9-5(3)6/h3-5,7H,1-2H2/t3-,4+,5+,6-/m0/s1
