21
gdb 106036	2.4895	1.53096	1.21782	1.6184	81.69	-0.2443	0.0615	0.3058	1119.9144	0.182761	-387.036771	-387.02812	-387.027176	-387.069966	33.621	
C	-0.051076097	 1.6039103815	-0.1800081155	-0.431507
C	 0.0699562723	 0.087996927	-0.0586953395	-0.024099
C	 1.1632313174	-0.6996195987	-0.8431265978	-0.084488
C	 2.5189980362	-0.1039756092	-0.3721045139	-0.240394
C	 2.1755995487	-0.6870313644	 0.9964886939	-0.10046
C	 1.2400278043	-1.7011067126	 0.3807464136	-0.143293
C	 0.6519862853	-0.5739584376	 1.1993205052	 0.324889
C	 0.0395552069	-0.6450407243	 2.5648639242	-0.198969
O	 0.2044827005	 0.5468753317	 3.328904659	-0.41437
H	 0.8695738025	 2.1174189498	 0.1104292555	 0.123911
H	-0.2928415198	 1.8996535179	-1.207438088	 0.115756
H	-0.8576964351	 1.9842637202	 0.4591027286	 0.103974
H	-0.9022154871	-0.3762470225	-0.2683300329	 0.066516
H	 1.005492843	-0.968528136	-1.886109218	 0.065411
H	 3.359424513	-0.6387286168	-0.8238857351	 0.099104
H	 2.6795359416	 0.9744613355	-0.4778527267	 0.087877
H	 2.8256050687	-0.8182486959	 1.8524123715	 0.088129
H	 1.1614780579	-2.7747233472	 0.4748121086	 0.088676
H	-1.02682376	-0.9124797301	 2.4818584111	 0.084448
H	 0.5224808508	-1.4356637879	 3.1505660334	 0.106869
H	-0.2003256401	 1.2671820195	 2.8360425429	 0.282019
75.6982	127.2648	184.1342	216.9621	251.8359	271.7853	333.1387	397.2442	469.9098	561.1449	658.2383	684.094	766.163	788.111	829.912	839.8998	897.9605	914.418	959.9084	972.2947	983.5959	1004.6152	1022.11	1047.3472	1076.5976	1101.6084	1107.7725	1122.3231	1140.8542	1147.8546	1183.6433	1211.6248	1251.846	1269.1229	1272.1555	1325.6476	1371.4225	1377.9588	1401.8726	1410.1142	1436.0807	1491.8617	1494.224	1496.9162	1516.4866	2967.1403	3019.6494	3025.9471	3038.1095	3058.9761	3077.7057	3091.4246	3111.7612	3128.6921	3194.9931	3219.2711	3823.4982
CC1C2CC3C2C13CO	C[C@H]1[C@H]2C[C@@H]3[C@H]2[C@]13CO	
InChI=1S/C8H12O/c1-4-5-2-6-7(5)8(4,6)3-9/h4-7,9H,2-3H2,1H3	InChI=1S/C8H12O/c1-4-5-2-6-7(5)8(4,6)3-9/h4-7,9H,2-3H2,1H3/t4-,5+,6+,7-,8+/m0/s1
