18
gdb 98327	3.5937	0.86872	0.772	4.1039	76.02	-0.255	0.0134	0.2684	1479.6445	0.144841	-439.069245	-439.058991	-439.058046	-439.105436	35.903	
C	-0.307658878	 1.3186600435	 0.1042551753	-0.351152
N	-0.1681372603	-0.1118314304	-0.1104195946	-0.092562
C	-0.2106415199	-0.9654356264	 1.0788276932	-0.321399
C	-1.4931029012	-0.9040515597	 1.7767548419	 0.308187
C	-2.541846229	-0.8397835613	 2.3594743925	-0.450257
C	 0.1026953568	-0.6868064101	-1.3134589158	 0.402899
O	 0.2730963399	-1.8925387445	-1.4545706804	-0.402715
C	 0.2017645299	 0.2083274139	-2.5580920199	-0.153382
O	 0.5066629073	-0.5755537306	-3.6709536753	-0.423006
H	-0.505250665	 1.8366380214	-0.8326753342	 0.151782
H	-1.1512043788	 1.5018156477	 0.7762759448	 0.151914
H	 0.5964099859	 1.7466980991	 0.557929219	 0.131343
H	-0.0040431522	-1.9826584618	 0.7382909523	 0.183747
H	 0.5955090285	-0.673463404	 1.7668582683	 0.136818
H	-3.4713942846	-0.8016795649	 2.8720876292	 0.207082
H	-0.7537851436	 0.7387899394	-2.7001690632	 0.114031
H	 0.9733799832	 0.9769998369	-2.3952620379	 0.111316
H	 0.5474473412	-1.4832914483	-3.3224250053	 0.295355
37.4596	79.2803	96.1092	128.7423	160.0812	240.0642	254.6345	329.3067	356.7844	377.5619	419.1687	460.2033	565.6104	590.1191	619.6812	664.5081	676.2784	813.7485	918.4559	966.8492	1021.8504	1035.1338	1117.6662	1153.4274	1161.2429	1226.7671	1265.112	1288.3693	1309.0776	1374.7306	1427.7294	1470.3972	1475.0952	1482.9118	1492.9296	1507.5271	1533.6712	1739.781	2240.2505	2972.2495	2995.1251	3006.437	3016.3934	3091.0643	3109.8417	3163.7186	3503.0797	3641.4468
CN(CC#C)C(=O)CO	CN(CC#C)C(=O)CO	
InChI=1S/C6H9NO2/c1-3-4-7(2)6(9)5-8/h1,8H,4-5H2,2H3	InChI=1S/C6H9NO2/c1-3-4-7(2)6(9)5-8/h1,8H,4-5H2,2H3
