21
gdb 68589	2.07292	1.87283	1.5667	1.0627	77.36	-0.2471	0.0716	0.3186	1008.2989	0.182527	-424.222056	-424.213326	-424.212382	-424.25435	35.431	
C	-0.1320054869	 1.5261490514	-0.02136203	-0.482377
C	 0.0048501489	 0.0070891585	-0.025220565	 0.420221
O	-1.2645009575	-0.5762326081	-0.2649781122	-0.491974
C	 1.1376354747	-0.6074986152	-0.8983978031	-0.068626
C	 2.1166303635	-0.2643205726	 0.2626164264	-0.315833
C	 0.8616945535	-0.6058104198	 1.1305558865	 0.367129
O	 0.6505851823	-0.1173330685	 2.4205707801	-0.502342
C	 0.7083869317	-2.1178677631	 0.874272049	-0.26977
C	 0.927684197	-2.1226933481	-0.6737251567	-0.214872
H	 0.8177804695	 2.053256083	 0.0769912611	 0.123884
H	-0.6137138326	 1.8495721484	-0.9489581862	 0.121137
H	-0.7612807481	 1.8395720621	 0.8203551663	 0.118881
H	-1.8931424711	-0.1744633357	 0.3438563706	 0.278636
H	 1.3107403773	-0.2625813897	-1.9172788691	 0.061439
H	 2.9921660857	-0.9103256572	 0.3716148155	 0.085882
H	 2.4157221081	 0.7810858976	 0.3148992917	 0.101924
H	 1.1223057929	-0.6791528748	 3.0443020987	 0.279117
H	 1.4635181437	-2.6967534976	 1.4174010974	 0.07892
H	-0.2828789212	-2.4752115344	 1.1581304916	 0.103788
H	 0.0596870922	-2.5060850663	-1.2108860364	 0.115443
H	 1.8081722964	-2.6975817698	-0.9738197664	 0.089392
181.4351	193.7204	222.766	240.5058	268.0675	290.0797	303.9617	378.0216	411.7018	481.8433	508.4177	553.5127	605.411	673.6948	723.3271	800.9944	841.3905	870.6293	892.6955	940.3925	951.2821	972.4315	986.6804	1022.4136	1073.5706	1091.5161	1118.3595	1126.6811	1163.9061	1183.6483	1200.4429	1225.6949	1235.555	1262.1806	1270.9558	1307.9819	1317.4703	1357.089	1398.8082	1410.9504	1480.8782	1488.1087	1493.4118	1502.8382	1521.716	3034.1853	3041.7261	3063.841	3068.1726	3097.6066	3111.6076	3120.2505	3130.1407	3133.9763	3152.7417	3807.7674	3810.9563
CC1(O)C2CC1(O)CC2	C[C@@]1(O)[C@H]2C[C@]1(O)CC2	
InChI=1S/C7H12O2/c1-6(8)5-2-3-7(6,9)4-5/h5,8-9H,2-4H2,1H3	InChI=1S/C7H12O2/c1-6(8)5-2-3-7(6,9)4-5/h5,8-9H,2-4H2,1H3/t5-,6-,7-/m1/s1
