23
gdb 116504	2.7568	1.19042	0.91758	1.7255	82.34	-0.2487	0.0819	0.3306	1359.5029	0.206806	-425.429815	-425.420357	-425.419413	-425.464735	35.196	
C	 0.1172677178	 1.4083773698	-0.1230046854	-0.240208
O	 0.0303037173	-0.001390605	-0.0306692327	-0.237625
C	 0.6343102289	-0.5375866326	 1.1036972179	 0.221605
C	 0.3708295562	-2.0434279323	 1.087930404	-0.215671
C	 0.5371992238	-2.777650918	 2.4392861031	-0.204505
C	 1.4967995865	-2.1569494038	 3.4758218634	-0.194817
C	 2.8358635196	-1.6320281881	 2.9338553215	-0.19475
C	 2.7290646544	-0.2618763642	 2.2568249995	-0.066903
O	 2.0255067109	-0.261338489	 1.0301956037	-0.257311
H	 1.1560349042	 1.7444711042	-0.2077193188	 0.126316
H	-0.4352088396	 1.7010122458	-1.0185330724	 0.124163
H	-0.3409404947	 1.8938572064	 0.7529951886	 0.098486
H	 0.2271673729	-0.0524915544	 2.0143424104	 0.044857
H	-0.6423895418	-2.2023934237	 0.7077471972	 0.10773
H	 1.0563141694	-2.4533520111	 0.3395801002	 0.113639
H	-0.4434045627	-2.8768218495	 2.9190844137	 0.099179
H	 0.863737385	-3.8019922351	 2.2259857914	 0.101174
H	 0.9926861861	-1.3314363132	 3.9962608708	 0.094978
H	 1.6882340714	-2.9131294458	 4.2458216759	 0.094077
H	 3.5421886118	-1.525866989	 3.767352011	 0.094283
H	 3.2823555489	-2.3485406122	 2.2331243709	 0.1034
H	 2.2673860475	 0.4526197753	 2.9610720867	 0.083239
H	 3.7278299863	 0.1145382857	 2.0136683593	 0.104661
40.0975	94.3494	130.9874	186.0634	199.8416	266.8443	328.2456	340.4472	371.3263	462.1869	507.0922	522.7391	591.3521	752.8719	780.1925	868.6682	887.0344	908.4191	960.5104	1013.4514	1029.9421	1039.7539	1054.3828	1123.4575	1129.4552	1140.1139	1166.3227	1179.9949	1211.3429	1217.8698	1243.569	1272.5802	1295.0091	1320.0642	1336.8486	1376.3239	1379.4912	1387.041	1400.3261	1415.142	1425.5933	1473.9986	1476.2014	1479.2698	1481.5864	1489.2705	1496.4946	1506.5708	1514.1064	2892.249	2952.885	2984.6181	3013.1328	3020.2387	3028.6324	3051.8772	3054.3606	3063.732	3067.5686	3071.4972	3075.0342	3101.2594	3125.3184
COC1CCCCCO1	CO[C@H]1CCCCCO1	
InChI=1S/C7H14O2/c1-8-7-5-3-2-4-6-9-7/h7H,2-6H2,1H3	InChI=1S/C7H14O2/c1-8-7-5-3-2-4-6-9-7/h7H,2-6H2,1H3/t7-/m1/s1
