21
gdb 86000	1.99678	1.54	1.35546	3.0747	78.51	-0.2479	-0.0367	0.2113	1127.1491	0.18051	-424.234103	-424.224375	-424.22343	-424.268186	36.575	
C	-0.5061288591	 1.3918701432	-0.1143457042	-0.413897
C	-0.1034866132	-0.077820411	-0.0458435434	-0.020876
C	 1.1442017896	-0.475907758	-0.8871521421	-0.29158
C	 2.0082375132	-0.5857416458	 0.43022848	 0.176504
C	 2.8564040736	-1.847763619	 0.5846941056	-0.480208
C	 2.8878775971	 0.632106618	 0.5341943872	 0.132873
O	 2.6364342838	 1.6548592344	 1.1335963747	-0.281885
C	 0.6708655546	-0.510517909	 1.2457729069	 0.104287
O	 0.6060355587	 0.2652778759	 2.4048454034	-0.43444
H	 0.3453444519	 2.0605132657	 0.0392122148	 0.129644
H	-0.9435425471	 1.624611703	-1.0910452945	 0.110361
H	-1.2496171972	 1.6203701722	 0.6550860022	 0.128063
H	-0.9814125194	-0.6998522742	-0.2439399391	 0.071884
H	 1.0586411145	-1.4462193273	-1.3827909438	 0.107255
H	 1.4788810614	 0.258181423	-1.6263319132	 0.106882
H	 3.7041709989	-1.8522511724	-0.1106398714	 0.120507
H	 3.2535674144	-1.9357178082	 1.6018816369	 0.135324
H	 2.2547096631	-2.738216151	 0.3805303982	 0.125699
H	 3.8435122143	 0.5473325082	-0.0326942494	 0.092678
H	 0.3734959847	-1.5238939333	 1.5366728077	 0.082492
H	 1.1065733222	 1.0750733252	 2.2286912435	 0.298431
86.0406	108.7766	192.3759	211.0291	222.3095	244.2117	265.6176	293.1123	313.6119	380.8875	412.9823	523.1888	575.4797	626.3081	677.7032	778.5541	814.0888	857.1355	874.4642	911.6609	948.0092	990.8026	1015.7754	1054.4419	1093.5181	1140.7129	1150.3921	1181.5595	1201.5478	1220.5048	1261.0412	1273.0713	1307.2762	1331.5464	1370.2357	1405.695	1416.0505	1432.1164	1465.8367	1484.0235	1494.3568	1497.5394	1499.4387	1506.9955	1789.9824	2870.1658	3025.5662	3038.7563	3040.9535	3049.1708	3059.7606	3091.9097	3103.5025	3105.2392	3107.2776	3120.9617	3719.6534
CC1CC(C)(C=O)C1O	C[C@H]1C[C@@](C)(C=O)[C@H]1O	
InChI=1S/C7H12O2/c1-5-3-7(2,4-8)6(5)9/h4-6,9H,3H2,1-2H3	InChI=1S/C7H12O2/c1-5-3-7(2,4-8)6(5)9/h4-6,9H,3H2,1-2H3/t5-,6-,7-/m0/s1
