14
gdb 77804	2.42655	1.52604	1.12766	1.999	66.25	-0.2635	-0.0538	0.2097	1059.035	0.099021	-473.786888	-473.778974	-473.778029	-473.819631	29.164	
O	 0.0207405106	 1.3976620036	 0.0083625047	-0.412868
C	-0.0075966623	 0.0224501684	 0.0619178962	 0.088087
C	-0.3553845979	-0.8093335794	 1.2887815157	-0.298398
C	-1.516048488	-0.1786382818	 1.9802861792	 0.443824
N	-1.7956933471	 0.0906750136	 3.1663447834	-0.541599
O	-2.2719328879	-0.004445646	 0.8071164395	-0.297306
C	-1.2948077999	-0.7510690285	 0.0494258226	 0.279738
C	-1.7145363067	-1.8073901832	-0.8842177704	 0.069213
O	-2.8571532036	-2.0807315211	-1.1454118617	-0.25034
H	-0.8535131353	 1.7249410827	 0.2588749732	 0.308727
H	 0.7988121437	-0.4112351961	-0.5236855845	 0.139315
H	 0.2600516097	-1.6149260841	 1.6632167502	 0.141373
H	-2.7235993199	 0.5068653603	 3.2551030077	 0.243673
H	-0.8513175853	-2.3373697384	-1.3459968956	 0.086562
85.5568	138.9524	177.3635	231.0526	275.2006	374.631	407.3297	444.603	471.5504	641.3908	682.4966	705.7539	762.8153	821.1146	872.2262	898.3427	944.5299	959.3097	975.2403	1045.9952	1064.3994	1101.3972	1174.8666	1195.5715	1262.9759	1312.7796	1353.7972	1425.3814	1460.2843	1817.4283	1845.336	2881.5915	3162.9336	3228.1729	3491.5107	3771.3972
OC1C2C(=N)OC12C=O	O[C@H]1[C@H]2[C]([NH])O[C@@]12C=O	
InChI=1S/C5H5NO3/c6-4-2-3(8)5(2,1-7)9-4/h1-3,6,8H	InChI=1S/C5H5NO3/c6-4-2-3(8)5(2,1-7)9-4/h1-3,6,8H/t2-,3-,5+/m0/s1
