21
gdb 113824	4.09072	0.80481	0.7296	3.0419	80.43	-0.2494	0.0752	0.3246	1616.6259	0.180695	-424.187998	-424.178195	-424.17725	-424.223563	36.02	
C	-0.1094018881	 1.5366697946	-0.251468071	-0.374586
C	-0.0717130517	 0.1919371308	 0.4852878507	-0.211702
C	-1.3884739869	-0.5405236087	 0.3823581224	 0.066656
O	-1.7195687692	-1.1260374423	-0.884740176	-0.270737
C	-1.5443167447	-1.9982646547	 0.2416042423	 0.052288
C	-0.4038131967	-2.9590988238	 0.1803286786	-0.051175
C	-0.1433648219	-3.888341908	 1.3563408782	-0.339277
C	-0.6691626221	-4.4352491987	 0.0558581324	 0.094747
O	-2.0072992075	-4.8296691561	-0.0271478713	-0.412738
H	 0.8477281545	 2.0601095858	-0.1689336357	 0.110901
H	-0.3267860573	 1.3852301562	-1.3129305481	 0.134659
H	-0.8858834632	 2.1915775067	 0.1589302979	 0.114344
H	 0.7340218695	-0.4281635952	 0.0815656377	 0.101002
H	 0.1528727404	 0.352546336	 1.5480289615	 0.098719
H	-2.2264424903	-0.0045600564	 0.8380134297	 0.07949
H	-2.472411283	-2.4399464685	 0.6030233995	 0.098148
H	 0.4655139939	-2.5936218453	-0.3540943302	 0.098047
H	 0.8816656181	-4.0891020806	 1.647741876	 0.114643
H	-0.8510333338	-3.842166873	 2.1782890546	 0.116484
H	 0.0150409742	-5.0079216008	-0.5698478402	 0.090032
H	-2.1067599843	-5.6493447281	 0.4678180912	 0.290056
39.4906	69.0935	119.3183	175.2093	199.7312	230.966	285.058	310.9792	384.1978	438.1009	475.8656	502.9099	625.3322	751.4269	772.933	805.0419	843.9283	847.0933	905.0127	942.6722	995.5238	1017.2591	1027.3462	1048.6718	1060.405	1111.2097	1131.1765	1141.9853	1165.792	1184.6517	1200.3451	1234.6187	1291.0504	1293.1541	1302.9588	1324.7985	1347.9046	1408.3709	1418.0541	1430.3431	1474.1226	1478.5112	1498.4195	1505.6925	1513.6929	3027.011	3035.8484	3059.71	3083.9282	3101.4591	3106.4324	3116.279	3119.6715	3129.5176	3176.7267	3219.1363	3809.9656
CCC1OC1C1CC1O	CC[C@H]1O[C@H]1[C@H]1C[C@H]1O	
InChI=1S/C7H12O2/c1-2-6-7(9-6)4-3-5(4)8/h4-8H,2-3H2,1H3	InChI=1S/C7H12O2/c1-2-6-7(9-6)4-3-5(4)8/h4-8H,2-3H2,1H3/t4-,5+,6+,7-/m0/s1
