14
gdb 49223	4.29732	0.98124	0.87864	3.8041	70.76	-0.271	-0.0799	0.1912	1270.9369	0.09925	-436.659856	-436.651566	-436.650622	-436.693845	29.138	
O	-0.0816319836	 0.1361502044	 0.5008873118	-0.215004
C	 0.0599289358	 1.2931890429	 0.2142920403	 0.109351
C	 1.3978758209	 1.9367321156	-0.0072135604	 0.31377
N	 2.5303776386	 1.3758281058	 0.099049022	-0.271396
C	 3.5292695335	 2.4030664363	-0.2019381193	-0.202434
C	 2.7035767576	 3.7036515519	-0.4951870585	-0.088172
O	 1.3239489657	 3.2514694985	-0.3523486713	-0.253972
C	 2.9718775242	 4.8073769661	 0.4107204267	 0.330589
C	 3.2309690008	 5.7103636834	 1.1592675694	-0.451819
H	-0.7904016723	 1.9927819274	 0.0865569689	 0.107924
H	 4.204782112	 2.531758858	 0.6481272561	 0.143059
H	 4.1301413686	 2.0980527481	-1.0639903725	 0.134834
H	 2.8193625672	 4.0333753935	-1.5320922631	 0.129722
H	 3.4518904711	 6.5133000579	 1.8191060801	 0.213547
37.5947	109.7199	142.256	214.5872	227.5154	242.5109	423.0788	491.3262	561.5812	602.3991	629.0247	683.8894	735.8662	770.3006	834.2351	944.5429	967.3068	1020.5149	1031.392	1051.6557	1065.676	1200.8032	1209.8733	1302.6947	1326.9023	1370.2012	1428.4395	1489.6602	1711.0906	1837.8025	2242.5783	2939.3475	3055.3853	3062.7532	3100.7374	3500.481
O=CC1=NCC(O1)C#C	O=CC1=NC[C@@H](O1)C#C	
InChI=1S/C6H5NO2/c1-2-5-3-7-6(4-8)9-5/h1,4-5H,3H2	InChI=1S/C6H5NO2/c1-2-5-3-7-6(4-8)9-5/h1,4-5H,3H2/t5-/m0/s1
