17
gdb 16672	2.98194	2.29517	1.81046	3.4292	62.7	-0.2405	0.0658	0.3064	789.9445	0.145132	-400.983939	-400.977331	-400.976387	-401.014296	27.11	
O	-0.3998498314	 1.154765194	 1.0739810609	-0.446152
C	-0.0574394128	 0.1331307886	 0.1444083449	 0.05558
C	 0.9423817476	-0.8916484023	 0.7261868337	-0.242067
C	 0.0531872233	-1.921415812	 1.4064611673	-0.028036
N	-1.0050916326	-1.2784599871	 2.2249418235	-0.361391
C	-1.3231710594	-1.7963503832	 0.869065087	-0.064256
C	-1.3334071488	-0.7016030116	-0.1927699666	 0.143508
O	-2.4914667299	 0.0915940135	-0.2364899416	-0.443531
H	-0.6499335	 0.6728784308	 1.8829349416	 0.292351
H	 0.3333332975	 0.6463480934	-0.7367586151	 0.086753
H	 1.5132089118	-1.3719741466	-0.0770166423	 0.106314
H	 1.6514681226	-0.4082450799	 1.4046556197	 0.114812
H	 0.4596124767	-2.8709138752	 1.7385929214	 0.091124
H	-1.3467988099	-1.9257211496	 2.9293857263	 0.23921
H	-1.9979515476	-2.6414075359	 0.7862429872	 0.092731
H	-1.2180269756	-1.1827228662	-1.1735062276	 0.079191
H	-2.2881630812	 0.8541166894	 0.3266850797	 0.283859
174.241	246.1432	298.0595	375.4465	409.4991	475.8832	498.8226	554.7695	655.218	749.2527	787.1575	820.996	836.8035	866.9845	890.8581	901.3223	953.8875	988.7592	1038.3514	1073.3986	1091.8667	1125.7828	1127.9993	1156.2557	1205.8841	1243.485	1258.2723	1262.2895	1316.5912	1328.6789	1356.8672	1384.2621	1417.2385	1449.8975	1471.2554	1483.162	3019.8573	3043.4265	3091.2548	3095.6866	3164.7424	3177.5097	3516.3952	3614.6758	3706.4094
OC1CC2NC2C1O	O[C@H]1C[C@H]2N[C@H]2[C@H]1O	
InChI=1S/C5H9NO2/c7-3-1-2-4(6-2)5(3)8/h2-8H,1H2	InChI=1S/C5H9NO2/c7-3-1-2-4(6-2)5(3)8/h2-8H,1H2/t2-,3+,4-,5+/m1/s1
