19
gdb 95739	2.91482	1.17019	0.87621	1.2045	88.36	-0.2309	-0.0194	0.2115	1331.0207	0.158791	-385.870567	-385.861745	-385.8608	-385.903888	33.697	
C	-0.0818964433	 1.560183346	-0.0452913985	-0.403264
C	 0.0035796769	 0.027203534	-0.0183353924	-0.033951
C	 0.7542019924	-0.5153656476	-1.2404366967	-0.091387
O	 0.9989894336	-1.9045949817	-1.1181455952	-0.246115
C	 1.890663776	-2.2080628736	-0.0695905747	-0.168498
C	 1.5638399256	-1.4782160382	 1.2233040848	 0.097151
C	 0.6768205178	-0.4720554455	 1.2327867407	-0.140838
C	 2.2539255872	-1.9183978985	 2.384104631	 0.226286
C	 2.8707109591	-2.3375015696	 3.3310366032	-0.413919
H	 0.9160763195	 2.0109320961	-0.0181377919	 0.122425
H	-0.5876991109	 1.9091603462	-0.9516516645	 0.117577
H	-0.6420672927	 1.9363464906	 0.8164560789	 0.120397
H	-1.0218478094	-0.3715587263	-0.0454888857	 0.09679
H	 0.1674923079	-0.3851347192	-2.154344499	 0.107834
H	 1.7030130385	 0.0346790797	-1.3635696935	 0.087922
H	 1.8278441783	-3.2892962753	 0.0902537687	 0.128028
H	 2.9325008648	-1.982388078	-0.3590502011	 0.106065
H	 0.4386866912	 0.0244282697	 2.169881056	 0.093016
H	 3.4047705778	-2.6917817988	 4.17751794	 0.194481
109.5128	117.4778	145.2119	232.7614	282.7321	297.3998	327.9877	428.9073	458.4685	515.4247	530.0109	546.1635	584.3554	595.4031	642.1968	858.725	881.4564	895.975	951.9717	969.6343	985.7175	1035.0634	1059.3398	1118.0003	1143.164	1170.2746	1192.4279	1249.7154	1306.5576	1311.3873	1335.0889	1353.7723	1384.9728	1406.3126	1421.608	1486.1542	1495.3643	1499.8034	1501.1617	1692.4489	2218.4221	2949.3435	2961.0413	2991.0565	3031.2732	3072.8859	3084.6683	3101.9117	3104.3659	3162.3153	3503.6534
CC1COCC(=C1)C#C	C[C@H]1COCC(=C1)C#C	
InChI=1S/C8H10O/c1-3-8-4-7(2)5-9-6-8/h1,4,7H,5-6H2,2H3	InChI=1S/C8H10O/c1-3-8-4-7(2)5-9-6-8/h1,4,7H,5-6H2,2H3/t7-/m1/s1
