16
gdb 43719	5.17321	1.05169	1.00372	3.6672	70.24	-0.2303	0.0302	0.2605	1167.5581	0.12401	-437.846096	-437.838514	-437.83757	-437.878565	28.85	
O	 0.0513274362	 0.0214236963	 0.0585894771	-0.353843
C	-0.0357667083	 1.2170083665	 0.0220594764	 0.436206
C	-1.1822939929	 2.2658482654	 0.0296352261	-0.486328
C	-0.0514001343	 3.3038204936	-0.0181983363	 0.420465
N	 0.9114077203	 2.2199141157	-0.0452004556	-0.409294
C	 0.143074491	 4.578105008	-0.7996108535	-0.229463
C	-1.1010378827	 5.4445237547	-0.6434640573	-0.082025
O	-1.0702263583	 5.3100151356	 0.8069377895	-0.279768
C	 0.1504442459	 4.5741598689	 0.731235374	 0.003646
H	-1.828174898	 2.2255153447	-0.8493611206	 0.135093
H	-1.784422042	 2.2725924943	 0.9390804353	 0.146864
H	 1.9203162252	 2.1964234084	-0.0318390637	 0.253336
H	 0.9413381974	 4.7172033708	-1.5171487179	 0.106
H	-0.9479887879	 6.4904164176	-0.9314525166	 0.116939
H	-2.0375385395	 5.073540414	-1.0755533777	 0.112628
H	 0.919117338	 4.7644921456	 1.4732559907	 0.109543
58.142	148.5562	199.6172	283.2125	348.3322	401.9986	453.6624	484.3014	557.0008	600.244	749.2315	773.1187	813.6633	897.4125	927.9785	944.2246	969.2244	998.3802	1012.8957	1036.7761	1052.2716	1071.8122	1108.2042	1146.2518	1157.8529	1177.1475	1212.168	1238.1249	1263.6467	1321.0727	1354.1153	1451.7201	1482.2655	1517.4531	1903.4639	3027.3346	3076.6665	3089.1533	3149.5534	3165.5624	3197.8979	3612.4977
O=C1CC2(N1)C1COC21	O=C1C[C@@]2(N1)[C@H]1CO[C@@H]21	
InChI=1S/C6H7NO2/c8-4-1-6(7-4)3-2-9-5(3)6/h3,5H,1-2H2,(H,7,8)	InChI=1S/C6H7NO2/c8-4-1-6(7-4)3-2-9-5(3)6/h3,5H,1-2H2,(H,7,8)/t3-,5+,6+/m0/s1
