18
gdb 5832	3.13461	1.47177	1.29019	4.1621	68.64	-0.2432	-0.0905	0.1527	1032.7084	0.149293	-384.960989	-384.951318	-384.950373	-384.995735	34.089	
C	-0.0332158785	 1.5511140096	 0.0349742221	-0.399428
C	 0.0002707739	 0.0172575998	 0.0050676426	 0.129269
C	 0.7650932733	-0.5170018079	 1.2387580456	-0.423783
C	-1.442134382	-0.5409410762	-0.0083282238	-0.423793
C	 0.7214615421	-0.4498220778	-1.2624042453	 0.296727
O	 1.1810664286	 0.2971814453	-2.0884968171	-0.278251
C	 0.8696505836	-1.9827019219	-1.4973887664	 0.086582
O	 1.422096353	-2.4149727058	-2.4706107318	-0.205156
H	 0.9772448134	 1.9672537504	 0.0293500951	 0.127806
H	-0.5564570791	 1.9506578361	-0.8372778338	 0.127782
H	-0.5468909406	 1.8972414016	 0.9374040746	 0.10835
H	 0.2653796481	-0.1784436509	 2.1523328467	 0.128846
H	 0.8024113594	-1.6099350724	 1.2736982284	 0.120377
H	 1.7926813952	-0.1408032645	 1.2601420309	 0.13214
H	-1.9969374091	-0.1815134647	-0.8806377005	 0.132133
H	-1.4733121522	-1.6346257168	-0.0126369168	 0.120371
H	-1.972214987	-0.2031709929	 0.8882645714	 0.128839
H	 0.442342208	-2.656896151	-0.7259625319	 0.091187
30.5427	94.8809	178.7338	193.9744	229.5382	234.2387	276.7361	314.9804	333.868	353.3492	364.7451	461.062	589.1639	610.939	803.8437	837.6734	937.6134	947.214	962.9021	973.0215	997.3707	1045.4234	1072.212	1219.0132	1241.7592	1288.5409	1398.7906	1399.4038	1415.1171	1433.2154	1476.899	1480.8229	1485.4607	1499.0131	1504.431	1516.6793	1805.1317	1837.8441	2905.6731	3032.513	3034.7009	3045.3045	3101.8241	3104.1552	3107.8603	3109.5499	3117.3567	3126.9098
CC(C)(C)C(=O)C=O	CC(C)(C)C(=O)C=O	
InChI=1S/C6H10O2/c1-6(2,3)5(8)4-7/h4H,1-3H3	InChI=1S/C6H10O2/c1-6(2,3)5(8)4-7/h4H,1-3H3
