23
gdb 92699	2.6835	1.29055	0.93743	0.984	89.23	-0.2323	0.0284	0.2607	1345.7307	0.204983	-388.319082	-388.309402	-388.308458	-388.353034	37.222	
C	-0.040753402	 1.5054448956	 0.1043127921	-0.403332
C	 0.0359968431	-0.0083788387	-0.0222211143	 0.140622
C	 0.8063774623	-0.4830637666	-1.2574439657	-0.255407
C	 1.0902943093	-1.9562656403	-1.1511160114	-0.177443
C	 1.0071945334	-2.6298234024	-0.0023105146	 0.30856
C	 1.2049569468	-4.1197629245	 0.0776989819	-0.483644
C	 0.6589956744	-1.9069620207	 1.287974352	 0.057926
C	 1.6134920818	-2.2233427748	 2.4404727687	-0.401791
O	 0.6754449991	-0.4944453354	 1.1507256711	-0.276103
H	 0.9643214268	 1.929709107	 0.1932864149	 0.122334
H	-0.5255697526	 1.9414746598	-0.7746176883	 0.111331
H	-0.6106874729	 1.7878989498	 0.9935787201	 0.119625
H	-0.9860755439	-0.4236647065	-0.0723506101	 0.060691
H	 0.221672591	-0.2746047279	-2.1628876322	 0.098303
H	 1.7392217416	 0.0912073698	-1.3552551196	 0.106173
H	 1.3489393025	-2.4869650665	-2.0653389439	 0.076745
H	 1.323525201	-4.5528716249	-0.919079487	 0.120165
H	 2.088916346	-4.38665178	 0.6688243716	 0.127647
H	 0.3480990089	-4.6102142368	 0.5581960078	 0.120917
H	-0.3590578004	-2.2275913978	 1.5872112955	 0.06572
H	 2.6436901478	-1.9868123058	 2.1581749651	 0.122492
H	 1.3445969938	-1.6143869983	 3.3073602389	 0.124161
H	 1.5581504022	-3.2765185941	 2.7263850273	 0.114309
81.0064	143.311	185.7874	221.8291	227.3999	258.2448	279.1984	298.0999	344.0918	409.7481	428.5119	475.6851	509.4938	597.6828	678.5199	746.237	833.4335	859.3507	879.2973	933.0546	977.1807	982.0708	1038.6884	1069.203	1085.136	1091.0403	1111.4782	1127.6025	1150.9379	1171.1733	1208.7159	1239.5077	1320.7647	1331.7097	1338.0982	1378.2554	1392.0992	1396.7628	1403.2789	1412.102	1414.882	1473.0062	1477.2453	1483.7538	1485.9291	1496.3278	1498.9282	1501.2659	1738.1582	2896.4909	2944.8759	3002.6178	3017.4497	3039.8847	3041.9766	3047.032	3066.4153	3109.0413	3113.2304	3119.4436	3122.7872	3129.6214	3140.8305
CC1CC=C(C)C(C)O1	C[C@H]1CC=C(C)[C@@H](C)O1	
InChI=1S/C8H14O/c1-6-4-5-7(2)9-8(6)3/h4,7-8H,5H2,1-3H3	InChI=1S/C8H14O/c1-6-4-5-7(2)9-8(6)3/h4,7-8H,5H2,1-3H3/t7-,8+/m0/s1
