18
gdb 47878	2.12917	1.65515	1.20149	3.3618	72.25	-0.2265	-0.0349	0.1915	1086.4891	0.148112	-439.107089	-439.098516	-439.097572	-439.141265	31.587	
O	 0.4509261852	-0.1240573163	-0.0103185153	-0.29827
C	 0.0747521206	 1.0230121561	-0.0421780333	 0.320505
C	-1.3836548658	 1.4245726045	-0.2017332354	-0.324471
C	-1.620448622	 2.8500300444	-0.7478434072	-0.183946
N	-0.9110966562	 3.2156566845	-1.9691447204	-0.270912
C	 0.4449575419	 3.7132742861	-1.8261423574	-0.173833
C	 1.5290691341	 2.7299738135	-1.2841758535	-0.314634
C	 1.1053503307	 2.1636113311	 0.0523479656	 0.315966
O	 1.4906524652	 2.5635049929	 1.1257054235	-0.301252
H	-1.8596308978	 0.6685052859	-0.8363196612	 0.130915
H	-1.8520996112	 1.3322407766	 0.7881695922	 0.146053
H	-2.6976435593	 2.9652867742	-0.9162782318	 0.114108
H	-1.3521322971	 3.5888824945	 0.0163845646	 0.126546
H	-0.9815458871	 2.4965733779	-2.679873765	 0.219227
H	 0.7815516146	 4.0750908883	-2.8029563278	 0.118229
H	 0.4139503874	 4.5831608475	-1.1593907666	 0.128354
H	 1.6684086782	 1.9116380789	-2.0008240764	 0.120363
H	 2.4766865886	 3.2627562191	-1.1590602849	 0.127052
28.5809	96.9385	179.6401	205.419	276.5063	321.0347	354.1423	402.9007	495.2652	538.6312	600.4525	646.0485	662.9664	764.0981	835.7677	866.4591	891.9492	902.1391	1003.6929	1010.2875	1023.9498	1112.3328	1145.4612	1174.4659	1192.5995	1256.5734	1268.4895	1285.1765	1332.667	1369.5373	1378.0928	1399.2643	1439.7834	1465.9944	1480.2118	1492.2953	1503.7542	1801.1524	1810.1454	3022.1345	3031.9476	3034.724	3037.1046	3064.1118	3082.0249	3084.3707	3102.2557	3539.8977
O=C1CCNCCC1=O	O=C1CCNCCC1=O	
InChI=1S/C6H9NO2/c8-5-1-3-7-4-2-6(5)9/h7H,1-4H2	InChI=1S/C6H9NO2/c8-5-1-3-7-4-2-6(5)9/h7H,1-4H2
