14
gdb 132014	2.38813	1.85588	1.05103	2.1749	67.93	-0.2381	-0.0379	0.2001	1041.0241	0.101125	-478.004612	-477.996992	-477.996048	-478.03695	28.014	
C	 0.0801393216	 1.5307103634	 0.0374824977	-0.483019
C	-0.0073789633	 0.0352288016	 0.0103012879	-0.015725
C	-0.1837212585	-0.6706412383	-1.1103308665	 0.331874
F	-0.3024041487	-0.164341777	-2.3172308309	-0.037134
O	-0.2678058068	-2.0202605044	-1.1763032204	-0.198174
C	-0.1584750301	-2.6708824942	 0.020440325	 0.120906
N	 0.0097454263	-2.1443125823	 1.1568952217	-0.303536
C	 0.1017648696	-0.7302935964	 1.2592913686	 0.287808
N	 0.2713333056	-0.1351406901	 2.37572309	-0.513656
H	 1.0346741981	 1.8423389598	 0.4722428208	 0.151795
H	-0.0179156621	 1.957073205	-0.9620683519	 0.126829
H	-0.7016536968	 1.9400441509	 0.684383086	 0.15181
H	-0.2371269529	-3.7424040222	-0.1303052861	 0.15653
H	 0.3229713381	-0.8317394656	 3.1209860284	 0.223693
103.6208	144.2169	191.4546	269.2245	272.0676	364.5391	481.8345	507.6059	522.1254	554.0267	642.1203	685.4581	767.292	878.9612	910.7106	922.9485	958.665	1011.0448	1065.9161	1121.3815	1172.8841	1216.8628	1296.0182	1403.2004	1415.3182	1424.3448	1474.0223	1484.3116	1681.889	1699.6187	1768.0997	3049.6833	3105.7166	3143.7531	3204.8867	3472.8464
CC1=C(F)OC=NC1=N	CC1=C(N=CO[C@H]1F)[NH]	
InChI=1S/C5H5FN2O/c1-3-4(6)9-2-8-5(3)7/h2,7H,1H3	InChI=1S/C5H6FN2O/c1-3-4(6)9-2-8-5(3)7/h2,4,7H,1H3/t4-/m1/s1
