23
gdb 113577	3.65591	0.93935	0.88363	1.4167	86.58	-0.2208	0.0882	0.309	1464.426	0.206035	-388.290843	-388.281454	-388.280509	-388.326281	35.345	
C	-0.1709922532	 1.5782422146	-0.3161596538	-0.370697
C	-0.1139632268	 0.1726348816	 0.2947846809	-0.201712
C	-1.4177190474	-0.5828568711	 0.1475635787	-0.059027
C	-1.7475557234	-1.3321343985	-1.1378503576	-0.366843
C	-1.4990008132	-2.0888103197	 0.1287889887	 0.440411
C	-0.2992312738	-3.0091112734	 0.3853563012	-0.311131
C	-0.9313404491	-4.2090827454	 1.122827603	-0.213803
C	-2.1968687852	-3.5810718013	 1.7159141149	-0.084039
O	-2.6458261069	-2.6768287204	 0.7177136019	-0.286309
H	 0.7839359626	 2.1012404937	-0.2027431735	 0.107451
H	-0.4070424175	 1.5316074735	-1.3843741252	 0.118465
H	-0.9444140828	 2.1857454135	 0.1662814445	 0.11459
H	 0.6967177032	-0.3952555127	-0.1790435297	 0.092836
H	 0.1505802247	 0.2481448797	 1.3583103267	 0.094123
H	-2.2752135873	-0.1092909625	 0.6207079661	 0.087242
H	-2.7686879066	-1.2985208171	-1.5015958104	 0.117526
H	-0.9877950309	-1.3744995539	-1.9134345427	 0.10457
H	 0.2024007191	-3.3071773502	-0.5385978977	 0.107675
H	 0.4448503442	-2.5139587898	 1.0173998443	 0.108603
H	-1.209239938	-4.9933777605	 0.4123563637	 0.109853
H	-0.2726336381	-4.6477376078	 1.8763349778	 0.098762
H	-3.0023806198	-4.2940760792	 1.9100927374	 0.105497
H	-1.9679172438	-3.0500691131	 2.6550409308	 0.085959
20.792	83.2854	131.8672	164.5194	232.9522	262.7758	300.6078	364.6411	419.5312	488.4596	568.4462	609.1047	751.7323	778.9331	813.7232	859.1212	872.0116	899.0387	921.1693	927.7523	950.2454	965.6147	1012.913	1033.5406	1050.2505	1069.618	1106.6358	1123.9753	1134.6501	1187.476	1192.8188	1208.1327	1226.9505	1264.5031	1289.9777	1302.948	1327.6799	1340.6014	1356.9138	1386.2558	1408.6605	1419.4333	1480.0899	1485.6167	1488.6708	1497.2544	1501.4764	1506.9181	1520.7021	2964.5669	3011.2655	3031.3291	3044.4706	3051.8	3057.138	3092.6173	3093.2203	3099.5702	3103.4023	3113.3716	3118.8302	3134.2272	3212.0629
CCC1CC11CCCO1	CC[C@H]1C[C@]21CCCO2	
InChI=1S/C8H14O/c1-2-7-6-8(7)4-3-5-9-8/h7H,2-6H2,1H3	InChI=1S/C8H14O/c1-2-7-6-8(7)4-3-5-9-8/h7H,2-6H2,1H3/t7-,8-/m0/s1
