15
gdb 129847	3.25566	1.40092	0.97962	0.497	75.3	-0.1878	-0.0213	0.1664	1121.9651	0.115031	-450.155924	-450.147999	-450.147055	-450.188008	31.01	
N	 0.0677155756	 1.3239629992	-0.2275101838	-0.584793
C	-0.0363167903	-0.0143667469	-0.0865920614	 0.399663
C	-1.1897566806	-0.7460274875	-0.0517993908	-0.333476
C	-1.0948613324	-2.1605939672	 0.0707259929	 0.457161
O	-2.2607608716	-2.8499334966	 0.0966749788	-0.42406
N	 0.0098709366	-2.8342873721	 0.1574385021	-0.349828
N	 1.150409343	-2.0722307527	 0.1261916973	-0.331892
C	 1.2617212664	-0.7101628446	 0.0212115515	 0.36315
N	 2.3440138859	-0.0054344636	 0.011919073	-0.593262
H	 1.0001993484	 1.6992046446	-0.1211385649	 0.280343
H	-0.7346838089	 1.9215947179	-0.1472701743	 0.259005
H	-2.1684024627	-0.2872529194	-0.1201380068	 0.100662
H	-2.0254035168	-3.783663395	 0.1809971143	 0.299454
H	 1.9933515427	-2.618139279	 0.2068502006	 0.258678
H	 3.1835531549	-0.5764799172	 0.0979475515	 0.199195
114.0843	184.8513	221.6282	330.8879	347.7388	377.1185	429.7188	472.5694	489.8534	527.6567	542.2659	577.2291	593.9988	689.4434	744.5971	752.9246	783.7168	814.4541	850.7203	983.5035	1084.1796	1110.0897	1173.2892	1240.0435	1308.0876	1337.1242	1440.0101	1471.1937	1502.0041	1586.1565	1644.9478	1661.3446	1705.9759	3203.6007	3487.3283	3562.605	3637.4191	3729.5769	3778.7053
NC1=CC(O)=NNC1=N	NC1=C(NN=C(C1)O)[NH]	
InChI=1S/C4H6N4O/c5-2-1-3(9)7-8-4(2)6/h1H,(H2,6,8)(H3,5,7,9)	InChI=1S/C4H7N4O/c5-2-1-3(9)7-8-4(2)6/h6,8H,1,5H2,(H,7,9)
