12
gdb 25323	2.29911	1.59895	0.94307	3.6825	71.99	-0.2712	-0.0918	0.1794	1115.7473	0.0781	-435.534643	-435.527337	-435.526393	-435.566974	25.929	
O	-0.0406627297	-0.0683028574	-0.0001464341	-0.255994
C	-0.0158539078	 1.1402558163	 0.0097681899	 0.06015
C	 1.2310471339	 1.916626988	 0.0019675294	 0.053499
C	 1.3541081407	 3.2885154262	 0.0118707952	 0.226868
O	 2.6630157716	 3.6437946056	 0.0006467382	-0.170594
C	 3.3833517843	 2.4895727899	-0.0175473387	-0.005722
C	 2.5669970865	 1.4058277504	-0.0181169337	-0.253884
C	 0.3848849732	 4.3142521383	 0.0316239342	 0.248083
N	-0.4339085023	 5.1335885828	 0.0482224523	-0.329639
H	-0.9463274647	 1.7436093261	 0.0257286036	 0.10163
H	 4.4530826131	 2.6174178153	-0.0284104251	 0.165868
H	 2.8474749812	 0.3654808287	-0.0304974312	 0.159735
119.7339	132.4347	166.3151	221.2639	278.4409	445.537	495.0957	564.9188	611.5049	622.3461	711.1278	787.1152	797.4979	876.7453	914.7675	1036.88	1060.5053	1088.7981	1166.9156	1259.0384	1300.1219	1422.9562	1445.2603	1519.7381	1602.6639	1792.3451	2343.5685	2928.4651	3274.4779	3295.1725
O=CC1=C(OC=C1)C#N	O=Cc1c(occ1)C#N	
InChI=1S/C6H3NO2/c7-3-6-5(4-8)1-2-9-6/h1-2,4H	InChI=1S/C6H3NO2/c7-3-6-5(4-8)1-2-9-6/h1-2,4H
