16
gdb 75100	3.07788	1.37329	0.96066	3.2223	73.7	-0.2632	-0.0541	0.2092	1169.2767	0.125122	-437.983474	-437.975339	-437.974394	-438.016553	30.029	
C	-0.0028342473	 1.523054979	-0.0018745974	-0.473703
C	-0.0168608418	 0.0219229887	-0.0050039956	 0.192158
C	-1.1192514153	-0.7269266597	-0.1160020741	-0.155565
C	-1.1236705244	-2.2227526983	-0.1182261502	-0.407273
C	 0.2329869034	-2.8933636112	 0.0164457191	 0.42232
O	 0.3790017774	-4.0937867415	 0.0294952405	-0.346106
N	 1.310816374	-2.0309973619	 0.125256597	-0.391139
C	 1.3092699141	-0.633830033	 0.126727308	 0.391051
O	 2.3516761909	-0.0219716376	 0.2316129125	-0.342187
H	 0.6150028163	 1.9073473325	-0.8195556572	 0.147016
H	-1.0139129955	 1.924237996	-0.1025493818	 0.118899
H	 0.4407043093	 1.9052930759	 0.9228822808	 0.147012
H	-2.088399114	-0.2429762605	-0.212213607	 0.111335
H	-1.7567751409	-2.6103664236	 0.69084851	 0.160952
H	-1.5841956938	-2.6083227235	-1.037419381	 0.160952
H	 2.2216200874	-2.4653638413	 0.2157081167	 0.264276
66.0894	136.8455	152.0384	234.7011	291.5965	372.2712	380.7697	435.9226	529.0652	553.9608	587.0353	695.1393	733.765	760.9074	767.6756	862.5763	901.8144	975.8603	980.5733	1074.6221	1074.7888	1169.4585	1206.5386	1237.888	1325.4765	1366.0293	1403.8463	1409.0505	1418.2603	1435.2945	1470.4249	1486.5074	1724.9991	1788.7877	1816.3015	3029.661	3043.7391	3052.2015	3101.5412	3128.4835	3156.4621	3583.2437
CC1=CCC(=O)NC1=O	CC1=CCC(=O)NC1=O	
InChI=1S/C6H7NO2/c1-4-2-3-5(8)7-6(4)9/h2H,3H2,1H3,(H,7,8,9)	InChI=1S/C6H7NO2/c1-4-2-3-5(8)7-6(4)9/h2H,3H2,1H3,(H,7,8,9)
