14
gdb 12598	3.22629	2.1499	1.35185	1.4852	59.34	-0.2412	-0.0365	0.2047	853.9659	0.107565	-415.887119	-415.8797	-415.878756	-415.918721	27.663	
N	 0.0242693562	 1.3145817179	-0.0736572162	-0.565994
C	-0.0142733371	-0.0458958812	 0.0007329041	 0.355807
N	-1.0897722345	-0.7478908502	 0.0628672254	-0.290543
C	-0.737131107	-2.1688554397	 0.1268106893	-0.263445
C	 0.7526228316	-2.2176669225	-0.2088449806	 0.342299
O	 1.4046124418	-3.0816009688	-0.7345541663	-0.310609
C	 1.2867756791	-0.8160403441	 0.0991835301	-0.038976
O	 2.3085121821	-0.3917272161	-0.7643062418	-0.445484
H	 0.8616451723	 1.7050182562	-0.4788400316	 0.271838
H	-0.8390210293	 1.7640565066	-0.3423153946	 0.260602
H	-0.9191029138	-2.5936402847	 1.1253780694	 0.130857
H	-1.3222490022	-2.7644210154	-0.5822076432	 0.137058
H	 1.6297244987	-0.8000304267	 1.1501672693	 0.117092
H	 2.661484252	-1.1945576713	-1.1759025733	 0.299498
80.4849	220.3726	244.9077	262.0483	330.0422	358.473	467.0723	469.101	556.2152	573.325	617.1089	687.2338	716.1609	805.1992	906.8676	975.9016	995.9329	1093.1062	1155.2984	1170.192	1204.3155	1222.5509	1286.1022	1342.3575	1366.3578	1451.8063	1470.2528	1624.7325	1712.0313	1857.4295	2940.3881	3002.01	3069.397	3570.4721	3686.3858	3723.8925
NC1=NCC(=O)C1O	N[C]1[N]CC(=O)[C@H]1O	
InChI=1S/C4H6N2O2/c5-4-3(8)2(7)1-6-4/h3,8H,1H2,(H2,5,6)	InChI=1S/C4H6N2O2/c5-4-3(8)2(7)1-6-4/h3,8H,1H2,(H2,5,6)/t3-/m1/s1
