18
gdb 80295	2.4085	1.61653	1.30844	4.7413	71.67	-0.2462	0.0507	0.2969	1052.8278	0.147534	-439.129905	-439.121345	-439.1204	-439.162864	32.256	
C	-0.0572942788	 1.5538197798	-0.014435884	-0.431421
C	 0.057320695	 0.047714732	 0.0170142154	-0.096792
C	 1.3606038837	-0.7100500801	-0.2413695153	-0.099122
N	 2.5931795217	-0.0241795484	-0.0146874948	-0.355663
C	 2.681474063	 0.4736224143	 1.2691640843	 0.452849
O	 3.5211919792	 1.191834025	 1.7331535127	-0.391787
O	 1.5988125978	 0.0085171903	 1.979235211	-0.268898
C	 0.7298907802	-0.7299491936	 1.1288421935	 0.394551
C	 0.1171635003	-1.9144849209	 1.816425274	-0.468002
H	 0.839027185	 2.049407168	 0.3641647445	 0.147185
H	-0.227395156	 1.9060751358	-1.0372004466	 0.121531
H	-0.8986401541	 1.8890225681	 0.6002762592	 0.130843
H	-0.8081161402	-0.4781496837	-0.3805467621	 0.094097
H	 1.3923481881	-1.5766643986	-0.8927171996	 0.109617
H	 3.1265697086	 0.4294830016	-0.7377192503	 0.264089
H	-0.5263426874	-1.5919760065	 2.6411251266	 0.138449
H	-0.4915466468	-2.4894308282	 1.1134048349	 0.122997
H	 0.893003861	-2.569855735	 2.2238345268	 0.135477
118.2909	125.1084	191.9561	205.7732	215.4938	270.4841	315.2016	438.1091	493.1736	526.4042	585.8369	621.4124	719.6954	762.8705	771.8249	808.4869	877.0052	923.6918	967.4522	995.0383	1018.5273	1059.2377	1120.4021	1128.2822	1134.3525	1158.4861	1201.348	1256.4748	1315.9228	1366.6431	1392.4465	1417.9941	1425.3459	1462.6998	1477.9941	1491.6911	1499.485	1506.846	1891.8945	3040.5208	3041.6173	3099.9842	3109.0341	3120.4404	3124.6753	3139.6808	3165.4736	3658.9609
CC1C2NC(=O)OC12C	C[C@H]1[C@H]2NC(=O)O[C@@]12C	
InChI=1S/C6H9NO2/c1-3-4-6(3,2)9-5(8)7-4/h3-4H,1-2H3,(H,7,8)	InChI=1S/C6H9NO2/c1-3-4-6(3,2)9-5(8)7-4/h3-4H,1-2H3,(H,7,8)/t3-,4+,6-/m0/s1
