20
gdb 52770	3.46426	1.06863	0.91122	1.7128	89.79	-0.2218	0.0377	0.2595	1362.2821	0.17006	-365.905902	-365.896674	-365.895729	-365.940791	34.144	
C	-0.6777290088	 1.3473808284	-0.7245635669	-0.506106
C	-0.419601578	-0.0560097017	-0.4358362929	 0.15391
C	-0.220318894	-1.2187593987	-0.1887521021	-0.026925
C	 0.097825796	-2.623905116	 0.0396217881	 0.176302
C	 1.1190355381	-3.0523580965	-1.0175993788	-0.482772
C	 0.1986653338	-3.118462041	 1.5237008584	-0.092743
C	-1.3206684279	-2.8585703453	 1.5803889155	-0.177752
N	-1.166635595	-3.5535924224	 0.2098077038	-0.174033
C	-0.2253216781	-4.4972879775	 0.9846346784	-0.187295
H	-0.1353796744	 1.6777229342	-1.6172738318	 0.148954
H	-1.7445719043	 1.5241773905	-0.9007495202	 0.152198
H	-0.369252858	 1.989218766	 0.1081808471	 0.148367
H	 1.9662077284	-2.361041896	-1.0007827106	 0.129467
H	 1.5051786377	-4.0621441654	-0.8781727411	 0.117998
H	 0.6602976672	-2.9927320929	-2.0088271592	 0.1391
H	 0.9721064287	-2.8660890833	 2.2584235791	 0.064697
H	-1.9063489087	-3.4493870216	 2.2882668298	 0.095778
H	-1.6781157502	-1.8314427784	 1.5172190041	 0.119309
H	 0.4553867904	-5.0792819139	 0.3661259502	 0.100953
H	-0.7666449227	-5.1518779785	 1.6715114391	 0.100593
32.43	101.9132	103.0884	149.8272	234.4869	304.4923	333.7969	361.7947	469.535	504.7332	521.7159	618.2244	647.0077	737.4753	790.5796	811.6173	859.9096	907.8852	921.3793	1012.055	1042.2531	1051.7581	1053.8239	1057.1457	1075.5358	1097.7222	1103.3381	1155.9398	1188.1331	1195.974	1226.7099	1238.8445	1266.7518	1280.4173	1408.9934	1413.9677	1477.2314	1478.4523	1485.0409	1488.2956	1519.8231	1558.7404	2358.0609	3026.8329	3032.468	3053.1696	3070.8674	3081.7058	3087.528	3088.7371	3117.4805	3135.9522	3150.102	3155.8081
CC#CC1(C)C2CN1C2	CC#C[C@@]1(C)[C@H]2CN1C2	
InChI=1S/C8H11N/c1-3-4-8(2)7-5-9(8)6-7/h7H,5-6H2,1-2H3	InChI=1S/C8H11N/c1-3-4-8(2)7-5-9(8)6-7/h7H,5-6H2,1-2H3/t8-/m0/s1
