22
gdb 58199	2.14286	1.11378	1.0221	3.0082	82.15	-0.2803	0.0295	0.3098	1365.5258	0.191758	-404.377	-404.366042	-404.365098	-404.412998	39.862	
C	 0.1517574413	 1.6090995268	 0.0331011944	-0.391033
C	 0.0063268262	 0.1017293001	 0.2887508332	-0.000188
C	 0.5836060164	-0.270221122	 1.6630037416	-0.405455
C	-1.4692837109	-0.3205238972	 0.1296382847	 0.129943
O	-1.9922735923	 0.0514139478	-1.1361227859	-0.433249
C	-1.7455786218	-1.8312107854	 0.3940901212	-0.153527
C	-3.2533962809	-2.1453029768	 0.362131628	-0.397091
C	-1.0269915533	-2.6339510279	-0.6013321587	 0.265162
N	-0.461790314	-3.2264821082	-1.4182049603	-0.335265
H	 1.2065512541	 1.900059895	 0.0343276317	 0.11258
H	-0.2878719048	 1.8920512574	-0.9251171307	 0.128416
H	-0.3536556519	 2.1864018371	 0.8168273087	 0.111832
H	 0.5813566258	-0.4356943807	-0.4797584281	 0.090134
H	 1.5896082441	 0.1452678993	 1.7744486899	 0.121907
H	-0.0308999972	 0.1396331647	 2.4739737869	 0.114844
H	 0.6643787347	-1.35094825	 1.8095192591	 0.121884
H	-2.0730752979	 0.2349942867	 0.8589397628	 0.091913
H	-1.4603034157	-0.3831358094	-1.8149257141	 0.292857
H	-1.3488297961	-2.0948261857	 1.3799474096	 0.126389
H	-3.7557272531	-1.6024398687	 1.1680205558	 0.124254
H	-3.6845139302	-1.827778923	-0.5887180128	 0.151485
H	-3.4362741823	-3.2136760701	 0.4981583532	 0.13221
47.4626	84.8374	133.6807	180.1431	210.1794	221.4324	232.7911	245.1016	294.8453	338.2375	364.5769	380.5251	415.2194	443.2534	494.6404	580.1254	709.4139	769.1717	850.8022	899.954	932.8919	961.5411	984.5374	999.1052	1054.4787	1081.682	1116.1532	1135.8355	1172.1182	1190.9406	1255.846	1287.5303	1306.2732	1348.8191	1361.5249	1389.8908	1398.6856	1406.2327	1417.4926	1430.3352	1489.1731	1490.4951	1492.397	1502.5709	1506.3519	1514.4895	2347.2927	3001.3965	3028.1532	3031.6817	3037.8935	3052.7232	3062.4593	3094.2079	3099.9728	3109.8042	3125.1551	3133.4596	3148.4077	3775.6355
CC(C)C(O)C(C)C#N	CC(C)[C@@H](O)[C@@H](C)C#N	
InChI=1S/C7H13NO/c1-5(2)7(9)6(3)4-8/h5-7,9H,1-3H3	InChI=1S/C7H13NO/c1-5(2)7(9)6(3)4-8/h5-7,9H,1-3H3/t6-,7+/m0/s1
