19
gdb 51094	3.52138	1.26047	1.17077	3.2983	75.44	-0.2272	0.0225	0.2497	1108.4727	0.161747	-419.196442	-419.18858	-419.187635	-419.229579	30.338	
O	-0.168126947	 0.0391724639	-0.2665121407	-0.32591
C	-0.0381716825	 1.2266768498	-0.0536170987	 0.135706
N	 1.1544513698	 1.8528011491	 0.1325945772	-0.418113
C	 2.4168086941	 1.1676749619	 0.042104192	 0.409049
C	 2.9557317023	 0.5065769385	-1.2566704316	-0.202386
N	 4.3228467859	 0.6705752976	-0.6205566879	-0.125077
C	 3.7546577878	 1.937526603	-0.0129245471	-0.244678
C	 4.1734862873	-0.2618171676	 0.5440072242	-0.16674
C	 2.7440704103	 0.0720616629	 1.080991764	-0.268099
H	-0.8928919331	 1.9294452845	 0.0107083732	 0.07771
H	 1.1547582532	 2.8547469012	 0.2411495966	 0.248034
H	 2.660853515	-0.5193510146	-1.4836322244	 0.118935
H	 2.8686296535	 1.1421626748	-2.1405565036	 0.104866
H	 3.7731034122	 2.7462176031	-0.7485987942	 0.106907
H	 4.2207516508	 2.2586325143	 0.9236840779	 0.10234
H	 4.2739402724	-1.2922777377	 0.1958972232	 0.112343
H	 4.9651222495	-0.0649905454	 1.2709771594	 0.106068
H	 2.7423890567	 0.4636826406	 2.1022421697	 0.094872
H	 2.0396219318	-0.7578394998	 1.0202513106	 0.134174
33.123	140.202	186.1475	270.9091	343.5443	382.2687	464.5183	493.4181	544.7451	567.8305	677.71	806.6514	838.8696	845.3812	860.6017	873.9165	939.4152	979.067	986.1459	994.3493	1024.8676	1032.3378	1052.4273	1137.6579	1167.0821	1182.2136	1211.6077	1215.9322	1230.6634	1248.0922	1257.4473	1264.2446	1315.5922	1341.8404	1428.8514	1495.4577	1499.6092	1506.0419	1509.0869	1537.8934	1798.5065	2934.197	3046.1757	3062.4764	3068.2595	3073.8256	3109.265	3113.5369	3135.9129	3139.5602	3629.3169
O=CNC12CN(C1)CC2	O=CN[C@@]12CN(C1)CC2	
InChI=1S/C6H10N2O/c9-5-7-6-1-2-8(3-6)4-6/h5H,1-4H2,(H,7,9)	InChI=1S/C6H10N2O/c9-5-7-6-1-2-8(3-6)4-6/h5H,1-4H2,(H,7,9)
