17
gdb 22953	3.18604	0.94254	0.78189	3.3914	75.38	-0.2467	-0.0057	0.2411	1424.099	0.135063	-455.114346	-455.105254	-455.10431	-455.149457	32.458	
O	-0.2885953429	 1.5256523904	-0.2242993637	-0.386678
N	-0.0240756098	 0.1515139933	-0.1009406108	-0.240123
C	-1.0931993648	-0.5122793842	 0.0377996246	 0.371037
C	-2.5810232716	-0.2441334977	-0.0625680663	-0.315096
C	-2.7447751993	-1.7485156658	-0.4490861463	-0.246488
C	-1.280678377	-2.0159110624	 0.0537541991	-0.008695
N	-0.3666065655	-2.8126627533	-0.7184511491	-0.285875
C	 0.0590114019	-4.0426066773	-0.3152292756	 0.153356
O	-0.3446799006	-4.6298816345	 0.6651341827	-0.318872
H	 0.5950896974	 1.8953966616	-0.3270840054	 0.309345
H	-3.0343118367	 0.0105905664	 0.9001304065	 0.131881
H	-2.8776026027	 0.5077830828	-0.7962260155	 0.133538
H	-3.5337441214	-2.3140579771	 0.0478728781	 0.118973
H	-2.823335092	-1.8859793874	-1.5297552568	 0.113212
H	-1.2944769991	-2.4285187961	 1.0669913181	 0.138526
H	 0.0950155246	-2.3739593643	-1.5003651461	 0.252863
H	 0.8237089495	-4.4582547545	-1.0002181436	 0.079095
31.2891	100.1406	110.152	174.3072	231.966	242.0572	333.7633	394.0831	439.2698	488.417	523.2356	594.8644	654.7933	767.0556	778.1399	865.1173	920.6045	934.5314	991.4183	1030.3101	1039.1728	1074.9151	1110.0401	1155.2523	1200.6464	1214.1362	1235.4218	1254.2748	1274.5085	1356.7034	1409.4289	1428.5664	1463.7761	1487.8976	1522.9521	1780.8548	1805.8657	2943.3653	3064.6288	3075.4915	3079.2444	3118.8518	3141.9853	3627.0246	3815.3626
ON=C1CCC1NC=O	ON=C1CC[C@H]1NC=O	
InChI=1S/C5H8N2O2/c8-3-6-4-1-2-5(4)7-9/h3-4,9H,1-2H2,(H,6,8)	InChI=1S/C5H8N2O2/c8-3-6-4-1-2-5(4)7-9/h3-4,9H,1-2H2,(H,6,8)/t4-/m1/s1
