16
gdb 80607	3.07129	1.47556	1.26783	1.7274	64.44	-0.2528	-0.0228	0.23	992.2375	0.125902	-474.996617	-474.989313	-474.988368	-475.028263	28.897	
O	 0.0074880136	 1.4186423302	-0.1543170855	-0.442665
C	 0.0565552386	 0.0102980952	-0.0377970917	 0.100053
C	-1.3456944294	-0.6125408036	-0.1506997519	-0.172731
N	-1.6068867658	-0.2635333258	-1.60677792	-0.345732
C	-0.5389416671	-1.3035584491	-1.9160469914	-0.173278
C	 0.7227963457	-0.6388569444	-1.3248512424	 0.139601
O	 1.3208493052	 0.3076852377	-2.1602839033	-0.443786
C	-1.0937852585	-2.042012675	-0.6792053468	 0.420661
O	-1.4423422849	-3.1473446681	-0.3937181393	-0.31799
H	-0.6935634815	 1.5924598712	-0.8031124294	 0.297371
H	 0.576906954	-0.2235824637	 0.8911977118	 0.104014
H	-2.094357857	-0.349390792	 0.5942810611	 0.103695
H	-2.5186557553	-0.6246820698	-1.8838911418	 0.245449
H	-0.4904403729	-1.7201350006	-2.9193292959	 0.105621
H	 1.4558326304	-1.4082973855	-1.051655927	 0.090159
H	 1.1961710249	 1.1630059533	-1.7220524866	 0.289557
134.2331	147.9162	296.3281	314.6993	319.3409	376.8391	512.9661	519.2265	549.0212	692.3344	706.1624	734.636	787.9236	804.339	830.4182	874.5885	943.0587	959.1871	1046.7086	1053.9283	1057.7507	1092.1262	1112.4986	1139.9272	1173.6473	1198.2119	1222.5825	1259.8805	1292.733	1311.6804	1317.5807	1385.5732	1424.04	1443.7657	1895.9399	3025.1608	3116.8532	3147.309	3160.8616	3485.1099	3689.4807	3707.8145
OC1C2NC(C1O)C2=O	O[C@H]1[C@H]2N[C@@H]([C@H]1O)C2=O	
InChI=1S/C5H7NO3/c7-3-1-4(8)5(9)2(3)6-1/h1-2,4-6,8-9H	InChI=1S/C5H7NO3/c7-3-1-4(8)5(9)2(3)6-1/h1-2,4-6,8-9H/t1-,2+,4-,5+
