19
gdb 76731	1.9767	1.8685	1.25967	2.6123	72.08	-0.2224	0.0494	0.2717	1065.823	0.157791	-460.130313	-460.121274	-460.12033	-460.163447	35.116	
C	-0.0287842496	 1.5588743706	 0.0905687274	-0.507229
C	-0.0353275982	 0.0588732436	 0.1102717223	 0.236928
C	 1.1420478137	-0.786589348	-0.3608012241	-0.391069
C	 0.6451887764	-0.996392198	 1.0196940506	 0.372293
O	 1.4500701166	-0.8866328347	 2.1259482172	-0.461708
C	-0.6176310714	-1.8561269261	 1.0238283796	 0.021389
O	-1.2310659582	-1.8542655263	 2.2944338352	-0.45086
C	-1.290103615	-0.8124168034	 0.0417460281	 0.010111
O	-2.3916430647	-0.1576960429	 0.6612196669	-0.430783
H	 0.9243680754	 1.9415536884	 0.4693917089	 0.125905
H	-0.166321161	 1.953638179	-0.9238073931	 0.116522
H	-0.8303337765	 1.9614299642	 0.7164339856	 0.129979
H	 1.0311322179	-1.5487630636	-1.1329865866	 0.098899
H	 2.0741970104	-0.2320736041	-0.4196366863	 0.123926
H	 0.8542490477	-0.9962382128	 2.8813300233	 0.289807
H	-0.5195841994	-2.8950049816	 0.6854850287	 0.069129
H	-1.8505283928	-1.1060261392	 2.2760457679	 0.283961
H	-1.5753363372	-1.1863838521	-0.950542127	 0.065438
H	-3.1935399442	-0.6404066229	 0.4361476851	 0.297361
103.6647	165.3866	182.0056	214.0049	238.1688	277.4706	326.7717	392.6376	462.9286	479.3624	489.9671	526.0658	551.0152	620.5194	695.8365	720.6046	804.1232	827.3739	873.4138	926.0379	968.5354	985.857	1063.9854	1086.775	1100.5957	1115.4831	1166.9837	1198.9979	1214.6919	1239.123	1258.5161	1311.9285	1343.1854	1369.6881	1411.1486	1422.0691	1431.7743	1442.314	1482.8578	1500.8611	1519.7602	3007.4898	3023.2755	3032.0858	3077.7632	3084.9145	3110.9952	3186.6375	3665.8356	3737.4047	3823.456
CC12CC1(O)C(O)C2O	C[C@@]12C[C@]1(O)[C@@H](O)[C@H]2O	
InChI=1S/C6H10O3/c1-5-2-6(5,9)4(8)3(5)7/h3-4,7-9H,2H2,1H3	InChI=1S/C6H10O3/c1-5-2-6(5,9)4(8)3(5)7/h3-4,7-9H,2H2,1H3/t3-,4+,5+,6+/m1/s1
