20
gdb 110656	3.33238	1.34566	1.23352	0.7779	85.51	-0.2067	-0.0324	0.1743	1117.2629	0.1712	-365.895534	-365.887632	-365.886688	-365.927884	31.355	
C	-0.0899128997	 1.3338400435	 0.1761894398	-0.384406
C	 0.0217221758	-0.1834460212	-0.0146201876	-0.201246
C	 0.6899774371	-0.5434272782	-1.3262706409	 0.071643
N	 2.1860128556	-0.1812944849	-1.50608673	-0.17064
C	 3.2295773435	-1.2958153917	-1.1668930134	-0.017171
C	 2.972987854	-2.5539963118	-0.3147482826	-0.26533
C	 1.4902649904	-2.7511964374	-0.6034436011	-0.118174
C	 1.1425645071	-1.9748636218	-1.6548936525	-0.022587
C	 2.3729010081	-1.3871435955	-2.3500166777	-0.069891
H	 0.8978104035	 1.8026640957	 0.1412221553	 0.137402
H	-0.7020603792	 1.7894250712	-0.609581391	 0.115741
H	-0.5492465546	 1.5751547994	 1.1393155811	 0.111586
H	 0.5832132942	-0.6264598126	 0.814825652	 0.099193
H	-0.9767860004	-0.6390679381	 0.0036995725	 0.10613
H	 0.2035127576	-0.0179737892	-2.1571650034	 0.088906
H	 4.2167414937	-0.8434172118	-1.2021420845	 0.099176
H	 3.681976575	-3.3367659086	-0.6224415751	 0.115803
H	 3.1029212713	-2.4161715026	 0.765048591	 0.115209
H	 0.8102667383	-2.9238070876	 0.2254492342	 0.096067
H	 2.6168132286	-1.3467890769	-3.4058633559	 0.092588
86.6734	147.541	175.751	241.9575	332.9466	345.6398	477.5525	520.84	541.4538	684.9745	687.6646	752.3332	797.0094	815.7012	845.0199	867.8518	896.2765	902.2521	928.238	967.0108	1000.7559	1008.4329	1045.2996	1067.9192	1077.6737	1103.1966	1144.7729	1161.4559	1198.6931	1223.8697	1244.4563	1270.9847	1288.7699	1310.6629	1334.2403	1361.4957	1407.0199	1415.7168	1467.078	1478.1855	1497.8829	1507.7347	1574.8731	2997.6505	3028.633	3029.3085	3037.935	3058.629	3072.5832	3104.9923	3116.8884	3158.1112	3165.2516	3172.143
CCC1N2C3CC=C1C23	CC[C@H]1N2[C@H]3C[CH][C]1[C@@H]23	
InChI=1S/C8H11N/c1-2-6-5-3-4-7-8(5)9(6)7/h3,6-8H,2,4H2,1H3	InChI=1S/C8H11N/c1-2-6-5-3-4-7-8(5)9(6)7/h3,6-8H,2,4H2,1H3/t6-,7+,8-,9?/m1/s1
