15
gdb 123991	4.51231	1.32741	1.11661	4.5234	73.02	-0.249	0.0014	0.2503	1045.1263	0.115327	-412.912033	-412.905286	-412.904342	-412.943406	25.777	
C	 0.0897890696	 1.5636248999	-0.0260811917	-0.293127
N	 1.2985321491	 0.7160189576	 0.0116340013	-0.347953
C	-0.009494175	 0.0898329895	 0.0218484647	 0.146676
C	-0.5095083069	-0.8675051591	 1.1518964019	-0.228545
N	-1.0390437025	-1.6770797522	 0.0250502386	 0.063134
N	-1.7204995047	-2.7465568916	-0.4028109673	-0.170647
N	-1.7238521198	-2.6280299467	-1.712975898	-0.177377
C	-1.0635565241	-1.4951931749	-2.1131289632	-0.236391
C	-0.6191919431	-0.8722472945	-0.9665260861	 0.300865
H	-0.0816759873	 2.1502841221	 0.8719831848	 0.13444
H	-0.1855072764	 2.0561401383	-0.9547739744	 0.130468
H	 1.7284016979	 0.6421241626	-0.9068376626	 0.247815
H	 0.2794609769	-1.3658302607	 1.7168006549	 0.15581
H	-1.2876957767	-0.4806172567	 1.8120738951	 0.148756
H	-0.973164037	-1.2425743837	-3.1556788078	 0.126077
111.1045	153.556	236.3285	303.8982	445.0269	484.514	515.8849	693.6376	712.5423	733.5537	818.612	828.1118	866.2301	926.6846	960.9384	1001.2521	1017.3392	1045.323	1073.8418	1106.277	1130.5603	1136.4697	1195.4827	1232.2032	1239.1067	1258.6437	1283.3203	1306.0702	1429.9304	1464.7069	1504.9452	1512.4471	1552.2127	3083.7866	3111.7647	3151.325	3199.6605	3284.7567	3510.8014
C1NC11CN2N=NC=C12	C1N[C@]21Cn1nncc21	
InChI=1S/C5H6N4/c1-4-5(2-6-5)3-9(4)8-7-1/h1,6H,2-3H2	InChI=1S/C5H6N4/c1-4-5(2-6-5)3-9(4)8-7-1/h1,6H,2-3H2/t5-/m1/s1
