18
gdb 6179	3.81262	1.51352	1.42401	3.6287	74.49	-0.2354	-0.0432	0.1922	965.4102	0.153237	-347.851192	-347.843229	-347.842285	-347.883522	30.415	
C	-0.0433642006	 1.5488074579	 0.0183890713	-0.4253
C	-0.0148572223	 0.0080597857	-0.0189314389	 0.252979
C	-1.4560547146	-0.5380298369	 0.0103497445	-0.425293
C	 0.7927208935	-0.5340063323	-1.2272292901	-0.381917
C	 1.9684256079	-1.3323859097	-0.6388175706	 0.376912
O	 2.8229618062	-1.9086822775	-1.2701248246	-0.329231
C	 1.8418776033	-1.2523222388	 0.8356652878	-0.201496
C	 0.76909656	-0.5272316517	 1.1660127485	-0.058317
H	 0.9688927159	 1.9638880281	-0.0096613171	 0.121478
H	-0.5980717565	 1.9439052744	-0.8391835629	 0.120376
H	-0.5319377313	 1.9122816842	 0.9291769154	 0.114042
H	-2.0258850806	-0.1652365998	-0.8472939268	 0.120375
H	-1.4652693864	-1.6318800446	-0.0235486589	 0.121481
H	-1.978272495	-0.2242917534	 0.9209588777	 0.114042
H	 0.2008714145	-1.1910329613	-1.8718158544	 0.127349
H	 1.1854179671	 0.2629797193	-1.8660332475	 0.12735
H	 2.5439709233	-1.7302662114	 1.5070601504	 0.114936
H	 0.4461651756	-0.3124514022	 2.1812218764	 0.110234
47.0309	198.5044	241.5916	268.3025	319.2989	337.7488	342.9301	419.6807	492.7087	560.5053	603.2281	692.519	809.5782	829.7475	832.5706	908.0374	919.4586	953.0038	971.1644	1004.8742	1033.3358	1095.9403	1110.6639	1163.5763	1216.4586	1250.7615	1263.7853	1283.0436	1362.9174	1394.7437	1417.3279	1455.0048	1483.7918	1488.0409	1501.4059	1509.0161	1651.9795	1815.7237	3025.4633	3029.5536	3059.8627	3093.2261	3098.9139	3100.6197	3105.1623	3106.9822	3170.1397	3223.2069
CC1(C)CC(=O)C=C1	CC1(C)CC(=O)C=C1	
InChI=1S/C7H10O/c1-7(2)4-3-6(8)5-7/h3-4H,5H2,1-2H3	InChI=1S/C7H10O/c1-7(2)4-3-6(8)5-7/h3-4H,5H2,1-2H3
