19
gdb 33794	3.40668	1.36448	1.17114	5.033	78.83	-0.2471	0.0223	0.2694	1088.0626	0.163062	-382.076903	-382.069445	-382.068501	-382.108579	29.975	
N	 0.0818659005	-1.1692871722	-0.0410377663	-0.342863
C	 0.0231015294	-0.0155724405	-0.0059032175	 0.224635
C	-0.0248129042	 1.4449440259	 0.058215008	 0.178157
C	-0.9536090474	 2.1081477782	 1.1217494786	-0.2606
C	-1.1623558845	 3.1773424054	 0.0166260223	 0.012393
C	-0.0387777551	 4.2223708261	 0.0245827481	-0.214579
C	 1.2978551591	 3.5707312763	 0.459346175	-0.221369
C	 1.3875133718	 2.0712705555	 0.0831518719	-0.251004
N	-0.8785678075	 2.0971114126	-0.9740460971	-0.320678
H	-1.850260426	 1.5126449656	 1.2878852132	 0.13303
H	-0.5079667546	 2.4039070745	 2.0712052678	 0.111579
H	-2.154389199	 3.6253779441	-0.0805983117	 0.078931
H	 0.0365257941	 4.6508993681	-0.9832353304	 0.102344
H	-0.2830178101	 5.0534213646	 0.6961248925	 0.10393
H	 2.1508314249	 4.1156859925	 0.0451089039	 0.107041
H	 1.3879778712	 3.6577374237	 1.5465523487	 0.114905
H	 2.0340080488	 1.5422615105	 0.791057702	 0.119696
H	 1.8303822911	 1.9292831447	-0.9101102975	 0.113878
H	-0.3592030325	 2.4016837645	-1.7963295713	 0.210575
144.5702	150.7507	207.0445	304.333	398.9135	413.9353	436.4136	554.122	559.6918	591.9839	619.4824	769.5763	819.0196	848.9264	859.0422	900.8071	919.7855	947.3845	966.9361	989.537	1040.8968	1055.8465	1086.3397	1128.2268	1162.2222	1188.2407	1200.0745	1221.3517	1244.298	1262.2957	1319.9219	1322.5605	1352.6861	1356.6684	1368.204	1397.0979	1482.9911	1487.0175	1489.8046	1513.3756	2355.6108	3021.6184	3033.4309	3048.3503	3063.7317	3075.2512	3076.2788	3093.4156	3101.0495	3162.9962	3461.6716
N#CC12CC(CCC1)N2	N#C[C@@]12C[C@@H](CCC1)N2	
InChI=1S/C7H10N2/c8-5-7-3-1-2-6(4-7)9-7/h6,9H,1-4H2	InChI=1S/C7H10N2/c8-5-7-3-1-2-6(4-7)9-7/h6,9H,1-4H2/t6-,7+/m1/s1
