21
gdb 119720	3.45585	0.97416	0.86837	2.6339	80.06	-0.2283	0.0797	0.3079	1433.8248	0.180921	-424.169159	-424.159567	-424.158622	-424.203997	34.788	
C	 0.688289014	 1.4937531006	-0.1373851571	-0.221002
O	 0.9472481768	 0.1149126502	-0.2454364484	-0.233416
C	-0.0815826727	-0.5868972469	-0.9162183723	-0.192389
C	 0.2324961748	-2.0474837989	-0.9079802253	 0.25391
C	 0.6952290352	-2.8339756807	 0.317402056	-0.138538
O	 1.6006005554	-3.6378283935	-0.4890422512	-0.285971
C	 1.2728870517	-2.8672133545	-1.6468204582	 0.050298
C	-0.17534915	-3.0139788104	-2.0122936882	-0.100289
C	-0.9647912225	-4.2870959289	-1.8046490879	-0.423056
H	 0.6020600083	 1.9733149253	-1.125666186	 0.103158
H	-0.2406570702	 1.6942379353	 0.420398418	 0.103307
H	 1.526805949	 1.9432320029	 0.399873524	 0.128953
H	-1.0507123586	-0.3962240715	-0.4194982407	 0.08734
H	-0.183099653	-0.2269755753	-1.9545579304	 0.087123
H	 1.2597024651	-2.2127984611	 1.0187193092	 0.123871
H	-0.0412329677	-3.4428694884	 0.8548647749	 0.098394
H	 2.0799573316	-2.5986154372	-2.3194527712	 0.102528
H	-0.416062952	-2.4719306933	-2.9262732161	 0.085259
H	-0.5319740005	-4.8849489208	-0.9991858905	 0.138674
H	-2.01207779	-4.0787547997	-1.5611110103	 0.113265
H	-0.9475542448	-4.8984990729	-2.7129148583	 0.118582
70.158	88.1526	118.4408	168.1426	225.0982	232.4324	264.6383	293.1433	346.4806	347.6479	501.5356	610.7837	684.9659	765.6859	782.9878	908.1162	934.2546	942.0412	982.1189	998.7678	1012.2838	1050.3608	1078.7276	1086.9821	1119.1091	1143.8464	1153.5196	1166.3579	1184.2841	1221.6109	1230.97	1271.1652	1285.1133	1318.5503	1351.9845	1410.4742	1414.6912	1474.2886	1481.8554	1485.5046	1494.2887	1500.4374	1504.4149	1517.493	1522.2299	2933.5988	2964.5731	2969.2681	3010.0611	3030.1934	3037.0349	3093.7944	3094.4507	3114.6677	3115.2014	3130.3845	3175.7144
COCC12COC1C2C	COC[C@]12CO[C@H]1[C@H]2C	
InChI=1S/C7H12O2/c1-5-6-7(5,3-8-2)4-9-6/h5-6H,3-4H2,1-2H3	InChI=1S/C7H12O2/c1-5-6-7(5,3-8-2)4-9-6/h5-6H,3-4H2,1-2H3/t5-,6+,7-/m1/s1
