17
gdb 127065	4.31918	0.87379	0.78647	2.0616	70.39	-0.262	-0.0305	0.2315	1455.4508	0.135834	-455.134335	-455.125698	-455.124754	-455.169268	29.984	
C	-0.2871082553	 1.3508554071	-0.1333256649	-0.383053
C	-0.6825097179	-0.0785176214	-0.4597826765	-0.045193
O	-1.0153154019	-0.7290842214	 0.763322783	-0.239816
C	-1.3076412816	-2.1023550368	 0.6465184447	-0.189244
C	-2.7289080358	-2.365790119	 0.2337164087	 0.372949
N	-3.5852223772	-2.9325385407	 1.0419848493	-0.16439
O	-4.7665014143	-2.9826403133	 0.2898446683	-0.150766
C	-4.4757093923	-2.431032412	-0.8875914694	 0.10846
N	-3.2503129329	-2.0328286083	-1.0040904079	-0.302892
H	-0.0127352421	 1.8848230603	-1.048027191	 0.11585
H	-1.1182682603	 1.8805506492	 0.3407297215	 0.12853
H	 0.5658194177	 1.3693637457	 0.5510336289	 0.125586
H	-1.532531937	-0.1025161322	-1.153259951	 0.120771
H	 0.1518092182	-0.6127194213	-0.9439761011	 0.086297
H	-0.6308411383	-2.5917098224	-0.0706812485	 0.110372
H	-1.153353067	-2.5510476259	 1.6311784768	 0.137014
H	-5.2715385222	-2.3749608573	-1.6159428208	 0.169526
40.0326	64.037	103.0231	172.513	246.4963	259.4795	326.7641	359.6814	520.7556	635.7689	675.3231	811.7258	824.7539	856.0719	904.1603	905.3541	978.3694	988.2489	1031.132	1034.9247	1130.8667	1146.962	1152.5206	1188.0294	1284.4676	1299.9378	1304.1123	1373.5987	1392.7939	1405.0281	1435.5348	1476.0932	1483.0873	1501.5077	1515.9764	1532.7726	1598.2608	2969.8104	2992.2631	3044.866	3045.8337	3103.2655	3119.6746	3122.3666	3265.7939
CCOCC1=NOC=N1	CCOCc1nocn1	
InChI=1S/C5H8N2O2/c1-2-8-3-5-6-4-9-7-5/h4H,2-3H2,1H3	InChI=1S/C5H8N2O2/c1-2-8-3-5-6-4-9-7-5/h4H,2-3H2,1H3
