20
gdb 28563	4.46289	0.97214	0.8424	1.8297	88.62	-0.1857	0.0446	0.2303	1420.3197	0.172176	-366.046388	-366.03757	-366.036626	-366.080639	33.214	
C	 0.4333720217	 1.3752154246	 0.0888542788	-0.504756
C	-0.0072921373	-0.0415013762	-0.0779815254	 0.298114
C	-0.5833660175	-0.6924890393	-1.1460675765	-0.218448
C	-0.7965185904	-2.0487571603	-0.7686776608	-0.224164
C	-0.3441005028	-2.2038570303	 0.5231879945	 0.298601
N	 0.1289837251	-0.9713216439	 0.9273988449	-0.34487
C	-0.3316944262	-3.3676975456	 1.433089319	-0.139469
C	-0.142941506	-4.7572366425	 0.880024701	-0.251524
C	 0.9551369625	-4.1328913195	 1.6983347877	-0.258687
H	 1.5091635541	 1.456701473	 0.2916041303	 0.122557
H	 0.2285629824	 1.9367147192	-0.8256202273	 0.136032
H	-0.0906988954	 1.8801357028	 0.9105828683	 0.123118
H	-0.8254141899	-0.2383750874	-2.0954746984	 0.084158
H	-1.2446061291	-2.8258804883	-1.3690552329	 0.086747
H	 0.5474905527	-0.7933811951	 1.8245805125	 0.249746
H	-1.002243808	-3.2979088969	 2.288411562	 0.089722
H	-0.7219027907	-5.5616426263	 1.3191193516	 0.109827
H	 0.0189122175	-4.8507965605	-0.1873641788	 0.12013
H	 1.8468758969	-3.805282892	 1.1758763896	 0.115832
H	 1.1290656704	-4.5066679454	 2.7015316301	 0.107336
38.3066	107.0931	128.3571	161.986	238.5498	308.5771	371.6121	458.0468	484.6337	583.167	642.1414	672.3293	691.4296	784.4665	796.0729	823.5577	832.9867	896.3613	925.7928	980.1685	1007.8943	1012.8056	1057.7431	1061.7993	1062.3264	1083.3375	1095.6313	1130.2656	1192.5122	1199.8617	1233.284	1256.58	1279.567	1387.1388	1414.7814	1426.0781	1444.2366	1466.1952	1480.4036	1498.4822	1505.6589	1548.9499	1638.6523	3011.3863	3053.3006	3103.7323	3120.0183	3132.9544	3142.6395	3216.3152	3231.6805	3235.5272	3251.6882	3667.3433
CC1=CC=C(N1)C1CC1	Cc1ccc([nH]1)C1CC1	
InChI=1S/C8H11N/c1-6-2-5-8(9-6)7-3-4-7/h2,5,7,9H,3-4H2,1H3	InChI=1S/C8H11N/c1-6-2-5-8(9-6)7-3-4-7/h2,5,7,9H,3-4H2,1H3
