16
gdb 52500	15.51308	0.40112	0.39387	4.5983	99.16	-0.2421	-0.0182	0.2239	2629.4065	0.122249	-363.592323	-363.582026	-363.581082	-363.630806	33.953	
C	-0.016278078	 1.4922273783	 0.0102265143	-0.518759
C	 0.0078259786	 0.0409971884	 0.002196098	 0.263476
C	 0.0294549752	-1.1690449421	-0.0045145913	-0.216685
C	 0.052420858	-2.5286415396	-0.0120380139	-0.096391
C	 0.0786144412	-3.7389527261	-0.0187907944	 0.196294
C	 0.0780409125	-5.1921407631	-0.0265901904	-0.38778
C	-1.3645027162	-5.7667397687	-0.0158496511	-0.325475
C	-1.3699935524	-7.2273641051	-0.0236454207	 0.256735
N	-1.3519793459	-8.3826587028	-0.0300262394	-0.299262
H	 0.9992892289	 1.9037287991	 0.0028969735	 0.159707
H	-0.5414054983	 1.8844580263	-0.8679186542	 0.158911
H	-0.5247734597	 1.8749390696	 0.9022505326	 0.158911
H	 0.6056109556	-5.5679754436	-0.9112688117	 0.157794
H	 0.6224331079	-5.5774014499	 0.843725489	 0.157794
H	-1.8983475438	-5.4110377263	 0.8708394525	 0.167365
H	-1.9152100837	-5.4015854942	-0.8882690519	 0.167365
8.897	48.3593	49.1282	111.9622	138.4991	188.9425	255.2288	317.9839	378.446	405.4198	432.4777	504.8974	559.1518	562.6009	639.6722	765.5455	944.6143	969.3823	1008.1739	1031.3703	1047.7109	1048.6377	1197.4332	1273.0276	1300.4066	1305.3717	1370.3019	1412.8395	1466.8787	1471.0599	1471.3884	1476.9114	2280.9763	2364.1829	2388.4475	3025.0192	3032.418	3061.7207	3064.5859	3087.919	3088.1043	3104.7998	8.9355	48.3602	49.1313	111.9633	138.4989	188.9418	255.2249	317.9784	378.4438	405.4195	432.476	504.8965	559.1515	562.5941	639.6723	765.5457	944.6143	969.3821	1008.1739	1031.3706	1047.7094	1048.6362	1197.4338	1273.0281	1300.4067	1305.3724	1370.3021	1412.839	1466.8792	1471.0587	1471.3873	1476.9122	2280.9756	2364.1821	2388.4474	3025.0193	3032.418	3061.7206	3064.5859	3087.9191	3088.1044	3104.7998
CC#CC#CCCC#N	CC#CC#CCCC#N	
InChI=1S/C8H7N/c1-2-3-4-5-6-7-8-9/h6-7H2,1H3	InChI=1S/C8H7N/c1-2-3-4-5-6-7-8-9/h6-7H2,1H3
