18
gdb 101524	2.79198	0.92736	0.78517	4.2225	77.47	-0.2512	-0.0196	0.2316	1477.7654	0.144872	-439.076674	-439.066269	-439.065324	-439.113061	36.703	
C	 0.0220284839	 1.695719299	 0.1157562421	-0.389512
C	 0.0038423157	 0.1643556651	 0.0099411832	 0.045012
C	 0.7119901825	-0.512693656	 1.1819098987	-0.099042
O	-0.0531307027	-0.2463784194	 2.3534191938	-0.425618
N	-1.3561209062	-0.3553705231	-0.0589253552	-0.322618
C	-2.0089369763	-0.5498402294	-1.2352612066	 0.298906
O	-1.5169844131	-0.3486844855	-2.3332459666	-0.376225
C	-3.3739348768	-1.0399785245	-1.0697281594	 0.208747
C	-4.5035130758	-1.439333193	-0.9688677029	-0.399681
H	 1.0519103321	 2.067619206	 0.1037469556	 0.113189
H	-0.5106822758	 2.1338975857	-0.7314071822	 0.137202
H	-0.4520647741	 2.0246832868	 1.0440719137	 0.130618
H	 0.4985541367	-0.135835618	-0.9180858169	 0.117421
H	 0.7791696642	-1.5937124956	 0.9936392486	 0.100172
H	 1.7328601548	-0.1132965212	 1.2712292643	 0.097343
H	 0.3213731708	-0.743815393	 3.0854855927	 0.295834
H	-1.8410243276	-0.4954931636	 0.8142691726	 0.261874
H	-5.5030476424	-1.7921607104	-0.8937549555	 0.206375
34.6861	71.2414	96.2648	146.1298	212.4355	228.5533	261.6813	269.1069	275.0289	348.7098	443.3632	526.718	547.0929	578.4569	636.3034	654.3213	673.0351	768.6997	840.394	921.1228	946.6506	981.1463	1012.0568	1116.6056	1138.045	1172.4727	1211.0784	1253.4064	1273.9368	1352.5212	1379.6165	1400.9912	1452.3985	1491.088	1495.3432	1515.4864	1523.4521	1748.3404	2226.2573	2989.3111	3027.9916	3043.6899	3083.7193	3116.1296	3135.3862	3496.8527	3631.8502	3842.354
CC(CO)NC(=O)C#C	C[C@@H](CO)NC(=O)C#C	
InChI=1S/C6H9NO2/c1-3-6(9)7-5(2)4-8/h1,5,8H,4H2,2H3,(H,7,9)	InChI=1S/C6H9NO2/c1-3-6(9)7-5(2)4-8/h1,5,8H,4H2,2H3,(H,7,9)/t5-/m0/s1
