22
gdb 97071	3.82877	0.99744	0.83735	2.7291	86.43	-0.2384	0.0253	0.2637	1450.3222	0.194692	-404.375484	-404.365983	-404.365038	-404.409949	35.309	
C	 0.0416406345	 1.4694743102	-0.1695394374	-0.324556
N	 0.0262976732	 0.0169922262	-0.13775014	-0.285003
C	-1.0558627028	-0.5990572507	 0.0780947695	 0.389529
C	-1.1098340387	-2.1095761007	 0.0570164247	-0.288564
C	-2.0829623555	-2.6910441319	 1.0908898437	-0.211501
C	-3.443705445	-1.9951559399	 0.9742317669	 0.017583
C	-4.4623957557	-2.5028715149	 1.9976714955	-0.408424
C	-3.2251134869	-0.4915904432	 1.1301840179	-0.071085
O	-2.2563321953	 0.0512145138	 0.223896944	-0.264931
H	 0.9601162547	 1.8223848567	 0.3106853041	 0.116945
H	 0.0767888104	 1.8119512355	-1.2116421697	 0.12298
H	-0.8234050363	 1.9388131609	 0.3118696569	 0.114904
H	-1.4434988989	-2.4094850259	-0.9464773511	 0.118555
H	-0.0930578799	-2.4842898875	 0.1830995933	 0.125236
H	-2.1850607384	-3.772105486	 0.9470689477	 0.098193
H	-1.6872759748	-2.5426800088	 2.1052402003	 0.100603
H	-3.8366466758	-2.1731160351	-0.0367275016	 0.081101
H	-4.1095477276	-2.336629565	 3.0220849593	 0.1186
H	-5.4277958344	-1.9969814204	 1.890185552	 0.116438
H	-4.6327379114	-3.5770757385	 1.8762426862	 0.120015
H	-4.1439397086	 0.068455985	 0.9347047094	 0.113198
H	-2.9096472669	-0.2704425097	 2.1615604284	 0.100185
61.576	96.1661	156.054	198.3989	224.3174	242.7578	281.6543	299.2148	379.9004	428.5367	476.8436	528.2991	588.1107	714.6266	768.8882	809.9786	888.4542	928.3696	957.2737	976.7145	1008.13	1038.7731	1069.0006	1111.5438	1118.0684	1135.1969	1153.8137	1176.3077	1206.5698	1225.3176	1260.2119	1301.9899	1327.7307	1349.6494	1367.0652	1388.9107	1409.0843	1427.3954	1434.7973	1473.0911	1491.4053	1492.1715	1495.9681	1498.1648	1501.5138	1511.0992	1766.9761	2987.6477	3007.6829	3013.169	3014.7179	3022.1959	3029.6811	3068.8638	3070.7028	3086.157	3091.7011	3096.0716	3103.8854	3121.3449
CN=C1CCC(C)CO1	CN=C1CC[C@@H](C)CO1	
InChI=1S/C7H13NO/c1-6-3-4-7(8-2)9-5-6/h6H,3-5H2,1-2H3	InChI=1S/C7H13NO/c1-6-3-4-7(8-2)9-5-6/h6H,3-5H2,1-2H3/t6-/m1/s1
