19
gdb 82640	2.34507	1.70552	1.33321	2.127	75.03	-0.2245	0.0669	0.2915	1042.3671	0.158183	-422.963036	-422.954496	-422.953552	-422.995448	33.731	
C	-0.0050489747	 1.6325079516	-0.0295046018	-0.43655
C	 0.0768049598	 0.1112819573	-0.0239343417	-0.021542
C	 1.1229589706	-0.6532100392	-0.9061220179	-0.160082
C	 2.5174357306	-0.1207301195	-0.4727213792	-0.235259
C	 2.2402122685	-0.7719823786	 0.8771359451	-0.228841
C	 0.6972439689	-0.6493086746	 1.1468121843	 0.330532
O	 0.1845232751	-0.8146342128	 2.4158741735	-0.468975
C	 1.228443467	-1.7317986306	 0.2717483072	 0.332173
O	 1.0312022277	-3.0825100559	 0.3400492303	-0.450494
H	 0.9527750723	 2.101589011	 0.2148779975	 0.114553
H	-0.3243043285	 2.0082445046	-1.0079494107	 0.115675
H	-0.7377763671	 1.9785225631	 0.7083240931	 0.11569
H	-0.9126748184	-0.3175094263	-0.2215155196	 0.081409
H	 0.8984663114	-0.862475106	-1.9502117714	 0.069286
H	 3.3250336995	-0.6297529615	-1.0083717348	 0.092333
H	 2.6852566883	 0.960073669	-0.5204770205	 0.089435
H	 2.9015481432	-0.9487938396	 1.7167935796	 0.084
H	 0.456002091	-0.0641903598	 2.9555767967	 0.286019
H	 1.8041678849	-3.5270717022	-0.0261109297	 0.290638
155.0036	178.4377	200.7087	225.3075	280.2629	302.3974	336.5645	371.3667	386.0666	506.0929	583.4628	615.3135	645.5438	724.602	756.3382	781.504	897.3434	907.6099	938.6211	981.1861	990.7522	1008.6595	1033.1695	1069.756	1103.9067	1113.2451	1137.3562	1168.7251	1211.0989	1213.883	1243.1119	1281.4901	1291.9828	1308.4033	1356.3902	1393.0765	1405.7927	1489.492	1493.4039	1511.4824	1540.634	3028.0494	3039.0824	3042.2227	3084.3674	3089.6508	3105.1443	3134.1258	3191.9738	3786.0934	3794.2332
CC1C2CC3C1(O)C23O	C[C@H]1[C@H]2C[C@H]3[C@]1(O)[C@@]23O	
InChI=1S/C7H10O2/c1-3-4-2-5-6(3,8)7(4,5)9/h3-5,8-9H,2H2,1H3	InChI=1S/C7H10O2/c1-3-4-2-5-6(3,8)7(4,5)9/h3-5,8-9H,2H2,1H3/t3-,4+,5-,6-,7+/m0/s1
