23
gdb 99285	5.4363	0.58498	0.55713	2.4774	86.99	-0.2396	-0.0056	0.234	2076.7141	0.203417	-388.308162	-388.297425	-388.296481	-388.346273	37.932	
C	-0.2299650346	 1.4881294417	 0.0690902112	-0.374061
C	-0.0715349822	-0.0182938941	-0.1215056842	-0.274523
C	 0.7884693314	-0.3956740581	-1.3229724964	 0.370965
O	 1.3396409718	 0.4420333557	-2.0014662799	-0.298555
C	 0.9112627391	-1.8846533014	-1.622945408	-0.292164
C	 1.8893383394	-2.211340785	-2.7539329884	-0.201503
C	 1.9477299071	-3.6906141711	-3.0686042027	 0.02914
C	 0.9409636272	-4.3113160574	-4.0070608643	-0.257381
C	 2.3830257248	-4.1649842043	-4.4304179985	-0.276691
H	 0.7438904342	 1.9688786732	 0.1892860052	 0.132299
H	-0.7098483621	 1.9438670751	-0.8009880774	 0.128786
H	-0.837196392	 1.7053867431	 0.9523145871	 0.108
H	 0.3808273968	-0.4823804925	 0.7663936109	 0.120131
H	-1.0465856735	-0.5124273777	-0.2310215886	 0.117039
H	 1.191379925	-2.4037948373	-0.6955870657	 0.112476
H	-0.0934641272	-2.261514995	-1.8633474949	 0.12289
H	 1.5980863574	-1.6511235052	-3.6493060417	 0.109438
H	 2.8860779112	-1.8412468027	-2.485793942	 0.107675
H	 2.2559771879	-4.3163199468	-2.2334504443	 0.076911
H	 0.5658533194	-5.3050310413	-3.7881832842	 0.108441
H	 0.2113481913	-3.6550292097	-4.4713740554	 0.10851
H	 2.6167422279	-3.4117521859	-5.1758274107	 0.112725
H	 2.9932204197	-5.0589243133	-4.497688127	 0.109454
21.473	45.8738	68.8829	100.9501	119.1528	190.2739	224.5362	265.9436	323.7957	383.4213	461.4135	473.9246	642.1736	703.8138	773.9375	784.0987	813.8645	827.8615	855.4988	921.1912	944.0698	986.8426	997.8038	1018.3504	1049.108	1067.1794	1078.6471	1095.0416	1127.2649	1141.6215	1158.1559	1199.2042	1224.4443	1232.5948	1281.4622	1291.4108	1321.1527	1363.4936	1384.9348	1412.5684	1418.9409	1445.411	1457.6288	1469.8034	1484.7487	1491.9087	1498.057	1508.0008	1804.186	3008.5418	3019.032	3033.8979	3038.2704	3046.7583	3051.0846	3076.5557	3121.1881	3125.2848	3126.6627	3128.1267	3133.1307	3204.8105	3220.3626
CCC(=O)CCC1CC1	CCC(=O)CCC1CC1	
InChI=1S/C8H14O/c1-2-8(9)6-5-7-3-4-7/h7H,2-6H2,1H3	InChI=1S/C8H14O/c1-2-8(9)6-5-7-3-4-7/h7H,2-6H2,1H3
