17
gdb 81203	3.35199	1.37433	1.25717	3.6811	74.62	-0.2338	-0.0167	0.2171	1045.4617	0.135857	-417.866597	-417.859107	-417.858163	-417.89833	29.74	
C	-0.1057959518	 1.5118389271	 0.0484199579	-0.451649
C	 0.1669948443	 0.0233392554	-0.0143899004	 0.067304
N	 1.4171727708	-0.4635165908	-0.769731422	-0.179583
C	 2.2280486616	-0.0979633473	 0.5142956899	-0.251137
C	 0.9307440905	-0.7825540121	 1.0708361947	 0.241829
N	 0.2306501951	-1.7522380683	 1.9313782978	-0.415488
C	-0.038278982	-2.5646852287	 0.7818353641	 0.335579
O	-0.7993748688	-3.4649723115	 0.6145403092	-0.312076
C	 1.1663085743	-1.8296433099	 0.0331764616	-0.117557
H	-0.2617608445	 1.9022479607	-0.9626329957	 0.139483
H	-1.0234431475	 1.6919516106	 0.6183678773	 0.125824
H	 0.6923333985	 2.0935867	 0.514248262	 0.123599
H	-0.7196863304	-0.497484428	-0.3958551269	 0.094472
H	 3.1679999305	-0.6425269899	 0.6079574334	 0.124816
H	 2.3710071614	 0.974769032	 0.6397499825	 0.117272
H	-0.4767586917	-1.5552667691	 2.6327667432	 0.244852
H	 2.0751601196	-2.4312834602	 0.0675305414	 0.112459
130.3657	156.3987	225.3735	269.0145	362.3024	428.6876	462.7515	550.0465	584.3261	599.7612	637.0489	732.7839	753.0071	796.2874	817.4423	859.925	895.4061	946.5221	991.796	1022.1492	1053.0102	1078.2471	1106.7267	1124.2206	1145.6988	1172.5668	1196.0682	1213.9699	1252.5727	1295.9943	1318.6636	1408.9882	1431.1699	1492.1598	1493.604	1534.2555	1897.3461	3035.0343	3042.8095	3091.086	3102.9436	3107.0258	3125.6348	3164.1895	3529.0158
CC1N2CC11NC(=O)C21	C[C@H]1N2C[C@]31NC(=O)[C@@H]23	
InChI=1S/C6H8N2O/c1-3-6-2-8(3)4(6)5(9)7-6/h3-4H,2H2,1H3,(H,7,9)	InChI=1S/C6H8N2O/c1-3-6-2-8(3)4(6)5(9)7-6/h3-4H,2H2,1H3,(H,7,9)/t3-,4-,6-/m1/s1
