17
gdb 36588	2.9413	1.00137	0.81909	1.2274	82.04	-0.2475	0.0208	0.2683	1402.3873	0.131704	-384.587586	-384.578076	-384.577132	-384.622359	35.137	
C	 0.1098500886	-1.1822136841	-0.0146826802	-0.425155
C	 0.10510435	 0.0135789227	 0.0940882469	 0.290436
C	 0.0681829419	 1.4606800016	 0.241709692	-0.231965
O	 1.2830329569	 2.0182303691	-0.2562963088	-0.275776
C	 1.3631568748	 3.4073457811	-0.0917946118	 0.277387
C	 1.8385993999	 3.9165132633	 1.2616919429	-0.318553
C	 2.7695391512	 3.9197493579	 0.0768768326	-0.316232
C	 0.4038346338	 4.1836212222	-0.8375349967	 0.315204
C	-0.4135387641	 4.8110085326	-1.4583848559	-0.502665
H	 0.1178282901	-2.2393792937	-0.1148165269	 0.201098
H	-0.7902378146	 1.8753550921	-0.3065353823	 0.137294
H	-0.0647441302	 1.7283860366	 1.3015719686	 0.121583
H	 1.44432141	 4.8594028639	 1.6213261169	 0.129287
H	 1.9997956408	 3.1577988284	 2.0191107877	 0.129039
H	 3.5426613986	 3.1612557463	 0.0425523039	 0.137317
H	 3.019287365	 4.8644343105	-0.3902303273	 0.131044
H	-1.1263434325	 5.3694352096	-2.0133048514	 0.200659
45.0428	106.7055	129.8301	163.3537	209.5934	263.2135	328.9107	360.1111	411.2592	490.8039	551.2442	578.7868	597.3342	607.5657	676.4301	683.7627	716.9672	778.5777	898.0307	919.1056	935.7041	982.9548	1006.1576	1033.6477	1055.1513	1080.4781	1086.2762	1194.8997	1250.9539	1261.2665	1306.8345	1408.7329	1449.4043	1483.347	1501.0693	2230.0576	2248.7621	2983.551	3017.2384	3141.7783	3149.1872	3232.0434	3247.3896	3501.2144	3506.6313
C#CCOC1(CC1)C#C	C#CCOC1(CC1)C#C	
InChI=1S/C8H8O/c1-3-7-9-8(4-2)5-6-8/h1-2H,5-7H2	InChI=1S/C8H8O/c1-3-7-9-8(4-2)5-6-8/h1-2H,5-7H2
