16
gdb 29617	2.94072	1.12206	0.87834	4.9728	72.76	-0.2012	-0.0064	0.1949	1275.1601	0.1236	-437.922732	-437.913859	-437.912915	-437.957877	31.824	
O	 0.1912157507	 1.3616800907	 0.1995395524	-0.450156
C	 0.1194029161	 0.0069250152	 0.0369566682	 0.228176
C	 0.100460829	-0.7347633561	-1.1224767108	-0.213626
N	 0.0177179224	-2.0598663159	-0.7429710998	-0.236022
C	-0.0172789262	-2.15625294	 0.6174019868	-0.152971
C	 0.0514941941	-0.8826452548	 1.1477719082	 0.160673
C	 0.019178004	-0.4863652807	 2.596056396	-0.390739
C	-1.4116132384	-0.3334067557	 3.0864080859	 0.163843
O	-1.8705474053	-0.8852041617	 4.0530322743	-0.245383
H	 0.2857291215	 1.7790459871	-0.661661399	 0.297519
H	 0.1413131446	-0.4428415669	-2.1589215536	 0.113717
H	-0.0049766365	-2.8368985602	-1.3780371197	 0.26527
H	-0.0770266964	-3.1130408595	 1.111083145	 0.128293
H	 0.5262424386	-1.2111298133	 3.2386938238	 0.118478
H	 0.5152099442	 0.4861004422	 2.714060755	 0.133579
H	-2.0341017126	 0.3381957198	 2.4523092474	 0.079352
22.095	61.2573	151.0548	222.9145	244.6446	287.2091	361.0338	420.4368	442.8565	480.3601	613.7055	627.8569	636.9004	716.0984	738.6545	758.7267	824.0705	903.3678	1015.2642	1058.9026	1078.8191	1110.3878	1171.3448	1192.7291	1239.9925	1292.4863	1304.3916	1356.8059	1422.4943	1450.6513	1454.9141	1483.1815	1578.3677	1630.0305	1830.3518	2876.1619	3029.3492	3101.3973	3261.4308	3264.7262	3697.078	3839.5215
OC1=CNC=C1CC=O	Oc1c[nH]cc1CC=O	
InChI=1S/C6H7NO2/c8-2-1-5-3-7-4-6(5)9/h2-4,7,9H,1H2	InChI=1S/C6H7NO2/c8-2-1-5-3-7-4-6(5)9/h2-4,7,9H,1H2
