17
gdb 125001	2.94601	1.27304	0.92573	2.8014	71.94	-0.2291	0.0008	0.2299	1230.6761	0.135789	-455.141371	-455.132193	-455.131249	-455.175459	33.334	
C	 0.1912002102	 1.5027725381	-0.0196035569	-0.530455
C	 0.0798494872	 0.011207408	-0.0361013415	 0.025587
C	-0.0058102628	-0.8463003667	-1.0905336426	 0.320127
C	 0.002104527	-0.6457071722	-2.5764181275	-0.179318
O	 0.944366119	 0.3289380516	-2.9985417784	-0.402059
O	-0.1177487794	-2.1168859344	-0.662661859	-0.226473
N	-0.1104729024	-2.1328503692	 0.7380458714	-0.23834
C	-0.0009464987	-0.8704199884	 1.0911090056	 0.349451
N	-0.0395643154	-0.4883014246	 2.421416789	-0.588286
H	 1.0550365061	 1.8377133112	 0.5690917188	 0.118275
H	 0.3158994098	 1.8877652679	-1.0330604817	 0.153786
H	-0.6972347641	 1.9667209544	 0.4246604851	 0.137007
H	 0.1650808674	-1.6210821149	-3.0564126274	 0.122973
H	-0.9708767909	-0.2750182935	-2.9174606471	 0.136232
H	 1.8129115521	 0.0457925487	-2.6929780452	 0.288421
H	 0.1067629189	-1.2600139278	 3.0585267857	 0.260146
H	 0.5525032561	 0.2992178321	 2.6442894019	 0.252926
59.803	131.5437	148.8532	202.4854	235.671	260.5046	291.1265	344.9395	386.1104	415.4379	486.3571	600.7078	634.3687	678.6844	704.8682	751.3337	806.1102	953.2104	957.4137	978.9146	1069.2338	1073.5631	1141.25	1147.9882	1185.5512	1242.7297	1300.1403	1386.4693	1415.3253	1422.55	1478.2272	1493.6893	1498.264	1510.6013	1554.4092	1643.4968	1693.605	3011.121	3019.3262	3066.0745	3067.3353	3137.2286	3553.8371	3654.0153	3809.95
CC1=C(CO)ON=C1N	Cc1c(CO)onc1N	
InChI=1S/C5H8N2O2/c1-3-4(2-8)9-7-5(3)6/h8H,2H2,1H3,(H2,6,7)	InChI=1S/C5H8N2O2/c1-3-4(2-8)9-7-5(3)6/h8H,2H2,1H3,(H2,6,7)
