18
gdb 88800	2.76762	1.38856	1.06437	3.5417	73.	-0.2529	0.0303	0.2832	1154.1388	0.147181	-439.085994	-439.077264	-439.07632	-439.119908	31.881	
C	 0.1178072812	 1.4918642578	-0.3235336878	-0.453621
C	-0.0866198809	 0.0662806631	 0.1141569955	 0.07901
O	 1.0326947904	-0.8375518774	 0.0719578937	-0.25631
C	 0.4439868618	-0.5506553155	 1.3413280806	 0.041167
C	 1.3072584944	 0.099830635	 2.392849055	-0.212208
C	 2.3028907828	-0.8635515714	 3.1219785318	-0.171895
N	 3.3783194808	 0.0213793911	 2.6794470999	-0.309446
C	 2.5903578626	 0.8967047233	 1.9859259073	 0.442463
O	 2.8410835593	 1.8944296031	 1.3631238296	-0.359166
H	 1.0204800223	 1.9297861815	 0.1041815733	 0.181818
H	 0.1877409312	 1.5356332194	-1.4158405607	 0.124116
H	-0.7490611051	 2.0931791455	-0.0258726207	 0.113111
H	-1.0018573496	-0.39238527	-0.2690766922	 0.086564
H	-0.1393324904	-1.3818320738	 1.7501339399	 0.088144
H	 0.6879645598	 0.6685797743	 3.0937166662	 0.112228
H	 2.1893853131	-0.9269068281	 4.2085339453	 0.113748
H	 2.3470945182	-1.8694003505	 2.692486191	 0.124929
H	 4.3796925682	-0.0193351075	 2.7934081124	 0.255349
54.3923	112.0468	154.4459	189.0158	215.1753	243.4766	366.6829	411.1964	476.0577	513.7373	546.3238	729.0177	755.0732	760.301	807.8284	884.2824	920.2819	963.5656	999.6665	1027.7676	1059.4705	1085.5588	1126.0857	1162.1075	1167.7244	1183.1867	1192.1753	1201.3217	1293.6877	1299.9345	1349.1121	1394.482	1402.7522	1429.2391	1468.9841	1505.0745	1516.0498	1526.043	1885.1471	3033.3629	3040.9278	3050.4686	3069.9911	3075.2893	3091.7289	3092.0663	3151.5447	3621.0124
CC1OC1C1CNC1=O	C[C@H]1O[C@H]1[C@H]1CNC1=O	
InChI=1S/C6H9NO2/c1-3-5(9-3)4-2-7-6(4)8/h3-5H,2H2,1H3,(H,7,8)	InChI=1S/C6H9NO2/c1-3-5(9-3)4-2-7-6(4)8/h3-5H,2H2,1H3,(H,7,8)/t3-,4-,5-/m1/s1
