13
gdb 124385	5.08217	1.03038	0.97885	1.687	59.77	-0.2904	-0.0349	0.2556	1184.3059	0.088194	-489.907889	-489.899994	-489.89905	-489.941934	26.763	
C	-0.1618675665	 1.4505022932	-0.1157710448	-0.486887
C	 0.2481681173	 0.0095560523	-0.0156094048	 0.422563
O	 1.1559429701	-0.4558735362	 0.6019751217	-0.30222
O	-0.6235952759	-0.7697549214	-0.7724443281	-0.27289
C	-0.332967484	-2.0844036786	-0.8821618077	 0.483741
N	-1.094216899	-2.9876394677	-0.3264881245	-0.179324
O	-0.5029223499	-4.1803978298	-0.7538016611	-0.150246
C	 0.5411653703	-3.8339218995	-1.5096579012	 0.127287
N	 0.7071823921	-2.5568611051	-1.6387593911	-0.306674
H	 0.4785969211	 2.0535160394	 0.5259204902	 0.158862
H	-0.0755574388	 1.7856490627	-1.153451313	 0.164628
H	-1.208959456	 1.5623797511	 0.1777777995	 0.164406
H	 1.1302257391	-4.6332232804	-1.9345931351	 0.176756
47.5062	73.6553	107.0139	123.5163	334.0719	348.8778	459.1607	591.2998	597.1835	628.8015	704.3093	818.9718	898.1426	907.3135	944.4742	980.2192	1008.8043	1047.0733	1064.7741	1145.2061	1202.2887	1307.8992	1375.0954	1397.3979	1467.2202	1473.1046	1532.1533	1612.4295	1880.3162	3060.8038	3127.3371	3176.1006	3270.0478
CC(=O)OC1=NOC=N1	CC(=O)Oc1nocn1	
InChI=1S/C4H4N2O3/c1-3(7)9-4-5-2-8-6-4/h2H,1H3	InChI=1S/C4H4N2O3/c1-3(7)9-4-5-2-8-6-4/h2H,1H3
