18
gdb 114719	2.66178	1.55512	1.24535	3.1134	72.11	-0.2341	-0.0191	0.2149	1061.034	0.147933	-439.076168	-439.067939	-439.066994	-439.109197	30.69	
C	 0.1603612914	 1.2144870843	-0.2231441162	-0.247682
O	-0.0106357176	-0.1695968724	 0.0440627815	-0.249228
C	 0.581989346	-0.6092080728	 1.2590303508	-0.003229
C	 0.0987537306	-2.0273598544	 1.5697379719	-0.262954
C	 1.2468840736	-2.9318370961	 1.1308125945	-0.023288
C	 1.7941460331	-2.7935864694	-0.2326995898	-0.2504
N	 2.4801798704	-2.1372655976	 0.9264853706	-0.142386
C	 2.1134917549	-0.7580896768	 1.0369768128	 0.382323
O	 2.8904693935	 0.151190822	 0.9309336745	-0.314839
H	 1.2155231615	 1.4837999995	-0.3396987815	 0.145336
H	-0.3773809052	 1.4197672818	-1.1514411995	 0.12764
H	-0.2703726227	 1.8243093788	 0.5851843425	 0.108991
H	 0.3758318569	 0.1093310064	 2.0633833305	 0.093015
H	-0.0659455934	-2.145118986	 2.6445305057	 0.118512
H	-0.84199294	-2.2393979273	 1.0561218121	 0.129106
H	 1.3944223812	-3.8650307698	 1.6652704719	 0.104529
H	 2.3710198213	-3.597199429	-0.6788184656	 0.134113
H	 1.2715907147	-2.1467464013	-0.9309545468	 0.15044
72.7551	124.4505	187.5523	210.2962	254.2421	321.5528	357.4107	402.5961	488.3646	637.8487	691.8875	700.5326	792.9227	828.2595	856.8168	875.1876	937.1815	978.3019	1032.7304	1069.7147	1098.257	1115.1066	1126.1925	1140.8978	1178.8214	1186.5544	1198.9414	1231.6864	1259.8854	1286.2019	1329.6754	1362.8008	1399.4946	1475.4371	1477.0394	1483.6634	1505.4816	1515.3652	1848.0052	2994.031	3016.687	3065.8207	3075.9623	3113.5307	3123.0852	3127.1484	3160.6798	3218.1052
COC1CC2CN2C1=O	CO[C@H]1C[C@H]2CN2C1=O	
InChI=1S/C6H9NO2/c1-9-5-2-4-3-7(4)6(5)8/h4-5H,2-3H2,1H3	InChI=1S/C6H9NO2/c1-9-5-2-4-3-7(4)6(5)8/h4-5H,2-3H2,1H3/t4-,5-,7?/m0/s1
