15
gdb 6430	4.53457	1.40419	1.29557	0.9009	63.68	-0.2637	-0.0472	0.2165	956.3744	0.116637	-399.812098	-399.804164	-399.803219	-399.844728	28.536	
C	-0.2520133999	 1.7906572755	 0.0007767919	-0.447408
C	 0.0201076428	 0.3039877217	 0.0085295838	 0.304994
C	 0.7803612997	-0.3036673194	-1.208248207	-0.41066
C	 1.8661754371	-0.5859795715	-0.1947029374	 0.437203
N	 3.0023754506	-1.1072138035	-0.242448801	-0.53424
O	 1.1598245659	-0.0579883016	 0.8713481359	-0.284834
C	-1.1821511312	-0.5320233161	 0.4188796472	 0.12757
O	-2.320073686	-0.1476936541	 0.3746607582	-0.237756
H	 0.6237097976	 2.3417561939	-0.3505951721	 0.127804
H	-1.1016653034	 2.0046251735	-0.6524763126	 0.148207
H	-0.5061843722	 2.1364135479	 1.006264099	 0.143414
H	 0.3393094098	-1.1944427649	-1.6610026074	 0.146273
H	 1.0387124305	 0.4118264409	-1.9899404931	 0.149697
H	 3.4468736779	-1.1284644313	 0.6767702129	 0.23377
H	-0.9129068993	-1.557671501	 0.7561665817	 0.095967
74.9566	84.8133	193.54	253.0478	291.4563	325.8622	400.5074	454.0927	495.3587	498.2905	724.0404	782.5822	863.9681	865.3831	894.3301	949.6693	979.6676	1005.1217	1014.6106	1085.1756	1115.8011	1190.4839	1237.6034	1282.9376	1297.1959	1399.675	1418.6135	1461.7437	1477.2141	1488.6529	1834.1431	1837.2095	2894.3464	3052.7408	3084.4138	3129.4384	3135.7832	3142.1049	3481.1668
CC1(CC(=N)O1)C=O	C[C@]1(C[C]([NH])O1)C=O	
InChI=1S/C5H7NO2/c1-5(3-7)2-4(6)8-5/h3,6H,2H2,1H3	InChI=1S/C5H7NO2/c1-5(3-7)2-4(6)8-5/h3,6H,2H2,1H3/t5-/m0/s1
