19
gdb 102286	2.02783	1.14697	0.81533	1.4407	73.57	-0.2462	-0.0314	0.2148	1441.8194	0.153868	-460.180838	-460.169931	-460.168987	-460.2186	36.453	
C	-0.0030674089	 1.2610336539	 0.666970702	-0.250538
O	-0.2684560719	-0.0707180782	 0.2600275326	-0.261745
C	 0.4071255365	-0.4764417547	-0.9152040581	 0.030677
C	 1.1507480205	-1.7835781733	-0.668117869	-0.321956
C	 2.4342617725	-1.5882510729	 0.1299039656	 0.387621
C	 3.099684973	-2.8510278839	 0.6394186739	-0.476291
O	 2.899704923	-0.4895424092	 0.3353676026	-0.296716
C	-0.601493911	-0.5979541606	-2.0536984683	 0.143153
O	-0.4450607924	-1.2764055668	-3.0358215889	-0.252188
H	 1.0689722115	 1.4107499514	 0.8440328108	 0.140931
H	-0.3502016572	 1.9952805899	-0.0750042061	 0.104637
H	-0.5524754035	 1.4228064453	 1.5975124297	 0.128016
H	 1.1458453336	 0.2822319437	-1.2164234481	 0.11947
H	 0.4957960418	-2.491405783	-0.146968542	 0.131356
H	 1.3980732502	-2.2479670749	-1.6315222671	 0.149439
H	 3.2188126818	-3.5817948121	-0.1677132939	 0.140816
H	 4.0697471192	-2.6125501845	 1.076662506	 0.145091
H	 2.4633609559	-3.3194345178	 1.3995081449	 0.14754
H	-1.5196918944	 0.0099353376	-1.8919925766	 0.090686
45.4082	56.0906	72.7732	93.0318	121.4962	158.3741	181.8627	228.2143	302.5204	326.7045	424.7948	465.4594	482.0282	593.253	617.9773	801.3588	812.9401	869.832	953.9497	957.24	1062.3566	1078.1056	1112.0835	1158.6156	1178.6437	1183.7088	1204.0962	1249.6367	1264.8949	1357.4132	1370.4132	1385.236	1405.6243	1435.5979	1463.0782	1475.8848	1480.1446	1491.0921	1512.5212	1805.6567	1829.4071	2890.3345	2988.1932	2999.8658	3034.8854	3041.7986	3061.8434	3080.1355	3098.9328	3120.6433	3154.2223
COC(CC(C)=O)C=O	CO[C@@H](CC(=O)C)C=O	
InChI=1S/C6H10O3/c1-5(8)3-6(4-7)9-2/h4,6H,3H2,1-2H3	InChI=1S/C6H10O3/c1-5(8)3-6(4-7)9-2/h4,6H,3H2,1-2H3/t6-/m0/s1
