21
gdb 58537	2.02912	1.45393	1.35258	1.8971	77.95	-0.2345	-0.0292	0.2053	1142.2889	0.179591	-424.23899	-424.228913	-424.227969	-424.273775	37.617	
C	 0.0019231458	 1.4767274618	 0.0197205095	-0.415289
C	-0.0348847216	-0.0589789321	 0.0528309992	-0.01611
C	 0.7022893076	-0.586686781	 1.2932115329	-0.418215
C	-1.4870693515	-0.5734644738	-0.0683275765	 0.325513
O	-2.1330171694	-0.034621325	-1.2104142156	-0.486147
C	-1.6928951104	-2.1176011214	 0.0373743877	-0.283966
C	-2.3414580047	-1.9661126306	 1.4491934415	-0.345096
C	-2.3573927255	-0.4528448276	 1.2100938573	 0.352166
O	-2.9430115277	 0.4756678152	 1.6931054555	-0.317696
H	 1.0332349244	 1.8363909308	 0.0877151197	 0.11331
H	-0.4228558054	 1.8615464494	-0.910673092	 0.117828
H	-0.5585400478	 1.9032228609	 0.859074922	 0.132689
H	 0.481170904	-0.4345636522	-0.8418120848	 0.084729
H	 0.7221417188	-1.679629997	 1.3373849442	 0.116221
H	 1.7408644197	-0.2423111328	 1.2857877596	 0.120879
H	 0.2455534309	-0.2164442439	 2.218553708	 0.125655
H	-2.4946090166	 0.8231161761	-0.9583380433	 0.292517
H	-2.4015265748	-2.4535932486	-0.72017081	 0.124917
H	-0.7903112629	-2.7271363968	-0.0139404622	 0.107826
H	-3.3191109728	-2.4248417399	 1.6154758485	 0.133351
H	-1.6814560798	-2.2472795816	 2.2760282086	 0.134918
57.3246	91.9978	143.1726	204.4077	224.4395	256.8394	262.541	291.346	360.0835	389.5707	419.119	423.5117	520.5507	536.9803	663.5167	717.7447	750.9174	852.3801	908.4874	923.1366	930.1615	951.0067	967.7809	1041.5672	1055.9584	1086.1275	1120.7883	1176.1469	1185.3973	1195.7663	1218.7023	1234.4452	1275.7679	1327.5291	1343.1591	1369.9195	1398.7801	1420.0461	1439.1469	1479.0814	1492.2905	1496.6975	1509.3716	1520.194	1876.2484	3009.1283	3032.0839	3037.9692	3060.5542	3089.8135	3097.5235	3104.7508	3108.8357	3114.6682	3119.0802	3149.3357	3797.4909
CC(C)C1(O)CCC1=O	CC(C)[C@@]1(O)CCC1=O	
InChI=1S/C7H12O2/c1-5(2)7(9)4-3-6(7)8/h5,9H,3-4H2,1-2H3	InChI=1S/C7H12O2/c1-5(2)7(9)4-3-6(7)8/h5,9H,3-4H2,1-2H3/t7-/m0/s1
