21
gdb 93023	2.28517	1.82596	1.19489	1.7393	83.04	-0.2351	0.0044	0.2395	1108.6298	0.182678	-387.099687	-387.09106	-387.090116	-387.132352	34.122	
C	 0.1091655931	 1.5704352991	-0.0025919919	-0.408345
C	 0.0225341604	 0.0370547271	 0.0236964583	-0.049678
C	 0.5987290551	-0.5481718895	-1.2869815009	-0.263205
C	 0.7678993827	-2.0423521246	-1.2577812607	-0.104647
C	 1.0619877109	-2.6858763117	-0.1278433763	-0.033707
C	 1.214973463	-1.9413762752	 1.1437351603	-0.064299
O	 2.1010374269	-0.7914655948	 1.1468106524	-0.302336
C	 0.6910878162	-0.5641860859	 1.2592807963	 0.408431
C	 0.2349517513	-0.0569416208	 2.6096881799	-0.476564
H	 1.1539334187	 1.8972794487	 0.0401030169	 0.127816
H	-0.3278678777	 1.9641900403	-0.9258513926	 0.11273
H	-0.4240949706	 2.0285832542	 0.8349061579	 0.114772
H	-1.0374698934	-0.2507738311	 0.083140509	 0.076714
H	-0.0482925128	-0.2534195033	-2.1206412461	 0.098592
H	 1.5742414313	-0.0812872513	-1.4781569661	 0.127294
H	 0.6693763366	-2.5875927883	-2.1923604366	 0.09372
H	 1.1929311692	-3.7632493204	-0.1043167346	 0.087787
H	 1.2887188359	-2.5362270363	 2.0529907601	 0.082327
H	 0.4948145009	 0.997671525	 2.7428277855	 0.128668
H	-0.8510788858	-0.1528571354	 2.7171941566	 0.118893
H	 0.715191118	-0.6236618758	 3.4111801123	 0.125035
101.157	176.7251	216.5848	219.5077	272.3422	306.5332	352.612	393.686	417.578	491.651	538.7356	596.8559	660.4071	711.7198	785.6335	807.9012	870.7411	907.2245	925.0789	968.0579	980.6405	998.5002	1022.68	1053.7402	1083.311	1103.2858	1120.9916	1136.4853	1195.1442	1226.8617	1259.2618	1314.8332	1323.5373	1354.7132	1380.0862	1407.5112	1412.0084	1412.9459	1456.0769	1469.5451	1483.4923	1494.5292	1501.3121	1510.459	1711.2657	2997.9685	3020.6871	3034.7896	3037.5738	3062.2087	3100.8092	3102.6512	3112.1234	3117.9551	3122.0714	3159.2269	3184.2238
CC1CC=CC2OC12C	C[C@H]1CC=C[C@H]2O[C@@]12C	
InChI=1S/C8H12O/c1-6-4-3-5-7-8(6,2)9-7/h3,5-7H,4H2,1-2H3	InChI=1S/C8H12O/c1-6-4-3-5-7-8(6,2)9-7/h3,5-7H,4H2,1-2H3/t6-,7+,8-/m0/s1
