17
gdb 80642	2.85637	1.63502	1.30215	4.1734	71.65	-0.2475	0.0112	0.2587	986.5789	0.138091	-417.975584	-417.96812	-417.967175	-418.007401	29.167	
O	-0.1301390501	 1.4081385195	 0.0732516292	-0.424853
C	-0.0379754548	 0.007701617	 0.0033977373	 0.11748
C	-1.428041006	-0.5903122948	-0.2440623924	-0.043298
C	-1.0675882353	-1.9891540922	-0.7908740832	-0.190624
N	-0.5055226607	-1.2572985946	-2.0025809137	-0.125964
C	-1.6224314223	-0.2547422017	-1.7435191379	-0.186765
C	 0.6355153337	-0.5707146228	-1.3243216258	-0.182921
C	 1.2508995699	 0.4712325218	-2.1392502879	 0.291481
N	 1.7669980137	 1.3225660589	-2.7265372163	-0.328847
H	 0.7475727982	 1.7940822561	-0.0229106767	 0.298332
H	 0.4502137049	-0.4060220858	 0.8962479452	 0.079328
H	-2.1791275679	-0.4096602465	 0.5247905843	 0.084126
H	-0.3492877259	-2.6140145565	-0.2504227037	 0.106176
H	-1.9319447883	-2.583349177	-1.0910156479	 0.122603
H	-2.5531819458	-0.6361767825	-2.1657369526	 0.117951
H	-1.4280927486	 0.7629957949	-2.0842301676	 0.138805
H	 1.4026703153	-1.3151583436	-1.0918411702	 0.126991
124.6028	138.7348	233.0713	260.6755	346.4184	410.6657	475.6197	500.0224	542.3444	607.0109	753.2013	790.684	838.0626	846.5188	869.7492	883.0455	947.2096	969.1797	1014.0008	1034.0013	1063.1895	1080.3762	1110.3154	1138.85	1173.133	1209.3999	1231.6449	1241.8303	1256.3289	1290.0037	1301.889	1337.8768	1356.0257	1419.1799	1499.5702	1531.6021	2357.6682	3008.4885	3053.7953	3072.102	3085.3946	3121.5771	3130.5101	3151.6987	3807.5504
OC1C2CN(C2)C1C#N	O[C@H]1[C@@H]2CN(C2)[C@H]1C#N	
InChI=1S/C6H8N2O/c7-1-5-6(9)4-2-8(5)3-4/h4-6,9H,2-3H2	InChI=1S/C6H8N2O/c7-1-5-6(9)4-2-8(5)3-4/h4-6,9H,2-3H2/t5-,6-/m0/s1
