18
gdb 53558	4.01636	0.78595	0.72616	1.4841	81.65	-0.2432	0.0242	0.2673	1623.3334	0.14718	-401.945406	-401.935791	-401.934847	-401.983123	32.325	
C	 0.3580193018	 1.2463552274	-0.8198560147	-0.495626
C	 0.1102448731	-0.0508024838	-0.207485124	 0.049664
C	-0.0940971307	-1.1241196409	 0.2957255013	 0.079871
C	-0.3422627695	-2.4217296016	 0.9185575444	-0.427053
C	-1.6115155126	-3.0768064186	 0.4459537164	 0.418276
N	-2.5865238491	-3.4137399564	 1.1847551635	-0.307518
C	-3.5806511612	-4.0389913213	 0.2983767728	-0.184049
C	-2.9606191355	-3.9382037454	-1.1202237545	-0.10905
O	-1.6691178796	-3.3322220397	-0.8880531878	-0.24794
H	 1.3984765639	 1.3385576892	-1.150414615	 0.147803
H	-0.2817789113	 1.3985674428	-1.6960933449	 0.14919
H	 0.1589752913	 2.0639049777	-0.1182405084	 0.147942
H	 0.49318996	-3.1020092615	 0.7041428876	 0.146869
H	-0.4154869507	-2.3279505287	 2.0056062718	 0.15812
H	-3.7555764928	-5.0749451686	 0.6084026557	 0.116421
H	-4.5365887181	-3.5113266458	 0.3767806934	 0.118307
H	-2.8027710137	-4.905858157	-1.6038328846	 0.118792
H	-3.5249524855	-3.2913916378	-1.7982304131	 0.11998
12.2503	39.8156	65.9094	97.8329	192.5169	210.9976	283.2293	334.2216	377.7615	440.0976	600.4436	739.991	757.2765	802.6358	830.6739	906.5705	932.9176	977.7664	1010.2392	1030.169	1052.9721	1055.4197	1120.3083	1165.2892	1203.2797	1216.0003	1246.6145	1270.0639	1321.8613	1354.3097	1391.2982	1415.1656	1453.8617	1478.211	1479.0265	1503.0121	1526.8017	1741.456	2381.2052	3021.1638	3026.9067	3040.2601	3054.676	3069.6743	3087.5468	3088.0889	3093.5119	3103.2147
CC#CCC1=NCCO1	CC#CCC1=NCCO1	
InChI=1S/C7H9NO/c1-2-3-4-7-8-5-6-9-7/h4-6H2,1H3	InChI=1S/C7H9NO/c1-2-3-4-7-8-5-6-9-7/h4-6H2,1H3
