13
gdb 24546	3.92039	1.81055	1.23855	3.9094	77.	-0.2369	-0.0942	0.1426	908.0256	0.092863	-415.63812	-415.632347	-415.631402	-415.668144	23.221	
O	-0.0527949298	 1.3483449289	 0.0099976018	-0.191837
C	 1.1405163196	 1.9827330875	 0.0017539663	 0.015842
C	 2.3205535041	 1.3113146388	-0.013500166	-0.080673
N	 2.4273237994	-0.0586456023	-0.0220504376	-0.308919
C	 1.2906791878	-0.6902313314	-0.0143633295	 0.338432
N	 1.0867945485	-2.0449887894	-0.0197445621	-0.320434
C	-0.2319886183	-2.170042584	-0.00741344	-0.001452
C	-0.9889233665	-0.9370890853	 0.0066425226	-0.342972
C	-0.0138523838	 0.0084033909	 0.0022907968	 0.365838
H	 1.0311682198	 3.0577789573	 0.0087056117	 0.152171
H	 3.2458617192	 1.8753146429	-0.0194950064	 0.130661
H	-0.6840130304	-3.1570102762	-0.0084064097	 0.122189
H	-2.0607554295	-0.8237429575	 0.0177416521	 0.121156
219.3804	258.6982	389.6766	481.4916	538.6951	564.2286	610.0512	635.989	760.2364	783.2428	794.276	813.9901	869.2475	915.1831	922.8024	956.3637	1008.0945	1052.6638	1114.6349	1230.6257	1259.2263	1292.9435	1319.4859	1355.2411	1408.6069	1451.3336	1545.8131	1639.615	1664.8366	3190.5432	3201.7639	3248.5704	3264.694
O1C=CN=C2N=CC=C12	o1ccnc2nccc12	
InChI=1S/C6H4N2O/c1-2-7-6-5(1)9-4-3-8-6/h1-4H	InChI=1S/C6H4N2O/c1-2-7-6-5(1)9-4-3-8-6/h1-4H
