17
gdb 126400	3.96154	0.97963	0.83225	4.266	79.98	-0.2652	-0.0445	0.2206	1382.5586	0.13648	-418.053502	-418.045064	-418.04412	-418.087547	30.362	
C	 0.2139246086	 1.3363926408	-0.5056819496	-0.375784
C	-0.0788081571	 0.097932561	 0.3582278749	-0.285423
C	-1.4623160258	-0.4400509785	 0.1555961951	 0.375269
N	-2.3727052488	-0.3406240869	 1.1078707218	-0.295275
N	-3.496444232	-0.9062830538	 0.5822186265	-0.016855
C	-4.6993255465	-0.9994019998	 1.2920299561	 0.189857
O	-4.8773057019	-0.6048518894	 2.4073448273	-0.259191
C	-3.2900772406	-1.3609449418	-0.7002605474	 0.01053
C	-1.9939523299	-1.0790726796	-1.0115776067	-0.314391
H	 1.2343299006	 1.691846924	-0.3349910548	 0.119305
H	 0.1097243171	 1.113362448	-1.5723877032	 0.117515
H	-0.4761904443	 2.1501199351	-0.2643635993	 0.13192
H	 0.6508115698	-0.6877058034	 0.1262675028	 0.11091
H	 0.0365409441	 0.3431110379	 1.4175546619	 0.129892
H	-5.4701920411	-1.4931853122	 0.6708659624	 0.095768
H	-4.0809060194	-1.8395115348	-1.2564861137	 0.148712
H	-1.482805653	-1.2961045166	-1.935985334	 0.117242
38.2553	126.5598	152.9703	176.8004	233.4592	268.8687	370.0208	419.0792	527.6149	627.6669	640.7692	728.9642	779.7241	789.8323	825.0433	862.4064	957.1059	985.1602	1005.7319	1022.1352	1066.4768	1086.5154	1103.3158	1210.6836	1277.8184	1297.4699	1342.7005	1382.1071	1409.3285	1437.1499	1455.3925	1475.313	1480.0053	1497.6617	1508.5271	1601.5452	1851.68	2962.1825	3034.3487	3039.2096	3091.3655	3112.7564	3118.4188	3253.9255	3273.5112
CCC1=NN(C=O)C=C1	CCc1nn(C=O)cc1	
InChI=1S/C6H8N2O/c1-2-6-3-4-8(5-9)7-6/h3-5H,2H2,1H3	InChI=1S/C6H8N2O/c1-2-6-3-4-8(5-9)7-6/h3-5H,2H2,1H3
