18
gdb 61408	3.11228	0.94889	0.76101	2.0236	69.89	-0.2419	-0.0398	0.202	1448.798	0.145286	-476.281394	-476.271377	-476.270433	-476.317411	35.715	
C	-0.0577706243	 1.21098111	-0.551575226	-0.482788
C	 0.0301848106	-0.2216954178	-0.0879423892	 0.375372
O	 1.088158721	-0.7819174537	 0.1118070145	-0.318322
C	-1.2651922938	-1.0077059327	 0.1512850943	 0.011617
O	-0.9327807292	-2.3377101503	 0.4743662502	-0.434411
C	-2.1121407739	-0.3437506922	 1.26063244	-0.314863
C	-3.4830349155	-0.9955828157	 1.4899123684	 0.366569
N	-3.4421998739	-2.3317606124	 1.7438463298	-0.505858
O	-4.5073639175	-0.3401658672	 1.4829156857	-0.357496
H	 0.8950711868	 1.5138832518	-0.9874589046	 0.154982
H	-0.8695140698	 1.3519579548	-1.270951635	 0.147694
H	-0.2684840315	 1.8598821159	 0.3063561855	 0.164561
H	-1.8414198252	-0.9934234973	-0.7876313861	 0.107197
H	 0.0382984502	-2.3408320933	 0.549145256	 0.297365
H	-1.5389293502	-0.3752108117	 2.1952057133	 0.128489
H	-2.3174385005	 0.6995241295	 1.0150130623	 0.128406
H	-2.5962838125	-2.8481017738	 1.550654234	 0.275622
H	-4.3220217808	-2.8177591837	 1.8093368269	 0.255862
43.5444	69.9634	99.4763	115.578	160.472	242.1434	320.0876	356.1223	430.6047	441.0407	468.6629	499.1824	534.2523	584.6888	622.0748	642.6095	726.8842	822.1101	873.0813	906.1133	979.0906	1002.289	1057.2894	1107.6699	1150.5001	1195.0145	1227.0732	1262.1979	1310.999	1357.6292	1366.493	1389.405	1439.5326	1460.2158	1464.5341	1476.9424	1618.8637	1793.5639	1802.3059	2984.64	3043.97	3044.8961	3108.858	3127.7067	3154.5458	3558.01	3626.356	3703.9269
CC(=O)C(O)CC(N)=O	CC(=O)[C@@H](O)CC(=O)N	
InChI=1S/C5H9NO3/c1-3(7)4(8)2-5(6)9/h4,8H,2H2,1H3,(H2,6,9)	InChI=1S/C5H9NO3/c1-3(7)4(8)2-5(6)9/h4,8H,2H2,1H3,(H2,6,9)/t4-/m0/s1
