15
gdb 98503	2.42771	1.45488	0.97338	2.6398	68.99	-0.2671	-0.0192	0.2479	1181.5049	0.109019	-457.725493	-457.71627	-457.715326	-457.760233	32.335	
C	-0.2424297351	 1.3243637711	-0.1517838566	-0.249426
O	-0.2950565833	-0.0835429274	-0.4285538333	-0.237232
C	 0.8474818589	-0.6203476187	-0.8693765601	 0.429966
O	 1.8740472353	-0.0160940196	-1.0379465795	-0.36554
C	 0.7010556929	-2.1065662357	-1.1498873853	 0.066153
C	 1.6417237268	-2.6594275915	-2.1594261419	-0.196065
O	 1.8773165722	-2.8489562726	-0.7789277763	-0.248216
C	-0.563020228	-2.7491351323	-0.9071916059	 0.277594
C	-1.6120244977	-3.3023975873	-0.7175628444	-0.386724
H	 0.4959189266	 1.5318814852	 0.6261862518	 0.148998
H	 0.0267160736	 1.8807274483	-1.052801823	 0.14555
H	-1.2426222363	 1.5953493841	 0.1842394058	 0.140965
H	 1.3299745109	-3.5412690159	-2.7154872543	 0.131476
H	 2.3158712098	-1.9657438403	-2.656399452	 0.142539
H	-2.5412057566	-3.7857507873	-0.540499455	 0.19996
40.6214	119.1865	126.9601	148.2576	221.9598	227.1581	323.5096	327.3558	391.9753	500.2285	540.4092	566.2361	630.3491	673.1002	762.9935	798.6823	866.2402	899.7768	955.7707	1018.6543	1139.7023	1159.9258	1178.4744	1184.4358	1222.1192	1304.3569	1346.592	1473.3378	1482.3818	1494.6933	1498.3451	1827.0706	2246.2451	3056.5499	3096.3672	3133.7091	3167.8938	3201.0835	3500.9013
COC(=O)C1(CO1)C#C	COC(=O)[C@]1(CO1)C#C	
InChI=1S/C6H6O3/c1-3-6(4-9-6)5(7)8-2/h1H,4H2,2H3	InChI=1S/C6H6O3/c1-3-6(4-9-6)5(7)8-2/h1H,4H2,2H3/t6-/m1/s1
