18
gdb 66958	2.5115	1.71099	1.27745	4.2712	79.4	-0.2643	0.0258	0.2901	1031.6033	0.148615	-364.784971	-364.777277	-364.776333	-364.816974	30.162	
C	 0.033339109	 1.4922156763	 0.0932718374	-0.511218
C	 0.010367223	-0.0031443528	 0.0004186889	 0.347262
C	-0.9612342134	-0.8789472651	 0.8099887942	-0.100743
C	-1.0891101465	-2.2289722462	 0.108130694	-0.246603
C	 0.4168727395	-2.0707559405	-0.2275844477	-0.072968
C	 0.5353063944	-1.0408474812	 0.9667467419	-0.150019
C	 0.4732236551	-0.8475440293	-1.198951792	-0.199621
C	-0.3224519388	-0.8706150265	-2.4234123486	 0.26849
N	-0.9660427503	-0.8842335397	-3.3842959341	-0.340744
H	 1.0184459128	 1.8942842862	-0.1683129979	 0.122556
H	-0.7035248307	 1.9413917254	-0.5819409971	 0.138242
H	-0.2019699861	 1.8231066444	 1.110046606	 0.125696
H	-1.6517884746	-0.4152220446	 1.5028773191	 0.09157
H	-1.2463029479	-3.0345942186	 0.8300259	 0.107118
H	-1.7873454671	-2.3362614035	-0.7282068807	 0.119683
H	 1.054711726	-2.9310321468	-0.4137181352	 0.086305
H	 1.198202949	-0.9629150298	 1.8158765267	 0.09877
H	 1.5104396565	-0.6027950178	-1.4475206048	 0.116225
125.8196	135.1136	209.8451	251.197	292.2123	393.8568	425.9855	527.4116	558.515	623.2105	724.3094	784.9549	810.0271	834.6067	862.6435	895.2098	923.4015	961.5821	989.6524	993.1966	1023.147	1036.0606	1058.7363	1096.095	1113.3165	1141.0916	1163.4574	1190.1912	1222.6265	1258.5717	1268.159	1304.9275	1341.9751	1411.305	1432.6847	1486.2478	1497.7035	1501.3136	2347.3503	3027.299	3049.3702	3068.5648	3089.7351	3100.1883	3107.2774	3150.4515	3196.7126	3226.9507
CC12C3CC(C13)C2C#N	C[C@]12[C@H]3C[C@H]([C@@H]13)[C@H]2C#N	
InChI=1S/C8H9N/c1-8-5-2-4(7(5)8)6(8)3-9/h4-7H,2H2,1H3	InChI=1S/C8H9N/c1-8-5-2-4(7(5)8)6(8)3-9/h4-7H,2H2,1H3/t4-,5-,6+,7+,8+/m0/s1
