23
gdb 41527	2.7056	1.46504	1.04503	0.2401	92.25	-0.2247	0.0288	0.2535	1225.1892	0.208932	-351.164115	-351.155991	-351.155047	-351.19647	33.005	
C	 0.0174608719	 1.5509743276	-0.1940438854	-0.247787
C	 1.5212881854	 1.5481724141	 0.2262422855	-0.323538
C	 1.3215910222	 0.1166552385	 0.6888490539	 0.364017
C	 1.8726565423	-0.6450997692	 1.6255431652	-0.226013
C	 1.3859458956	-2.0209462772	 2.0186379306	-0.236223
C	 0.500339206	-2.718853843	 0.9707570119	-0.192242
C	-0.9493579757	-2.2121618991	 0.8339047716	-0.195437
C	-1.1265337057	-0.6840974925	 0.7017393234	-0.204306
C	 0.0025362573	-0.0071318339	-0.0675749586	-0.047272
H	-0.6167951455	 2.0206439839	 0.5632893402	 0.101743
H	-0.2265103203	 1.9737241286	-1.1712073968	 0.094278
H	 2.186240128	 1.6244881252	-0.642174397	 0.106016
H	 1.8460019363	 2.2818678684	 0.9696092008	 0.104173
H	 2.7396357035	-0.2690865166	 2.1680436814	 0.073977
H	 2.2636826177	-2.6531291077	 2.2084355591	 0.09907
H	 0.8602973113	-1.9714545483	 2.985378742	 0.101376
H	 1.006013867	-2.6449632396	 0.0004649763	 0.101222
H	 0.4574551853	-3.7892385801	 1.2051965201	 0.087248
H	-1.3868271019	-2.704406664	-0.0438752821	 0.093031
H	-1.5373605505	-2.557892527	 1.6934533089	 0.092072
H	-2.0937320779	-0.4696893445	 0.2289796691	 0.088928
H	-1.1655376283	-0.2291890233	 1.6994229177	 0.093148
H	 0.129966626	-0.46831667	-1.0563144477	 0.072518
99.1704	186.6369	209.0928	277.3337	291.0632	312.4044	354.7834	438.3093	561.1663	573.5893	684.5554	723.7177	753.6016	806.8731	821.3075	861.3923	899.9789	914.6952	925.4554	933.9541	1001.3931	1016.9684	1044.074	1057.5216	1090.6815	1105.3644	1108.2514	1141.8468	1193.5738	1202.7122	1208.2633	1242.2149	1253.9058	1265.4463	1278.3768	1305.1759	1318.2604	1357.07	1373.2269	1378.7365	1387.4898	1396.9176	1472.0681	1477.2688	1482.809	1490.8097	1493.888	1502.7017	1772.5683	2984.7601	3006.2219	3011.5642	3017.6954	3023.1938	3032.367	3034.1772	3040.9601	3057.0802	3058.2363	3069.4527	3084.4788	3114.4109	3127.1598
C1CC2=CCCCCC12	C1CC2=CCCCC[C@@H]12	
InChI=1S/C9H14/c1-2-4-8-6-7-9(8)5-3-1/h4,9H,1-3,5-7H2	InChI=1S/C9H14/c1-2-4-8-6-7-9(8)5-3-1/h4,9H,1-3,5-7H2/t9-/m0/s1
