20
gdb 17111	4.54153	1.53428	1.45457	0.9582	74.95	-0.2443	0.0926	0.3369	962.7649	0.179197	-348.986247	-348.979012	-348.978067	-349.017611	28.543	
C	 0.1295179266	 1.3214590142	 0.0700671545	-0.238108
O	-0.182426131	-0.03307967	-0.1497411829	-0.25113
C	 0.5440529183	-0.6184440505	-1.2115065467	 0.166253
C	 2.0316969552	-0.9766879187	-0.8601572158	-0.247069
C	 1.9512863937	-2.5070999764	-1.0200289394	-0.013544
C	 1.1537456325	-2.6373940711	-2.3508164963	-0.228162
C	 0.0086944829	-2.0298347697	-1.4893130908	-0.044279
C	 0.6098357713	-2.8407204117	-0.30453339	-0.216859
H	 1.1810821122	 1.4674874896	 0.3607402114	 0.103952
H	-0.0646591327	 1.9338034956	-0.8253186179	 0.10132
H	-0.5090828769	 1.6755061594	 0.8833374593	 0.124326
H	 0.475099534	 0.0283264162	-2.0999096827	 0.056087
H	 2.7557886353	-0.5189604711	-1.5406920984	 0.091169
H	 2.2752837271	-0.6721088773	 0.1619755012	 0.101471
H	 2.8615017983	-3.0781053622	-0.8336473941	 0.056653
H	 1.505151494	-2.074763783	-3.2221961275	 0.085075
H	 0.9549349319	-3.6746235476	-2.6294249018	 0.096674
H	-1.0406682469	-2.1000230392	-1.7745913975	 0.061903
H	 0.3590576404	-3.9025061818	-0.3604526302	 0.092004
H	 0.448067624	-2.4589502346	 0.7056780756	 0.102262
114.0686	150.5466	192.3256	277.9843	382.3292	442.3114	480.1371	518.209	671.9067	826.7252	833.2235	839.9437	860.1004	870.3991	943.2453	956.3991	973.3577	994.2104	1030.9489	1036.5514	1081.2517	1086.2333	1108.4037	1119.456	1147.8323	1184.8482	1192.6995	1222.866	1232.0379	1240.6043	1249.5525	1275.4669	1294.3667	1323.283	1338.7538	1393.6255	1480.6401	1484.2455	1485.8315	1488.6278	1510.1884	1522.6186	2967.9187	2978.7566	3015.7615	3044.5072	3051.2622	3066.1376	3098.137	3105.9917	3110.0513	3112.6394	3120.882	3127.8398
COC1CC2CC1C2	CO[C@H]1C[C@@H]2C[C@H]1C2	
InChI=1S/C7H12O/c1-8-7-4-5-2-6(7)3-5/h5-7H,2-4H2,1H3	InChI=1S/C7H12O/c1-8-7-4-5-2-6(7)3-5/h5-7H,2-4H2,1H3/t5-,6+,7-/m0/s1
