15
gdb 53072	5.60763	0.7735	0.68553	4.2001	80.84	-0.246	-0.0414	0.2046	1586.4674	0.112206	-416.838931	-416.830155	-416.829211	-416.875166	30.421	
C	-0.0553986853	 1.4519689353	 0.0106334182	-0.51004
C	 0.0083803866	 0.0008114004	 0.0021631795	 0.251786
C	 0.0785685236	-1.2021979357	-0.0051368106	-0.053057
C	 0.1239772023	-2.622337244	-0.0133040416	 0.210604
N	 1.1913177468	-3.3398975677	-0.0290004578	-0.306791
C	 0.741839908	-4.730675918	-0.031498222	-0.312322
C	-0.7923619918	-4.7092609456	-0.0143803969	 0.394135
O	-1.5899762142	-5.6128095371	-0.0104056262	-0.360522
N	-1.0740544024	-3.3483939467	-0.0039284551	-0.380854
H	 0.9489732361	 1.8871756954	 0.0285657069	 0.166683
H	-0.5706665726	 1.8276299525	-0.8799464556	 0.161897
H	-0.5976612954	 1.8164061847	 0.8897411582	 0.161683
H	 1.1087624927	-5.2600305833	-0.9183684032	 0.153237
H	 1.1282544449	-5.2694782717	 0.8412918168	 0.153238
H	-2.0012611092	-2.9557003785	 0.0084169692	 0.270323
7.4206	84.5368	86.3387	163.1513	278.397	300.1444	419.2365	433.506	461.8003	493.9943	558.8027	570.4564	680.2789	736.0101	877.5027	927.1477	971.7408	1003.3595	1049.0923	1051.2905	1071.535	1174.7862	1201.767	1255.181	1291.5573	1411.0384	1422.5481	1435.7969	1471.2576	1472.3813	1652.3712	1855.0746	2367.7669	3032.7667	3046.7895	3079.6132	3095.5653	3101.9256	3658.7731	7.4013	84.5355	86.3385	163.1516	278.3984	300.1467	419.2421	433.5066	461.8003	493.9956	558.8028	570.4571	680.2788	736.012	877.5028	927.1478	971.7406	1003.3605	1049.093	1051.291	1071.5357	1174.7854	1201.7673	1255.1812	1291.5573	1411.0385	1422.5483	1435.7963	1471.2579	1472.3815	1652.3728	1855.0736	2367.7679	3032.7666	3046.7896	3079.6133	3095.5652	3101.9255	3658.7728
CC#CC1=NCC(=O)N1	CC#CC1=NCC(=O)N1	
InChI=1S/C6H6N2O/c1-2-3-5-7-4-6(9)8-5/h4H2,1H3,(H,7,8,9)	InChI=1S/C6H6N2O/c1-2-3-5-7-4-6(9)8-5/h4H2,1H3,(H,7,8,9)
