17
gdb 102891	1.82536	1.25996	0.86994	2.7044	73.33	-0.3198	-0.0158	0.304	1356.7204	0.134071	-418.021721	-418.011838	-418.010894	-418.057735	33.815	
C	 0.4177908866	 1.5155174919	 0.4028134279	-0.397105
C	 0.0644166959	 0.1115200759	-0.0915337891	-0.191556
C	 0.9659317727	-0.3429883751	-1.2451150754	-0.029958
O	 2.2973388403	-0.4334077594	-0.7505213712	-0.230879
C	 3.2904914904	-0.6546022545	-1.7294549947	-0.202815
C	 3.4592058658	 0.4993660394	-2.6320310922	 0.255628
N	 3.5673664539	 1.4103007629	-3.3341898539	-0.297384
C	 0.5333464166	-1.6478577914	-1.7900207493	 0.27613
N	 0.2161902503	-2.6726469387	-2.2194810069	-0.317316
H	 1.450550742	 1.5576678145	 0.7557676768	 0.141399
H	 0.3005342225	 2.2576658905	-0.3939644988	 0.127598
H	-0.238951754	 1.8032000355	 1.2280046304	 0.126226
H	 0.1547126265	-0.6210205751	 0.7172207369	 0.131431
H	-0.9715823121	 0.0740840034	-0.4441682661	 0.127623
H	 0.9180118169	 0.3931793711	-2.0620241823	 0.140043
H	 4.2241500808	-0.8260110508	-1.1873748632	 0.172178
H	 3.0774928849	-1.5488446801	-2.3320155189	 0.168758
38.2307	80.9337	98.0083	140.0181	185.1132	207.4851	267.686	294.8698	337.3808	375.4003	436.8067	531.2709	595.3452	631.7379	762.6402	866.481	904.3888	940.17	969.2272	1038.6313	1052.6102	1105.5877	1132.8522	1159.2055	1277.3903	1304.2646	1319.1039	1364.9462	1385.1548	1395.048	1413.8003	1473.5067	1476.9783	1497.0658	1507.3762	2354.8881	2360.121	3000.0467	3021.2115	3045.8453	3053.0167	3092.2797	3105.1897	3116.132	3135.1192
CCC(OCC#N)C#N	CC[C@@H](OCC#N)C#N	
InChI=1S/C6H8N2O/c1-2-6(5-8)9-4-3-7/h6H,2,4H2,1H3	InChI=1S/C6H8N2O/c1-2-6(5-8)9-4-3-7/h6H,2,4H2,1H3/t6-/m1/s1
