17
gdb 108357	2.66984	1.65366	1.31899	3.6949	66.83	-0.2414	0.0546	0.2959	992.3333	0.135155	-458.872454	-458.864729	-458.863785	-458.904728	29.611	
O	 0.0077657366	 1.4091960385	-0.2001428817	-0.421761
C	 0.0264374287	 0.013653974	 0.0702509611	-0.197836
C	-1.3927420564	-0.4834195682	 0.0203451981	 0.254873
C	-1.6694409824	-2.0045106388	-0.0687571642	-0.138549
O	-2.4654814304	-1.8368027998	-1.270141003	-0.286582
C	-2.2794204032	-0.4138523579	-1.246567247	 0.045254
C	-3.3316414036	 0.4031032015	-0.4384790451	 0.010774
O	-3.7052435043	-0.3730004117	 0.7035004721	-0.231018
C	-2.4774548822	 0.3510104505	 0.7636354784	-0.032847
H	 0.9085860705	 1.7410603004	-0.1454094315	 0.293195
H	 0.63462581	-0.5305697746	-0.6695084942	 0.097575
H	 0.4564621901	-0.1937319443	 1.0652364635	 0.092844
H	-0.7797946767	-2.615426555	-0.2677390636	 0.095173
H	-2.2489807659	-2.437050992	 0.7508565621	 0.118022
H	-1.9559949734	 0.0191287961	-2.1960687151	 0.086132
H	-4.0404628349	 1.1463730012	-0.7854686751	 0.107015
H	-2.3427788326	 1.0592467399	 1.5725648352	 0.107738
91.2571	153.5727	221.8779	246.7629	292.3593	316.6725	410.9885	478.973	572.2809	690.6595	732.517	817.6959	834.5603	846.2853	880.634	904.4082	972.2436	993.5416	1000.2716	1012.6746	1047.5602	1065.884	1095.5169	1140.3618	1164.172	1174.8754	1211.8726	1231.2027	1251.2692	1276.5976	1289.8683	1321.8279	1360.6947	1387.6403	1463.6994	1502.4272	1516.5196	2954.23	2990.134	3020.0028	3088.9594	3095.3431	3177.8412	3194.4946	3833.1546
OCC12COC1C1OC21	OC[C@]12CO[C@H]1[C@H]1O[C@@H]21	
InChI=1S/C6H8O3/c7-1-6-2-8-4(6)3-5(6)9-3/h3-5,7H,1-2H2	InChI=1S/C6H8O3/c7-1-6-2-8-4(6)3-5(6)9-3/h3-5,7H,1-2H2/t3-,4+,5-,6+/m1/s1
