23
gdb 122112	3.0291	0.67218	0.57807	3.8619	83.63	-0.2427	-0.0149	0.2278	1976.784	0.202456	-425.438533	-425.427038	-425.426094	-425.476589	39.691	
C	-0.0007121065	 1.5717619865	-0.0395407808	-0.380634
C	-0.0385226996	 0.0463243104	 0.0859345657	-0.16695
C	-1.45136125	-0.5306903678	-0.0525136414	-0.167768
C	-1.487515174	-2.0595499925	 0.0528221259	-0.221222
C	-2.9110921748	-2.657381692	-0.0289689729	-0.061554
C	-2.867410142	-4.1683489037	-0.2366821359	-0.101002
O	-4.2079031526	-4.6313278105	-0.2767620752	-0.41903
C	-3.6569961855	-2.3425380611	 1.2559236671	 0.184841
O	-4.4365681425	-1.4387693135	 1.4044779404	-0.255036
H	 1.0183950799	 1.9563925728	 0.0665891595	 0.111015
H	-0.3803939155	 1.8980892698	-1.014102937	 0.114902
H	-0.6188582757	 2.0467641356	 0.7301591881	 0.118515
H	 0.6138269121	-0.4011980337	-0.6760279788	 0.092397
H	 0.3811570634	-0.2521040891	 1.0559295674	 0.094481
H	-2.104800478	-0.0914536685	 0.7111468228	 0.117388
H	-1.8761047023	-0.2281427313	-1.0191375842	 0.098047
H	-0.8798698729	-2.4964792479	-0.7505226951	 0.099727
H	-1.0149313486	-2.3774792773	 0.9935118903	 0.098469
H	-3.4620060003	-2.1939749397	-0.8543773412	 0.102947
H	-2.3294339358	-4.3969259756	-1.1692879938	 0.09455
H	-2.3059995352	-4.6375159187	 0.5890215454	 0.089003
H	-4.2005499194	-5.5909735532	-0.3390524727	 0.29102
H	-3.3829737442	-3.010849979	 2.1085941163	 0.065895
49.7145	59.1587	80.3604	104.4516	127.355	145.5371	212.3174	247.1492	259.5651	289.0334	306.216	339.3428	426.1006	524.2795	549.1895	733.1863	783.3059	869.8778	901.4648	918.7925	960.6551	1018.1622	1030.752	1033.914	1060.8364	1079.3326	1122.4039	1135.6078	1173.3794	1225.0036	1240.7216	1244.4736	1285.4367	1303.9	1324.0827	1333.5033	1355.264	1372.0334	1401.4191	1414.3755	1428.2537	1452.8101	1484.393	1487.0038	1500.4139	1500.4698	1513.1939	1520.2652	1837.5439	2834.0745	2960.3814	2998.432	3002.4893	3010.5397	3022.2485	3030.6115	3035.2049	3038.8427	3065.9974	3072.3618	3097.7569	3102.6681	3830.3647
CCCCC(CO)C=O	CCCC[C@@H](CO)C=O	
InChI=1S/C7H14O2/c1-2-3-4-7(5-8)6-9/h5,7,9H,2-4,6H2,1H3	InChI=1S/C7H14O2/c1-2-3-4-7(5-8)6-9/h5,7,9H,2-4,6H2,1H3/t7-/m1/s1
