25
gdb 60250	2.87412	0.88115	0.79494	1.6051	89.48	-0.2392	0.0814	0.3206	1625.9062	0.227427	-389.486352	-389.475541	-389.474597	-389.523672	39.335	
C	 0.1644090169	 1.5500182384	 0.0168585843	-0.38867
C	-0.0169763763	 0.0255955588	-0.0069669254	 0.050039
C	 0.7958256157	-0.6304056528	 1.1167794797	-0.393039
C	-1.4974832381	-0.3978053944	 0.0860589739	-0.19898
C	-2.322862793	-0.007494303	-1.1285346713	 0.13374
O	-1.8303188129	-0.6186329483	-2.3490510272	-0.294403
C	-3.1384569987	-1.1169765784	-2.6878676084	-0.073189
C	-3.7398328482	-0.6164199982	-1.355597932	-0.054651
C	-4.2532470026	-1.685938144	-0.3996842234	-0.40662
H	 1.2251614551	 1.8149453772	-0.0441593812	 0.110091
H	-0.3427269996	 2.0412764805	-0.8185881678	 0.118068
H	-0.2299078366	 1.9777856238	 0.9471886198	 0.106112
H	 0.3611261824	-0.3494493695	-0.9664598223	 0.096543
H	 0.4422111662	-0.3009008905	 2.1016802685	 0.107412
H	 0.7159962809	-1.7221064567	 1.0831603209	 0.108891
H	 1.8566957445	-0.3689451494	 1.0423659168	 0.108377
H	-1.5428343201	-1.4853217387	 0.212835827	 0.090399
H	-1.9537567683	 0.0475123224	 0.9824206388	 0.087273
H	-2.3324550492	 1.0862619355	-1.2375028465	 0.068849
H	-3.5369560888	-0.6429892854	-3.5946157619	 0.094722
H	-3.1378617553	-2.2056940222	-2.8309977786	 0.096066
H	-4.5052108628	 0.1529803521	-1.4880502536	 0.075373
H	-3.5379759324	-2.5058561348	-0.2827220415	 0.123763
H	-4.4594883625	-1.2741644687	 0.5938102045	 0.118355
H	-5.1867663664	-2.1157449336	-0.7790599031	 0.115477
21.0553	55.5055	93.3687	123.9592	209.1252	227.8316	239.1227	251.8547	332.2845	355.0816	381.0485	415.2928	458.877	512.5026	740.7292	814.5245	829.2069	877.4631	894.6855	920.552	929.7658	955.2199	963.7288	971.0854	1020.969	1051.9061	1083.9734	1132.0558	1141.4879	1157.6118	1172.2001	1191.7094	1194.7589	1252.6503	1265.7157	1291.8536	1310.2146	1351.9212	1367.1971	1373.851	1382.5011	1401.7255	1410.6005	1417.0997	1424.5513	1469.6932	1487.7439	1495.3992	1496.8078	1499.0581	1505.1191	1511.0169	1527.8126	2992.925	3002.0762	3005.9046	3020.5634	3023.8282	3031.5516	3033.6606	3039.2724	3064.9222	3066.9473	3084.6259	3092.4053	3095.7987	3097.5958	3105.6555	3108.183
CC(C)CC1OCC1C	CC(C)C[C@H]1OC[C@H]1C	
InChI=1S/C8H16O/c1-6(2)4-8-7(3)5-9-8/h6-8H,4-5H2,1-3H3	InChI=1S/C8H16O/c1-6(2)4-8-7(3)5-9-8/h6-8H,4-5H2,1-3H3/t7-,8-/m1/s1
