21
gdb 103958	2.64041	1.31832	1.08555	2.1069	78.49	-0.2369	0.0608	0.2977	1201.3698	0.181646	-424.187884	-424.178632	-424.177688	-424.221342	36.079	
C	 0.4203355564	 1.7072446491	-0.6708867195	-0.423053
C	 0.4687952908	 0.2163336567	-0.3979880165	-0.002773
C	 1.688379406	-0.6565288797	-0.456965585	-0.072079
C	 2.9114449571	 0.0278688855	 0.1754434315	-0.297635
C	 2.1478976507	 0.0698818637	 1.5477536999	 0.438325
O	 2.6318591761	-0.9283422824	 2.4328690639	-0.490495
C	 2.0538503612	 1.3802745074	 2.3198137099	-0.154967
O	 3.3599540273	 1.6241615429	 2.8480095529	-0.437551
C	 0.9056066548	-0.4989642526	 0.8587207366	-0.127968
H	 1.3595206233	 2.213306536	-0.4380501987	 0.122749
H	 0.2152224241	 1.8854597001	-1.7323694276	 0.114171
H	-0.3753609782	 2.1932847765	-0.0951066438	 0.114356
H	-0.3969010933	-0.2966760606	-0.8162389878	 0.08743
H	 1.7403040383	-1.5238039755	-1.1042346537	 0.082197
H	 3.7751700012	-0.6323999033	 0.2585352496	 0.109807
H	 3.2265055475	 0.9785195839	-0.2663555178	 0.089829
H	 3.3569633297	-0.5083299012	 2.9144842229	 0.281975
H	 1.7303097512	 2.2083404054	 1.6790139161	 0.090984
H	 1.317823879	 1.257366833	 3.1278346663	 0.094191
H	 3.2989491501	 2.3123923029	 3.5157241946	 0.293896
H	 0.2634620967	-1.2162286078	 1.3571458462	 0.086612
107.769	130.2165	165.5175	234.0692	245.7975	261.203	304.1579	371.4813	408.3831	443.1356	465.6395	494.9463	593.491	681.1339	717.4496	789.3081	835.5029	880.2311	905.2192	957.1295	971.6591	985.4858	1001.7014	1040.2167	1053.6503	1075.0094	1102.7353	1118.7822	1127.9065	1163.9262	1206.8511	1214.2199	1238.9274	1262.7138	1277.1208	1293.485	1346.8589	1411.9438	1413.5467	1443.1326	1450.2592	1478.4753	1498.6304	1501.6356	1512.9084	2998.123	3031.1087	3051.0711	3061.3108	3085.8968	3106.4725	3125.0082	3129.0173	3172.4103	3183.2566	3762.4933	3843.8197
CC1C2CC(O)(CO)C12	C[C@H]1[C@H]2C[C@@](O)(CO)[C@@H]12	
InChI=1S/C7H12O2/c1-4-5-2-7(9,3-8)6(4)5/h4-6,8-9H,2-3H2,1H3	InChI=1S/C7H12O2/c1-4-5-2-7(9,3-8)6(4)5/h4-6,8-9H,2-3H2,1H3/t4-,5+,6-,7+/m0/s1
