15
gdb 126055	3.94493	1.12327	1.03027	3.7427	67.89	-0.2722	-0.0698	0.2023	1159.5451	0.112446	-450.04469	-450.036989	-450.036045	-450.07783	27.869	
C	 0.1030576093	 1.5236854	-0.3502319707	-0.409368
C	-0.0194567718	 0.0640965718	 0.0028507546	 0.010356
N	 1.1891744247	-0.7541527423	-0.0813157729	-0.316831
C	 0.5803857345	-0.5465177719	 1.2402942492	-0.145934
C	 1.3436119976	 0.214022462	 2.2426446198	 0.458815
N	 2.328723019	 1.0439437649	 2.0356808703	-0.161732
O	 2.6678102377	 1.4844392983	 3.2719418497	-0.132958
N	 1.8454776164	 0.8758398784	 4.2112676441	 0.044511
N	 1.0541754396	 0.1179742104	 3.5967795428	-0.214098
H	 1.0500144659	 1.9352449242	 0.0043592549	 0.159086
H	 0.063007073	 1.6493643148	-1.4370732245	 0.129251
H	-0.7201965216	 2.0974462018	 0.087854644	 0.123106
H	-0.9553992386	-0.4041698622	-0.3015077961	 0.098433
H	 0.9872007962	-1.6933044754	-0.4127057912	 0.24406
H	 0.0203096181	-1.3584881849	 1.6960395259	 0.113304
45.5916	126.2063	173.7327	205.7361	291.2603	387.2357	433.237	503.8891	673.4962	699.5564	710.3746	782.3291	796.8903	861.3615	935.6272	958.861	1002.5822	1021.446	1063.8065	1065.2705	1101.5187	1148.838	1194.8267	1239.343	1241.608	1258.3963	1400.3316	1425.2698	1451.3105	1489.8201	1495.7008	1514.7609	1597.7661	3041.7052	3104.4129	3107.666	3141.7568	3151.6507	3512.831
CC1NC1C1=NON=N1	C[C@H]1N[C@H]1c1nonn1	
InChI=1S/C4H6N4O/c1-2-3(5-2)4-6-8-9-7-4/h2-3,5H,1H3	InChI=1S/C4H6N4O/c1-2-3(5-2)4-6-8-9-7-4/h2-3,5H,1H3/t2-,3-/m1/s1
