21
gdb 76491	3.1615	1.00847	0.9623	1.6174	79.79	-0.225	0.0543	0.2793	1353.6149	0.181156	-424.191076	-424.181622	-424.180678	-424.225334	36.121	
C	-0.8848160873	 1.1371787697	-0.1508945068	-0.40461
C	 0.1161626181	 0.004997559	 0.0165579613	 0.062993
C	 1.4263600843	 0.0515124865	-0.8330716837	-0.307147
C	 2.2055744386	-0.295970368	 0.4374163582	 0.292977
C	 0.9819432033	-0.0216187387	 1.3165669085	-0.329134
C	 3.1646959644	-1.4598802291	 0.5390328271	 0.027151
O	 3.5539662799	-2.1336256609	-0.6189436553	-0.431725
C	 3.6545187092	-0.0397220734	 0.724208536	-0.055218
O	 4.3921976415	 0.4957811817	-0.3502765071	-0.430063
H	-0.4013925053	 2.1117258452	-0.0151865722	 0.111415
H	-1.3345800451	 1.1254133331	-1.1501583549	 0.1142
H	-1.6971288894	 1.063533909	 0.581164046	 0.112219
H	-0.3848428233	-0.9584937623	-0.1205793178	 0.07551
H	 1.5115573609	-0.6667455137	-1.6524893036	 0.105725
H	 1.6503648884	 1.0532345033	-1.2136925504	 0.103185
H	 1.022889895	 0.9580948509	 1.8067040709	 0.094793
H	 0.7304063069	-0.7767451395	 2.0674277718	 0.095972
H	 3.1033822423	-2.1267224543	 1.3952107189	 0.096414
H	 3.9958521499	-1.473496575	-1.1714161186	 0.283774
H	 3.9413799851	 0.3224559722	 1.7110219064	 0.086826
H	 5.3246534927	 0.3146251843	-0.1851897049	 0.294743
49.4136	149.574	152.453	227.2611	236.5781	254.413	283.988	322.9554	377.1818	443.9266	494.4629	507.5396	602.0145	656.0165	727.2888	805.0484	835.2271	871.8819	896.2766	896.8856	944.6276	990.6936	1044.7067	1071.8783	1081.6709	1118.2112	1134.7177	1153.3376	1168.7117	1184.7374	1230.7114	1233.7783	1249.9682	1266.1155	1285.1538	1313.0638	1331.4142	1369.0679	1408.7583	1410.9778	1476.0554	1477.2218	1493.2264	1496.32	1498.8144	3020.794	3030.8103	3047.3028	3049.4179	3083.1445	3089.2159	3091.7039	3102.2285	3104.2688	3143.5835	3738.1534	3793.3992
CC1CC2(C1)C(O)C2O	C[C@H]1C[C@@]2(C1)[C@@H](O)[C@H]2O	
InChI=1S/C7H12O2/c1-4-2-7(3-4)5(8)6(7)9/h4-6,8-9H,2-3H2,1H3	InChI=1S/C7H12O2/c1-4-2-7(3-4)5(8)6(7)9/h4-6,8-9H,2-3H2,1H3/t4-,5-,6+,7-/m1/s1
