19
gdb 53357	4.76607	0.73055	0.65909	2.9832	85.4	-0.2346	-0.0159	0.2187	1702.2874	0.158189	-385.907401	-385.897898	-385.896953	-385.9439	33.735	
C	 0.0838010978	 1.5148060722	-0.1018313656	-0.499609
C	 0.0329349992	 0.0609610323	-0.0359503046	 0.119389
C	-0.0071530519	-1.1419754002	 0.0115962801	 0.021078
C	-0.0633528263	-2.5938499536	 0.0923459489	-0.177793
C	 0.59942666	-3.1891844152	 1.3693275794	-0.216352
C	 0.0645880554	-4.6251273413	 1.4318456103	-0.327222
C	-1.3285567499	-4.5598645782	 0.790986254	 0.396249
O	-2.153551172	-5.4354244695	 0.8067547363	-0.31051
C	-1.490123194	-3.1880548135	 0.1284990425	-0.316598
H	 1.117773416	 1.8763351097	-0.127603721	 0.148315
H	-0.4201740018	 1.8904502426	-0.9992558913	 0.148947
H	-0.404261239	 1.9708376835	 0.7666082201	 0.147871
H	 0.4557885016	-3.0179087941	-0.7790287954	 0.104578
H	 1.6887312218	-3.1250065246	 1.3304942876	 0.112276
H	 0.2661433725	-2.6159936322	 2.2409437169	 0.115556
H	 0.6724388091	-5.3065325968	 0.8218292408	 0.132236
H	 0.0119644715	-5.0571653013	 2.4338101659	 0.129948
H	-2.1359590635	-2.5777483576	 0.7728499389	 0.138654
H	-1.9800105966	-3.2649129826	-0.8440489439	 0.132988
15.8689	64.2166	88.4108	115.0698	204.1422	281.5	320.8979	417.4078	437.3375	475.5445	523.1524	541.4973	575.3803	723.7367	800.08	823.1266	896.8315	913.9755	950.9799	988.7567	1053.1942	1053.6832	1065.1927	1131.1157	1157.9959	1177.8576	1188.1214	1237.8738	1252.7916	1295.5009	1306.567	1319.641	1373.6567	1415.1419	1449.047	1451.1144	1478.7191	1478.9534	1499.6605	1848.4553	2371.2721	3000.2093	3026.7669	3033.531	3041.9094	3056.1843	3087.2255	3087.5665	3106.7957	3114.7182	3118.3594
CC#CC1CCC(=O)C1	CC#C[C@H]1CCC(=O)C1	
InChI=1S/C8H10O/c1-2-3-7-4-5-8(9)6-7/h7H,4-6H2,1H3	InChI=1S/C8H10O/c1-2-3-7-4-5-8(9)6-7/h7H,4-6H2,1H3/t7-/m0/s1
