21
gdb 61537	2.37387	1.13572	0.99122	3.959	79.02	-0.2423	-0.0143	0.2281	1332.4235	0.178887	-424.223503	-424.213145	-424.2122	-424.25994	37.052	
C	 0.5223633336	-1.5217819668	 0.9504554692	-0.412746
C	-0.2361376727	-0.9251292641	-0.2490013262	-0.071946
C	 0.7511734893	-0.4165563592	-1.3207757782	-0.269431
C	 0.0940535521	 0.1423696209	-2.5723986965	 0.412452
C	-0.8772830518	 1.2899004427	-2.3993136532	-0.467339
C	 0.7742395437	-0.0519539802	-3.8619996129	-0.229662
O	-0.3416150377	-0.8697181054	-3.4995142915	-0.269488
C	-1.1631803223	-1.9852884573	-0.8196993466	 0.19001
O	-2.3651219065	-1.9202336002	-0.8087354069	-0.260095
H	 1.1041638256	-2.401389942	 0.6519700957	 0.123146
H	 1.2191558545	-0.7876795893	 1.3668110622	 0.123792
H	-0.1667781605	-1.8252705102	 1.7437235326	 0.13149
H	-0.8719357658	-0.1047873105	 0.0986008529	 0.096383
H	 1.387627129	 0.3538092968	-0.8667482603	 0.106475
H	 1.4128549843	-1.2384226375	-1.6189930451	 0.105451
H	-0.4035380701	 2.1288630848	-1.8779532583	 0.11753
H	-1.232158864	 1.6398376099	-3.3714584906	 0.128253
H	-1.7485463684	 0.9732662592	-1.8181265907	 0.148628
H	 0.592896262	 0.6471677267	-4.6774538335	 0.112452
H	 1.7368795664	-0.5614426127	-3.89850927	 0.108784
H	-0.6366231806	-2.8731963855	-1.2404989421	 0.075859
26.4475	67.3618	92.757	165.5691	207.6915	215.9658	280.7449	305.0527	337.7551	361.1618	376.9661	404.9241	495.8336	562.1879	734.0158	815.5107	849.6267	902.6644	907.9475	929.6694	949.7286	980.4087	1016.7497	1072.8838	1109.4001	1118.7772	1135.3976	1159.0468	1170.7088	1224.0519	1285.1675	1307.8223	1341.6158	1356.6633	1403.3444	1408.8144	1421.7147	1428.5197	1466.7791	1486.2044	1496.6925	1499.8865	1502.9	1531.8528	1831.7901	2865.1527	3022.2072	3031.7763	3039.0844	3057.8009	3073.1595	3077.054	3100.9988	3107.4606	3112.9077	3125.8113	3162.0262
CC(CC1(C)CO1)C=O	C[C@@H](C[C@@]1(C)CO1)C=O	
InChI=1S/C7H12O2/c1-6(4-8)3-7(2)5-9-7/h4,6H,3,5H2,1-2H3	InChI=1S/C7H12O2/c1-6(4-8)3-7(2)5-9-7/h4,6H,3,5H2,1-2H3/t6-,7-/m0/s1
