18
gdb 125675	2.92019	1.43834	1.01654	2.506	79.06	-0.2002	0.0312	0.2315	1164.3987	0.14906	-398.119628	-398.111242	-398.110297	-398.152981	31.194	
C	 0.2893060766	 1.391246284	 0.1656810584	-0.496311
C	 0.0891040862	-0.0866785955	 0.0740744686	 0.292485
N	 0.0638013996	-0.7132609192	-1.1009336441	-0.28448
N	-0.1505683152	-2.0066349157	-0.8009449194	-0.19302
C	-0.2579951307	-2.2359765954	 0.5344893547	-0.117776
C	-0.1060215656	-1.0049619538	 1.1423581085	 0.14095
N	-0.2136634756	-0.6721434864	 2.5055935406	-0.154527
C	 0.2940354382	-1.6109901162	 3.4970547743	-0.228326
C	 1.0062562375	-0.3283933835	 3.2419750005	-0.224082
H	 1.225674291	 1.6450709781	 0.6765368754	 0.122086
H	 0.3183863808	 1.8240074238	-0.8364445499	 0.137214
H	-0.5213043824	 1.8634923392	 0.7311433226	 0.133152
H	-0.2197122148	-2.6755815373	-1.547346664	 0.271208
H	-0.448946876	-3.217676131	 0.9364999002	 0.126859
H	-0.319881634	-1.7347276661	 4.3842097807	 0.119747
H	 0.77350153	-2.5189651079	 3.1367217772	 0.114225
H	 1.9509144444	-0.3866661223	 2.7064368677	 0.12027
H	 0.9137518799	 0.5015825752	 3.9357983081	 0.120323
67.1051	117.2164	159.7041	177.86	261.7688	303.2808	399.3225	445.7559	511.666	559.3491	663.63	704.2941	714.8666	767.7249	825.3697	902.9885	917.389	943.0444	1004.3748	1036.8795	1067.8799	1076.9074	1108.9523	1129.4579	1143.9194	1173.9675	1187.148	1221.648	1272.8357	1361.3385	1395.2031	1414.3023	1477.7828	1480.9026	1488.4633	1492.2775	1514.7195	1527.1765	1617.9071	3030.3629	3080.5761	3101.7324	3108.0165	3132.1502	3186.4544	3202.3439	3265.1767	3686.7778
CC1=NNC=C1N1CC1	Cc1n[nH]cc1N1CC1	
InChI=1S/C6H9N3/c1-5-6(4-7-8-5)9-2-3-9/h4H,2-3H2,1H3,(H,7,8)	InChI=1S/C6H9N3/c1-5-6(4-7-8-5)9-2-3-9/h4H,2-3H2,1H3,(H,7,8)
