22
gdb 13457	3.14339	1.26085	1.13463	0.9259	79.23	-0.2321	0.0806	0.3127	1214.5068	0.198236	-350.191333	-350.181404	-350.18046	-350.226122	35.628	
C	-0.014279427	 1.4587970616	-0.0859481784	-0.386792
C	-0.1928222079	-0.0240687624	-0.3620876535	-0.031642
O	 1.0240065489	-0.5307039659	-0.8897345289	-0.247073
C	 0.9838785268	-1.8982707175	-1.1541801184	 0.105483
C	 0.554173486	-2.3871782945	-2.5259089618	-0.054261
C	 0.0590752825	-1.4244400296	-3.5841894452	-0.407547
C	 2.0181877657	-2.433606584	-2.102929245	-0.066841
C	 3.0705401633	-1.5279208042	-2.7074707266	-0.40041
H	 0.8020730203	 1.6211635364	 0.6235325584	 0.127059
H	 0.2228771913	 1.9966693613	-1.0084916499	 0.12485
H	-0.9313288877	 1.8813876665	 0.3354563223	 0.114074
H	-0.4483177629	-0.5624362173	 0.5655521985	 0.086929
H	-1.0162638942	-0.1944719108	-1.0719506447	 0.092521
H	 0.7124389553	-2.5016481766	-0.2856537475	 0.074809
H	 0.05125281	-3.3514258208	-2.5353239464	 0.076525
H	 0.4368740027	-0.4138978468	-3.4151189217	 0.12903
H	 0.3709555287	-1.7378515857	-4.5867566029	 0.113495
H	-1.0352888229	-1.3736599059	-3.5816533768	 0.111436
H	 2.3878045426	-3.4260468575	-1.856372466	 0.080296
H	 2.7148750145	-0.5012826726	-2.8053437241	 0.13168
H	 3.9630279699	-1.5033021344	-2.072989032	 0.11573
H	 3.3765210939	-1.8841690794	-3.6972671694	 0.110651
69.4798	104.9923	119.8943	145.9006	177.9367	215.0078	244.6279	256.7756	292.7105	389.3344	465.6393	563.2145	608.5981	750.1217	776.1071	820.5402	863.7374	917.1319	956.3412	970.8002	1029.3412	1049.6363	1085.0834	1115.3328	1136.6397	1152.0614	1159.7756	1181.9438	1186.9771	1197.6547	1263.0079	1294.8753	1360.7324	1368.0179	1400.3749	1411.9539	1417.6782	1421.8926	1462.6673	1483.7469	1488.9209	1493.7169	1500.2843	1506.7118	1514.8989	1528.3305	2968.0209	3005.273	3031.583	3036.2979	3044.2197	3073.5035	3084.2662	3089.2544	3116.3112	3118.0128	3121.0076	3127.4302	3133.344	3145.6996
CCOC1C(C)C1C	CCO[C@H]1[C@@H](C)[C@H]1C	
InChI=1S/C7H14O/c1-4-8-7-5(2)6(7)3/h5-7H,4H2,1-3H3	InChI=1S/C7H14O/c1-4-8-7-5(2)6(7)3/h5-7H,4H2,1-3H3/t5-,6+,7-
