14
gdb 30970	2.43692	1.45583	0.94625	5.0466	61.69	-0.2074	0.0342	0.2416	1172.4381	0.099971	-510.990301	-510.981824	-510.98088	-511.023957	30.098	
C	 0.1686315016	 1.4086571524	-0.0115760362	-0.338105
N	-0.388505757	 0.118621582	 0.4166184542	-0.396327
C	 0.4261288222	-0.6956016439	 1.172375418	 0.266629
C	 0.8677999687	-1.9495196197	 1.0650341145	 0.237963
O	 0.7958914692	-2.8506462517	 0.0756459159	-0.415001
O	 1.5688485685	-2.286676429	 2.2257428964	-0.23661
C	 1.5788745134	-1.1778514277	 3.0209792882	 0.507994
O	 2.1032013062	-1.0841998287	 4.083600444	-0.37281
O	 0.8801107925	-0.1877871276	 2.387730428	-0.233819
H	 1.0298507301	 1.3078164733	-0.6874864013	 0.120887
H	-0.6163470522	 1.9772045501	-0.5145481749	 0.133375
H	 0.4829660922	 1.968355494	 0.871466384	 0.16008
H	-0.7932286478	-0.4030244763	-0.3499581725	 0.250195
H	 0.3333044322	-3.6422145171	 0.3832710317	 0.315548
62.109	132.6371	164.0104	200.3722	248.5736	282.208	326.2908	392.7559	419.0854	595.2221	631.2762	644.3694	665.2605	711.9585	773.838	838.0884	970.0367	989.4732	1057.3136	1138.0792	1155.4665	1205.2851	1278.1919	1293.1307	1392.9682	1466.4122	1477.8988	1496.0736	1519.5868	1838.2489	1947.207	3002.1374	3103.055	3143.1682	3581.3832	3739.1835
CNC1=C(O)OC(=O)O1	CNc1c(O)oc(=O)o1	
InChI=1S/C4H5NO4/c1-5-2-3(6)9-4(7)8-2/h5-6H,1H3	InChI=1S/C4H5NO4/c1-5-2-3(6)9-4(7)8-2/h5-6H,1H3
