20
gdb 34034	2.96144	1.29028	1.11093	4.511	83.1	-0.2744	0.0366	0.311	1167.908	0.174032	-366.040645	-366.032669	-366.031725	-366.072983	31.553	
N	 0.0261572644	-1.1380339808	-0.0115199793	-0.352165
C	 0.0135521756	 0.0192925626	-0.0272292927	 0.225701
C	-0.0129014921	 1.4600694485	-0.0341088151	 0.171011
C	 0.4915046951	 2.1332136677	-1.3000441596	-0.314504
C	 1.3482594723	 2.1690015702	-0.066436981	-0.050424
C	 1.5513914206	 3.4694452962	 0.7124334722	-0.22859
C	 0.4224995459	 3.7815213497	 1.7085666722	-0.187585
C	-0.9589877288	 3.5547841504	 1.0875109542	-0.221591
C	-1.1696127517	 2.0701886264	 0.760076027	-0.267053
H	 0.7887138149	 1.495600571	-2.1241636906	 0.134267
H	-0.0125183925	 3.047671488	-1.5962429938	 0.122417
H	 2.2023126669	 1.5006275872	-0.0815672715	 0.111202
H	 2.5047036566	 3.4177573804	 1.2471636438	 0.108821
H	 1.6461809753	 4.2997673199	 0.0014479119	 0.106982
H	 0.5221785281	 3.1357849238	 2.5908006012	 0.103602
H	 0.5233662546	 4.8129028585	 2.0617685001	 0.09899
H	-1.7478522337	 3.8763939973	 1.7750979192	 0.104649
H	-1.0698205365	 4.1707236793	 0.1855895443	 0.100564
H	-2.1071134747	 1.9187686478	 0.2135251198	 0.113857
H	-1.2635074304	 1.5153397559	 1.7010611176	 0.119847
108.2152	148.8997	177.053	277.3996	334.2378	371.6837	389.7781	478.148	538.4715	565.5253	582.4238	667.3129	765.3254	814.8449	851.5576	886.1771	912.5868	933.2282	937.6541	965.6575	1009.0051	1067.1424	1078.2444	1104.0846	1119.6454	1138.7497	1186.4063	1201.0836	1239.6766	1286.1112	1295.6147	1304.7615	1363.5629	1369.2242	1376.7613	1389.2864	1411.54	1476.6369	1489.0217	1493.0671	1496.4782	1508.1943	2345.2448	3020.3194	3025.2163	3028.5259	3032.865	3068.5958	3073.5239	3077.2739	3081.4798	3135.1007	3166.7469	3225.7541
N#CC12CC1CCCC2	N#C[C@]12C[C@H]1CCCC2	
InChI=1S/C8H11N/c9-6-8-4-2-1-3-7(8)5-8/h7H,1-5H2	InChI=1S/C8H11N/c9-6-8-4-2-1-3-7(8)5-8/h7H,1-5H2/t7-,8+/m1/s1
