20
gdb 83242	2.70119	1.44366	1.32252	1.6925	80.3	-0.225	0.0285	0.2535	1098.1234	0.171623	-403.160418	-403.151629	-403.150685	-403.193863	32.877	
C	 0.0347082463	 1.566950345	 0.0968306626	-0.417576
C	 0.087903054	 0.0593807509	-0.0196174025	-0.026011
C	 0.64818957	-0.6691321057	-1.2200918026	-0.104163
C	 1.3814157878	 0.0459759231	-2.3314338102	-0.097192
O	 2.4910799946	 0.8557453789	-1.9029668017	-0.268453
C	 3.0859234616	 0.6092234558	-0.7016142195	 0.38616
C	 4.3965703077	 1.3326621642	-0.6097230026	-0.452991
N	 2.6371103382	-0.0955501781	 0.2536859836	-0.290882
C	 1.3750767594	-0.7458052223	 0.1010589112	-0.014263
H	 0.8776444064	 2.0561215726	-0.3940591072	 0.135595
H	-0.88272326	 1.9519329544	-0.3622692203	 0.114591
H	 0.0339472236	 1.8746696259	 1.1475766696	 0.124269
H	-0.7696525287	-0.4371093427	 0.4292214106	 0.086863
H	 0.1142837834	-1.5503127555	-1.5642359947	 0.08856
H	 1.7735761959	-0.6991303711	-3.0352572829	 0.115339
H	 0.7312696622	 0.7251943835	-2.8940316236	 0.115525
H	 5.0814060064	 0.9780078585	-1.3870368929	 0.134745
H	 4.252801347	 2.4056136242	-0.773410198	 0.136025
H	 4.8357843977	 1.1661220959	 0.3730435314	 0.143513
H	 1.3113186966	-1.6651903374	 0.6741498997	 0.090348
98.8521	122.6312	145.0447	155.2016	192.1101	272.6335	336.3193	440.6599	486.1512	520.0166	584.2252	670.6845	749.7497	760.7036	763.5431	848.3555	887.4763	957.7388	977.0862	986.8741	1033.9908	1062.9664	1069.9934	1089.7552	1108.8023	1145.9947	1160.7479	1197.5708	1243.8518	1254.9969	1281.8007	1370.1883	1373.0361	1400.4269	1410.546	1426.723	1449.2615	1475.2642	1476.8997	1497.563	1504.2898	1516.9323	1742.5423	3020.6402	3037.4926	3045.489	3058.567	3092.1327	3101.2045	3122.3311	3140.3432	3143.2787	3156.8797	3165.2983
CC1C2COC(C)=NC12	C[C@H]1[C@H]2COC(=N[C@@H]12)C	
InChI=1S/C7H11NO/c1-4-6-3-9-5(2)8-7(4)6/h4,6-7H,3H2,1-2H3	InChI=1S/C7H11NO/c1-4-6-3-9-5(2)8-7(4)6/h4,6-7H,3H2,1-2H3/t4-,6+,7-/m0/s1
