16
gdb 18815	4.09099	2.1854	1.80485	3.0525	66.94	-0.2335	-0.0091	0.2244	756.5293	0.132868	-346.603318	-346.597392	-346.596448	-346.633206	24.248	
O	 0.003215796	 0.0094529236	 0.1577912615	-0.325068
C	-0.0142786553	 1.2051363558	 0.0281944245	 0.421024
C	-1.2715703079	 2.0983471588	-0.0290795549	-0.35293
C	-0.7326576328	 3.4544295417	-0.4467598776	-0.042483
C	 0.389822943	 4.1122647232	 0.3411003371	-0.060901
C	 1.1573685751	 3.084979317	 1.1716593122	-0.244469
C	 1.183294301	 2.138282057	-0.0892558156	-0.150201
C	 0.6921798447	 3.3445494981	-0.9349155181	-0.084103
H	-1.9682743682	 1.6908128836	-0.7690736387	 0.130017
H	-1.785380575	 2.0828947098	 0.9384108918	 0.128552
H	-1.3888958814	 4.143458992	-0.9658026374	 0.091858
H	 0.3919338904	 5.183618229	 0.5037117721	 0.087388
H	 2.1688692494	 3.4287926395	 1.3980931159	 0.116663
H	 0.7001996043	 2.6991086994	 2.0898730812	 0.103833
H	 2.121888337	 1.6385650053	-0.3149596214	 0.08804
H	 1.0635048696	 3.6717973162	-1.8962606828	 0.092781
122.6715	288.9222	389.1019	444.9268	526.8981	628.2472	684.5146	714.7813	760.2149	782.2928	802.8916	868.5078	927.848	952.8472	955.364	977.4615	993.4291	1015.3396	1054.1193	1063.7743	1097.9965	1129.7449	1166.974	1178.011	1205.2552	1233.9371	1250.6096	1276.0736	1296.7563	1326.8097	1403.1196	1455.3266	1498.2875	1848.9132	3037.9293	3048.4697	3087.2718	3107.3849	3150.9187	3175.576	3183.7284	3209.2753
O=C1CC2C3CC1C23	O=C1C[C@H]2[C@H]3C[C@@H]1[C@@H]23	
InChI=1S/C7H8O/c8-6-2-4-3-1-5(6)7(3)4/h3-5,7H,1-2H2	InChI=1S/C7H8O/c8-6-2-4-3-1-5(6)7(3)4/h3-5,7H,1-2H2/t3-,4+,5+,7-/m1/s1
