21
gdb 70857	2.74091	1.69927	1.30578	0.4776	87.23	-0.2142	0.0215	0.2357	1068.4912	0.182854	-349.940084	-349.932048	-349.931104	-349.971789	33.23	
C	-0.0786042164	 1.5151492261	-0.016772499	-0.499797
C	-0.0231820899	 0.0145437649	-0.0353730736	 0.336812
C	 0.7403651998	-0.8211372579	-1.0574622161	-0.310653
C	-0.2127902154	-2.0447374497	-0.7310526849	 0.290036
C	-0.7513413589	-2.8484845049	-1.8966369862	-0.497954
C	 0.465421393	-2.8050157935	 0.3947138728	-0.142123
C	 0.452727376	-2.0617358745	 1.5050574638	-0.091498
C	-0.3167749004	-0.8109335122	 1.2526257843	-0.129835
C	-1.1363032185	-1.0080174935	 0.0039354172	-0.161585
H	 0.8902343114	 1.944384286	 0.2659499767	 0.120101
H	-0.3431381962	 1.9174008688	-1.0019199574	 0.114858
H	-0.8223094043	 1.8779566368	 0.7009075657	 0.115469
H	 0.5415980489	-0.4441463568	-2.0660526077	 0.093936
H	 1.8179101712	-0.9748286307	-0.929106973	 0.083278
H	 0.051190067	-3.4019735948	-2.3976715151	 0.114911
H	-1.4993070623	-3.5763328584	-1.5624938728	 0.117339
H	-1.2232372909	-2.2001610504	-2.6427148466	 0.111717
H	 1.0089195121	-3.7299931541	 0.2392071078	 0.088787
H	 0.9556314275	-2.282861067	 2.4385426868	 0.092798
H	-0.7239793512	-0.2270290671	 2.0709432309	 0.076623
H	-2.2129044226	-0.9000842471	-0.0774238634	 0.07678
188.4131	203.6569	216.1005	264.9756	284.7436	321.3479	384.0992	424.9577	536.8989	582.9096	597.643	717.9776	729.804	755.9103	788.7338	838.5345	864.1225	896.7214	907.9421	933.1769	943.5602	990.4339	996.1282	1011.5023	1038.9284	1074.7317	1093.5681	1128.2194	1141.139	1165.509	1208.0052	1229.4345	1273.6504	1281.6281	1292.2466	1370.1843	1406.3619	1410.6992	1423.2547	1485.9296	1488.4811	1491.45	1497.5454	1499.3357	1646.2088	3017.7789	3022.5786	3028.2734	3076.1258	3083.3072	3088.2685	3090.0916	3093.4469	3159.4842	3172.8064	3188.7794	3216.0119
CC12CC3(C)C=CC1C23	C[C@@]12C[C@@]3(C)C=C[C@@H]1[C@@H]23	
InChI=1S/C9H12/c1-8-4-3-6-7(8)9(6,2)5-8/h3-4,6-7H,5H2,1-2H3	InChI=1S/C9H12/c1-8-4-3-6-7(8)9(6,2)5-8/h3-4,6-7H,5H2,1-2H3/t6-,7-,8-,9-/m1/s1
