20
gdb 72897	2.81524	1.79859	1.43859	0.8884	76.91	-0.227	0.0813	0.3083	981.8159	0.172597	-403.115857	-403.10837	-403.107426	-403.147274	30.679	
C	-0.1065312835	 1.4985331686	 0.099663478	-0.453251
C	 0.0245965263	-0.0114680527	 0.0198717069	 0.419232
C	-1.2929848923	-0.7682931304	-0.2102581622	-0.296096
C	-1.1612172609	-2.0534179119	 0.597409703	-0.016318
C	-0.0372459113	-2.9569235038	 0.2625106779	-0.254776
N	 0.0820066324	-2.0364298525	 1.4100453235	-0.11461
C	 0.7769291907	-0.7654190226	 1.1547893848	-0.066072
C	 1.9466016475	-0.797845023	 0.1633662632	-0.106601
O	 1.0827292049	-0.3887276005	-0.9219192201	-0.327667
H	 0.8616026354	 1.963623775	 0.3075813347	 0.121014
H	-0.4749165046	 1.8995186346	-0.8502758192	 0.128309
H	-0.8068605453	 1.7883223227	 0.8899758687	 0.117881
H	-2.1384212186	-0.175335249	 0.1532136712	 0.103086
H	-1.4480037974	-0.9486431864	-1.2784850701	 0.121571
H	-2.0485654736	-2.4425299052	 1.0889771164	 0.088247
H	-0.0736531475	-4.0062788685	 0.5419136481	 0.112339
H	 0.5083293191	-2.7435678264	-0.6520523404	 0.134601
H	 0.9349657834	-0.2483346165	 2.103576631	 0.079058
H	 2.7230164562	-0.0487952589	 0.3653299974	 0.100738
H	 2.4197174793	-1.7683695728	-0.016049283	 0.109317
142.8916	217.734	248.9187	285.3184	338.9362	382.4611	386.7817	471.208	609.4329	652.365	706.7442	736.0605	822.1433	838.5304	866.7631	896.9868	917.5915	943.3015	957.5178	998.3667	1029.23	1048.9018	1099.7204	1109.1365	1118.5502	1129.7892	1161.8796	1173.3376	1177.5382	1220.6021	1232.3307	1250.0739	1285.2335	1322.8314	1336.001	1352.1723	1391.9956	1407.3402	1472.3976	1484.1473	1490.1411	1501.7148	1517.0109	3016.8809	3033.7218	3050.8874	3076.2503	3085.1302	3093.976	3105.911	3110.8397	3111.2858	3144.2965	3199.9568
CC12CC3CN3C1CO2	C[C@]12C[C@H]3CN3[C@H]1CO2	
InChI=1S/C7H11NO/c1-7-2-5-3-8(5)6(7)4-9-7/h5-6H,2-4H2,1H3	InChI=1S/C7H11NO/c1-7-2-5-3-8(5)6(7)4-9-7/h5-6H,2-4H2,1H3/t5-,6-,7-,8?/m0/s1
