18
gdb 22688	4.80141	0.61303	0.56993	1.0681	92.95	-0.2157	-0.0204	0.1952	1945.1994	0.145206	-401.873903	-401.863886	-401.862942	-401.910952	35.15	
C	-0.376336176	 1.4386855678	 0.0299773335	-0.474927
C	 0.0174141747	-0.019536979	 0.0460420764	 0.200212
N	 0.2943681315	-0.674664324	 1.1216449231	-0.168515
O	 0.1779315433	 0.1498422844	 2.246274203	-0.396247
C	 0.0930885336	-0.7291188863	-1.182991124	-0.031719
C	 0.1395049184	-1.2768617623	-2.2595849141	 0.185875
C	 0.2009595167	-1.9456272222	-3.522440892	-0.169611
C	 1.2469183109	-3.0268397781	-3.7641310205	-0.250612
C	-0.1935126419	-3.4134140337	-3.6295193111	-0.250612
H	 0.4151883261	 2.0463016055	 0.4795833698	 0.148301
H	-0.5629372099	 1.7806427868	-0.9877630181	 0.128639
H	-1.2743337153	 1.5918222858	 0.6366241128	 0.148295
H	 0.4070932874	-0.4528200586	 2.9616070963	 0.309253
H	-0.0450969248	-1.3277519889	-4.3810104574	 0.112772
H	 1.7049994511	-3.0563654439	-4.7462621446	 0.12089
H	 1.9152340998	-3.2529928572	-2.942242141	 0.13356
H	-0.50749842	-3.9032053416	-2.715839244	 0.133557
H	-0.7383250853	-3.7120840046	-4.5179271482	 0.120891
21.3812	68.8503	70.0026	93.8564	185.6504	213.5472	288.6963	371.923	408.5587	443.2204	507.2098	524.4022	572.1058	575.2336	724.5002	790.7968	819.8504	852.8384	887.1807	947.2081	1020.7986	1041.7001	1044.8551	1062.3111	1081.8143	1115.844	1138.4965	1201.8847	1211.8391	1294.7151	1379.4285	1396.3205	1420.7358	1466.7735	1476.027	1483.6875	1496.4895	1663.8782	2337.3958	3047.9902	3106.1099	3142.275	3144.8393	3149.875	3154.1708	3228.0605	3243.0734	3819.4878
CC(=NO)C#CC1CC1	CC(=NO)C#CC1CC1	
InChI=1S/C7H9NO/c1-6(8-9)2-3-7-4-5-7/h7,9H,4-5H2,1H3	InChI=1S/C7H9NO/c1-6(8-9)2-3-7-4-5-7/h7,9H,4-5H2,1H3
