23
gdb 88993	3.88139	0.77318	0.72716	2.0991	85.66	-0.2402	0.0817	0.3219	1655.8541	0.205607	-388.256375	-388.246685	-388.245741	-388.292227	35.379	
C	 0.1297543488	 1.5566558626	-0.2098457274	-0.403479
C	 0.096990902	 0.0548508268	-0.0234099285	-0.008318
C	 1.3697008609	-0.7578814187	-0.0021627805	-0.291401
C	 0.534172175	-0.6275620859	 1.2539105676	 0.01245
C	 1.0355481174	 0.1236498261	 2.4723570086	-0.243454
C	 1.8255817247	-0.7639545673	 3.4294481884	-0.006932
C	 3.2750931003	-1.1555680617	 3.0576479439	-0.072415
O	 3.7851870023	-0.6236304614	 4.2978019107	-0.273343
C	 2.490704427	-0.0994966631	 4.6559401891	-0.095072
H	 1.0144772026	 2.008220253	 0.2480516168	 0.116195
H	 0.1489858602	 1.8128862108	-1.2748761463	 0.117022
H	-0.7526188904	 2.0354581062	 0.229871539	 0.115778
H	-0.7455611917	-0.4222381354	-0.5183762406	 0.081604
H	 1.3999411308	-1.7103788848	-0.5202008003	 0.108013
H	 2.3052327784	-0.2071655119	-0.0381793777	 0.108416
H	-0.0462904006	-1.5112875184	 1.5126672602	 0.078486
H	 1.6634552213	 0.970754715	 2.1708999344	 0.096076
H	 0.1818042938	 0.5536332905	 3.0156500811	 0.097784
H	 1.2260035347	-1.6352914675	 3.7102615322	 0.077275
H	 3.4898053098	-2.2251104122	 2.9499154646	 0.099864
H	 3.6827346886	-0.623529422	 2.1871691128	 0.094303
H	 2.4749351641	 1.0000746846	 4.6420159749	 0.092255
H	 2.1656980801	-0.4442594952	 5.6449576668	 0.098891
44.9271	63.9395	87.2527	127.7878	187.5054	233.1047	277.5987	356.3489	384.24	436.4642	496.2626	745.1341	761.1236	824.3727	857.5015	868.4572	879.1136	897.6943	926.3209	952.2728	986.2887	1021.4334	1035.9964	1058.0388	1068.486	1096.0616	1113.053	1125.9607	1151.7858	1158.8278	1161.3967	1198.0474	1204.0342	1247.5828	1255.0384	1272.905	1307.7166	1326.5982	1363.6772	1392.4641	1401.045	1420.7371	1431.9433	1480.8988	1494.0127	1496.1486	1507.5833	1510.7334	1536.4646	2990.9664	3003.7474	3007.8909	3029.658	3040.256	3048.9623	3052.3131	3071.5065	3086.4754	3104.4023	3116.9732	3123.2287	3135.548	3206.7153
CC1CC1CC1COC1	C[C@H]1C[C@H]1CC1COC1	
InChI=1S/C8H14O/c1-6-2-8(6)3-7-4-9-5-7/h6-8H,2-5H2,1H3	InChI=1S/C8H14O/c1-6-2-8(6)3-7-4-9-5-7/h6-8H,2-5H2,1H3/t6-,8-/m0/s1
