21
gdb 110998	2.37956	1.53289	1.26323	1.4948	78.26	-0.2346	0.0725	0.3072	1109.6094	0.182928	-424.205558	-424.196878	-424.195933	-424.238597	33.86	
C	-0.4343912437	 1.399526971	 0.077247775	-0.488409
C	-0.1802910444	-0.074796724	-0.050414962	 0.439804
C	 0.3931367527	-0.7912637432	-1.3017547062	-0.275545
C	-0.0857106076	-2.0477629583	-0.5096595153	-0.112015
C	 0.8372880073	-1.9381374931	 0.7097066562	-0.08551
O	 0.7054010728	-0.5313977048	 1.003591381	-0.313114
C	-1.2941210005	-1.1667385222	-0.0517791072	 0.015344
C	-2.0682287153	-1.4458320998	 1.2182482603	-0.132681
O	-3.0692744308	-0.4360965356	 1.3213836468	-0.426281
H	 0.5073888	 1.95680478	 0.0597336177	 0.120348
H	-1.064607748	 1.7491689151	-0.7450763716	 0.117529
H	-0.9516758669	 1.6130526043	 1.0165162406	 0.134975
H	-0.1877838657	-0.6101631883	-2.2075453327	 0.099607
H	 1.4638610946	-0.6803991007	-1.4917899782	 0.094356
H	-0.2099842783	-3.0276404438	-0.9696808101	 0.068363
H	 0.5185971679	-2.538458201	 1.5699212022	 0.095105
H	 1.8815654598	-2.1823723079	 0.4799380313	 0.097698
H	-1.9947100335	-1.0117208949	-0.8766052529	 0.080722
H	-2.5214394746	-2.4501598455	 1.1718660115	 0.080898
H	-1.3946295746	-1.4164701274	 2.0847871424	 0.102371
H	-3.4973652316	-0.5264575797	 2.1776385213	 0.286436
85.1933	154.5904	191.3224	227.1835	269.3529	289.8626	312.3849	361.8208	441.2475	506.4593	591.988	619.3138	705.0245	791.0247	845.8075	862.7421	885.5894	911.1519	960.0885	964.6011	998.258	1021.2294	1033.4173	1066.1076	1083.1546	1111.6641	1131.4893	1158.2713	1186.8582	1191.7505	1205.1465	1234.2216	1263.5675	1270.3021	1299.3221	1328.2598	1360.688	1386.4972	1419.5167	1462.6001	1481.8182	1488.3026	1495.8695	1517.12	1536.6478	2962.1961	3020.0571	3031.3878	3043.4213	3057.4443	3064.8842	3082.0346	3115.6868	3122.6043	3123.1101	3134.3922	3829.9215
CC12CC(CO1)C2CO	C[C@@]12C[C@@H](CO1)[C@H]2CO	
InChI=1S/C7H12O2/c1-7-2-5(4-9-7)6(7)3-8/h5-6,8H,2-4H2,1H3	InChI=1S/C7H12O2/c1-7-2-5(4-9-7)6(7)3-8/h5-6,8H,2-4H2,1H3/t5-,6+,7-/m0/s1
