16
gdb 60687	1.95578	1.61375	1.16276	1.3994	67.12	-0.256	-0.0701	0.1859	1092.7883	0.121595	-475.002244	-474.993295	-474.992351	-475.03635	32.012	
O	 0.0253648479	 1.507923919	 0.0745315634	-0.469179
C	 0.015373572	 0.1123895191	-0.016487761	 0.14651
C	-1.4290923797	-0.4033934919	-0.0604950838	 0.11582
O	-1.7092270306	-1.5719881245	-0.0283348718	-0.247752
C	 0.7208302234	-0.3200359858	-1.3013784631	 0.132354
O	 1.2395192093	 0.4960323405	-2.0222544323	-0.267416
C	 0.7686575542	-0.551923034	 1.1541845594	-0.020724
C	 2.1103721959	-0.043388191	 1.5304394484	-0.247986
N	 0.9406287752	 0.2030274416	 2.3908005252	-0.313533
H	 0.526720741	 1.8211567239	-0.6983486324	 0.303561
H	-2.1824851965	 0.4072768626	-0.1450826232	 0.114012
H	 0.7391043322	-1.4051094531	-1.5054029878	 0.133171
H	 0.5193414981	-1.60214895	 1.2742973811	 0.121825
H	 2.8528322766	-0.7223124553	 1.9383733456	 0.127729
H	 2.509714805	 0.7910324773	 0.9597311521	 0.120353
H	 0.6184481558	 1.1566929214	 2.2325982501	 0.251255
71.8339	98.4177	124.9367	193.5342	224.1295	271.3522	318.3098	340.8266	414.9048	457.6528	554.8326	622.3584	665.4992	801.814	846.7571	874.5633	903.3852	962.2563	982.7075	998.744	1090.1147	1101.7096	1122.0334	1158.0462	1171.2071	1235.4186	1281.1574	1304.4442	1360.7929	1374.578	1381.3745	1405.7255	1503.5877	1793.9711	1831.6026	2925.9005	2990.2901	3113.1922	3158.7109	3202.3414	3488.7192	3650.0934
OC(C=O)(C=O)C1CN1	OC(C=O)(C=O)[C@H]1CN1	
InChI=1S/C5H7NO3/c7-2-5(9,3-8)4-1-6-4/h2-4,6,9H,1H2	InChI=1S/C5H7NO3/c7-2-5(9,3-8)4-1-6-4/h2-4,6,9H,1H2/t4-/m1/s1
