19
gdb 56649	2.97162	1.144	0.96596	2.0471	77.87	-0.2489	0.0229	0.2718	1276.9733	0.155418	-422.970649	-422.960463	-422.959519	-423.005353	38.039	
C	-0.033677678	 1.4563131109	-0.1561172166	-0.406951
C	 0.1583556867	-0.0390868194	-0.041576709	-0.044575
C	 1.5520444597	-0.6508917245	-0.0242276238	-0.358865
C	 0.6906415684	-0.6572132298	 1.2141414029	 0.381898
O	 1.0023149547	 0.2256553249	 2.2530334742	-0.468042
C	 0.083565953	-1.9690735661	 1.7354330043	-0.082818
O	-0.3176699577	-2.851949438	 0.6971604998	-0.415028
C	 1.018792756	-2.6117223708	 2.6681877777	 0.257913
C	 1.8331965305	-3.1215888197	 3.3923137169	-0.446028
H	 0.7090490562	 1.9931279959	 0.4380190877	 0.130042
H	 0.0555661675	 1.7797334869	-1.1987204078	 0.11292
H	-1.02440399	 1.7549710812	 0.2030466936	 0.118114
H	-0.5849853677	-0.6453202719	-0.551011232	 0.102646
H	 1.7171878095	-1.5723787811	-0.5726566779	 0.095831
H	 2.3960194916	 0.0308108495	-0.0122689693	 0.112185
H	 1.7034034869	-0.1816123978	 2.7768018048	 0.285547
H	-0.8348605699	-1.7100196952	 2.2761916594	 0.12811
H	 0.4634334742	-3.3324244265	 0.4025106412	 0.291597
H	 2.5276113785	-3.5888196986	 4.046875154	 0.205502
61.9145	113.6705	173.3152	186.4543	210.8484	234.9546	267.7504	285.0997	362.303	389.6688	401.995	448.7917	473.6798	577.8605	619.8874	633.3258	680.0962	717.2124	832.4955	883.6855	904.186	944.777	955.9216	1021.5748	1043.1916	1079.544	1110.2086	1142.9626	1190.5676	1241.7447	1256.9329	1269.5364	1322.8334	1345.7022	1405.7138	1410.8736	1422.3024	1488.1721	1494.4751	1508.5423	2224.3846	3035.3531	3041.2407	3092.609	3124.155	3126.5645	3158.0448	3215.141	3499.4612	3774.5764	3814.3257
CC1CC1(O)C(O)C#C	C[C@H]1C[C@]1(O)[C@@H](O)C#C	
InChI=1S/C7H10O2/c1-3-6(8)7(9)4-5(7)2/h1,5-6,8-9H,4H2,2H3	InChI=1S/C7H10O2/c1-3-6(8)7(9)4-5(7)2/h1,5-6,8-9H,4H2,2H3/t5-,6-,7+/m0/s1
