18
gdb 102040	2.09843	1.12499	0.87554	2.5706	70.67	-0.2436	-0.0563	0.1873	1370.6738	0.144177	-476.226875	-476.216729	-476.215785	-476.262845	35.191	
C	-0.1235449516	 1.4037422752	-1.2867900074	-0.324418
N	 0.0772008257	 0.1740080123	-0.5308206812	-0.2949
C	 1.2060030963	-0.6207394086	-0.9354411531	-0.159986
C	 1.9489420893	-1.1943343116	 0.2767480328	 0.150968
O	 1.6951782239	-0.8711592435	 1.4065836009	-0.240371
C	 0.8633509624	-1.7968738399	-1.8585855131	 0.333476
O	 1.7407595115	-2.4403585561	-2.3949123233	-0.330201
C	-0.5914875718	-2.1803142549	-2.0442596776	-0.121828
O	-0.7146998568	-3.2982996626	-2.8718314545	-0.422194
H	 0.7583715076	 2.0669168852	-1.3026617168	 0.106719
H	-0.3827726851	 1.1717355801	-2.3257455782	 0.126352
H	-0.9612910402	 1.9576993372	-0.8555544564	 0.132758
H	 0.1565144884	 0.3576407705	 0.4647058263	 0.243255
H	 1.9871851541	-0.0508336127	-1.475798398	 0.120887
H	 2.7404025965	-1.9245175687	 0.0226588976	 0.127695
H	-1.0246460079	-2.353005711	-1.045617198	 0.130032
H	-1.1356523493	-1.3139047713	-2.4501266832	 0.127715
H	 0.1917896171	-3.5500572898	-3.107675337	 0.294041
50.373	80.8707	113.338	140.8113	171.9122	198.3941	250.0439	281.4945	339.7142	356.5601	394.6476	499.4517	516.9223	652.5218	718.1496	760.9319	818.21	871.5793	931.2983	1041.2016	1072.2186	1110.454	1142.7006	1159.5323	1172.867	1206.4546	1233.591	1255.712	1306.8882	1324.4244	1394.8371	1446.1217	1464.3472	1466.9608	1486.6018	1498.9405	1519.7927	1778.1604	1828.8094	2919.7891	2959.2788	2965.5746	2989.0802	3007.4678	3060.0132	3113.9217	3517.1916	3696.0801
CNC(C=O)C(=O)CO	CN[C@@H](C=O)C(=O)CO	
InChI=1S/C5H9NO3/c1-6-4(2-7)5(9)3-8/h2,4,6,8H,3H2,1H3	InChI=1S/C5H9NO3/c1-6-4(2-7)5(9)3-8/h2,4,6,8H,3H2,1H3/t4-/m0/s1
