17
gdb 34472	1.90768	1.7225	0.92448	0.7526	95.35	-0.2161	-0.0423	0.1738	1238.1621	0.134753	-347.517798	-347.509044	-347.5081	-347.551157	33.147	
C	 0.1507134275	-1.2028582936	 0.0046663039	-0.363146
C	 0.0400014788	-0.0023327333	 0.0260515251	 0.120527
C	-0.0252211847	 1.406311788	 0.0551285426	 0.133849
C	-1.1489275036	 2.1644503726	 0.0754016897	 0.133848
C	-0.813655863	 3.6458749908	 0.0484805422	-0.312608
C	 0.6947049982	 3.676707269	 0.3837381899	-0.221495
C	 1.222065493	 2.2724212079	 0.0117534501	-0.312608
C	-2.4799490906	 1.6978193944	 0.0715120605	 0.120524
C	-3.6348578534	 1.3511789796	 0.0729574307	-0.363143
H	 0.2272979895	-2.2615357756	-0.0159311866	 0.187376
H	-1.02434228	 4.0547360243	-0.9491813916	 0.119065
H	-1.4221651145	 4.2197789246	 0.7538964044	 0.117614
H	 1.2262687772	 4.4784393735	-0.1342302681	 0.103513
H	 0.8241144827	 3.8397856968	 1.4581357257	 0.112629
H	 1.9992319121	 1.9114409863	 0.6921697736	 0.117614
H	 1.6551879464	 2.2469195502	-0.9975235445	 0.119065
H	-4.6454786556	 1.0260137045	 0.0719719025	 0.187375
105.2158	126.2176	128.1276	189.4905	200.0131	343.2876	467.6295	468.2387	490.5361	572.2253	581.3878	596.3863	605.7228	639.2164	641.2828	658.7254	686.27	852.7038	896.8664	926.3019	1002.9147	1021.4221	1053.3873	1150.0812	1159.9178	1195.0242	1230.2288	1265.358	1320.3976	1330.1826	1348.7169	1483.4339	1484.8458	1504.8022	1638.0041	2207.4825	2223.1184	3016.248	3017.315	3053.2544	3075.6669	3078.341	3106.8689	3503.3843	3503.6988
C#CC1=C(CCC1)C#C	C#CC1=C(CCC1)C#C	
InChI=1S/C9H8/c1-3-8-6-5-7-9(8)4-2/h1-2H,5-7H2	InChI=1S/C9H8/c1-3-8-6-5-7-9(8)4-2/h1-2H,5-7H2
