18
gdb 10279	2.5237	1.66602	1.08407	2.1028	73.98	-0.2432	-0.0176	0.2255	1120.1355	0.149719	-347.797945	-347.78818	-347.787236	-347.833171	34.326	
C	 0.1481578871	 1.6133057873	-0.3663404287	-0.397235
C	 0.1523603287	 0.0846761632	-0.3914617577	-0.164794
C	-1.1675629843	-0.5361557624	 0.1106948176	-0.258994
C	-2.3083709726	-0.1943202807	-0.7342719169	 0.333464
C	-3.2286738624	 0.084026021	-1.456788184	-0.481983
C	-1.0443190602	-2.0715947953	 0.3095454185	 0.380539
C	-2.3185744583	-2.8243045403	 0.6299793091	-0.477691
O	 0.0292213771	-2.6172253545	 0.2405695154	-0.287506
H	 1.1015959624	 2.0072740979	-0.7305167093	 0.116923
H	-0.6484379175	 2.0207640334	-0.9961136189	 0.129201
H	-0.0017526064	 1.9946995867	 0.6503090786	 0.111489
H	 0.3424581961	-0.2792567954	-1.406464829	 0.113159
H	 0.9586363233	-0.3111626947	 0.2315451567	 0.119
H	-1.3722345171	-0.1439352976	 1.1216575185	 0.123903
H	-4.0461788468	 0.3345056314	-2.0867598952	 0.201035
H	-2.8879504348	-2.3161302063	 1.4151844625	 0.137383
H	-2.9612270549	-2.8501785143	-0.2555608865	 0.160837
H	-2.0737575593	-3.8415556693	 0.9370346094	 0.14127
31.7801	91.2162	121.4472	151.1175	187.8557	192.3933	261.1973	345.5953	369.8896	430.7547	529.5837	543.5881	611.3338	620.6531	644.5869	749.5515	799.5122	895.2526	948.5023	979.8962	1020.7759	1070.0133	1119.8318	1133.0457	1191.5013	1260.5851	1265.7412	1330.823	1363.4912	1383.0527	1413.804	1460.6804	1472.4671	1483.9084	1497.6691	1508.3213	1819.5681	2228.7004	2968.0309	3032.8131	3046.7239	3057.6122	3090.9274	3106.2142	3110.7785	3117.5192	3156.0426	3502.6919
CCC(C#C)C(C)=O	CC[C@@H](C#C)C(=O)C	
InChI=1S/C7H10O/c1-4-7(5-2)6(3)8/h1,7H,5H2,2-3H3	InChI=1S/C7H10O/c1-4-7(5-2)6(3)8/h1,7H,5H2,2-3H3/t7-/m1/s1
