18
gdb 111668	2.49843	1.65517	1.26027	4.3914	70.89	-0.2547	-0.0192	0.2356	1036.5361	0.149153	-439.088492	-439.080606	-439.079662	-439.121018	30.268	
O	-0.0616112162	 1.3191592674	 0.5004871501	-0.424643
C	-0.0153701707	 0.1232895855	-0.2482794406	-0.079198
C	-1.3477853147	-0.5982409761	-0.2205205427	-0.036014
C	-1.5270085216	-2.0799926552	-0.1049639403	-0.053111
C	-0.3713551298	-3.0305321678	 0.2530697507	-0.26613
C	-0.2091321046	-2.833269796	 1.7792527549	-0.294349
C	-0.7903588988	-1.4375028545	 2.0090364768	 0.36336
O	-0.4347396485	-0.6163458981	 2.8189583727	-0.340671
N	-1.8112568203	-1.2141179343	 1.048483562	-0.119216
H	-0.2255542426	 1.0717561726	 1.4219972835	 0.304685
H	 0.2131786323	 0.4076761732	-1.2812014853	 0.113083
H	 0.7977345923	-0.5364385591	 0.090377176	 0.091469
H	-2.1434654117	-0.0448452357	-0.7157565135	 0.114251
H	-2.3996747379	-2.5167918303	-0.5831509668	 0.104477
H	-0.6321675646	-4.058179019	-0.0053766831	 0.120242
H	 0.5498834947	-2.7882092568	-0.2838338069	 0.125004
H	-0.8120212437	-3.5626957563	 2.3320428523	 0.140644
H	 0.8135677766	-2.8895313894	 2.1541714403	 0.136117
99.4598	132.2642	161.1673	216.8045	282.7428	460.3248	467.1194	513.4483	527.5639	565.9358	690.0636	703.3261	740.681	787.0535	831.0036	877.5927	955.759	963.9379	998.7666	1025.2086	1078.6981	1091.9553	1115.8013	1141.7088	1146.661	1182.7611	1223.0926	1241.5552	1282.5338	1305.6369	1321.9059	1354.5541	1380.0084	1434.3069	1453.9896	1460.9332	1498.5737	1505.8338	1819.5401	2986.2792	3052.953	3067.8659	3069.5732	3113.4282	3128.9755	3132.9017	3145.3562	3733.175
OCC1C2CCC(=O)N12	OC[C@H]1[C@H]2CCC(=O)N12	
InChI=1S/C6H9NO2/c8-3-5-4-1-2-6(9)7(4)5/h4-5,8H,1-3H2	InChI=1S/C6H9NO2/c8-3-5-4-1-2-6(9)7(4)5/h4-5,8H,1-3H2/t4-,5+,7?/m1/s1
