18
gdb 52528	3.92949	0.76667	0.73953	2.6901	87.73	-0.2291	-0.0568	0.1724	1630.5283	0.144828	-401.906773	-401.896657	-401.895712	-401.944769	34.62	
C	-2.3167047992	-0.2707290649	-0.5530343673	-0.504208
C	-1.3598170975	-1.0868908949	 0.1732327676	 0.144801
C	-0.5714205732	-1.758632701	 0.7937646677	-0.020493
C	 0.3869065941	-2.5560043128	 1.5294916975	 0.22253
O	 0.4506915257	-2.5225985394	 2.7466163075	-0.32521
C	 1.2696194365	-3.4192105488	 0.6796309392	-0.106963
C	 2.600877025	-3.8338009396	 1.2411766159	-0.23603
N	 1.5701566527	-4.8202823167	 1.0409249643	-0.08036
C	 0.9484180751	-5.4312898297	 2.2135154106	-0.326627
H	-2.3598786779	-0.546588155	-1.6115945034	 0.158617
H	-3.3211122423	-0.379524886	-0.1299148734	 0.164638
H	-2.0450746271	 0.7887932867	-0.4899487845	 0.164657
H	 1.1643800357	-3.2609503168	-0.3898922438	 0.099205
H	 3.4568537127	-3.8849833918	 0.5728416767	 0.117984
H	 2.8055122955	-3.4992811452	 2.2567736535	 0.134244
H	 0.8415031418	-4.7567830276	 3.0702272879	 0.147199
H	-0.0406327333	-5.8062362988	 1.9328268575	 0.122918
H	 1.5659344157	-6.2871363478	 2.5031469365	 0.123097
7.6087	42.0837	83.4332	152.7797	186.0042	232.7037	251.0811	298.6605	361.0786	381.9823	413.5391	456.0468	573.8311	715.1246	741.2833	813.2409	866.7043	949.9371	1026.3694	1028.182	1043.5449	1054.5494	1093.6374	1121.9888	1134.6112	1168.4162	1201.1193	1215.3482	1326.8393	1393.6436	1409.4605	1443.4944	1469.4415	1473.2118	1485.4694	1493.18	1510.8537	1729.4247	2336.9169	3025.761	3031.783	3093.3891	3095.0736	3098.4939	3099.8217	3106.0551	3148.2832	3186.4655
CC#CC(=O)C1CN1C	CC#CC(=O)[C@H]1CN1C	
InChI=1S/C7H9NO/c1-3-4-7(9)6-5-8(6)2/h6H,5H2,1-2H3	InChI=1S/C7H9NO/c1-3-4-7(9)6-5-8(6)2/h6H,5H2,1-2H3/t6-,8?/m1/s1
