16
gdb 22213	1.93244	1.5641	0.91935	5.0358	77.42	-0.183	-0.0452	0.1378	1213.3465	0.122513	-471.177183	-471.167878	-471.166934	-471.211229	33.927	
N	-0.0581425808	 1.2891162723	 0.4327409205	-0.553667
C	-0.0723890051	-0.0211178769	 0.1235935554	 0.380483
N	 1.1166092602	-0.6366904244	-0.1188939614	-0.537654
H	 1.0105468722	-1.6364644212	-0.2526915294	 0.275136
H	 1.9213124249	-0.3379638813	 0.4104409392	 0.255439
C	-1.2792852688	-0.7281692153	-0.0169769797	 0.223348
C	-2.6339277349	-0.0534572746	-0.0262812076	-0.403859
C	-2.9651201212	 0.434672474	 1.3616890263	 0.144436
O	-2.5804242238	 1.4977827517	 1.8082193889	-0.271018
N	-1.1362007129	-2.0709183405	-0.1960544155	-0.084793
O	-2.1620408257	-2.7559646331	-0.329774848	-0.362394
H	 0.8145291366	 1.7850237237	 0.4939137227	 0.261552
H	-0.8904246516	 1.7152063308	 0.8312805159	 0.293499
H	-2.6475598137	 0.8010358188	-0.7125026397	 0.122854
H	-3.3427121107	-0.8219948227	-0.3509614391	 0.146315
H	-3.5458491047	-0.2589345115	 2.0028825416	 0.110321
90.4845	117.0984	147.3601	186.7323	242.3781	271.5447	288.9224	328.37	431.0946	449.0029	467.0199	524.9278	555.1515	634.3025	642.001	705.4349	742.2383	779.1888	940.2223	978.6309	1048.9361	1076.6032	1111.3159	1190.1971	1264.7534	1277.5183	1318.8266	1414.1044	1457.1058	1483.1444	1518.3964	1589.7382	1641.5078	1695.1239	1776.3569	2933.1999	3030.8972	3100.8036	3457.901	3518.8627	3659.7491	3689.63
NC(=[NH2+])C(CC=O)=N[O-]	NC(=[NH2])C(=N[O])CC=O	
InChI=1S/C4H7N3O2/c5-4(6)3(7-9)1-2-8/h2,9H,1H2,(H3,5,6)	InChI=1S/C4H7N3O2/c5-4(6)3(7-9)1-2-8/h2H,1,5-6H2
