13
gdb 9443	2.94213	1.78037	1.68644	4.482	58.37	-0.2968	-0.024	0.2728	835.4787	0.095054	-398.634375	-398.626907	-398.625962	-398.666268	26.247	
C	-0.1179700758	 1.559556358	 0.0859430917	-0.446108
C	-0.0369263029	 0.0303968201	-0.015027209	-0.069294
C	 0.8347802622	-0.5519402824	-1.1604984992	-0.102446
O	 1.8124380492	-1.0364945761	-0.1884091239	-0.231551
C	 1.0836212882	-0.5883680496	 0.874792824	 0.46233
O	 1.3274151354	-0.6596119622	 2.0304589947	-0.304216
C	-1.3406980295	-0.5979217699	 0.1423718574	 0.258294
N	-2.3790931959	-1.0923867522	 0.2554734039	-0.320369
H	 0.8748136534	 1.9980380432	-0.0459027848	 0.142569
H	-0.7874502997	 1.9599617575	-0.6793527204	 0.149984
H	-0.4975809038	 1.8489711429	 1.0683080885	 0.166369
H	 0.3987991684	-1.3791671689	-1.7208134753	 0.153994
H	 1.2809162007	 0.1886258896	-1.8262014777	 0.140444
118.4666	134.1693	197.0012	213.2908	231.054	342.5879	423.228	547.1637	585.0886	652.7284	734.5978	784.0304	878.2743	935.3108	975.9354	986.621	1106.4029	1142.7478	1156.1243	1190.3498	1256.0584	1345.8075	1414.5655	1486.8744	1493.5224	1514.5494	1955.2524	2359.1541	3051.8963	3085.2101	3130.6419	3139.8815	3155.4023
CC1(COC1=O)C#N	C[C@]1(COC1=O)C#N	
InChI=1S/C5H5NO2/c1-5(2-6)3-8-4(5)7/h3H2,1H3	InChI=1S/C5H5NO2/c1-5(2-6)3-8-4(5)7/h3H2,1H3/t5-/m1/s1
