18
gdb 62400	2.50332	1.79908	1.35757	3.3988	75.	-0.2852	0.0164	0.3017	986.1189	0.149451	-401.949561	-401.941931	-401.940987	-401.981254	30.591	
O	-0.0300755175	 1.3801301954	-0.0867387234	-0.480722
C	 0.0315798276	-0.0284748185	-0.0289280482	 0.323049
C	 0.9758863219	-0.5253686355	-1.0396041008	 0.222104
N	 1.7435006396	-0.9002763622	-1.8190021141	-0.351346
C	 0.1130228538	-0.6402190038	 1.417453908	-0.082471
C	-1.3899694708	-0.2484809744	 1.5361519346	-0.246197
C	-1.4072815933	-0.6347827426	 0.0260686528	-0.048894
C	-1.1278950047	-2.1470774795	 0.0794805118	-0.232525
C	 0.0320162199	-2.1515152813	 1.1376434761	-0.232031
H	 0.8454796099	 1.7317251679	 0.1103112003	 0.292614
H	 0.8698100986	-0.2847863412	 2.1177947031	 0.071032
H	-2.0062977479	-0.8494379915	 2.2087024884	 0.096645
H	-1.5463229033	 0.8139225604	 1.7067105265	 0.124378
H	-2.1657191945	-0.2680651348	-0.6641558621	 0.084432
H	-2.0077615155	-2.7021791761	 0.4131419228	 0.105924
H	-0.8153763893	-2.5540273244	-0.8850161862	 0.124411
H	 0.9629927714	-2.5573604642	 0.7348088751	 0.124103
H	-0.219515666	-2.712710574	 2.0408770053	 0.105495
141.9197	149.4661	286.0243	303.0153	324.8442	332.5192	440.7452	482.509	533.138	557.3281	652.0994	696.4889	823.5632	831.2781	844.1737	900.7757	902.0334	964.3612	973.4587	980.9961	1023.452	1027.0677	1085.1704	1105.4118	1125.4666	1164.1019	1181.5055	1223.6672	1238.6754	1256.8912	1263.4795	1277.8856	1311.8737	1331.6072	1362.8401	1491.2682	1492.9993	1515.9282	2343.9363	3064.4267	3071.7886	3079.2308	3104.5718	3112.144	3121.326	3132.663	3169.3358	3801.7909
OC1(C#N)C2CC1CC2	O[C@@]1(C#N)[C@H]2C[C@@H]1CC2	
InChI=1S/C7H9NO/c8-4-7(9)5-1-2-6(7)3-5/h5-6,9H,1-3H2	InChI=1S/C7H9NO/c8-4-7(9)5-1-2-6(7)3-5/h5-6,9H,1-3H2/t5-,6+,7+
