20
gdb 97149	2.59444	1.51691	1.09959	2.5202	82.6	-0.2385	0.0326	0.2711	1172.2376	0.171052	-403.161996	-403.153043	-403.152099	-403.195593	33.379	
C	-0.0251876174	 1.398196689	-0.1200996819	-0.32841
N	-0.0419395779	-0.0536670196	-0.1896453185	-0.340854
C	-1.1107589524	-0.6740978081	 0.0545789757	 0.406032
O	-2.3175304046	-0.0804737834	 0.3529717462	-0.263695
C	-3.2202996008	-1.0359768871	 0.934842354	-0.107023
C	-2.6537975967	-2.4029353608	 0.6081158007	-0.107991
C	-2.3678415252	-2.655954844	-0.8434034045	-0.321651
C	-1.2578180772	-2.1593287916	 0.069215825	 0.234341
C	-0.0401647691	-2.9982173767	 0.357549914	-0.47571
H	 0.9349863958	 1.7233004449	 0.2931644644	 0.117647
H	-0.0970376889	 1.8194802783	-1.1309088971	 0.122714
H	-0.8382822122	 1.8224296501	 0.4809827747	 0.118713
H	-3.2682093851	-0.8706731898	 2.018615531	 0.112434
H	-4.2123696591	-0.8531690114	 0.509040589	 0.117007
H	-2.8680770429	-3.2293773671	 1.2748702486	 0.098505
H	-2.2928362119	-3.6893091659	-1.164001613	 0.117898
H	-2.7818510225	-1.9796169232	-1.5850924606	 0.123808
H	 0.7331094888	-2.8067565715	-0.3915122276	 0.143791
H	 0.3845648192	-2.7563650736	 1.3368176684	 0.124097
H	-0.2856564296	-4.0642153085	 0.3413819914	 0.108349
91.3401	114.4644	177.8959	179.8751	213.1021	236.6288	298.5956	360.5197	408.3152	494.2573	566.3332	704.1281	722.102	741.5939	828.8643	835.6105	893.8735	952.7722	976.5612	1011.6514	1045.4621	1058.573	1063.9452	1094.0134	1108.0762	1120.9748	1130.1646	1141.4366	1175.1482	1232.5382	1279.0067	1338.6554	1379.0534	1406.6219	1422.9796	1439.9284	1481.6353	1488.7414	1492.8701	1497.9431	1499.5909	1520.9417	1797.0106	3011.5799	3023.5023	3040.2403	3068.0124	3073.4293	3089.1773	3107.4269	3117.9771	3125.6446	3186.6853	3215.8093
CN=C1OCC2CC12C	CN=C1OC[C@H]2C[C@@]12C	
InChI=1S/C7H11NO/c1-7-3-5(7)4-9-6(7)8-2/h5H,3-4H2,1-2H3	InChI=1S/C7H11NO/c1-7-3-5(7)4-9-6(7)8-2/h5H,3-4H2,1-2H3/t5-,7-/m1/s1
