14
gdb 48453	1.86608	1.69658	1.28346	3.0219	70.37	-0.2527	-0.0451	0.2076	1040.3741	0.09847	-436.673411	-436.664641	-436.663697	-436.707277	31.047	
O	-0.5670005798	 0.6538411933	 0.7056933284	-0.243775
C	 0.1625424584	 0.9412319959	-0.2049968494	 0.125051
C	 1.3196638054	 1.9314874656	-0.0872155487	-0.12776
C	 1.425689257	 2.6299715453	 1.3022384938	-0.202002
N	 2.6089824064	 1.8063156725	 1.5708164334	-0.319741
C	 2.6459401272	 1.1515238284	 0.3803677374	 0.400465
O	 3.3581485676	 0.3295605312	-0.113598912	-0.333951
C	 1.4644556093	 2.7360555579	-1.2758436835	 0.258768
C	 1.563921479	 3.382679194	-2.2844347521	-0.422609
H	 0.0676212891	 0.4847974713	-1.2100697286	 0.113288
H	 1.630944316	 3.7008837927	 1.2454195642	 0.131357
H	 0.5759734633	 2.4196069475	 1.9541436492	 0.149003
H	 3.2038427034	 1.7210060446	 2.3814602509	 0.265084
H	 1.6639868577	 3.9578714198	-3.171849063	 0.206821
80.8267	101.8344	119.423	160.7855	212.9382	267.4034	368.633	419.3964	501.8724	515.4958	600.5706	618.7581	659.4963	669.554	700.0603	793.2443	865.3307	937.7752	1000.1126	1046.9106	1127.5179	1158.4301	1201.319	1235.5021	1294.0183	1389.0369	1416.4427	1514.8767	1821.7513	1919.1867	2235.7089	2943.2452	3072.0603	3136.0329	3499.5445	3618.0288
O=CC1(CNC1=O)C#C	O=C[C@]1(CNC1=O)C#C	
InChI=1S/C6H5NO2/c1-2-6(4-8)3-7-5(6)9/h1,4H,3H2,(H,7,9)	InChI=1S/C6H5NO2/c1-2-6(4-8)3-7-5(6)9/h1,4H,3H2,(H,7,9)/t6-/m1/s1
