21
gdb 37937	2.64339	1.85822	1.34976	0.3683	86.58	-0.2316	0.0238	0.2554	1019.5196	0.186656	-349.934832	-349.927785	-349.926841	-349.965843	29.936	
C	-0.006135572	 1.4502315606	-0.2317239031	-0.257949
C	 1.5104126171	 1.5537758283	-0.0459948226	-0.078195
C	 1.9311857876	 1.0452419363	 1.3107665495	-0.003814
C	 1.1380524386	 1.2089085408	 2.6016438708	-0.236567
C	 0.6336400475	-0.1188402476	 3.1953851753	-0.241237
C	-0.5062019991	-0.7602595009	 2.4387099721	-0.057344
C	-0.7443930901	-0.7382740004	 1.1244765919	-0.066263
C	 0.0845801453	-0.1061360322	 0.0434831782	-0.030842
C	 1.6027949858	 0.0508305716	 0.2326972493	-0.09289
H	-0.6278150043	 2.0302428958	 0.4570473031	 0.097875
H	-0.3278147134	 1.6647905444	-1.2530108655	 0.10059
H	 2.1650275635	 2.1739706335	-0.6469290321	 0.080195
H	 3.0075152828	 1.1257713398	 1.4502551015	 0.08184
H	 1.7739110312	 1.7095662278	 3.3408771179	 0.090704
H	 0.2781407657	 1.8704389178	 2.449476054	 0.102853
H	 1.4746719535	-0.8234468754	 3.2760414582	 0.108388
H	 0.3014881046	 0.0565166771	 4.2260755853	 0.093942
H	-1.2207187189	-1.2969064752	 3.061019792	 0.079864
H	-1.6476085547	-1.2385464709	 0.7773195121	 0.077619
H	-0.117804482	-0.6258457285	-0.897461107	 0.073958
H	 2.3351864114	-0.6668540525	-0.1195207012	 0.077275
159.6465	198.5458	289.8846	337.801	380.5575	465.934	487.6453	613.095	669.6284	712.798	738.4401	770.2862	801.6788	821.2409	835.8995	908.0171	941.2645	961.0608	970.0738	1004.8199	1008.3544	1018.7928	1028.0759	1061.5815	1069.8551	1095.4376	1097.2919	1149.3662	1174.7673	1224.4041	1230.1054	1251.3636	1261.7459	1281.3082	1301.8167	1338.1205	1361.9321	1369.7758	1384.8284	1428.566	1442.9836	1478.5804	1484.7494	1506.6077	1721.5181	2999.8055	3029.516	3045.391	3051.5864	3054.1603	3069.1189	3108.2072	3118.8405	3125.3431	3144.6892	3165.3131	3180.1008
C1C2C3CCC=CC1C23	C1[C@H]2[C@H]3CCC=C[C@@H]1[C@@H]23	
InChI=1S/C9H12/c1-2-4-7-8-5-6(3-1)9(7)8/h1,3,6-9H,2,4-5H2	InChI=1S/C9H12/c1-2-4-7-8-5-6(3-1)9(7)8/h1,3,6-9H,2,4-5H2/t6-,7+,8-,9+/m0/s1
