18
gdb 93289	2.09426	1.87866	1.28663	3.2905	72.76	-0.2587	0.0042	0.2629	1043.2366	0.147893	-439.083752	-439.075492	-439.074547	-439.116677	31.162	
C	 0.086603402	 1.6230710557	-0.0357331641	-0.40069
C	 0.0144339135	 0.0920236832	 0.0354019151	-0.108802
C	 0.8181896835	-0.5795270388	-1.0945993883	-0.104669
O	 2.1565048408	-0.7512148491	-0.5788480264	-0.249715
C	 2.1392297882	-0.7687848603	 0.7845849453	 0.373512
N	 3.1290679275	-0.9878605072	 1.5343884217	-0.546446
C	 0.7397768142	-0.4704529309	 1.2486856545	 0.346747
C	 0.4119805826	-0.2522976943	 2.656263463	-0.245863
O	 0.1035283997	-1.4965112421	 2.0211180579	-0.274726
H	 1.1256677259	 1.9688586641	-0.0433933828	 0.135166
H	-0.3964325243	 1.9909356057	-0.9462922791	 0.121317
H	-0.4136402449	 2.0820171132	 0.8216204677	 0.124508
H	-1.0254221748	-0.243128909	 0.0342608627	 0.10069
H	 0.4136363538	-1.5639336358	-1.3556907586	 0.123084
H	 0.8930428861	 0.0273485336	-1.9997598254	 0.119922
H	 3.9646584722	-1.1991899531	 0.9869954822	 0.226412
H	 1.2170522419	-0.2915420544	 3.3865029365	 0.145705
H	-0.4477951279	 0.3647683797	 2.9146970478	 0.11385
70.7683	156.9641	193.2759	226.2578	264.2956	275.1776	327.7202	471.5579	483.0224	560.48	692.6399	699.5721	730.4491	842.4292	866.3161	893.8548	900.9612	960.3974	974.6231	983.2945	1032.6951	1058.5198	1110.0537	1131.214	1156.9652	1168.3738	1205.439	1241.2765	1270.601	1304.3886	1349.2987	1388.9375	1411.4863	1446.6599	1496.2222	1497.4991	1518.8026	1522.1781	1782.7987	3036.9786	3041.4261	3084.8889	3087.2601	3108.0021	3109.2289	3115.3489	3187.0208	3479.9042
CC1COC(=N)C11CO1	C[C@H]1CO[C]([NH])[C@]21CO2	
InChI=1S/C6H9NO2/c1-4-2-8-5(7)6(4)3-9-6/h4,7H,2-3H2,1H3	InChI=1S/C6H9NO2/c1-4-2-8-5(7)6(4)3-9-6/h4,7H,2-3H2,1H3/t4-,6+/m0/s1
