19
gdb 79747	2.37376	1.76537	1.36323	1.1772	74.08	-0.2504	0.0695	0.3199	1014.7935	0.159116	-422.995552	-422.987432	-422.986488	-423.027689	32.235	
C	-0.2503260973	 1.5245691074	 0.2267568818	-0.421572
C	 0.0296884346	 0.0562677579	-0.0219604124	-0.071653
C	 0.594316489	-0.5974992949	-1.2880961443	-0.13699
C	 1.434206835	 0.1669398931	-2.2793730737	 0.02934
O	 1.6879500219	 1.5491130989	-1.9771556328	-0.253999
C	 2.6929408087	 0.5868965791	-1.636497395	 0.044279
C	 2.6840612745	 0.1250762122	-0.1853892421	-0.335322
C	 1.3620970001	-0.6422073649	 0.0205666648	 0.355871
O	 1.4597838623	-1.8545195103	 0.7152601497	-0.46194
H	-1.1303267853	 1.8491808822	-0.339012126	 0.118964
H	-0.4670036494	 1.683562732	 1.2897470866	 0.102379
H	 0.5779732968	 2.1650102672	-0.0664053749	 0.145786
H	-0.737674023	-0.5908728403	 0.4021352111	 0.088457
H	 0.0867721658	-1.4837092803	-1.6514756964	 0.092228
H	 1.3534918267	-0.0604491764	-3.3386150513	 0.096422
H	 3.6350454229	 0.7031801809	-2.1668998251	 0.096541
H	 3.5001843496	-0.5859010284	-0.0225090841	 0.118018
H	 2.8239484942	 0.9597442134	 0.5101881338	 0.111475
H	 1.323797303	-1.6743426288	 1.6516414002	 0.281716
142.2646	167.9702	212.3232	251.4983	282.8352	328.144	374.4127	396.9644	473.3191	570.6082	660.1621	691.5019	711.434	768.8624	826.3146	857.6159	899.6902	915.2917	934.6394	987.8146	1004.3038	1028.9678	1045.8986	1086.5772	1106.9682	1129.0439	1141.061	1184.6658	1226.3387	1261.901	1272.0722	1285.4563	1336.5086	1341.3275	1356.4802	1405.7522	1422.8335	1456.1492	1473.8699	1493.4187	1509.567	3032.4294	3047.3939	3084.78	3094.1897	3109.4187	3139.6183	3154.6164	3179.06	3182.1728	3797.5384
CC1C2C3OC3CC12O	C[C@H]1[C@H]2[C@H]3O[C@H]3C[C@@]12O	
InChI=1S/C7H10O2/c1-3-5-6-4(9-6)2-7(3,5)8/h3-6,8H,2H2,1H3	InChI=1S/C7H10O2/c1-3-5-6-4(9-6)2-7(3,5)8/h3-6,8H,2H2,1H3/t3-,4-,5-,6-,7+/m0/s1
