15
gdb 34078	3.70211	1.57935	1.38704	1.9664	74.63	-0.2473	-0.0151	0.2322	929.5847	0.11325	-379.5875	-379.580797	-379.579852	-379.618315	27.346	
C	 0.0256532116	-1.1932728188	-0.0354716639	-0.304956
C	 0.0055274365	 0.0068763365	 0.0209858473	 0.081699
C	 0.0262529132	 1.4461700341	 0.0598992379	 0.176043
C	-0.4005911762	 2.2622119113	-1.2268327394	-0.265309
C	 0.7768890349	 3.1940242332	-0.9534030162	-0.048011
C	 1.3886768957	 2.2366499396	-0.0039464951	-0.092527
N	 0.9442955289	 3.5309367563	 0.5181659162	-0.154689
C	-0.2156505948	 3.2222374552	 1.3020284522	 0.031243
N	-0.7348678703	 2.0695315823	 1.1699761319	-0.223672
H	 0.0308972664	-2.254549614	-0.0744086914	 0.188247
H	-0.2081180651	 1.6803415269	-2.1299679798	 0.131298
H	-1.4211995032	 2.6521216284	-1.2262046677	 0.11677
H	 1.2307127933	 3.8970424627	-1.6395113294	 0.116436
H	 2.4010249848	 1.8836892975	 0.1526181602	 0.112282
H	-0.6013101155	 3.9843142286	 1.9710459872	 0.135145
150.6158	155.2818	378.3784	393.1379	473.4057	513.569	553.1816	562.9967	630.6152	661.1599	706.1844	718.3065	800.1155	852.7809	861.861	898.4585	941.1534	968.996	984.626	990.5808	1001.6583	1034.787	1072.5853	1141.574	1181.9043	1222.756	1247.5323	1289.2743	1297.8492	1334.4536	1481.0252	1661.3277	2246.3968	3069.6266	3136.6488	3186.1319	3201.072	3207.2856	3501.8559
C#CC12CC3C1N3C=N2	C#C[C@]12C[C@@H]3[C@H]1N3[CH][N]2	
InChI=1S/C7H6N2/c1-2-7-3-5-6(7)9(5)4-8-7/h1,4-6H,3H2	InChI=1S/C7H6N2/c1-2-7-3-5-6(7)9(5)4-8-7/h1,4-6H,3H2/t5-,6-,7+,9?/m1/s1
