18
gdb 30774	2.99638	1.32307	0.95141	4.0347	75.78	-0.1869	0.0406	0.2275	1220.253	0.149169	-435.294569	-435.2854	-435.284456	-435.328516	33.434	
C	 0.0084892631	 1.410129758	 0.0784056662	-0.34771
N	-0.0104675286	-0.034518536	 0.012690178	-0.026826
C	-0.1673206006	-0.8209681019	-1.1038970799	-0.029197
N	-0.152443619	-2.096413654	-0.8138745863	-0.325337
C	 0.0277262233	-2.1669147167	 0.5534321403	 0.173461
C	 0.0634941793	-3.4605575336	 1.3037884945	-0.186135
O	 0.951014458	-3.4108808655	 2.4299062325	-0.417609
C	 0.1236571602	-0.8963615364	 1.0795679351	 0.209581
N	 0.2184990506	-0.4311881412	 2.3971740195	-0.615975
H	 1.0220815102	 1.7992118289	 0.2345622103	 0.132735
H	-0.3736641042	 1.8144514306	-0.8606952641	 0.14654
H	-0.628282227	 1.7549990498	 0.8981131125	 0.155813
H	-0.2721276215	-0.3869508525	-2.0874163576	 0.119054
H	-0.9120446706	-3.7131650749	 1.7372668814	 0.117707
H	 0.3285622954	-4.2709199913	 0.6114096323	 0.113728
H	 1.8282847949	-3.219839713	 2.0799060081	 0.280246
H	 0.382381273	-1.2259590839	 3.0079533133	 0.261341
H	 0.9730182035	 0.2355251135	 2.528888804	 0.238584
80.309	120.8628	131.3824	187.4401	245.045	268.2408	291.6079	325.0985	387.2435	434.5162	495.7232	625.52	648.6403	699.9928	735.4734	760.9944	797.1082	870.9587	968.7185	1018.4077	1035.8416	1072.2049	1152.5465	1174.7427	1223.2641	1235.1271	1287.2843	1303.3663	1367.201	1398.3446	1423.9625	1450.815	1482.5634	1485.7603	1505.1691	1519.5082	1547.0548	1620.4499	1671.3465	3013.7224	3025.3675	3050.0189	3093.1521	3138.1813	3243.8069	3488.2242	3574.6089	3800.7447
CN1C=NC(CO)=C1N	Cn1cnc(CO)c1N	
InChI=1S/C5H9N3O/c1-8-3-7-4(2-9)5(8)6/h3,9H,2,6H2,1H3	InChI=1S/C5H9N3O/c1-8-3-7-4(2-9)5(8)6/h3,9H,2,6H2,1H3
