21
gdb 77002	3.03606	1.02592	0.97132	1.1806	85.05	-0.2492	0.0505	0.2997	1346.2092	0.179354	-387.045542	-387.035188	-387.034244	-387.080411	38.95	
C	 0.1487765695	 1.547390332	-0.1647570648	-0.456828
C	-0.0068199099	 0.0459276545	-0.0177956665	 0.276697
C	-1.1824016003	-0.5351981348	-0.7823598474	-0.451404
C	 1.2385917113	-0.8045782811	 0.0781387934	 0.064057
O	 2.4753388409	-0.1533798283	 0.0668684494	-0.427883
C	 0.3498862334	-0.6470554263	 1.2934162493	-0.098429
C	 0.8810842897	 0.097904165	 2.5146642813	-0.386128
C	 2.0189993453	-0.5932388394	 3.1222768777	 0.297574
C	 2.9653235869	-1.1823117943	 3.5758163095	-0.45673
H	 1.1177910694	 1.8931556381	 0.1972862062	 0.137609
H	 0.0836036019	 1.8256101411	-1.2226388129	 0.115744
H	-0.6448580682	 2.0859851028	 0.3661010737	 0.10882
H	-1.1027024869	-0.3095051519	-1.852164575	 0.117463
H	-1.2374054181	-1.6230984389	-0.6740517409	 0.112131
H	-2.13058421	-0.1178465109	-0.4230369643	 0.114834
H	 1.2316981339	-1.7664355141	-0.4361010411	 0.078257
H	 2.9947470592	-0.503519738	 0.8017092985	 0.29317
H	-0.254823025	-1.5128842341	 1.5497218855	 0.087191
H	 1.1874049555	 1.1137197499	 2.2491486365	 0.141774
H	 0.0811824969	 0.2066652637	 3.2570412296	 0.132862
H	 3.7904281248	-1.695203475	 4.0046391423	 0.199222
60.5329	103.5475	167.1081	201.7255	216.0201	225.959	275.6553	284.2823	337.9994	350.4112	417.6011	440.2313	477.8586	520.3307	620.6361	640.156	645.3123	710.163	807.0906	850.3323	940.2091	943.0982	973.4252	995.6791	1023.828	1026.0521	1095.5819	1130.1147	1162.8718	1179.2041	1226.1229	1271.9206	1307.7553	1324.1601	1341.1683	1386.247	1407.4432	1421.0563	1451.2103	1470.1514	1485.2975	1491.8902	1505.2911	1514.9004	2227.8412	3020.6127	3030.0685	3037.2673	3081.2867	3084.2218	3086.0245	3086.6306	3097.3215	3138.8716	3140.8408	3503.6541	3764.9608
CC1(C)C(O)C1CC#C	CC1(C)[C@@H](O)[C@H]1CC#C	
InChI=1S/C8H12O/c1-4-5-6-7(9)8(6,2)3/h1,6-7,9H,5H2,2-3H3	InChI=1S/C8H12O/c1-4-5-6-7(9)8(6,2)3/h1,6-7,9H,5H2,2-3H3/t6-,7+/m1/s1
