17
gdb 12403	3.02384	2.14561	1.33627	3.2454	65.5	-0.2607	0.0113	0.272	905.8709	0.144177	-401.020462	-401.013209	-401.012265	-401.051905	27.982	
O	 0.0172178454	 1.4027094017	 0.1237203231	-0.443353
C	-0.001664982	 0.0080765812	-0.0085044554	 0.090306
C	-1.4304041528	-0.5370157936	 0.0401474803	-0.226971
C	-1.3836105655	-2.0496310233	-0.1871868451	-0.226913
C	-0.7217051991	-2.3477033229	-1.5263717615	-0.069656
O	 0.5652743356	-1.714432114	-1.6852662168	-0.250551
C	 0.7132878365	-0.4283303039	-1.2801471002	 0.364833
N	 1.4916222738	 0.3898954443	-1.8528164465	-0.533641
H	 0.7034112337	 1.7082985413	-0.491254501	 0.294914
H	 0.5619043804	-0.4661657446	 0.8181279985	 0.090487
H	-1.8829289358	-0.284417913	 1.0030698524	 0.113668
H	-2.0260175453	-0.0451128314	-0.7386516994	 0.109942
H	-0.8204804752	-2.5353273488	 0.6190423034	 0.113669
H	-2.3880179302	-2.4862134179	-0.1879775944	 0.110381
H	-0.527849863	-3.4142944629	-1.6597033038	 0.122211
H	-1.3662365723	-2.012375763	-2.3505582125	 0.113179
H	 1.9292840055	-0.0208700392	-2.6774997611	 0.227496
100.8711	147.2484	302.1524	316.6685	366.3086	409.1838	443.0197	475.3645	537.1338	604.3473	664.3039	787.1513	876.8581	897.8141	916.482	928.0002	952.0405	1044.9031	1078.9527	1119.7923	1135.2524	1155.2041	1197.6715	1228.51	1277.7592	1300.8822	1322.1555	1335.3509	1378.9232	1391.8117	1432.4347	1460.1136	1482.8612	1497.5449	1512.1895	1744.4623	2917.0375	3014.3922	3034.9989	3039.7385	3083.0503	3095.3267	3106.3778	3491.4576	3682.4762
OC1CCCOC1=N	O[C@H]1CCCO[C]1[NH]	
InChI=1S/C5H9NO2/c6-5-4(7)2-1-3-8-5/h4,6-7H,1-3H2	InChI=1S/C5H9NO2/c6-5-4(7)2-1-3-8-5/h4,6-7H,1-3H2/t4-/m0/s1
