19
gdb 87809	2.92421	1.33927	1.16627	1.6987	75.36	-0.2425	0.0697	0.3121	1130.4376	0.157827	-422.97308	-422.964515	-422.963571	-423.006103	33.042	
C	-0.0263406316	 1.5424929851	-0.0578448791	-0.412964
C	-0.0378873249	 0.0444619109	 0.0952303231	-0.030549
O	 1.2326490983	-0.6309217846	-0.0268574363	-0.309314
C	 0.5785295295	-0.6428899749	 1.2311783918	 0.475749
C	 1.2661711741	-0.1089488453	 2.4987221509	-0.322969
C	 0.8798548985	-1.4174480927	 3.213354739	-0.100243
C	-0.5908333249	-1.6363388496	 3.1594220745	 0.109249
O	-1.4548438756	-0.5393608884	 3.2587787358	-0.422723
C	 0.2035262709	-1.9416356043	 1.9162987127	-0.241529
H	 0.801325065	 1.9842496358	 0.5026614375	 0.128339
H	 0.0815525216	 1.8257095279	-1.1101945805	 0.126287
H	-0.9645512423	 1.9695256491	 0.3130087156	 0.121233
H	-0.848920725	-0.4712707768	-0.424370287	 0.078817
H	 2.3431454551	-0.0234698626	 2.3385369141	 0.118068
H	 0.8776382138	 0.813560584	 2.9362306131	 0.113964
H	 1.5128940739	-1.9486188748	 3.9131382772	 0.093897
H	-0.9289515002	-2.5254612696	 3.6937437315	 0.09121
H	-2.2181372228	-0.7103490193	 2.6972453503	 0.286692
H	 0.2305796666	-2.9209129298	 1.4529717758	 0.096786
81.2751	152.2942	189.6617	206.2622	250.8903	301.2723	364.2376	415.5928	456.4887	507.5756	562.5005	637.9672	729.1401	792.3501	804.848	839.5037	914.7286	929.0138	965.2387	987.2732	992.1957	1014.8034	1041.9998	1075.7013	1097.5171	1120.5112	1137.2626	1171.9207	1198.7576	1204.3194	1245.5707	1278.5856	1297.1626	1323.1959	1359.9621	1408.5303	1445.3647	1468.296	1480.1483	1491.0283	1528.238	3035.6441	3067.4293	3077.835	3094.1182	3099.1868	3125.3175	3125.9383	3182.0065	3192.8089	3808.5982
CC1OC11CC2C(O)C12	C[C@H]1O[C@]21C[C@H]1[C@@H](O)[C@@H]21	
InChI=1S/C7H10O2/c1-3-7(9-3)2-4-5(7)6(4)8/h3-6,8H,2H2,1H3	InChI=1S/C7H10O2/c1-3-7(9-3)2-4-5(7)6(4)8/h3-6,8H,2H2,1H3/t3-,4-,5+,6-,7+/m1/s1
