23
gdb 58514	2.54787	1.29189	1.2032	1.4829	84.61	-0.2423	0.0713	0.3137	1204.8407	0.204612	-388.263103	-388.253515	-388.252571	-388.296814	37.718	
C	 0.1209486009	 1.5063215713	-0.0855498521	-0.420878
C	 0.0238419152	-0.008598759	 0.1120027711	 0.086039
O	 0.6623541994	-0.4137599575	 1.3235388115	-0.440393
C	-1.4085116646	-0.5675078487	 0.0264739451	 0.343062
C	-2.3225766492	-0.0044011876	 1.1176440391	-0.473313
C	-2.1068745059	-0.5143817742	-1.3838314519	-0.302265
C	-2.2796012829	-2.0378458117	-1.3419229297	-0.036528
C	-0.9347458115	-2.7002658677	-1.263566534	-0.297849
C	-1.5221087634	-2.1076492887	-0.0144432744	-0.065362
H	 1.1698105351	 1.8157053661	-0.0820432061	 0.122842
H	-0.3269721656	 1.8166062254	-1.0349639216	 0.120279
H	-0.3925178801	 2.0488757484	 0.7167239025	 0.108393
H	 0.6177140486	-0.490542348	-0.6725739184	 0.080582
H	 0.3116659307	 0.1288157553	 2.0373837023	 0.276629
H	-2.4664343938	 1.0763144249	 1.0171888433	 0.112819
H	-3.3090479433	-0.4757837112	 1.0674149558	 0.119411
H	-1.9199058424	-0.2083663805	 2.1165999931	 0.105441
H	-3.0443193726	 0.0464177964	-1.3605684588	 0.09805
H	-1.5000523303	-0.1379139139	-2.215503131	 0.089524
H	-3.1675090077	-2.5757500178	-1.6510038474	 0.081242
H	-0.9452532508	-3.7852432637	-1.2969132628	 0.109564
H	-0.0716256785	-2.2566875082	-1.7541501122	 0.10469
H	-1.7274389876	-2.7200082394	 0.8560447564	 0.07802
73.7652	162.392	181.8432	234.9594	246.871	272.2364	290.9967	321.3211	333.8425	413.9497	432.276	479.0928	519.9259	660.8439	747.0208	785.6174	824.6545	886.6146	891.9034	923.	933.3802	960.9371	985.1717	993.748	1025.7209	1030.7797	1063.6529	1080.8283	1087.5414	1110.4821	1141.4913	1155.8009	1187.9649	1207.3162	1249.8758	1283.2961	1294.4204	1300.553	1359.5161	1372.3503	1400.4471	1406.7547	1422.04	1481.5653	1488.2304	1491.7921	1497.8002	1502.4403	1505.6564	3024.7699	3030.8068	3033.9114	3046.8905	3089.1939	3095.5411	3099.97	3103.0895	3109.6159	3115.4383	3171.2057	3181.0488	3198.3104	3809.8378
CC(O)C1(C)CC2CC12	C[C@@H](O)[C@@]1(C)C[C@H]2C[C@@H]12	
InChI=1S/C8H14O/c1-5(9)8(2)4-6-3-7(6)8/h5-7,9H,3-4H2,1-2H3	InChI=1S/C8H14O/c1-5(9)8(2)4-6-3-7(6)8/h5-7,9H,3-4H2,1-2H3/t5-,6-,7-,8-/m1/s1
