20
gdb 16336	2.95497	1.81306	1.4035	1.3333	75.06	-0.2445	0.0747	0.3192	982.7233	0.176722	-348.980112	-348.971679	-348.970735	-349.012798	32.098	
C	 0.1650628387	 1.5331989205	-0.1479233256	-0.368691
C	-0.1067183489	 0.037897416	 0.0729070878	-0.307609
C	 0.6240514563	-0.5123525418	 1.2677152842	 0.40262
C	 2.0656750687	-0.9490342153	 1.2210962434	-0.320089
C	 1.0254680419	-1.9471510128	 1.6451482838	-0.124076
C	 0.6658607629	-1.7021958782	 3.1130963399	-0.268417
C	 0.2205379615	-0.2506751335	 2.7173362507	 0.051945
O	 0.8782472214	 0.854782109	 3.3038463862	-0.435547
H	 1.2262387444	 1.7105308776	-0.3497539352	 0.118605
H	-0.4120796052	 1.9203352649	-0.9936635101	 0.103563
H	-0.0991404546	 2.113861823	 0.7412938064	 0.128584
H	-1.1863913106	-0.1228356436	 0.1986268956	 0.090254
H	 0.183645086	-0.5275174243	-0.8217268078	 0.092731
H	 2.4612408485	-1.0814893914	 0.2184063924	 0.104882
H	 2.7849926022	-0.5672135012	 1.9404835873	 0.114758
H	 0.840084234	-2.8609818949	 1.0933994082	 0.082829
H	-0.161610009	-2.3111385786	 3.4851858308	 0.095947
H	 1.5004431517	-1.7588049769	 3.8201709468	 0.093308
H	-0.8706269853	-0.1445127273	 2.802581762	 0.062902
H	 0.5813509954	 0.9331261689	 4.2162161734	 0.281501
82.2006	116.2375	189.3528	214.161	279.273	322.9666	328.2057	385.287	449.0053	533.5607	658.3163	707.3472	785.2121	828.3894	854.6822	871.8836	938.2828	970.674	983.5237	1001.5008	1029.1497	1055.2893	1076.2626	1092.588	1100.803	1138.2897	1170.283	1200.7152	1236.7688	1247.957	1273.3838	1293.2008	1343.128	1356.7552	1395.6089	1411.6938	1434.4123	1476.7286	1481.8543	1496.55	1505.4634	1507.7169	2990.7674	3008.7405	3035.7101	3041.4061	3044.2743	3102.5464	3105.3202	3110.5561	3114.4695	3180.8462	3200.1855	3812.5587
CCC12CC1CC2O	CC[C@]12C[C@H]1C[C@H]2O	
InChI=1S/C7H12O/c1-2-7-4-5(7)3-6(7)8/h5-6,8H,2-4H2,1H3	InChI=1S/C7H12O/c1-2-7-4-5(7)3-6(7)8/h5-6,8H,2-4H2,1H3/t5-,6-,7+/m1/s1
