22
gdb 6851	3.14572	1.7127	1.50035	0.2377	83.58	-0.2357	0.032	0.2677	994.795	0.201514	-313.099667	-313.091434	-313.09049	-313.131493	33.025	
C	 0.0091931755	 1.5299657104	-0.0025921915	-0.420348
C	-0.0366665096	-0.0113090125	 0.0003845316	 0.255129
C	-1.5147219872	-0.4577003264	 0.0597648622	-0.407754
C	 0.6495198687	-0.5445449247	-1.2794726083	-0.215707
C	 1.0447969623	-2.0220297473	-1.1727700823	-0.219172
C	 2.0293326517	-2.2407803292	-0.0154982916	-0.239442
C	 1.6076261648	-1.4927895068	 1.2223739488	-0.07875
C	 0.6918647492	-0.5250567133	 1.2261053517	-0.05112
H	 1.0416687676	 1.8940137055	 0.0007023773	 0.112591
H	-0.4895689802	 1.9312426381	-0.892213239	 0.107541
H	-0.4962113182	 1.9432082812	 0.8775425976	 0.106485
H	-2.0830443306	-0.0300987778	-0.7744705579	 0.106172
H	-1.6093483833	-1.5464410557	 0.0159865144	 0.11439
H	-1.98605072	-0.1246021123	 0.9908685804	 0.108578
H	-0.0086380358	-0.3830345437	-2.1416945364	 0.085095
H	 1.5556798977	 0.0476747286	-1.4641018721	 0.089137
H	 0.1503553941	-2.6342146557	-1.0054570589	 0.100194
H	 1.483729074	-2.3655794215	-2.1157434065	 0.089087
H	 2.1221189107	-3.3106007116	 0.2107536256	 0.098958
H	 3.0393675336	-1.9180419405	-0.3112094061	 0.104744
H	 2.0908487657	-1.7739418486	 2.1558386916	 0.080168
H	 0.4272367692	-0.0433350362	 2.1668312595	 0.074025
107.9339	223.9212	238.976	267.5116	285.1066	324.1062	348.4574	392.2282	468.5769	482.7514	523.4686	677.5248	723.7736	751.2332	853.7037	876.4244	890.7503	928.2599	942.7779	985.7285	999.736	1010.2805	1018.8101	1056.0607	1075.1946	1137.5329	1158.9348	1196.5465	1230.4942	1263.5279	1287.6655	1301.8961	1359.9478	1371.4564	1379.0062	1394.3086	1406.2935	1432.3857	1474.6914	1479.7113	1485.0236	1493.892	1498.4481	1502.9387	1512.6631	1721.9925	2992.4511	3013.2734	3020.9758	3026.3392	3027.793	3040.6614	3056.6023	3071.9821	3086.8168	3092.3607	3098.8065	3108.4172	3123.1562	3152.1881
CC1(C)CCCC=C1	CC1(C)CCCC=C1	
InChI=1S/C8H14/c1-8(2)6-4-3-5-7-8/h4,6H,3,5,7H2,1-2H3	InChI=1S/C8H14/c1-8(2)6-4-3-5-7-8/h4,6H,3,5,7H2,1-2H3
