16
gdb 125941	3.83793	1.37046	1.15252	5.5731	70.61	-0.2342	-0.0283	0.206	1054.9381	0.126195	-434.028473	-434.021269	-434.020324	-434.06021	28.056	
C	 0.1920844408	 1.4960340476	 0.0665259283	-0.394957
C	-0.0406475797	-0.0126645071	-0.0357607088	 0.02469
C	 0.6638676003	-0.6395262419	-1.2972070914	-0.360267
C	 1.8885753167	-1.2402520375	-0.6830144769	 0.337125
N	 3.0269299603	-1.7545465347	-1.0160959668	-0.198842
O	 3.6235775897	-2.0969911697	 0.1803546809	-0.176283
N	 2.8105103574	-1.7723269017	 1.2866380855	-0.245078
C	 1.7573715089	-1.2548082738	 0.7298064359	 0.387368
N	 0.542865073	-0.7484684067	 1.1251562302	-0.396345
H	 1.2626298336	 1.7274756946	 0.0624334743	 0.136285
H	-0.275828465	 2.0151654084	-0.7760250504	 0.128621
H	-0.2419280608	 1.8984748273	 0.9879080788	 0.121711
H	-1.1155528759	-0.2127174944	-0.0677651343	 0.098954
H	 0.0359795869	-1.4116622825	-1.7533674799	 0.143326
H	 0.869727944	 0.1156065977	-2.0589787801	 0.139688
H	 0.4628447198	-0.3154628556	 2.0337253647	 0.254004
75.7681	222.9108	264.6975	315.9034	345.3166	398.2172	485.1379	533.6345	581.86	660.2976	723.5936	739.289	804.0514	820.918	855.1047	882.7065	911.6166	945.7249	1034.7955	1058.3603	1094.2429	1126.0178	1199.012	1218.4211	1274.5606	1324.1765	1370.7528	1394.7747	1410.0614	1464.058	1478.0359	1492.869	1496.2988	1610.0304	1696.2103	3031.4685	3053.2683	3065.2739	3102.9184	3110.6701	3111.1912	3609.0456
CC1CC2=NON=C2N1	C[C@H]1Cc2nonc2N1	
InChI=1S/C5H7N3O/c1-3-2-4-5(6-3)8-9-7-4/h3H,2H2,1H3,(H,6,8)	InChI=1S/C5H7N3O/c1-3-2-4-5(6-3)8-9-7-4/h3H,2H2,1H3,(H,6,8)/t3-/m0/s1
