21
gdb 101177	3.48361	0.94498	0.86721	1.7866	78.6	-0.2344	0.0706	0.305	1402.6005	0.181389	-424.14574	-424.136538	-424.135594	-424.180193	34.527	
C	 0.08319689	 1.4646419627	 0.0777494453	-0.39261
C	 0.1518461306	-0.0698538969	 0.0865557014	-0.034128
C	 0.9022469482	-0.5817778015	 1.3195859931	-0.070816
O	 2.2312087889	-0.0840896271	 1.2706201573	-0.423386
C	-1.2461676997	-0.6765938526	 0.046602608	 0.05302
C	-2.1524352472	-0.6771354828	-1.2198107724	 0.02217
C	-1.2931298209	-1.7892342498	-1.8676019338	-0.232301
C	-1.558992763	-2.1425214753	-0.3845625909	 0.021829
O	-2.9703443885	-1.7351723312	-0.5798097656	-0.30994
H	 1.0840431836	 1.8907185046	 0.1730922264	 0.135265
H	-0.3661174502	 1.8361932272	-0.8485135637	 0.110116
H	-0.5238966369	 1.8323254106	 0.913799479	 0.109841
H	 0.7331140835	-0.3919691549	-0.7848921559	 0.083715
H	 0.382757542	-0.2437552315	 2.2318374193	 0.085169
H	 0.8947403577	-1.6836087362	 1.3273441532	 0.084902
H	 2.6829373861	-0.3477259201	 2.0771912549	 0.287471
H	-1.825270982	-0.400009914	 0.9342652297	 0.078223
H	-2.6859344633	 0.149356943	-1.6907475452	 0.091841
H	-1.8265863004	-2.4142135311	-2.5844605337	 0.108413
H	-0.275242141	-1.5580673231	-2.1857939634	 0.101462
H	-1.3803539575	-3.0785468101	 0.1464376969	 0.089746
52.777	100.0535	136.1527	209.5726	238.0314	243.5624	270.9616	363.618	409.9543	450.5195	562.9612	636.1746	731.2553	819.9998	866.5683	874.7109	891.7903	893.7235	924.2459	931.9041	997.7833	1011.6711	1049.3402	1078.5038	1085.0316	1110.1235	1142.5696	1159.2827	1172.4863	1180.3139	1203.9066	1220.0361	1236.2185	1263.7934	1270.8531	1284.4355	1311.2483	1356.8065	1399.0161	1413.4343	1457.2373	1492.0501	1494.7209	1506.1733	1520.6368	2958.6521	2987.8844	3031.2006	3043.0512	3061.2847	3078.2554	3096.2961	3106.3396	3114.4672	3130.6681	3152.5354	3833.8695
CC(CO)C1C2CC1O2	C[C@@H](CO)[C@H]1[C@H]2C[C@@H]1O2	
InChI=1S/C7H12O2/c1-4(3-8)7-5-2-6(7)9-5/h4-8H,2-3H2,1H3	InChI=1S/C7H12O2/c1-4(3-8)7-5-2-6(7)9-5/h4-8H,2-3H2,1H3/t4-,5-,6+,7+/m0/s1
