21
gdb 116386	2.76265	1.25125	0.94697	1.4572	78.88	-0.2417	-0.0181	0.2235	1294.9892	0.183144	-424.259205	-424.250204	-424.24926	-424.293085	33.802	
C	 0.1298353665	 1.575448333	 0.1690821025	-0.391185
C	-0.0194273871	 0.060571502	-0.0061355938	-0.184405
C	 0.5996277355	-0.4729569611	-1.3017112382	-0.091564
C	 0.7856010246	-2.0123232965	-1.2721118766	-0.106097
O	 1.3674752409	-2.5092206638	-2.4594799751	-0.236742
C	 0.5538552837	-2.2768195214	-3.5909364543	-0.088426
C	 0.3379694973	-0.7676385769	-3.8228174395	-0.296987
C	-0.2065448008	-0.1318109087	-2.5533400506	 0.373612
O	-1.2193335857	 0.530637644	-2.5355202512	-0.312521
H	 1.1851758598	 1.8715574021	 0.1706976131	 0.107214
H	-0.3761870881	 2.1097105095	-0.6379994358	 0.142215
H	-0.3067604308	 1.9021440781	 1.1178300288	 0.111976
H	 0.4504775325	-0.4532284593	 0.8424728076	 0.089497
H	-1.0822260856	-0.204831627	 0.0124518044	 0.11173
H	 1.6049634916	-0.0495038494	-1.4428557022	 0.096227
H	 1.4582854991	-2.2902502268	-0.4560033068	 0.116963
H	-0.1891627493	-2.4956933228	-1.0874072669	 0.096944
H	 1.0633775691	-2.7329653913	-4.4437153763	 0.117128
H	-0.4223679023	-2.7753738942	-3.4708711479	 0.10089
H	 1.3066229914	-0.3125719548	-4.0628435709	 0.124126
H	-0.3544200823	-0.5831477645	-4.6479850201	 0.119406
83.6534	98.2522	145.7173	191.683	235.2111	290.5625	337.2686	363.1938	429.4155	461.1914	515.8533	579.5175	700.194	730.2951	797.9037	859.2283	890.9255	943.8424	975.5489	991.7854	1010.5565	1037.0505	1087.8173	1124.7602	1135.9572	1148.3873	1179.6006	1229.3777	1240.431	1279.3069	1289.4622	1309.2801	1336.0089	1359.93	1380.8865	1396.6478	1405.3575	1417.5485	1460.3456	1478.9629	1496.8369	1498.2268	1510.2117	1512.8249	1808.1391	2961.4306	2972.1407	3007.4964	3023.0996	3035.2775	3040.5947	3069.85	3088.1344	3093.6973	3099.7337	3113.048	3131.3422
CCC1COCCC1=O	CC[C@H]1COCCC1=O	
InChI=1S/C7H12O2/c1-2-6-5-9-4-3-7(6)8/h6H,2-5H2,1H3	InChI=1S/C7H12O2/c1-2-6-5-9-4-3-7(6)8/h6H,2-5H2,1H3/t6-/m0/s1
