15
gdb 126272	2.01687	1.6247	0.95293	4.4511	75.11	-0.2782	-0.068	0.2102	1191.7971	0.11299	-416.819631	-416.811445	-416.810501	-416.853398	29.008	
C	-0.3183306455	 1.5681559624	-0.0644775997	-0.374789
C	 0.1120350055	 0.0961385922	 0.0609250295	-0.324061
C	 0.7754673209	-0.4275046461	-1.1746782325	 0.070242
C	 2.0801624699	-0.789962807	-1.3646714136	 0.274547
O	 2.2876250683	-1.2023730813	-2.6373594397	-0.207642
N	 1.0939583129	-1.1165852689	-3.3226254549	-0.11343
C	 0.2151474938	-0.6626699498	-2.4635319731	-0.028378
C	 3.180416322	-0.7988676118	-0.4756668303	 0.23802
N	 4.0578692429	-0.7926818814	 0.2795471053	-0.331898
H	 0.5450499168	 2.2143127481	-0.2467470214	 0.135032
H	-1.0229239176	 1.7083615219	-0.8901110777	 0.124917
H	-0.8066623099	 1.9008198132	 0.8555699428	 0.128968
H	 0.7959768001	-0.0182483257	 0.9077359677	 0.133779
H	-0.7656841272	-0.5219528235	 0.2845318371	 0.127221
H	-0.8064916228	-0.5166922623	-2.7859454396	 0.147473
43.4474	131.2528	156.7534	175.1816	220.69	325.1713	385.7352	500.0552	542.9862	601.2989	651.0473	673.4333	742.3638	793.6344	912.8101	949.4293	964.2954	980.1283	1059.8539	1082.3564	1163.6004	1206.624	1239.1865	1295.2281	1359.0044	1403.8309	1418.0835	1483.8726	1490.4084	1498.4546	1506.3583	1643.9078	2350.4559	3037.5464	3043.493	3081.5925	3116.6686	3122.7612	3244.0603
CCC1=C(ON=C1)C#N	CCc1c(onc1)C#N	
InChI=1S/C6H6N2O/c1-2-5-4-8-9-6(5)3-7/h4H,2H2,1H3	InChI=1S/C6H6N2O/c1-2-5-4-8-9-6(5)3-7/h4H,2H2,1H3
