19
gdb 122472	3.66914	0.69201	0.61959	5.4517	78.27	-0.2591	0.0144	0.2735	1794.2402	0.158356	-419.178651	-419.168826	-419.167882	-419.214768	34.038	
C	-0.0204682209	 1.3390598819	-0.2512129383	-0.229628
O	-0.0539649259	 0.0092784523	 0.2082753446	-0.228885
C	-1.2835655562	-0.6285308275	-0.044532615	-0.047052
C	-1.1857857353	-2.0660319458	 0.4567375954	-0.221727
C	-2.4882867595	-2.8063349994	 0.2793611272	-0.014255
N	-2.788957328	-3.3148829681	-1.0615541344	-0.309209
C	-2.5572807112	-4.2825649673	 0.0302578147	-0.203311
C	-1.3694945024	-5.0975763137	-0.0634155379	 0.333089
N	-0.4249473603	-5.762696982	-0.1070176964	-0.33292
H	 0.9662016057	 1.7427790823	-0.0122140567	 0.129921
H	-0.175682855	 1.3996242256	-1.3400496206	 0.106098
H	-0.787114046	 1.960790309	 0.2387386288	 0.101882
H	-2.1064900981	-0.0953504627	 0.4662708584	 0.076785
H	-1.5143688826	-0.6232269882	-1.1227056563	 0.102401
H	-0.3878055881	-2.5816406969	-0.0848850182	 0.138721
H	-0.9097418065	-2.0580115958	 1.517324412	 0.118612
H	-3.325467317	-2.4174810438	 0.8592159036	 0.100901
H	-3.7838239993	-3.2697800402	-1.2652746951	 0.246129
H	-3.4123037735	-4.8120075297	 0.4420781542	 0.132447
50.449	75.028	89.4924	120.0303	161.7529	227.0436	236.6093	308.7234	329.9636	455.5887	464.1578	574.1291	626.4635	788.5724	812.6633	844.6693	898.1609	953.9856	989.4816	1025.779	1047.8348	1074.9375	1139.1761	1165.6738	1179.6119	1200.9494	1218.5896	1230.1758	1246.2847	1267.0418	1310.4194	1312.0136	1402.9963	1427.563	1463.0141	1481.3664	1482.1763	1486.3459	1504.7395	1533.5096	2360.935	2935.1782	2968.8676	2982.7251	3012.6404	3051.4849	3099.4684	3115.4558	3116.4164	3148.3854	3511.3181
COCCC1NC1C#N	COCC[C@H]1N[C@H]1C#N	
InChI=1S/C6H10N2O/c1-9-3-2-5-6(4-7)8-5/h5-6,8H,2-3H2,1H3	InChI=1S/C6H10N2O/c1-9-3-2-5-6(4-7)8-5/h5-6,8H,2-3H2,1H3/t5-,6+/m1/s1
