21
gdb 109726	2.02488	1.14673	0.89288	0.8266	89.39	-0.2161	0.0549	0.2711	1449.3529	0.179475	-387.046355	-387.035392	-387.034448	-387.083908	37.917	
C	-0.5838923709	 1.0067257477	-0.1165058803	-0.236793
O	 0.4148196754	 0.0308317827	 0.1241833595	-0.231286
C	 0.8731300925	-0.5722236979	-1.033856415	 0.114377
C	 1.437171722	-1.9492657525	-0.9120664934	-0.071921
C	 1.4970253094	-2.6520239468	 0.424175454	-0.401075
C	 0.0969102769	-1.7492899063	-1.6400595733	-0.280925
C	-1.1316281786	-2.1971814827	-1.0553425592	 0.109107
C	-2.1739116879	-2.5834394828	-0.587495785	 0.059118
C	-3.4305397386	-3.0502901747	-0.0191870485	-0.499422
H	-0.2048616512	 1.8151445468	-0.7601823603	 0.102624
H	-1.4702085561	 0.563020024	-0.5860677341	 0.125335
H	-0.8586567491	 1.4268988147	 0.8536347606	 0.125205
H	 1.3294668693	 0.116762615	-1.748135943	 0.083027
H	 2.2699174528	-2.1646080137	-1.5763949814	 0.089544
H	 0.6521291396	-2.3709107855	 1.0536728574	 0.142059
H	 1.4809654701	-3.7384315074	 0.2907038572	 0.115742
H	 2.4180028417	-2.3881658997	 0.954534989	 0.116011
H	 0.1386869702	-1.8218524379	-2.7239533961	 0.102911
H	-4.2864890816	-2.7306230589	-0.6245122656	 0.144513
H	-3.4624310771	-4.1439878841	 0.0452940681	 0.14507
H	-3.5786033188	-2.6565422201	 0.9927542295	 0.146779
20.88	74.248	92.0593	131.1447	157.4232	174.3867	196.626	229.3266	268.4179	316.0258	380.6853	414.6023	515.7036	592.4394	629.6633	725.0412	759.7699	852.6305	921.377	974.6376	996.7841	1050.3962	1052.8515	1056.9549	1096.1508	1108.7014	1149.283	1171.2419	1185.242	1194.711	1235.1594	1272.5539	1365.2469	1374.3718	1414.4701	1418.0906	1432.4797	1477.6364	1480.3203	1485.3634	1487.9276	1491.8335	1500.5361	1506.9715	2361.5595	2988.0731	3022.3977	3041.3914	3059.9585	3071.189	3080.0533	3083.0922	3098.818	3122.6703	3128.1404	3138.1729	3152.4193
COC1C(C)C1C#CC	CO[C@H]1[C@@H](C)[C@H]1C#CC	
InChI=1S/C8H12O/c1-4-5-7-6(2)8(7)9-3/h6-8H,1-3H3	InChI=1S/C8H12O/c1-4-5-7-6(2)8(7)9-3/h6-8H,1-3H3/t6-,7+,8-/m0/s1
