21
gdb 114997	2.58286	1.30473	0.92694	1.399	81.55	-0.2452	0.0201	0.2653	1314.3079	0.181897	-424.235025	-424.225779	-424.224835	-424.269028	34.589	
C	-0.0538327291	 1.3829752897	-0.0285331588	-0.241072
O	-0.0676027644	-0.033844632	-0.0651015887	-0.238864
C	 0.6022270694	-0.5796595172	-1.1482942379	 0.227624
C	 0.6636365147	-2.0930791957	-0.9796223277	-0.284018
C	 1.0883393265	-2.7298624996	-2.276346429	-0.084241
C	 1.0688346851	-2.0608973453	-3.4265411881	-0.061205
C	 0.5637249218	-0.6427763102	-3.5256043535	 0.100711
C	-0.4271094769	-0.4553169184	-4.6721921684	-0.396284
O	-0.1031975696	-0.2445758366	-2.3334774657	-0.281474
H	 0.9766149593	 1.7696292419	-0.010599942	 0.102616
H	-0.5771532706	 1.8125750516	-0.8891867673	 0.128876
H	-0.5603007527	 1.6802800302	 0.8920640558	 0.125898
H	 1.6273429647	-0.1608370284	-1.2213119777	 0.047776
H	 1.362591935	-2.3456773278	-0.1739014667	 0.109074
H	-0.3254785175	-2.4470218089	-0.6627187278	 0.126251
H	 1.4345833886	-3.7593216444	-2.2440625555	 0.091886
H	 1.4138794583	-2.5184487699	-4.3500702344	 0.08925
H	 1.4266828184	 0.0290926169	-3.6985103099	 0.072277
H	-1.2863801128	-1.1189131264	-4.5416634343	 0.12866
H	-0.7840051179	 0.5777967229	-4.6939774645	 0.123194
H	 0.0490086597	-0.6806791024	-5.6311765379	 0.113065
89.2186	128.7833	132.5031	172.6596	226.4841	243.8547	295.3225	359.0277	418.3503	465.5011	513.6844	525.8593	586.9915	691.1933	788.6945	853.1317	890.758	944.3875	981.4038	994.9164	1032.1093	1048.8431	1066.7351	1085.4796	1122.8591	1157.1968	1177.718	1186.8524	1201.5868	1208.2392	1251.1545	1323.4751	1340.2025	1345.5885	1394.7567	1406.9754	1410.4994	1420.6203	1468.4716	1483.0118	1483.7517	1484.205	1498.0296	1513.2494	1722.4359	2885.8908	2911.4958	2991.1642	3030.9583	3043.9365	3068.2548	3074.5372	3119.5221	3125.5683	3128.0838	3152.3606	3175.1457
COC1CC=CC(C)O1	CO[C@H]1CC=C[C@@H](C)O1	
InChI=1S/C7H12O2/c1-6-4-3-5-7(8-2)9-6/h3-4,6-7H,5H2,1-2H3	InChI=1S/C7H12O2/c1-6-4-3-5-7(8-2)9-6/h3-4,6-7H,5H2,1-2H3/t6-,7-/m1/s1
