19
gdb 85184	2.10813	1.5986	1.05984	2.807	76.58	-0.2361	-0.0293	0.2068	1172.0695	0.158689	-419.163842	-419.15498	-419.154036	-419.198006	32.448	
C	-0.1401854964	 1.6885787865	 0.7193411831	-0.332621
N	 0.2355572775	 0.3270969111	 0.3804845091	-0.097647
C	-0.8668517896	-0.5879459454	-0.0102385556	-0.291862
C	-0.3011030254	-1.6156754421	 0.9785489779	 0.389758
O	-0.520135976	-2.7599542998	 1.2344790848	-0.284475
C	 0.6901148227	-0.5505620806	 1.4907210222	-0.129896
C	 2.1640149544	-0.9087190289	 1.4866962622	 0.024221
C	 2.8632856148	-1.1997168625	 0.2139770596	-0.238614
N	 3.1493433588	 0.043738745	 0.9553694174	-0.326752
H	 0.7271770054	 2.2310957056	 1.1071947114	 0.131524
H	-0.4891045785	 2.2107476539	-0.1768204121	 0.130907
H	-0.9416499052	 1.7376028642	 1.4796333834	 0.101371
H	-1.8686051303	-0.2450442395	 0.2948462613	 0.121374
H	-0.8948584414	-0.8645105854	-1.0693129987	 0.136057
H	 0.3908224742	-0.1787744355	 2.4848929916	 0.091458
H	 2.4891372155	-1.4258711779	 2.385932947	 0.102282
H	 3.6723092388	-1.9234528329	 0.1933803386	 0.120617
H	 2.2896325375	-1.115392163	-0.7046974999	 0.116074
H	 2.6445711533	 0.7964875472	 0.4893063569	 0.236226
61.5527	88.8588	132.1997	171.6633	228.2476	286.8818	342.3866	356.7378	438.4523	569.2635	581.9721	631.4395	760.5591	810.1929	842.841	896.1708	942.4669	970.766	979.9217	1022.7055	1033.613	1073.6824	1115.5494	1121.7614	1148.3499	1158.3431	1183.2681	1201.066	1210.0256	1263.0298	1274.8902	1287.7824	1306.4423	1340.5245	1407.603	1453.3852	1472.271	1495.125	1498.9839	1499.5616	1916.8866	2938.1907	2967.3486	2985.4667	3067.7969	3070.972	3109.6458	3115.3312	3140.5247	3204.5462	3479.3745
CN1CC(=O)C1C1CN1	CN1CC(=O)[C@H]1[C@H]1CN1	
InChI=1S/C6H10N2O/c1-8-3-5(9)6(8)4-2-7-4/h4,6-7H,2-3H2,1H3	InChI=1S/C6H10N2O/c1-8-3-5(9)6(8)4-2-7-4/h4,6-7H,2-3H2,1H3/t4-,6-/m1/s1
