20
gdb 70840	3.12878	1.74872	1.43407	1.7504	81.8	-0.2207	0.0786	0.2993	992.092	0.171013	-365.940947	-365.933324	-365.93238	-365.972286	31.46	
C	-0.0028978494	 1.5025675554	 0.0338217722	-0.510984
C	 0.0585756441	-0.0011732967	-0.003870625	 0.329507
C	 0.8629669732	-0.8170700558	-1.0478483234	-0.322618
C	 0.7737471492	-1.9506201897	-0.008952458	 0.367316
C	 1.6196141998	-3.1906754287	-0.0235271424	-0.498276
C	 0.6571816107	-0.910789958	 1.1551564719	-0.180225
C	-0.7519078544	-1.4668301196	 1.464852072	-0.062408
C	-1.2313127655	-0.8268224899	 0.2175609945	-0.094341
N	-0.7223531705	-2.2349728992	 0.1802843641	-0.179723
H	 0.9994443849	 1.9438084008	 0.0251615322	 0.116472
H	-0.5471289079	 1.8969649555	-0.8330191453	 0.119197
H	-0.5176830763	 1.8539043498	 0.9353651335	 0.119922
H	 0.4277176504	-0.9826975417	-2.0384915247	 0.096882
H	 1.890463448	-0.4484924127	-1.1434112228	 0.094643
H	 2.6848761801	-2.940713013	-0.0596866005	 0.112302
H	 1.4381257468	-3.7961495001	 0.8705839892	 0.123001
H	 1.3796426692	-3.8061638367	-0.8977200666	 0.126296
H	 1.4502476443	-0.5979776924	 1.8307574272	 0.065233
H	-1.2629719795	-1.8149495411	 2.3544166666	 0.091606
H	-2.2354291872	-0.6376949862	-0.1444578347	 0.086199
210.974	216.5145	222.5201	240.5507	284.8619	333.7552	418.2646	566.2884	571.6752	596.0169	745.5828	768.1366	796.1702	823.1275	842.0848	852.1478	870.7014	902.6074	929.792	946.0812	988.3263	1007.3219	1015.5603	1039.5197	1060.7407	1122.6177	1136.3428	1171.0806	1180.9173	1185.4199	1218.5034	1238.7194	1248.5504	1304.0849	1331.3293	1355.9802	1412.4809	1416.4615	1482.2763	1483.8858	1488.9344	1491.1138	1492.8448	3020.1862	3029.2553	3037.644	3081.8358	3092.447	3095.9676	3097.9875	3104.1302	3138.357	3171.0497	3186.2458
CC12CC3(C)C1C1C2N31	C[C@@]12C[C@@]3(C)[C@@H]1[C@H]1[C@@H]2N31	
InChI=1S/C8H11N/c1-7-3-8(2)5(7)4-6(7)9(4)8/h4-6H,3H2,1-2H3	InChI=1S/C8H11N/c1-7-3-8(2)5(7)4-6(7)9(4)8/h4-6H,3H2,1-2H3/t4-,5+,6-,7+,8-,9?/m0/s1
