17
gdb 33461	2.84059	1.3206	1.02454	2.8565	73.9	-0.2475	0.0177	0.2652	1162.7537	0.134119	-421.737029	-421.728447	-421.727503	-421.770897	31.423	
C	-0.2156311027	-1.2428011667	 0.4636823619	-0.404419
C	-0.1113232385	-0.0619668271	 0.2654052883	 0.289863
C	-0.0451917965	 1.3578292176	 0.0017576139	 0.175224
C	 0.7829463545	 2.2138599768	 0.8755682956	-0.216733
O	 1.2417386521	 1.8468627855	-0.4221036149	-0.254994
C	-1.241102773	 1.9176299446	-0.7388289073	-0.128588
C	-1.1616764861	 3.3548057703	-1.2995117479	-0.099139
O	-1.4586868096	 2.8955501419	-2.6323562825	-0.27157
C	-1.3989298156	 1.5141917942	-2.2245750182	-0.075284
H	-0.2911244215	-2.2869082214	 0.6447803567	 0.202556
H	 0.5111750621	 3.2615438989	 1.0002273732	 0.120228
H	 1.3188291536	 1.7630520259	 1.7081462604	 0.129254
H	-2.1415368889	 1.7289572935	-0.1498205002	 0.097335
H	-1.9131915751	 4.0614581595	-0.9299085215	 0.100728
H	-0.1654882958	 3.8085203442	-1.2403233307	 0.114901
H	-0.527505936	 0.9978055194	-2.6460874869	 0.114343
H	-2.3091832128	 0.9653751928	-2.4890149298	 0.106296
63.7029	86.4361	128.1733	198.8924	237.1051	267.5732	406.1746	446.8037	529.6265	572.2282	632.5842	643.426	668.1506	797.5357	852.763	881.9675	892.6016	949.4503	973.2605	1034.9131	1043.4999	1060.5686	1115.4524	1133.7508	1165.7293	1170.7982	1183.8386	1211.5879	1258.93	1316.7312	1352.7941	1364.2097	1397.9552	1505.4713	1517.208	1532.9611	2238.8624	3017.497	3027.8505	3065.8333	3070.2387	3085.7659	3090.8808	3179.8658	3499.9244
C#CC1(CO1)C1COC1	C#C[C@]1(CO1)C1COC1	
InChI=1S/C7H8O2/c1-2-7(5-9-7)6-3-8-4-6/h1,6H,3-5H2	InChI=1S/C7H8O2/c1-2-7(5-9-7)6-3-8-4-6/h1,6H,3-5H2/t7-/m0/s1
