17
gdb 54468	3.56339	1.37041	1.1334	3.3515	73.13	-0.2135	0.0104	0.2238	1075.7581	0.136697	-417.956925	-417.949101	-417.948157	-417.989193	30.867	
N	 0.1381488402	 1.2465258789	 0.3844265579	-0.542695
C	 0.0015898503	-0.0116185429	-0.1296765231	 0.300165
O	 0.9012479418	-0.5868759283	-0.7232225534	-0.385727
C	-1.3324540827	-0.6341983976	 0.0380417883	 0.258811
N	-1.4155947558	-2.1174799571	-0.0107409738	-0.371794
C	-2.0880436109	-1.3331874158	-1.0438200488	-0.087959
C	-3.4300936146	-0.7745349182	-0.4932358435	-0.056382
C	-3.6533780601	-1.1381049716	 0.9519662	-0.289997
C	-2.6640122164	-0.0570910782	 0.6102956482	-0.154236
H	 1.0638940523	 1.6439761454	 0.380408158	 0.26336
H	-0.5267772688	 1.6088509989	 1.0459743107	 0.261525
H	-0.5134097681	-2.4051016326	-0.3969771473	 0.251907
H	-1.813825271	-1.4116209228	-2.0877593406	 0.11445
H	-4.2083203616	-0.3773683655	-1.1306093569	 0.095518
H	-4.5897207448	-0.772864676	 1.3622748897	 0.110804
H	-3.31305049	-2.0899372513	 1.3379353781	 0.147491
H	-2.7811965699	 0.9711673846	 0.9289992463	 0.084758
80.3762	156.7591	188.6837	297.2025	351.0754	399.0493	441.1258	471.9539	559.5656	592.7238	653.7563	717.789	731.0133	781.2327	813.0811	870.5378	873.7266	911.2099	929.6096	973.2898	998.4515	1041.0758	1054.8527	1058.0363	1094.0269	1102.7852	1151.4461	1191.3905	1226.9574	1254.2252	1303.3261	1338.586	1362.0434	1433.0951	1462.0867	1616.8034	1765.8877	3141.0125	3183.4942	3201.4577	3210.4315	3238.3168	3451.9693	3597.9619	3729.485
NC(=O)C12NC1C1CC21	NC(=O)[C@]12N[C@H]1[C@H]1C[C@@H]21	
InChI=1S/C6H8N2O/c7-5(9)6-3-1-2(3)4(6)8-6/h2-4,8H,1H2,(H2,7,9)	InChI=1S/C6H8N2O/c7-5(9)6-3-1-2(3)4(6)8-6/h2-4,8H,1H2,(H2,7,9)/t2-,3+,4-,6+/m0/s1
