16
gdb 16725	3.83222	1.73827	1.70721	1.5157	68.78	-0.2364	0.0368	0.2731	840.5238	0.130833	-346.551754	-346.544801	-346.543857	-346.58274	27.278	
C	 0.6077247324	-0.8881343352	 0.5687867381	-0.499434
C	 0.2528539171	 0.2225102924	 0.275610854	 0.377957
C	-0.2107113591	 1.5621034273	-0.097577986	-0.091211
C	-0.9325229029	 2.3057541655	 1.0708631127	-0.253061
C	 0.1140899367	 3.2827406813	 1.576789857	-0.066857
C	 1.4935167226	 2.7314783054	 1.9020273733	-0.328235
C	 1.1931724575	 3.2894115072	 0.536219484	 0.120438
O	 0.8770698955	 2.4023152133	-0.508460797	-0.249375
H	 0.9287799686	-1.8680739676	 0.8233788539	 0.201363
H	-0.8709799578	 1.4630325369	-0.9663959694	 0.116593
H	-1.7941950334	 2.8569512637	 0.6824211303	 0.110404
H	-1.2903423421	 1.6000474216	 1.8238014596	 0.12103
H	-0.2218449773	 4.19233632	 2.0601398558	 0.091519
H	 2.1188157204	 3.3330682328	 2.5535591183	 0.112127
H	 1.6234620608	 1.6606639608	 2.0104030344	 0.135034
H	 1.684838801	 4.1813122945	 0.1667330911	 0.101707
106.781	163.9047	254.755	298.5979	430.6715	475.4016	549.093	622.3956	663.277	678.957	752.0494	762.6742	801.5928	819.5724	904.6266	948.0312	968.0256	996.6011	1016.4784	1049.6721	1073.9309	1097.0309	1107.1694	1156.1158	1202.3434	1212.9929	1268.1974	1310.6062	1340.2782	1359.28	1393.3298	1479.9936	1495.7489	2231.2988	3040.8411	3060.3429	3110.2698	3134.2746	3177.0813	3188.3567	3225.7683	3500.856
C#CC1CC2CC2O1	C#C[C@H]1C[C@H]2C[C@H]2O1	
InChI=1S/C7H8O/c1-2-6-3-5-4-7(5)8-6/h1,5-7H,3-4H2	InChI=1S/C7H8O/c1-2-6-3-5-4-7(5)8-6/h1,5-7H,3-4H2/t5-,6-,7+/m0/s1
