16
gdb 74048	2.9751	1.38893	0.95909	6.3373	77.17	-0.2514	-0.0738	0.1776	1182.0863	0.123833	-437.919161	-437.910676	-437.909732	-437.953343	30.317	
C	-0.098135574	 1.5231388133	 0.0360420036	-0.476781
C	 0.0172984943	 0.028693523	-0.0333264422	 0.245935
C	 0.0987542248	-0.6578270388	-1.1805282052	-0.235465
C	 0.1669227975	-2.1210288912	-1.2144166551	 0.309624
O	 0.1731384236	-2.7497300531	-2.2492109499	-0.296934
C	 0.2306816892	-2.8331208287	 0.1307097618	 0.280566
N	 0.2872214444	-4.0944373549	 0.1786753211	-0.464061
O	 0.2790356181	-2.0760872935	 1.267918509	-0.26459
C	 0.0127498868	-0.6804889565	 1.2845392301	-0.143285
H	 0.7552475741	 1.9569815172	 0.5715114988	 0.144659
H	-0.1404482797	 1.9638037504	-0.9617178597	 0.145436
H	-0.9990077608	 1.8231860403	 0.5852496732	 0.143072
H	 0.0906755788	-0.1628889988	-2.1467788465	 0.115311
H	 0.3365085936	-4.4057370408	 1.1518037057	 0.226661
H	 0.7640866615	-0.2316564302	 1.9477804093	 0.135531
H	-0.9617359218	-0.5216101878	 1.773019266	 0.134321
53.6243	57.8994	128.2983	187.4056	293.7366	355.4115	421.7253	434.7101	451.8798	493.2436	580.2082	624.083	774.6843	778.8941	894.2672	910.3998	924.3997	978.1417	996.3638	1030.7909	1082.7633	1128.0253	1193.7195	1222.3105	1268.2742	1316.5304	1355.5785	1411.9014	1431.2141	1476.4952	1480.5115	1493.3895	1711.9162	1728.6869	1784.847	2985.796	3026.1108	3033.6167	3076.3266	3133.1841	3184.0828	3460.7458
CC1=CC(=O)C(=N)OC1	CC1=CC(=O)[C]([NH])OC1	
InChI=1S/C6H7NO2/c1-4-2-5(8)6(7)9-3-4/h2,7H,3H2,1H3	InChI=1S/C6H7NO2/c1-4-2-5(8)6(7)9-3-4/h2,7H,3H2,1H3
