16
gdb 73732	2.07684	1.80793	0.97831	3.7873	84.09	-0.2357	-0.0432	0.1925	1162.5481	0.123252	-400.752195	-400.743595	-400.742651	-400.785395	31.778	
C	-0.0061933277	 1.4721876163	 0.0810150854	-0.516297
C	 0.013933708	-0.0129915081	-0.010241756	 0.162507
C	 0.0024213495	-0.7932222515	-1.1089570584	 0.012181
C	-0.0319954868	-0.3824136033	-2.4605068119	 0.263789
C	-0.0613582336	-0.017952092	-3.6072855657	-0.409418
C	 0.0322868449	-2.2119665596	-0.6860801915	 0.337013
N	 0.0316307448	-3.2290121862	-1.4346605684	-0.545309
O	 0.0614976668	-2.2385814042	 0.6878741226	-0.248996
C	 0.0524759544	-0.9064220391	 1.1963421626	-0.166963
H	 0.8788610949	 1.8457304316	 0.6110778493	 0.140683
H	-0.0324632855	 1.9227465167	-0.9130587303	 0.152752
H	-0.8804047329	 1.8197188866	 0.6456620657	 0.140737
H	-0.0868968186	 0.2822379154	-4.6254378696	 0.194769
H	 0.0559781316	-4.0843471672	-0.8777434616	 0.223625
H	 0.9500619166	-0.7446291317	 1.8099699082	 0.129462
H	-0.8229326863	-0.7708652036	 1.8472332297	 0.129465
115.7806	132.0509	137.7902	198.0406	213.7705	275.849	401.9697	403.3436	530.2041	537.7682	569.741	602.6628	634.8185	653.0728	753.3218	766.0239	871.9588	937.4447	962.2402	986.1224	1069.1221	1080.3046	1085.0022	1183.2367	1200.0802	1238.8525	1365.4199	1387.9329	1415.3764	1477.6356	1479.9337	1499.133	1690.7146	1763.7234	2235.7262	3002.1546	3023.2793	3029.5181	3069.9622	3133.0528	3483.8376	3503.4304
CC1=C(C#C)C(=N)OC1	C[C]1C(=C([NH])OC1)C#C	
InChI=1S/C7H7NO/c1-3-6-5(2)4-9-7(6)8/h1,8H,4H2,2H3	InChI=1S/C7H7NO/c1-3-6-5(2)4-9-7(6)8/h1,8H,4H2,2H3
