25
gdb 118092	2.86096	0.823	0.78994	1.4199	89.24	-0.2574	0.0707	0.3281	1666.4796	0.226691	-389.487965	-389.476803	-389.475859	-389.524398	41.328	
C	 0.0768316458	 1.4920350575	 0.2429294679	-0.383977
C	-0.0114788687	-0.02275605	 0.0426793444	-0.161668
C	 0.7636439689	-0.5154074221	-1.1842694322	-0.194003
C	 0.6177502375	-2.0245084391	-1.4261005366	 0.043617
O	-0.7466304266	-2.3852037252	-1.6513298313	-0.43956
C	 1.5340419371	-2.5591438926	-2.5242531398	 0.391989
C	 1.3310515623	-1.982240568	-3.9132732204	-0.487505
C	 2.9362918501	-2.9388286572	-2.1086749675	-0.305207
C	 1.9213972885	-4.0128481399	-2.420509608	-0.310522
H	 1.1155645534	 1.8183204079	 0.3685241071	 0.111297
H	-0.3343232536	 2.0312794939	-0.6181700322	 0.110319
H	-0.480624866	 1.8100668754	 1.1296073707	 0.111579
H	 0.3709502937	-0.5341671678	 0.9361139887	 0.092583
H	-1.05832308	-0.3296826133	-0.0561244481	 0.107896
H	 0.4177014638	 0.0284030187	-2.0757097171	 0.083556
H	 1.8295057571	-0.2754115842	-1.0775248993	 0.097234
H	 0.8782375466	-2.5468803153	-0.4963678572	 0.076128
H	-1.0622059061	-1.8817657219	-2.4094255683	 0.276257
H	 1.5315697984	-0.9058404837	-3.9467333104	 0.118941
H	 1.9999762736	-2.4624902623	-4.6335961051	 0.1173
H	 0.3067208952	-2.147828258	-4.269198946	 0.108572
H	 3.7424384788	-2.7707585367	-2.8152771222	 0.106373
H	 3.2227566525	-2.7936005143	-1.0716840763	 0.107518
H	 1.5147820218	-4.5902586823	-1.5971707761	 0.115244
H	 2.0405813158	-4.5770380296	-3.3396254948	 0.10604
54.2072	85.9065	98.8687	127.7951	214.8331	232.9171	247.2781	258.656	276.2389	292.8782	323.5065	354.8458	441.5982	517.6621	539.4346	747.588	758.4715	783.7067	852.1405	873.411	902.6558	913.9511	946.9731	953.8625	991.222	1034.0941	1048.0384	1066.6857	1080.2819	1086.1002	1106.5764	1121.3429	1138.7853	1187.4194	1236.661	1255.8703	1293.7504	1321.275	1330.7627	1343.3951	1379.5894	1397.8017	1412.7384	1418.2168	1428.7979	1471.4423	1479.0351	1494.1055	1496.4996	1499.0511	1499.7015	1509.2614	1511.5618	2997.8986	3020.4422	3022.3594	3025.91	3027.8467	3046.0007	3069.7064	3081.5077	3094.9131	3099.9601	3100.7612	3124.317	3130.7519	3201.565	3216.8761	3805.6984
CCCC(O)C1(C)CC1	CCC[C@@H](O)C1(C)CC1	
InChI=1S/C8H16O/c1-3-4-7(9)8(2)5-6-8/h7,9H,3-6H2,1-2H3	InChI=1S/C8H16O/c1-3-4-7(9)8(2)5-6-8/h7,9H,3-6H2,1-2H3/t7-/m1/s1
