14
gdb 113140	2.48363	1.18851	0.89237	3.5297	69.89	-0.2848	-0.0329	0.2519	1255.1164	0.097763	-436.620981	-436.611893	-436.610949	-436.655298	32.221	
O	 0.020245994	 1.3889528245	-0.3646491391	-0.407207
C	 0.0511668062	 0.1276885859	 0.275179806	-0.10547
C	-1.326791953	-0.4891840588	 0.2943442428	 0.001571
O	-1.7737216157	-1.0782647113	-0.9270454949	-0.266443
C	-1.5490249681	-1.9608297735	 0.1853994274	 0.095332
C	-0.4581394858	-2.8974237207	 0.0843607044	 0.272636
C	 0.4315133627	-3.7009940864	 0.0181027333	-0.396576
C	-2.7634203206	-2.5026462454	 0.7775704169	 0.235597
N	-3.7212823233	-2.9279419681	 1.2631342788	-0.322591
H	-0.2090949055	 1.2409037504	-1.2889493395	 0.298337
H	 0.7599867963	-0.5639659152	-0.197342452	 0.115778
H	 0.3822495111	 0.3082661806	 1.3030865925	 0.130275
H	-2.0940760463	 0.0835937278	 0.8154294796	 0.131037
H	 1.2204184181	-4.4105008698	-0.0453476462	 0.217725
66.1454	117.209	128.2609	150.1579	199.6093	271.7984	337.9895	394.2948	433.1277	483.8501	533.425	587.1115	627.0488	646.3866	679.0141	690.4348	818.3546	906.6906	974.8366	1057.3989	1079.1918	1109.8434	1211.9441	1230.4591	1300.625	1364.8705	1412.7454	1449.557	1490.1698	2247.8951	2365.106	3029.4719	3088.7882	3126.1015	3496.5558	3806.7136
OCC1OC1(C#C)C#N	OC[C@H]1O[C@]1(C#C)C#N	
InChI=1S/C6H5NO2/c1-2-6(4-7)5(3-8)9-6/h1,5,8H,3H2	InChI=1S/C6H5NO2/c1-2-6(4-7)5(3-8)9-6/h1,5,8H,3H2/t5-,6-/m1/s1
