19
gdb 98440	3.28608	1.07763	0.93156	2.7818	71.82	-0.2502	-0.0235	0.2267	1314.201	0.156049	-460.155294	-460.145396	-460.144451	-460.192027	34.982	
C	-0.0767628581	 1.5718356684	 0.1517979996	-0.38422
C	 0.0623545404	 0.0559982201	 0.0473018938	-0.281495
C	 0.6107609246	-0.4011394208	-1.2887336606	 0.342783
O	 0.9177501677	 0.3675317818	-2.172654935	-0.313241
C	 0.7702846374	-1.903877977	-1.5283607354	 0.234795
O	 0.4487714476	-2.5967151043	-0.3473395838	-0.48138
C	 0.1076266881	-2.4187521193	-2.8406687291	-0.111734
O	 1.3722091211	-2.8420696322	-3.3771498465	-0.266072
C	 2.0874377155	-2.3130281905	-2.2455866302	-0.112463
H	 0.889234058	 2.064726259	 0.0151906416	 0.130592
H	-0.7482023304	 1.958489677	-0.6193249657	 0.129695
H	-0.4743386649	 1.8538935152	 1.1305410854	 0.111009
H	 0.7148452421	-0.3521324311	 0.8299012584	 0.136595
H	-0.8947142104	-0.4571915084	 0.2081276904	 0.132947
H	 0.5387623467	-3.5415595307	-0.5094273088	 0.290538
H	-0.5885454489	-3.2535365959	-2.6840760809	 0.09784
H	-0.3652818266	-1.6459053645	-3.4556043716	 0.121777
H	 2.7359023232	-1.4759290446	-2.5223397612	 0.124607
H	 2.6633507068	-3.0806585423	-1.7121986204	 0.097429
13.4978	62.5691	85.0822	184.155	196.5608	242.2954	303.0376	307.062	333.1477	405.5819	416.0109	547.2762	569.1561	714.0494	794.7722	811.291	873.5712	924.1157	977.4524	996.3524	1012.7074	1025.8675	1050.2473	1092.244	1108.7444	1149.6681	1158.7809	1160.9368	1238.7233	1267.5444	1300.1752	1357.0571	1364.5471	1404.0327	1414.7058	1437.997	1491.227	1492.4212	1497.7389	1517.4692	1801.4001	3006.6956	3017.8517	3035.6353	3051.0795	3058.3296	3077.9576	3085.2068	3122.6965	3125.2744	3815.4064
CCC(=O)C1(O)COC1	CCC(=O)C1(O)COC1	
InChI=1S/C6H10O3/c1-2-5(7)6(8)3-9-4-6/h8H,2-4H2,1H3	InChI=1S/C6H10O3/c1-2-5(7)6(8)3-9-4-6/h8H,2-4H2,1H3
