20
gdb 53449	4.3202	0.80255	0.71305	1.4482	85.21	-0.211	0.0488	0.2598	1624.8936	0.171882	-403.116871	-403.107586	-403.106642	-403.152337	33.729	
C	 0.0026300194	 1.4691447266	 0.0367317794	-0.501522
C	 0.0156017431	 0.0135935262	 0.0124456342	 0.14822
C	 0.0256615465	-1.1898181439	-0.0281997506	-0.003788
C	 0.0477872604	-2.6481318312	-0.0098949646	-0.156285
C	 0.7278246859	-3.1668416911	 1.2784706885	-0.07859
O	 0.7149645484	-4.5805276514	 1.3258201363	-0.244494
C	-0.6055951227	-5.0995976808	 1.2842030411	-0.071674
C	-1.3198645933	-4.6545970237	 0.0070196487	-0.163164
N	-1.3111961173	-3.1997838313	-0.1750295988	-0.295905
H	 0.8455122457	 1.8822433925	-0.5281638937	 0.150563
H	-0.9178993289	 1.8635293934	-0.4074050158	 0.151396
H	 0.06891136	 1.8535871579	 1.060477143	 0.147578
H	 0.6406141816	-3.0193011085	-0.8587104876	 0.110188
H	 1.776415676	-2.8587055343	 1.3162924117	 0.113433
H	 0.206088237	-2.7415683853	 2.1529682226	 0.083963
H	-0.5122260602	-6.1891874228	 1.3348172234	 0.10494
H	-1.1732142252	-4.759527997	 2.1688497156	 0.078435
H	-0.8150247986	-5.1072467936	-0.8563120031	 0.111453
H	-2.3577676858	-5.0046691359	 0.0032688974	 0.100551
H	-1.9202403619	-2.7618072857	 0.5117030522	 0.214703
25.2929	82.3713	87.2024	201.5271	255.1406	292.3802	324.0569	372.6125	410.4189	452.793	510.5394	525.511	569.6965	784.5968	816.931	857.0034	892.3094	945.499	1001.8829	1028.5603	1052.3219	1052.9828	1063.2358	1126.6208	1140.4371	1161.6236	1182.6813	1227.0578	1278.7477	1304.8255	1326.2422	1358.1674	1372.7635	1390.3968	1413.7154	1415.0758	1470.4826	1476.7551	1477.6593	1478.8667	1488.2654	1494.0268	2373.0009	2948.2291	2962.6015	3002.7852	3024.6903	3028.0064	3076.1897	3079.1269	3088.6897	3090.1042	3091.0916	3493.6342
CC#CC1COCCN1	CC#C[C@H]1COCCN1	
InChI=1S/C7H11NO/c1-2-3-7-6-9-5-4-8-7/h7-8H,4-6H2,1H3	InChI=1S/C7H11NO/c1-2-3-7-6-9-5-4-8-7/h7-8H,4-6H2,1H3/t7-/m0/s1
