15
gdb 34504	4.40053	1.3504	1.19181	1.9661	80.82	-0.218	-0.03	0.188	1018.728	0.112667	-383.411811	-383.405026	-383.404082	-383.442843	27.656	
C	 0.1062868378	-1.1894537711	 0.0265872933	-0.425974
C	 0.0045872202	 0.0117808917	-0.0023016423	 0.202493
C	-0.0606822191	 1.4176432193	-0.0721595374	 0.201481
C	-1.1420976015	 2.2238170624	 0.036394301	-0.170649
C	-0.7253327757	 3.6361969337	-0.0032473671	-0.13346
C	 0.5434771885	 4.0054705913	 0.8733433237	 0.107618
O	 1.2229188101	 2.8627867492	 1.3231643277	-0.286204
C	 1.1619745116	 2.3186751969	-0.0622768431	-0.049199
C	 0.6770969215	 3.7063238694	-0.5721508226	-0.163626
H	 0.1805469881	-2.2477003185	 0.0654792769	 0.189696
H	-2.1555169273	 1.8920182847	 0.2211331922	 0.113879
H	-1.4232182177	 4.4438018015	-0.1854086798	 0.095597
H	 0.5876502966	 4.9027708959	 1.4781139282	 0.119101
H	 2.1206401031	 1.8997527778	-0.3594091065	 0.093265
H	 1.0021227237	 4.2756197958	-1.4331665342	 0.105981
121.0496	154.3654	366.3342	405.2447	495.1754	515.9422	553.9653	571.539	641.0493	647.9401	667.4348	767.1837	795.6132	807.0436	841.8522	858.7248	890.8484	917.5533	951.7163	1000.9582	1038.7952	1054.8192	1078.2979	1110.8651	1169.9484	1217.2893	1233.47	1259.018	1299.3956	1333.9325	1375.7917	1624.4738	2219.1268	3149.965	3189.8624	3195.4757	3206.5822	3222.4071	3503.949
C#CC1=CC2C3OC1C23	C#CC1=C[C@H]2[C@H]3O[C@@H]1[C@@H]23	
InChI=1S/C8H6O/c1-2-4-3-5-6-7(4)9-8(5)6/h1,3,5-8H	InChI=1S/C8H6O/c1-2-4-3-5-6-7(4)9-8(5)6/h1,3,5-8H/t5-,6-,7+,8-/m1/s1
