20
gdb 85314	2.30679	1.75246	1.15774	3.8489	78.81	-0.2338	0.0319	0.2656	1107.2168	0.17324	-403.192423	-403.18432	-403.183376	-403.225019	31.722	
C	-0.0595229998	 1.6108133712	-0.0353167117	-0.401357
C	 0.0487212721	 0.0877714648	-0.0135917714	 0.031311
N	 0.83858791	-0.4447538493	-1.1198475879	-0.314168
C	 1.6162894968	-1.5387740369	-0.834110485	 0.398121
O	 2.253998045	-2.1845443624	-1.6378387876	-0.389023
C	 1.5393237426	-1.7677220867	 0.678272142	-0.141152
C	 2.8104426854	-1.3106372344	 1.4397567165	-0.224045
C	 2.1457744863	 0.0805801052	 1.6473567034	-0.234554
C	 0.7747494798	-0.5218471716	 1.2023334678	-0.014723
H	 0.9249986501	 2.0848047802	-0.0027475645	 0.127779
H	-0.5703891754	 1.9538024964	-0.9413549352	 0.116532
H	-0.6417588886	 1.9593356557	 0.8237124831	 0.122415
H	-0.9727889298	-0.3241215167	-0.0513667143	 0.078268
H	 0.6772407236	-0.1862671374	-2.0813367583	 0.244851
H	 1.1625591131	-2.7728584487	 0.8791241522	 0.09191
H	 2.9389859573	-1.8559605236	 2.3778377339	 0.104353
H	 3.7489121543	-1.3468117092	 0.882290668	 0.118427
H	 2.1833509926	 0.4973099183	 2.6557921279	 0.101452
H	 2.5265106587	 0.8311132128	 0.9511633685	 0.111374
H	 0.0933068758	-0.6926184178	 2.0370055328	 0.072228
100.6794	122.5513	223.5978	234.5916	238.2863	326.4307	473.0912	481.2195	531.1587	588.8396	678.2931	689.4031	715.5593	770.7795	813.2241	868.3079	903.6129	943.9269	958.5147	973.3692	1022.4546	1035.9384	1070.8676	1093.0141	1139.8576	1172.558	1184.278	1225.7563	1238.2187	1258.4866	1261.2427	1275.1882	1303.2253	1322.3738	1360.979	1395.0892	1411.3967	1429.8005	1478.809	1492.9153	1497.4587	1502.2637	1822.5759	2960.6587	3037.8967	3064.8888	3071.3156	3086.5984	3097.7616	3101.7456	3111.9228	3122.1927	3130.1592	3628.2672
CC1NC(=O)C2CCC12	C[C@H]1NC(=O)[C@H]2CC[C@@H]12	
InChI=1S/C7H11NO/c1-4-5-2-3-6(5)7(9)8-4/h4-6H,2-3H2,1H3,(H,8,9)	InChI=1S/C7H11NO/c1-4-5-2-3-6(5)7(9)8-4/h4-6H,2-3H2,1H3,(H,8,9)/t4-,5+,6+/m1/s1
