18
gdb 56217	3.66385	0.89023	0.82665	5.124	68.08	-0.2541	0.0122	0.2663	1399.0376	0.147985	-476.217231	-476.208349	-476.207405	-476.253147	31.146	
O	-0.6600593734	 0.3130523209	-1.0481702921	-0.358152
C	-0.3890577378	 1.5503248609	-0.6049438544	 0.424833
O	 0.516609837	 2.2187987231	-1.0197930496	-0.326674
C	-1.3303736384	 2.0145158621	 0.5200173819	-0.318223
N	-2.5231082675	 1.1678158718	 0.6244052595	-0.326226
H	-1.4530927168	 0.0308513073	-0.543322886	 0.301213
H	-2.7126020125	 0.940811041	 1.5937455134	 0.239044
C	-3.7300219355	 1.7200137572	 0.0162372869	-0.013166
C	-3.8736280074	 1.5559844415	-1.5162928898	-0.078989
O	-5.0472020277	 0.7313632493	-1.3585377334	-0.265073
C	-4.9589882839	 0.7916266627	 0.0759746316	-0.091611
H	-0.7524102319	 1.9557000246	 1.44808412	 0.145373
H	-1.5604984908	 3.0743071911	 0.355747159	 0.13687
H	-3.9280844854	 2.7446576407	 0.3602129134	 0.084769
H	-4.0909950651	 2.4741630308	-2.073637141	 0.111558
H	-3.0515631271	 1.0206358604	-2.0037624923	 0.12169
H	-4.7550146904	-0.1910770583	 0.5217675356	 0.103513
H	-5.8621563454	 1.2160332327	 0.5298476973	 0.109251
32.695	53.596	58.1363	123.215	226.4986	307.4972	363.1673	440.0374	548.8576	549.6656	646.1392	747.378	760.6181	855.0806	867.6135	878.0454	893.041	969.5738	992.139	1041.1737	1050.0652	1100.9685	1125.3764	1162.2907	1169.4648	1190.9304	1218.3782	1254.3749	1295.5182	1317.4369	1332.414	1365.3849	1404.6738	1416.4367	1461.3448	1474.8127	1506.3042	1531.7358	1881.2623	2998.7831	3008.9756	3032.7221	3035.4352	3060.6172	3082.3406	3088.5832	3498.8273	3538.3346
[O-]C(=O)C[NH2+]C1COC1	OC(=O)CNC1COC1	
InChI=1S/C5H9NO3/c7-5(8)1-6-4-2-9-3-4/h4,6H,1-3H2,(H,7,8)	InChI=1S/C5H9NO3/c7-5(8)1-6-4-2-9-3-4/h4,6H,1-3H2,(H,7,8)
