19
gdb 75094	2.95253	1.26722	0.99165	3.7976	84.64	-0.225	-0.048	0.177	1230.4225	0.159511	-385.926332	-385.917828	-385.916884	-385.959513	32.446	
C	 0.5315832146	 1.5582513769	-0.1317658703	-0.479274
C	 0.0488680875	 0.1357509587	-0.0692492253	 0.338855
C	-0.1737611861	-0.6017971112	-1.1562289344	-0.169519
C	-0.6501920593	-2.0342357701	-1.1144301059	-0.366482
C	 0.3843261614	-2.9852076778	-0.5119740935	 0.37081
O	 0.795521525	-3.945147316	-1.1328293757	-0.322835
C	 0.8436450389	-2.7434310954	 0.8766815159	-0.129139
C	 0.5833742788	-1.6886428749	 1.6605834723	-0.042813
C	-0.1882086797	-0.4361233412	 1.3219195657	-0.371745
H	 1.4936259641	 1.6721862444	 0.3847447296	 0.127693
H	 0.6563892551	 1.8968544677	-1.1633906306	 0.125274
H	-0.1714025559	 2.2378901177	 0.3675534877	 0.125243
H	 0.0158607125	-0.1792592568	-2.1389713813	 0.093675
H	-1.5635485859	-2.1102820915	-0.5045824849	 0.119402
H	-0.887000144	-2.4074003543	-2.1118669808	 0.121658
H	 1.4511485076	-3.5567283964	 1.2650951371	 0.104204
H	 0.9753331618	-1.7217412489	 2.675794841	 0.107488
H	 0.039694661	 0.3240941805	 2.0747483636	 0.11079
H	-1.2647620673	-0.6455282416	 1.4426337398	 0.136714
74.5499	108.4544	202.5997	245.284	286.0095	337.8941	358.1885	364.2777	465.8482	511.1575	564.7101	636.8221	675.3814	754.7285	804.0649	870.0466	889.6898	910.5346	950.7223	976.7413	1014.9389	1028.5186	1067.4378	1089.2336	1142.3612	1189.3104	1214.9313	1225.5469	1281.4919	1300.9332	1344.6331	1375.9198	1413.5045	1416.7579	1460.2337	1472.5018	1480.0305	1489.9269	1691.4056	1739.3641	1771.285	2968.5345	2994.4739	3013.2394	3058.6758	3074.1337	3114.8878	3119.1962	3137.5587	3165.9593	3172.5902
CC1=CCC(=O)C=CC1	CC1=CCC(=O)C=CC1	
InChI=1S/C8H10O/c1-7-3-2-4-8(9)6-5-7/h2,4-5H,3,6H2,1H3	InChI=1S/C8H10O/c1-7-3-2-4-8(9)6-5-7/h2,4-5H,3,6H2,1H3
