17
gdb 87101	2.83423	1.17102	0.99545	3.152	76.49	-0.2733	-0.0929	0.1804	1230.3904	0.133918	-418.012538	-418.002967	-418.002023	-418.047228	33.887	
C	-0.1972331458	 1.5941422015	 0.4707644062	-0.408341
C	-0.17293762	 0.0956613497	 0.3068440273	-0.006099
N	 0.8926976394	-0.5016724708	-0.4832524252	-0.35055
C	 0.8763481246	-0.792187651	 0.9592178206	 0.17898
C	 2.0057698925	-0.2524282199	 1.8092108253	-0.488018
C	 0.3287610204	-2.1379540022	 1.3043501375	 0.266482
O	-0.2763017744	-2.8428082238	 0.5261885686	-0.305946
C	 0.5427748242	-2.6023820382	 2.6891524332	 0.238627
N	 0.6996809148	-2.9702724569	 3.7741021487	-0.31494
H	 0.8089821942	 2.0154793503	 0.4907276753	 0.136251
H	-0.7288323743	 2.0442073743	-0.3744778657	 0.136707
H	-0.7220641525	 1.8797237769	 1.38784648	 0.129852
H	-1.1535814452	-0.3703833436	 0.222185506	 0.11113
H	 0.5374417981	-1.3199397831	-0.9784710563	 0.251228
H	 2.3256410128	 0.7208504992	 1.4377741791	 0.141137
H	 1.7036166543	-0.1455034528	 2.8550334927	 0.143829
H	 2.8722592767	-0.9204186094	 1.7731667067	 0.139671
51.8966	125.9917	156.8001	157.7213	172.8617	243.8546	277.1402	299.9052	359.556	407.095	466.8434	487.6393	588.1985	675.9437	732.4668	802.4478	824.7779	931.4408	992.8556	1043.915	1047.4826	1097.3017	1105.2546	1131.2834	1168.5921	1256.1895	1287.4897	1356.4089	1406.892	1424.6369	1448.0289	1478.9068	1485.6871	1494.1507	1505.8808	1753.7878	2338.2932	3043.266	3050.0198	3104.3461	3112.418	3121.3799	3143.1911	3154.8531	3468.1208
CC1NC1(C)C(=O)C#N	C[C@H]1N[C@]1(C)C(=O)C#N	
InChI=1S/C6H8N2O/c1-4-6(2,8-4)5(9)3-7/h4,8H,1-2H3	InChI=1S/C6H8N2O/c1-4-6(2,8-4)5(9)3-7/h4,8H,1-2H3/t4-,6+/m1/s1
