21
gdb 71486	2.0813	1.99846	1.70891	0.2579	86.78	-0.2154	0.0099	0.2252	985.9572	0.182525	-349.914062	-349.906024	-349.90508	-349.945785	33.151	
C	 0.0143330604	 1.5020388099	-0.0383987406	-0.524426
C	 0.0301664297	-0.0018849442	-0.0367894864	 0.319143
C	 0.6091629593	-0.9589282236	-1.1097261025	-0.308297
C	 0.0412858943	-1.8942408151	-0.0192976464	-0.078565
C	 0.6229958664	-0.9456258305	 1.0861941948	-0.098047
C	-0.3613067303	-0.9412417237	 2.239830014	-0.118814
C	-1.5510438712	-0.9560473027	 1.6369993424	-0.165784
C	-1.2292712993	-0.968949102	 0.1451552509	 0.298515
C	-2.3799104113	-0.9862490654	-0.8384070905	-0.517786
H	 1.0298141206	 1.9081906752	-0.103787414	 0.117555
H	-0.5546729134	 1.8905135727	-0.8906148389	 0.11738
H	-0.4465909776	 1.8821413111	 0.8801811133	 0.122316
H	 0.1257060844	-0.9694442026	-2.0899186148	 0.087454
H	 1.6977080581	-0.9521490694	-1.2233123616	 0.08397
H	 0.0478429852	-2.9879081537	 0.0028430735	 0.06109
H	 1.6980677334	-0.9379366656	 1.273253148	 0.056816
H	-0.1207525726	-0.9239855021	 3.293602419	 0.099574
H	-2.5439512367	-0.9534663655	 2.0667580014	 0.094507
H	-3.0191886674	-0.1057330206	-0.7068650486	 0.117639
H	-2.0418023021	-0.9966831593	-1.8786096645	 0.117168
H	-3.0081417798	-1.8714083628	-0.6869122485	 0.118591
169.2853	184.2189	220.7016	223.9971	313.6227	325.5546	435.4689	448.8839	522.1369	616.6548	622.1588	696.8027	724.9497	755.1236	781.719	799.8173	881.5683	899.4762	903.4611	924.1499	944.3426	970.4846	1013.4298	1040.0807	1068.8194	1078.2009	1118.0116	1119.2086	1165.8759	1172.3572	1195.1958	1206.1879	1220.8877	1269.4754	1294.6262	1318.1342	1342.924	1400.7831	1412.4204	1486.1423	1487.5897	1491.4298	1493.4347	1525.119	1636.8229	3023.039	3027.2871	3046.2498	3072.3755	3084.5083	3089.6763	3093.5519	3098.7126	3105.2509	3105.8892	3210.6626	3240.2697
CC12CC3C1C=CC23C	C[C@@]12C[C@H]3[C@@H]1C=C[C@@]23C	
InChI=1S/C9H12/c1-8-4-3-6-7(8)5-9(6,8)2/h3-4,6-7H,5H2,1-2H3	InChI=1S/C9H12/c1-8-4-3-6-7(8)5-9(6,8)2/h3-4,6-7H,5H2,1-2H3/t6-,7-,8+,9+/m0/s1
