21
gdb 61823	3.07495	0.83353	0.72086	2.4181	79.95	-0.2529	-0.025	0.2279	1596.3986	0.178828	-424.222852	-424.212347	-424.211403	-424.259631	36.871	
C	-1.5245769708	 2.7534195458	 1.0647882735	-0.396439
C	-0.9316929095	 1.4787348336	 0.4452803912	-0.033241
C	 0.1973851787	 0.884924159	 1.316286127	-0.28131
C	 1.4050854159	 1.7921040587	 1.3851073411	 0.161219
O	 1.9289818194	 2.1765306228	 2.3978693577	-0.237838
C	-2.020946701	 0.4450636902	 0.2423371177	 0.068927
O	-2.9922857059	 0.7063176515	-0.7742916322	-0.270591
C	-2.1497824447	-0.444403435	-0.9260550582	 0.071814
C	-1.2181843612	-0.4724155529	-2.1110705522	-0.424622
H	-0.7633178383	 3.5290569139	 1.1934959542	 0.124271
H	-2.3175301483	 3.1506419804	 0.425854997	 0.138329
H	-1.9543095108	 2.5445398792	 2.0511627043	 0.121399
H	-0.5134258921	 1.7355159066	-0.5347493135	 0.082274
H	-0.1453669635	 0.6799427091	 2.3355125185	 0.121483
H	 0.532490503	-0.0640105617	 0.8725320678	 0.120104
H	 1.8016411481	 2.0942955032	 0.3859112791	 0.070775
H	-2.4594811874	 0.0888006755	 1.1795018174	 0.086527
H	-2.6766492337	-1.3861963658	-0.7554881571	 0.090003
H	-0.7130881622	 0.4838357457	-2.259249874	 0.129573
H	-0.4619691242	-1.2551375749	-1.9852453032	 0.122685
H	-1.7809203914	-0.6980886348	-3.0228404961	 0.134657
45.7702	61.7754	71.6736	131.5017	180.2341	196.6694	233.5973	248.0759	330.7521	381.1457	404.4866	448.6722	547.2899	556.324	768.1389	791.3633	823.4036	899.8349	936.5437	963.1097	985.3346	1003.0109	1029.93	1081.5065	1129.2462	1145.1437	1149.8195	1179.1158	1198.3803	1221.9597	1265.9074	1303.5366	1334.5903	1352.1933	1403.2561	1410.5147	1420.4558	1429.353	1461.3174	1468.6677	1490.2063	1494.5503	1500.865	1513.5815	1837.0635	2843.6701	3011.5047	3034.024	3038.5606	3042.91	3061.0869	3082.0989	3090.8585	3099.7069	3101.4146	3122.1075	3138.3983
CC(CC=O)C1OC1C	C[C@@H](CC=O)[C@H]1O[C@H]1C	
InChI=1S/C7H12O2/c1-5(3-4-8)7-6(2)9-7/h4-7H,3H2,1-2H3	InChI=1S/C7H12O2/c1-5(3-4-8)7-6(2)9-7/h4-7H,3H2,1-2H3/t5-,6-,7+/m0/s1
