22
gdb 114690	3.66483	1.0425	0.96496	2.5242	81.69	-0.2205	0.0742	0.2946	1322.5024	0.194712	-404.331109	-404.321914	-404.32097	-404.364845	35.291	
C	-0.3112759943	 1.4164106175	 0.1733450224	-0.473597
C	 0.0407730379	-0.0328145077	-0.0595691468	 0.359921
C	-0.7260045806	-1.1227034503	 0.6008434402	-0.296701
N	 0.6312229443	-0.7895425021	 1.0627631166	-0.125778
C	 1.678482508	-1.6725433312	 0.5210780104	-0.177051
C	 1.6558726841	-1.6132073362	-1.0358310118	 0.014888
C	 1.1994417021	-2.9093686077	-1.703770881	-0.094742
O	 2.1291605848	-3.9237809477	-1.3525578694	-0.41893
C	 0.7515448796	-0.3964111874	-1.3623519828	-0.32028
H	 0.5767495698	 2.0534257785	 0.0891620469	 0.115504
H	-1.0445247308	 1.7647634198	-0.5632835834	 0.113248
H	-0.7350614235	 1.5565798174	 1.1709702125	 0.125668
H	-1.5165550288	-0.8769219997	 1.3059104295	 0.107686
H	-0.8837177433	-2.0551594038	 0.0649731072	 0.102822
H	 2.638698468	-1.3091556766	 0.9001931492	 0.103789
H	 1.5525715309	-2.6945217071	 0.8908559036	 0.114909
H	 2.6717376542	-1.4354746475	-1.401911306	 0.08636
H	 0.1813500481	-3.1806483817	-1.3826863594	 0.086795
H	 1.1660915961	-2.7631736808	-2.7958335409	 0.086505
H	 1.828245192	-4.7552486591	-1.7301184963	 0.28735
H	 0.0430492112	-0.6106453501	-2.1710836887	 0.099757
H	 1.35463479	 0.4559127636	-1.6924235822	 0.101877
78.8526	125.9757	163.331	199.7621	253.9632	266.0261	301.9721	369.0218	384.1223	416.0678	465.714	601.7098	700.8445	728.6123	775.2476	819.0117	891.9396	900.421	923.8762	942.7403	987.2174	1025.6786	1041.6705	1062.3726	1078.0955	1104.5628	1113.0919	1126.7028	1170.8226	1204.1911	1221.011	1243.1998	1262.2916	1283.9488	1292.5207	1330.3046	1349.1607	1374.6326	1391.5424	1417.3668	1453.0135	1486.1485	1493.1998	1496.5459	1504.2475	1512.7574	1527.2194	2962.7348	2991.5759	3026.2455	3035.417	3045.7076	3058.7785	3074.4754	3086.4397	3093.2086	3100.1465	3117.2151	3181.7524	3832.1045
CC12CN1CC(CO)C2	C[C@]12CN1C[C@@H](CO)C2	
InChI=1S/C7H13NO/c1-7-2-6(4-9)3-8(7)5-7/h6,9H,2-5H2,1H3	InChI=1S/C7H13NO/c1-7-2-6(4-9)3-8(7)5-7/h6,9H,2-5H2,1H3/t6-,7-,8?/m0/s1
