15
gdb 130157	5.68912	1.01156	0.85962	3.6858	72.23	-0.1987	-0.0051	0.1936	1270.4249	0.11657	-446.346314	-446.338435	-446.337491	-446.3787	29.672	
N	 0.0432913273	 1.3705496802	 0.1484003392	-0.585799
C	 0.0216384972	-0.0088820381	 0.0559627233	 0.400315
N	-1.1030432374	-0.7093316521	 0.0335233784	-0.30669
N	-0.6258119932	-1.9968242031	 0.0136053725	-0.24211
C	 0.712161805	-1.9771451106	 0.0150674991	 0.506756
N	 1.5172217452	-3.1002461402	-0.0064057442	-0.397634
C	 1.0844078394	-4.399562661	-0.0336910737	 0.091566
N	-0.1546143657	-4.7095437876	-0.0490880803	-0.475401
N	 1.1779916637	-0.7389773286	 0.0410498615	-0.414003
H	 0.8667896382	 1.7781927204	-0.269885337	 0.253797
H	-0.8103711743	 1.8022317787	-0.1755067287	 0.255109
H	-1.207483219	-2.8216644673	-0.0063728086	 0.294778
H	 2.505351483	-2.9079812995	 0.0110600714	 0.275818
H	 1.9177972747	-5.1086273207	-0.0409363884	 0.109259
H	-0.2743809038	-5.7179485307	-0.0691274646	 0.234238
83.8776	188.9027	195.5254	278.1546	297.919	332.6126	383.7977	472.7533	501.1622	593.9821	610.3746	650.2093	730.6153	766.6551	794.0026	802.0347	837.627	1019.0001	1035.935	1067.9944	1082.3466	1146.2124	1173.2839	1234.6755	1304.259	1390.4735	1425.5833	1475.0371	1539.0688	1599.5432	1639.3227	1654.838	1715.7447	3079.0611	3538.1883	3568.7462	3624.0607	3661.462	3673.4675
NC1=NNC(NC=N)=N1	Nc1n[nH]c(NC=N)n1	
InChI=1S/C3H6N6/c4-1-6-3-7-2(5)8-9-3/h1H,(H5,4,5,6,7,8,9)	InChI=1S/C3H6N6/c4-1-6-3-7-2(5)8-9-3/h1H,(H5,4,5,6,7,8,9)
