16
gdb 127873	2.56834	1.56906	0.98086	1.9577	81.83	-0.2033	-0.0513	0.152	1153.1344	0.124617	-434.036033	-434.027732	-434.026788	-434.068948	31.068	
C	-0.147300425	 1.3559438	 0.0447060015	-0.331564
N	-0.1077122688	-0.0924303191	-0.0535088801	-0.336137
C	 0.5699230759	-0.6441377885	-0.9992410511	 0.265325
C	 1.349835933	 0.0051099131	-2.0443456837	-0.044618
N	 2.0523222238	-0.5679846148	-2.9671846239	-0.07141
O	 2.0761120342	-1.934556249	-2.9799601318	-0.231903
C	 1.3689667216	-2.6491574977	-2.0602073963	 0.003339
C	 0.6121054381	-2.0991596452	-1.0824042827	 0.191861
N	-0.1567418222	-2.7934713449	-0.177591066	-0.587942
H	 0.8511111438	 1.7999482536	 0.1736065311	 0.118326
H	-0.6047015222	 1.8240635211	-0.8394270097	 0.120896
H	-0.7478771908	 1.6379585673	 0.9130152166	 0.124588
H	 1.3867927487	 1.0878263315	-2.0994544446	 0.133443
H	 1.4947241175	-3.7110503378	-2.2289757496	 0.130124
H	 0.1360267342	-3.7253511929	 0.0692927455	 0.249461
H	-0.4418510316	-2.2063472866	 0.5969801148	 0.266212
89.4834	123.7873	209.7702	213.6182	286.7128	325.2577	392.2428	440.3876	497.2249	525.9403	554.3663	597.0678	611.7088	759.7096	769.1042	825.8796	885.7919	916.9639	930.0599	1059.0509	1085.5531	1099.3152	1162.2886	1197.582	1253.1366	1320.7531	1361.6558	1434.9472	1468.0957	1490.5196	1506.3783	1598.3047	1608.8399	1677.5731	1686.3817	2980.5034	3029.7346	3100.9543	3195.1159	3216.5121	3538.1355	3674.0786
CN=C1C=NOC=C1N	CN=c1cnocc1N	
InChI=1S/C5H7N3O/c1-7-5-2-8-9-3-4(5)6/h2-3H,6H2,1H3	InChI=1S/C5H7N3O/c1-7-5-2-8-9-3-4(5)6/h2-3H,6H2,1H3
