17
gdb 64824	2.4973	1.4011	1.07015	2.5288	69.21	-0.2484	-0.0886	0.1598	1149.5163	0.132255	-458.959862	-458.950502	-458.949558	-458.99465	33.116	
C	 0.3491536975	 1.2453872493	-0.9176365116	-0.46208
C	-0.1911293438	 0.1850198825	 0.0116201052	 0.406665
C	-1.5502899744	 0.5003845169	 0.6609688321	-0.410731
C	-1.4175469074	 0.4531776999	 2.1735928331	 0.33459
O	-1.3597296223	 1.4248105108	 2.8870212172	-0.278857
C	-1.3780350286	-0.9314360477	 2.8285049986	 0.092233
O	-1.7232089839	-1.9411493085	 2.2699170777	-0.230523
C	 0.2554936663	-1.2093740989	-0.1115764554	-0.221445
O	 0.7796698939	-0.3686901689	 0.9271764012	-0.271987
H	 0.4438463484	 2.2017097562	-0.3925635222	 0.138756
H	 1.3334341942	 0.9599055568	-1.296429994	 0.132196
H	-0.3259439485	 1.3927273185	-1.7676036969	 0.127755
H	-1.8806053382	 1.5038710527	 0.3869461653	 0.129764
H	-2.3049386084	-0.2248727565	 0.3435693341	 0.140759
H	-1.0546160225	-0.8988048608	 3.8888814966	 0.113074
H	-0.3915053235	-2.0136208183	 0.2314890588	 0.142295
H	 0.9716307911	-1.4740963739	-0.8883441699	 0.117539
57.7357	78.8379	129.6982	142.5409	204.994	225.138	350.0484	370.9586	403.7142	422.4686	468.9094	552.7677	597.9998	720.0522	800.2822	834.5286	920.2263	929.083	956.8727	1012.9236	1030.7239	1093.3502	1136.375	1144.2449	1186.2144	1231.3684	1285.5301	1311.1751	1364.231	1396.72	1418.3569	1468.9066	1482.6467	1494.3359	1523.8705	1812.0853	1814.7761	2939.8195	3036.0844	3067.9557	3090.6008	3101.9242	3125.9074	3130.0029	3186.3166
CC1(CC(=O)C=O)CO1	C[C@@]1(CC(=O)C=O)CO1	
InChI=1S/C6H8O3/c1-6(4-9-6)2-5(8)3-7/h3H,2,4H2,1H3	InChI=1S/C6H8O3/c1-6(4-9-6)2-5(8)3-7/h3H,2,4H2,1H3/t6-/m1/s1
