18
gdb 29811	2.52548	1.31347	0.87351	4.667	86.61	-0.2194	-0.0402	0.1791	1313.137	0.147246	-402.006743	-401.997504	-401.996559	-402.041343	32.646	
C	-0.0865386788	 1.4385478725	 0.0353855769	-0.344298
N	-0.0263348861	-0.0120166565	 0.0289866513	-0.060411
C	-0.0513321755	-0.783497002	-1.0923492989	-0.169405
C	 0.0227296256	-2.1253476184	-0.7418912375	 0.26821
C	 0.0231215797	-3.2894820371	-1.6875290945	-0.498802
C	 0.0958447461	-2.1554813432	 0.6645036285	-0.311597
C	 0.0650338676	-0.8461344633	 1.1337948696	 0.213445
C	 0.1148439455	-0.3697437217	 2.5002003038	 0.067168
O	 0.194854079	-1.0891692302	 3.4768403844	-0.291333
H	 0.8096858159	 1.8711103143	 0.4897935764	 0.150004
H	-0.1537806653	 1.7873308622	-0.9962994355	 0.143717
H	-0.9647324238	 1.79707237	 0.5804104642	 0.150001
H	-0.1203159198	-0.3272255179	-2.0690391851	 0.125519
H	 0.9359891139	-3.8877944771	-1.5912432528	 0.132072
H	-0.822009409	-3.9615041338	-1.5012134817	 0.132072
H	-0.0441217849	-2.955185309	-2.7268955471	 0.119348
H	 0.1647304992	-3.0240725029	 1.3018487247	 0.124013
H	 0.0744818808	 0.7371456141	 2.6181143033	 0.050276
62.8555	96.3752	139.318	175.7697	184.503	202.8276	268.1404	331.5469	382.5973	529.91	613.8438	627.7254	641.4795	662.4019	776.2549	856.1292	862.8778	998.566	1013.0693	1022.3002	1063.7066	1078.0051	1148.5202	1163.8078	1184.9395	1239.234	1386.5524	1395.4329	1408.5041	1426.9606	1460.6523	1476.1713	1483.2633	1484.3852	1501.6716	1513.11	1530.1232	1607.9108	1767.894	2863.909	3030.1546	3042.974	3081.8325	3104.3352	3106.5571	3139.6887	3240.5939	3254.1143
CN1C=C(C)C=C1C=O	Cn1cc(C)cc1C=O	
InChI=1S/C7H9NO/c1-6-3-7(5-9)8(2)4-6/h3-5H,1-2H3	InChI=1S/C7H9NO/c1-6-3-7(5-9)8(2)4-6/h3-5H,1-2H3
