15
gdb 7133	7.52163	0.83309	0.75701	2.0716	61.13	-0.2769	-0.0243	0.2525	1415.086	0.116683	-436.961849	-436.952873	-436.951928	-436.996664	29.8	
O	-0.2477919626	 1.4569754359	 0.0122307048	-0.420409
C	 0.0030165219	 0.061868802	 0.0022139517	-0.072108
C	-1.3553643956	-0.6260952354	 0.0117051882	-0.315534
C	-1.2410885817	-2.1264833537	 0.0021067834	 0.463065
O	-0.2204597106	-2.7604683567	-0.0118139207	-0.337794
O	-2.493815287	-2.6914332395	 0.0115406692	-0.207147
C	-2.5860948957	-4.0619118964	 0.0045983616	 0.115196
N	-3.7349347802	-4.5728552403	 0.0135419645	-0.416853
H	 0.5981103216	 1.9139359178	 0.0075405098	 0.291009
H	 0.5673826598	-0.2471515933	-0.8893205655	 0.105497
H	 0.5846246833	-0.2567574553	 0.8791649879	 0.105481
H	-1.9334748651	-0.3230819072	 0.892042374	 0.152845
H	-1.9505624353	-0.3132497017	-0.8536895916	 0.152866
H	-1.6131100076	-4.5529753795	-0.0079750694	 0.143482
H	-3.6595046752	-5.5891583167	 0.0071614023	 0.240406
52.9906	79.9666	110.5063	123.5576	143.7091	268.239	272.0846	343.5369	420.5227	540.3848	573.3065	751.275	805.3469	853.1272	951.8785	997.2023	1054.0246	1072.2753	1079.6275	1091.5265	1168.5246	1210.5809	1257.3868	1265.7565	1300.753	1357.8527	1391.6933	1454.0927	1471.6797	1525.5544	1747.2587	1835.4222	2994.7572	3024.5151	3054.1361	3090.3542	3140.9144	3506.7327	3834.9633
OCCC(=O)OC=N	OCCC(=O)O[CH][NH]	
InChI=1S/C4H7NO3/c5-3-8-4(7)1-2-6/h3,5-6H,1-2H2	InChI=1S/C4H7NO3/c5-3-8-4(7)1-2-6/h3,5-6H,1-2H2
