14
gdb 29920	3.47968	1.32763	0.96683	6.7688	71.93	-0.2281	-0.0023	0.2258	1134.6866	0.102119	-432.91933	-432.911031	-432.910087	-432.952847	29.214	
C	 0.0085910835	 1.460497132	 0.0283226481	-0.340523
N	-0.0218832281	 0.0092284676	 0.0038976181	-0.059865
C	-0.1978170622	-0.8212716872	-1.0870062632	-0.006463
N	-0.1742159989	-2.0837041392	-0.7679129301	-0.316874
C	 0.0272733002	-2.1082748847	 0.6041121061	 0.06964
C	 0.1238827857	-3.2670629314	 1.4062189011	 0.187774
N	 0.2153067903	-4.161079896	 2.1397922938	-0.366482
C	 0.1212267396	-0.8132464337	 1.0795950711	 0.31478
O	 0.3100856259	-0.2812034041	 2.2957888654	-0.424662
H	 0.9694192336	 1.8197759917	 0.4059392519	 0.159907
H	-0.1346450059	 1.8264578559	-0.9891122585	 0.152485
H	-0.7887727464	 1.8523062456	 0.665154933	 0.159913
H	-0.3363114075	-0.4172817521	-2.0787295711	 0.140943
H	 0.3913335202	-0.9979650043	 2.9380089843	 0.329428
58.4151	111.1986	127.0083	227.8206	261.4978	305.1836	369.2498	428.1759	526.5091	538.3529	601.7359	657.7373	731.1248	746.3198	765.8969	797.46	1029.6822	1070.7175	1154.4816	1192.0808	1254.0377	1306.1422	1318.614	1385.9249	1456.3195	1480.27	1509.5831	1511.3102	1582.841	1616.812	2330.6348	3053.455	3120.6813	3151.3371	3252.4822	3793.9189
CN1C=NC(C#N)=C1O	Cn1cnc(C#N)c1O	
InChI=1S/C5H5N3O/c1-8-3-7-4(2-6)5(8)9/h3,9H,1H3	InChI=1S/C5H5N3O/c1-8-3-7-4(2-6)5(8)9/h3,9H,1H3
