19
gdb 62610	2.91936	1.75092	1.51683	0.9931	78.55	-0.2154	0.0122	0.2276	949.1404	0.159536	-385.858757	-385.85122	-385.850276	-385.889976	31.536	
C	-0.0585412622	 1.5829954323	-0.0106383733	-0.464339
C	 0.0693565482	 0.0675829393	-0.0117834958	 0.419463
O	-1.2088182798	-0.5362626635	 0.1695111951	-0.47585
C	 0.7010333829	-0.6620994674	-1.1905950976	-0.093116
C	 2.245267734	-0.7615750053	-1.0993762774	-0.094217
C	 2.9890356885	 0.1564856482	-0.1834646312	-0.091782
C	 2.3947278448	 0.1624167752	 1.0143361224	-0.104483
C	 1.1339783508	-0.6639236917	 0.9348937229	-0.156737
C	 1.3669906776	-1.6470311832	-0.2616082168	-0.065101
H	 0.9053706487	 2.070363721	-0.1669643008	 0.12553
H	-0.7444557538	 1.8940623074	-0.8050413989	 0.120913
H	-0.465905002	 1.9407752834	 0.9444572309	 0.097513
H	-1.579712026	-0.1806822561	 0.9849308174	 0.271503
H	 0.196448647	-0.8411735579	-2.1327398541	 0.088748
H	 2.7158216927	-1.162696465	-1.9900119315	 0.084492
H	 3.8549438493	 0.733876496	-0.4827233245	 0.096431
H	 2.6634339711	 0.7773708604	 1.8644007869	 0.095653
H	 0.7101191621	-1.0368521751	 1.8670628663	 0.057989
H	 1.358838096	-2.7294713079	-0.25505408	 0.08739
183.9155	220.5282	232.2132	290.9991	371.2952	379.5295	415.5172	461.0043	599.6012	608.8681	714.5011	739.1331	768.6907	801.9836	809.4342	835.0208	876.5602	913.9446	930.2519	953.143	963.7658	977.3376	999.8801	1038.3642	1062.0495	1084.9411	1106.9117	1124.1226	1145.2654	1167.0493	1198.1596	1236.3177	1256.2703	1286.1197	1359.4615	1374.9086	1393.4413	1404.1148	1485.3854	1496.1059	1644.4518	3019.5365	3089.4303	3113.6751	3134.0667	3174.014	3180.1818	3194.9317	3196.8623	3221.6669	3793.4644
CC1(O)C2C3C=CC1C23	C[C@@]1(O)[C@H]2[C@H]3C=C[C@@H]1[C@@H]23	
InChI=1S/C8H10O/c1-8(9)5-3-2-4-6(5)7(4)8/h2-7,9H,1H3	InChI=1S/C8H10O/c1-8(9)5-3-2-4-6(5)7(4)8/h2-7,9H,1H3/t4-,5+,6-,7-,8-/m0/s1
