15
gdb 31206	2.30695	1.57075	0.94013	7.7809	76.27	-0.2084	0.0127	0.2211	1180.4081	0.113704	-416.848574	-416.840244	-416.8393	-416.882169	30.043	
C	-0.0163190865	 1.3963486188	 0.0093326471	-0.27022
O	-0.0100203714	-0.0220780729	 0.0045502765	-0.246658
C	-1.1913638829	-0.6533472974	 0.0121341899	 0.373713
C	-1.4001736933	-2.02528259	 0.0102807522	 0.032688
C	-2.8235918235	-2.2222942851	 0.020702359	-0.238096
C	-3.4149921009	-0.9945721492	 0.0283074611	-0.087266
N	-2.4071860672	-0.0363054644	 0.0229912447	-0.342129
C	-0.3922203201	-3.0134311382	 0.000089412	 0.198798
N	 0.4250789949	-3.8357464375	-0.0082124646	-0.367421
H	 1.0290672146	 1.7043440261	 0.0022904853	 0.161094
H	-0.5138093206	 1.7980837762	-0.8834522068	 0.129551
H	-0.4999957587	 1.7920806756	 0.912322997	 0.129578
H	-3.3218975883	-3.1779790747	 0.0221287007	 0.121766
H	-4.4503226739	-0.6992484201	 0.0370134055	 0.132813
H	-2.555737692	 0.9567732027	 0.0266583405	 0.271789
47.4102	125.4888	165.8124	211.9041	256.0375	295.7765	426.6905	433.2432	527.0527	535.5562	620.3565	630.7732	657.5611	715.7627	734.0476	837.3071	909.9433	1037.022	1086.5828	1115.1623	1173.9127	1194.1615	1212.417	1283.515	1311.0936	1386.2245	1469.658	1493.4627	1506.4494	1522.0856	1551.489	1633.5386	2338.996	3000.3279	3061.1259	3152.2603	3267.0354	3287.7565	3695.1655
COC1=C(C=CN1)C#N	COc1c(cc[nH]1)C#N	
InChI=1S/C6H6N2O/c1-9-6-5(4-7)2-3-8-6/h2-3,8H,1H3	InChI=1S/C6H6N2O/c1-9-6-5(4-7)2-3-8-6/h2-3,8H,1H3
