21
gdb 89998	3.98763	1.03921	0.96841	2.053	84.37	-0.2415	0.0152	0.2567	1308.8304	0.183274	-387.083364	-387.074801	-387.073857	-387.11731	32.558	
C	 0.0178257461	 1.6457538031	 0.0737895632	-0.396328
C	 0.0154638206	 0.1126761163	 0.0611908632	-0.021095
C	 0.7091958693	-0.5096621866	-1.1814092981	-0.31385
C	 1.4767085397	-1.7552552319	-0.6834357132	 0.26761
C	 0.9796011899	-3.1677840824	-1.1177073225	-0.115878
O	 2.2248126204	-3.4666277463	-1.7732169314	-0.273189
C	 2.7623550302	-2.172787611	-1.4436953895	-0.121828
C	 1.5687383094	-1.5154566601	 0.7987864069	-0.147304
C	 0.7788262961	-0.5227312469	 1.2031158405	-0.077364
H	 1.0418576705	 2.0343163605	 0.0461794564	 0.116049
H	-0.5190105848	 2.0465751126	-0.7924673369	 0.11515
H	-0.4656541587	 2.0369034739	 0.9753515803	 0.112847
H	-1.0328492435	-0.2195116658	 0.109726895	 0.081162
H	 0.0100540083	-0.7414772423	-1.9899852028	 0.099683
H	 1.4321618503	 0.2118385337	-1.5814898243	 0.100975
H	 0.7662405125	-3.8672836177	-0.2993282607	 0.097169
H	 0.132416528	-3.1681985527	-1.8172719208	 0.094815
H	 2.9821567771	-1.5765847593	-2.3399703842	 0.093777
H	 3.6725012371	-2.2462355952	-0.8338383229	 0.096344
H	 2.1855817719	-2.1357606931	 1.4414797972	 0.098132
H	 0.6542975194	-0.2008275586	 2.2322464648	 0.093123
47.2789	64.6888	184.5612	241.4226	274.4229	294.0512	381.788	405.9782	438.3239	560.4701	667.7121	786.7766	797.7989	848.822	854.5713	873.507	909.3616	941.228	972.2127	980.4005	991.1732	1006.868	1046.4853	1064.9428	1098.1097	1130.8099	1152.7017	1156.276	1162.1208	1181.6859	1236.2765	1267.585	1299.0675	1308.1878	1316.224	1343.7613	1378.4158	1389.8333	1410.6245	1483.94	1497.8595	1499.2901	1510.8517	1536.4629	1682.3687	2982.1804	2991.7452	3004.0839	3026.4566	3031.0879	3041.1866	3044.511	3086.8731	3097.7102	3098.9153	3170.1733	3195.6878
CC1CC2(COC2)C=C1	C[C@H]1CC2(COC2)C=C1	
InChI=1S/C8H12O/c1-7-2-3-8(4-7)5-9-6-8/h2-3,7H,4-6H2,1H3	InChI=1S/C8H12O/c1-7-2-3-8(4-7)5-9-6-8/h2-3,7H,4-6H2,1H3/t7-/m1/s1
