16
gdb 46721	3.11974	1.7213	1.27715	0.9564	68.63	-0.2374	-0.0324	0.2049	956.02	0.126188	-437.826935	-437.820144	-437.8192	-437.859608	26.249	
O	-0.0752600791	 0.0133068978	-0.4252401148	-0.311276
C	-0.0415354427	 1.169430183	-0.07348563	 0.335772
C	-1.311683731	 1.9096173307	 0.3304091088	-0.172327
O	-1.1394214083	 3.2848084146	 0.6457783041	-0.281448
C	 0.1606563876	 3.7759045346	 0.6460408688	 0.19034
C	 1.1485649017	 3.4578706631	-0.514843704	-0.103116
N	 2.2423023116	 3.8778800648	 0.4428324886	-0.319076
C	 1.3449081816	 2.9569238378	 1.2410568611	-0.107353
C	 1.2136724858	 1.9842382051	 0.0183012901	-0.124044
H	-2.0372635487	 1.8205866948	-0.4869094726	 0.143345
H	-1.73802855	 1.3897707387	 1.199267861	 0.140703
H	 0.1248444095	 4.821586013	 0.947078097	 0.113171
H	 1.1226395442	 3.7856087562	-1.5546329105	 0.096668
H	 3.0972669175	 3.3680071599	 0.2020812012	 0.21709
H	 1.552265054	 2.6937722085	 2.2789620609	 0.096073
H	 2.1029251764	 1.4072457676	-0.2479523198	 0.085475
18.5602	143.689	376.1052	377.9015	450.556	498.2945	557.2188	566.1364	662.0713	755.2228	806.2144	846.9387	892.9172	904.0553	933.2865	993.4873	997.4518	1012.6498	1025.1474	1115.8863	1117.1365	1135.5538	1163.3275	1194.9231	1196.6742	1239.0711	1247.161	1262.9253	1287.0752	1292.2833	1327.6917	1364.1284	1403.5009	1473.0807	1816.6352	3018.145	3060.4643	3088.7625	3109.5404	3113.7848	3142.8804	3401.7228
O=C1COC2C3NC2C13	O=C1CO[C@@H]2[C@H]3N[C@@H]2[C@@H]13	
InChI=1S/C6H7NO2/c8-2-1-9-6-4-3(2)5(6)7-4/h3-7H,1H2	InChI=1S/C6H7NO2/c8-2-1-9-6-4-3(2)5(6)7-4/h3-7H,1H2/t3-,4-,5+,6+
