19
gdb 95128	2.45358	1.52155	1.12973	3.9966	76.03	-0.2452	-0.0191	0.2261	1118.0991	0.159434	-423.039477	-423.031016	-423.030072	-423.072471	32.278	
O	 0.1247514609	 1.4955356009	 0.1595304298	-0.439829
C	 0.0516395939	 0.0814096947	 0.0395915362	 0.034815
C	 0.6982492008	-0.6817206558	 1.2220674883	-0.276659
C	-0.1121986014	-1.9856692897	 1.3719944664	-0.227839
C	-1.5116869995	-1.6325111162	 0.885635964	-0.060154
C	-2.1366539181	-0.3661586526	 1.3557260526	-0.32141
C	-1.3982190087	-0.3603911613	 0.0261792798	 0.283114
C	-2.1952500758	-0.2488653263	-1.2143568167	 0.058231
O	-3.365824072	-0.5385154451	-1.3080464226	-0.278623
H	 1.0508014089	 1.7534356173	 0.1078540362	 0.283657
H	 0.5147592467	-0.2364944525	-0.91011407	 0.06728
H	 1.7657767013	-0.8638619203	 1.0696710049	 0.098281
H	 0.6024245626	-0.055599124	 2.114698593	 0.117405
H	 0.3020215275	-2.7745098171	 0.7341954466	 0.108002
H	-0.103510784	-2.3663998915	 2.3990644736	 0.109208
H	-2.1713300613	-2.4205788492	 0.5398191354	 0.107143
H	-3.214121867	-0.2910040831	 1.2650342828	 0.14126
H	-1.6961412618	 0.1908211276	 2.1746388175	 0.125358
H	-1.6252516829	 0.1161741243	-2.0987888581	 0.07076
94.4826	134.857	187.7973	220.02	252.2594	282.122	340.9145	395.6316	488.2731	544.8791	617.0208	645.3011	736.6371	807.4448	831.6432	875.5328	920.1972	949.13	983.1825	983.9565	1049.7029	1057.2134	1075.7069	1091.6007	1100.616	1111.7146	1189.2688	1212.8421	1233.8204	1254.4237	1295.4107	1317.5318	1337.9755	1354.2447	1393.8399	1429.0294	1446.3299	1471.5662	1492.18	1509.6125	1802.5616	2872.8469	2952.8179	3038.4561	3055.6171	3073.9611	3100.6657	3142.8925	3177.6713	3235.6193	3814.4847
OC1CCC2CC12C=O	O[C@H]1CC[C@H]2C[C@@]12C=O	
InChI=1S/C7H10O2/c8-4-7-3-5(7)1-2-6(7)9/h4-6,9H,1-3H2	InChI=1S/C7H10O2/c8-4-7-3-5(7)1-2-6(7)9/h4-6,9H,1-3H2/t5-,6-,7-/m0/s1
