19
gdb 128487	1.95368	1.8033	0.99786	2.2155	79.39	-0.2173	0.0288	0.2462	1216.1833	0.158412	-419.227791	-419.217831	-419.216887	-419.263119	34.789	
C	 0.1129391534	 1.4309266436	 0.1384692476	-0.250264
O	-0.1083599525	 0.0329518627	-0.0026553582	-0.277485
C	 0.5452576776	-0.5453746296	-1.0566444274	 0.10408
C	-0.0440483351	-0.9599913637	-2.2371619146	 0.289616
C	-1.4561065752	-0.8638821228	-2.7041496604	-0.510861
N	 0.9645406085	-1.5371353353	-2.9410071476	-0.269693
N	 2.1536743962	-1.5262304966	-2.2993663382	-0.291459
C	 1.9120406271	-0.9194188907	-1.1397026813	 0.268887
C	 2.9899394918	-0.7234749818	-0.1226651677	-0.497544
H	 1.1719337582	 1.6584177001	 0.3150302665	 0.118527
H	-0.219267158	 1.9793811064	-0.7529500009	 0.111156
H	-0.4706948283	 1.7565427957	 1.0027513749	 0.127256
H	-1.5569795003	-0.2295621044	-3.5926655075	 0.132513
H	-1.8750895042	-1.8466070789	-2.9494754741	 0.133672
H	-2.0632895113	-0.4300686014	-1.9065055154	 0.15024
H	 0.9068455335	-1.975676227	-3.8439634255	 0.267136
H	 3.3383881227	 0.3158813465	-0.0887223603	 0.12434
H	 2.6319042101	-0.9785790228	 0.8799058849	 0.131418
H	 3.8473270858	-1.3560227601	-0.3627779949	 0.138464
54.6232	108.6897	115.6817	146.2746	160.435	192.4676	243.5499	257.1331	326.5912	435.3454	461.3879	514.3254	574.6094	676.8899	694.0441	754.1508	777.8311	986.6441	1009.3724	1047.2275	1056.2608	1063.312	1066.0551	1176.8948	1184.3445	1208.3468	1260.7416	1312.3314	1400.8518	1414.0587	1432.0843	1457.9736	1478.795	1484.1127	1486.7898	1490.1304	1495.6365	1505.3288	1516.8635	1535.389	1637.3909	3002.6287	3026.4536	3029.6671	3061.8468	3075.9726	3084.6388	3121.2793	3128.1248	3130.1598	3673.1976
COC1=C(C)NN=C1C	COc1c(C)[nH]nc1C	
InChI=1S/C6H10N2O/c1-4-6(9-3)5(2)8-7-4/h1-3H3,(H,7,8)	InChI=1S/C6H10N2O/c1-4-6(9-3)5(2)8-7-4/h1-3H3,(H,7,8)
