19
gdb 61444	3.22067	0.92106	0.82622	1.4271	71.92	-0.2493	-0.0187	0.2306	1448.5037	0.156263	-460.159223	-460.149407	-460.148463	-460.195052	34.99	
C	 0.1820176272	 1.4130959484	-0.112355065	-0.469963
C	 0.3186018634	-0.0949239082	-0.2086693664	 0.380967
O	 1.3015718737	-0.6741842872	 0.2008190584	-0.298989
C	-0.8488766857	-0.840046197	-0.8380342806	-0.336081
C	-0.754811704	-2.3731973824	-0.7495013283	 0.094292
O	-2.0089362837	-2.9619781239	-1.0418967428	-0.44406
C	 0.3154088696	-2.9237585443	-1.6805991428	 0.059856
C	 0.2349433023	-4.2869962729	-2.2080610835	-0.185158
O	-0.154696381	-3.1637634619	-3.0191056375	-0.258546
H	 1.1075054078	 1.8466898849	 0.2681864035	 0.144497
H	-0.0593505857	 1.8437940909	-1.0902129245	 0.139435
H	-0.644979973	 1.6704703622	 0.5595312019	 0.144272
H	-1.7799678942	-0.5181142024	-0.3563118953	 0.129938
H	-0.9372339846	-0.5247766031	-1.8877531243	 0.13055
H	-0.5018800498	-2.6504928761	 0.2793047078	 0.109631
H	-2.0621624755	-2.9879779243	-2.0083498221	 0.288848
H	 1.2871029156	-2.4409311752	-1.6155255396	 0.119748
H	 1.1426484248	-4.7919250391	-2.5319418548	 0.121666
H	-0.5834156972	-4.9292479083	-1.8932518942	 0.129098
37.7261	83.2054	107.5204	122.4685	166.1814	242.5096	276.3303	325.0656	370.7907	471.7313	497.4665	528.0736	599.8466	652.8929	749.2756	824.5896	850.7843	890.7858	921.5783	955.1943	1002.4861	1040.7297	1086.3799	1104.4602	1122.4881	1162.0485	1176.1104	1179.7899	1208.5883	1256.9079	1287.4241	1339.7132	1370.7304	1386.2044	1413.4539	1444.1417	1447.9056	1463.7677	1477.6466	1516.7461	1799.9685	3019.4088	3037.8397	3060.3553	3070.8901	3098.6998	3101.9474	3152.9189	3156.7794	3197.0502	3734.0112
CC(=O)CC(O)C1CO1	CC(=O)C[C@@H](O)[C@H]1CO1	
InChI=1S/C6H10O3/c1-4(7)2-5(8)6-3-9-6/h5-6,8H,2-3H2,1H3	InChI=1S/C6H10O3/c1-4(7)2-5(8)6-3-9-6/h5-6,8H,2-3H2,1H3/t5-,6-/m1/s1
