22
gdb 61582	3.18265	0.87002	0.78393	2.7057	82.85	-0.2291	0.0804	0.3095	1548.4361	0.193068	-404.289812	-404.280185	-404.279241	-404.325185	35.552	
C	-0.019014819	 1.5243868522	-0.27616561	-0.419629
C	 0.0832858475	 0.0008099446	-0.0989115877	 0.060089
C	 1.1234509001	-0.5834139823	-1.0702108712	-0.225384
C	 1.1315172845	-2.0932914589	-1.1020082271	 0.102892
C	 0.3899196653	-2.8512062826	-2.1185981177	-0.17728
O	 1.8074672432	-2.7007647962	-2.2080888613	-0.244127
N	 0.3927954353	-0.5022083236	 1.2496564744	-0.069792
C	 1.1796964431	 0.2852701312	 2.1894361854	-0.222671
C	-0.2727253363	 0.0369940515	 2.4217947131	-0.22783
H	 0.9562787151	 2.0116251709	-0.1756317593	 0.121742
H	-0.3946998456	 1.7503842194	-1.2786957064	 0.121099
H	-0.7084993184	 1.983025747	 0.4387499255	 0.116915
H	-0.895304988	-0.433587337	-0.3446019276	 0.084472
H	 0.9364856144	-0.2087450637	-2.0826909842	 0.099289
H	 2.1193358851	-0.2238796223	-0.7782452081	 0.105498
H	 1.3149190764	-2.576305931	-0.1442838059	 0.1063
H	 0.0375938931	-3.8584813034	-1.8995876695	 0.111644
H	-0.184357815	-2.3165318975	-2.875454966	 0.104906
H	 1.9327916707	-0.2641256721	 2.7480774864	 0.116079
H	 1.4666767959	 1.3001232807	 1.924679113	 0.110953
H	-0.9413382788	 0.8882840198	 2.3092652024	 0.109061
H	-0.6012973586	-0.6971284565	 3.1532079818	 0.115774
56.6369	64.708	97.6988	144.4179	236.7693	272.3631	294.6655	329.0924	368.9034	421.334	510.9441	527.0886	697.7532	819.2176	825.9306	859.0449	879.5965	893.5243	919.3365	959.1168	975.8529	1027.5498	1035.1465	1074.0997	1110.3824	1118.9357	1121.4826	1146.3515	1150.7473	1154.5785	1174.4986	1180.5989	1188.5902	1248.5217	1282.7177	1306.0188	1331.2504	1375.7131	1377.089	1405.9584	1441.7346	1479.7262	1486.9706	1495.9451	1511.4459	1527.5158	1530.2515	3011.4342	3025.6107	3039.5839	3073.0934	3075.7822	3096.6392	3105.2676	3108.305	3111.5205	3137.0643	3161.6926	3173.3697	3190.0948
CC(CC1CO1)N1CC1	C[C@@H](C[C@H]1CO1)N1CC1	
InChI=1S/C7H13NO/c1-6(8-2-3-8)4-7-5-9-7/h6-7H,2-5H2,1H3	InChI=1S/C7H13NO/c1-6(8-2-3-8)4-7-5-9-7/h6-7H,2-5H2,1H3/t6-,7-/m0/s1
