16
gdb 47617	2.91898	1.44295	0.99641	3.5447	83.	-0.2385	-0.0469	0.1916	1147.9961	0.124778	-400.738286	-400.730294	-400.72935	-400.770853	30.473	
N	-0.0418005972	 1.2689374767	 0.2858043642	-0.514062
C	-0.0069042138	 0.0338480192	 0.0015159428	 0.342287
O	 1.174433135	-0.6103700774	-0.233471364	-0.255651
C	 1.132848327	-1.8560563859	-0.9387315618	-0.089286
C	 0.1465163742	-2.8251193398	-0.3017187864	-0.268542
C	-1.166956858	-2.131786649	-0.1075115624	-0.16533
C	-1.2450256714	-0.7907444627	-0.0052873918	 0.047795
C	-2.4915184374	-0.1226964207	 0.1535605955	 0.268975
C	-3.5652652388	 0.4059417445	 0.2762922671	-0.388341
H	 0.9042490339	 1.6550669553	 0.2583463293	 0.222042
H	 0.8526957043	-1.6697617891	-1.9840995026	 0.116035
H	 2.1566492701	-2.2351140989	-0.9170946279	 0.121853
H	 0.0289506254	-3.7061712183	-0.9429839512	 0.120887
H	 0.5318428502	-3.1908180391	 0.6609454095	 0.134065
H	-2.0727571782	-2.7254260508	-0.0429936671	 0.113872
H	-4.5007519752	 0.8953705861	 0.3888169668	 0.193401
85.8467	151.9407	162.288	263.2824	325.6357	376.5635	438.1303	485.7686	524.2055	563.9264	608.9681	621.924	648.1479	732.3647	777.008	879.8766	903.1622	912.0068	933.7685	971.9987	1067.06	1079.5244	1132.1459	1171.9192	1230.7656	1265.9108	1306.1259	1365.2756	1384.6547	1434.9057	1465.0848	1507.633	1665.0672	1725.7568	2234.3044	3009.1263	3022.0756	3065.2072	3109.9287	3189.068	3468.3674	3504.3239
N=C1OCCC=C1C#C	[NH]C1=C([CH]CCO1)C#C	
InChI=1S/C7H7NO/c1-2-6-4-3-5-9-7(6)8/h1,4,8H,3,5H2	InChI=1S/C7H7NO/c1-2-6-4-3-5-9-7(6)8/h1,4,8H,3,5H2
