15
gdb 61693	2.21816	1.26529	1.03215	2.642	74.71	-0.2844	-0.0229	0.2615	1206.1775	0.10874	-416.765142	-416.755473	-416.754529	-416.799848	34.071	
C	-0.0517980329	 1.5945041011	 0.0138720212	-0.401371
C	 0.0160208225	 0.0529695888	 0.0363763408	 0.022251
O	 0.6751406399	-0.4022525375	 1.2280294168	-0.216657
C	 2.0222478692	-0.2299197068	 1.3252079335	 0.128023
N	 2.570267968	-0.3736944346	 2.4485150909	-0.432146
C	-1.3297915568	-0.5244346544	 0.0600399699	 0.328033
C	-2.4475238402	-0.9584617197	 0.0639032255	-0.403246
C	 0.7187582331	-0.4335342055	-1.1812056938	 0.272611
N	 1.2754504367	-0.7810036502	-2.1318116851	-0.32975
H	 0.9559687721	 2.0154195856	-0.0169181945	 0.140582
H	-0.6077725332	 1.9361902868	-0.8613318592	 0.15467
H	-0.5580193017	 1.928251544	 0.9213736626	 0.158883
H	 2.5151424696	-0.0069658527	 0.3725624545	 0.120765
H	 3.5787613933	-0.2620216744	 2.3632419627	 0.23905
H	-3.4325732896	-1.3576926704	 0.0717937441	 0.218302
76.0829	120.0967	126.5478	135.5646	183.4347	223.7924	245.7535	313.7309	390.9328	474.2495	478.0465	519.8608	573.3294	628.7381	660.2711	695.0528	750.7724	824.4093	925.7451	946.2494	1044.3467	1053.3509	1101.2008	1154.9518	1217.4183	1275.0244	1403.9161	1426.0666	1481.4041	1483.3706	1747.1087	2255.6654	2356.4762	3058.4488	3065.5405	3143.3671	3155.0625	3498.3398	3517.6986
CC(OC=N)(C#C)C#N	C[C@@](O[CH][NH])(C#C)C#N	
InChI=1S/C6H6N2O/c1-3-6(2,4-7)9-5-8/h1,5,8H,2H3	InChI=1S/C6H6N2O/c1-3-6(2,4-7)9-5-8/h1,5,8H,2H3/t6-/m1/s1
