21
gdb 105758	2.36427	1.40582	1.15942	0.8713	84.2	-0.2541	0.043	0.2971	1187.509	0.181442	-387.061999	-387.052312	-387.051367	-387.096932	35.951	
C	 0.4131619572	 1.0827926312	 0.2382548737	-0.249581
O	 0.4002239147	-0.2735439579	-0.1590745424	-0.282688
C	 0.6210720832	-0.5377799233	-1.5489145452	 0.211898
C	 2.0847530161	-0.2407358394	-1.9556412602	-0.244788
C	 2.8916700213	-1.345183244	-1.2472067235	-0.214756
C	 1.9356996244	-2.5707349901	-1.1630586205	-0.21106
C	 0.5606593456	-2.0754065841	-1.6714264407	-0.234581
C	-0.3669329759	 0.1464606991	-2.388938256	 0.276375
C	-1.1744175153	 0.7053563123	-3.0831386659	-0.436851
H	 1.4045314267	 1.5452048692	 0.1307790133	 0.104853
H	-0.3146887461	 1.6788648346	-0.3270327186	 0.120258
H	 0.1398045975	 1.0953002847	 1.2961698059	 0.125941
H	 2.1607446329	-0.3306995738	-3.0443027801	 0.10886
H	 2.398988243	 0.7726175648	-1.6953189573	 0.102473
H	 3.8184677793	-1.571653681	-1.7807276054	 0.095107
H	 3.1716861431	-1.0165885773	-0.2431178396	 0.108849
H	 2.2946060056	-3.408322943	-1.7671754959	 0.097315
H	 1.8615011535	-2.9296648994	-0.1341632987	 0.110479
H	-0.2847697709	-2.4658196851	-1.101795115	 0.113697
H	 0.4096110859	-2.3361258607	-2.7225799197	 0.107062
H	-1.8908241615	 1.1931821933	-3.6970316083	 0.191138
46.8239	90.2462	133.3666	149.5312	165.0681	237.176	287.9563	373.859	417.8044	496.1229	533.769	589.562	618.797	657.1167	666.7204	709.71	790.0394	817.6032	883.9588	904.7309	959.813	991.5957	1030.3672	1041.4804	1096.939	1111.0267	1140.1737	1182.3637	1210.8066	1220.8183	1235.3022	1243.6443	1263.8413	1306.9062	1322.2947	1341.0014	1357.341	1469.3381	1475.7219	1482.7354	1489.0321	1498.6022	1510.759	1514.5913	2227.7752	2996.4362	3053.3827	3056.1849	3058.3699	3063.7334	3072.5441	3090.0241	3104.0624	3113.1678	3115.4763	3126.5681	3499.809
COC1(CCCC1)C#C	COC1(CCCC1)C#C	
InChI=1S/C8H12O/c1-3-8(9-2)6-4-5-7-8/h1H,4-7H2,2H3	InChI=1S/C8H12O/c1-3-8(9-2)6-4-5-7-8/h1H,4-7H2,2H3
