16
gdb 78132	2.44857	1.49385	1.23673	5.982	71.45	-0.2579	-0.0344	0.2235	1061.5734	0.12314	-437.89911	-437.890815	-437.889871	-437.932439	30.013	
C	 0.1271044881	 1.5782126015	-0.2052139997	-0.430293
C	 0.1122499543	 0.0673703813	-0.146920491	-0.02146
C	 0.6940107998	-0.8470172411	-1.1811246525	-0.042147
C	 1.3246014473	-0.8055768417	 0.2073536755	-0.247003
C	 2.5765057558	-0.2674651765	-0.4616899473	 0.43646
O	 3.6792001252	 0.0326237736	-0.1302503416	-0.310052
N	 1.9316986229	-0.2923101951	-1.7438053658	-0.127194
C	 2.1341295773	 0.3744101234	-2.9368424075	 0.147183
O	 3.1342904294	 0.9705328024	-3.2397631322	-0.276286
H	 1.04017478	 1.9659588866	-0.6628288731	 0.151034
H	-0.7260697027	 1.9471303038	-0.7839724634	 0.12894
H	 0.0564660461	 1.9977994036	 0.8027273213	 0.136955
H	-0.7910067374	-0.3482459458	 0.298583686	 0.111564
H	 0.1936256286	-1.6756819789	-1.6638072615	 0.13031
H	 1.3043761652	-1.543592762	 0.9959393538	 0.128903
H	 1.2516450903	 0.269077655	-3.6017323409	 0.083085
67.1695	129.5676	165.0662	190.726	213.2408	279.6033	370.4253	449.9073	498.6384	608.3703	684.1124	738.8115	795.6329	810.969	850.2896	885.557	947.39	999.1349	1031.665	1042.0371	1070.4795	1084.4005	1123.0298	1153.4457	1196.8665	1265.2344	1286.5154	1360.0253	1412.8551	1426.3752	1431.6179	1491.196	1499.4816	1809.4691	1923.1142	2918.12	3043.1176	3107.2387	3117.3173	3133.2498	3209.5875	3231.3745
CC1C2C1C(=O)N2C=O	C[C@H]1[C@@H]2[C@H]1C(=O)N2C=O	
InChI=1S/C6H7NO2/c1-3-4-5(3)7(2-8)6(4)9/h2-5H,1H3	InChI=1S/C6H7NO2/c1-3-4-5(3)7(2-8)6(4)9/h2-5H,1H3/t3-,4+,5-/m1/s1
