18
gdb 79115	3.96537	1.32503	1.13181	2.5318	76.48	-0.2231	-0.0174	0.2057	1097.2049	0.148713	-401.906297	-401.899075	-401.898131	-401.937788	28.918	
C	-0.2097379639	 1.5818569589	-0.0221967496	-0.439207
C	 0.0111853914	 0.0812291629	 0.0260578795	 0.042012
C	 1.2542781926	-0.5788431544	-0.6129912846	-0.045611
C	 2.177670548	-0.0700012646	 0.551041082	-0.155921
C	 0.8243904031	-0.5850451526	 1.1592356859	-0.045582
N	 0.9800469195	-1.8137579476	 0.2544193925	-0.133948
C	 2.2918741943	-2.4118219439	 0.570499796	-0.293353
C	 3.1750555371	-1.1753203255	 0.7891763302	 0.402491
O	 4.3421053174	-1.107289176	 1.0723612132	-0.325185
H	 0.6942831478	 2.1554393948	 0.1978816887	 0.12239
H	-0.5633930086	 1.8837817992	-1.0137188444	 0.125579
H	-0.9771468582	 1.878017001	 0.7008045126	 0.125583
H	-0.9058575151	-0.4720205688	-0.1983162953	 0.088224
H	 1.5202881015	-0.677820726	-1.6680931192	 0.089295
H	 2.5237770087	 0.9570133191	 0.6385891327	 0.09083
H	 0.5775711634	-0.6914127012	 2.2182757117	 0.08929
H	 2.2333280905	-3.0375465445	 1.4667912049	 0.131551
H	 2.6515286005	-3.0313749207	-0.257210207	 0.131561
141.6724	196.6041	214.8076	225.9821	387.6835	444.5335	515.7802	602.2937	611.8514	677.7393	707.7569	796.1558	800.0353	854.0052	872.9647	877.7287	936.1156	1008.8593	1037.6993	1044.8418	1055.6301	1091.6323	1094.9317	1131.4274	1148.9217	1162.2945	1171.7394	1219.6838	1230.8819	1234.8153	1246.1024	1288.0194	1297.3052	1403.2321	1420.3792	1461.8152	1495.5356	1501.839	1861.9649	3038.7762	3053.6933	3066.3456	3086.0866	3091.3827	3097.4105	3100.2029	3118.7365	3151.5349
CC1C2C3C1N2CC3=O	C[C@H]1[C@H]2[C@H]3[C@@H]1N2CC3=O	
InChI=1S/C7H9NO/c1-3-6-5-4(9)2-8(6)7(3)5/h3,5-7H,2H2,1H3	InChI=1S/C7H9NO/c1-3-6-5-4(9)2-8(6)7(3)5/h3,5-7H,2H2,1H3/t3-,5-,6-,7+
