14
gdb 131233	4.27943	0.99507	0.85036	2.8929	69.93	-0.2303	-0.0064	0.2239	1284.2949	0.100716	-432.822316	-432.814277	-432.813333	-432.855815	29.351	
O	 0.5270447882	 1.2670077813	-0.1472718657	-0.425259
C	 0.1816772962	-0.0320570728	-0.1008002365	 0.37512
C	 0.5749848685	-1.0445779227	-0.9459270893	-0.191754
N	-0.0616013898	-2.1334221981	-0.4335527407	 0.081078
C	-0.0838306599	-3.5037971673	-0.9310365231	-0.292102
C	 1.2475070341	-4.0436609464	-1.1781723032	 0.302119
C	 2.3374085065	-4.4922672703	-1.4056512564	-0.436467
N	-0.7933362332	-1.8162968657	 0.6406561267	-0.145651
N	-0.6451510927	-0.5302136763	 0.8471753469	-0.283574
H	 0.0810805169	 1.6982826671	 0.5929394309	 0.308819
H	 1.2260009304	-1.0870629576	-1.8000504588	 0.155868
H	-0.6120526993	-4.0811321338	-0.1669301428	 0.177583
H	-0.682016023	-3.5465210755	-1.8497136331	 0.160112
H	 3.3028717771	-4.8936170819	-1.5941164949	 0.214108
39.9169	91.4173	203.1297	285.4738	326.1383	364.7331	385.3231	445.7336	467.3811	634.4774	652.7794	684.6621	694.4908	708.0169	757.5504	811.7853	968.4381	979.5855	1046.7096	1050.6309	1152.9334	1189.0286	1228.6506	1277.6236	1347.1617	1386.3113	1412.2854	1468.6749	1511.6843	1654.81	2249.8407	3033.066	3099.0409	3304.7464	3502.0547	3792.9654
OC1=CN(CC#C)N=N1	Oc1cn(CC#C)nn1	
InChI=1S/C5H5N3O/c1-2-3-8-4-5(9)6-7-8/h1,4,9H,3H2	InChI=1S/C5H5N3O/c1-2-3-8-4-5(9)6-7-8/h1,4,9H,3H2
