20
gdb 9875	4.77296	0.98041	0.91249	0.8431	81.29	-0.2539	0.0591	0.313	1324.977	0.175113	-311.830363	-311.821216	-311.820272	-311.864148	34.285	
C	 0.0444057257	 1.581378069	 0.2661880046	-0.466032
C	-0.0173312171	 0.0785330489	 0.0603702801	 0.395216
C	-1.343560635	-0.4665720673	-0.4464696011	-0.258238
C	-1.7011332738	 0.0043226737	-1.8749803969	-0.357897
C	-2.9397093802	-0.5842201309	-2.3683473236	 0.297477
C	-3.9635659716	-1.0866484725	-2.7487391964	-0.441089
C	 1.243214975	-0.6241722576	-0.3911673366	-0.296375
C	 0.7542303252	-0.7854469369	 1.0295667072	-0.321517
H	 1.0144445555	 1.881565453	 0.6744718993	 0.113752
H	-0.0972984966	 2.131397331	-0.6709178195	 0.117443
H	-0.7292611751	 1.9155129412	 0.9678940644	 0.115881
H	-1.3151789247	-1.5615481016	-0.4426146701	 0.105221
H	-2.1523348573	-0.1752961509	 0.2352529492	 0.106432
H	-1.7879567419	 1.0973276239	-1.8977403072	 0.130646
H	-0.8768327671	-0.2490966068	-2.5539696604	 0.130986
H	-4.8665518296	-1.5226648225	-3.0972352427	 0.191487
H	 1.148032323	-1.4739211508	-1.0597557864	 0.109417
H	 2.1321451911	-0.0260355227	-0.5618149639	 0.108644
H	 1.3108955095	-0.2933388704	 1.8202591987	 0.108464
H	 0.328967805	-1.7415375299	 1.3164592416	 0.110084
65.5826	98.189	124.2487	220.0926	228.5871	330.0745	334.6948	353.7487	373.7838	463.1153	500.5937	615.48	634.669	727.1444	766.3389	789.8953	867.9263	913.7019	948.8018	954.1752	970.4074	1009.88	1036.2253	1050.0175	1080.9127	1082.4481	1121.679	1187.1245	1190.0528	1280.576	1300.5043	1323.7703	1363.1638	1388.4928	1420.867	1468.5204	1472.9558	1488.4344	1497.0226	1500.9417	1512.2792	2237.8048	3020.4651	3024.6323	3032.3068	3051.7337	3078.8038	3082.905	3098.9069	3124.7891	3129.6976	3202.3036	3216.8625	3507.4776
CC1(CCC#C)CC1	CC1(CCC#C)CC1	
InChI=1S/C8H12/c1-3-4-5-8(2)6-7-8/h1H,4-7H2,2H3	InChI=1S/C8H12/c1-3-4-5-8(2)6-7-8/h1H,4-7H2,2H3
