22
gdb 82624	2.24994	2.02531	1.49529	1.6316	84.01	-0.2297	0.0851	0.3148	1014.3243	0.196822	-367.224157	-367.216272	-367.215328	-367.25587	32.409	
C	-0.0925384798	 1.6090011848	 0.0125418667	-0.42989
C	 0.0478940901	 0.0869584266	-0.0092486013	-0.016068
C	 0.8925168141	-0.5308765645	-1.1533989085	-0.069028
C	 2.3348604886	-0.1232539099	-0.7794006569	-0.242503
C	 2.2768833261	-0.6335784502	 0.655188958	-0.079772
N	 1.3926762827	-1.8336690751	 0.7036060173	-0.172141
C	 0.9110564999	-1.9988179443	-0.6915598812	-0.162921
C	 0.8696208707	-0.5101616432	 1.1418693393	 0.358504
C	 0.4717214718	-0.3497234034	 2.5818797721	-0.50235
H	 0.8757826786	 2.1137561633	 0.077660944	 0.118513
H	-0.6008665359	 1.9684493493	-0.8883514244	 0.11361
H	-0.6863529996	 1.9317729833	 0.8740440864	 0.118148
H	-0.9583774904	-0.3537300687	-0.0171092738	 0.066375
H	 0.5662925823	-0.3260603471	-2.172632564	 0.062031
H	 3.0863074758	-0.640587758	-1.3849850649	 0.098979
H	 2.5249882236	 0.9512387918	-0.8439895103	 0.100197
H	 3.1356684892	-0.6332137498	 1.3165966691	 0.082742
H	-0.0760022609	-2.4716815131	-0.69270913	 0.097976
H	 1.6048951869	-2.6305678673	-1.2550910582	 0.097288
H	 0.4831221845	 0.7038224044	 2.8823881436	 0.115593
H	-0.5386047609	-0.7379330137	 2.755611497	 0.116471
H	 1.1565849324	-0.8984502552	 3.2334865599	 0.128247
169.7055	194.4199	212.9003	227.5884	286.6677	340.9126	445.9186	465.8796	533.557	589.6195	680.8258	703.5408	772.7479	820.4603	834.6279	896.6525	914.8308	924.6585	940.6923	963.155	1004.44	1014.8535	1027.3122	1066.9047	1080.6101	1083.3798	1095.4979	1141.0029	1155.3681	1182.8471	1212.2337	1249.3002	1257.1991	1275.0112	1287.1192	1317.7217	1329.0894	1380.1241	1406.4887	1412.2145	1428.324	1487.4424	1489.9543	1492.4127	1497.2177	1505.7883	1517.0639	3010.6912	3028.1468	3035.1824	3046.1031	3054.1857	3086.8621	3092.5861	3096.3506	3098.5643	3111.205	3115.8281	3124.0888	3179.0133
CC1C2CC3N(C2)C13C	C[C@H]1[C@H]2C[C@@H]3N(C2)[C@]13C	
InChI=1S/C8H13N/c1-5-6-3-7-8(5,2)9(7)4-6/h5-7H,3-4H2,1-2H3	InChI=1S/C8H13N/c1-5-6-3-7-8(5,2)9(7)4-6/h5-7H,3-4H2,1-2H3/t5-,6-,7-,8+,9?/m0/s1
