20
gdb 113414	4.73632	0.83863	0.79629	2.8989	82.38	-0.2459	0.0294	0.2753	1509.786	0.170017	-403.139491	-403.130477	-403.129533	-403.173543	33.971	
C	 0.5590500118	 1.5697611317	 0.3348581515	-0.370208
C	-0.0895522934	 0.2222517293	-0.0014543341	-0.202954
C	 0.44998487	-0.3869788166	-1.2794693593	-0.074798
C	 1.7515437308	-1.191320984	-1.2784888553	-0.362281
C	 0.4398006796	-1.8570452768	-1.5056079828	 0.429066
C	-0.26358551	-3.0009521433	-0.782275073	-0.441064
C	-0.552425004	-3.4812195854	-2.1915442999	 0.426932
N	-1.1508751905	-4.4633492689	-2.6889756743	-0.542402
O	 0.0967592154	-2.4210977573	-2.7985659344	-0.272581
H	 1.6424622911	 1.4657975578	 0.4537956666	 0.120355
H	 0.3821013394	 2.3015094655	-0.4606810999	 0.118371
H	 0.1545653985	 1.9822207575	 1.2641359014	 0.114277
H	 0.0697714897	-0.4780683109	 0.8286708275	 0.096916
H	-1.176483093	 0.3482613278	-0.0895680248	 0.104692
H	 0.2882429172	 0.2059971284	-2.1772231486	 0.101432
H	 2.4141157408	-1.0872589122	-2.1306572324	 0.129105
H	 2.2516509008	-1.3616046328	-0.3292712308	 0.118152
H	 0.3733610986	-3.6659363296	-0.1961881159	 0.139313
H	-1.1491724712	-2.7330675378	-0.2026500012	 0.139845
H	-1.1279730417	-4.4324791023	-3.7096515401	 0.227832
68.0952	95.6941	132.4712	185.743	253.3667	293.6698	311.3303	407.077	459.1804	487.6382	503.8642	587.3051	767.9965	784.9882	811.8642	863.8409	871.1788	907.3754	918.0016	950.8295	979.2642	1011.4529	1036.3765	1042.5292	1051.3291	1094.6757	1125.0116	1154.8031	1165.2771	1192.0486	1218.1856	1282.2585	1306.9345	1333.7328	1368.5282	1411.9786	1425.2795	1464.1932	1485.3214	1498.2149	1499.169	1507.4618	1830.5438	3017.2072	3034.6477	3048.5259	3082.1605	3102.9075	3108.1577	3124.353	3135.0143	3136.3184	3216.4226	3477.0128
CCC1CC11CC(=N)O1	CC[C@H]1C[C@]21C[C]([NH])O2	
InChI=1S/C7H11NO/c1-2-5-3-7(5)4-6(8)9-7/h5,8H,2-4H2,1H3	InChI=1S/C7H11NO/c1-2-5-3-7(5)4-6(8)9-7/h5,8H,2-4H2,1H3/t5-,7+/m0/s1
