20
gdb 53674	2.82377	0.87716	0.69577	2.0298	82.93	-0.2277	0.0441	0.2719	1629.6823	0.169886	-403.085171	-403.075022	-403.074078	-403.122586	34.845	
C	-0.4290002929	 0.6101228368	 1.0958719129	-0.49705
C	-0.1616101988	-0.6088871373	 0.3454827442	 0.027441
C	 0.067288657	-1.615414259	-0.2768027512	 0.102867
C	 0.3086036284	-2.8463807599	-1.04326142	-0.331836
N	-0.811539299	-3.7883381676	-1.1216875971	-0.277045
C	-1.2347950392	-4.3490991027	 0.1382878105	 0.020999
C	-2.1896978334	-3.6036620786	 1.1171221145	-0.089117
O	-3.07027498	-4.7460431331	 1.1654630296	-0.274013
C	-2.3730759354	-5.387604817	 0.0802931343	-0.096779
H	 0.209372951	 0.681024947	 1.9833752394	 0.149378
H	-0.2485280292	 1.5014976629	 0.4849925228	 0.149255
H	-1.4704340682	 0.6469053849	 1.4342705933	 0.150132
H	 0.5989214064	-2.5859921111	-2.0682050139	 0.130394
H	 1.1641258488	-3.3834343762	-0.6135115942	 0.133792
H	-1.5976170853	-3.3423817114	-1.5857637937	 0.219058
H	-0.3498322829	-4.7338942286	 0.6539291634	 0.090758
H	-1.8039650399	-3.3366282157	 2.1068465909	 0.102587
H	-2.6751001483	-2.7246080456	 0.6705078109	 0.091594
H	-2.9428240767	-5.3501620719	-0.8604736595	 0.091677
H	-2.1224881125	-6.430910126	 0.3016630329	 0.105906
28.2096	50.3713	61.5494	104.7589	146.21	192.1571	266.9226	292.296	380.1812	400.2054	424.5767	566.3999	668.8606	748.1188	813.7728	869.0502	887.8619	957.8565	1002.481	1023.6296	1034.5887	1052.7485	1054.5047	1064.0015	1138.3162	1148.6648	1151.1785	1165.8774	1190.5926	1261.1251	1291.9869	1296.736	1348.7106	1365.4517	1400.204	1415.1527	1464.0878	1477.6216	1479.1773	1504.084	1508.9464	1532.4134	2360.9757	2989.0857	3006.0504	3021.7631	3027.3539	3053.671	3055.6425	3063.5595	3077.6333	3088.246	3088.7348	3507.0173
CC#CCNC1COC1	CC#CCNC1COC1	
InChI=1S/C7H11NO/c1-2-3-4-8-7-5-9-6-7/h7-8H,4-6H2,1H3	InChI=1S/C7H11NO/c1-2-3-4-8-7-5-9-6-7/h7-8H,4-6H2,1H3
