20
gdb 86235	2.50452	1.27111	0.99739	5.0999	79.58	-0.2187	0.0368	0.2554	1244.4359	0.172669	-399.328955	-399.319721	-399.318777	-399.363335	34.278	
C	 0.9681813943	 1.2789517857	-0.0879349786	-0.336767
N	 0.0029211339	 0.1886589391	 0.0092854433	-0.053005
C	 0.0392562936	-0.7603616805	-1.1085585372	-0.202635
C	 1.0619042161	-1.8972981836	-0.7568546379	 0.012438
N	 2.3511766843	-1.8927446663	-1.4442274313	-0.515447
C	 1.26871971	-1.7055709173	 0.7840904467	-0.136989
C	 0.1851056177	-0.655061947	 1.184972033	-0.198733
C	 1.1907341617	-2.940497101	 1.5492400552	 0.26886
N	 1.0951538044	-3.9125207752	 2.1685735837	-0.332182
H	 2.0299050957	 0.9697693621	-0.0999178547	 0.091727
H	 0.777153557	 1.8491619457	-1.0015189063	 0.127322
H	 0.8343009085	 1.9565115431	 0.7609138403	 0.129783
H	-0.9608357042	-1.1968532576	-1.2267098	 0.109799
H	 0.2950071641	-0.2572835501	-2.044845812	 0.098986
H	 0.606523416	-2.8724758297	-0.948575595	 0.105979
H	 2.2297269534	-2.1608680068	-2.4158847311	 0.234094
H	 2.7481873907	-0.9572652384	-1.4521630906	 0.227016
H	 2.2677725146	-1.2834232798	 0.9338044669	 0.126189
H	 0.4691778419	-0.068683039	 2.0609391295	 0.119986
H	-0.7537303837	-1.1732865734	 1.4123937361	 0.123578
43.5644	126.6669	141.2562	202.8134	211.4201	255.1437	346.5947	380.9867	405.3408	413.2532	530.4898	548.1688	575.4208	677.5777	803.6038	839.1361	844.4673	910.413	976.2425	1006.9797	1015.0714	1028.844	1061.8489	1092.3346	1131.5536	1157.7564	1167.5428	1226.9908	1259.5731	1272.3899	1284.0545	1316.8572	1346.0561	1364.4367	1372.5022	1427.4117	1457.9878	1485.5773	1492.836	1502.4292	1506.6008	1659.1108	2352.3826	2927.6944	3018.4178	3037.4324	3059.0165	3065.6368	3077.2354	3095.7876	3110.1486	3117.9333	3490.5895	3571.533
CN1CC(N)C(C1)C#N	CN1C[C@@H](N)[C@@H](C1)C#N	
InChI=1S/C6H11N3/c1-9-3-5(2-7)6(8)4-9/h5-6H,3-4,8H2,1H3	InChI=1S/C6H11N3/c1-9-3-5(2-7)6(8)4-9/h5-6H,3-4,8H2,1H3/t5-,6-/m1/s1
