15
gdb 33444	2.51643	1.60728	1.13669	1.6175	78.71	-0.2306	0.0221	0.2528	1063.179	0.109717	-383.364818	-383.356589	-383.355644	-383.39736	31.567	
C	 0.0772312662	-1.2007174523	 0.0428707694	-0.448882
C	 0.0367158449	 0.0004508257	 0.0363818833	 0.25699
C	-0.00538302	 1.4382448112	 0.0427411559	-0.031226
C	-1.0758613825	 2.0626281424	-0.6907124797	 0.219714
C	-1.9526805484	 2.6099393067	-1.3048590674	-0.402532
C	 0.4380458261	 2.2455227124	 1.2888981285	-0.172913
C	 1.6247671922	 1.5424539561	 1.9365339534	-0.114866
O	 2.3552669847	 1.5601229654	 0.6728795731	-0.276265
C	 1.2961786123	 2.2680772993	 0.0655833857	 0.073181
H	 0.1118193117	-2.2620374164	 0.032909622	 0.196235
H	-2.7334619267	 3.0783471174	-1.8513391292	 0.195888
H	-0.2171626075	 2.9831699868	 1.7294938716	 0.123203
H	 2.1391838232	 2.1603893368	 2.6787779325	 0.121895
H	 1.471805803	 0.5270754125	 2.3126616962	 0.130041
H	 1.5157428409	 3.0075427461	-0.6950321253	 0.129537
123.9764	143.7449	155.4363	176.4693	343.8729	353.6899	454.5924	485.1675	561.2753	575.028	583.6988	595.3848	636.6216	665.0206	669.1444	756.5476	844.5102	909.1291	936.7324	960.3891	992.7785	1029.877	1065.9272	1087.6615	1149.8382	1162.5758	1236.2284	1279.294	1297.4739	1375.6528	1501.5607	2237.1183	2239.0181	3048.9234	3108.3251	3192.6027	3221.3759	3501.224	3502.1907
C#CC1(C#C)C2COC12	C#CC1(C#C)[C@H]2CO[C@@H]12	
InChI=1S/C8H6O/c1-3-8(4-2)6-5-9-7(6)8/h1-2,6-7H,5H2	InChI=1S/C8H6O/c1-3-8(4-2)6-5-9-7(6)8/h1-2,6-7H,5H2/t6-,7+/m0/s1
