20
gdb 56008	4.21721	0.87974	0.78677	3.4087	81.22	-0.2316	0.0323	0.2639	1479.5146	0.171324	-403.201295	-403.191886	-403.190941	-403.237113	34.159	
N	 0.0300206717	 1.3275859272	-0.018462469	-0.52302
C	 0.1961926731	-0.0235927638	-0.142010572	 0.409223
O	 1.2933114255	-0.5275472524	-0.2913328544	-0.356813
C	-1.0984702766	-0.8316413495	-0.0539037204	-0.335874
C	-0.8834539509	-2.3452536954	-0.1649949749	 0.006645
C	-2.1843429163	-3.1609702238	 0.0711994228	-0.23964
C	-2.1084480964	-4.3677002407	-0.8979685962	-0.253591
C	-1.1006757727	-3.9090159514	-1.9261546089	-0.074373
C	-0.4368706674	-2.8247513389	-1.5308822112	-0.060011
H	 0.8368909999	 1.9179526016	-0.1364526191	 0.25898
H	-0.8789768198	 1.7544947968	 0.0135046135	 0.25603
H	-1.5876352222	-0.5900230836	 0.8994620437	 0.116832
H	-1.7831822681	-0.4891115672	-0.8418163615	 0.114459
H	-0.1146103146	-2.6164132604	 0.5710851049	 0.094319
H	-2.3104981471	-3.4580434397	 1.1158947403	 0.094544
H	-3.0491218604	-2.5411512991	-0.1937624237	 0.093881
H	-1.7547818596	-5.2762695182	-0.3898763439	 0.104747
H	-3.08329007	-4.6211759201	-1.3303082156	 0.098084
H	-0.9230212715	-4.4488285387	-2.8502576789	 0.086944
H	 0.3706312133	-2.3393171926	-2.0645080954	 0.108634
21.7839	77.7818	102.847	142.8679	164.1936	274.2815	310.3529	370.7801	490.4876	520.7105	584.6043	640.7131	659.5718	754.1336	770.5641	832.3144	857.9606	868.6627	924.9463	933.2866	980.8087	986.6235	1053.8452	1067.0846	1080.3926	1108.8277	1139.9687	1174.2788	1207.8631	1227.2179	1253.026	1298.7238	1315.8369	1328.1139	1345.5826	1387.9142	1398.4922	1459.6956	1483.2202	1499.903	1616.4129	1685.3407	1792.6778	3005.4847	3009.9234	3015.3925	3033.3834	3050.2448	3053.1522	3091.7212	3184.7894	3223.2304	3602.2608	3738.4504
NC(=O)CC1CCC=C1	NC(=O)C[C@H]1CCC=C1	
InChI=1S/C7H11NO/c8-7(9)5-6-3-1-2-4-6/h1,3,6H,2,4-5H2,(H2,8,9)	InChI=1S/C7H11NO/c8-7(9)5-6-3-1-2-4-6/h1,3,6H,2,4-5H2,(H2,8,9)/t6-/m1/s1
