23
gdb 119084	2.39964	1.01977	0.83389	3.3467	81.78	-0.2348	0.0701	0.305	1500.4627	0.204365	-425.401943	-425.39147	-425.390526	-425.437954	37.752	
C	-0.0390099927	 1.6207195052	 0.078641047	-0.379434
C	 0.0364531816	 0.0911162994	 0.0455076051	-0.180373
C	-1.3401907284	-0.5603255029	-0.1489939369	-0.254211
C	-1.3785791472	-2.090054136	-0.0412281343	 0.286338
C	-0.5077235588	-2.764263241	-1.0939907	-0.154883
O	-0.6605460662	-4.1719454387	-0.985508153	-0.418786
C	-1.2302769386	-2.6295878969	 1.4067072691	-0.107034
O	-2.6320313885	-2.9534167216	 1.478926297	-0.276712
C	-2.8226771351	-2.6446645224	 0.0839242596	-0.116369
H	 0.951395801	 2.0667234458	 0.2122112374	 0.112248
H	-0.4596480938	 2.0161666618	-0.8526441436	 0.114819
H	-0.675229746	 1.9671675167	 0.9004668538	 0.117521
H	 0.716652155	-0.2159715384	-0.7579646311	 0.098281
H	 0.4847016499	-0.2720822023	 0.9795804446	 0.1008
H	-2.031425742	-0.1561734398	 0.6020802378	 0.105754
H	-1.7477466641	-0.2606489438	-1.125466635	 0.092131
H	-0.8078058785	-2.4082619548	-2.0942451928	 0.086433
H	 0.5441281028	-2.4761534052	-0.9467561949	 0.09112
H	-0.0679710193	-4.5911213538	-1.6155479673	 0.290268
H	-0.6003755272	-3.5223448322	 1.4935830287	 0.105858
H	-0.9381044183	-1.8976607352	 2.1704944749	 0.089053
H	-3.6286443233	-1.9159742887	-0.071077012	 0.087953
H	-3.0164955324	-3.5441371148	-0.5102703441	 0.109225
68.7648	82.6085	96.5271	127.5115	161.6264	245.2806	245.9434	258.9476	313.6852	318.6005	361.1951	415.1326	565.6921	665.2603	743.69	844.9891	862.3447	892.6582	893.7053	946.1678	986.9371	993.3697	1040.9882	1051.09	1057.2716	1092.6207	1100.6896	1152.801	1167.1737	1171.8106	1186.1013	1244.8348	1272.8356	1286.7849	1303.3336	1317.0164	1328.3001	1345.1938	1392.761	1397.7292	1412.3336	1454.4681	1480.7331	1492.466	1499.3798	1504.5484	1509.5657	1514.3349	1531.3989	2956.0982	2997.7439	3001.6492	3008.3047	3019.064	3022.7158	3030.1285	3037.0169	3059.2465	3064.5552	3070.4632	3097.6753	3103.2337	3838.7077
CCCC1(CO)COC1	CCCC1(CO)COC1	
InChI=1S/C7H14O2/c1-2-3-7(4-8)5-9-6-7/h8H,2-6H2,1H3	InChI=1S/C7H14O2/c1-2-3-7(4-8)5-9-6-7/h8H,2-6H2,1H3
