16
gdb 49496	2.65816	1.44753	1.09957	3.7977	78.37	-0.2392	0.0009	0.2401	1101.4288	0.123224	-400.662472	-400.654577	-400.653632	-400.695016	30.111	
O	 0.0891115039	 0.0877908852	 0.4652961091	-0.314555
C	 0.067532862	 1.2552944775	 0.1427534192	 0.124842
N	 1.1015951657	 1.9146231594	-0.4790118535	-0.099153
C	 2.5625115392	 1.6735387952	-0.2013001432	-0.040032
C	 2.842166257	 2.9496595015	-1.0426276324	-0.249284
C	 1.6455791342	 3.2887145835	-0.093638012	 0.241643
C	 2.4485501843	 2.5855498841	 1.0563478317	-0.256868
C	 0.8376898368	 4.4693297287	-0.0405290378	 0.054318
C	 0.1694837836	 5.4671841786	 0.016011991	-0.338452
H	-0.8327925537	 1.8956497402	 0.2289655543	 0.085626
H	 2.9996292621	 0.6835475559	-0.2903259464	 0.121984
H	 3.7741811327	 3.4771779877	-0.8395607618	 0.11251
H	 2.5969183337	 2.8943556815	-2.1026753365	 0.123786
H	 1.8546952322	 2.1953979856	 1.8834589759	 0.129355
H	 3.3561019273	 3.0912264168	 1.3939890509	 0.110672
H	-0.422130581	 6.3482345887	 0.0631238116	 0.193609
105.8448	121.1788	165.9613	225.036	291.8156	416.5878	481.3584	514.1632	548.8822	615.8826	638.9541	679.8138	700.0119	756.6683	798.1169	882.2635	931.2382	941.7069	967.3145	1011.8511	1034.7264	1067.16	1095.5218	1120.687	1160.8298	1214.2769	1216.9232	1223.0212	1292.1514	1328.4135	1414.2469	1481.0601	1521.7004	1785.035	2239.0975	2940.1816	3069.5491	3091.6264	3151.4632	3172.5155	3175.2821	3499.1018
O=CN1C2CC1(C2)C#C	O=CN1[C@H]2C[C@@]1(C2)C#C	
InChI=1S/C7H7NO/c1-2-7-3-6(4-7)8(7)5-9/h1,5-6H,3-4H2	InChI=1S/C7H7NO/c1-2-7-3-6(4-7)8(7)5-9/h1,5-6H,3-4H2/t6-,7+
