20
gdb 121213	2.18889	1.14603	0.82376	3.7963	76.9	-0.2301	-0.0213	0.2088	1440.1728	0.168913	-440.256741	-440.246871	-440.245927	-440.292893	34.494	
C	 0.1122651661	 1.4493860935	 0.1119351717	-0.386831
C	-0.0570959374	-0.0486792871	-0.0707257198	-0.041718
O	 0.8936797244	-0.4929544501	-1.0249907086	-0.251385
C	 0.8723405725	-1.8755447266	-1.2488046131	 0.12973
C	-0.1825571072	-2.3853284592	-2.2725325571	-0.195408
N	 0.874839965	-2.4320137893	-3.3078292328	-0.32004
C	 1.9470926811	-2.2883551739	-2.3012174636	-0.103559
C	 2.9795907419	-1.2250800247	-2.6342871899	 0.178273
O	 4.1047176164	-1.2275225481	-2.207110671	-0.253288
H	 1.1238374205	 1.6804399997	 0.4566952861	 0.133698
H	-0.0559256253	 1.9723778138	-0.8335580059	 0.130556
H	-0.6029434445	 1.8252438273	 0.8494643289	 0.117012
H	 0.0994324305	-0.5796080997	 0.8829488864	 0.09166
H	-1.0784601427	-0.2839126574	-0.4098056243	 0.092778
H	 0.9128275278	-2.4233470979	-0.298413672	 0.077056
H	-0.6063954907	-3.3593619633	-1.9946544467	 0.095244
H	-1.0003463683	-1.6930795096	-2.5012227716	 0.109728
H	 0.9102478	-3.2762459745	-3.8662371798	 0.224315
H	 2.4701659591	-3.208416091	-2.0118124594	 0.084568
H	 2.5994925508	-0.438049882	-3.3192792877	 0.087611
52.9246	66.2471	97.0478	107.8997	128.9656	241.3662	254.2764	322.4864	346.5063	457.5608	479.0281	516.8932	648.7807	820.8211	828.0678	868.0011	906.754	932.4256	990.4071	1003.3713	1038.6218	1056.1544	1081.6933	1117.4617	1144.159	1158.7458	1182.1714	1189.7339	1229.9986	1263.9601	1292.5137	1296.6183	1333.9474	1371.071	1385.3537	1401.9841	1404.7254	1439.7469	1483.2073	1499.2822	1504.8192	1527.5332	1831.4415	2916.1627	2964.612	2994.8854	3006.1056	3017.1356	3033.8125	3047.3046	3064.2518	3121.9549	3125.7575	3547.5331
CCOC1CNC1C=O	CCO[C@H]1CN[C@H]1C=O	
InChI=1S/C6H11NO2/c1-2-9-6-3-7-5(6)4-8/h4-7H,2-3H2,1H3	InChI=1S/C6H11NO2/c1-2-9-6-3-7-5(6)4-8/h4-7H,2-3H2,1H3/t5-,6-/m0/s1
