18
gdb 17455	3.45034	2.11976	1.67144	0.5237	70.88	-0.2249	0.0761	0.301	839.8691	0.154289	-343.904086	-343.896685	-343.895741	-343.935209	28.894	
C	-0.162125008	 1.476781091	-0.1250485255	-0.31305
N	 0.0950958211	 0.0511421201	 0.0239531597	-0.079095
C	 1.4135167029	-0.5197969067	-0.1643920832	-0.076844
C	 2.5481565135	 0.3163105415	 0.41232332	-0.121523
N	 3.1698160805	-0.3525185547	 1.561928014	-0.364373
C	 1.8809527299	 0.3230750458	 1.7657719212	 0.322102
C	 1.7878080053	 1.3791260902	 2.8284187851	-0.483655
C	 0.7382479733	-0.5189518105	 1.1940543141	-0.134684
H	 0.6502643375	 2.1296155977	 0.219490306	 0.113132
H	-0.3446926813	 1.686061209	-1.1839104058	 0.122799
H	-1.0710986216	 1.7299722392	 0.4297540578	 0.122425
H	 1.5251741186	-1.342784691	-0.8634529577	 0.09736
H	 3.1095913034	 1.1038558629	-0.0765383538	 0.099103
H	 3.0665886174	-1.3643894236	 1.5019047915	 0.225809
H	 2.7244499889	 1.9390020107	 2.8897639798	 0.133961
H	 0.9695045371	 2.0780593833	 2.63121812	 0.12042
H	 1.607443516	 0.9239251988	 3.8092385915	 0.123375
H	 0.2378380357	-1.3378642237	 1.7026135252	 0.092737
173.6241	178.3665	214.0001	223.5336	312.2718	353.2481	443.7934	515.243	619.3952	646.5605	753.4773	804.9648	817.9644	877.1349	904.986	932.5604	971.5786	991.3249	1038.3609	1055.1785	1075.1852	1100.9759	1127.2959	1150.507	1180.5319	1181.747	1240.4615	1255.4095	1280.357	1294.8119	1350.7177	1395.6637	1434.5859	1447.2278	1484.941	1489.2783	1492.6167	1507.3904	3012.9651	3034.8964	3079.159	3095.5892	3102.948	3124.1325	3151.9708	3163.9729	3183.9911	3458.2784
CN1C2C3NC3(C)C12	CN1[C@H]2[C@@H]3N[C@]3(C)[C@@H]12	
InChI=1S/C6H10N2/c1-6-4(7-6)3-5(6)8(3)2/h3-5,7H,1-2H3	InChI=1S/C6H10N2/c1-6-4(7-6)3-5(6)8(3)2/h3-5,7H,1-2H3/t3-,4-,5-,6-,8?/m0/s1
