20
gdb 73962	2.30606	1.43553	0.92122	4.9999	86.25	-0.2111	-0.0291	0.182	1270.1491	0.172489	-403.194583	-403.185789	-403.184844	-403.227911	33.809	
N	 0.1213928772	 1.398823862	-0.1551109827	-0.56501
C	-0.0097963859	 0.0372755839	-0.0138091921	 0.271286
C	-1.1956446725	-0.6310423381	 0.1134703308	 0.112957
C	-1.2731611397	-2.145556132	 0.1093002819	-0.276151
C	 0.0106811342	-2.8157261451	-0.385255225	-0.212195
C	 1.2302585009	-2.1708058987	 0.2767083201	-0.205982
C	 1.3138451646	-0.6912703227	-0.1082310198	-0.278023
C	-2.4587944937	 0.0634201516	 0.2861213334	 0.071812
O	-3.5437018073	-0.4837473205	 0.3748694448	-0.29996
H	 1.0005376961	 1.8047961825	 0.1226938447	 0.252372
H	-0.6777042992	 1.9894222304	 0.0056294245	 0.259393
H	-1.507282582	-2.4998971945	 1.1233847852	 0.106354
H	-2.1323185193	-2.4461237196	-0.4991966052	 0.119666
H	-0.0208453587	-3.8901179979	-0.1768268109	 0.095169
H	 0.0928074148	-2.7066142981	-1.4749223399	 0.096222
H	 1.1447293547	-2.2638787752	 1.3667661971	 0.103413
H	 2.1571287213	-2.6766469617	-0.0128960765	 0.095755
H	 1.6800040158	-0.5888236207	-1.13947941	 0.127912
H	 2.0490520198	-0.1696839798	 0.5203927557	 0.10117
H	-2.4101512012	 1.1759132244	 0.362257924	 0.023838
93.5938	118.8404	165.0126	229.2125	295.7203	344.9805	359.6305	391.8771	445.5651	453.4252	475.0148	550.8281	611.3836	624.5908	744.8134	831.8077	875.2301	896.6926	916.0136	968.3518	1009.9632	1042.4719	1084.8105	1104.3013	1156.3203	1180.0945	1196.5593	1224.577	1268.175	1289.5478	1324.7767	1370.8955	1373.749	1385.1767	1414.3548	1460.6799	1466.9219	1484.3642	1491.7348	1502.384	1633.4382	1678.3766	1752.344	2822.4969	3004.6992	3005.5228	3019.5995	3024.7308	3038.8353	3069.1969	3073.7543	3077.7204	3589.5132	3699.3222
NC1=C(CCCC1)C=O	NC1=C(CCCC1)C=O	
InChI=1S/C7H11NO/c8-7-4-2-1-3-6(7)5-9/h5H,1-4,8H2	InChI=1S/C7H11NO/c8-7-4-2-1-3-6(7)5-9/h5H,1-4,8H2
