19
gdb 108545	2.74284	1.64876	1.24655	1.9571	74.22	-0.2388	0.0631	0.3019	1034.3479	0.160838	-422.972116	-422.964652	-422.963708	-423.004013	29.928	
O	 0.0711354083	 1.4005112499	 0.0275248874	-0.41552
C	 0.0193399211	-0.0133520277	-0.1321093895	-0.187419
C	-1.3920819292	-0.5465180715	-0.0561726046	 0.290049
C	-2.4079156035	 0.0050666462	-1.0575202144	-0.136178
O	-3.5954552967	-0.7103165093	-0.6846687124	-0.282145
C	-3.1368567601	-1.505273993	 0.3838054993	 0.151576
C	-1.7185074373	-2.0816714968	 0.0897472403	-0.142275
C	-1.4132308929	-2.0112583873	 1.6033867407	-0.266292
C	-2.1766482192	-0.7010160794	 1.3091859532	-0.14029
H	-0.248428968	 1.6050119483	 0.912428137	 0.285004
H	 0.4349871661	-0.2087056044	-1.1275530956	 0.113413
H	 0.6727406965	-0.5191697467	 0.593391609	 0.093472
H	-2.563073125	 1.0844465559	-0.9578637478	 0.11084
H	-2.1426674852	-0.2181118419	-2.0992020313	 0.100228
H	-3.9354757034	-2.1266711238	 0.7872820319	 0.087501
H	-1.4601492497	-2.8696364694	-0.6192489947	 0.07383
H	-1.9250635185	-2.7406536299	 2.237653356	 0.095917
H	-0.3652477279	-1.9230658265	 1.8945087204	 0.100013
H	-2.4515044854	 0.0960941274	 2.002760395	 0.068277
89.3558	167.8662	274.9778	294.3737	343.0846	382.7359	426.4958	480.3948	646.4427	689.978	722.1351	755.1731	830.0158	886.4028	904.6779	921.4812	944.224	973.2314	1004.4483	1027.1677	1038.487	1073.5014	1084.0216	1088.8654	1100.2717	1142.8244	1156.9553	1172.5408	1195.3133	1211.0598	1234.0302	1250.2708	1261.8082	1285.4505	1327.3258	1379.8708	1391.0356	1418.8903	1496.1386	1522.9526	1525.8156	2998.5163	3019.7258	3058.5197	3060.562	3071.8377	3092.6721	3103.7109	3120.8114	3137.3322	3814.0947
OCC12COC3C1CC23	OC[C@@]12CO[C@H]3[C@@H]1C[C@@H]23	
InChI=1S/C7H10O2/c8-2-7-3-9-6-4(7)1-5(6)7/h4-6,8H,1-3H2	InChI=1S/C7H10O2/c8-2-7-3-9-6-4(7)1-5(6)7/h4-6,8H,1-3H2/t4-,5+,6-,7+
