17
gdb 19498	3.19757	1.92881	1.77485	4.1898	71.3	-0.2816	0.0311	0.3128	833.6585	0.145219	-326.749513	-326.742658	-326.741714	-326.78054	26.474	
N	 0.1813964418	-1.2556622901	 0.1040465972	-0.357082
C	 0.1377264924	-0.0988245261	 0.0903152964	 0.299923
C	 0.0604487767	 1.3339482996	 0.0576322529	-0.188916
C	 0.4463024894	 2.2210128575	 1.2387223189	-0.047877
C	 1.267083412	 1.6236097487	 2.372231074	-0.220168
C	 2.4896981813	 0.9517871982	 1.6953382087	-0.236905
C	 2.6540388724	 1.6516364302	 0.3214687024	-0.220168
C	 1.2889275409	 2.2380397747	-0.0071908458	-0.047877
H	-0.7918668512	 1.6883632365	-0.5139527022	 0.132288
H	-0.2473148179	 3.023059782	 1.4654073788	 0.097417
H	 1.5836599328	 2.4421974776	 3.0283748771	 0.106658
H	 0.6979820585	 0.9194885837	 2.9870254502	 0.117227
H	 3.3912791089	 1.0404235803	 2.3062999813	 0.101523
H	 2.3040621479	-0.1140493558	 1.5552218107	 0.142654
H	 3.370443528	 2.4783022196	 0.3864260601	 0.106658
H	 3.0215637741	 0.966441412	-0.4486408731	 0.117227
H	 1.230822372	 3.0529287712	-0.7201776975	 0.097417
120.6265	141.4613	211.4003	326.9734	359.5507	548.949	558.8839	661.6098	707.1912	750.779	776.9709	813.4394	885.8193	887.5283	915.3338	972.15	990.308	1003.3581	1035.2243	1077.9714	1109.7858	1113.3277	1186.2572	1202.4028	1217.0082	1258.9383	1315.4675	1317.5614	1330.191	1361.0726	1364.9662	1415.1101	1489.0077	1492.4149	1515.6699	2345.0236	3041.5974	3042.691	3078.4433	3082.9121	3084.3397	3128.8819	3157.0112	3168.1386	3179.8982
N#CC1C2CCCC12	N#C[C@H]1[C@H]2CCC[C@@H]12	
InChI=1S/C7H9N/c8-4-7-5-2-1-3-6(5)7/h5-7H,1-3H2	InChI=1S/C7H9N/c8-4-7-5-2-1-3-6(5)7/h5-7H,1-3H2/t5-,6+,7-
