18
gdb 12731	2.62177	2.26423	1.88197	2.4666	66.93	-0.2446	0.0628	0.3074	830.7979	0.153818	-384.912528	-384.905031	-384.904087	-384.944032	29.169	
C	-0.3683379386	 1.3613916679	-0.0491404864	-0.489621
C	 0.1013623865	-0.0651829586	 0.0092553445	 0.410676
O	-0.9988334504	-1.0208705499	 0.0851501933	-0.340843
C	-0.443780003	-1.6304962253	 1.2823665174	-0.087227
C	 0.8386157426	-0.7976563718	 1.1778551652	-0.128546
C	 1.8624294359	-1.3740607369	 0.1640223467	-0.275674
C	 1.1514723608	-0.6076441614	-1.0059827935	 0.112307
O	 0.6176261244	-1.3428471175	-2.0680685361	-0.439007
H	 0.4840861508	 2.0483954375	-0.0419700781	 0.120028
H	-0.933223955	 1.530403101	-0.9728382528	 0.1369
H	-1.0185261427	 1.6011553073	 0.7976779368	 0.122901
H	-1.0712007113	-1.4083189885	 2.1543797651	 0.105924
H	-0.338022208	-2.7173836449	 1.1829706634	 0.104436
H	 1.2101573029	-0.3038056557	 2.0743822102	 0.076775
H	 2.8925830588	-1.053189637	 0.3350342376	 0.102813
H	 1.8487333114	-2.4626849839	 0.0600458443	 0.101133
H	 1.7825555441	 0.1800814572	-1.430216334	 0.081144
H	-0.199165599	-1.7308023195	-1.7188025836	 0.285882
88.3855	208.1049	220.3234	266.9857	320.0728	378.285	416.4521	525.6778	561.394	626.0603	669.7544	791.6686	833.9831	855.3273	906.4226	920.4326	951.8159	992.8763	1029.8364	1056.6796	1108.8027	1127.7439	1142.3766	1159.6199	1183.9704	1189.4116	1207.0961	1261.1008	1301.2935	1319.1833	1342.0619	1352.6611	1408.041	1449.459	1473.7613	1480.386	1487.0312	1523.2107	3014.9394	3031.6276	3054.1202	3058.8264	3062.1114	3101.8803	3110.1085	3111.8707	3125.3125	3709.9029
CC12OCC1CC2O	C[C@]12OC[C@H]1C[C@H]2O	
InChI=1S/C6H10O2/c1-6-4(3-8-6)2-5(6)7/h4-5,7H,2-3H2,1H3	InChI=1S/C6H10O2/c1-6-4(3-8-6)2-5(6)7/h4-5,7H,2-3H2,1H3/t4-,5-,6+/m1/s1
