20
gdb 56195	4.50144	0.75517	0.67829	3.0149	77.8	-0.2397	0.0362	0.2759	1676.042	0.170177	-440.303739	-440.293759	-440.292814	-440.341519	34.234	
C	-0.1302529642	 1.4447899358	-0.1746267449	-0.48094
C	 0.1141854683	-0.0487735408	-0.0214838616	 0.408064
O	 0.8276241176	-0.5006930352	 0.8568199009	-0.375432
N	-0.5291888177	-0.8364776293	-0.9336618224	-0.312666
C	-0.363958385	-2.2744487369	-0.9883196796	-0.175726
C	 0.1544949017	-2.6979552368	-2.3530386244	 0.153063
C	-0.0207514174	-4.1761120505	-2.7609357897	-0.300083
C	-0.9209245106	-3.6152913884	-3.8802988987	-0.058438
O	-0.7433908018	-2.2608055903	-3.4083363562	-0.305015
H	 0.828599749	 1.9411491231	-0.3469651032	 0.151152
H	-0.8141003668	 1.6985271635	-0.988630408	 0.112176
H	-0.5331420569	 1.8324010233	 0.7645858409	 0.151558
H	-1.0615493647	-0.4147222774	-1.6775139831	 0.254946
H	 0.3395345339	-2.5482258403	-0.197577551	 0.147462
H	-1.3211402597	-2.7766835223	-0.7918393325	 0.099279
H	 1.1603221329	-2.2883934557	-2.5126126302	 0.085755
H	 0.8848170737	-4.6871488281	-3.0885575488	 0.117321
H	-0.5328514479	-4.7923381514	-2.018824544	 0.114273
H	-0.5376915005	-3.7415539443	-4.900019426	 0.106599
H	-1.9729019438	-3.9228011881	-3.8577213975	 0.106651
24.8391	40.5035	63.4107	79.1412	95.9238	244.2245	257.1301	330.0289	452.269	487.6991	511.8085	621.8943	646.7207	752.1649	799.8084	865.1121	891.0731	926.4175	974.0597	996.1559	1013.4626	1051.0747	1054.308	1099.4614	1128.6414	1146.0027	1169.874	1216.5382	1244.8182	1259.4613	1271.4967	1297.2419	1337.5149	1367.0603	1395.6034	1413.3515	1471.1692	1480.7918	1485.2939	1490.6898	1530.82	1537.7359	1778.2455	3006.9942	3019.8854	3027.9695	3050.2754	3060.6353	3079.842	3111.7775	3127.334	3130.6933	3137.837	3644.6822
CC(=O)NCC1CCO1	CC(=O)NC[C@H]1CCO1	
InChI=1S/C6H11NO2/c1-5(8)7-4-6-2-3-9-6/h6H,2-4H2,1H3,(H,7,8)	InChI=1S/C6H11NO2/c1-5(8)7-4-6-2-3-9-6/h6H,2-4H2,1H3,(H,7,8)/t6-/m1/s1
