14
gdb 133164	2.3361	1.86455	1.04354	3.6884	70.22	-0.2268	-0.0604	0.1664	1044.9316	0.100466	-474.129359	-474.121405	-474.12046	-474.162081	29.072	
C	-0.0205431494	 1.5601282876	-0.0183678546	-0.488788
C	-0.0244275254	 0.0654360101	-0.0152159248	 0.009692
C	-1.1243417154	-0.6934148901	-0.1190301096	 0.380199
F	-2.3609369935	-0.2307533873	-0.2389004401	-0.048749
N	-1.058103607	-2.0604850683	-0.1093467346	-0.327193
N	 0.1085313322	-2.7478598243	 0.0045757229	-0.033675
N	 1.184013084	-2.1058611505	 0.106353544	-0.255461
C	 1.2326718767	-0.6719836198	 0.1072238071	 0.326391
N	 2.3519946395	-0.0631340963	 0.2129667264	-0.512848
H	 0.6033550432	 1.9299735575	-0.8383747065	 0.154785
H	-1.0283745394	 1.9669255327	-0.1160465732	 0.126317
H	 0.436116563	 1.9340471357	 0.9036483526	 0.154773
H	-1.8850261236	-2.6307619758	-0.1876991202	 0.289467
H	 3.1006800152	-0.7546925013	 0.2866330706	 0.225088
79.0755	151.6917	184.2241	261.3171	262.2917	344.6868	381.491	489.6277	525.4216	551.9243	565.9724	638.4437	677.4053	774.3235	900.3663	900.5272	926.0603	1025.631	1061.8976	1078.6768	1189.9059	1223.4287	1299.0078	1350.2746	1410.7392	1460.6352	1470.4537	1480.3549	1590.3445	1688.7157	1746.4215	3045.0473	3098.8094	3141.9481	3466.8229	3655.3831
CC1=C(F)NN=NC1=N	Cc1c(F)[nH]nnc1[NH]	
InChI=1S/C4H5FN4/c1-2-3(5)7-9-8-4(2)6/h1H3,(H2,6,7,8)	InChI=1S/C4H10FN4/c1-2-3(5)7-9-8-4(2)6/h2-4,6-9H,1H3
