17
gdb 87930	4.38853	1.04541	0.93945	4.7725	68.66	-0.2659	0.0084	0.2743	1247.0933	0.135016	-458.993868	-458.985584	-458.98464	-459.02726	30.544	
C	 0.0302181394	 1.5317375009	-0.0982405695	-0.425929
C	-0.0208813537	 0.0358514893	 0.0830112315	-0.000899
O	 1.2149643073	-0.6871640956	-0.0447330756	-0.2838
C	 0.5666500675	-0.6653482237	 1.2286094249	 0.361637
C	 1.3067427685	 0.0203576249	 2.3746485367	-0.145164
O	 1.5865170504	-1.0051596409	 3.3363917813	-0.220864
C	 0.9152934183	-2.1617947268	 3.0666052233	 0.437173
O	 1.0039851322	-3.1265958359	 3.7649800499	-0.32861
C	 0.0845551024	-1.9809042965	 1.8006452394	-0.46152
H	 0.8814472589	 1.9722582574	 0.426454607	 0.130164
H	 0.1206494443	 1.7812611234	-1.1600736294	 0.139705
H	-0.8896238887	 1.9931142086	 0.2767999497	 0.129302
H	-0.8605709103	-0.4559088692	-0.4129336659	 0.095721
H	 2.2516679067	 0.4519693633	 2.0383686766	 0.141285
H	 0.7039667539	 0.7977920111	 2.8585831278	 0.122381
H	-0.9739741971	-1.9574299461	 2.0811230892	 0.147694
H	 0.2355557199	-2.8170524642	 1.1161094332	 0.161724
52.6236	145.5547	175.0885	182.8529	228.7931	361.1902	381.4747	465.1382	519.1387	546.5323	554.785	691.8699	760.7974	816.3331	851.5994	898.5419	927.2846	989.3167	1032.1393	1066.2404	1072.1508	1126.9733	1150.5469	1159.371	1183.5874	1242.9312	1248.2352	1252.739	1345.5911	1390.2085	1412.1626	1441.9004	1473.369	1490.4031	1509.8945	1521.9525	1891.3774	3037.2971	3041.4189	3061.9518	3084.9082	3106.0893	3112.8844	3129.0534	3131.0903
CC1OC11COC(=O)C1	C[C@H]1O[C@]21COC(=O)C2	
InChI=1S/C6H8O3/c1-4-6(9-4)2-5(7)8-3-6/h4H,2-3H2,1H3	InChI=1S/C6H8O3/c1-4-6(9-4)2-5(7)8-3-6/h4H,2-3H2,1H3/t4-,6+/m1/s1
