15
gdb 67419	2.80145	1.55929	1.30119	4.3902	71.32	-0.2448	0.0054	0.2503	986.9881	0.113762	-416.744691	-416.737455	-416.736511	-416.776276	28.307	
O	-0.1229213495	 1.3954970849	 0.0984872158	-0.436963
C	-0.0006089893	 0.0490184342	 0.0076884088	 0.353038
C	-1.0536430985	-1.0078438529	-0.0744488415	-0.168949
C	-0.4083229658	-1.644633476	-1.2984394651	-0.24066
C	 0.9135195417	-0.9606833401	-0.8330441584	-0.119455
N	 1.3028066544	-1.6161123241	 0.4473230666	-0.342509
C	 0.0859246456	-1.061196066	 1.0353122547	 0.151023
C	-0.2160172314	-1.0517394259	 2.4240513092	 0.184
N	-0.4655640848	-1.0345273767	 3.5546361773	-0.351048
H	 0.6575988872	 1.7557745919	 0.5377636053	 0.307737
H	-2.0927558752	-0.9457026495	 0.2194543244	 0.120528
H	-0.3939280379	-2.7361840558	-1.387909574	 0.101904
H	-0.7924794313	-1.1966180808	-2.2180785595	 0.123808
H	 1.7166659474	-0.724337342	-1.5272614861	 0.095624
H	 1.3007021274	-2.6360608711	 0.3864449824	 0.221922
114.0537	164.0261	258.0907	322.7479	381.8103	434.139	480.1474	523.2274	555.8213	589.3778	677.3978	707.5345	795.7662	842.6122	913.6998	944.2423	949.3648	970.2263	1017.4963	1033.9577	1074.0808	1106.4198	1119.0061	1164.1887	1218.9231	1253.9806	1263.9833	1291.1857	1342.4407	1355.1088	1480.9234	1508.9693	2343.6176	3045.2049	3113.9333	3147.8244	3219.938	3430.7722	3779.3961
OC12C3CC1NC23C#N	O[C@@]12[C@H]3C[C@@H]1N[C@@]23C#N	
InChI=1S/C6H6N2O/c7-2-5-3-1-4(8-5)6(3,5)9/h3-4,8-9H,1H2	InChI=1S/C6H6N2O/c7-2-5-3-1-4(8-5)6(3,5)9/h3-4,8-9H,1H2/t3-,4-,5+,6-/m0/s1
