15
gdb 64895	2.04895	1.70633	1.10903	6.2533	71.24	-0.3011	-0.0084	0.2927	1087.1248	0.110382	-416.813772	-416.804598	-416.803654	-416.847434	33.1	
C	-0.0420888087	 1.5171616574	 0.043230677	-0.454341
C	 0.0027518703	-0.0033906674	 0.0069892795	 0.096905
C	 1.3272683112	-0.7165696532	-0.2174761094	-0.366072
C	 0.699045207	-0.7403720579	 1.1594515305	 0.232009
O	 1.2089396515	 0.0906716014	 2.1519685647	-0.439053
C	 0.1480471902	-1.9885240868	 1.6468529039	 0.264624
N	-0.2450189438	-2.9889061859	 2.0721755621	-0.332895
C	-1.1714727973	-0.6230352814	-0.5601194825	 0.270953
N	-2.116995895	-1.0885837762	-1.0351868445	-0.333323
H	 0.8490068826	 1.9113665437	 0.5312134582	 0.147289
H	-0.098155591	 1.9094141132	-0.975752492	 0.145521
H	-0.9198273959	 1.8625096462	 0.5950326406	 0.153086
H	 1.3288528872	-1.6303988481	-0.7987159366	 0.163119
H	 2.199979864	-0.082058396	-0.3233476098	 0.145313
H	 1.9831578077	-0.3352591889	 2.5391592382	 0.306867
107.1493	112.3777	175.2436	193.1093	202.2773	266.8513	290.0868	321.5705	406.9561	423.9503	480.866	562.2015	591.3364	628.5037	671.3052	729.2636	867.7736	909.512	938.2035	984.4398	1069.3848	1104.786	1124.3484	1211.4424	1289.9284	1304.6888	1373.4671	1414.5942	1464.5209	1486.8677	1497.6824	2355.5054	2359.1618	3058.4426	3127.8211	3145.9127	3159.423	3247.7181	3793.2871
CC1(CC1(O)C#N)C#N	C[C@]1(C[C@]1(O)C#N)C#N	
InChI=1S/C6H6N2O/c1-5(3-7)2-6(5,9)4-8/h9H,2H2,1H3	InChI=1S/C6H6N2O/c1-5(3-7)2-6(5,9)4-8/h9H,2H2,1H3/t5-,6-/m0/s1
