14
gdb 129392	2.85904	1.61842	1.03376	4.6273	67.07	-0.2298	-0.0292	0.2006	1056.7026	0.103826	-466.210363	-466.202749	-466.201805	-466.242408	28.853	
N	-0.0158346813	 1.3136036396	 0.1274533541	-0.559253
C	 0.0259907608	-0.0454703697	 0.0080045401	 0.320176
N	 1.0715005814	-0.8008208445	-0.0789652809	-0.594067
C	-1.2559226637	-0.7397226254	 0.0137396492	 0.211217
N	-2.4671358021	-0.1775575267	 0.0717687542	-0.313952
N	-3.2759222615	-1.2177339127	 0.0424966919	-0.084235
N	-2.7139384488	-2.4341138237	-0.0304258324	-0.289481
C	-1.4153981504	-2.1467895831	-0.0507421021	 0.350843
O	-0.4527112252	-3.0538567772	-0.1225618174	-0.404188
H	 0.8087644503	 1.852867322	-0.0764758207	 0.256058
H	-0.9060045822	 1.7708385055	 0.0115772583	 0.276726
H	 1.9463821875	-0.2808155686	-0.0755400167	 0.211794
H	-4.276021211	-1.1108629391	 0.0758271765	 0.296173
H	 0.3825337062	-2.5179800863	-0.1268433641	 0.322187
105.1996	194.7378	202.8445	297.0643	348.3526	359.051	450.8947	464.4949	479.4241	567.7314	661.4698	672.4769	697.8385	772.5172	790.0356	804.8779	814.2717	985.4647	1085.0351	1142.7392	1161.3482	1202.1747	1266.205	1336.4688	1403.0898	1482.3119	1512.7728	1585.6382	1604.8112	1640.4518	1701.4696	3283.6551	3503.6382	3595.4853	3679.0952	3719.1986
NC(=N)C1=NNN=C1O	NC(=N)c1n[nH]nc1O	
InChI=1S/C3H5N5O/c4-2(5)1-3(9)7-8-6-1/h(H3,4,5)(H2,6,7,8,9)	InChI=1S/C3H5N5O/c4-2(5)1-3(9)7-8-6-1/h(H3,4,5)(H2,6,7,8,9)
