16
gdb 55581	4.30991	0.76319	0.74021	2.4454	68.41	-0.2635	-0.0369	0.2267	1537.1144	0.120232	-475.067157	-475.0573	-475.056355	-475.104187	32.925	
C	 0.7292102236	 0.8142218852	-0.2103165874	-0.477261
C	-0.5346029587	 0.1032140622	 0.1763230246	 0.384411
N	-1.340854068	 0.3162946941	 1.1151009561	-0.42953
O	-0.9065613646	-0.9129403185	-0.7254862914	-0.23477
C	-0.176704571	-2.0528046285	-0.7522416418	 0.437604
O	 0.7874861141	-2.263179536	-0.0634578292	-0.35298
C	-0.7415699575	-3.0304924342	-1.7593536606	-0.396887
C	 0.3598545236	-3.768620205	-2.5105836376	 0.163019
O	 0.2710208612	-4.0831792727	-3.666567723	-0.232437
H	 1.5738495758	 0.1236582224	-0.1448089902	 0.176047
H	 0.6596380664	 1.1651737837	-1.2449713186	 0.150812
H	 0.9089582568	 1.6672951215	 0.446219817	 0.134144
H	-1.0309088579	 1.1075871295	 1.6788372284	 0.236182
H	-1.296515468	-3.7862065581	-1.1847965461	 0.172526
H	-1.4359154293	-2.5604667662	-2.4557885852	 0.154872
H	 1.2518504136	-4.0047997594	-1.895729275	 0.114249
29.0402	47.2937	80.8616	99.309	160.5316	166.3462	249.8396	320.9215	435.1415	465.4413	519.7618	570.447	591.8579	727.1274	781.8864	819.2193	909.4634	975.8576	1001.1074	1046.4861	1054.8899	1067.8846	1079.271	1153.4132	1221.8145	1303.3023	1334.3553	1402.1281	1410.1848	1434.1603	1469.9852	1487.3201	1773.576	1816.2967	1843.825	2937.4436	3029.8839	3050.3104	3122.3768	3143.0768	3145.8665	3496.4226
CC(=N)OC(=O)CC=O	C[C]([NH])OC(=O)CC=O	
InChI=1S/C5H7NO3/c1-4(6)9-5(8)2-3-7/h3,6H,2H2,1H3	InChI=1S/C5H7NO3/c1-4(6)9-5(8)2-3-7/h3,6H,2H2,1H3
