15
gdb 24524	3.90653	1.71004	1.18939	3.6045	84.84	-0.1991	-0.0479	0.1512	965.7741	0.11824	-379.748043	-379.742066	-379.741121	-379.778149	24.854	
N	-0.0094577698	 1.3213632301	 0.0097878541	-0.367382
C	 1.1195414469	 2.0725328307	 0.002907996	-0.022802
C	 2.3576678809	 1.4671125965	-0.0127929691	-0.135424
C	 2.4710137935	 0.0628083113	-0.0219294802	-0.225663
C	 1.325862162	-0.7107710775	-0.0150189382	 0.289301
C	 0.9697821954	-2.0859265089	-0.0193278926	-0.317195
C	-0.4148974121	-2.1007606136	-0.0057736065	-0.031854
N	-1.0052367504	-0.8504986539	 0.007235299	-0.38
C	 0.0317388097	-0.0368175136	 0.0016271935	 0.375007
H	-0.9209063983	 1.7603023897	 0.0213064398	 0.275927
H	 0.9799269528	 3.1447725877	 0.0104101929	 0.136121
H	 3.2412294663	 2.092313202	-0.017959797	 0.107138
H	 3.4567679795	-0.3926197241	-0.034271603	 0.109733
H	 1.6364142237	-2.9343805285	-0.0307435542	 0.089198
H	-1.0499587501	-2.9783589779	-0.0045144644	 0.097895
222.2138	257.2728	404.6871	427.5164	559.6022	579.7254	611.0552	612.4639	731.5203	748.1755	761.8036	764.5933	802.5596	890.0894	893.1442	916.5314	917.9366	963.6198	1051.197	1077.9995	1117.3566	1160.5842	1216.4134	1239.952	1302.5633	1346.1997	1394.6048	1446.2009	1483.1918	1496.8507	1546.9958	1624.5992	1655.9195	3174.8018	3209.2772	3213.2084	3233.2394	3251.6002	3594.0168
N1C=CC=C2C=CN=C12	[nH]1cccc2ccnc12	
InChI=1S/C7H6N2/c1-2-6-3-5-9-7(6)8-4-1/h1-5H,(H,8,9)	InChI=1S/C7H6N2/c1-2-6-3-5-9-7(6)8-4-1/h1-5H,(H,8,9)
