16
gdb 128111	2.67457	1.2969	0.88008	6.592	76.91	-0.217	-0.0239	0.1931	1259.3062	0.125401	-434.094207	-434.085537	-434.084593	-434.127835	30.886	
C	-0.0611152574	 1.4673559581	 0.0983256961	-0.346593
N	-0.0193917068	 0.0387260847	-0.1530971829	-0.386364
C	-1.1416703724	-0.7343137844	-0.0531596155	 0.404221
C	-1.299156371	-2.1305218462	-0.0043843137	 0.015469
C	-0.2685016269	-3.1390949633	-0.0011967063	 0.057598
O	-0.4544966254	-4.3391178304	 0.0448324583	-0.30038
C	-2.7114418525	-2.3133811912	 0.0427617978	-0.053888
N	-3.3747904789	-1.1790309844	 0.0276475504	-0.234187
N	-2.3906099068	-0.2189367691	-0.0265281791	-0.277663
H	 0.9485444231	 1.8703016219	 0.0064951042	 0.147448
H	-0.6813377897	 1.9703518412	-0.6528454702	 0.140164
H	-0.4477130545	 1.7194678814	 1.0969027694	 0.132485
H	 0.8375625025	-0.4302153001	 0.0906570642	 0.26159
H	 0.7755968562	-2.7389716035	-0.0459738617	 0.026053
H	-3.2359006456	-3.2560865762	 0.0867632685	 0.140509
H	-2.6620762639	 0.7481017416	-0.0542856195	 0.273537
83.0318	145.4283	166.026	172.5802	223.1142	235.1549	329.3647	362.7989	444.7671	454.4288	580.8571	669.5693	694.9321	722.9176	805.4751	920.0754	947.1333	1026.5531	1066.7764	1078.0049	1146.4532	1165.9204	1213.1756	1233.8354	1338.0809	1373.4047	1422.534	1457.9023	1467.4107	1488.1724	1509.1122	1528.6303	1580.8413	1637.8052	1775.2272	2798.1528	2994.3709	3059.9281	3136.5291	3259.3689	3641.0242	3687.8892
CNC1=C(C=O)C=NN1	CNc1c(C=O)cn[nH]1	
InChI=1S/C5H7N3O/c1-6-5-4(3-9)2-7-8-5/h2-3H,1H3,(H2,6,7,8)	InChI=1S/C5H7N3O/c1-6-5-4(3-9)2-7-8-5/h2-3H,1H3,(H2,6,7,8)
