19
gdb 106563	2.02733	1.60668	1.22622	3.3595	71.7	-0.2478	0.0661	0.314	1116.0839	0.157397	-460.0914	-460.082174	-460.08123	-460.125279	34.544	
C	 0.0220287519	 1.2608774909	 0.0740096149	-0.263794
O	-0.0669080981	-0.1514166628	 0.0128053414	-0.283734
C	-1.3467084358	-0.6437896387	 0.0165535088	 0.365426
C	-2.4917068222	-0.4231109721	-1.0383727994	-0.340247
C	-3.0704778039	-1.4167943226	 0.0058448878	-0.165842
C	-1.6903370067	-2.1614660663	-0.0016224663	 0.128888
O	-1.3047768937	-2.9837524831	-1.0626781208	-0.451866
C	-2.4593869448	-0.4798962608	 1.0953254682	 0.073777
O	-2.1498372675	-0.9737558944	 2.3711930337	-0.437817
H	 1.0842357287	 1.5129107363	 0.0589751738	 0.132388
H	-0.4697518824	 1.7355593639	-0.7869133229	 0.110267
H	-0.425495931	 1.6539050109	 0.9968403437	 0.119901
H	-2.9487673265	 0.5693135262	-1.0770078869	 0.0968
H	-2.3296245382	-0.8010261997	-2.0496434246	 0.089108
H	-4.0657256361	-1.8554796051	 0.00362574	 0.080627
H	-1.4526921715	-2.7006555797	 0.9127836772	 0.106768
H	-1.3257502678	-2.4847970656	-1.8850385287	 0.283199
H	-2.9200317679	 0.5153008884	 1.1409513444	 0.068613
H	-2.9650643767	-1.0346510956	 2.8786755957	 0.287537
63.7988	152.192	172.1514	204.1774	233.8481	255.7923	275.1272	299.3916	382.9208	449.7458	501.7633	569.2835	639.9453	687.3762	762.6998	832.6397	863.0892	932.2394	939.92	956.8089	1028.5275	1063.2866	1075.8063	1123.7285	1138.0994	1150.7937	1167.8225	1177.8394	1180.9456	1214.7195	1220.4512	1256.8571	1284.299	1296.137	1329.2035	1426.2998	1460.8927	1488.095	1489.504	1504.0162	1531.5232	2994.2259	3019.5055	3050.0692	3061.9197	3117.1457	3126.056	3143.8273	3151.3391	3820.6715	3820.9193
COC12CC(C1O)C2O	CO[C@@]12C[C@@H]([C@H]1O)[C@H]2O	
InChI=1S/C6H10O3/c1-9-6-2-3(4(6)7)5(6)8/h3-5,7-8H,2H2,1H3	InChI=1S/C6H10O3/c1-9-6-2-3(4(6)7)5(6)8/h3-5,7-8H,2H2,1H3/t3-,4-,5-,6-/m1/s1
