25
gdb 121106	4.61881	0.71217	0.66194	1.5244	90.11	-0.2371	0.0847	0.3218	1842.3835	0.228862	-389.51537	-389.504971	-389.504027	-389.551712	38.098	
C	 0.0536378214	 1.5732552676	-0.060723012	-0.381718
C	 0.007102911	 0.0435826073	-0.0354188422	-0.163792
C	-1.4201252646	-0.5126192736	 0.0083295749	-0.178753
C	-1.4777093797	-2.0370945231	-0.0011297339	 0.142018
C	-2.8893146153	-2.6372229471	 0.0400938525	-0.253607
C	-2.7223243642	-3.9564128122	-0.7298426936	 0.016311
C	-4.0086401287	-4.5610058435	-1.2859508377	-0.411986
C	-1.7057911934	-3.5323021636	-1.799739634	-0.066858
O	-0.8779248213	-2.5379736565	-1.208587729	-0.280442
H	 1.0842509257	 1.9408119698	-0.0912169935	 0.10978
H	-0.4664126914	 1.970714812	-0.9396935136	 0.112375
H	-0.4261583208	 2.0023049512	 0.8265850187	 0.108827
H	 0.512126806	-0.3620305713	-0.9185465689	 0.117156
H	 0.5650140217	-0.3268412639	 0.83516928	 0.088845
H	-1.9337369828	-0.1507097023	 0.9101230008	 0.086688
H	-1.9907052227	-0.1384953604	-0.852381527	 0.091121
H	-0.889392507	-2.4195176671	 0.8500533613	 0.062207
H	-3.25774946	-2.7728203573	 1.0604524946	 0.099267
H	-3.5947668387	-1.9816948039	-0.4874808975	 0.095115
H	-2.239007523	-4.6859569321	-0.0667307169	 0.077363
H	-4.522711204	-3.8508138981	-1.9437986273	 0.115833
H	-3.8049232031	-5.4670526592	-1.8668429034	 0.116102
H	-4.7002393648	-4.8329013042	-0.4821267324	 0.116864
H	-1.0746914284	-4.3599126364	-2.1441872506	 0.098493
H	-2.2259269619	-3.1187661221	-2.6797552092	 0.082791
34.5495	90.9682	92.7923	114.2217	184.9752	229.5342	248.1526	277.9416	309.9373	382.6251	429.5235	480.8835	560.9156	668.407	745.4207	825.5224	859.5193	878.2442	903.6342	918.8696	953.1216	960.7086	1001.3827	1036.7642	1059.4496	1071.7681	1093.0945	1129.8804	1148.1976	1168.8151	1183.6446	1199.2595	1255.5984	1268.1474	1273.4487	1306.6531	1328.0483	1335.8949	1356.4166	1369.8615	1383.7641	1405.5532	1410.7993	1416.1243	1416.5792	1471.8179	1491.1939	1494.1923	1497.4056	1499.9637	1500.7735	1510.4568	1527.8135	2953.185	2964.28	3006.2244	3014.6861	3019.8304	3025.8464	3026.4214	3030.264	3046.5305	3050.7555	3071.5338	3092.8927	3095.9094	3097.5406	3099.2642	3100.5512
CCCC1CC(C)CO1	CCC[C@H]1C[C@@H](C)CO1	
InChI=1S/C8H16O/c1-3-4-8-5-7(2)6-9-8/h7-8H,3-6H2,1-2H3	InChI=1S/C8H16O/c1-3-4-8-5-7(2)6-9-8/h7-8H,3-6H2,1-2H3/t7-,8+/m1/s1
