19
gdb 82772	2.84434	1.84285	1.50429	2.4064	72.53	-0.2398	0.0717	0.3115	934.3857	0.163142	-423.014256	-423.007724	-423.00678	-423.044817	27.991	
O	 0.0280516022	 1.4372359426	 0.0753012872	-0.455219
C	 0.0459060607	 0.0340499833	-0.0129484484	 0.178768
C	 0.5393737824	-0.6086341926	 1.3038546318	 0.012344
O	-0.5171557924	-0.1268601752	 2.2008976549	-0.321372
C	-1.3404218021	-1.0946869433	 1.4848455373	 0.078088
C	-0.1139016456	-2.0239403798	 1.3181952345	-0.021964
C	-0.2249584465	-2.782927387	-0.0064377048	-0.252615
C	-1.2928166446	-1.9601780053	-0.7947061637	-0.227816
C	-1.3665870632	-0.6419764315	-0.00937323	-0.090657
H	-0.3435417091	 1.6268220831	 0.9485942263	 0.282613
H	 0.6384355668	-0.2244463655	-0.8943952535	 0.079783
H	 1.5490124562	-0.388027557	 1.650942454	 0.082455
H	-2.2676479132	-1.3563658116	 1.9936703825	 0.083107
H	 0.1582350821	-2.5982214136	 2.2032930242	 0.081671
H	 0.7337152593	-2.8291317215	-0.5329132395	 0.10756
H	-0.5460598849	-3.8157937021	 0.1539800957	 0.105175
H	-1.0230680714	-1.8031789183	-1.8430266206	 0.105234
H	-2.2597898157	-2.4754631931	-0.7840579183	 0.100845
H	-2.1636934009	 0.0403078284	-0.3044795494	 0.072001
183.3533	254.157	336.0751	347.0917	437.6875	538.0207	576.7286	606.2079	700.4637	755.0741	807.6899	809.1362	860.4592	874.2018	883.3876	903.7921	922.0552	944.039	982.7786	998.2	1024.5729	1035.4983	1065.3427	1118.8419	1120.7092	1149.4175	1196.7496	1212.1295	1227.6318	1243.6383	1254.7808	1264.6283	1289.8774	1302.3068	1307.9229	1327.5909	1344.5352	1367.4637	1450.2916	1489.9474	1508.6127	3040.1388	3051.9564	3080.9083	3081.8165	3098.2478	3116.1331	3119.1412	3124.3755	3133.3032	3742.0806
OC1C2OC3C2CCC13	O[C@H]1[C@H]2O[C@@H]3[C@H]2CC[C@H]13	
InChI=1S/C7H10O2/c8-5-3-1-2-4-6(3)9-7(4)5/h3-8H,1-2H2	InChI=1S/C7H10O2/c8-5-3-1-2-4-6(3)9-7(4)5/h3-8H,1-2H2/t3-,4-,5-,6+,7+/m1/s1
