21
gdb 60591	3.49297	0.97365	0.83728	2.1062	78.01	-0.2451	0.0733	0.3184	1409.1964	0.18188	-424.17768	-424.168406	-424.167462	-424.212656	33.593	
C	 0.1660422017	 1.414612809	-0.2686672936	-0.420857
C	 0.092766998	-0.1049370171	-0.074418699	-0.044978
C	 0.9073843919	-0.5997989546	 1.110250885	 0.094038
C	 2.0266215044	 0.1221367215	 1.7281511851	-0.189502
O	 0.7408621373	 0.0914205117	 2.3535830809	-0.237832
C	-1.3594113916	-0.5665543269	 0.0915243707	-0.001317
C	-2.2959817577	-0.4593234561	-1.1335421879	-0.097478
O	-2.5856148971	-1.8707704457	-1.0972696496	-0.273027
C	-1.6643208941	-2.0802077731	-0.0092767211	-0.096427
H	 1.1677575049	 1.7363547422	-0.5672684476	 0.115804
H	-0.5265856563	 1.7378207251	-1.0513187813	 0.118944
H	-0.0998701447	 1.9315035944	 0.6581955167	 0.13855
H	 0.5010822582	-0.5996397956	-0.9686168342	 0.078855
H	 0.9105027717	-1.6864095119	 1.2229043982	 0.092771
H	 2.8074231119	-0.4391553831	 2.2400074287	 0.11499
H	 2.3332358264	 1.092588099	 1.3448879087	 0.116164
H	-1.7804843181	-0.1104804114	 0.9914734996	 0.095328
H	-3.1997866555	 0.148888358	-1.0096126024	 0.102908
H	-1.7993366284	-0.1677450405	-2.070277676	 0.094311
H	-0.8129864896	-2.7074667964	-0.3114186305	 0.092481
H	-2.1502084431	-2.5414074085	 0.8584765296	 0.106271
61.6886	79.2455	90.1467	154.0769	220.8063	245.0973	284.7606	327.0182	400.0076	455.712	599.6823	736.8015	785.8951	852.6819	871.1822	896.752	935.9101	966.9782	988.1425	992.9771	1018.9515	1046.6046	1070.4223	1086.9373	1114.0343	1149.733	1160.3183	1167.9402	1168.7925	1181.8927	1208.4498	1273.4955	1288.7325	1297.6441	1314.1427	1360.1961	1370.0548	1396.0233	1402.5158	1438.09	1494.5859	1510.1219	1512.7435	1534.9847	1537.8274	2989.2766	2994.372	3002.5629	3042.5436	3046.7571	3049.1221	3080.4445	3081.0107	3092.0175	3109.3158	3118.9501	3179.0865
CC(C1CO1)C1COC1	C[C@@H]([C@H]1CO1)C1COC1	
InChI=1S/C7H12O2/c1-5(7-4-9-7)6-2-8-3-6/h5-7H,2-4H2,1H3	InChI=1S/C7H12O2/c1-5(7-4-9-7)6-2-8-3-6/h5-7H,2-4H2,1H3/t5-,7-/m1/s1
