16
gdb 48389	2.29518	1.67698	1.20664	3.2114	73.26	-0.2653	-0.0502	0.2151	1040.5956	0.123777	-400.736685	-400.728645	-400.7277	-400.769459	29.842	
O	-0.1904899731	 0.1218441168	-0.4009066981	-0.243988
C	-0.0218273953	 1.213265898	 0.0737456077	 0.124304
C	 1.3132373631	 1.9513618297	 0.0256592527	 0.053712
C	 2.5640446145	 1.159821509	-0.502317789	-0.29246
C	 2.6554306699	 2.1152921508	-1.6988788941	-0.025396
C	 1.382321053	 2.0904566469	-2.4896151182	-0.297769
C	 1.4322674886	 2.8935026921	-1.2179702412	-0.091269
C	 1.5415826653	 2.6538772364	 1.2785825057	 0.231529
N	 1.6970841149	 3.2085051644	 2.2812817956	-0.329647
H	-0.8514937071	 1.7888066962	 0.5359625174	 0.108007
H	 3.4038434826	 1.2375613118	 0.1878808253	 0.136819
H	 2.3630327522	 0.1107584718	-0.7282173245	 0.137037
H	 3.5786493911	 2.5123143184	-2.0997131469	 0.104752
H	 1.3808477139	 2.6958659722	-3.3899582743	 0.127127
H	 0.7879649929	 1.1838949406	-2.5549807432	 0.140826
H	 1.2486370136	 3.9587127148	-1.1746066449	 0.116416
90.948	134.7404	166.7334	192.531	246.2713	343.1496	439.8193	481.5884	527.8222	562.4255	649.8743	759.6436	793.9643	843.1061	885.7911	926.1583	938.4227	972.6454	987.329	1049.1999	1068.5114	1084.4366	1101.4606	1138.6282	1152.1566	1205.6699	1224.118	1258.4016	1291.5034	1351.5788	1417.6433	1477.617	1495.3452	1825.8662	2350.9176	2913.2882	3084.7791	3127.4088	3147.9203	3198.6448	3205.8805	3218.0973
O=CC1(CC2CC12)C#N	O=C[C@]1(C[C@H]2C[C@@H]12)C#N	
InChI=1S/C7H7NO/c8-3-7(4-9)2-5-1-6(5)7/h4-6H,1-2H2	InChI=1S/C7H7NO/c8-3-7(4-9)2-5-1-6(5)7/h4-6H,1-2H2/t5-,6-,7+/m1/s1
