23
gdb 115358	3.36614	0.95871	0.85591	1.3687	88.12	-0.2338	0.0309	0.2647	1457.6506	0.206799	-388.308888	-388.299418	-388.298474	-388.343043	36.313	
C	-0.2501369028	 1.5436257505	 0.0232147057	-0.38516
C	 0.0074761227	 0.0242655741	-0.0104024105	-0.007226
C	 0.7569891232	-0.4233055449	-1.2822688623	-0.226999
C	 2.2729274409	-0.2263194778	-1.1573701167	-0.2211
C	 2.8417745342	-1.0498589329	 0.007114714	-0.007988
C	 4.2929996042	-0.6631601516	 0.301983123	-0.093817
O	 4.8124591789	-1.5785427537	 1.2567243938	-0.422741
C	 1.9802665192	-0.9155816295	 1.2393649809	-0.049955
C	 0.7388951307	-0.4309677303	 1.2297455367	-0.077722
H	 0.6875348081	 2.1069437612	-0.023741908	 0.115826
H	-0.8764650508	 1.8521204336	-0.8208270437	 0.108304
H	-0.7615210687	 1.8358343922	 0.9464263052	 0.111227
H	-0.9790024863	-0.4613515022	-0.012067348	 0.07329
H	 0.5552658153	-1.4871464708	-1.4596447921	 0.095029
H	 0.3717978368	 0.118876522	-2.1534075224	 0.086091
H	 2.7710373202	-0.502888267	-2.0936251642	 0.089902
H	 2.4947261019	 0.8362226547	-0.9887229854	 0.095674
H	 2.8683715814	-2.1113676968	-0.2855912624	 0.088771
H	 4.8763024852	-0.6939829639	-0.6327547018	 0.082092
H	 4.3269710501	 0.3707503011	 0.6815673188	 0.085238
H	 5.684994936	-1.2752038266	 1.5226075559	 0.286677
H	 2.4363114293	-1.2386415534	 2.1709187495	 0.096524
H	 0.1934227903	-0.342103348	 2.168015044	 0.078064
66.3503	119.3185	195.4746	207.6577	224.9816	248.9116	260.5454	345.9758	376.1095	403.1092	487.5297	540.7754	580.517	717.427	755.7952	784.4423	826.8022	891.5632	941.681	959.5839	981.8397	1011.6773	1021.2906	1049.0645	1066.3967	1087.9011	1114.6277	1115.795	1144.6093	1184.811	1212.542	1247.2205	1257.8056	1269.4486	1318.4629	1339.3045	1344.4969	1358.6471	1375.911	1383.0144	1399.6495	1424.8168	1453.6578	1482.3147	1491.3222	1497.1024	1501.4686	1519.1022	1719.8602	2960.2994	2977.5423	2991.9366	2998.1163	3016.5381	3023.9883	3028.9429	3060.0626	3065.8536	3096.7979	3101.9614	3133.1218	3175.5625	3834.7816
CC1CCC(CO)C=C1	C[C@H]1CC[C@@H](CO)C=C1	
InChI=1S/C8H14O/c1-7-2-4-8(6-9)5-3-7/h2,4,7-9H,3,5-6H2,1H3	InChI=1S/C8H14O/c1-7-2-4-8(6-9)5-3-7/h2,4,7-9H,3,5-6H2,1H3/t7-,8+/m1/s1
