18
gdb 88399	2.07922	1.34329	0.89944	3.358	77.48	-0.2719	-0.0509	0.221	1293.5557	0.145529	-401.956096	-401.94644	-401.945496	-401.991634	33.851	
C	 0.2419890368	 1.5796345432	-0.3421088269	-0.413706
C	 0.0448196839	 0.1082368885	-0.0412642734	-0.006757
C	 1.2028716074	-0.8586833516	-0.082499886	-0.30114
C	 0.5278875392	-0.5516043643	 1.2326166946	-0.007242
C	 1.2557385154	 0.2380172359	 2.3236580248	-0.261771
C	 0.2049939456	 0.9103604638	 3.2251487499	 0.17157
O	-0.0996214535	 2.0658837812	 3.1264121921	-0.232177
C	 2.1168693506	-0.6364674095	 3.1222821732	 0.270207
N	 2.768944324	-1.3292649508	 3.7784774228	-0.309178
H	 1.2478491173	 1.9226055605	-0.0826492193	 0.119021
H	 0.1068309182	 1.7644373221	-1.4127219715	 0.124064
H	-0.4716524588	 2.2030007407	 0.2046725016	 0.141704
H	-0.9030860063	-0.2850552828	-0.399261284	 0.097625
H	 1.0653779725	-1.8461430401	-0.5080345451	 0.125906
H	 2.1916409081	-0.4401587356	-0.243747386	 0.122883
H	-0.1068449301	-1.334767158	 1.6375614817	 0.106766
H	 1.8609482104	 1.0349229062	 1.8839888854	 0.143578
H	-0.2841689306	 0.2266743906	 3.9512617961	 0.108644
46.8658	65.0622	116.3785	157.8715	180.1477	217.9572	244.4176	327.9083	388.358	467.5986	501.1447	523.0795	546.9029	771.7212	832.1926	869.0741	903.3205	944.6336	956.5666	1016.3066	1057.0596	1068.2263	1073.6105	1111.8792	1148.0542	1157.7683	1197.4591	1228.1398	1246.7825	1286.6144	1384.0494	1410.5021	1422.1882	1427.9902	1490.2493	1493.3829	1503.8689	1841.7691	2356.5401	2910.8038	3039.6711	3089.7971	3102.7443	3112.2091	3132.3546	3139.5045	3150.1639	3218.8188
CC1CC1C(C=O)C#N	C[C@H]1C[C@H]1[C@@H](C=O)C#N	
InChI=1S/C7H9NO/c1-5-2-7(5)6(3-8)4-9/h4-7H,2H2,1H3	InChI=1S/C7H9NO/c1-5-2-7(5)6(3-8)4-9/h4-7H,2H2,1H3/t5-,6+,7+/m0/s1
