21
gdb 66582	2.83902	1.84778	1.55609	0.1424	84.41	-0.2297	0.0951	0.3248	970.0775	0.185254	-349.927007	-349.919853	-349.918909	-349.958117	30.077	
C	 0.0224238538	 1.4782379316	 0.073719469	-0.516003
C	 0.0105216282	-0.0180299239	-0.0148747636	 0.369235
C	-0.9424806078	-0.894226249	 0.8198693086	-0.119755
C	 0.5577637612	-1.0429415789	 0.9519436803	-0.160811
C	 0.4409102936	-2.0694374088	-0.2296318196	-0.081318
C	-1.0962419503	-2.1954772057	 0.0200014882	-0.013868
C	-1.8183859836	-2.055357238	-1.3267161419	-0.226676
C	-0.8603398372	-1.1614232015	-2.179048025	-0.231723
C	 0.3270075341	-0.8895666754	-1.2439150997	-0.068384
H	 0.9896094876	 1.8903369473	-0.2373827947	 0.115339
H	-0.7492358426	 1.9256467971	-0.5648985247	 0.116893
H	-0.1656137488	 1.8146695674	 1.0994272069	 0.116862
H	-1.6387153952	-0.4467497192	 1.5194155723	 0.074016
H	 1.216185905	-0.9518318849	 1.8036928837	 0.082704
H	 1.0723748695	-2.9359707642	-0.4151182326	 0.059825
H	-1.4006939895	-3.047430034	 0.6317470005	 0.058174
H	-1.9636632564	-3.0339043131	-1.7973997352	 0.091395
H	-2.8114198261	-1.6097635685	-1.20756635	 0.093911
H	-0.5368517605	-1.6843957752	-3.0854969166	 0.091537
H	-1.3376097509	-0.2316403487	-2.5059446663	 0.094571
H	 1.259991786	-0.6062285745	-1.7376635597	 0.054076
155.4113	198.2279	210.1813	288.3956	370.9945	465.9967	584.6414	646.797	692.7043	747.9724	757.2218	797.0805	832.552	842.3429	882.5339	884.1061	895.8912	907.1714	929.0881	961.1261	982.675	1012.8205	1037.1615	1054.9625	1067.1961	1100.5745	1109.7017	1143.2064	1161.1294	1175.5962	1210.683	1239.8898	1244.0407	1253.1329	1263.9303	1281.6532	1322.9459	1335.6906	1355.4161	1408.7108	1431.8177	1482.016	1486.7843	1498.7295	1503.0924	3016.2375	3032.3366	3043.97	3064.5845	3073.5105	3079.2099	3085.9181	3087.0439	3089.0427	3132.6883	3179.75	3218.6821
CC12C3C1C1C3CCC21	C[C@]12[C@@H]3[C@H]1[C@H]1[C@@H]3CC[C@@H]21	
InChI=1S/C9H12/c1-9-5-3-2-4-6(5)8(9)7(4)9/h4-8H,2-3H2,1H3	InChI=1S/C9H12/c1-9-5-3-2-4-6(5)8(9)7(4)9/h4-8H,2-3H2,1H3/t4-,5+,6-,7-,8+,9-/m0/s1
