22
gdb 15082	2.37042	1.54817	1.01683	1.7548	78.09	-0.254	0.086	0.3401	1222.5654	0.199594	-350.191985	-350.182434	-350.18149	-350.226319	35.213	
C	-0.2143108121	 1.5019623577	-0.0453383244	-0.393491
C	-0.0061112353	-0.0140578638	-0.138299004	-0.17567
C	 0.8848931246	-0.479822696	-1.3069019972	-0.00332
C	 2.334404899	 0.0103547103	-1.1498929866	-0.063527
O	 3.1640992063	-0.3138098046	-2.2520083279	-0.428107
C	 0.8415929977	-1.9941788198	-1.4378606268	 0.011648
C	-0.3041448962	-2.6726583212	-2.1413631416	-0.281151
C	 1.0661059044	-2.6793322345	-2.7713107456	-0.291548
H	 0.7159016946	 2.0367549543	 0.1684632953	 0.121363
H	-0.6193117871	 1.9029933022	-0.9813125346	 0.115483
H	-0.9212396548	 1.7478960528	 0.7532740841	 0.11264
H	 0.4176730696	-0.3853748619	 0.8052950689	 0.091968
H	-0.9819190548	-0.5033013712	-0.2405865813	 0.099583
H	 0.4930359126	-0.0470045805	-2.2391197	 0.070633
H	 2.3621288838	 1.1011277186	-1.0744814768	 0.104961
H	 2.7484167157	-0.3896742207	-0.207173622	 0.077533
H	 3.1243606553	-1.2687106516	-2.3656437613	 0.287287
H	 1.2317683598	-2.5207747168	-0.5679368453	 0.080783
H	-0.6868370709	-3.6015902068	-1.7337666455	 0.112257
H	-1.062132442	-2.0414343811	-2.5942025508	 0.113667
H	 1.2207249423	-2.0516470963	-3.6425139998	 0.124842
H	 1.6157565974	-3.6146175992	-2.7917817368	 0.112166
76.8477	97.5009	125.0588	169.3236	209.0975	224.2052	277.2984	317.5307	397.1981	402.576	454.4066	516.4046	749.3326	781.4762	816.9065	828.7649	895.7706	928.643	939.0144	990.0513	994.3024	1046.6959	1055.4262	1078.92	1084.4396	1106.355	1144.4105	1153.5465	1175.3845	1202.3897	1224.5068	1243.7339	1276.8106	1306.2283	1337.7559	1375.0971	1387.719	1414.2848	1422.2598	1435.684	1470.8901	1487.814	1500.2141	1504.7286	1508.1195	1510.2899	2947.3652	3001.3099	3016.2646	3034.0492	3054.1638	3083.0726	3098.7811	3109.1955	3115.637	3127.3792	3132.6709	3206.3548	3221.0738	3818.931
CCC(CO)C1CC1	CC[C@@H](CO)C1CC1	
InChI=1S/C7H14O/c1-2-6(5-8)7-3-4-7/h6-8H,2-5H2,1H3	InChI=1S/C7H14O/c1-2-6(5-8)7-3-4-7/h6-8H,2-5H2,1H3/t6-/m0/s1
