15
gdb 12452	3.54023	1.94715	1.37451	2.8652	62.27	-0.2417	-0.025	0.2167	864.8193	0.119909	-399.817594	-399.810516	-399.809571	-399.849698	25.804	
O	-0.000313218	 0.5277922204	-1.2047610967	-0.290975
C	-0.000506125	 1.2656132793	-0.2509496801	 0.376828
C	-1.2733833053	 1.9955913777	 0.1793632052	-0.314175
C	-1.2689793733	 2.523272417	 1.6080772889	-0.095495
O	-0.4977891243	 3.7199601037	 1.7611418341	-0.218389
C	 0.8197015187	 3.7165996998	 1.4383679157	 0.137676
N	 1.5957799197	 2.8456651818	 0.9610853629	-0.26285
C	 1.2657591109	 1.483169118	 0.5850562603	-0.269613
H	-1.4387507492	 2.8321438726	-0.5117189593	 0.14926
H	-2.1075528163	 1.3025001095	 0.029548774	 0.139031
H	-2.2782268458	 2.8146151617	 1.9064257378	 0.130071
H	-0.9196146518	 1.7642460267	 2.3183418705	 0.119141
H	 1.2174676637	 4.7061408894	 1.6637075461	 0.128656
H	 1.1784643718	 0.8489963794	 1.4808745749	 0.132906
H	 2.0941447942	 1.072268023	 0.0026390259	 0.137928
41.192	124.8889	265.5189	315.7116	353.7311	464.1835	495.4814	534.6023	560.0257	698.1009	803.5909	847.7	907.4282	962.2831	973.9095	997.8211	1020.0853	1088.717	1145.0212	1203.2661	1219.1972	1260.6139	1291.7238	1337.148	1356.6528	1409.7966	1433.7978	1435.9148	1471.4044	1515.2823	1767.3154	1819.0407	2994.0178	3036.4321	3043.1315	3092.372	3093.9738	3110.0444	3142.9158
O=C1CCOC=NC1	O=C1CCOC=NC1	
InChI=1S/C5H7NO2/c7-5-1-2-8-4-6-3-5/h4H,1-3H2	InChI=1S/C5H7NO2/c7-5-1-2-8-4-6-3-5/h4H,1-3H2
