17
gdb 29543	3.11626	1.74395	1.13388	3.7399	80.77	-0.2099	-0.0068	0.203	1044.7219	0.138525	-380.927301	-380.920055	-380.91911	-380.958785	28.42	
C	-0.0233511494	 1.524795801	 0.0651922346	-0.496289
C	-0.0099769159	 0.0388689913	-0.0272237307	 0.354091
C	-0.0257915158	-0.7809822295	-1.0905064139	-0.21148
C	-0.0004986819	-2.2353215053	-0.6540692867	-0.408686
C	 0.0322476502	-2.0904841012	 0.8401297373	 0.376239
N	 0.0645695849	-2.8470381135	 1.9086120794	-0.365716
C	 0.0792067614	-1.9478756821	 2.9606221655	-0.094293
C	 0.0554525972	-0.6458728969	 2.5164801292	-0.167856
N	 0.0252523721	-0.7538270154	 1.1445387248	-0.038277
H	 0.8678724576	 1.8972600307	 0.5838027984	 0.142266
H	-0.0515586113	 1.9679056137	-0.9320971775	 0.140778
H	-0.8966780138	 1.8787767268	 0.6255078373	 0.14225
H	-0.052835694	-0.4566021386	-2.1203237821	 0.107157
H	-0.8819647637	-2.7898610657	-0.9986797108	 0.143966
H	 0.8757116652	-2.7713647258	-1.0390000546	 0.143963
H	 0.106180878	-2.2896231705	 3.9844023368	 0.105653
H	 0.0574107492	 0.2992776611	 3.0319507831	 0.126233
156.6036	176.8242	214.6602	248.1426	279.1652	507.4929	534.2616	598.2467	631.1466	676.808	698.8892	710.9032	749.194	771.5982	840.5311	943.8004	945.6648	954.8426	1012.5861	1061.2011	1069.2216	1126.0822	1134.2339	1146.8084	1184.6609	1266.4313	1268.7803	1316.301	1398.7529	1416.1029	1447.7104	1451.1962	1475.0146	1490.4076	1498.1903	1585.1461	1699.8243	3029.7769	3035.565	3061.8274	3080.336	3134.1141	3244.9448	3247.3103	3284.0974
CC1=CCC2=NC=CN12	CC1=CCc2nccn12	
InChI=1S/C7H8N2/c1-6-2-3-7-8-4-5-9(6)7/h2,4-5H,3H2,1H3	InChI=1S/C7H8N2/c1-6-2-3-7-8-4-5-9(6)7/h2,4-5H,3H2,1H3
