22
gdb 114208	3.06259	1.07914	0.89165	2.1578	84.19	-0.2146	0.0831	0.2977	1397.7036	0.192127	-404.307777	-404.298025	-404.297081	-404.34248	36.13	
C	 0.0215995883	 1.5333977061	 0.0936572433	-0.382411
C	-0.0981555597	 0.0143546449	-0.0094495576	-0.122476
N	 0.5496843136	-0.4970837006	-1.201667649	-0.086457
C	-0.095384495	-0.2475960357	-2.5124605997	-0.256928
C	 0.2192893458	-1.6930605159	-2.8881807792	 0.4193
C	-0.2555341205	-2.5594629396	-3.9599452806	-0.268428
O	 1.0860531284	-2.0429480649	-3.9515037537	-0.262171
C	 0.5585994355	-1.9680955412	-1.4175173876	-0.029822
C	 1.8611327219	-2.6778344311	-1.0936530836	-0.391645
H	 1.0726715579	 1.8356840288	 0.1011433653	 0.126122
H	-0.4651240792	 2.0263688539	-0.7547419318	 0.118848
H	-0.4558364318	 1.8982033426	 1.0082170854	 0.111986
H	 0.3832038023	-0.452700659	 0.8584716239	 0.10157
H	-1.1683468198	-0.2770950621	 0.0272367676	 0.069322
H	-1.1785355047	-0.0505493105	-2.4447487259	 0.087937
H	 0.3751940695	 0.5295149796	-3.1232518177	 0.116136
H	-0.3426178268	-3.6328450675	-3.7932076347	 0.114637
H	-0.9044170697	-2.158026441	-4.737750017	 0.115119
H	-0.2883866792	-2.4635202901	-0.9102930795	 0.0585
H	 2.68863129	-2.2265876406	-1.6455864838	 0.132898
H	 2.078384579	-2.6124634568	-0.0224989393	 0.113965
H	 1.8018099141	-3.738354279	-1.360756685	 0.113997
68.8391	90.9928	167.8786	186.7238	194.0487	211.8846	266.0991	303.3508	350.9721	372.8606	472.9642	543.2973	553.34	724.5605	799.487	809.7686	833.3258	882.8403	951.0976	965.5511	991.6185	1016.5554	1067.8502	1072.4617	1116.8878	1122.2099	1140.984	1150.0566	1174.237	1183.0474	1208.1343	1212.7343	1276.5068	1304.8632	1322.8834	1371.2177	1395.1101	1405.947	1415.1168	1454.2948	1486.055	1486.6323	1488.6635	1490.5434	1500.6856	1513.8462	1546.2221	2886.8997	2939.0862	2963.3397	3037.052	3037.8806	3043.6829	3067.1511	3076.8171	3101.8107	3104.6496	3118.2947	3130.7274	3161.5086
CCN1CC2(CO2)C1C	CCN1C[C@]2(CO2)[C@H]1C	
InChI=1S/C7H13NO/c1-3-8-4-7(5-9-7)6(8)2/h6H,3-5H2,1-2H3	InChI=1S/C7H13NO/c1-3-8-4-7(5-9-7)6(8)2/h6H,3-5H2,1-2H3/t6-,7+/m1/s1
