18
gdb 19878	3.32245	2.20498	1.96878	2.3692	70.78	-0.2018	0.0703	0.2722	788.3565	0.155881	-343.922776	-343.9159	-343.914955	-343.953555	27.276	
C	-0.3635233094	 1.5196437106	-0.0646425885	-0.305298
N	 0.0620420144	 0.1331102383	 0.0591547708	-0.084858
C	 1.3494692038	-0.399977221	-0.3212925252	-0.042124
C	 2.6232231715	 0.4628781577	-0.3425032428	-0.249178
C	 2.9232635559	 0.8343553787	 1.1115092479	-0.034215
N	 1.9459093215	 1.743895167	 1.7379831506	-0.331525
C	 1.8431825685	 0.286329715	 1.9752270119	-0.050407
C	 0.8572843966	-0.4748854861	 1.1063105597	-0.033231
H	 0.4378893587	 2.2607555749	-0.0309387571	 0.130094
H	-0.9117636758	 1.6136534334	-1.009559342	 0.10516
H	-1.058912217	 1.7471681379	 0.7487703897	 0.117004
H	 1.320172366	-1.244898883	-1.0083441231	 0.082294
H	 3.4454798438	-0.1402178034	-0.7419228385	 0.103693
H	 2.531892343	 1.3480567197	-0.9815665065	 0.114095
H	 3.9566082898	 0.8890304583	 1.4410490494	 0.085747
H	 2.3717729661	 2.184145768	 2.5504218454	 0.229678
H	 2.0385726065	-0.0956417197	 2.9718945613	 0.08106
H	 0.436710896	-1.3794937165	 1.541644757	 0.082014
119.084	177.7743	252.6676	294.81	387.624	449.6467	576.7722	685.9284	705.7878	725.8529	766.0751	836.8634	857.11	884.0027	893.196	944.6862	959.3908	1026.251	1035.7802	1070.5358	1078.6405	1120.7602	1138.7048	1152.7904	1170.9437	1184.7279	1210.0004	1235.0678	1308.6995	1320.0593	1341.3991	1370.0285	1408.6289	1422.3736	1461.4787	1471.9001	1489.3158	1499.596	3025.056	3043.3245	3081.7121	3092.6521	3104.4704	3116.7396	3118.7987	3148.6328	3166.1987	3491.4164
CN1C2CC3NC3C12	CN1[C@H]2C[C@H]3N[C@H]3[C@@H]12	
InChI=1S/C6H10N2/c1-8-4-2-3-5(7-3)6(4)8/h3-7H,2H2,1H3	InChI=1S/C6H10N2/c1-8-4-2-3-5(7-3)6(4)8/h3-7H,2H2,1H3/t3-,4+,5-,6+,8?/m1/s1
