18
gdb 128207	5.30031	0.88705	0.77297	3.3879	78.47	-0.1945	0.0349	0.2294	1483.2813	0.147925	-435.253942	-435.244492	-435.243548	-435.288693	33.54	
C	 0.0602040206	 1.4906083237	 0.0985112238	-0.329517
N	-0.0842953055	 0.0417791491	 0.060138417	-0.394363
C	 0.5614583626	-0.7441106306	 0.9737551096	 0.556072
C	 0.8250798639	-2.08783166	 1.0117612845	-0.486326
C	 1.4724349647	-2.2492526704	 2.2698995793	 0.472472
N	 2.0079769309	-3.40799104	 2.792099394	-0.375453
C	 1.4080727279	-4.6892174974	 2.4604420549	-0.325096
N	 1.5803647572	-1.1174500492	 2.9412613429	-0.277342
O	 1.0006931018	-0.1404763771	 2.0817162887	-0.226598
H	 1.0845067721	 1.8300320816	-0.1086472695	 0.127631
H	-0.6141672724	 1.9258096002	-0.6418895236	 0.126996
H	-0.2259300486	 1.8591368849	 1.0853515386	 0.159658
H	-0.1417243431	-0.3661741002	-0.8593770044	 0.250707
H	 0.5988593288	-2.8287410901	 0.2653274957	 0.097766
H	 2.2553455543	-3.2998779803	 3.7659992398	 0.245274
H	 0.3509538882	-4.7757397915	 2.754428702	 0.117069
H	 1.4773959389	-4.8674180613	 1.3829961298	 0.133486
H	 1.9726515479	-5.4808222613	 2.9588527768	 0.127564
67.9996	88.1995	124.244	153.5629	172.5448	229.5208	238.4718	386.5797	406.3943	471.0401	510.0779	605.0159	678.2232	685.2235	701.8222	753.2769	764.4554	923.5258	987.8654	1016.4076	1073.5395	1092.6938	1147.2325	1152.5579	1163.1072	1182.6529	1229.1478	1357.443	1434.5418	1443.5281	1455.9422	1474.3287	1487.9143	1489.8326	1513.9864	1517.6352	1540.0903	1599.7237	1672.4459	2987.5472	3009.3889	3075.9837	3100.2171	3119.4059	3141.4902	3281.8946	3591.727	3631.256
CNC1=CC(NC)=NO1	CNc1cc(NC)no1	
InChI=1S/C5H9N3O/c1-6-4-3-5(7-2)9-8-4/h3,7H,1-2H3,(H,6,8)	InChI=1S/C5H9N3O/c1-6-4-3-5(7-2)9-8-4/h3,7H,1-2H3,(H,6,8)
