21
gdb 92574	3.86106	1.14096	0.94862	1.3363	84.86	-0.2247	0.0245	0.2493	1273.0555	0.184848	-387.11443	-387.106352	-387.105408	-387.147096	32.2	
O	 0.0226879187	 1.4271575959	 0.0859161839	-0.432223
C	 0.0425746177	 0.0137609913	-0.0134918369	 0.133191
C	-1.4030020716	-0.5225841609	-0.0214642623	-0.249015
C	-1.2540965258	-1.909533919	-0.6636650714	-0.040503
C	-2.3995099071	-2.5794976159	-1.4471183155	-0.242908
C	-1.6904205487	-3.2221883266	-2.6750531125	-0.243054
C	-0.45191974	-2.3588852756	-2.8418218415	-0.242135
C	-0.2129362825	-1.6552362769	-1.7383341779	 0.38464
C	 0.6961530565	-0.5287280579	-1.3273494297	-0.384086
H	 0.9279219649	 1.7340605072	 0.1957450762	 0.281384
H	 0.5734888192	-0.4170417246	 0.8503284475	 0.065128
H	-1.8484867858	-0.5211966073	 0.9767190339	 0.095947
H	-2.0053036712	 0.1309147427	-0.6645969092	 0.10728
H	-0.8524635022	-2.6066901219	 0.0898505461	 0.070223
H	-2.9727360729	-3.3012638913	-0.8588019352	 0.090857
H	-3.0969507517	-1.8098588665	-1.7976716834	 0.100607
H	-1.4246228033	-4.2721960572	-2.4817751192	 0.100374
H	-2.3258345375	-3.2280330749	-3.5678303546	 0.098882
H	 0.1293208892	-2.3350360677	-3.7573673849	 0.083876
H	 0.7086831457	 0.2712434287	-2.0763772743	 0.118617
H	 1.7350655083	-0.8393136114	-1.1658200293	 0.10292
67.0153	149.1705	231.8613	271.0248	303.1286	339.443	431.2671	452.01	502.7309	573.1016	622.2294	686.0711	806.9554	818.2875	843.6113	863.4857	910.2597	919.3709	956.1024	975.6585	994.5749	1037.2525	1060.6358	1086.9879	1099.5108	1129.5979	1162.2235	1185.5983	1197.1426	1222.8389	1236.7013	1260.1864	1277.9258	1293.3744	1307.484	1317.481	1346.3711	1357.8976	1368.1276	1433.1829	1470.7623	1483.5463	1494.2969	1499.8324	1733.1106	2962.2122	2968.3282	2996.3915	3029.556	3036.0515	3040.5256	3057.2688	3068.9379	3093.2815	3100.2315	3186.9592	3819.7593
OC1CC2CCC=C2C1	O[C@H]1C[C@H]2CCC=C2C1	
InChI=1S/C8H12O/c9-8-4-6-2-1-3-7(6)5-8/h2,7-9H,1,3-5H2	InChI=1S/C8H12O/c9-8-4-6-2-1-3-7(6)5-8/h2,7-9H,1,3-5H2/t7-,8-/m1/s1
