15
gdb 131726	4.6045	0.92686	0.78434	0.8493	79.67	-0.2303	-0.0181	0.2121	1383.0458	0.112793	-416.790798	-416.782258	-416.781314	-416.824656	31.019	
O	 0.1380370988	 1.2720728158	 0.4643839837	-0.416918
C	 0.0035322173	-0.0296719552	-0.0894419263	-0.193498
C	-1.4339243947	-0.434009788	 0.0123543086	 0.357554
N	-1.7699637649	-1.7074848798	 0.2242782111	-0.275697
N	-3.1095285489	-1.7109639845	 0.2191578337	-0.282637
C	-3.6512452125	-0.4715529675	 0.0237244532	 0.25276
C	-2.571075609	 0.3872824722	-0.1182572472	-0.39048
C	-5.0438521249	-0.2531662765	-0.0023087219	 0.279821
C	-6.23599763	-0.0839803268	-0.0226519659	-0.434546
H	 1.0286914813	 1.5819863697	 0.2765149579	 0.290436
H	 0.3160932715	-0.0367918498	-1.1465172759	 0.101873
H	 0.6182516533	-0.7735064503	 0.4372337374	 0.111008
H	-3.6086375575	-2.5709785471	 0.3741272962	 0.278529
H	-2.6050105142	 1.4510488912	-0.2777437464	 0.123992
H	-7.2857592657	 0.0752149363	-0.0412789383	 0.197802
46.3424	113.7843	136.2575	210.6115	250.0061	306.8619	437.6215	457.244	525.1704	531.5505	563.8232	571.5293	678.1264	688.721	705.0362	748.2033	842.0435	1003.5782	1028.465	1039.4677	1078.7575	1150.4046	1202.4216	1237.6829	1240.6077	1287.0778	1407.3777	1442.1546	1455.72	1508.9098	1515.4517	1588.4739	2234.5951	2965.2503	3015.9354	3290.5403	3501.6841	3670.3277	3832.714
OCC1=NNC(=C1)C#C	OCc1n[nH]c(c1)C#C	
InChI=1S/C6H6N2O/c1-2-5-3-6(4-9)8-7-5/h1,3,9H,4H2,(H,7,8)	InChI=1S/C6H6N2O/c1-2-5-3-6(4-9)8-7-5/h1,3,9H,4H2,(H,7,8)
