13
gdb 16741	6.10572	1.52255	1.33866	4.0365	60.78	-0.2606	-0.0787	0.182	876.1245	0.095688	-398.592892	-398.586512	-398.585568	-398.623641	23.585	
O	-0.094559691	 0.0358064621	-0.0849749237	-0.22239
C	 0.0422924013	 1.2286712138	-0.035932819	 0.103179
C	 1.3678340005	 1.9136138472	-0.0083943371	 0.293614
N	 2.5214051743	 1.3675551414	 0.0209676302	-0.267891
C	 3.4750529204	 2.4418107631	 0.0149268397	-0.019182
C	 3.4383165911	 3.351544767	-1.200456191	-0.315657
C	 2.6402251413	 3.7256812292	 0.0070882545	 0.055781
O	 1.2959114827	 3.2786643614	 0.02812936	-0.239718
H	-0.8133997235	 1.9333325936	 0.0000512553	 0.103721
H	 4.3988725133	 2.2844623146	 0.5568362714	 0.115939
H	 4.3293485515	 3.9426038373	-1.3795084133	 0.132683
H	 2.9235603489	 3.0015412057	-2.0888632386	 0.13655
H	 2.7991817693	 4.6297790636	 0.5793776815	 0.12337
104.4474	189.9035	213.4272	377.2792	430.1316	498.1993	645.4581	714.5134	742.5961	774.3783	834.1267	917.8138	951.34	978.5857	1027.417	1032.9906	1038.1805	1082.0978	1129.124	1136.0846	1183.3423	1228.2103	1323.1335	1364.7694	1429.5663	1460.5125	1663.3053	1831.0276	2932.4714	3135.6925	3194.2982	3206.3931	3231.3239
O=CC1=NC2CC2O1	O=CC1=N[C@H]2C[C@H]2O1	
InChI=1S/C5H5NO2/c7-2-5-6-3-1-4(3)8-5/h2-4H,1H2	InChI=1S/C5H5NO2/c7-2-5-6-3-1-4(3)8-5/h2-4H,1H2/t3-,4+/m0/s1
