17
gdb 128235	2.73724	1.49411	0.97305	3.2374	85.44	-0.1767	-0.0175	0.1591	1174.9451	0.138548	-414.195482	-414.187092	-414.186148	-414.228698	31.379	
C	 0.0827397159	 1.3887419726	-0.1419572922	-0.324918
N	-0.0498941911	-0.0341200519	 0.0141233198	-0.359073
C	-1.2410742075	-0.6847815914	 0.0497615237	 0.32508
C	-2.4740110624	-0.0971137923	 0.1021813687	-0.123304
N	-3.6069999502	-0.8764044818	 0.159915735	-0.217586
N	-3.6202742895	-2.2025168829	 0.1604990442	-0.19838
C	-2.457149139	-2.7987455434	 0.0980712381	-0.069557
C	-1.166400002	-2.1484259293	 0.0311319146	 0.218107
N	 0.0047653587	-2.6975729893	-0.0460701143	-0.591941
H	 1.1419083622	 1.6501647264	-0.1757116882	 0.134681
H	-0.3921991862	 1.7584169974	-1.0646280867	 0.117168
H	-0.3677214146	 1.9277955445	 0.703403909	 0.123347
H	 0.732507941	-0.6567277456	-0.1368733488	 0.263526
H	-2.6402534079	 0.9711844143	 0.108398124	 0.117091
H	-4.5165986685	-0.4492589936	 0.2054519715	 0.273866
H	-2.4969211916	-3.8844881864	 0.0961684033	 0.108562
H	-0.0676075074	-3.7152198073	-0.0584953118	 0.20333
66.6823	125.189	173.5686	195.0609	305.8829	348.2971	416.9126	463.5738	471.1202	526.1214	533.0906	622.7147	626.5912	770.2893	785.4309	790.5871	817.6936	906.3472	907.5797	1036.7265	1084.2463	1133.3316	1160.7304	1184.2711	1249.4098	1276.3841	1359.3852	1394.0614	1435.0693	1467.2608	1479.7381	1495.4523	1520.7406	1557.5658	1585.524	1639.9463	1679.0982	2975.8759	3021.6695	3127.0576	3169.3905	3225.4989	3465.5159	3579.6011	3659.403
CNC1=CNN=CC1=N	CNc1c[nH]ncc1[NH]	
InChI=1S/C5H8N4/c1-7-5-3-9-8-2-4(5)6/h2-3H,1H3,(H2,6,9)(H,7,8)	InChI=1S/C5H13N4/c1-7-5-3-9-8-2-4(5)6/h4-9H,2-3H2,1H3
