19
gdb 32440	3.09623	1.20817	0.88103	1.3263	80.49	-0.1668	0.0556	0.2224	1321.1165	0.158984	-419.228312	-419.218448	-419.217504	-419.262927	35.842	
C	 0.0277765905	 1.4204242169	 0.0180073182	-0.323677
N	-0.1099524152	-0.0232763344	-0.0453536251	-0.385053
C	 0.5989497795	-0.6836293213	-1.047590374	 0.214982
C	 1.2439344237	-0.1536518764	-2.1226292571	-0.142723
O	 1.7476441068	-1.1813270766	-2.9073583929	-0.190548
C	 1.4157917148	-2.3371850551	-2.2991340623	 0.299782
N	 1.9102277375	-3.4889679615	-2.9034156445	-0.596064
C	 0.7050298027	-2.1232523346	-1.1542074627	 0.079404
C	 0.1289004346	-3.1296768769	-0.209009937	-0.52781
H	 1.0736608152	 1.7587103366	 0.1046255929	 0.108795
H	-0.3916146665	 1.8649196134	-0.8915024875	 0.131555
H	-0.5379660495	 1.8034510962	 0.8706945784	 0.118889
H	-0.0050942255	-0.4668629939	 0.8568719691	 0.231663
H	 1.418366325	 0.8407473807	-2.4892453878	 0.117793
H	 1.9282140919	-3.4095034145	-3.9131951053	 0.252094
H	 1.4014804641	-4.318187761	-2.626963571	 0.249276
H	 0.7146600508	-3.2356400144	 0.7146556168	 0.121367
H	-0.891180957	-2.8549636138	 0.0847608327	 0.130536
H	 0.0753082667	-4.1257459493	-0.662211081	 0.10974
81.2442	107.8907	146.9398	166.7845	188.4575	225.508	251.6081	283.1884	344.8996	379.3222	520.7475	544.1971	567.6467	622.3502	643.0549	700.4412	741.5483	760.0736	782.5697	935.6354	1032.8903	1060.4874	1061.3132	1121.7839	1152.8089	1173.4629	1194.666	1245.7624	1281.3515	1348.9052	1416.8793	1447.568	1455.7799	1477.9093	1480.8966	1503.1512	1510.9151	1526.3008	1621.1304	1645.4564	1704.4165	2967.4022	3003.6701	3053.4762	3059.7369	3084.0393	3116.0049	3305.6373	3532.9776	3572.0386	3633.1694
CNC1=COC(N)=C1C	CNc1coc(N)c1C	
InChI=1S/C6H10N2O/c1-4-5(8-2)3-9-6(4)7/h3,8H,7H2,1-2H3	InChI=1S/C6H10N2O/c1-4-5(8-2)3-9-6(4)7/h3,8H,7H2,1-2H3
