22
gdb 112981	4.68382	0.76678	0.72058	2.1441	83.94	-0.229	0.0766	0.3056	1626.4821	0.193875	-404.296769	-404.287355	-404.28641	-404.331658	35.094	
O	-0.1453193093	 1.4950049727	-0.2123864921	-0.421778
C	-0.0346142286	 0.1371907192	 0.189328508	-0.07954
C	-1.3917074466	-0.5198234499	 0.0056056151	 0.019865
C	-1.8056016485	-0.7213656197	-1.4802648585	-0.245776
C	-1.382453879	-2.2101996272	-1.3734469211	 0.083415
C	-1.3638688233	-2.0670405183	 0.1721998041	-0.271544
N	-2.3214439294	-3.1776010711	-1.9080680776	-0.062304
C	-2.1054727578	-3.5839735332	-3.2948946153	-0.223579
C	-1.7926582133	-4.5131632257	-2.1753864065	-0.224703
H	 0.7179139728	 1.9084005467	-0.1207773314	 0.285293
H	 0.7248061557	-0.3924370459	-0.4107893945	 0.079215
H	 0.2721533079	 0.0558670922	 1.2454570876	 0.082754
H	-2.1199639284	 0.0111258529	 0.6237879971	 0.07673
H	-2.8858264116	-0.6417278663	-1.6225357645	 0.106887
H	-1.2988704214	-0.0967519807	-2.2190339138	 0.101938
H	-0.3654364206	-2.3688468894	-1.7721317326	 0.046924
H	-0.5142837058	-2.5003191504	 0.7088035918	 0.089058
H	-2.2904410288	-2.4523877945	 0.6037087792	 0.11043
H	-3.0016743422	-3.7199185237	-3.8932265345	 0.115502
H	-1.2625260595	-3.1472863334	-3.8285194163	 0.108712
H	-0.740858258	-4.6987110091	-1.96206789	 0.107436
H	-2.4565335645	-5.3403493353	-1.9411784442	 0.115065
54.0365	81.3388	118.7222	163.1912	246.2701	255.166	285.3702	298.3025	434.9083	455.7416	486.6605	630.9159	793.0005	809.404	830.4788	869.0684	900.0287	905.455	936.0702	959.5189	992.0728	1028.5001	1054.9755	1081.0823	1089.0124	1105.5326	1112.7314	1115.6069	1134.7215	1174.5028	1181.9688	1207.6185	1223.0989	1243.6709	1273.0309	1275.5118	1287.2435	1295.1051	1322.8597	1362.5061	1385.8707	1458.9678	1468.641	1492.1789	1492.4459	1518.9196	1519.8764	2934.9535	2952.7072	2978.7082	3051.2953	3066.882	3075.764	3093.4374	3097.9958	3115.048	3125.2984	3176.358	3190.834	3830.1861
OCC1CC(C1)N1CC1	OC[C@H]1C[C@@H](C1)N1CC1	
InChI=1S/C7H13NO/c9-5-6-3-7(4-6)8-1-2-8/h6-7,9H,1-5H2	InChI=1S/C7H13NO/c9-5-6-3-7(4-6)8-1-2-8/h6-7,9H,1-5H2/t6-,7-
