19
gdb 40158	3.79818	1.19795	1.09531	1.4008	75.52	-0.2382	0.0769	0.315	1163.6491	0.159026	-422.991864	-422.983912	-422.982968	-423.024845	31.085	
C	-0.1248820929	 1.3515205189	-0.1906833171	-0.322333
C	 1.2945292349	 0.8583080587	 0.0583218486	-0.345539
C	 0.157922458	-0.098499688	 0.1086111689	 0.452263
C	-0.3636967972	-0.8079996561	 1.3442559951	-0.37891
C	-1.4487108879	-1.6953496097	 0.74110572	 0.395562
C	-2.2118623753	-2.7037268447	 1.4775914742	-0.252155
O	-2.8089038449	-1.455545456	 1.1048683905	-0.267593
C	-1.1379785523	-1.7664141569	-0.7598054625	-0.15445
O	 0.0663669938	-1.0318875836	-0.9473395105	-0.291565
H	-0.6030497136	 1.9606881208	 0.5691336844	 0.113919
H	-0.3865285526	 1.6013722458	-1.2126373572	 0.121402
H	 1.9538559399	 0.7886437459	-0.7995648081	 0.126376
H	 1.7845881343	 1.1278720174	 0.9879253023	 0.114975
H	 0.4264373197	-1.4197078554	 1.7950122139	 0.112192
H	-0.7734546493	-0.1412895178	 2.1049324402	 0.122806
H	-2.5976732531	-3.5805542445	 0.957726258	 0.11412
H	-2.0403100241	-2.8412226615	 2.5451716002	 0.114337
H	-0.9714150428	-2.7837194177	-1.1259023768	 0.111483
H	-1.9765192847	-1.3213141557	-1.314413834	 0.113112
41.5896	123.0711	245.4903	281.3976	343.7513	392.9031	397.7597	433.0868	478.3758	586.0154	758.3396	776.5006	785.0662	825.17	863.9107	906.0589	909.2401	942.5443	957.2648	980.7197	1005.5767	1045.3858	1077.4834	1078.7007	1101.6944	1127.7904	1146.7709	1175.8327	1187.8585	1221.1034	1232.385	1264.7129	1272.4968	1356.9175	1379.5565	1434.7013	1451.858	1475.094	1499.4532	1511.6619	1536.9252	3004.6044	3040.1457	3073.6211	3081.3466	3120.9601	3131.6261	3135.0412	3157.8611	3216.5526	3230.4557
C1CC11CC2(CO2)CO1	C1CC21C[C@]1(CO1)CO2	
InChI=1S/C7H10O2/c1-2-6(1)3-7(4-8-6)5-9-7/h1-5H2	InChI=1S/C7H10O2/c1-2-6(1)3-7(4-8-6)5-9-7/h1-5H2/t7-/m1/s1
