21
gdb 85971	2.57318	1.25235	1.01914	3.1189	77.94	-0.2542	0.0763	0.3305	1249.3893	0.181066	-424.19167	-424.182425	-424.181481	-424.225482	35.473	
C	-0.4678993375	 1.8478073411	 0.2793423196	-0.453741
C	-0.0645382495	 0.3919516712	 0.0489484589	 0.284259
C	 0.9773195558	 0.1168952007	-1.082003213	-0.322434
C	 1.7222303602	-0.8459587348	-0.122693431	 0.183887
O	 3.126994074	-0.8746340365	-0.1127394598	-0.435523
C	 0.9583926028	-0.212082631	 1.0691642812	-0.31156
C	-1.3145227291	-0.4609437397	-0.0466522471	 0.048923
C	-2.0347113986	-0.7210565741	-1.2985586156	-0.188997
O	-1.2262086013	-1.7339262909	-0.6910063728	-0.238404
H	 0.4155454534	 2.4804393914	 0.4106485681	 0.110828
H	-1.0416725333	 2.2406715744	-0.5675555241	 0.117674
H	-1.0867865204	 1.9526126531	 1.1785153801	 0.116713
H	 0.6241917077	-0.2948833759	-2.0292880066	 0.109533
H	 1.5714745736	 1.0148951495	-1.2857383028	 0.084061
H	 1.402263168	-1.8758010036	-0.2905251422	 0.114205
H	 3.442716094	 0.0238040917	 0.0315607455	 0.272737
H	 1.5522556185	 0.5758543874	 1.5470063386	 0.084253
H	 0.573774584	-0.8798156623	 1.8448715708	 0.102773
H	-1.902057784	-0.4822904483	 0.8750450386	 0.090305
H	-3.1073359766	-0.9075739932	-1.2779057826	 0.116257
H	-1.6523139817	-0.3204926901	-2.2360118035	 0.114252
87.1804	97.7357	204.3967	211.9603	220.3088	299.0889	310.2865	334.7989	395.9347	431.3714	479.7665	519.8655	566.6613	720.2505	820.8214	826.745	870.3962	892.9869	932.6158	949.9674	984.2761	992.8612	1033.144	1079.2255	1080.7786	1097.4574	1117.5884	1155.0275	1167.567	1175.4579	1209.3008	1226.6103	1268.7491	1283.0339	1290.4961	1318.6799	1338.1432	1407.9153	1430.6716	1433.5152	1464.0552	1489.0202	1492.6737	1497.9258	1527.9778	3022.1323	3035.6024	3045.3372	3073.3816	3086.6042	3086.9717	3091.8435	3099.0592	3106.9951	3119.8442	3171.7393	3803.7978
CC1(CC(O)C1)C1CO1	C[C@]1(C[C@@H](O)C1)[C@H]1CO1	
InChI=1S/C7H12O2/c1-7(6-4-9-6)2-5(8)3-7/h5-6,8H,2-4H2,1H3	InChI=1S/C7H12O2/c1-7(6-4-9-6)2-5(8)3-7/h5-6,8H,2-4H2,1H3/t5-,6-,7-/m1/s1
