21
gdb 120499	3.21772	0.89277	0.77632	0.9964	81.4	-0.2328	0.0163	0.249	1530.7087	0.18135	-424.230078	-424.220374	-424.21943	-424.265378	35.428	
C	 0.3156765636	 1.5074778673	-0.2821126994	-0.388522
C	 0.0371222975	 0.0341420885	 0.0147527859	 0.09361
O	 0.5284403538	-0.7821954961	-1.0554193773	-0.289959
C	 1.3720158077	-1.8286629457	-0.5593669353	 0.0714
C	 2.7108121088	-1.8309883124	-1.3019196738	-0.177705
C	 2.545445255	-2.0323357501	-2.8025307378	-0.074599
O	 3.8428673882	-2.0652981406	-3.3815113847	-0.424717
C	 1.4767328373	-1.5533672345	 0.9174614362	-0.10051
C	 0.7270590065	-0.5071506201	 1.2396841087	-0.102464
H	 1.3927384947	 1.691094674	-0.3343483174	 0.120427
H	-0.1331733097	 1.7889182998	-1.238882927	 0.124781
H	-0.1126138423	 2.1453420278	 0.4984757074	 0.110149
H	-1.0552348415	-0.106226091	 0.0929801122	 0.078204
H	 0.8729153107	-2.79863608	-0.7385403478	 0.07562
H	 3.2308579727	-0.8846104904	-1.1184097526	 0.105635
H	 3.3415643349	-2.6354628453	-0.9036425801	 0.099709
H	 2.0013812005	-2.9732644248	-2.9918421393	 0.078887
H	 1.9386367239	-1.2135499979	-3.212889307	 0.105558
H	 3.7416083387	-2.1074274509	-4.3366608266	 0.284123
H	 2.0852784971	-2.1524132313	 1.583323876	 0.105929
H	 0.596247622	-0.0772108962	 2.2249562896	 0.104443
50.4676	94.9982	107.0266	137.1828	229.7876	251.4895	258.6615	325.2177	338.7878	402.3736	480.1821	578.3993	693.5491	768.2941	779.2005	808.5827	854.5183	878.6128	948.2306	959.8608	986.4706	1029.134	1046.5156	1076.124	1089.2626	1114.4416	1126.8063	1136.4374	1144.9151	1222.2584	1233.1877	1293.8448	1311.1696	1319.1659	1352.739	1361.53	1375.7481	1388.5562	1400.9348	1459.1067	1480.4044	1486.2671	1495.1372	1530.2904	1691.82	2928.6235	2944.2605	2959.1436	3022.7839	3036.0399	3036.8481	3086.3891	3110.1846	3121.2208	3202.4522	3227.2641	3830.6571
CC1OC(CCO)C=C1	C[C@H]1O[C@@H](CCO)C=C1	
InChI=1S/C7H12O2/c1-6-2-3-7(9-6)4-5-8/h2-3,6-8H,4-5H2,1H3	InChI=1S/C7H12O2/c1-6-2-3-7(9-6)4-5-8/h2-3,6-8H,4-5H2,1H3/t6-,7-/m1/s1
