17
gdb 69410	3.33061	1.19579	1.12928	1.4789	78.96	-0.2473	-0.005	0.2423	1151.8337	0.134275	-384.646987	-384.638736	-384.637792	-384.679629	31.941	
C	-0.1844478886	 1.5533708731	 0.0312276645	-0.491896
C	 0.0981158196	 0.0796991782	-0.0216122353	 0.38728
O	-0.6877004478	-0.75813635	 0.8748324669	-0.296583
C	 0.7255142531	-0.7241642903	 1.0424810506	-0.035423
C	 1.4545894404	-1.9156794778	 0.3957185391	-0.243467
C	 1.1286300053	-1.7281514035	-1.0858419486	-0.084014
C	 0.4091497576	-0.6283766158	-1.3057235553	-0.132785
C	 2.8877807074	-1.9170957389	 0.6686428454	 0.320201
C	 4.0672784765	-1.8974856389	 0.8993930971	-0.470657
H	 0.6409836031	 2.1214733481	-0.41016907	 0.129766
H	-1.0953614582	 1.7931641188	-0.5281641553	 0.13011
H	-0.3243857412	 1.8801576722	 1.0641797286	 0.134024
H	 1.0934616705	-0.3147151034	 1.9794328422	 0.105681
H	 1.0153797052	-2.853155992	 0.7644195775	 0.129207
H	 1.4466762928	-2.4491375449	-1.8288833216	 0.114607
H	 0.0544814455	-0.2847574915	-2.2701397958	 0.10534
H	 5.1097981887	-1.8876673233	 1.10130725	 0.198609
89.1737	141.8312	182.9298	248.3976	286.3745	340.9667	432.0497	447.5421	496.5836	583.4739	615.1803	627.7268	651.295	717.091	769.9249	795.4706	836.3785	910.5945	923.488	960.0517	1013.3522	1030.9131	1044.8263	1061.1662	1097.7894	1142.5536	1232.9142	1244.8468	1260.8495	1307.8009	1357.5596	1409.1595	1442.4562	1483.5774	1494.3518	1667.8884	2236.1005	3016.5994	3037.1733	3099.1028	3127.8034	3152.6166	3196.6992	3221.4908	3503.7281
CC12OC1C(C=C2)C#C	C[C@]12O[C@H]1[C@@H](C=C2)C#C	
InChI=1S/C8H8O/c1-3-6-4-5-8(2)7(6)9-8/h1,4-7H,2H3	InChI=1S/C8H8O/c1-3-6-4-5-8(2)7(6)9-8/h1,4-7H,2H3/t6-,7+,8-/m1/s1
