17
gdb 51414	4.0181	1.00285	0.97546	2.3603	72.54	-0.2449	-0.03	0.2149	1232.0667	0.135273	-421.777252	-421.769561	-421.768617	-421.810608	28.957	
O	-0.3363643952	 0.0207255309	-0.2421241618	-0.236052
C	-0.0064636856	 1.1600960452	-0.0382551261	 0.164361
C	 1.3918299046	 1.7070597549	-0.2208404554	-0.318928
C	 1.4189377944	 2.8684534413	-1.2108354143	 0.012957
C	 0.8267750333	 4.2938101423	-0.9124795311	-0.002034
C	 1.5801065073	 4.7097946093	 0.3656786626	-0.08314
C	 2.8353417946	 4.3856861414	 0.0485064849	-0.078449
C	 2.6542181538	 3.8226129299	-1.3732179665	-0.007387
O	 1.7253166452	 4.7944122626	-1.9542911378	-0.278822
H	-0.7502148207	 1.914232179	 0.3133359187	 0.070855
H	 1.7481751786	 2.0533578034	 0.758009783	 0.119941
H	 2.0385183816	 0.8926688426	-0.561387481	 0.12237
H	 1.0862611122	 2.5445976887	-2.2011675128	 0.105172
H	-0.2201323304	 4.5613224164	-1.0477314754	 0.088326
H	 1.1624049363	 5.1472434932	 1.2601053565	 0.116723
H	 3.7561303682	 4.4760423216	 0.60495594	 0.116923
H	 3.5200896017	 3.5890280873	-1.9909746934	 0.087185
54.5826	61.6024	169.0151	246.769	339.9312	458.654	553.9538	558.0135	608.9707	719.91	762.0323	790.3368	813.3032	854.785	867.5397	881.3023	907.4621	916.1597	943.5902	991.4677	1042.1665	1070.2506	1112.364	1134.9481	1154.7473	1196.0633	1214.4236	1245.6298	1258.7166	1284.3696	1295.489	1319.8989	1383.9886	1431.1192	1462.22	1613.5368	1835.6195	2849.0463	3028.6326	3077.0761	3098.4529	3135.2307	3138.8084	3234.5039	3261.4755
O=CCC1C2C=CC1O2	O=CC[C@H]1[C@H]2C=C[C@@H]1O2	
InChI=1S/C7H8O2/c8-4-3-5-6-1-2-7(5)9-6/h1-2,4-7H,3H2	InChI=1S/C7H8O2/c8-4-3-5-6-1-2-7(5)9-6/h1-2,4-7H,3H2/t5-,6+,7-
