13
gdb 27040	2.43508	1.4995	0.93342	5.5821	65.56	-0.2632	-0.0764	0.1868	1152.2785	0.087717	-493.767191	-493.759318	-493.758374	-493.800048	27.714	
C	 0.1411578078	 1.5108641686	 0.0564712852	-0.493618
C	-0.0352552388	 0.041698083	 0.0481643816	 0.279446
C	-1.1016307392	-0.7766970793	-0.0541940344	 0.132876
O	-0.6543699347	-2.088467306	-0.0011090089	-0.224242
C	 0.696073212	-2.0604191942	 0.134736252	 0.500783
O	 1.429020296	-2.9866141061	 0.2142055792	-0.350194
O	 1.088006202	-0.7288001773	 0.1660275974	-0.232645
C	-2.5192790981	-0.4917405713	-0.1986622031	 0.073555
O	-3.3863071552	-1.3292927269	-0.2809938408	-0.263855
H	 0.7925095032	 1.8204747936	-0.767698552	 0.168264
H	-0.8190492873	 2.0182150819	-0.043590003	 0.156472
H	 0.6154813408	 1.8319249631	 0.9898885764	 0.168253
H	-2.7427833486	 0.5958493508	-0.2275697196	 0.084905
118.5537	152.3073	165.2422	185.1667	225.1737	275.8498	391.7329	472.671	581.0265	628.534	636.7041	717.2278	775.4163	846.5619	933.6227	978.1732	1004.2248	1046.0969	1060.9227	1194.3519	1302.6561	1355.0616	1421.3978	1428.564	1463.89	1478.4185	1714.9631	1791.0139	1957.7737	2903.4899	3044.4373	3101.1913	3150.9626
CC1=C(OC(=O)O1)C=O	Cc1c(oc(=O)o1)C=O	
InChI=1S/C5H4O4/c1-3-4(2-6)9-5(7)8-3/h2H,1H3	InChI=1S/C5H4O4/c1-3-4(2-6)9-5(7)8-3/h2H,1H3
