17
gdb 95103	2.54305	1.57558	1.18934	2.4368	73.79	-0.2645	0.0065	0.2709	1062.1416	0.136977	-418.002107	-417.994093	-417.993149	-418.0346	30.285	
C	 0.1735230819	 1.5945873278	-0.0909635213	-0.413084
C	 0.070941935	 0.0823136168	-0.0009143846	 0.088067
O	 0.7465221906	-0.493900784	-1.1164136847	-0.267691
C	 1.2623377799	-1.7726449446	-0.7763538016	-0.080006
C	 1.5309600621	-1.7193190884	 0.7146169062	-0.118102
N	 2.2354398415	-0.4966819045	 1.1197315129	-0.351357
C	 0.7547203484	-0.5499046043	 1.2166551458	 0.188175
C	 0.1101639818	-0.5379862178	 2.496257345	 0.196266
N	-0.4137572846	-0.5004854278	 3.5274279412	-0.336361
H	 1.2206921789	 1.8995323111	-0.0315364319	 0.144166
H	-0.2422142477	 1.9395726615	-1.0409027975	 0.132873
H	-0.3871025589	 2.0640952773	 0.7229262053	 0.128418
H	-0.9856317804	-0.2320940159	 0.0144412872	 0.084405
H	 0.5397806045	-2.5766369302	-0.9879470699	 0.103766
H	 2.1625644999	-1.9378561523	-1.3758330017	 0.126424
H	 1.6332960364	-2.6295018913	 1.2950961495	 0.12152
H	 2.6358879605	-0.6236491333	 2.0471788801	 0.252521
113.1795	148.5297	178.0367	228.2055	254.6083	338.7125	396.2695	493.1681	511.4611	558.0012	602.7899	661.2715	758.8723	846.0526	862.7384	890.0919	925.2628	996.276	1045.2036	1061.972	1094.1593	1097.2921	1116.2254	1146.0275	1167.1034	1237.9365	1278.6791	1282.4787	1344.5731	1382.8536	1385.9532	1408.9784	1430.0112	1485.4706	1497.8567	1506.816	2349.3985	2971.1015	2986.4399	3050.6399	3084.6475	3124.6514	3140.024	3184.2984	3501.4977
CC1OCC2NC12C#N	C[C@H]1OC[C@H]2N[C@@]12C#N	
InChI=1S/C6H8N2O/c1-4-6(3-7)5(8-6)2-9-4/h4-5,8H,2H2,1H3	InChI=1S/C6H8N2O/c1-4-6(3-7)5(8-6)2-9-4/h4-5,8H,2H2,1H3/t4-,5-,6+/m1/s1
