22
gdb 101160	2.52612	1.05465	0.87165	1.3828	78.96	-0.223	0.0602	0.2832	1418.7395	0.191943	-441.441881	-441.431147	-441.430203	-441.477866	38.928	
C	 0.3117374466	 1.4037814952	-0.062853754	-0.419941
C	 0.1653489277	-0.0704387124	-0.3795958325	-0.002968
C	 0.7480132545	-0.7225512216	-1.5989363914	-0.051578
C	 1.5600944684	 0.0173109637	-2.6361725506	 0.084276
O	 2.5984807778	-0.8179079744	-3.1769891002	-0.449179
C	 0.6929025049	 0.5330130017	-3.7904844826	-0.063535
O	 1.4938629238	 1.0973707035	-4.8042633829	-0.425202
N	 1.2490913922	-1.0452454348	-0.2625718435	-0.110685
C	 2.5891098975	-0.6379161736	 0.139481239	-0.31232
H	 1.2302037476	 1.8491389405	-0.4476127132	 0.127247
H	-0.5298315192	 1.959622854	-0.4897243549	 0.127536
H	 0.2929557858	 1.562813368	 1.0208886732	 0.126861
H	-0.7875083546	-0.4733006519	-0.0345773477	 0.090293
H	 0.176067641	-1.5427135009	-2.0434800455	 0.078674
H	 2.0973983003	 0.8671335999	-2.2093884545	 0.092581
H	 2.2113182849	-1.6822292561	-3.3612735224	 0.283846
H	 0.0761634254	-0.2991560444	-4.1776128408	 0.072642
H	 0.0073899356	 1.3096594783	-3.4341428425	 0.109983
H	 2.2544707606	 0.5057212156	-4.8815194722	 0.285259
H	 2.8872247059	 0.3802023866	-0.1451939887	 0.102986
H	 2.6618654874	-0.7166029057	 1.2287838151	 0.120146
H	 3.310107396	-1.3293807512	-0.3047620572	 0.133078
54.6952	99.5626	115.4111	147.6951	158.9579	200.4989	248.3334	273.1088	293.1473	333.1018	414.8327	435.8096	482.7705	523.0113	561.1899	596.6331	743.179	780.5689	866.6112	927.2482	982.3815	1042.983	1061.2779	1069.4468	1087.8953	1102.3539	1136.7115	1152.8291	1171.8075	1178.4437	1196.6325	1213.7757	1251.9401	1299.4984	1351.1759	1382.618	1390.9178	1414.9711	1418.2647	1438.8516	1446.2688	1460.9707	1482.9867	1496.3602	1503.5758	1506.4588	1508.3095	2934.6079	3004.9386	3039.9959	3048.6432	3066.9915	3074.3222	3091.205	3094.6812	3096.3899	3113.583	3138.6375	3757.1131	3786.2298
CC1C(C(O)CO)N1C	C[C@H]1[C@@H]([C@@H](O)CO)N1C	
InChI=1S/C6H13NO2/c1-4-6(7(4)2)5(9)3-8/h4-6,8-9H,3H2,1-2H3	InChI=1S/C6H13NO2/c1-4-6(7(4)2)5(9)3-8/h4-6,8-9H,3H2,1-2H3/t4-,5-,6-,7?/m0/s1
