21
gdb 106362	3.16385	1.19845	1.04533	1.1566	84.84	-0.2099	0.0279	0.2378	1246.1885	0.182551	-387.059675	-387.05089	-387.049946	-387.092945	34.175	
C	-0.0644678896	 1.4631571857	 0.0589636917	-0.517002
C	-0.0084426121	-0.0235653154	-0.0029846433	 0.348954
C	-0.0107744267	-0.8751163016	-1.0334744898	-0.241169
C	 0.0769457682	-2.2615856175	-0.3691354914	 0.338718
C	 0.0837002754	-3.4912824011	-1.2377475353	-0.208225
O	 1.2055719359	-3.410293947	-2.1087008124	-0.423762
C	-0.9518874295	-2.0680935881	 0.7991538317	-0.265216
C	 0.0831593222	-0.9686917558	 1.213828824	-0.122908
C	 1.1777689194	-1.9710779624	 0.7132771262	-0.238222
H	 0.821118128	 1.8784871107	 0.5578383081	 0.124673
H	-0.1242764268	 1.9010851627	-0.9417053756	 0.123823
H	-0.9335618102	 1.8099502211	 0.6334547615	 0.123
H	-0.0422143199	-0.6846543346	-2.0970388657	 0.096251
H	 0.1344153166	-4.3924025751	-0.6053478934	 0.080753
H	-0.859441247	-3.5442070397	-1.8075738066	 0.083275
H	 1.2046262655	-4.1894812064	-2.6722556636	 0.287159
H	-1.9594220518	-1.739204247	 0.5319156683	 0.088084
H	-0.9871088428	-2.9158886536	 1.4927579147	 0.085724
H	 0.0998485428	-0.5302110375	 2.2121040705	 0.054528
H	 1.3454745372	-2.8118300217	 1.3958551315	 0.083372
H	 2.1244537853	-1.5550089658	 0.3639004289	 0.09819
83.0824	136.6795	184.8189	192.5158	241.1531	278.3547	345.381	399.5756	505.3729	520.5994	575.3114	579.8507	674.7513	782.4128	793.5699	837.8864	867.0554	895.1386	936.868	963.7054	1001.54	1015.7614	1049.9203	1061.9235	1066.9863	1083.9885	1100.5838	1130.9065	1159.9181	1181.9806	1215.6886	1227.6688	1229.5306	1250.0992	1281.5259	1303.2696	1346.4749	1412.3787	1466.1625	1477.0511	1478.6564	1487.1005	1514.0176	1519.031	1695.3978	2955.116	2984.1799	3010.2033	3031.574	3044.4823	3053.0029	3103.0882	3106.6071	3110.3768	3122.5229	3229.1901	3828.6687
CC1=CC2(CO)CC1C2	CC1=C[C@]2(CO)C[C@H]1C2	
InChI=1S/C8H12O/c1-6-2-8(5-9)3-7(6)4-8/h2,7,9H,3-5H2,1H3	InChI=1S/C8H12O/c1-6-2-8(5-9)3-7(6)4-8/h2,7,9H,3-5H2,1H3/t7-,8-
