15
gdb 45502	4.43092	1.36768	1.10792	2.9958	70.78	-0.2283	0.004	0.2323	1042.3322	0.115362	-453.957881	-453.951065	-453.950121	-453.989265	26.552	
N	-0.1007989038	 1.279108269	 0.1554830002	-0.574489
C	-0.0082381451	 0.0335587833	-0.0010753516	 0.456177
N	-1.119926997	-0.838478764	-0.006628757	-0.429572
C	-0.6842931409	-2.0501301389	-0.4996287501	 0.325025
C	-1.0022738403	-3.0245652987	-1.3454154908	-0.275079
C	 0.2931410158	-3.724082928	-1.7071186327	-0.106364
O	 1.3487052713	-2.9010150487	-1.1504224126	-0.26765
C	 0.7758980003	-2.0974944938	-0.1769843436	 0.175791
O	 1.1358385524	-0.6976485636	-0.2007496615	-0.266652
H	 0.8175603832	 1.7158164331	 0.1271512561	 0.23558
H	-2.0142148178	-0.4301013375	-0.2281616463	 0.273049
H	-1.9471295549	-3.2265922985	-1.8276588429	 0.113147
H	 0.3893760375	-4.740304823	-1.2979569544	 0.116735
H	 0.4366865022	-3.784444672	-2.7923651382	 0.128139
H	 1.0335585771	-2.4592984087	 0.8306207453	 0.096164
110.7134	149.4242	264.6104	337.8279	429.3766	502.1412	554.7043	632.7508	688.2235	713.3682	769.0302	786.1306	791.9634	808.6025	917.1243	927.326	951.1304	982.3788	1010.8266	1036.546	1055.1312	1132.9603	1192.0499	1233.7849	1239.7028	1331.38	1336.024	1380.244	1403.6167	1415.3342	1519.9357	1769.0943	1804.3099	2983.2858	2998.5482	3052.9065	3242.6812	3534.7371	3647.9894
N=C1NC2=CCOC2O1	[NH][C]1N[C]2[CH]CO[C@H]2O1	
InChI=1S/C5H6N2O2/c6-5-7-3-1-2-8-4(3)9-5/h1,4H,2H2,(H2,6,7)	InChI=1S/C5H6N2O2/c6-5-7-3-1-2-8-4(3)9-5/h1,4H,2H2,(H2,6,7)/t4-/m0/s1
