19
gdb 49561	2.10299	1.86736	1.27574	2.6612	79.75	-0.2382	-0.0184	0.2198	1055.3304	0.158472	-385.850857	-385.842632	-385.841688	-385.884413	31.447	
O	-0.796431685	 0.9081479203	 0.4906687359	-0.256118
C	 0.1098979675	 1.0942385002	-0.2831891672	 0.156802
C	 1.287096602	 2.0063856174	-0.0674134478	-0.196582
C	 1.2281019858	 3.3158269669	-0.89956488	-0.070402
C	 0.1182097411	 4.2082044555	-0.4088919437	-0.28715
C	 1.3964128259	 4.1404189392	 0.3796510852	-0.128628
C	 1.4286254626	 2.8688509925	 1.2049223272	 0.383794
C	 0.8633386441	 2.6423979773	 2.57556479	-0.314764
C	 2.3572145358	 2.5792766566	 2.3467969763	-0.348846
H	 0.1122414952	 0.5988948731	-1.2841285033	 0.071435
H	 2.2046773337	 1.4497852151	-0.2943841745	 0.094476
H	 1.6997931506	 3.451643339	-1.8640941077	 0.094267
H	-0.0260826857	 5.112674334	-0.9912147629	 0.113352
H	-0.7954076544	 3.7827721123	-0.00244179	 0.129947
H	 2.0302833168	 5.004896827	 0.5375864449	 0.091164
H	 0.46498459	 3.5031545136	 3.1032890675	 0.110671
H	 0.3265502267	 1.7186411691	 2.7502212271	 0.134369
H	 2.8430366924	 1.6087527625	 2.3801625073	 0.110686
H	 2.9689942049	 3.3939784084	 2.7215449758	 0.111528
30.3609	139.687	170.8692	220.513	255.3234	319.957	421.0177	475.7598	550.0735	677.5626	737.4246	760.8007	786.3068	811.3853	882.7911	910.9728	919.8791	943.2833	956.2706	987.9534	1004.4561	1021.2619	1055.2804	1060.5707	1073.3073	1082.8012	1089.8505	1097.7096	1174.0709	1186.5622	1207.876	1229.6938	1284.4223	1317.0224	1334.4276	1402.1735	1431.1077	1466.9276	1485.5715	1507.4804	1820.4831	2840.7183	3036.8525	3117.7602	3120.2108	3138.2214	3179.2697	3192.9106	3201.5609	3208.4491	3234.0578
O=CC1C2CC2C11CC1	O=C[C@H]1[C@H]2C[C@H]2C21CC2	
InChI=1S/C8H10O/c9-4-7-5-3-6(5)8(7)1-2-8/h4-7H,1-3H2	InChI=1S/C8H10O/c9-4-7-5-3-6(5)8(7)1-2-8/h4-7H,1-3H2/t5-,6+,7-/m0/s1
