20
gdb 71781	2.97647	1.90546	1.71932	1.7601	80.44	-0.2092	0.0716	0.2808	909.7766	0.173721	-365.938919	-365.932288	-365.931344	-365.969354	28.603	
C	 0.0087076963	 1.544971371	 0.0037903805	-0.5117
C	-0.0302815845	 0.0364679579	-0.0176798868	 0.341457
C	 0.4326184813	-0.7431640825	-1.2757372054	-0.291056
C	-0.5391858057	-1.8752327935	-0.8705702895	-0.067718
C	-0.1144931105	-2.559631862	 0.474825484	 0.006531
C	 1.195573897	-2.0111217678	 1.0635044528	-0.250126
C	 0.3868244607	-0.7240729682	 1.297079211	-0.045054
N	-0.9124988779	-1.5397470755	 1.2990056055	-0.166723
C	-1.320301817	-0.8536871667	 0.013118263	-0.032465
H	 1.0433213886	 1.9101214012	 0.0189409673	 0.117106
H	-0.478954573	 1.9683868711	-0.8813220546	 0.113988
H	-0.4961281309	 1.9462914197	 0.8898161376	 0.1208
H	 0.0721189022	-0.2397080646	-2.1794518666	 0.096586
H	 1.4959807024	-0.9700846896	-1.4019238119	 0.092879
H	-0.9820434379	-2.5104859111	-1.6367575974	 0.066485
H	-0.3642639668	-3.6167021099	 0.5861391693	 0.069543
H	 1.4191807738	-2.4984184	 2.0163937987	 0.111162
H	 2.0997992518	-1.9843621695	 0.4504713911	 0.099337
H	 0.6003083048	-0.0936747717	 2.1641461869	 0.065593
H	-2.3449544049	-0.5097284085	-0.1382276955	 0.063374
216.6051	230.0627	284.8464	397.7498	414.2357	455.9073	562.3863	663.6193	721.3219	735.3411	780.7264	817.8416	847.7689	872.8254	906.6155	932.7018	943.8224	950.0574	969.5151	980.9876	998.4496	1019.3678	1039.6802	1070.2822	1112.5719	1144.5878	1157.6603	1182.3644	1198.1275	1208.2508	1222.9778	1235.5428	1239.8156	1261.8594	1274.1864	1292.7051	1331.4687	1367.041	1412.7463	1471.6936	1489.9853	1493.8539	1504.3194	3017.3944	3036.5455	3057.2813	3071.4923	3080.1857	3082.5553	3086.0084	3089.7667	3091.4812	3111.9655	3115.4105
CC12CC3C4CC1N4C23	C[C@@]12C[C@H]3[C@H]4C[C@@H]1N4[C@@H]23	
InChI=1S/C8H11N/c1-8-3-4-5-2-6(8)9(5)7(4)8/h4-7H,2-3H2,1H3	InChI=1S/C8H11N/c1-8-3-4-5-2-6(8)9(5)7(4)8/h4-7H,2-3H2,1H3/t4-,5+,6-,7+,8+/m0/s1
