19
gdb 22254	2.67009	1.14608	0.86838	3.1733	78.49	-0.2378	-0.0263	0.2115	1363.0391	0.156176	-456.330756	-456.319924	-456.31898	-456.367317	37.254	
C	 0.0708390469	 1.3013733411	 0.1543258716	-0.344863
N	 0.119065994	-0.1363146513	-0.0665846907	-0.097068
C	 0.6045753817	-0.9180003162	 1.0580857262	-0.319513
C	-0.2423518237	-0.6120471318	-1.2945493616	 0.376507
O	-0.4956050496	 0.1231176667	-2.2409890052	-0.387178
C	-0.3759903451	-2.1008034972	-1.5255850387	 0.234813
C	-0.0473684378	-2.6201743993	-2.896053149	-0.468251
N	-0.8988458164	-2.7976897039	-0.5874077669	-0.165187
O	-1.103113829	-4.1222605053	-0.9808886943	-0.384482
H	 1.0766588451	 1.6997721867	 0.3385832435	 0.122034
H	-0.3481366068	 1.7766480015	-0.730148905	 0.170051
H	-0.5517959051	 1.5277383933	 1.0285395603	 0.122807
H	-0.1576282817	-1.0165063409	 1.8410289132	 0.126952
H	 0.897880463	-1.9153252084	 0.7430994518	 0.148797
H	 1.4758949176	-0.4112440395	 1.4900149332	 0.116491
H	 0.7659456031	-3.3515972479	-2.837832747	 0.137573
H	-0.9110232144	-3.1438975891	-3.316160771	 0.149046
H	 0.2331879224	-1.7968693728	-3.550250436	 0.151973
H	-1.5313342542	-4.5041279456	-0.2066184444	 0.309497
57.5262	85.2348	89.9303	106.1263	139.4717	182.3885	226.4567	270.2883	314.2025	350.29	385.9811	409.5031	433.8398	499.7206	573.1862	672.4777	745.5757	755.6587	920.2265	989.2295	1041.1958	1051.9142	1082.7788	1122.6097	1131.3793	1176.3939	1257.5584	1289.1993	1389.5021	1394.4853	1426.3719	1434.7594	1470.9395	1477.2795	1482.5384	1487.2984	1495.0518	1505.0218	1541.1735	1704.2141	1725.3001	3013.0251	3021.0923	3047.698	3062.2969	3065.9458	3103.2512	3173.7962	3176.14	3185.1505	3810.8128
CN(C)C(=O)C(C)=NO	CN(C)C(=O)C(=NO)C	
InChI=1S/C5H10N2O2/c1-4(6-9)5(8)7(2)3/h9H,1-3H3	InChI=1S/C5H10N2O2/c1-4(6-9)5(8)7(2)3/h9H,1-3H3
