19
gdb 120082	5.676	0.79522	0.79034	2.4656	75.09	-0.2312	0.0728	0.304	1468.3908	0.158521	-422.917401	-422.90922	-422.908275	-422.950864	30.986	
O	-0.0137772153	 1.4793382924	-0.0221562164	-0.42008
C	 0.0378958671	 0.0663734287	 0.1011371658	-0.067981
C	-1.3580512289	-0.4793211954	-0.1778309689	-0.202679
C	-1.4254142214	-1.9992300679	-0.1062306154	-0.040021
C	-1.4573074956	-2.697215738	 1.2778192649	-0.096663
C	-2.9925014465	-2.4530383194	 1.451856958	 0.089819
O	-3.304949559	-3.8461969573	 1.7479117055	-0.329715
C	-2.272677356	-3.9037076349	 0.7196560886	 0.084479
C	-2.8133658068	-2.6818322115	-0.0844509092	-0.109645
H	 0.8623108174	 1.8304568574	 0.1614346568	 0.285694
H	 0.7555617861	-0.3708946923	-0.6129158633	 0.08386
H	 0.3617024296	-0.2343812	 1.1108986604	 0.086745
H	-2.0569994024	-0.0274883912	 0.5363644603	 0.103403
H	-1.6662347163	-0.1385938274	-1.1741036664	 0.106991
H	-0.7210531474	-2.454074336	-0.8144011532	 0.067662
H	-0.71077684	-2.7322421045	 2.0717648719	 0.081373
H	-3.5289845213	-1.6757614126	 1.9939142094	 0.09904
H	-1.930585677	-4.8768571376	 0.3682819312	 0.095164
H	-3.6009142764	-2.6929849725	-0.8384338498	 0.082553
71.9217	90.7766	125.5919	234.2789	266.3976	341.5644	350.9492	549.4281	577.0234	746.4212	753.0822	797.1534	802.8639	834.4853	856.0553	887.6304	900.6945	934.8071	967.4588	1024.2639	1029.79	1060.4125	1078.3574	1107.0417	1119.1943	1135.153	1153.2138	1170.4908	1173.9684	1181.8698	1216.5265	1232.3248	1261.7411	1281.1281	1313.0219	1333.543	1337.5751	1415.6949	1463.1574	1491.8755	1527.8529	2958.3488	2984.2204	3022.6063	3030.3216	3072.3497	3110.636	3114.8548	3124.0745	3137.7613	3830.5294
OCCC1C2C3OC2C13	OCC[C@H]1[C@H]2[C@@H]3O[C@H]2[C@H]13	
InChI=1S/C7H10O2/c8-2-1-3-4-6-5(3)7(4)9-6/h3-8H,1-2H2	InChI=1S/C7H10O2/c8-2-1-3-4-6-5(3)7(4)9-6/h3-8H,1-2H2/t3-,4-,5+,6-,7+
