17
gdb 49196	4.14904	1.10811	0.99057	3.8342	77.12	-0.2525	-0.0616	0.1909	1191.1398	0.136848	-421.832703	-421.825205	-421.82426	-421.865116	28.193	
O	-0.106085284	-0.006761577	 0.0189545031	-0.266715
C	-0.0277358372	 1.1993196391	-0.0588697528	 0.073969
C	 1.2320635662	 1.9466690791	 0.0034410178	 0.240949
C	 1.316455865	 3.2838503408	-0.0938072668	-0.16794
C	 2.7249262904	 3.7797383572	 0.0244460977	-0.12213
C	 3.1592116908	 4.1923498557	 1.4548450447	-0.075475
O	 3.7123251848	 2.8860433195	 1.7012228021	-0.286727
C	 3.5350957906	 2.4845770976	 0.3217691535	 0.111249
C	 2.5861104414	 1.288520503	 0.1654327471	-0.330023
H	-0.9358840604	 1.8295397793	-0.1898293611	 0.068311
H	 0.4637094363	 3.9438707144	-0.2213500235	 0.112308
H	 3.0359513085	 4.4455201725	-0.7836016292	 0.093143
H	 3.9286019066	 4.9753954257	 1.4770973085	 0.103227
H	 2.3616412258	 4.4466603958	 2.1619892464	 0.108175
H	 4.4996906142	 2.3575315691	-0.1803856089	 0.078668
H	 2.6330739921	 0.6427530162	 1.0480075143	 0.140622
H	 2.8314186091	 0.6636206621	-0.7013345029	 0.118389
88.5339	129.1684	182.3884	214.3152	363.6607	386.083	446.8497	506.9891	669.5465	718.8714	819.0253	856.7286	861.0326	872.6288	892.4386	904.1662	1000.0481	1007.2558	1027.8929	1050.0058	1061.4339	1080.2451	1155.4453	1168.1454	1181.1122	1234.0271	1266.2992	1278.0555	1316.5691	1324.741	1357.9531	1376.5007	1420.8743	1462.8944	1521.3473	1670.9338	1786.0975	2878.7356	3009.867	3039.8438	3055.8395	3063.7171	3087.6652	3089.7645	3183.4583
O=CC1=CC2COC2C1	O=CC1=C[C@H]2CO[C@H]2C1	
InChI=1S/C7H8O2/c8-3-5-1-6-4-9-7(6)2-5/h1,3,6-7H,2,4H2	InChI=1S/C7H8O2/c8-3-5-1-6-4-9-7(6)2-5/h1,3,6-7H,2,4H2/t6-,7-/m0/s1
