19
gdb 85769	2.93785	1.23044	0.92507	0.9421	80.58	-0.2482	-0.0129	0.2352	1292.5632	0.158698	-419.253264	-419.243719	-419.242775	-419.288198	33.99	
C	-0.1565815429	 1.5380184215	 0.0367074121	-0.403572
C	-0.0020937165	 0.0240344036	-0.0372325573	-0.143264
C	 0.821121137	-0.5789411964	-1.2171506752	-0.176292
N	 1.7551438421	-1.1187147411	-0.2185295109	-0.102307
C	 2.9078188588	-1.8731204293	-0.4021924833	 0.323549
C	 3.6253607058	-2.2573691602	 0.8683651609	-0.456292
N	 3.229314593	-2.1575075436	-1.6034260129	-0.494813
C	 1.0775794434	-0.5900945265	 0.8785575679	 0.414536
O	 1.3053441166	-0.6200513814	 2.0583351539	-0.369968
H	 0.8024998606	 2.0418777799	-0.1220732506	 0.125787
H	-0.8591709162	 1.8986882297	-0.720761531	 0.124538
H	-0.5328131848	 1.8342178023	 1.0201371062	 0.140172
H	-0.9666056744	-0.4735122685	 0.1017615872	 0.108171
H	 0.3292581064	-1.3536603581	-1.8091910904	 0.127933
H	 1.286904798	 0.1512794374	-1.8838503836	 0.127026
H	 3.8985734316	-1.3693948167	 1.4448403856	 0.158442
H	 2.9755363472	-2.8544019409	 1.5146412516	 0.156298
H	 4.5240961469	-2.8293920537	 0.6300296837	 0.12029
H	 4.0844636574	-2.711499198	-1.6175535239	 0.219767
65.2311	74.5967	135.1458	158.0988	184.1411	217.6404	233.4858	340.0303	393.311	405.4556	573.8627	584.8419	628.4214	734.0904	762.1578	850.2852	858.0793	917.8592	937.8069	975.8532	1070.6972	1073.4138	1097.0521	1108.497	1148.408	1165.7996	1178.3056	1233.1055	1241.5578	1338.6692	1357.2241	1405.0625	1411.5678	1449.0899	1469.2508	1471.7642	1495.2657	1497.2035	1519.5085	1704.8836	1867.8404	3037.7492	3052.8078	3066.4772	3070.1661	3107.962	3115.6204	3120.0811	3120.8133	3141.4894	3492.7996
CC1CN(C(C)=N)C1=O	C[C@H]1CN([C](C)[NH])C1=O	
InChI=1S/C6H10N2O/c1-4-3-8(5(2)7)6(4)9/h4,7H,3H2,1-2H3	InChI=1S/C6H10N2O/c1-4-3-8(5(2)7)6(4)9/h4,7H,3H2,1-2H3/t4-/m0/s1
