16
gdb 50205	3.98827	1.06974	1.00007	3.6683	71.69	-0.2527	-0.0415	0.2112	1183.1131	0.123914	-437.892807	-437.884905	-437.883961	-437.926602	28.623	
O	-0.0689136566	 0.0058251342	 0.5848483676	-0.324463
C	 0.0038400457	 1.2133668241	 0.4950835567	 0.128122
N	 1.0984778567	 1.8824030182	 0.0660263623	-0.029145
C	 2.40029916	 1.377612125	-0.3752359745	-0.187498
C	 2.8210729695	 2.8537164146	-0.6652680306	-0.182375
C	 1.4063538983	 3.2971857315	-0.1341544321	-0.023122
C	 1.0223968799	 3.8506470262	-1.5361614047	-0.360467
C	 2.3869815081	 3.3462691466	-2.0584927041	 0.408567
O	 2.9227405687	 3.3609533272	-3.1254509335	-0.280244
H	-0.8220861429	 1.9039634966	 0.7650264477	 0.070692
H	 2.9702940038	 0.9034190025	 0.4296452107	 0.136934
H	 2.3648321142	 0.7001630196	-1.2331440046	 0.143021
H	 3.7755052549	 3.1960754766	-0.2702618681	 0.112899
H	 1.2552131696	 3.9451106263	 0.7298050938	 0.101932
H	 0.1265962133	 3.4425704977	-2.0097102451	 0.142631
H	 0.9745445767	 4.945092143	-1.5678916814	 0.142517
30.255	83.814	178.232	223.4313	319.0417	350.6634	429.3724	504.8974	538.536	645.6408	735.7274	805.7067	825.748	874.9245	927.9953	941.3247	984.9916	1023.8457	1035.531	1066.2355	1107.7745	1123.7162	1155.2636	1185.5398	1217.3191	1236.6064	1247.608	1296.4453	1324.0076	1398.6387	1423.401	1446.6911	1517.2261	1793.3489	1899.6157	2919.5319	3049.8401	3053.3342	3098.3319	3107.7445	3120.9794	3143.1022
O=CN1CC2C1CC2=O	O=CN1C[C@@H]2[C@H]1CC2=O	
InChI=1S/C6H7NO2/c8-3-7-2-4-5(7)1-6(4)9/h3-5H,1-2H2	InChI=1S/C6H7NO2/c8-3-7-2-4-5(7)1-6(4)9/h3-5H,1-2H2/t4-,5-/m1/s1
