17
gdb 83620	2.62107	1.88634	1.2885	1.2845	67.28	-0.2504	0.0395	0.2899	968.6936	0.136651	-458.888394	-458.881273	-458.880329	-458.919857	28.316	
O	 0.1750024169	 1.3981887543	 0.0531641501	-0.435865
C	 0.0444150219	 0.006016097	 0.0531252564	 0.129766
C	-1.4166594723	-0.5602112414	 0.0523025011	-0.191299
C	-1.6287589518	-2.0321067741	 0.4934194051	-0.115543
O	-1.573173078	-2.5137542746	-0.8867441665	-0.323932
C	-1.1878944155	-1.2322373712	-1.3174757631	 0.424496
C	-1.3962827432	-0.5353991528	-2.6457208958	-0.173051
O	-0.172229263	 0.2286594347	-2.4055159618	-0.306959
C	 0.2616584624	-0.661734107	-1.3373297506	-0.022082
H	-0.05043185	 1.6806683668	-0.8454549384	 0.291032
H	 0.6754885267	-0.395624618	 0.8530054255	 0.08818
H	-2.2276182872	 0.1376199712	 0.2596905855	 0.087091
H	-0.8269398055	-2.4671560842	 1.1024115668	 0.110178
H	-2.5976912478	-2.258794773	 0.9464190874	 0.120091
H	-1.2848861913	-1.1840492786	-3.5239576192	 0.120442
H	-2.2743207266	 0.1077192926	-2.7641321485	 0.11601
H	 1.1835634543	-1.1934293218	-1.5838148141	 0.081444
110.6777	222.5315	268.6926	294.6395	351.0346	375.8862	513.2794	525.7138	573.3695	704.5674	790.842	806.6944	846.5196	889.4867	923.5881	956.6716	970.1148	994.6069	1020.7126	1048.5859	1051.5192	1113.8022	1137.2337	1139.3921	1157.8357	1184.5911	1228.1923	1239.2829	1254.5728	1283.2629	1296.3335	1320.502	1341.5552	1372.3524	1440.9878	1510.8619	1514.03	3021.7023	3027.5011	3053.6878	3082.9132	3087.5435	3091.4196	3118.5654	3724.9662
OC1C2COC22COC12	O[C@H]1[C@@H]2CO[C@]32CO[C@@H]13	
InChI=1S/C6H8O3/c7-4-3-1-9-6(3)2-8-5(4)6/h3-5,7H,1-2H2	InChI=1S/C6H8O3/c7-4-3-1-9-6(3)2-8-5(4)6/h3-5,7H,1-2H2/t3-,4-,5-,6-/m0/s1
