21
gdb 62073	4.7997	0.65525	0.62206	4.1765	82.02	-0.2384	0.0311	0.2694	1815.5688	0.181883	-420.394681	-420.384668	-420.383724	-420.430992	35.168	
C	-0.3436158066	 1.4194311291	 0.0275203672	-0.348658
N	-0.0384269038	-0.0008566136	-0.0123135258	-0.027631
C	-0.1467127258	-0.7839859324	 1.2046566797	-0.186653
C	-1.5934174061	-1.1183522334	 1.5952983547	-0.141389
N	-1.5981353859	-1.915316966	 2.8137724024	-0.059443
C	-1.6927852741	-1.1785441185	 4.0725895763	-0.221295
C	-2.8521913404	-1.9559343372	 3.5567736452	-0.218553
C	 0.3749704656	-0.5683415937	-1.1827801699	 0.151082
O	 0.4903111888	 0.0046896597	-2.2458537137	-0.342839
H	 0.2711588245	 1.9225924811	 0.7836611536	 0.122845
H	-0.1228578215	 1.8319042639	-0.9570952823	 0.170027
H	-1.3983131286	 1.6017878422	 0.2622439708	 0.125981
H	 0.4019775722	-1.7210945916	 1.0710158318	 0.130804
H	 0.3393417524	-0.2431291847	 2.0271993557	 0.110193
H	-2.1858167807	-0.1912082317	 1.699194406	 0.084612
H	-2.0532375511	-1.7074848393	 0.7933137698	 0.113386
H	-1.0906121114	-1.5600280591	 4.891796427	 0.121612
H	-1.7639705527	-0.0925269595	 4.0249728713	 0.109305
H	-3.6950376671	-1.3884221573	 3.1652660671	 0.112272
H	-3.1121850699	-2.9165427464	 3.9916080122	 0.121782
H	 0.6046327322	-1.6443798615	-1.0526285091	 0.072561
46.666	59.3618	100.6162	114.5097	142.0392	221.6626	289.03	336.767	360.3552	381.1368	424.2545	436.7002	701.2453	780.0823	795.4655	845.1878	879.7394	909.3577	1014.7287	1030.2669	1036.2602	1064.3537	1091.5588	1104.3214	1115.8152	1120.7121	1158.6696	1171.9172	1180.2408	1247.1908	1280.1396	1314.2408	1326.321	1345.2833	1416.4464	1430.3508	1438.8312	1442.4456	1484.148	1491.3357	1498.5579	1502.0015	1521.4943	1523.7715	1795.5986	2936.7727	2941.7678	3019.9335	3024.1234	3057.6667	3073.6392	3091.8231	3093.2486	3098.9039	3155.4008	3179.3403	3193.4262
CN(CCN1CC1)C=O	CN(CCN1CC1)C=O	
InChI=1S/C6H12N2O/c1-7(6-9)2-3-8-4-5-8/h6H,2-5H2,1H3	InChI=1S/C6H12N2O/c1-7(6-9)2-3-8-4-5-8/h6H,2-5H2,1H3
