18
gdb 33256	5.32066	0.78742	0.71814	3.3585	75.12	-0.1959	0.0459	0.2418	1549.3172	0.14843	-439.100547	-439.091773	-439.090829	-439.134889	32.445	
O	-0.0285692795	 1.445050283	-0.0909827125	-0.420707
C	 0.0190489919	 0.0350720322	-0.0095670075	-0.065053
C	-1.3734653869	-0.5706526352	 0.0364176119	-0.079502
O	-2.0185093681	-0.1903944915	-1.1707998164	-0.290195
C	-3.3246672812	-0.5529775466	-1.2945998601	 0.359385
C	-4.1097989615	-1.2808968192	-0.4238287225	-0.214438
N	-5.3564135777	-1.3824535002	-1.0086305159	-0.248123
C	-5.3647392581	-0.7387527019	-2.2135669515	-0.057837
C	-4.1129989207	-0.2092335718	-2.4267464996	-0.275872
H	-0.6310575718	 1.647762067	-0.8161644657	 0.291963
H	 0.5711667367	-0.400967824	-0.8573785531	 0.095482
H	 0.5584750451	-0.2187033191	 0.908896684	 0.108378
H	-1.3267922587	-1.6671416951	 0.1182810559	 0.09606
H	-1.93273705	-0.1763644489	 0.8972485466	 0.105501
H	-3.8998941649	-1.7263675191	 0.532445037	 0.116028
H	-6.1407617651	-1.857214425	-0.6001941895	 0.261665
H	-6.2534149914	-0.7068597624	-2.8228307167	 0.120024
H	-3.7843243083	 0.3571382579	-3.2831371544	 0.097241
53.9289	65.338	135.2834	179.5514	294.3783	320.7061	400.62	416.2865	452.1092	497.934	623.4375	627.9583	678.0876	719.5538	744.4989	813.2941	887.546	896.7244	914.3437	995.3284	1064.1954	1084.5822	1085.5095	1115.9374	1137.3563	1171.7418	1234.7756	1259.1473	1283.3853	1316.6509	1386.663	1396.7971	1427.5627	1442.6443	1479.5861	1498.1901	1505.4635	1534.3999	1619.6452	2981.524	2985.5996	3032.0779	3079.7949	3256.1431	3274.8346	3285.8235	3697.6657	3798.5622
OCCOC1=CNC=C1	OCCOc1c[nH]cc1	
InChI=1S/C6H9NO2/c8-3-4-9-6-1-2-7-5-6/h1-2,5,7-8H,3-4H2	InChI=1S/C6H9NO2/c8-3-4-9-6-1-2-7-5-6/h1-2,5,7-8H,3-4H2
