15
gdb 96613	4.65236	0.60724	0.59174	15.7709	91.79	-0.2015	-0.0767	0.1249	1859.7209	0.10994	-453.917607	-453.906925	-453.905981	-453.95556	34.729	
C	 0.0722125584	 1.4776708289	-0.1109402727	-0.35962
N	 0.1518055526	 0.0311367952	-0.0277293413	-0.295491
H	-0.1193492101	-0.523076537	-0.8235583241	 0.294956
C	 0.5630443177	-0.664295164	 1.0448644652	 0.25221
N	 0.9413337274	 0.0012116018	 2.1510096293	-0.526454
C	 0.5968338471	-2.0426051886	 1.0118575173	 0.056849
C	 0.6235505094	-3.2663199061	 0.9711186831	 0.050573
C	 0.6556233808	-4.7812068486	 0.9196558493	 0.29003
O	 1.7392417967	-5.2082629162	 0.5142512456	-0.416737
O	-0.4091961978	-5.2793935683	 1.2927014263	-0.416708
H	 1.0563735168	 1.9421653484	 0.0245643996	 0.156308
H	-0.2943246545	 1.7478165169	-1.1009879154	 0.169247
H	-0.6248344842	 1.8848217342	 0.6314247976	 0.156335
H	 0.9312812647	 1.0041729391	 2.213461697	 0.283246
H	 1.2487098949	-0.5290122759	 2.9482563032	 0.305255
37.6541	49.3853	57.8635	94.8959	120.768	180.7659	223.5184	236.2482	288.9881	319.4398	449.9376	552.8083	568.5701	583.4857	599.5818	708.1612	746.1523	776.3637	899.6475	1040.5837	1146.5156	1148.5388	1185.1333	1302.032	1388.4475	1445.9963	1487.3172	1512.4415	1541.9585	1611.1266	1661.7371	1781.7478	2232.7056	3020.5707	3076.4892	3154.9509	3621.1159	3656.6014	3747.9199
C[NH+]=C(N)C#CC([O-])=O	CNC(=[NH2])C#CC(=O)[O]	
InChI=1S/C5H6N2O2/c1-7-4(6)2-3-5(8)9/h1H3,(H2,6,7)(H,8,9)	InChI=1S/C5H6N2O2/c1-7-4(6)2-3-5(8)9/h7H,6H2,1H3
