18
gdb 64651	3.29427	1.2279	1.08741	4.2062	75.89	-0.256	0.0336	0.2896	1146.5912	0.146955	-401.892963	-401.884713	-401.883768	-401.926001	31.53	
C	-0.0964318675	 1.6415159966	 0.1016824429	-0.498241
C	 0.0001742485	 0.1209754037	 0.0364611294	 0.337781
C	-1.389776958	-0.509568721	-0.1873539652	-0.405498
C	-1.978666725	-0.1170973797	-1.4657577348	 0.26669
N	-2.4227575646	 0.2039017251	-2.4837283752	-0.322122
C	 1.16962203	-0.5892499598	-0.7287514994	 0.016053
C	 2.1789039189	-0.1401478602	 0.3540916197	-0.238299
C	 0.9019967702	-0.6778001412	 1.0406880836	-0.002557
O	 0.9252264014	-1.8082336559	 0.0831034892	-0.311592
H	 0.8660078753	 2.1346914183	 0.2377743502	 0.126348
H	-0.544573943	 2.0314340849	-0.8176412849	 0.153532
H	-0.7442099077	 1.9421240639	 0.9330192516	 0.125595
H	-1.2983634567	-1.5974541849	-0.1581459221	 0.174424
H	-2.0717607147	-0.2042609188	 0.6152070779	 0.143205
H	 1.3087661338	-0.7209150623	-1.8021019068	 0.111067
H	 3.0397599457	-0.8006152585	 0.4520901505	 0.118779
H	 2.4456737197	 0.9116791381	 0.4470099683	 0.106669
H	 0.7222097135	-0.9140802484	 2.0908328153	 0.098166
62.7497	127.8821	176.6088	225.8857	329.8298	369.3337	380.8829	402.1481	474.47	564.2568	625.5284	695.1164	759.6295	790.0128	863.4438	874.301	906.9384	924.3477	940.4735	968.7538	1026.6345	1036.4009	1103.907	1121.2047	1132.451	1170.5458	1172.677	1204.9961	1213.6263	1253.6886	1276.1001	1313.7089	1331.5642	1422.0687	1466.4316	1487.5997	1497.1085	1512.3026	2356.7403	3040.7938	3045.8299	3093.837	3101.2012	3108.3317	3116.1934	3122.8848	3143.3758	3170.8803
CC1(CC#N)C2CC1O2	C[C@@]1(CC#N)[C@H]2C[C@@H]1O2	
InChI=1S/C7H9NO/c1-7(2-3-8)5-4-6(7)9-5/h5-6H,2,4H2,1H3	InChI=1S/C7H9NO/c1-7(2-3-8)5-4-6(7)9-5/h5-6H,2,4H2,1H3/t5-,6+,7-
