19
gdb 40255	2.81585	1.59972	1.21558	1.3734	74.95	-0.2442	0.0828	0.327	1053.3262	0.160473	-422.992754	-422.985264	-422.98432	-423.024621	30.13	
C	 0.0286927443	 1.4972444702	 0.0189006863	-0.24137
O	 1.1927282921	 0.6667645654	-0.0386942997	-0.284097
C	-0.1036816848	 0.0357169959	 0.0225103858	 0.408475
C	-0.364480179	-0.7251465229	 1.3093325242	-0.290344
C	 0.0289605457	-2.1899802118	 1.1108453723	-0.076851
O	-0.7907103069	-2.7976307401	 0.1188190063	-0.263789
C	-0.7381936331	-2.185973365	-1.139687511	 0.096568
C	-1.857754561	-1.244988875	-1.4903477383	-0.328005
C	-0.4638006822	-0.7025200927	-1.2326363015	-0.106093
H	-0.1027488731	 2.0549803108	 0.9463425787	 0.10818
H	-0.192524595	 2.0567804955	-0.8896713697	 0.110047
H	 0.2171579209	-0.2675521606	 2.1151239407	 0.111815
H	-1.4252462983	-0.6784726727	 1.5825908536	 0.108966
H	 1.0924411501	-2.2596388048	 0.8367297382	 0.104869
H	-0.1293426019	-2.7727691463	 2.0218904397	 0.108762
H	-0.3346413347	-2.8374826944	-1.9114702208	 0.09612
H	-2.2280324481	-1.2166529165	-2.5091331765	 0.114605
H	-2.6141722722	-1.1030004734	-0.7264287898	 0.121471
H	 0.0916336374	-0.3581501717	-2.0986842085	 0.100671
88.6924	194.0501	246.1962	308.8049	361.945	398.5901	442.502	489.7465	519.4081	650.1756	705.7933	779.2531	808.2586	830.5781	856.5529	896.1651	961.2509	976.95	988.5781	1021.1303	1048.2446	1060.7457	1073.7322	1103.2008	1126.2398	1131.1846	1160.5164	1176.5494	1221.593	1231.821	1280.0757	1287.0332	1323.0995	1368.605	1371.0106	1415.103	1439.2538	1465.3226	1480.7915	1504.6475	1530.6857	2996.4193	3039.9973	3072.8065	3096.2615	3097.6646	3126.6402	3137.0338	3157.4877	3164.3958	3226.724
C1OC11CCOC2CC12	C1O[C@]21CCO[C@H]1C[C@@H]21	
InChI=1S/C7H10O2/c1-2-8-6-3-5(6)7(1)4-9-7/h5-6H,1-4H2	InChI=1S/C7H10O2/c1-2-8-6-3-5(6)7(1)4-9-7/h5-6H,1-4H2/t5-,6+,7+/m1/s1
