25
gdb 59263	2.51691	1.2276	1.10558	0.2362	91.67	-0.2552	0.0754	0.3306	1304.2032	0.230258	-352.366737	-352.357144	-352.3562	-352.401356	36.928	
C	 0.1098969465	 1.3376591958	-0.5082126483	-0.382478
C	 0.1306267855	-0.068841783	 0.1108927821	 0.002198
C	 0.6674057983	-0.0264485345	 1.5503494923	-0.382476
C	-1.2618560892	-0.679891047	 0.0830636353	 0.028893
C	-1.9388677195	-1.3354832243	-1.1014477877	-0.076138
C	-1.1176938295	-1.8670308072	-2.2706903652	-0.216049
C	-0.066154235	-2.8380601423	-1.6699563042	-0.218273
C	-0.5705945947	-3.2062433381	-0.2488719108	-0.216048
C	-1.6046865278	-2.1533774411	 0.1333991597	-0.076146
H	 1.1086450454	 1.7873612656	-0.504809655	 0.105039
H	-0.2486473866	 1.3128155438	-1.5419719009	 0.114807
H	-0.5546931088	 2.0019548146	 0.0573627171	 0.108451
H	 0.8168022594	-0.6822231319	-0.4814204788	 0.071461
H	 1.6747716903	 0.4021694447	 1.5856373207	 0.105039
H	 0.0223441582	 0.5899597911	 2.1881411941	 0.108451
H	 0.7080035496	-1.027797896	 1.9902117808	 0.11481
H	-1.9582604905	-0.0789346416	 0.6695703559	 0.072343
H	-2.9623873048	-1.0418840916	-1.3121787518	 0.073677
H	-1.7904155603	-2.4045091538	-2.9487529284	 0.097113
H	-0.6455586732	-1.0761605662	-2.864614047	 0.096207
H	 0.0622571663	-3.7274425733	-2.2938130025	 0.093929
H	 0.9158179749	-2.3610006376	-1.6196672202	 0.108192
H	-1.062929612	-4.1853693704	-0.2601476698	 0.097114
H	 0.2559072238	-3.282856993	 0.4667789593	 0.096208
H	-2.3839929764	-2.4574487729	 0.8250799933	 0.073677
48.5026	106.1378	128.856	189.9195	219.9644	244.2427	260.4588	321.9818	393.2703	494.297	499.4604	664.4469	692.2033	758.2761	769.8557	795.2455	865.9368	881.1067	884.0335	919.5498	924.7941	959.8301	986.3023	995.8722	1015.8155	1030.8712	1081.5867	1100.0638	1116.3983	1140.6513	1149.2478	1184.2278	1185.2523	1224.1929	1247.5999	1260.8364	1305.1027	1306.8065	1324.7323	1331.1308	1336.091	1361.5311	1388.0577	1396.6429	1416.8768	1450.3675	1484.7615	1489.184	1490.4663	1493.2555	1502.016	1510.0453	1515.2355	3022.2088	3026.3067	3030.5066	3031.2411	3053.3241	3057.7212	3062.1723	3062.3109	3085.5962	3088.325	3095.8726	3101.244	3101.3268	3104.4398	3146.9634	3158.5053
CC(C)C1C2CCCC12	CC(C)[C@H]1[C@H]2CCC[C@@H]12	
InChI=1S/C9H16/c1-6(2)9-7-4-3-5-8(7)9/h6-9H,3-5H2,1-2H3	InChI=1S/C9H16/c1-6(2)9-7-4-3-5-8(7)9/h6-9H,3-5H2,1-2H3/t7-,8+,9-
