19
gdb 110491	3.08105	1.39913	1.29106	1.626	78.06	-0.2202	0.0116	0.2318	1055.6028	0.161069	-385.849728	-385.842249	-385.841305	-385.881778	30.133	
O	 0.3676462743	 0.7444252036	-0.8743211884	-0.424399
C	-0.1062322986	 0.4651820459	 0.4402716274	-0.098314
C	-1.444498345	-0.2628766124	 0.4032440728	 0.016909
C	-1.5494960629	-1.6866632978	-0.1436636185	-0.111905
C	-1.2829978428	-2.7754406159	 0.9364017715	-0.077
C	-0.5772821845	-2.3950403153	 2.1938378986	-0.082365
C	-1.1263321631	-1.2815334987	 2.6916289194	-0.090913
C	-2.1730353336	-0.7732527772	 1.725719257	-0.139871
C	-2.5892715086	-2.0338493544	 0.8940664437	-0.070947
H	 0.5583505905	-0.1003008561	-1.2945386954	 0.28239
H	 0.6349065202	-0.1044999979	 1.0147936105	 0.090126
H	-0.2215825777	 1.4412793968	 0.9262050812	 0.102326
H	-2.1599932227	 0.3558400214	-0.1479193859	 0.086235
H	-1.5292174117	-1.9669797721	-1.1908694644	 0.085778
H	-1.2316941117	-3.786389106	 0.5482382383	 0.083404
H	 0.2700558444	-2.9364608537	 2.5961890626	 0.095821
H	-0.7843217348	-0.7258585183	 3.55617213	 0.096555
H	-2.9385082234	-0.1126761147	 2.1298530182	 0.068336
H	-3.5738653682	-2.4732409573	 0.7904375414	 0.087832
73.6958	174.3365	190.6852	305.1394	343.6484	442.1734	493.0959	576.9174	694.6323	712.6461	738.6121	774.249	807.2219	821.7157	846.5516	879.4038	911.2039	934.78	960.5549	982.466	999.587	1033.6067	1039.8336	1059.7862	1066.2684	1087.6477	1121.2912	1135.4827	1146.3888	1202.0087	1225.0664	1239.4071	1280.9646	1312.306	1347.8967	1364.2564	1377.8552	1396.9716	1418.184	1507.374	1643.382	3019.7056	3052.8731	3071.2228	3121.877	3167.6285	3175.5357	3188.8647	3196.5322	3221.3353	3816.0494
OCC1C2C3C=CC1C23	OC[C@H]1[C@H]2[C@H]3C=C[C@@H]1[C@@H]23	
InChI=1S/C8H10O/c9-3-6-4-1-2-5-7(4)8(5)6/h1-2,4-9H,3H2	InChI=1S/C8H10O/c9-3-6-4-1-2-5-7(4)8(5)6/h1-2,4-9H,3H2/t4-,5-,6+,7+,8+/m0/s1
