15
gdb 123966	3.8421	1.60253	1.14097	0.8388	72.24	-0.1968	0.0139	0.2107	989.4241	0.117796	-413.015198	-413.008445	-413.0075	-413.046432	26.179	
C	 0.0104872431	 1.4955129566	-0.103077335	-0.278236
N	 1.3277474065	 2.0725344485	 0.1970548149	-0.25959
C	 2.3510667513	 1.3246495714	 0.329168718	 0.083626
N	 2.4207288232	-0.0522621296	 0.2114670315	-0.43765
C	 1.1988329337	-0.7246646653	 0.1225844328	 0.228311
C	 0.0386234375	-0.0003421594	-0.0292205198	 0.312861
N	-0.9564936922	-0.9212867125	-0.0834729663	-0.293771
N	-0.5141577521	-2.1902690204	 0.0228832461	-0.224382
C	 0.8097042539	-2.0781701001	 0.147445272	-0.117216
H	-0.7204537181	 1.922947944	 0.5989802003	 0.11753
H	-0.3024342991	 1.8473678492	-1.0991667297	 0.11903
H	 3.311746084	 1.7924776398	 0.5440185077	 0.11404
H	 3.2330309559	-0.5255881157	 0.5703064131	 0.253658
H	-1.9432914096	-0.7619766644	-0.1952754193	 0.273387
H	 1.4184789519	-2.9636160922	 0.2531885937	 0.108402
89.108	225.4153	320.3257	336.4752	392.282	491.8799	492.5439	550.0392	630.9568	677.4872	697.2568	754.662	854.4864	899.4386	942.6901	956.2796	969.2675	1034.211	1114.3524	1122.8816	1200.1778	1241.4186	1248.0581	1285.2645	1361.2037	1371.6023	1411.751	1442.5576	1470.8775	1502.3862	1577.3465	1646.7098	1728.4994	2967.9371	2993.566	3134.1043	3248.0133	3649.3064	3673.7783
C1N=CNC2=C1NN=C2	C1N=CNc2c1[nH]nc2	
InChI=1S/C5H6N4/c1-5-4(2-8-9-5)7-3-6-1/h2-3H,1H2,(H,6,7)(H,8,9)	InChI=1S/C5H6N4/c1-5-4(2-8-9-5)7-3-6-1/h2-3H,1H2,(H,6,7)(H,8,9)
