14
gdb 133153	2.30855	1.84839	1.03298	1.8373	68.07	-0.2428	-0.0603	0.1825	1050.1275	0.101309	-478.018381	-478.010711	-478.009766	-478.050842	28.137	
C	-0.0274901112	 1.5347008799	 0.0037336448	-0.48919
C	-0.0034090643	 0.0400774011	-0.0310072424	-0.000074
C	-0.1072337126	-0.7128914083	-1.1545728587	 0.216978
F	-0.2435081141	-0.146191689	-2.3540594705	-0.064246
C	-0.0775467197	-2.1379224134	-1.123583366	-0.0907
N	 0.0514023809	-2.7988592663	-0.0105444516	-0.179171
N	 0.1543654728	-2.0661587748	 1.1012533303	-0.268451
C	 0.1426215061	-0.671167168	 1.2359844432	 0.384785
O	 0.248138929	-0.1527504916	 2.3340761065	-0.378384
H	 0.8933083156	 1.9154182306	 0.4575946796	 0.155308
H	-0.139602898	 1.955460735	-0.995758598	 0.136125
H	-0.8480903808	 1.8831673872	 0.6393374695	 0.155297
H	-0.1628637271	-2.7109266163	-2.038781029	 0.143579
H	 0.2540384434	-2.5939227761	 1.9585480624	 0.278144
97.6959	130.7792	204.401	265.2985	270.644	345.9957	480.615	520.5499	530.6317	567.5555	662.5243	682.7044	740.9188	770.4117	858.1007	888.1153	938.2616	1057.8256	1137.5236	1162.342	1184.1457	1249.7493	1336.339	1404.2097	1426.8124	1447.0165	1474.8961	1475.254	1598.8029	1679.759	1776.0349	3045.9054	3097.5661	3152.0203	3211.4606	3596.6688
CC1=C(F)C=NNC1=O	Cc1c(F)cn[nH]c1=O	
InChI=1S/C5H5FN2O/c1-3-4(6)2-7-8-5(3)9/h2H,1H3,(H,8,9)	InChI=1S/C5H5FN2O/c1-3-4(6)2-7-8-5(3)9/h2H,1H3,(H,8,9)
