17
gdb 71772	3.28269	1.90855	1.67291	1.7186	69.21	-0.2027	0.0794	0.2821	864.3677	0.137554	-421.796908	-421.79048	-421.789535	-421.827317	27.001	
C	 0.0319540608	 1.4753844071	-0.0298835975	-0.485109
C	-0.034293255	-0.0219853216	-0.0016151661	 0.403451
O	 0.9205322628	-0.6403535343	-0.840827414	-0.279463
C	 0.5164037124	-1.9692484718	-1.0412120569	 0.034154
C	 0.1510634285	-2.7393352682	 0.1946097078	 0.045489
O	 0.2564365874	-2.0405142556	 1.4088861561	-0.24327
C	-0.3936021562	-0.807142411	 1.2305918298	 0.007778
C	-1.3169769099	-0.8558046671	 0.0133512766	-0.208922
C	-0.9540354712	-2.143956488	-0.674494832	-0.164039
H	 1.0175703362	 1.8237980349	 0.2948314516	 0.134907
H	-0.1515463704	 1.8528617667	-1.0408349755	 0.12928
H	-0.7190690137	 1.9031810644	 0.6402671788	 0.121286
H	 0.9932198907	-2.4373456407	-1.8941149605	 0.104169
H	 0.3451108198	-3.8005294689	 0.2940280664	 0.105339
H	-0.6430237714	-0.3202090202	 2.1665044161	 0.102785
H	-2.3174460672	-0.4472152277	-0.0194334946	 0.094528
H	-1.6732374433	-2.717761878	-1.241274316	 0.097635
197.5063	223.1797	291.2572	331.9908	531.8023	595.1561	612.8574	709.5744	730.9802	740.1045	745.4926	768.4366	790.9833	836.9288	862.1242	917.6792	973.698	978.1053	1016.8576	1026.0199	1053.6049	1059.1257	1070.9902	1078.1794	1115.9316	1130.9232	1181.4304	1210.9656	1227.2507	1260.6765	1293.3415	1342.1865	1402.0601	1412.2121	1437.7643	1477.3445	1502.7888	3037.8973	3105.5564	3116.9893	3178.5735	3182.932	3191.0941	3208.0014	3220.6497
CC12OC3C4OC1C2C34	C[C@@]12O[C@H]3[C@H]4O[C@@H]1[C@@H]2[C@@H]34	
InChI=1S/C7H8O2/c1-7-3-2-4(5(2)9-7)8-6(3)7/h2-6H,1H3	InChI=1S/C7H8O2/c1-7-3-2-4(5(2)9-7)8-6(3)7/h2-6H,1H3/t2-,3+,4+,5-,6-,7+/m1/s1
