17
gdb 133065	2.98984	1.14506	0.88569	2.3535	78.12	-0.2507	-0.0289	0.2218	1291.4044	0.136736	-426.03911	-426.031137	-426.030193	-426.072393	29.791	
C	 0.0224967988	 1.5610811522	-0.0424546676	-0.367912
C	-0.0040728343	 0.0245311314	 0.038798944	-0.293332
C	-1.4058203641	-0.5366553696	 0.0218506736	 0.2781
C	-2.0778145467	-0.8529088108	 1.2071436197	-0.066676
N	-3.3256955221	-1.3213606687	 1.2664902697	-0.257155
C	-3.9791891678	-1.5041897451	 0.1195745103	-0.105896
C	-3.3927161864	-1.2234324945	-1.1083025859	 0.255674
F	-4.0843389857	-1.4309891242	-2.2322206715	-0.075595
C	-2.0988963958	-0.7360922012	-1.1731429604	-0.295791
H	 1.0515740918	 1.9327518869	-0.0290440118	 0.118785
H	-0.4543542117	 1.9153592958	-0.961922044	 0.122674
H	-0.5124542059	 2.006623483	 0.8018568621	 0.126667
H	 0.5666834962	-0.3929606834	-0.7986581346	 0.109823
H	 0.5022698242	-0.2990633083	 0.9547843218	 0.11166
H	-1.5716886178	-0.7222146304	 2.161568459	 0.103902
H	-4.994881552	-1.8875467483	 0.1627905709	 0.12099
H	-1.6491619907	-0.5243965249	-2.1377820254	 0.114081
44.9579	132.7556	212.5259	244.5216	299.877	322.226	438.1428	484.347	527.9986	544.7854	627.4958	720.3021	742.0118	791.136	914.2836	932.1892	936.2582	964.3877	1004.4922	1039.0845	1078.3739	1083.2668	1166.9115	1199.3507	1265.4641	1299.0935	1315.218	1334.1295	1356.7559	1411.2424	1471.7854	1485.4404	1492.1509	1497.2765	1508.4729	1614.9518	1640.6059	3035.4075	3037.7514	3072.3842	3110.5281	3113.6706	3147.5033	3170.5357	3188.0645
CCC1=CN=CC(F)=C1	CCc1cncc(F)c1	
InChI=1S/C7H8FN/c1-2-6-3-7(8)5-9-4-6/h3-5H,2H2,1H3	InChI=1S/C7H8FN/c1-2-6-3-7(8)5-9-4-6/h3-5H,2H2,1H3
