22
gdb 109708	2.89935	1.08602	0.97906	1.3564	83.38	-0.2193	0.0658	0.2851	1332.5488	0.193021	-404.298097	-404.288226	-404.287282	-404.333035	36.423	
C	-0.0858940709	 0.6766963464	-2.1751467115	-0.321328
N	 0.0845661889	-0.3286969751	-1.1321058125	-0.14714
C	 1.3047772181	-0.3299767052	-0.316587825	-0.123912
C	 2.4275701871	 0.6600755154	-0.5237493642	-0.080831
O	 3.1597574077	 0.416279835	-1.72044234	-0.416335
C	-0.0158751808	 0.0620619322	 0.2574296984	 0.361915
C	-0.3931531991	 1.4273602219	 0.8679908479	-0.303334
C	-0.905259561	 0.6592048327	 2.1222033481	-0.211084
C	-0.8373674069	-0.6744616554	 1.3217244051	-0.296669
H	 0.1239641831	 1.7091902819	-1.8603052401	 0.104372
H	 0.5768704748	 0.43911989	-3.010901826	 0.135885
H	-1.1213798152	 0.6398130056	-2.5285853938	 0.116802
H	 1.6624117584	-1.3407214031	-0.1003412895	 0.076578
H	 2.0500555543	 1.6808879777	-0.616234233	 0.109595
H	 3.0894035967	 0.638864664	 0.3575872677	 0.088956
H	 3.4570682726	-0.4994226766	-1.699671606	 0.282805
H	 0.3996371891	 2.1626410799	 1.0257111402	 0.103338
H	-1.2050212113	 1.9122892696	 0.3158541322	 0.107519
H	-0.1857731093	 0.6882516499	 2.9439229635	 0.104697
H	-1.8837442088	 0.951980242	 2.5073024021	 0.101287
H	-1.8110366523	-0.986800619	 0.9322901925	 0.107655
H	-0.3657630252	-1.5304345798	 1.811244664	 0.099229
71.7353	94.6615	123.2039	153.8577	178.9295	237.1034	258.6732	285.6625	334.82	437.3781	463.1478	560.2905	595.1569	709.7633	759.1135	788.2782	827.3448	877.163	935.2385	955.9891	997.9034	1023.9238	1046.6691	1055.6463	1094.0909	1103.6939	1134.7559	1162.7321	1168.575	1186.8646	1213.2663	1223.5894	1243.2758	1249.262	1270.9947	1280.6662	1348.1413	1376.4222	1412.5872	1444.321	1470.1116	1471.0107	1480.6149	1485.8834	1494.6705	1506.774	1515.2906	2971.5824	2994.2837	3047.3383	3053.5946	3056.8599	3069.243	3070.4819	3094.8558	3101.5312	3104.0024	3118.4811	3125.9087	3809.0489
CN1C(CO)C11CCC1	CN1[C@@H](CO)C21CCC2	
InChI=1S/C7H13NO/c1-8-6(5-9)7(8)3-2-4-7/h6,9H,2-5H2,1H3	InChI=1S/C7H13NO/c1-8-6(5-9)7(8)3-2-4-7/h6,9H,2-5H2,1H3/t6-,8?/m0/s1
