20
gdb 12314	2.78966	2.01009	1.23678	1.3987	78.5	-0.225	0.0303	0.2553	1022.7229	0.177139	-349.023283	-349.014779	-349.013835	-349.056	31.676	
C	 0.3963730697	 1.5439005164	 0.1310912929	-0.483628
C	 0.1881569931	 0.0604731882	-0.020986289	 0.210664
C	-0.0440943154	-0.5794780506	-1.1747879185	 0.184837
C	-0.2029983496	 0.0558702204	-2.5306860182	-0.485398
C	-0.1787902799	-2.0882874023	-1.2104793802	-0.140252
O	 0.2120059591	-2.7539834285	-0.0303938115	-0.243506
C	-0.3105184442	-2.122718314	 1.1231592386	-0.088293
C	 0.2711582563	-0.7206048258	 1.2749331623	-0.280942
H	 1.3369033764	 1.7421980331	 0.6618060169	 0.123143
H	 0.435420919	 2.0799909456	-0.8179974186	 0.119952
H	-0.3997578307	 1.9914908818	 0.7408044318	 0.121283
H	 0.6288941351	-0.2144589734	-3.1946121046	 0.12514
H	-1.1172292518	-0.3064013377	-3.0193528315	 0.122654
H	-0.2622652909	 1.1440802659	-2.4936454087	 0.124556
H	-1.2224048103	-2.3511645186	-1.4736727751	 0.087698
H	 0.4533187241	-2.4954388456	-2.0102479408	 0.109748
H	-1.4110943011	-2.0691611174	 1.0648302374	 0.084215
H	-0.0494614593	-2.7614367289	 1.9719528902	 0.10293
H	 1.3173873978	-0.7820278514	 1.6073269779	 0.109712
H	-0.2675325174	-0.1828621171	 2.0674634187	 0.095487
116.6247	134.2531	148.7265	154.5126	313.6339	322.7893	341.9143	355.303	452.8686	477.7232	536.8008	649.8609	705.6838	855.2069	893.235	947.0917	958.5088	997.6926	1026.2084	1037.3995	1082.5759	1100.0362	1142.38	1158.3809	1164.0816	1234.1502	1249.8225	1273.9356	1318.1849	1370.4305	1386.3829	1406.0555	1417.947	1427.3121	1469.0133	1479.2688	1482.2966	1487.2155	1489.7776	1500.067	1503.477	1751.4028	2910.2929	2961.0113	3001.9006	3013.473	3016.5247	3034.0243	3035.7565	3054.5784	3055.5429	3082.9177	3127.3379	3141.5664
CC1=C(C)COCC1	CC1=C(C)COCC1	
InChI=1S/C7H12O/c1-6-3-4-8-5-7(6)2/h3-5H2,1-2H3	InChI=1S/C7H12O/c1-6-3-4-8-5-7(6)2/h3-5H2,1-2H3
