24
gdb 101339	2.8274	0.97362	0.81498	2.8708	86.71	-0.2348	0.0791	0.314	1521.6528	0.215935	-405.520392	-405.509782	-405.508838	-405.556072	39.411	
C	-0.2149322337	 1.5055664792	-0.9735551009	-0.388373
C	-0.0219673888	 0.2250728477	-0.1523134	-0.206296
C	-1.3290482464	-0.3960686685	 0.3119069599	 0.025846
C	-1.3386742741	-1.5709259681	 1.2280574434	-0.268728
N	-1.8824921713	-0.2895377728	 1.6690938627	-0.094421
C	-1.1922514171	 0.4055055452	 2.7612001797	 0.025096
C	-1.4549016508	 1.9102320131	 2.6853923763	-0.395311
C	-1.7591788411	-0.1942866238	 4.0596005159	-0.045116
O	-3.1642680644	-0.0596318625	 4.1247636058	-0.424423
H	 0.7469458708	 1.9058846902	-1.3077872243	 0.115631
H	-0.8202745079	 1.3080028639	-1.8649478284	 0.118943
H	-0.7226282389	 2.2869650929	-0.4005305902	 0.130565
H	 0.4992680731	-0.5156314984	-0.7725035479	 0.106942
H	 0.6365614082	 0.4147418018	 0.7019354762	 0.105457
H	-2.1108309751	-0.3597043548	-0.4475636825	 0.087656
H	-2.0480510943	-2.3840423838	 1.0964709909	 0.11326
H	-0.3759673294	-1.8753333006	 1.6399020618	 0.107628
H	-0.1044654148	 0.2187295551	 2.7529820664	 0.056954
H	-2.5254858278	 2.1081429716	 2.7740934176	 0.133708
H	-0.94249459	 2.4237545893	 3.5050158672	 0.113322
H	-1.0966110971	 2.3347681262	 1.7450018094	 0.117865
H	-1.4552461074	-1.2522794347	 4.1284216271	 0.079415
H	-1.3396417124	 0.3271353722	 4.9268638349	 0.099213
H	-3.4758024491	-0.2876516004	 3.2376958087	 0.285169
53.6841	114.5532	121.2482	166.1183	186.5294	196.565	236.4276	260.537	299.5348	347.1189	395.0119	464.4471	499.6311	532.6933	620.4464	734.6733	761.3935	812.1879	870.7278	914.1704	942.658	962.7922	991.2287	1018.7349	1050.4575	1056.027	1083.7408	1115.5361	1121.8839	1147.9392	1149.4886	1185.6192	1191.6762	1238.455	1288.0421	1322.8686	1328.9853	1336.5366	1363.3587	1383.2088	1408.8678	1416.4599	1426.9227	1443.5971	1481.3513	1486.9284	1496.4276	1501.2678	1506.9735	1509.0351	1511.352	2944.192	2965.6953	3026.0567	3038.4077	3050.7254	3067.1469	3067.9437	3081.4264	3096.1771	3106.5429	3114.2664	3120.7398	3138.9075	3168.5773	3741.505
CCC1CN1C(C)CO	CC[C@H]1CN1[C@@H](C)CO	
InChI=1S/C7H15NO/c1-3-7-4-8(7)6(2)5-9/h6-7,9H,3-5H2,1-2H3	InChI=1S/C7H15NO/c1-3-7-4-8(7)6(2)5-9/h6-7,9H,3-5H2,1-2H3/t6-,7-,8?/m0/s1
