18
gdb 78164	2.28187	1.75621	1.37301	5.0949	71.28	-0.2636	0.0169	0.2805	1019.8248	0.147976	-439.111131	-439.102934	-439.10199	-439.143695	31.077	
C	 0.8149095227	 2.0437765899	 0.3766214923	-0.43054
C	 0.6276980318	 0.546166584	 0.301946372	-0.005819
C	 0.763441734	-0.3122015252	-0.9024654709	-0.077744
C	 1.4812679832	 0.1587745134	-2.1604056623	 0.110028
C	 0.8078860842	 1.2264940874	-3.0091777173	-0.411384
O	 2.7564471883	 0.6168559423	-1.6738813371	-0.244546
C	 2.9391095182	 0.2625148006	-0.3641563124	 0.446509
O	 3.9462103219	 0.489413274	 0.2309962121	-0.342573
N	 1.7831945369	-0.3993987586	 0.1611003137	-0.194536
H	 1.5361019335	 2.4255154883	-0.3472436961	 0.15132
H	-0.1440783341	 2.5425308978	 0.2024080112	 0.127542
H	 1.1602437533	 2.3239682236	 1.3766368003	 0.14528
H	-0.0698870693	 0.1682350396	 1.0467099088	 0.11242
H	 0.1116812683	-1.1743741846	-1.0091909046	 0.109115
H	 1.6741174297	-0.7227387968	-2.78630626	 0.104243
H	 0.5841508647	 2.12501573	-2.4315496885	 0.132987
H	 1.4514586781	 1.5022623118	-3.8485966096	 0.140409
H	-0.1299745253	 0.8331523226	-3.4140723414	 0.127289
126.5136	143.3236	184.4268	215.2676	244.131	279.9244	363.5948	443.8455	529.1114	552.8832	673.9646	694.1912	752.2092	767.5614	824.3706	845.7127	934.5664	953.8257	995.2731	1031.4789	1060.3356	1093.2377	1101.6459	1135.6027	1142.6977	1176.7526	1186.927	1294.3525	1363.8267	1376.5366	1395.1461	1412.9303	1422.7389	1440.2883	1485.9467	1496.5281	1500.6739	1503.2172	1898.7601	3016.0603	3045.4648	3052.0403	3105.4243	3120.3348	3123.7982	3143.0383	3148.7731	3154.497
CC1C2C(C)OC(=O)N12	C[C@H]1[C@H]2[C@@H](C)OC(=O)N12	
InChI=1S/C6H9NO2/c1-3-5-4(2)9-6(8)7(3)5/h3-5H,1-2H3	InChI=1S/C6H9NO2/c1-3-5-4(2)9-6(8)7(3)5/h3-5H,1-2H3/t3-,4+,5-,7?/m0/s1
