18
gdb 98230	3.24066	1.06571	0.813	3.1389	71.31	-0.2433	0.0053	0.2486	1355.0414	0.147517	-472.44475	-472.435037	-472.434093	-472.47973	35.272	
C	-1.0282286996	 1.2697031137	-0.1957464081	-0.358553
N	-0.2399090387	 0.0489904712	-0.0112300367	-0.183227
C	-0.1006800233	-0.3729214602	 1.3596209334	 0.477433
N	 0.6174793283	-1.4948789949	 1.554117795	-0.555093
O	-0.6204269412	 0.2737761421	 2.251679564	-0.407155
C	 0.302117699	-0.5957738665	-1.1128517663	 0.359458
N	 1.0080135324	-1.661229975	-1.0325112082	-0.542235
C	 0.0098304791	 0.0524210467	-2.475323505	-0.163141
O	 0.4868548305	-0.7328832071	-3.5456358119	-0.403745
H	-1.2475384064	 1.6508654839	 0.7987169919	 0.184849
H	-0.4702532905	 2.0261806203	-0.7546362502	 0.127047
H	-1.9743996022	 1.0704671912	-0.7103033402	 0.125997
H	 1.0362370275	-1.9720835807	 0.7566840708	 0.289741
H	 0.7303051193	-1.7853708282	 2.5092836401	 0.257967
H	 1.3209590868	-1.9182246892	-1.9669931222	 0.226938
H	-1.0621675171	 0.2611946825	-2.5760338675	 0.121219
H	 0.5306689664	 1.0135875096	-2.5419367019	 0.147598
H	-0.1264124702	-1.4633466493	-3.6791106172	 0.294899
58.7916	71.0892	132.2879	186.5084	230.2991	241.4733	331.8461	359.5752	375.0931	413.5665	426.6883	465.7451	553.2206	572.2952	676.2691	724.8951	776.6997	787.0937	880.1906	888.6574	997.0871	1059.5047	1114.5217	1153.1907	1155.4206	1216.209	1223.7848	1262.8974	1351.6428	1363.3967	1405.1434	1426.5949	1460.2631	1484.0002	1507.0482	1519.1247	1590.8516	1690.1635	1803.5305	3026.7898	3037.7945	3080.6348	3095.5548	3179.0244	3376.8378	3496.2256	3706.185	3816.691
CN(C(N)=O)C(=N)CO	CN(C(=O)N)C(=N)CO	
InChI=1S/C4H9N3O2/c1-7(4(6)9)3(5)2-8/h5,8H,2H2,1H3,(H2,6,9)	InChI=1S/C4H9N3O2/c1-7(4(6)9)3(5)2-8/h5,8H,2H2,1H3,(H2,6,9)
