16
gdb 125771	5.71516	0.94608	0.81583	5.3452	78.67	-0.2167	-0.0079	0.2087	1371.5605	0.124525	-434.066473	-434.057857	-434.056913	-434.10075	30.809	
C	-0.0184171505	 1.574075282	 0.0631320015	-0.493826
C	-0.0022541351	 0.0791166008	 0.0374679308	 0.414209
N	-0.0541124357	-0.5520525008	-1.1127655062	-0.206882
O	-0.0219047826	-1.9258872261	-0.7945013815	-0.190344
C	 0.0479486194	-2.0495551023	 0.5304721651	 0.579738
N	 0.0917086538	-3.3032102065	 1.1003201732	-0.402576
C	 0.076527787	-4.5548573233	 0.5042262966	 0.07545
N	 0.015206007	-4.7475778625	-0.7471041759	-0.416292
C	 0.0649261822	-0.8217413387	 1.1340129524	-0.47746
H	 0.8854084901	 1.9673901611	 0.5398016913	 0.135356
H	-0.074842196	 1.9633852631	-0.9550510238	 0.150933
H	-0.878065614	 1.9467911741	 0.6296221382	 0.135376
H	 0.1431125939	-3.2963793025	 2.1052752228	 0.265125
H	 0.1248952522	-5.3345355628	 1.2743489131	 0.095323
H	 0.0169181897	-5.7454721105	-0.9466516598	 0.230657
H	 0.1167111386	-0.5973387951	 2.1862862624	 0.105215
29.2464	132.8722	142.8148	154.342	239.2176	275.1742	385.58	407.7628	469.7358	551.6307	651.2591	708.8576	709.2398	746.1779	804.4209	815.5992	917.4901	987.5518	1009.4931	1045.6215	1047.3355	1066.3494	1090.0322	1185.7474	1225.6831	1374.9213	1405.3985	1421.1196	1450.0147	1475.8396	1482.3619	1521.1578	1565.3258	1660.1333	1739.4326	3041.1591	3042.3707	3098.4522	3140.2083	3268.715	3514.9108	3659.283
CC1=NOC(NC=N)=C1	Cc1noc(NC=N)c1	
InChI=1S/C5H7N3O/c1-4-2-5(7-3-6)9-8-4/h2-3H,1H3,(H2,6,7)	InChI=1S/C5H7N3O/c1-4-2-5(7-3-6)9-8-4/h2-3H,1H3,(H2,6,7)
