18
gdb 83211	2.52703	1.52179	1.2479	3.1555	74.64	-0.2486	0.0308	0.2794	1059.5164	0.148596	-401.947323	-401.938896	-401.937952	-401.980941	30.808	
C	 0.1474455079	 1.5278605259	-0.4469025111	-0.425449
C	 0.0686848263	 0.0675393309	-0.0568716835	-0.045069
C	 1.2354572662	-0.885798678	-0.1059865472	 0.080733
O	 2.5364103639	-0.3631833963	-0.1850584359	-0.253263
C	 2.8516191778	 0.3968405933	 0.974667334	-0.102859
C	 1.7150147526	 0.1506820652	 2.0212387036	-0.182812
C	 1.2989556682	 1.3776806359	 2.700003621	 0.278303
N	 0.9756225618	 2.3472084919	 3.2400553104	-0.331247
C	 0.6186007649	-0.5528916575	 1.2238539195	-0.113231
H	 1.152621044	 1.9397147971	-0.3472448394	 0.133437
H	-0.1419078927	 1.6447293358	-1.4963049636	 0.12463
H	-0.5279255443	 2.1388013966	 0.1592549098	 0.140297
H	-0.8710936532	-0.4007223125	-0.3428531993	 0.096795
H	 1.1600502162	-1.8571083518	-0.5823153898	 0.107156
H	 3.8247813376	 0.0693727423	 1.3549257385	 0.123147
H	 2.9242283109	 1.4607381848	 0.7280669808	 0.128442
H	 2.0684669897	-0.5421352421	 2.7923303333	 0.134122
H	-0.0017917079	-1.2551566115	 1.7669359591	 0.106867
72.0241	86.8134	141.1793	167.3171	242.399	249.5902	423.9536	506.6196	547.0025	569.6139	684.4765	725.7622	760.6847	768.9103	858.3782	904.6626	960.0748	998.6468	1025.8845	1034.549	1049.4967	1080.409	1103.6136	1129.6856	1136.2896	1167.0899	1222.6002	1237.3226	1272.6113	1314.0358	1330.9021	1360.3761	1399.3132	1424.3452	1435.8918	1487.2595	1501.1863	1535.8113	2356.3992	3041.4424	3047.7632	3050.7702	3082.2242	3105.4857	3123.9881	3145.0704	3170.8367	3185.2018
CC1C2OCC(C#N)C12	C[C@H]1[C@H]2OC[C@@H](C#N)[C@@H]12	
InChI=1S/C7H9NO/c1-4-6-5(2-8)3-9-7(4)6/h4-7H,3H2,1H3	InChI=1S/C7H9NO/c1-4-6-5(2-8)3-9-7(4)6/h4-7H,3H2,1H3/t4-,5-,6-,7-/m1/s1
