15
gdb 27484	2.08693	1.82816	0.98045	5.1562	73.31	-0.2363	-0.0438	0.1925	1139.3754	0.113303	-454.0234	-454.015361	-454.014417	-454.056306	29.74	
C	-0.1315076211	 1.4993553436	 0.0732858533	-0.494808
C	 0.0332071777	 0.0162779387	-0.0588350463	 0.400533
C	-0.1397619847	-0.6701895334	-1.2117185653	-0.364025
C	 0.0388226492	-2.1022425599	-1.2527858755	 0.4411
O	-0.0792905353	-2.8347344586	-2.1920828012	-0.326534
O	 0.398802769	-2.7001817218	-0.0191459931	-0.261422
C	 0.5768769429	-2.026056263	 1.1483487665	 0.467924
N	 0.8983984888	-2.5670210653	 2.2452791622	-0.565949
N	 0.3812074478	-0.6529384848	 1.0812427112	-0.396766
H	 0.7999534765	 1.9629146192	 0.417500308	 0.152763
H	-0.4078770525	 1.9433660664	-0.883075607	 0.155338
H	-0.9094817328	 1.7382808989	 0.8072277276	 0.152782
H	-0.4144971768	-0.1776245685	-2.1321542295	 0.124719
H	 1.0037983684	-3.5720181563	 2.1286917431	 0.23832
H	 0.5164940328	-0.1662768752	 1.9534436659	 0.276025
103.2115	123.8022	145.6725	187.5096	293.905	371.8173	477.0986	517.1933	536.0964	575.5694	585.1905	629.8812	715.2335	740.9672	810.9278	824.0571	863.3952	960.5344	1031.5192	1052.3641	1063.806	1108.4144	1146.5894	1201.1048	1349.7486	1395.8114	1413.4383	1475.8613	1477.4144	1528.6377	1685.5895	1761.1132	1864.5516	3037.4538	3092.7222	3152.4658	3249.6978	3537.4956	3646.3469
CC1=CC(=O)OC(=N)N1	CC1=CC(=O)O[C]([NH])N1	
InChI=1S/C5H6N2O2/c1-3-2-4(8)9-5(6)7-3/h2H,1H3,(H2,6,7)	InChI=1S/C5H6N2O2/c1-3-2-4(8)9-5(6)7-3/h2H,1H3,(H2,6,7)
