21
gdb 114168	3.72848	0.94096	0.82318	3.2798	85.53	-0.2424	-0.016	0.2264	1452.695	0.181704	-387.084408	-387.075251	-387.074306	-387.118517	34.323	
C	-0.0211026221	 1.5483270963	 0.0566313701	-0.379625
C	-0.1525315391	 0.0265076294	-0.0617304097	-0.193925
C	 0.7074932927	-0.5553171771	-1.1809191533	 0.042739
C	 2.2694358938	-0.5565743311	-1.0286786049	-0.329102
C	 2.2886797569	-2.0632217956	-1.2885599427	 0.284573
C	 1.4355553926	-2.7917812271	-0.2725205176	-0.334803
C	 0.7269775999	-2.0821801939	-1.3697214126	-0.123156
C	 3.1968022759	-2.7648946855	-2.1958772073	 0.051703
O	 4.1413009427	-2.2568410771	-2.7556901877	-0.27407
H	 1.0142303156	 1.8438616239	 0.2578964331	 0.121939
H	-0.3314650555	 2.0452481712	-0.8692629815	 0.116042
H	-0.6419612659	 1.9388815383	 0.8685307668	 0.114359
H	 0.118065201	-0.4405184406	 0.8935939056	 0.094389
H	-1.2017736842	-0.240634641	-0.2443582553	 0.097481
H	 0.4379046161	-0.0760147811	-2.1277077798	 0.081003
H	 2.7877495092	 0.0066093945	-1.8053327497	 0.128501
H	 2.6576210854	-0.2510903547	-0.0515635748	 0.098973
H	 1.4447433683	-3.87509283	-0.351023588	 0.124239
H	 1.4232908784	-2.420515628	 0.7487138794	 0.121132
H	 0.1289359888	-2.6273604317	-2.0910073063	 0.099599
H	 2.9379430095	-3.8383288993	-2.3586996037	 0.058011
86.7712	101.7643	126.441	170.7733	229.2352	256.8933	295.1634	370.2243	413.9516	467.6651	533.4082	652.5979	752.2565	769.818	789.598	831.2019	895.8911	935.2925	948.8889	953.1495	987.344	1026.7035	1030.8084	1050.1609	1086.384	1088.482	1108.1935	1139.4966	1187.9982	1230.7174	1243.6099	1268.7195	1291.8888	1319.9561	1351.7839	1375.5494	1397.4403	1414.4428	1437.9767	1480.8791	1482.905	1497.3559	1500.334	1506.6344	1797.2958	2846.3666	3018.2207	3031.9048	3041.9747	3051.637	3058.9162	3098.5106	3105.2491	3113.8819	3130.7397	3178.0426	3199.5067
CCC1CC2(CC12)C=O	CC[C@H]1C[C@]2(C[C@@H]12)C=O	
InChI=1S/C8H12O/c1-2-6-3-8(5-9)4-7(6)8/h5-7H,2-4H2,1H3	InChI=1S/C8H12O/c1-2-6-3-8(5-9)4-7(6)8/h5-7H,2-4H2,1H3/t6-,7-,8-/m0/s1
