23
gdb 117357	3.18584	0.73143	0.65002	2.3901	86.74	-0.2354	-0.007	0.2284	1841.6899	0.203722	-388.305664	-388.295044	-388.2941	-388.344036	37.762	
C	 0.8975793312	 1.2568166753	-0.1103751893	-0.387197
C	 0.2232184134	-0.1117362849	 0.0102571863	-0.157629
C	 0.7127709634	-0.909786121	 1.2174244737	-0.290923
C	 0.0588595704	-2.2730287083	 1.3732453239	 0.380513
O	-0.802995488	-2.6679938779	 0.6204227163	-0.313665
C	 0.5644683362	-3.157969997	 2.5135983323	-0.313121
C	 1.4463978201	-4.268920816	 1.9660382987	 0.044284
C	 2.9317576817	-4.0634869416	 1.7929769775	-0.258456
C	 2.414021663	-4.9929261841	 2.8641743878	-0.278988
H	 1.9842959553	 1.1596138451	-0.2144393561	 0.111647
H	 0.5287984974	 1.8030942725	-0.9839236728	 0.115295
H	 0.7064321365	 1.8765990583	 0.7731716186	 0.111723
H	-0.8633370692	 0.0061121615	 0.0807221529	 0.112483
H	 0.3960635224	-0.699637872	-0.897720698	 0.111156
H	 1.8011764565	-1.0669896626	 1.177391094	 0.120885
H	 0.5467398631	-0.3535485734	 2.1526705288	 0.117714
H	 1.1192607284	-2.5684950534	 3.2520523447	 0.093523
H	-0.3112732179	-3.5919906761	 3.0092005076	 0.123189
H	 0.9544121932	-4.8670236479	 1.2049138438	 0.104908
H	 3.415640971	-4.4935497057	 0.9232094532	 0.116229
H	 3.3580582681	-3.1179225426	 2.1134016198	 0.109295
H	 2.4904990677	-4.6666181592	 3.8963319326	 0.111374
H	 2.5410849261	-6.0611129691	 2.7271521637	 0.11576
10.7122	61.8359	73.0789	89.522	153.5656	185.4572	246.2659	306.5497	333.9017	354.837	401.8958	524.5785	640.2056	739.2312	770.5603	798.7686	831.1548	836.9605	873.2241	903.9175	915.7612	948.8074	991.1476	1045.6497	1054.3077	1060.5943	1079.8776	1109.0891	1135.7808	1147.3946	1175.1281	1198.9146	1225.3837	1242.6221	1259.2979	1300.1908	1321.4832	1331.5501	1392.9409	1400.5825	1413.9115	1446.7908	1467.0857	1477.106	1486.1267	1500.2954	1505.775	1507.6753	1804.7743	3000.2902	3025.6927	3027.3892	3033.7402	3049.0016	3073.9987	3082.9164	3099.1225	3102.6212	3127.708	3133.2005	3157.1267	3206.5382	3221.8627
CCCC(=O)CC1CC1	CCCC(=O)CC1CC1	
InChI=1S/C8H14O/c1-2-3-8(9)6-7-4-5-7/h7H,2-6H2,1H3	InChI=1S/C8H14O/c1-2-3-8(9)6-7-4-5-7/h7H,2-6H2,1H3
