19
gdb 73954	2.63231	1.37649	0.93887	0.8704	88.01	-0.2232	-0.0145	0.2086	1246.4304	0.15848	-385.875836	-385.866843	-385.865898	-385.909325	33.919	
C	 0.1504185247	 1.5343709636	 0.0016119373	-0.50494
C	 0.0027252887	 0.0418548852	 0.0329737751	 0.192107
C	-1.1779715918	-0.6055840865	-0.0021649733	 0.065462
C	-1.2322962094	-2.124395491	-0.0121244737	-0.30295
C	 0.1285460317	-2.7036583471	-0.3895025819	-0.095127
O	 1.1571753234	-2.1064890393	 0.3805122507	-0.242487
C	 1.2972694017	-0.7321967227	 0.099631269	-0.142859
C	-2.4289726747	 0.071961099	-0.0308168345	 0.208856
C	-3.5216662823	 0.5816050937	-0.0556938363	-0.418922
H	 0.8156979052	 1.8438371921	-0.8149939466	 0.126536
H	-0.8121646335	 2.0306102919	-0.1299527208	 0.143734
H	 0.6055164415	 1.90207234	 0.9304685408	 0.129671
H	-1.5402128377	-2.4920567533	 0.9748445348	 0.122497
H	-1.9943365126	-2.4616884377	-0.7238023762	 0.113537
H	 0.1744919575	-3.7771822488	-0.1869731366	 0.108849
H	 0.3184226646	-2.5512349616	-1.4651579228	 0.090035
H	 1.850267391	-0.58232828	-0.8483815487	 0.09714
H	 1.9311499927	-0.3210676557	 0.8955390417	 0.118801
H	-4.4765691606	 1.0452667482	-0.074358968	 0.190061
107.1774	133.5752	145.6431	153.7422	256.7549	315.8573	324.0854	405.1065	422.3848	472.777	547.0853	567.7631	609.5338	642.2467	658.0458	685.2583	860.4906	919.8858	952.2823	962.9174	1016.3956	1078.465	1082.5726	1130.6493	1142.3892	1160.3165	1228.3835	1246.0877	1276.4419	1315.4425	1364.7632	1386.3261	1409.5374	1422.5017	1472.7546	1478.7505	1483.7344	1483.9827	1500.544	1700.6951	2212.3244	2915.0196	2968.2139	3016.5619	3028.251	3041.0776	3060.7694	3069.2712	3089.8752	3137.3416	3502.8171
CC1=C(CCOC1)C#C	CC1=C(CCOC1)C#C	
InChI=1S/C8H10O/c1-3-8-4-5-9-6-7(8)2/h1H,4-6H2,2H3	InChI=1S/C8H10O/c1-3-8-4-5-9-6-7(8)2/h1H,4-6H2,2H3
