15
gdb 18284	3.24095	2.28501	1.96943	2.2469	60.19	-0.25	0.027	0.277	741.5252	0.120414	-399.78133	-399.774507	-399.773563	-399.812381	25.576	
O	-0.2137068521	 1.460823469	-0.1314075697	-0.415069
C	-0.0724764222	 0.0806079804	-0.012350115	 0.078037
C	-1.3423733513	-0.7418305902	 0.0981774389	-0.14593
C	-2.6915370381	-0.0475676711	 0.0021887123	-0.167484
N	-3.1002036038	 0.3785872057	-1.3317558734	-0.251588
C	-2.288605577	 0.3106532584	-2.2895094269	 0.118129
O	-0.9945757983	-0.1365101508	-2.311213695	-0.235115
C	-0.5174659522	-0.7888618293	-1.1600210819	 0.038341
H	 0.0484042108	 1.7111165713	-1.0250155778	 0.297738
H	 0.7977024952	-0.2416370419	 0.557119978	 0.095455
H	-1.3024110078	-1.6186379517	 0.7359038391	 0.100019
H	-3.4670537293	-0.7233010704	 0.377617511	 0.116771
H	-2.7132960358	 0.8398385348	 0.6454609013	 0.133095
H	-2.5630107854	 0.6448642231	-3.2876781433	 0.126115
H	 0.0460379373	-1.6747825073	-1.4295387877	 0.111487
104.6362	156.6994	209.822	259.2065	478.4836	498.3248	508.5222	627.4956	645.5511	756.4159	790.3019	849.4613	927.8242	942.008	959.6425	982.2504	1025.1074	1068.3918	1094.7605	1121.1546	1138.6022	1179.7288	1244.827	1283.3009	1330.6595	1349.7788	1354.0681	1368.4456	1410.893	1440.5352	1475.8781	1755.2691	3038.4538	3069.4152	3116.3594	3160.8238	3166.1519	3176.4155	3790.1549
OC1C2CN=COC12	O[C@H]1[C@H]2CN=CO[C@@H]12	
InChI=1S/C5H7NO2/c7-4-3-1-6-2-8-5(3)4/h2-5,7H,1H2	InChI=1S/C5H7NO2/c7-4-3-1-6-2-8-5(3)4/h2-5,7H,1H2/t3-,4+,5-/m1/s1
