21
gdb 99639	2.34887	1.14418	0.8717	4.1335	83.45	-0.2386	0.0302	0.2688	1410.4463	0.181336	-383.25706	-383.246913	-383.245969	-383.292568	36.483	
C	-0.4519646498	 0.5912173196	 3.4811119007	-0.401081
C	-0.4643619603	-0.7153290156	 2.6859756321	-0.180923
C	-1.6489828399	-0.8330412366	 1.6959486312	-0.172413
C	-1.6184555936	 0.259245913	 0.7131911345	 0.291317
N	-1.5827368131	 1.117193249	-0.0608664459	-0.33604
C	-1.6314148909	-2.1861440935	 0.9851822695	 0.018916
C	-2.3427188442	-3.3516221359	 1.587091822	-0.26351
N	-2.791649309	-2.7733636267	 0.3285161554	-0.080115
C	-4.0660678871	-2.0694176858	 0.3027883966	-0.32597
H	 0.4010561095	 0.617071865	 4.1650644326	 0.122621
H	-0.3791392408	 1.4587120748	 2.8185081952	 0.146598
H	-1.3628956963	 0.7009875836	 4.0797211234	 0.118476
H	 0.4714432925	-0.8242652877	 2.1260207652	 0.119051
H	-0.527019909	-1.5730502998	 3.3643914669	 0.111911
H	-2.5804021738	-0.7281277715	 2.2635741342	 0.121653
H	-0.700168753	-2.3636159251	 0.4486667204	 0.106468
H	-1.9205155556	-4.3519428273	 1.5388483068	 0.121687
H	-2.9386748516	-3.1548773403	 2.4796940915	 0.105447
H	-4.3496014291	-1.5958676116	 1.2563927054	 0.098766
H	-4.0380335151	-1.2976343065	-0.4717164208	 0.146899
H	-4.8506624597	-2.7866337011	 0.043870153	 0.130243
55.2061	91.2481	118.2558	155.2198	182.9413	208.7016	257.4818	286.817	311.7803	371.5428	433.663	470.6738	544.783	599.7633	754.7278	768.0684	853.3828	881.9212	931.0547	952.9529	1033.6859	1038.9213	1085.2256	1097.3424	1116.6068	1126.4819	1131.021	1161.7019	1188.3336	1202.6509	1254.9499	1280.0357	1337.5193	1346.0764	1366.6667	1414.9429	1418.5342	1452.7666	1486.7623	1490.3136	1500.0437	1503.4087	1506.6376	1513.7026	2352.6098	2974.862	3037.411	3039.538	3051.4051	3074.6772	3077.372	3079.5191	3107.7995	3113.2858	3115.0901	3119.0236	3170.3659
CCC(C#N)C1CN1C	CC[C@@H](C#N)[C@H]1CN1C	
InChI=1S/C7H12N2/c1-3-6(4-8)7-5-9(7)2/h6-7H,3,5H2,1-2H3	InChI=1S/C7H12N2/c1-3-6(4-8)7-5-9(7)2/h6-7H,3,5H2,1-2H3/t6-,7+,9?/m0/s1
