20
gdb 74532	3.71649	1.31769	1.22699	2.1444	84.74	-0.2016	0.0117	0.2132	1116.3641	0.172368	-365.97326	-365.965485	-365.964541	-366.005033	31.583	
C	-0.2279256832	 1.5510711183	 0.053348487	-0.485462
C	 0.0059975417	 0.0741059648	-0.0110644442	 0.315313
C	 0.0737323933	-0.6891125494	-1.11858548	-0.290249
C	 0.1706629583	-2.1252552636	-0.7628940493	 0.228955
C	 1.2788410888	-3.1910179884	-0.8676451811	-0.268301
C	 1.3042276117	-3.2459882336	 0.7059424034	-0.261996
C	 0.1850671512	-2.186014176	 0.7309625646	 0.238154
C	 0.1395021502	-0.7668670934	 1.2676592643	-0.412923
N	-0.955413001	-2.7460968247	-0.0134089718	-0.393914
H	 0.5590178274	 2.0524016816	 0.6314650819	 0.12517
H	-0.2561154982	 1.9978717245	-0.944093871	 0.126232
H	-1.1762070221	 1.7852842082	 0.5545476675	 0.12669
H	 0.0188866492	-0.3041890633	-2.1316583545	 0.090735
H	 0.998277409	-4.1101134691	-1.3869440916	 0.105887
H	 2.2084798473	-2.8030658325	-1.2886737657	 0.103149
H	 1.0563502318	-4.2033790121	 1.1706449105	 0.105409
H	 2.2455603695	-2.8747868431	 1.1183189904	 0.099829
H	 1.062005291	-0.5126486238	 1.8071305502	 0.112791
H	-0.6833396492	-0.5769774505	 1.9700069987	 0.109734
H	-1.7174792165	-2.0708232439	 0.0029205307	 0.224796
131.7639	175.8331	220.2666	276.2327	322.8459	363.2063	443.4696	483.3633	546.924	576.7919	675.5733	734.4357	757.3116	795.147	817.3141	855.204	862.3385	925.2505	939.7977	957.5234	998.6609	1028.803	1047.2461	1074.8661	1109.6367	1113.9304	1173.8528	1177.3752	1217.5354	1229.5305	1234.5199	1265.7281	1301.2263	1355.3593	1360.0475	1369.2738	1411.2188	1463.923	1473.5219	1477.3319	1484.4431	1486.777	1664.8862	3010.6685	3016.1777	3039.3984	3058.7173	3059.086	3068.661	3110.8475	3111.4525	3130.7358	3182.0468	3492.6819
CC1=CC23CCC2(C1)N3	CC1=C[C@@]23CC[C@]2(C1)N3	
InChI=1S/C8H11N/c1-6-4-7-2-3-8(7,5-6)9-7/h4,9H,2-3,5H2,1H3	InChI=1S/C8H11N/c1-6-4-7-2-3-8(7,5-6)9-7/h4,9H,2-3,5H2,1H3/t7-,8+/m0/s1
