19
gdb 52322	5.6472	0.6766	0.63206	3.8686	73.53	-0.2488	-0.0191	0.2297	1726.197	0.158133	-460.172803	-460.163474	-460.16253	-460.20917	31.856	
O	-0.6379710707	 0.7794858453	 0.821103953	-0.237765
C	 0.120995394	 0.9714601556	-0.0931257626	 0.159315
C	 1.3088163346	 1.9041701167	-0.0568675942	-0.27599
C	 1.2795424948	 2.9120297894	-1.2163575649	-0.233234
C	 2.5450750065	 3.7495126258	-1.2761555925	 0.226321
O	 3.6856929152	 2.9214830206	-1.4639539329	-0.273086
C	 4.5593543955	 3.5714906689	-2.3846524144	-0.086872
C	 3.8520760623	 4.9052388139	-2.6839237227	-0.112223
O	 2.4955658459	 4.6209937675	-2.3786420465	-0.249853
H	-0.0136349715	 0.4449866125	-1.0681962589	 0.070846
H	 1.3338566684	 2.4008240617	 0.9175500965	 0.120531
H	 2.2161060679	 1.2927947512	-0.1553671654	 0.142372
H	 1.1816005892	 2.3931978317	-2.1764467373	 0.115163
H	 0.4246011616	 3.5893261059	-1.1159418359	 0.122831
H	 2.6787357524	 4.3302875882	-0.3430828777	 0.065337
H	 5.5484984609	 3.7117191898	-1.9347215517	 0.109429
H	 4.6648277366	 2.9502854436	-3.2820177945	 0.11114
H	 4.2362840286	 5.7124763496	-2.0424592979	 0.103092
H	 3.9164625176	 5.2181944122	-3.7277452396	 0.122647
38.1908	54.9013	76.6863	101.3761	134.781	212.291	294.9009	360.3804	492.6803	545.6027	683.3169	717.3722	771.9108	824.5671	883.2122	921.392	952.9824	993.5266	1013.4452	1049.7036	1073.1964	1098.0557	1132.5325	1153.5551	1173.4838	1207.7387	1224.9397	1243.0724	1263.6666	1302.6488	1339.9176	1360.2538	1379.5492	1400.365	1430.2988	1437.057	1464.2413	1484.6731	1513.5772	1531.9046	1837.9879	2849.2054	2916.1347	2994.4507	3027.0162	3028.639	3045.4151	3068.2474	3086.8157	3105.7298	3114.7519
O=CCCC1OCCO1	O=CCCC1OCCO1	
InChI=1S/C6H10O3/c7-3-1-2-6-8-4-5-9-6/h3,6H,1-2,4-5H2	InChI=1S/C6H10O3/c7-3-1-2-6-8-4-5-9-6/h3,6H,1-2,4-5H2
