20
gdb 112676	2.90546	1.11713	0.91985	4.0903	76.32	-0.2335	0.0385	0.272	1319.0366	0.171428	-440.330127	-440.320665	-440.319721	-440.36474	34.127	
C	-0.104361544	 1.2328989404	-0.3965708594	-0.343676
N	-0.0715198093	-0.1567327494	-0.0111431077	-0.061913
C	-1.2006457354	-0.8191844932	 0.6128482596	-0.194859
C	-0.7808131883	-2.3085136253	 0.6607835376	-0.004211
C	-1.366876627	-3.0754468329	-0.5243646829	-0.081445
O	-0.9137963832	-4.4164916623	-0.4457304253	-0.418462
C	 0.7566166383	-2.2550224522	 0.6021233155	-0.343298
C	 1.0857823153	-0.8960629648	-0.0119675369	 0.4021
O	 2.1644431614	-0.5123890309	-0.4160242719	-0.395994
H	 0.8783551203	 1.4852772693	-0.7990812404	 0.165088
H	-0.869423551	 1.413166896	-1.1616035738	 0.119642
H	-0.3189350053	 1.8837297333	 0.461906656	 0.119615
H	-1.3930413236	-0.4156076854	 1.618509034	 0.102852
H	-2.1151983738	-0.6641326205	 0.0245235757	 0.102966
H	-1.1361603421	-2.7852373411	 1.5774966783	 0.089118
H	-2.4668839057	-3.0243681604	-0.4846054554	 0.087871
H	-1.0467732621	-2.5967891365	-1.4643500661	 0.095877
H	-1.1808112665	-4.8762159058	-1.2466971627	 0.290629
H	 1.2113105136	-2.2954963053	 1.5978626253	 0.125249
H	 1.1881619186	-3.0684649929	 0.0173118708	 0.142852
65.9918	120.5469	136.0391	156.0878	188.3076	245.5252	258.6355	302.3975	356.2764	423.4115	514.4054	581.4885	651.7884	685.1426	797.5317	849.4507	911.5502	942.3017	996.4897	1022.8988	1076.903	1094.0386	1104.1886	1131.8256	1156.0909	1183.9988	1217.4844	1232.7996	1275.1115	1278.7687	1296.4512	1320.2436	1336.5936	1369.6736	1430.7632	1449.2614	1460.7226	1474.0817	1493.2804	1513.1838	1522.0761	1542.5761	1806.5608	2962.8256	2984.0281	2993.622	3007.5692	3024.3622	3056.8325	3057.5798	3083.4625	3129.2747	3140.4697	3835.1912
CN1CC(CO)CC1=O	CN1C[C@@H](CO)CC1=O	
InChI=1S/C6H11NO2/c1-7-3-5(4-8)2-6(7)9/h5,8H,2-4H2,1H3	InChI=1S/C6H11NO2/c1-7-3-5(4-8)2-6(7)9/h5,8H,2-4H2,1H3/t5-/m0/s1
