17
gdb 43349	2.84383	1.78456	1.46054	4.4042	73.92	-0.2301	-0.0531	0.1769	931.3041	0.139122	-421.860091	-421.853359	-421.852415	-421.891102	27.103	
O	 0.0132169992	-0.0603166623	 0.0433680246	-0.338873
C	-0.0341677141	 1.150907554	 0.0403536992	 0.403076
C	-1.3012588577	 1.9209871358	 0.0334796259	-0.156044
C	-1.2825565932	 3.2605291619	 0.1072038905	-0.055077
C	 0.0218565512	 4.0185603356	 0.1441130083	-0.099267
C	 0.7059430413	 3.9390587556	-1.2418022006	-0.064225
O	 1.2895341191	 2.6383253891	-1.2951864924	-0.270319
C	 1.2233529572	 2.0366451491	 0.0127130424	-0.003131
C	 1.049825911	 3.2154843798	 0.9722595863	-0.261887
H	-2.2226291185	 1.3489067782	-0.001850889	 0.11154
H	-2.2091507989	 3.828318176	 0.1103802389	 0.109985
H	-0.1147254152	 5.0481811203	 0.4786833127	 0.081535
H	 0.0070937251	 4.0530797353	-2.0763608043	 0.112665
H	 1.4879637013	 4.7063245537	-1.3277721475	 0.102989
H	 2.1137639806	 1.4238843566	 0.1620761961	 0.096091
H	 1.9875796673	 3.7652831177	 1.0966196113	 0.111372
H	 0.6724005442	 2.9227083535	 1.9541392276	 0.11957
119.4167	229.8096	279.9222	395.1877	402.5507	436.4201	472.1504	618.6312	698.6428	751.2305	753.977	838.9575	866.1816	886.3743	896.1918	933.499	963.9238	993.0892	1016.2722	1038.1976	1064.6489	1081.1115	1127.6742	1164.6118	1206.8435	1221.9842	1254.2435	1296.2946	1309.013	1321.9517	1359.6268	1372.1872	1401.4932	1488.0997	1520.8352	1662.1176	1792.9604	3005.4601	3058.9907	3076.5226	3101.165	3110.201	3120.5719	3163.5731	3194.8326
O=C1C=CC2COC1C2	O=C1C=C[C@@H]2CO[C@H]1C2	
InChI=1S/C7H8O2/c8-6-2-1-5-3-7(6)9-4-5/h1-2,5,7H,3-4H2	InChI=1S/C7H8O2/c8-6-2-1-5-3-7(6)9-4-5/h1-2,5,7H,3-4H2/t5-,7-/m0/s1
