18
gdb 125544	3.12442	1.47101	1.02218	2.8224	82.02	-0.1855	0.0394	0.2249	1163.7452	0.149203	-398.113473	-398.104706	-398.103762	-398.147581	31.673	
C	-0.2528351229	 1.4848655796	 0.0248423599	-0.504329
C	 0.017205103	 0.0136595544	 0.0359533548	 0.331677
N	 0.136236493	-0.6755134973	-1.1190709953	-0.371063
N	 0.316154256	-1.919586716	-0.6791645028	 0.076196
C	 0.7722228734	-3.2730103883	-1.0176373732	-0.164139
C	 0.7858333925	-3.5293694551	 0.5456501629	-0.383873
C	 0.3691213336	-2.0671727845	 0.6605315815	 0.349946
C	 0.1705282991	-0.809024881	 1.1988312493	-0.098459
N	 0.1904689416	-0.3615582382	 2.5342972696	-0.612103
H	 0.5214856165	 2.0408273543	 0.5671454442	 0.127766
H	-0.2788883213	 1.8471543666	-1.0048138906	 0.141773
H	-1.2155046785	 1.731595573	 0.4925162843	 0.114955
H	 0.0569310874	-3.858137945	-1.6021560524	 0.126886
H	 1.7568077581	-3.3028058045	-1.4926872228	 0.132592
H	 0.0627844938	-4.2729939076	 0.8910442	 0.122078
H	 1.7723639613	-3.7759318977	 0.9457812996	 0.12853
H	-0.0902931342	-1.0825093581	 3.1866649399	 0.239875
H	-0.4102336626	 0.4425276753	 2.6709369711	 0.241693
44.2334	95.3456	151.8463	175.4091	239.2734	274.624	298.5964	347.3281	563.9509	584.1865	638.623	654.0248	686.0891	788.8771	811.7483	824.382	868.6214	916.5041	995.1906	1055.5471	1061.2528	1077.896	1132.1837	1172.087	1204.7715	1216.1584	1254.6918	1285.4212	1340.2484	1383.4198	1409.565	1464.0438	1482.0877	1484.8369	1496.7284	1500.9253	1529.4788	1641.1852	1660.662	3013.0345	3054.0718	3060.4019	3063.0453	3102.0485	3116.4009	3130.6086	3526.675	3614.2284
CC1=NN2CCC2=C1N	Cc1nn2CCc2c1N	
InChI=1S/C6H9N3/c1-4-6(7)5-2-3-9(5)8-4/h2-3,7H2,1H3	InChI=1S/C6H9N3/c1-4-6(7)5-2-3-9(5)8-4/h2-3,7H2,1H3
