22
gdb 110419	3.12016	1.22915	1.12612	0.8721	86.7	-0.2004	0.0932	0.2936	1234.4439	0.194069	-367.149705	-367.141017	-367.140073	-367.182827	34.178	
C	 0.4786343978	 1.0868034667	 1.090788817	-0.376482
C	-0.3234608965	 0.4431362089	-0.0398059529	-0.12562
N	 0.5535545192	 0.0764007854	-1.1487227741	-0.076023
C	 0.9964556025	 1.0993018135	-2.0923323509	-0.074233
C	 0.9970111086	 0.1474369275	-3.2438058132	-0.152081
C	-0.0108398779	-0.6438961276	-2.3261970346	-0.028043
C	-1.1502776547	 0.243438574	-2.9161492268	-0.300193
C	-0.0482317982	 1.2543348797	-3.2381750106	 0.326501
C	-0.1366306876	 2.4734856848	-4.1056072653	-0.506347
H	 1.2730134368	 0.4158340745	 1.4293489735	 0.122999
H	 0.9451792073	 2.0207782468	 0.7592376576	 0.114237
H	-0.1690141325	 1.3237986357	 1.9405922562	 0.10865
H	-0.7943821189	-0.4809110833	 0.3194607505	 0.095535
H	-1.1386985954	 1.1225908801	-0.3391729287	 0.081739
H	 1.7034243153	 1.8822184262	-1.8439736473	 0.089302
H	 1.7648399954	-0.1519497519	-3.9422882719	 0.091508
H	-0.1208941946	-1.7236804808	-2.2326039935	 0.071797
H	-1.542025215	-0.2047937491	-3.8342951473	 0.096289
H	-1.9854831487	 0.5299549157	-2.2673426703	 0.087054
H	-0.8090201588	 3.2223083571	-3.6703107975	 0.119494
H	 0.8452129186	 2.9445107541	-4.2282385439	 0.117035
H	-0.5128606924	 2.2315727019	-5.106739116	 0.11688
76.6568	150.5055	189.6436	217.279	244.0464	284.7765	310.3328	390.6068	493.5402	578.7451	590.9004	690.9712	741.5149	789.5244	814.2595	829.7041	870.1581	896.8422	904.4272	936.4874	971.7655	987.5829	1023.4307	1041.5725	1059.415	1092.0588	1112.1472	1131.5692	1148.991	1169.4217	1189.9354	1206.5513	1220.8082	1235.839	1292.6435	1301.5702	1316.95	1384.0705	1401.7144	1411.0582	1422.8285	1485.9432	1488.6305	1492.5261	1498.1366	1503.1708	1509.9628	2961.9944	3017.3319	3034.7359	3036.5476	3040.5112	3076.0048	3085.8258	3089.0212	3102.4122	3118.7512	3120.0025	3182.0776	3220.1647
CCN1C2C3C1CC23C	CCN1[C@H]2[C@H]3[C@@H]1C[C@@]23C	
InChI=1S/C8H13N/c1-3-9-5-4-8(2)6(5)7(8)9/h5-7H,3-4H2,1-2H3	InChI=1S/C8H13N/c1-3-9-5-4-8(2)6(5)7(8)9/h5-7H,3-4H2,1-2H3/t5-,6+,7-,8+/m0/s1
