21
gdb 119165	3.14539	1.00731	0.85339	1.642	79.21	-0.2347	0.0839	0.3186	1432.6012	0.180126	-424.175872	-424.166152	-424.165208	-424.211422	35.512	
C	 0.1106405177	 1.6208627038	-0.0669670302	-0.384881
C	 0.2128650547	 0.1085949208	-0.1838305729	-0.052082
O	 0.5319595164	-0.3985041612	 1.0989175218	-0.302873
C	 0.6304510853	-1.7873923684	 1.2724859575	 0.409805
C	-0.5434694213	-2.7060906142	 1.0805376004	-0.324745
C	 0.6449335911	-2.7768169443	 0.1358983744	-0.337735
C	 1.560323517	-2.0290149675	 2.4277270317	 0.027548
C	 1.069310248	-2.2220650378	 3.79634977	-0.173327
O	 1.5373960165	-3.327497594	 3.0132584876	-0.237161
H	 1.0558543871	 2.0412388261	 0.2877116606	 0.127447
H	-0.1236448618	 2.0617390544	-1.0405057146	 0.11489
H	-0.6748791959	 1.8994918732	 0.6408785426	 0.1274
H	-0.7406041012	-0.3061905824	-0.5467374309	 0.091744
H	 0.9905375937	-0.1681163944	-0.9108511919	 0.095755
H	-0.6742084395	-3.5130666009	 1.7918947602	 0.130966
H	-1.4601686849	-2.2728152328	 0.6955596644	 0.112065
H	 0.5022558765	-2.4225840762	-0.8776025094	 0.116278
H	 1.3144473323	-3.6253177143	 0.2259369251	 0.128591
H	 2.5567316795	-1.6061413477	 2.2927865319	 0.094959
H	 1.6998182307	-1.9534178756	 4.6419076706	 0.117346
H	-0.0029231819	-2.2076872967	 3.9816736411	 0.11801
40.7723	75.2129	88.6094	169.4399	236.0729	243.5324	251.3143	342.4627	347.3455	396.8526	512.2997	579.8208	685.5272	774.4236	828.6228	832.3704	875.7791	891.9427	904.5563	950.5378	962.2208	998.0601	1054.9789	1062.6497	1079.8787	1093.1537	1106.462	1144.9524	1154.385	1171.503	1184.2181	1194.7102	1263.801	1284.6426	1299.7372	1340.7323	1400.5642	1423.1469	1444.9933	1447.5276	1483.0243	1492.5673	1500.86	1524.9787	1530.01	2976.494	3011.117	3045.6679	3091.5067	3103.7847	3120.3356	3123.8254	3138.4739	3141.9488	3182.9341	3223.3972	3235.5702
CCOC1(CC1)C1CO1	CCOC1(CC1)[C@H]1CO1	
InChI=1S/C7H12O2/c1-2-9-7(3-4-7)6-5-8-6/h6H,2-5H2,1H3	InChI=1S/C7H12O2/c1-2-9-7(3-4-7)6-5-8-6/h6H,2-5H2,1H3/t6-/m1/s1
