16
gdb 62442	3.87391	1.23166	1.21926	5.3974	75.12	-0.2503	-0.0199	0.2304	1055.6814	0.124689	-400.751656	-400.743943	-400.742999	-400.7836	29.841	
O	 0.0097142014	 1.3818261475	 0.0655160688	-0.456549
C	-0.0243449965	-0.0074782422	-0.0062479225	 0.250023
C	 1.0612620011	-0.6144734592	 0.7283967198	 0.271468
N	 1.9155668756	-1.1329085839	 1.3103850038	-0.341489
C	-1.3445411383	-0.760201835	-0.016447087	-0.113846
C	-2.5773626627	 0.0906192033	-0.3253659475	-0.281041
C	-2.3407300133	 0.5726881687	-1.7411847109	-0.086598
C	-1.206495189	 0.0843507629	-2.2573660709	-0.112766
C	-0.4777403579	-0.7596840437	-1.2693241228	-0.143253
H	-0.2955316054	 1.7238632249	-0.7855576692	 0.291672
H	-1.4383403444	-1.6384277276	 0.6098024357	 0.117049
H	-3.4995320707	-0.497357484	-0.2488027713	 0.123964
H	-2.6751870958	 0.9283852553	 0.3763719127	 0.136689
H	-3.0227371316	 1.2451423041	-2.2489280123	 0.11352
H	-0.8275834113	 0.2782987479	-3.2536641902	 0.113585
H	 0.1104936588	-1.6120173991	-1.5869101861	 0.117572
133.0672	154.2871	215.9001	240.4473	273.0019	376.3488	445.0397	485.468	564.2587	619.2309	675.685	719.4653	771.4415	795.3668	845.9246	868.8048	931.3915	962.361	980.1499	998.4902	1008.3265	1052.6939	1085.5519	1120.5701	1131.8831	1191.6964	1253.6946	1287.572	1295.9252	1349.8784	1378.3092	1405.5631	1463.7284	1653.7241	2354.4074	3032.7468	3064.0025	3186.1484	3194.8801	3196.6956	3219.1367	3748.9565
OC1(C#N)C2CC=CC12	O[C@@]1(C#N)[C@H]2CC=C[C@@H]12	
InChI=1S/C7H7NO/c8-4-7(9)5-2-1-3-6(5)7/h1-2,5-6,9H,3H2	InChI=1S/C7H7NO/c8-4-7(9)5-2-1-3-6(5)7/h1-2,5-6,9H,3H2/t5-,6+,7-/m1/s1
