14
gdb 130927	4.62615	0.96812	0.86895	1.9668	71.4	-0.2465	-0.0841	0.1625	1263.9843	0.101139	-432.881124	-432.873516	-432.872572	-432.914664	26.579	
O	-0.4243793272	 0.6864264593	 0.9073280666	-0.219825
C	 0.092779143	 1.0084921385	-0.1263681715	 0.160334
C	 1.4055094385	 1.7916205976	-0.2096912325	-0.37969
C	 1.3423049186	 2.8757131254	-1.2476638042	 0.302064
C	 1.3997893117	 4.238372871	-0.9255203756	-0.021689
N	 1.3349874284	 5.187775145	-1.8514813249	-0.162476
N	 1.195567231	 4.825308394	-3.1258091276	-0.180519
C	 1.129208863	 3.5227918404	-3.3943091646	 0.101023
N	 1.1998472783	 2.5139107544	-2.5205481702	-0.286884
H	-0.3400918472	 0.747967616	-1.1150203884	 0.110433
H	 1.6530318461	 2.1759330613	 0.7814889156	 0.139325
H	 2.174203694	 1.0678743985	-0.5118413563	 0.160581
H	 1.508278787	 4.578019651	 0.1003006633	 0.13465
H	 1.009636895	 3.2642267476	-4.4426017497	 0.142673
43.0915	80.5699	133.8542	242.7815	348.3747	370.8511	433.7331	525.8202	619.9558	690.5617	776.9958	825.8994	887.589	931.9455	1001.5739	1016.8106	1028.5319	1044.0751	1077.5323	1152.7245	1192.7363	1244.7398	1275.7374	1331.334	1343.8362	1409.3818	1449.0479	1480.8829	1555.0872	1591.9142	1841.7248	2920.3773	3034.3152	3127.4636	3179.0164	3183.9307
O=CCC1=CN=NC=N1	O=CCc1cnncn1	
InChI=1S/C5H5N3O/c9-2-1-5-3-7-8-4-6-5/h2-4H,1H2	InChI=1S/C5H5N3O/c9-2-1-5-3-7-8-4-6-5/h2-4H,1H2
