14
gdb 45918	2.98554	1.51018	1.02449	2.8197	68.49	-0.2785	-0.0658	0.2127	1076.2244	0.102773	-470.04514	-470.037606	-470.036662	-470.077779	27.817	
N	-0.1044057674	 1.3445077343	-0.0077413241	-0.502058
C	-0.0148215763	 0.0803524919	 0.0607222714	 0.378379
C	-1.2643743495	-0.76331001	-0.0005752653	-0.152215
O	-1.183342692	-1.9559610809	 0.7814636597	-0.252709
C	-0.0684445254	-2.7313439882	 0.6765252991	 0.292452
N	-0.0523609742	-3.9561653713	 0.9777913199	-0.455238
C	 1.2379661114	-2.0511129129	 0.2910670142	 0.360498
O	 2.2871188769	-2.6341684843	 0.1973675689	-0.306748
N	 1.1514019246	-0.6750195883	 0.1160321479	-0.390889
H	 0.811181857	 1.7982788368	-0.0239958937	 0.219954
H	-2.1042451929	-0.188275059	 0.3848264017	 0.164882
H	-1.4674630732	-1.0246629819	-1.0484407307	 0.142706
H	-0.9905711638	-4.2632289787	 1.2452252446	 0.238116
H	 2.044469265	-0.2125537576	-0.0040982236	 0.26287
63.2152	120.5692	168.7402	347.8894	382.806	421.8159	438.2458	483.4816	556.4932	599.8837	651.1484	665.1995	787.4378	817.2542	885.6854	926.7748	937.36	983.6427	1038.8465	1127.5751	1150.189	1239.5172	1260.9427	1341.8355	1390.5633	1415.8359	1418.61	1490.6896	1742.4008	1750.5892	1827.4288	3018.3476	3159.1985	3455.9475	3468.358	3577.7143
N=C1COC(=N)C(=O)N1	[NH][C]1CO[C]([NH])C(=O)N1	
InChI=1S/C4H5N3O2/c5-2-1-9-3(6)4(8)7-2/h6H,1H2,(H2,5,7,8)	InChI=1S/C4H5N3O2/c5-2-1-9-3(6)4(8)7-2/h6H,1H2,(H2,5,7,8)
