22
gdb 120256	3.00801	0.97313	0.85249	2.3098	82.16	-0.2246	0.0788	0.3034	1436.4599	0.19391	-404.295932	-404.286309	-404.285365	-404.330742	35.915	
C	-0.3677889391	 1.5309479589	-0.0688440257	-0.410776
C	-0.0842105742	 0.0365636031	 0.0091840721	 0.004154
C	 0.4928064108	-0.6295028642	-1.2486936078	-0.054897
N	 1.8264513008	-0.0166544025	-1.473724083	-0.333548
C	 1.6754223007	-1.1317802693	-0.5055091988	-0.07411
C	 1.1825961526	-0.5158450939	 0.8094278367	-0.012482
C	 2.1332217552	 0.4220375574	 1.5469102151	-0.18142
C	 1.6120584134	 0.8721010034	 2.9065053656	-0.079033
O	 2.6069664997	 1.689827491	 3.5060465743	-0.420449
H	 0.4968959757	 2.071700692	-0.4600766949	 0.141396
H	-1.2142827138	 1.721682724	-0.7387618639	 0.10716
H	-0.6256369279	 1.9473441244	 0.9103227201	 0.11052
H	-0.9774416706	-0.499116375	 0.3452091174	 0.068873
H	-0.05371093	-1.0759920704	-2.071088985	 0.086114
H	 2.1976589378	-0.4184705344	-2.3340090342	 0.226085
H	 2.2400579642	-2.0486091815	-0.629722026	 0.086097
H	 0.8497349938	-1.3120763892	 1.4851094437	 0.066266
H	 3.0886749165	-0.0936933315	 1.7092802845	 0.09864
H	 2.3567137102	 1.2990178049	 0.9336328441	 0.123363
H	 0.665156121	 1.4225164464	 2.7902410217	 0.087553
H	 1.3967336845	-0.0120654627	 3.5306566732	 0.077438
H	 2.2734263488	 1.9952672691	 4.3544992607	 0.283057
74.8483	83.1103	114.0763	198.1199	212.4564	235.6208	264.239	282.3549	369.7926	407.8123	577.5487	583.2964	668.505	742.3419	799.6581	820.1412	842.8405	881.3	916.3072	964.6826	1009.6393	1017.9819	1038.4405	1045.6923	1074.0844	1079.4052	1107.8678	1117.736	1147.7897	1168.0522	1191.1865	1225.0794	1235.5647	1266.1946	1291.9776	1306.9968	1318.0597	1328.4114	1367.1987	1385.4058	1392.3673	1405.8632	1459.2284	1488.1282	1491.8715	1507.6849	1526.6955	2953.6934	2988.7275	3031.4746	3032.4386	3034.0656	3058.8444	3090.6171	3100.8463	3128.7697	3172.193	3186.5664	3474.6816	3830.0413
CC1C2NC2C1CCO	C[C@H]1[C@H]2N[C@H]2[C@H]1CCO	
InChI=1S/C7H13NO/c1-4-5(2-3-9)7-6(4)8-7/h4-9H,2-3H2,1H3	InChI=1S/C7H13NO/c1-4-5(2-3-9)7-6(4)8-7/h4-9H,2-3H2,1H3/t4-,5+,6-,7+/m1/s1
