21
gdb 60072	2.31036	1.13107	0.96439	1.6356	84.87	-0.26	0.0249	0.285	1366.1531	0.178958	-387.042328	-387.032067	-387.031123	-387.077669	38.122	
C	 0.344060682	 1.6423882316	 0.0301370008	-0.383834
C	 0.0650513082	 0.1347253336	-0.0415208131	 0.037081
C	 0.7001459974	-0.482796719	-1.2944621666	-0.392369
C	 0.5508353247	-0.6089203029	 1.2171117177	-0.277462
C	-0.1465872424	-0.210961177	 2.5084388861	 0.202528
C	 0.587751465	-0.2629547245	 3.7911777821	-0.216746
O	 0.3488008389	 0.984192375	 3.1502804589	-0.257727
C	-1.5843256655	-0.3658238746	 2.5367841478	 0.322103
C	-2.7772637874	-0.5148941132	 2.5367667005	-0.448974
H	 1.4209497129	 1.8365702688	 0.1019999607	 0.109203
H	-0.025438046	 2.145145814	-0.8697863351	 0.10527
H	-0.1317865664	 2.104400065	 0.8980999348	 0.137222
H	-1.0216334952	-0.0088318216	-0.1069325923	 0.087825
H	 1.7919364852	-0.3793190251	-1.2739847943	 0.11118
H	 0.468221999	-1.5499517044	-1.3798335564	 0.108345
H	 0.3393277342	 0.0124764284	-2.2016615418	 0.111425
H	 0.4068514722	-1.687911675	 1.0773702842	 0.104621
H	 1.6260386412	-0.4413566362	 1.3549566152	 0.101922
H	 0.0375021305	-0.4303056092	 4.7150910222	 0.122494
H	 1.6219938232	-0.6060992175	 3.7881239363	 0.115664
H	-3.8322313217	-0.6380949662	 2.5446355723	 0.200229
45.8328	89.4545	133.2694	186.9929	224.9183	233.1274	256.3084	310.9879	324.1826	374.8438	424.9891	444.3892	553.4727	572.2541	622.3005	662.4528	717.6241	802.1788	831.6582	901.5486	918.0863	936.2583	959.0803	972.0616	980.6684	1112.569	1130.666	1144.6872	1166.9983	1196.6942	1237.7303	1274.0927	1315.3414	1356.9395	1371.6406	1397.1417	1403.3286	1425.296	1462.9022	1487.3332	1494.4412	1505.3166	1508.9111	1518.6563	2236.2214	3018.2576	3020.9055	3024.4265	3032.2716	3068.0303	3081.635	3087.1831	3093.6995	3099.5179	3125.3038	3175.2077	3501.1648
CC(C)CC1(CO1)C#C	CC(C)C[C@]1(CO1)C#C	
InChI=1S/C8H12O/c1-4-8(6-9-8)5-7(2)3/h1,7H,5-6H2,2-3H3	InChI=1S/C8H12O/c1-4-8(6-9-8)5-7(2)3/h1,7H,5-6H2,2-3H3/t8-/m0/s1
