22
gdb 107176	3.41341	1.18291	1.075	1.5577	85.75	-0.2102	0.0667	0.2768	1257.1576	0.193608	-367.12132	-367.112249	-367.111305	-367.155021	35.184	
C	-0.0185845079	 1.5482823988	-0.1592469787	-0.377098
C	-0.0151622685	 0.0233531531	 0.016137314	-0.295989
C	 0.7006762426	-0.4646417632	 1.2486357506	 0.356877
C	 0.2824016192	-1.6633923382	 2.0494298468	-0.369622
C	 0.3754229586	-0.3075398123	 2.7181084653	-0.063384
N	 1.728633949	 0.2858290089	 3.0529492312	-0.162325
C	 2.8531724941	-0.6316016824	 2.7487565977	 0.021575
C	 3.0209422674	-2.0813160947	 3.1901761203	-0.438908
C	 2.1268940076	 0.0067383418	 1.617773479	-0.125931
H	 0.99337285	 1.946718744	-0.2807962297	 0.119976
H	-0.5923932615	 1.8342171497	-1.0461600803	 0.111256
H	-0.4662481301	 2.0416183843	 0.7092544636	 0.123683
H	-1.0500733318	-0.3382040018	 0.0540744942	 0.098062
H	 0.4337019349	-0.4456800863	-0.8713492477	 0.098634
H	-0.7527685688	-1.9471796243	 1.8723735263	 0.109319
H	 0.9238259994	-2.5060470802	 2.2539287962	 0.112774
H	-0.4756175468	 0.1451557424	 3.2117446142	 0.098668
H	 3.762354936	-0.061720935	 2.9440793512	 0.100019
H	 2.2405068648	-2.3894794318	 3.8890323582	 0.14181
H	 3.0290309636	-2.7808606259	 2.3493836725	 0.132564
H	 3.9780533113	-2.1857734641	 3.7089204334	 0.117063
H	 2.6094708768	 0.7878311971	 1.0356835317	 0.090977
72.1518	95.5996	165.8044	203.3014	242.5589	278.9949	316.0461	407.0302	428.1141	511.6879	561.8893	648.1387	673.7609	712.4098	758.3693	807.2139	828.9781	881.8012	926.3182	952.424	972.2035	983.6871	1016.0481	1050.4936	1055.6419	1061.3536	1082.4909	1093.5238	1104.3128	1116.3383	1158.5111	1225.2386	1251.2875	1278.3511	1303.4944	1341.589	1367.11	1399.5785	1411.1832	1423.5392	1443.4723	1476.5053	1492.3534	1498.6202	1506.2088	1506.4513	1514.5261	3004.3996	3038.4143	3044.8438	3047.5092	3087.7222	3106.498	3109.2435	3110.0857	3125.9708	3130.5194	3134.1001	3184.769	3253.089
CCC12CC1N1C(C)C21	CC[C@]12C[C@H]1N1[C@@H](C)[C@@H]21	
InChI=1S/C8H13N/c1-3-8-4-6(8)9-5(2)7(8)9/h5-7H,3-4H2,1-2H3	InChI=1S/C8H13N/c1-3-8-4-6(8)9-5(2)7(8)9/h5-7H,3-4H2,1-2H3/t5-,6+,7-,8-,9?/m0/s1
