12
gdb 128529	2.32599	1.38489	0.87284	2.3076	69.14	-0.2673	-0.1003	0.1669	1213.7307	0.075387	-468.815843	-468.806827	-468.805882	-468.85068	29.453	
C	-0.1119441988	 1.4117126078	 0.1809666224	-0.246262
O	 0.0548615148	 0.0110687013	-0.0949720798	-0.238658
C	 0.6991117691	-0.272921996	-1.2315973634	 0.460663
C	 0.8068417436	-1.7371066513	-1.4021760095	-0.027818
N	 1.4304296811	-2.1276075956	-2.4999325298	 0.215007
N	 1.9664578613	-2.4198061891	-3.4440723671	-0.156768
O	 1.1382998123	 0.527553294	-2.0198718057	-0.395717
C	 0.3188796361	-2.7304476171	-0.5255406575	 0.2774
N	-0.0835127489	-3.5423784796	 0.1973382331	-0.338258
H	 0.8606643122	 1.9022401724	 0.2617970126	 0.150647
H	-0.6893454439	 1.8900449347	-0.613344396	 0.150638
H	-0.6471720087	 1.4582618686	 1.1282721307	 0.149126
73.9442	94.6352	117.9012	125.4642	139.2602	220.6967	280.9344	375.8898	468.9827	502.3596	528.9324	555.9698	630.4168	760.3575	819.4149	994.8921	1169.6727	1178.4481	1221.2768	1310.774	1315.2106	1473.2012	1481.427	1496.187	1801.2594	2245.8673	2338.788	3058.793	3137.2364	3172.8482
COC1=C(N=NO1)C#N	COC(=O)[C]([N][N])C#N	
InChI=1S/C4H3N3O2/c1-8-4-3(2-5)6-7-9-4/h1H3	InChI=1S/C4H3N3O2/c1-9-4(8)3(2-5)7-6/h1H3
