18
gdb 8161	2.80874	2.55115	1.71328	2.8971	71.42	-0.2305	-0.003	0.2275	823.445	0.154902	-347.82465	-347.817601	-347.816657	-347.855543	28.02	
C	-0.0343668279	 1.5462404804	 0.0250466988	-0.500199
C	 0.0413725005	 0.0419635213	 0.0330359664	 0.221779
C	 0.9788940382	-0.8035738081	-0.9055344819	-0.266109
C	 0.6982974434	-1.9321225092	 0.125743996	-0.024569
C	 0.6685426268	-0.8080265972	 1.1987844981	-0.26611
C	-0.8012643859	-2.2025962676	-0.0959917036	-0.330778
C	-1.2604904331	-0.7303933553	-0.1605936073	 0.413609
O	-2.3679494138	-0.2909589607	-0.3230273282	-0.342892
H	 0.951458021	 1.9980694653	 0.1714482145	 0.110548
H	-0.4416216114	 1.9078706896	-0.9246723029	 0.130031
H	-0.69875852	 1.9041800408	 0.8181807346	 0.130032
H	 0.6707054543	-0.9557492401	-1.9445311692	 0.100251
H	 2.0082595119	-0.4384320084	-0.8672623413	 0.104735
H	 1.3563422192	-2.7945678289	 0.2209691725	 0.071009
H	 1.664906851	-0.443356696	 1.4608166527	 0.104734
H	 0.0736261268	-0.9643167785	 2.1039360856	 0.10025
H	-1.0291343528	-2.7308550417	-1.0272067556	 0.12184
H	-1.2879405681	-2.7345802658	 0.7275875008	 0.121838
132.4909	171.9444	241.5638	303.6606	395.9032	446.4964	498.5975	590.3154	629.1124	643.4847	746.8227	803.2698	862.8849	871.327	902.0242	931.232	979.4247	980.1254	1025.7005	1032.4592	1064.6008	1096.9906	1098.2212	1142.0595	1197.5843	1202.9056	1238.3029	1255.9584	1276.0663	1307.9933	1353.2598	1416.7738	1462.2901	1486.6639	1488.0272	1488.1445	1521.586	1861.9962	3036.2811	3046.8377	3050.4653	3054.4975	3099.2795	3104.6612	3107.2326	3109.7017	3112.9509	3123.7681
CC12CC(C1)CC2=O	C[C@@]12C[C@@H](C1)CC2=O	
InChI=1S/C7H10O/c1-7-3-5(4-7)2-6(7)8/h5H,2-4H2,1H3	InChI=1S/C7H10O/c1-7-3-5(4-7)2-6(7)8/h5H,2-4H2,1H3/t5-,7+
