20
gdb 105005	2.23117	1.1846	1.0773	2.3213	78.58	-0.2806	0.0296	0.3102	1274.0628	0.169121	-403.152041	-403.142086	-403.141142	-403.187229	36.068	
C	 0.0422016529	 1.6002892896	 0.2000199351	-0.402541
C	-0.0786845528	 0.0829689264	 0.3604286924	-0.264444
C	-1.4656554593	-0.4846130847	 0.1026950508	 0.416145
C	-2.6834092361	 0.3343424285	 0.1908217521	-0.228602
O	-2.1284602273	-0.0315700841	-1.0810190541	-0.281052
C	-1.6286733819	-2.0028085943	 0.2994435345	-0.199133
C	-0.7410613133	-2.8306670889	-0.6521874662	-0.408006
C	-1.3967184855	-2.371476616	 1.7000281533	 0.273374
N	-1.2047697166	-2.6533554196	 2.804523702	-0.328995
H	 1.0921515698	 1.9015434907	 0.2450047954	 0.120023
H	-0.3628204767	 1.9207184779	-0.7639087273	 0.138818
H	-0.4863631634	 2.1369403176	 0.993445526	 0.122309
H	 0.6156136683	-0.4048078564	-0.3343815313	 0.114227
H	 0.2330011379	-0.2189917272	 1.3673562624	 0.13038
H	-3.6328089523	-0.1381212699	 0.4390557919	 0.117631
H	-2.6165871564	 1.3905439163	 0.4363600187	 0.125077
H	-2.6751731903	-2.2352250427	 0.0721388705	 0.131086
H	-0.918259783	-2.5019954899	-1.6792255767	 0.145674
H	 0.319304556	-2.7127250885	-0.4191275013	 0.140396
H	-0.9873401201	-3.8921828948	-0.5754478482	 0.137632
53.8249	74.8012	138.6713	187.5183	218.9909	228.4431	244.5036	302.961	353.4958	368.8412	417.8548	490.1292	575.2648	579.1145	693.1956	780.412	835.7278	876.6883	907.1673	942.0447	1007.4473	1027.7903	1071.7388	1097.9927	1103.0961	1128.4078	1148.2565	1171.5161	1230.3387	1284.9054	1314.2119	1323.5306	1388.4124	1398.9797	1406.7739	1423.952	1483.499	1496.3799	1499.3613	1500.9466	1511.2947	1537.9778	2355.1178	3034.0743	3045.8284	3050.3493	3055.893	3069.3965	3096.6096	3114.6407	3123.6521	3133.7103	3139.0846	3190.54
CCC1(CO1)C(C)C#N	CC[C@]1(CO1)[C@@H](C)C#N	
InChI=1S/C7H11NO/c1-3-7(5-9-7)6(2)4-8/h6H,3,5H2,1-2H3	InChI=1S/C7H11NO/c1-3-7(5-9-7)6(2)4-8/h6H,3,5H2,1-2H3/t6-,7-/m0/s1
