20
gdb 75523	2.0791	1.62881	1.01375	3.6236	82.03	-0.2289	0.0187	0.2476	1215.28	0.172632	-403.200898	-403.192221	-403.191276	-403.234269	33.328	
C	-0.042744161	 1.5503705821	 0.0622905991	-0.471305
C	-0.001109565	 0.0458242559	-0.0366275399	 0.301862
C	 0.0058328729	-0.558242298	-1.22939869	-0.124299
C	 0.0286285294	-2.0278559504	-1.5582528951	-0.240819
C	-0.1669031429	-2.9783280852	-0.3734540932	-0.184565
N	 0.8654731155	-2.8657106643	 0.6422380197	-0.285323
C	 1.0834792886	-1.7715174574	 1.4313206921	 0.386969
O	 2.0341803995	-1.6961246804	 2.1859393445	-0.366119
C	 0.0396043141	-0.6594821979	 1.31352748	-0.418143
H	 0.8477475413	 1.9330795595	 0.5769722038	 0.133614
H	-0.1005251778	 2.0220289338	-0.9220374015	 0.118707
H	-0.9076296891	 1.8824214733	 0.6513892937	 0.123229
H	-0.0052260146	 0.0863340209	-2.1072682573	 0.078314
H	-0.7583639017	-2.2356139337	-2.2974479116	 0.106369
H	 0.9750982432	-2.2739888528	-2.0624406496	 0.111539
H	-1.15226701	-2.8089407078	 0.0778899803	 0.119327
H	-0.1653010034	-4.012324741	-0.728703324	 0.112428
H	 1.5963283011	-3.5602626997	 0.6785208642	 0.245401
H	 0.2939995579	 0.0583347744	 2.0949049584	 0.127502
H	-0.9511810682	-1.0605400711	 1.5661318264	 0.125314
81.0255	90.1059	203.0544	255.4336	297.297	310.4804	364.5305	402.9827	452.7945	476.646	497.632	600.5541	617.2612	673.7683	813.1653	837.1704	857.4598	901.4999	950.6417	956.1661	1005.4579	1045.5238	1068.203	1086.5377	1131.7314	1151.0284	1205.6417	1244.8039	1283.5615	1326.9749	1345.2119	1376.9579	1397.3583	1412.0319	1414.4225	1455.5807	1470.449	1475.6869	1482.0473	1492.9846	1502.1161	1740.9522	1795.2789	2996.2256	3014.5222	3018.1171	3023.0063	3037.9687	3062.2292	3092.4115	3111.7745	3117.5436	3131.6502	3620.8436
CC1=CCCNC(=O)C1	CC1=CCCNC(=O)C1	
InChI=1S/C7H11NO/c1-6-3-2-4-8-7(9)5-6/h3H,2,4-5H2,1H3,(H,8,9)	InChI=1S/C7H11NO/c1-6-3-2-4-8-7(9)5-6/h3H,2,4-5H2,1H3,(H,8,9)
