16
gdb 14654	15.08505	0.62305	0.6051	2.5399	71.13	-0.2645	0.0097	0.2742	1758.5098	0.128611	-379.928578	-379.919294	-379.91835	-379.964438	30.341	
C	 0.022358855	 1.3852572277	-0.0441249773	-0.317221
N	 0.0359882789	-0.0561354314	-0.1823660732	-0.197686
C	-1.0470644058	-0.6662863983	-0.011558154	 0.129372
O	-1.0979872279	-2.0148348311	-0.127522945	-0.207722
C	-2.3710847273	-2.6077221047	 0.0849862569	-0.072771
C	-2.1730203883	-4.1155890816	-0.0987560635	-0.337821
C	-3.4187743468	-4.8510185431	 0.0946579315	 0.247923
N	-4.4147346499	-5.414718302	 0.2515554744	-0.295311
H	 0.7288498348	 1.6839386647	 0.7382381074	 0.133047
H	 0.3677113183	 1.8450170729	-0.9767615093	 0.133046
H	-0.9668132934	 1.8035677042	 0.2034336589	 0.099053
H	-2.0108420375	-0.1942844755	 0.2357967476	 0.080379
H	-2.7401582853	-2.393256546	 1.0958547537	 0.131336
H	-3.1055444174	-2.2300136612	-0.6374897363	 0.131334
H	-1.7842642616	-4.3119168078	-1.103198844	 0.17152
H	-1.4223589956	-4.4735426867	 0.6132550822	 0.171524
22.4702	56.6699	89.5838	123.9541	203.8437	206.2697	302.4211	306.5796	398.9931	424.0782	528.8331	625.5247	795.0181	956.1772	975.7323	1032.8336	1053.4147	1090.1236	1101.7866	1140.9218	1159.1285	1228.6745	1240.447	1309.1864	1309.3918	1396.119	1435.618	1450.9134	1470.6834	1479.9653	1504.7893	1521.8776	1786.2734	2368.8962	2970.9852	2993.842	3018.7601	3060.3795	3060.5525	3063.4379	3083.258	3105.1761
CN=COCCC#N	CN=COCCC#N	
InChI=1S/C5H8N2O/c1-7-5-8-4-2-3-6/h5H,2,4H2,1H3	InChI=1S/C5H8N2O/c1-7-5-8-4-2-3-6/h5H,2,4H2,1H3
