18
gdb 109466	2.27125	1.57016	0.97677	4.5805	74.54	-0.2184	-0.0097	0.2087	1190.0455	0.147973	-439.135779	-439.126993	-439.126049	-439.16921	32.839	
C	-0.0274602969	 1.5111592057	-0.0038694992	-0.496554
C	 0.0025469562	 0.0183958229	-0.0106594936	 0.258645
C	-0.0950437217	-0.7960986187	-1.0684280465	-0.124811
N	-0.0683774717	-2.1526197876	-0.6833064144	-0.329713
C	 0.0933508411	-2.2744401025	 0.6737633435	 0.438953
O	 0.2517680905	-3.3113100879	 1.2945815071	-0.401018
C	 0.1068172251	-0.8437993239	 1.2296043564	-0.26089
C	 1.3647129153	-0.6570376215	 2.1106169552	-0.058195
O	 1.3378141118	-1.5090237265	 3.2283995993	-0.424905
H	 0.8891075884	 1.9360060656	 0.4240923611	 0.133536
H	-0.1363464797	 1.9083596728	-1.0172526644	 0.125443
H	-0.8610063962	 1.8948134738	 0.598301758	 0.130521
H	-0.2065092054	-0.545278214	-2.1140069427	 0.12913
H	-0.0294788203	-2.9397210674	-1.3098151997	 0.262652
H	-0.7642770609	-0.716340645	 1.8865947674	 0.122409
H	 2.2627737218	-0.8123344729	 1.4891719978	 0.088963
H	 1.4010115213	 0.3715477411	 2.4851451507	 0.106789
H	 1.1232391513	-2.394499614	 2.8943347941	 0.299046
85.1741	150.4345	172.162	182.7928	245.9572	275.4143	292.208	407.7222	490.2739	519.3248	541.1049	570.8605	581.1304	722.4356	754.9416	813.4965	842.3964	929.7195	995.9994	1021.2603	1050.2155	1075.6552	1091.7018	1096.8702	1196.219	1197.4243	1216.8732	1282.1449	1312.4005	1358.8032	1376.942	1400.516	1420.9159	1469.7115	1478.626	1494.6591	1515.6951	1710.2724	1796.1422	2961.1802	3016.5425	3028.1597	3060.7449	3064.9929	3105.4838	3235.4835	3658.6055	3685.0053
CC1=CNC(=O)C1CO	CC1=CNC(=O)[C@H]1CO	
InChI=1S/C6H9NO2/c1-4-2-7-6(9)5(4)3-8/h2,5,8H,3H2,1H3,(H,7,9)	InChI=1S/C6H9NO2/c1-4-2-7-6(9)5(4)3-8/h2,5,8H,3H2,1H3,(H,7,9)/t5-/m0/s1
