18
gdb 47640	2.40506	1.6977	1.13304	2.9898	82.55	-0.2149	-0.0679	0.147	1080.1319	0.150267	-401.956304	-401.948512	-401.947568	-401.988613	30.272	
O	-0.2360108112	-0.0062513494	 0.4714439345	-0.332536
C	-0.0111410397	 1.1452215689	 0.1404010541	 0.344911
C	-1.1681399165	 2.1271410767	-0.077105703	-0.261355
N	-1.6082510529	 2.2443006669	-1.4726569762	-0.289337
C	-0.5268747147	 2.5363386671	-2.4268286245	-0.229748
C	 0.195569985	 3.7965892274	-2.0389890077	-0.034755
C	 1.2458742743	 3.8468302791	-1.2055169573	-0.085372
C	 1.902453665	 2.7241934495	-0.5428565708	-0.06528
C	 1.3968050693	 1.584311787	-0.0272883405	-0.154458
H	-2.011389548	 1.7563181466	 0.510384615	 0.121822
H	-0.8981588856	 3.121549343	 0.2906017995	 0.116657
H	-2.0620356476	 1.3791289119	-1.7496626292	 0.229453
H	 0.2074820657	 1.7176991215	-2.5120904087	 0.104027
H	-0.9889196161	 2.6643073133	-3.4114795441	 0.108289
H	-0.1669409532	 4.7260691797	-2.4694826141	 0.105417
H	 1.7256434656	 4.8108592489	-1.0457337168	 0.101451
H	 2.9828796449	 2.8415678617	-0.4555658087	 0.110882
H	 2.0949691856	 0.8468431102	 0.3616139784	 0.109931
74.5378	206.4196	230.9886	257.6087	288.4686	345.8294	418.328	485.6045	520.632	588.26	675.5045	689.7802	782.0853	812.6089	827.2567	883.4525	904.3987	945.3353	973.0668	1011.7087	1033.0384	1062.1118	1090.8398	1135.9128	1179.5736	1238.8674	1259.8919	1279.2195	1299.2404	1357.7999	1376.0106	1411.4357	1442.968	1471.2334	1496.1941	1512.453	1652.3169	1689.7514	1747.9715	2954.6269	3057.0535	3061.2841	3115.1353	3119.9907	3140.1291	3165.3085	3172.584	3514.6069
O=C1CNCC=CC=C1	O=C1CNCC=CC=C1	
InChI=1S/C7H9NO/c9-7-4-2-1-3-5-8-6-7/h1-4,8H,5-6H2/b3-1-,4-2-	InChI=1S/C7H9NO/c9-7-4-2-1-3-5-8-6-7/h1-4,8H,5-6H2/b3-1-,4-2-
