20
gdb 93714	2.50549	1.24353	1.16015	4.0165	79.14	-0.2774	0.0264	0.3038	1210.911	0.170344	-403.184864	-403.175485	-403.174541	-403.219523	34.711	
C	 0.0529113502	 1.585910545	 0.0440759253	-0.410287
C	 0.1021492312	 0.0747326519	-0.0743445048	 0.134871
C	 0.9344749481	-0.4836722437	-1.2398440876	-0.219711
C	 1.4165625185	-1.855109565	-0.7187518395	-0.288741
C	 1.1083326406	-1.8021279562	 0.8161090432	 0.241998
C	 2.2924525442	-2.1749098489	 1.7076958651	-0.440097
O	 0.7468530859	-0.4571244575	 1.0902567905	-0.274376
C	-0.0470861536	-2.6866098425	 1.1254212454	 0.260979
N	-0.9491189313	-3.3697745283	 1.3619378698	-0.35015
H	 1.0642673302	 1.9966548055	 0.1223930006	 0.123523
H	-0.432701095	 2.0183167677	-0.8359113933	 0.121895
H	-0.5124732608	 1.8859038765	 0.9302584005	 0.133269
H	-0.9219396597	-0.3284568674	-0.1271113098	 0.087308
H	 0.3562574404	-0.5610411626	-2.1633963914	 0.112247
H	 1.7851332745	 0.1778408944	-1.4306007128	 0.108501
H	 0.8958692885	-2.6880117297	-1.1941514426	 0.131345
H	 2.4871683667	-2.0006945075	-0.877225216	 0.117206
H	 3.1312441457	-1.5137147746	 1.4756646206	 0.128721
H	 2.0295823311	-2.0560281028	 2.7611809154	 0.145704
H	 2.5926796645	-3.211667684	 1.5350936116	 0.135793
34.3097	100.1646	179.1938	196.666	224.2108	239.0151	287.1291	351.3215	395.1287	448.7128	509.0276	577.449	613.3199	624.9302	772.8192	810.5984	856.3793	892.6612	907.9164	955.8394	976.0123	1004.6537	1064.0953	1107.6919	1141.9942	1144.7293	1182.2085	1203.6805	1238.982	1270.6481	1307.1004	1320.6052	1372.3387	1396.2773	1406.0733	1417.3847	1479.6721	1483.0759	1487.5284	1493.0481	1499.0743	1506.5487	2347.1344	2975.7456	3042.3917	3050.8177	3056.0066	3077.6204	3105.4557	3116.6689	3122.8558	3128.0832	3132.0256	3137.1558
CC1CCC(C)(O1)C#N	C[C@H]1CC[C@@](C)(O1)C#N	
InChI=1S/C7H11NO/c1-6-3-4-7(2,5-8)9-6/h6H,3-4H2,1-2H3	InChI=1S/C7H11NO/c1-6-3-4-7(2,5-8)9-6/h6H,3-4H2,1-2H3/t6-,7+/m0/s1
