18
gdb 54818	2.77708	1.48697	1.38833	3.1226	75.67	-0.2284	0.0163	0.2447	1019.8169	0.149098	-401.978676	-401.970639	-401.969695	-402.011973	31.129	
N	-0.0596811766	 1.2470558531	 0.388354502	-0.517889
C	 0.1174752065	-0.0242530823	-0.0905084215	 0.387545
O	 1.1825091008	-0.4047055084	-0.5373688915	-0.360694
C	-1.1436221517	-0.8562124718	-0.0709853623	-0.139375
C	-1.1361475608	-2.3548468244	 0.036810752	-0.072609
C	 0.1331381462	-3.0687435284	 0.5098066322	-0.268218
C	 0.3379605822	-2.5347852332	 1.9107562458	-0.059947
C	-0.6484863305	-1.7195037028	 2.2925788968	-0.087988
C	-1.6542235486	-1.5263037726	 1.2062479394	-0.101217
H	 0.7630697253	 1.8190458785	 0.4954714123	 0.257078
H	-0.8661976724	 1.4728448106	 0.9450010839	 0.256848
H	-1.9242339137	-0.4436644696	-0.7066867584	 0.106674
H	-1.8234553303	-2.8934970014	-0.6047679683	 0.086608
H	-0.0094231757	-4.1573553427	 0.5145945333	 0.099004
H	 0.9885674001	-2.8499170111	-0.1354445039	 0.1475
H	 1.211976216	-2.7796873673	 2.5033848689	 0.095102
H	-0.7181878134	-1.2210531426	 3.2527345508	 0.087676
H	-2.7092927034	-1.4379668036	 1.4438673385	 0.083901
28.3647	133.9676	176.9612	309.0015	318.083	340.1383	450.3689	498.8565	571.2151	610.9335	692.7411	724.8456	737.7724	782.4444	788.8409	819.3145	888.7763	937.9914	946.8186	955.0983	997.8295	1023.9334	1034.1455	1059.1158	1098.6977	1107.6346	1137.4905	1170.0959	1199.5911	1281.4736	1301.4988	1313.9051	1366.2952	1382.2649	1427.2639	1466.3927	1613.3773	1665.4107	1789.2786	3021.6745	3093.8568	3129.3074	3158.3306	3178.7608	3186.5219	3211.5545	3591.8531	3726.1932
NC(=O)C1C2CC=CC12	NC(=O)[C@H]1[C@H]2CC=C[C@@H]12	
InChI=1S/C7H9NO/c8-7(9)6-4-2-1-3-5(4)6/h1-2,4-6H,3H2,(H2,8,9)	InChI=1S/C7H9NO/c8-7(9)6-4-2-1-3-5(4)6/h1-2,4-6H,3H2,(H2,8,9)/t4-,5+,6-/m1/s1
