16
gdb 78740	4.88536	1.13501	1.04746	3.3263	70.79	-0.2296	-0.0261	0.2035	1118.8583	0.124055	-437.809361	-437.801817	-437.800873	-437.841376	29.057	
O	-0.0250460047	 1.3446535854	 0.0624654906	-0.437931
C	 0.037082296	-0.058983947	-0.0478556667	 0.154808
C	-1.3827226726	-0.6095489884	-0.108167958	-0.134684
C	-1.4131869203	-0.5136603308	-1.6073523487	-0.13581
C	 0.1664969046	-0.5813373636	-1.5120979666	-0.099668
N	 0.1590918152	-2.0649777993	-1.2888440441	-0.372826
C	-1.2693001943	-1.8917520421	-0.9649409338	 0.274393
C	-2.2639883234	-2.9627865409	-0.9544016994	 0.049292
O	-2.0243113498	-4.1108421227	-1.2466955011	-0.27309
H	 0.875227276	 1.6834664336	 0.0253154257	 0.287929
H	 0.735647949	-0.5055095225	 0.6705572492	 0.083986
H	-2.1883647358	-0.4642004408	 0.599972407	 0.108516
H	-2.1412559781	-0.1179628829	-2.3022143255	 0.110785
H	 0.8945306541	-0.1647695244	-2.2053006162	 0.082958
H	 0.2037965527	-2.5456801397	-2.1866639077	 0.229307
H	-3.2904630886	-2.6273434337	-0.6798736547	 0.072037
98.0448	155.3087	239.7186	288.442	299.9709	334.7893	415.415	508.5934	570.9401	698.662	769.7728	780.5877	819.3419	855.4745	902.7246	911.346	936.8798	962.4368	1008.9001	1028.3571	1039.2813	1046.1692	1113.4541	1127.4985	1161.5101	1183.5089	1220.3817	1247.5829	1291.103	1312.3806	1323.4616	1378.2344	1428.5121	1448.1577	1802.0934	2867.8828	3032.6691	3143.4494	3201.3255	3213.1422	3470.1694	3816.0396
OC1C2C3C1NC23C=O	O[C@H]1[C@H]2[C@H]3[C@@H]1N[C@@]23C=O	
InChI=1S/C6H7NO2/c8-1-6-2-3(6)5(9)4(2)7-6/h1-5,7,9H	InChI=1S/C6H7NO2/c8-1-6-2-3(6)5(9)4(2)7-6/h1-5,7,9H/t2-,3+,4-,5-,6+/m0/s1
