21
gdb 91157	2.26335	1.79134	1.28378	1.875	82.36	-0.2354	0.0121	0.2475	1079.4743	0.183718	-387.086558	-387.078304	-387.07736	-387.119046	32.734	
C	 0.5878827265	 1.0975184323	-0.8150914084	-0.401881
C	 0.0384460109	-0.0512614877	 0.0118506732	 0.150586
O	-0.0305335017	-1.2730848047	-0.7711671166	-0.31498
C	 0.8321317421	-1.9685263331	 0.1599044578	 0.089187
C	 2.2633552949	-2.08675612	-0.2978659241	-0.100923
C	 3.0651574066	-1.2753220716	 0.3923191266	-0.069993
C	 2.3405237979	-0.4842175851	 1.4669660414	-0.027561
C	 2.7866471049	 0.9768469597	 1.6216241107	-0.408979
C	 0.8549097199	-0.7712912404	 1.1389352094	-0.128629
H	 1.5936218504	 0.8848219154	-1.1834409769	 0.12673
H	-0.063725482	 1.2397543127	-1.6838880535	 0.123082
H	 0.5995717452	 2.032413762	-0.2457710985	 0.111804
H	-0.9670253719	 0.2150153977	 0.3658593612	 0.073668
H	 0.3855895176	-2.920249275	 0.4716108098	 0.074728
H	 2.5695615499	-2.7554981832	-1.0944830257	 0.098276
H	 4.138142473	-1.1879747696	 0.2473019244	 0.093673
H	 2.5470907714	-0.9656381947	 2.4360593827	 0.085725
H	 2.7304706411	 1.5337161541	 0.6851968642	 0.12477
H	 2.1706013108	 1.4962851288	 2.3630682582	 0.113976
H	 3.824141661	 1.0184227066	 1.9702485194	 0.112835
H	 0.2559185812	-0.8863018243	 2.0433160746	 0.073909
87.1828	184.7655	218.1189	252.9069	268.1656	299.6814	361.8552	411.3794	499.1691	545.0219	641.3168	715.6241	755.1493	773.1683	846.6445	864.2431	901.2804	910.5472	960.6664	978.2493	984.0346	1025.2937	1053.6027	1058.4689	1091.7914	1107.3095	1124.8219	1147.6929	1188.1289	1219.8802	1259.2379	1282.388	1313.899	1326.8028	1343.9435	1355.7745	1379.1438	1394.1538	1408.3622	1417.1476	1482.3726	1493.1034	1505.8403	1513.0121	1672.8074	2967.3636	2998.4997	3032.4654	3037.728	3040.4436	3096.1295	3096.5593	3102.3645	3131.3494	3141.631	3170.606	3203.6674
CC1OC2C=CC(C)C12	C[C@H]1O[C@H]2C=C[C@@H](C)[C@@H]12	
InChI=1S/C8H12O/c1-5-3-4-7-8(5)6(2)9-7/h3-8H,1-2H3	InChI=1S/C8H12O/c1-5-3-4-7-8(5)6(2)9-7/h3-8H,1-2H3/t5-,6-,7+,8+/m1/s1
