18
gdb 82286	2.58906	1.80066	1.16308	4.07	79.18	-0.2265	-0.0302	0.1963	1055.5965	0.149443	-401.981082	-401.973161	-401.972217	-402.013567	30.337	
C	-0.0779926243	 1.409215409	 0.012124404	-0.351
N	 0.0154177065	-0.0400530842	 0.0447763275	-0.117135
C	-1.2190519685	-0.7628214228	-0.0339983409	 0.03775
C	-1.6190507363	-1.5003609288	-1.2846867073	-0.309119
C	-1.1727083679	-2.2722079322	-0.0440496755	-0.120714
C	 0.1717144057	-2.8746578106	 0.00312615	-0.070688
C	 1.2746919239	-2.1209505994	-0.0047235978	-0.160396
C	 1.2581932664	-0.6381141237	 0.0020067783	 0.399395
O	 2.2972267709	 0.0075184327	-0.0073447703	-0.398741
H	 0.9290756919	 1.8122879202	 0.1058684746	 0.169879
H	-0.5225061647	 1.7559302474	-0.9297170181	 0.122498
H	-0.7001128036	 1.7710948889	 0.8397509295	 0.119448
H	-2.0114927338	-0.2885743829	 0.5386366267	 0.101893
H	-2.6704736874	-1.5401959052	-1.5462507535	 0.120834
H	-0.9288426395	-1.477872612	-2.1203566351	 0.130319
H	-1.9522848123	-2.8017084627	 0.4939337803	 0.102445
H	 0.2431478705	-3.9582045501	 0.0535099846	 0.10742
H	 2.2707538826	-2.5467991838	 0.010423223	 0.115913
102.983	123.298	148.5374	249.2044	340.9868	381.0411	416.9606	478.848	523.2369	566.2747	699.8616	709.8016	785.3717	821.4592	828.5271	845.5495	920.7537	990.5679	1001.38	1018.7232	1043.9267	1090.1449	1125.8248	1126.6284	1151.1979	1157.9627	1183.7151	1220.4836	1276.1295	1365.001	1389.1204	1413.6838	1425.8995	1455.8633	1481.2116	1499.0112	1522.2721	1686.8096	1749.8149	3012.8151	3061.431	3135.029	3137.4183	3153.901	3164.9064	3168.283	3213.1491	3232.8228
CN1C2CC2C=CC1=O	CN1[C@H]2C[C@H]2C=CC1=O	
InChI=1S/C7H9NO/c1-8-6-4-5(6)2-3-7(8)9/h2-3,5-6H,4H2,1H3	InChI=1S/C7H9NO/c1-8-6-4-5(6)2-3-7(8)9/h2-3,5-6H,4H2,1H3/t5-,6+/m1/s1
