19
gdb 40981	3.89607	1.23223	1.22714	1.3747	83.56	-0.2285	0.0065	0.235	1112.3409	0.160789	-385.906498	-385.898878	-385.897934	-385.938921	29.854	
C	 0.071829635	 1.5510936202	 0.3956942183	-0.259932
C	 1.3322575653	 1.9242419646	-0.4209194461	-0.277749
C	 2.0459803086	 0.5837920454	-0.7721502557	 0.378361
O	 2.4550574769	 0.5695451521	-2.1546144442	-0.315201
C	 3.8436418142	 0.2849318058	-2.2760144764	-0.134642
C	 4.3407916056	 0.1479846924	-0.8648915972	-0.108582
C	 3.3308499874	 0.3192158001	-0.0219059061	-0.133117
C	 0.9658874658	-0.4451191835	-0.4983068547	-0.114066
C	-0.0855041457	 0.0727497418	 0.1305340461	-0.069911
H	 0.210115972	 1.7405364321	 1.4689100884	 0.106263
H	-0.8119301329	 2.1275482757	 0.0985193813	 0.105812
H	 1.050821518	 2.382692119	-1.3723253772	 0.121892
H	 1.9927509273	 2.6214848415	 0.1004213075	 0.096116
H	 3.9923537893	-0.6359143785	-2.8628825149	 0.102581
H	 4.3469089685	 1.0982227267	-2.8224530899	 0.103667
H	 5.3747066831	-0.0544875018	-0.6148900852	 0.105037
H	 3.3648376	 0.279225343	 1.0595574392	 0.105827
H	 1.1022393151	-1.4829983904	-0.7797159982	 0.093346
H	-0.9600479236	-0.4848574365	 0.449138585	 0.094297
77.922	92.2571	205.3224	287.4056	339.224	426.9106	480.5918	510.0906	695.1117	728.9754	767.411	778.4073	787.2032	830.4458	847.8637	928.5386	939.2511	957.8125	958.4308	980.2592	992.3945	1023.8926	1047.0771	1093.0757	1101.2232	1121.1041	1135.098	1169.563	1198.8569	1205.3475	1252.7881	1284.389	1319.4131	1352.0477	1378.3578	1378.7937	1480.8767	1499.3085	1522.8192	1685.1571	1690.8163	2970.5943	2987.1556	3015.7505	3050.0432	3067.3176	3114.1846	3180.4428	3203.1901	3209.5516	3228.3542
C1CC2(OCC=C2)C=C1	C1C[C@]2(OCC=C2)C=C1	
InChI=1S/C8H10O/c1-2-5-8(4-1)6-3-7-9-8/h1,3-4,6H,2,5,7H2	InChI=1S/C8H10O/c1-2-5-8(4-1)6-3-7-9-8/h1,3-4,6H,2,5,7H2/t8-/m1/s1
