22
gdb 82294	2.41501	1.62844	1.32496	1.4122	80.67	-0.2242	0.0679	0.2921	1087.4213	0.194285	-404.329698	-404.320741	-404.319796	-404.362506	35.808	
C	-0.0240643815	 1.5760954924	-0.0024237519	-0.439869
C	 0.0413625639	 0.0469359054	 0.0221769771	 0.283698
C	-1.3802094989	-0.5444315659	 0.0478486034	-0.428727
C	 0.8200481882	-0.5447622244	-1.1808954115	-0.200997
N	 1.2547842573	-1.9045002594	-0.7739836382	-0.094873
C	 2.5535826835	-1.9343339817	-0.0963598081	-0.243109
C	 1.3062147192	-1.8900619641	 0.7091846475	-0.076889
C	 0.8385149001	-0.5271324333	 1.2281819935	 0.083739
O	 1.9042082767	 0.3648070877	 1.5426641955	-0.440704
H	 0.974266861	 2.0165238531	 0.008209533	 0.131041
H	-0.5485702286	 1.9200514781	-0.9008133581	 0.106504
H	-0.5701699369	 1.9600697825	 0.8660395351	 0.110366
H	-1.9427893108	-0.2213064803	-0.834189017	 0.114027
H	-1.3623670025	-1.6386372183	 0.0469655327	 0.129025
H	-1.9297245467	-0.211512885	 0.9349248323	 0.109522
H	 0.1874771383	-0.6258501598	-2.0702974238	 0.100165
H	 1.6788659295	 0.0864966429	-1.4393100259	 0.099631
H	 3.1015897882	-2.8682553148	-0.192407894	 0.110149
H	 3.1647997282	-1.0354595641	-0.1195674472	 0.119704
H	 0.944055719	-2.7848888111	 1.2087307017	 0.086625
H	 0.1880023499	-0.6508006445	 2.105519925	 0.059703
H	 2.480195993	-0.0788387353	 2.1731792388	 0.281269
94.3683	214.9503	231.3728	244.8558	275.7557	287.9107	308.1986	341.6004	356.9912	449.3016	485.1666	519.3156	611.1652	687.169	775.9056	791.4138	836.8274	894.0009	916.5978	936.3219	955.9079	988.0741	990.6577	1028.5718	1035.7157	1089.1149	1104.5044	1128.479	1144.1185	1182.2488	1205.6722	1227.3105	1265.7665	1272.0452	1288.5225	1326.7672	1345.5054	1383.5296	1397.2879	1401.0218	1425.8791	1485.2513	1488.0045	1489.2153	1503.5389	1512.2405	1516.6527	2997.4658	3027.796	3029.6402	3035.8363	3075.9392	3091.7293	3099.0387	3099.2438	3107.2525	3133.7228	3135.6963	3186.7308	3820.322
CC1(C)CN2CC2C1O	CC1(C)CN2C[C@H]2[C@H]1O	
InChI=1S/C7H13NO/c1-7(2)4-8-3-5(8)6(7)9/h5-6,9H,3-4H2,1-2H3	InChI=1S/C7H13NO/c1-7(2)4-8-3-5(8)6(7)9/h5-6,9H,3-4H2,1-2H3/t5-,6+,8?/m0/s1
