18
gdb 44945	2.58181	1.8157	1.60355	3.3418	71.9	-0.2515	0.0136	0.2651	927.268	0.151553	-439.108353	-439.10157	-439.100625	-439.139315	27.816	
N	-0.0511104232	 1.2807954646	-0.1336509171	-0.554219
C	-0.0163343225	 0.0241782329	-0.0411104645	 0.401854
O	 1.1207594324	-0.7444412457	-0.0258535097	-0.258574
C	 0.7300751849	-2.1426731901	 0.0882152314	 0.086171
C	-0.6420978245	-2.1688476266	-0.5975877956	-0.247441
C	-1.2165352346	-0.9138543588	 0.0696374026	 0.046725
O	-1.5382906337	-1.2058254142	 1.4279868436	-0.274783
C	-0.4022314462	-1.5076931282	 2.2357920737	-0.072359
C	 0.5662433842	-2.5036845345	 1.5696356507	-0.231288
H	 0.8956187666	 1.6641147966	-0.1884741298	 0.222429
H	 1.5076080913	-2.7284593039	-0.4037924775	 0.090948
H	-0.5441954429	-2.0404964907	-1.6797144636	 0.114944
H	-1.2285900813	-3.0628488296	-0.3816375227	 0.11447
H	-2.1115524235	-0.4908460783	-0.3824407998	 0.109037
H	 0.1383667035	-0.5809388595	 2.4739366783	 0.116375
H	-0.7991444811	-1.9090390004	 3.1712654965	 0.113964
H	 0.1842669432	-3.52829253	 1.6386505647	 0.109718
H	 1.5304689276	-2.4712870635	 2.0871879586	 0.112027
134.2732	241.2022	289.1856	359.899	422.6453	446.011	465.8276	586.7408	684.4305	701.2354	787.7551	828.696	851.4574	864.1814	907.8776	913.6548	929.5972	950.5052	990.142	1032.5032	1071.1558	1082.0515	1084.6412	1116.5527	1176.046	1213.9429	1245.2033	1271.5423	1290.119	1318.0669	1342.3386	1349.3823	1373.0877	1384.3621	1414.7932	1472.7008	1487.2114	1510.8893	1785.2095	3008.9762	3043.9141	3064.5889	3089.2658	3101.4466	3106.2028	3133.1693	3143.7118	3455.4688
N=C1OC2CC1OCC2	[NH][C]1O[C@@H]2C[C@H]1OCC2	
InChI=1S/C6H9NO2/c7-6-5-3-4(9-6)1-2-8-5/h4-5,7H,1-3H2	InChI=1S/C6H9NO2/c7-6-5-3-4(9-6)1-2-8-5/h4-5,7H,1-3H2/t4-,5+/m0/s1
