21
gdb 106960	3.37885	1.12179	1.01089	1.1237	78.62	-0.2314	0.0699	0.3014	1274.7686	0.17993	-424.191268	-424.181622	-424.180678	-424.225401	36.809	
C	-0.1493069671	 1.5364395367	 0.0298972669	-0.437169
C	 0.0181755827	 0.027633469	 0.1115227411	 0.410058
C	-1.3204161714	-0.6991863012	 0.1017541415	-0.422321
O	 0.8549332892	-0.4841361312	-0.9919118142	-0.370914
C	 1.703594664	-1.1541421894	-0.0553584794	 0.451005
C	 2.163857195	-2.5349843547	-0.4381511485	-0.188983
O	 3.0832794267	-3.0875006375	 0.4866090468	-0.406777
C	 2.4247917182	-0.1667871373	 0.8102114688	-0.374134
C	 0.9953013992	-0.5645806346	 1.1376398685	-0.209849
H	 0.8131485699	 2.0514282662	 0.0613485382	 0.1193
H	-0.6501089536	 1.8090857364	-0.9048724885	 0.124205
H	-0.7623119644	 1.8971799729	 0.8623678269	 0.116867
H	-1.8797046379	-0.4520068547	-0.8057521559	 0.122487
H	-1.173098054	-1.7819840502	 0.1331044548	 0.120306
H	-1.9233309177	-0.4069925071	 0.9687263993	 0.113472
H	 1.3097171559	-3.219593529	-0.4699317577	 0.11983
H	 2.5771865687	-2.4899652749	-1.4587930756	 0.103296
H	 3.9040587006	-2.5905174184	 0.4114509602	 0.288056
H	 3.1513001341	-0.5915231778	 1.4959432334	 0.112152
H	 2.6692068388	 0.8197756459	 0.4274138339	 0.110515
H	 0.7145972229	-1.0163057391	 2.0802222092	 0.098599
59.3917	141.1655	173.3743	194.3288	236.9939	264.722	311.3245	322.4326	359.6675	368.7415	452.3519	496.4735	504.0378	649.0335	677.1983	814.2726	831.5867	843.8122	930.3107	954.2819	961.7607	976.1497	1001.7722	1003.1964	1036.0041	1052.629	1078.6413	1088.0147	1126.6351	1202.0266	1209.7295	1220.6462	1251.0589	1322.3722	1380.8029	1389.1438	1400.8521	1412.006	1418.5848	1472.3072	1478.0056	1488.7535	1494.6473	1501.6023	1503.6354	2978.7808	3033.1981	3041.0529	3070.1736	3101.5567	3108.9997	3116.9611	3119.5431	3127.8398	3195.0865	3209.6675	3820.6355
CC1(C)OC2(CO)CC12	CC1(C)O[C@@]2(CO)C[C@@H]12	
InChI=1S/C7H12O2/c1-6(2)5-3-7(5,4-8)9-6/h5,8H,3-4H2,1-2H3	InChI=1S/C7H12O2/c1-6(2)5-3-7(5,4-8)9-6/h5,8H,3-4H2,1-2H3/t5-,7+/m0/s1
