19
gdb 47946	2.12869	1.82637	1.23598	4.2892	70.98	-0.2731	0.0284	0.3016	1064.7032	0.161499	-460.206251	-460.198304	-460.197359	-460.23878	30.572	
O	 0.2439149381	 0.0095350848	 0.2856678317	-0.375087
C	 0.0152757549	 1.1613369007	 0.055674668	 0.488954
O	-1.2299365802	 1.6566218635	-0.0101767077	-0.24524
C	-1.4163967942	 2.8954463987	-0.7277650457	-0.073875
C	-1.3378527914	 2.7079745619	-2.2485652281	-0.200649
C	-0.1235456006	 1.9550829659	-2.8381378734	-0.208012
C	 1.2855175718	 2.4905352598	-2.4988353898	-0.196268
C	 1.8714581185	 1.8986301387	-1.2160855625	-0.09557
O	 0.9616054603	 2.1234081597	-0.1276783524	-0.260722
H	-2.4203187744	 3.222193238	-0.4475272176	 0.11889
H	-0.6973485566	 3.6340378102	-0.3733709985	 0.13
H	-2.2394126587	 2.1796279707	-2.5795418784	 0.114886
H	-1.3906330661	 3.7129206976	-2.6886451664	 0.105379
H	-0.1824519823	 0.8948122519	-2.5624243877	 0.12962
H	-0.2514403116	 1.9755451291	-3.9256050349	 0.103093
H	 1.9760832501	 2.251684546	-3.3167018906	 0.106571
H	 1.265431047	 3.58452299	-2.4195423942	 0.10532
H	 2.0516864891	 0.8221374055	-1.3096476172	 0.133773
H	 2.8088365562	 2.386827517	-0.9391978046	 0.118936
102.2446	130.8008	185.9075	264.4766	297.8118	361.012	372.3558	475.6231	511.0244	610.4614	625.3256	734.7123	779.3021	807.6576	857.8225	873.1462	901.8899	980.3238	1003.8475	1033.5094	1044.5471	1106.2366	1122.4686	1146.4399	1193.0332	1224.2845	1242.982	1289.0471	1297.2924	1324.8132	1369.0477	1386.4577	1393.4997	1403.3877	1427.9107	1474.9993	1480.1075	1499.0807	1503.8589	1509.5179	1862.1326	3022.0865	3028.1212	3033.5251	3050.6036	3064.3543	3072.2082	3073.7133	3083.9232	3113.0948	3137.9009
O=C1OCCCCCO1	O=C1OCCCCCO1	
InChI=1S/C6H10O3/c7-6-8-4-2-1-3-5-9-6/h1-5H2	InChI=1S/C6H10O3/c7-6-8-4-2-1-3-5-9-6/h1-5H2
