18
gdb 62395	3.10031	1.51938	1.30287	2.7575	75.93	-0.2466	0.0248	0.2714	1012.421	0.150764	-398.110111	-398.102364	-398.10142	-398.141983	30.688	
N	 0.0089124536	 1.5297150725	-0.0541049942	-0.566789
C	-0.0089975162	 0.0780784631	-0.0043330937	 0.172481
C	 0.9033350865	-0.5367752486	-0.982241011	 0.213892
N	 1.639772651	-0.9514342428	-1.7733050865	-0.346644
C	 0.0775538628	-0.6417939835	 1.3893597041	-0.040938
C	-0.9919909189	 0.0880896242	 2.2163594829	-0.200033
C	-2.1412651324	 0.0659987441	 1.1580486033	-0.200036
C	-1.3898113256	-0.6699969929	 0.0381298119	-0.040942
N	-0.7378311471	-1.7784779543	 0.8259003199	-0.330902
H	 0.9489752387	 1.8760588408	 0.1194929653	 0.2437
H	-0.2486953897	 1.8530225988	-0.9830397322	 0.243699
H	 1.0371992439	-0.8762877364	 1.84924155	 0.084492
H	-1.2316269254	-0.4816080833	 3.1155729243	 0.112451
H	-0.6917129753	 1.0993441788	 2.4920410851	 0.112227
H	-3.0057366793	-0.5157150624	 1.4818755193	 0.112452
H	-2.4616385418	 1.0653233021	 0.8622182201	 0.112223
H	-1.9219090655	-0.9331611835	-0.87566196	 0.084491
H	-0.1452778094	-2.3179630165	 0.1936779914	 0.234177
136.7201	162.1561	200.5042	281.5683	284.9695	365.7428	440.3976	506.3889	557.4358	568.1523	659.955	707.6744	822.5187	828.132	860.5234	874.3396	896.0485	920.5478	944.9781	977.6766	1009.7562	1026.4687	1056.5372	1092.2061	1174.1851	1176.6474	1189.7007	1202.827	1254.3728	1257.7802	1277.6792	1300.221	1306.7415	1346.2133	1358.0245	1466.3732	1488.292	1651.981	2332.247	3083.4236	3089.8109	3126.0941	3129.3895	3133.9409	3148.2425	3457.5001	3483.8721	3560.9834
NC1(C#N)C2CCC1N2	N[C@@]1(C#N)[C@H]2CC[C@@H]1N2	
InChI=1S/C6H9N3/c7-3-6(8)4-1-2-5(6)9-4/h4-5,9H,1-2,8H2	InChI=1S/C6H9N3/c7-3-6(8)4-1-2-5(6)9-4/h4-5,9H,1-2,8H2/t4-,5+,6+
