18
gdb 64081	3.43027	1.2358	1.11559	3.6252	77.93	-0.2493	-0.0406	0.2087	1145.6858	0.147374	-439.105061	-439.096381	-439.095437	-439.138131	33.067	
C	-0.1431086417	 1.5528840783	 0.0025355205	-0.429399
C	 0.0006488451	 0.0261265661	 0.0137674369	 0.292855
O	-1.2953161913	-0.5866888247	-0.0147622883	-0.460042
C	 0.7160198247	-0.4415822517	-1.253614676	-0.086565
O	 1.1132707947	-1.8141497002	-1.2204536682	-0.259808
C	 1.7533426981	-2.2728896947	-0.109663127	 0.372665
N	 2.4089253244	-3.3631179849	-0.1132811178	-0.524727
C	 1.6062688854	-1.4984304034	 1.1288408686	-0.102936
C	 0.7897300618	-0.4473964065	 1.2130113871	-0.134789
H	 0.8310667287	 2.051984681	 0.0081462158	 0.123559
H	-0.7019645252	 1.8734784785	-0.8813638369	 0.129832
H	-0.696094661	 1.8816707928	 0.888900708	 0.114064
H	-1.6683114241	-0.5454268632	 0.8722320113	 0.280474
H	 0.0414775418	-0.3547007072	-2.1080429195	 0.12834
H	 1.5978530209	 0.1877076106	-1.4286220297	 0.106903
H	 2.3883172618	-3.775523853	-1.0487840753	 0.221413
H	 2.1709055974	-1.8757102506	 1.9729469404	 0.126269
H	 0.6568671186	 0.0855534028	 2.15202795	 0.101893
73.3786	188.3637	196.1828	218.3158	239.2948	304.8313	329.3322	387.8891	441.4663	459.5965	511.5205	577.9627	697.9355	717.6629	798.0873	833.9913	868.7554	912.8066	928.0838	932.2513	1008.4494	1014.0117	1043.6208	1123.1548	1139.9869	1152.9708	1196.1701	1201.6611	1297.73	1325.2488	1386.3232	1400.8238	1416.4304	1436.2969	1489.2512	1491.3238	1496.0003	1685.229	1729.0857	3026.9891	3035.2131	3103.697	3112.8589	3119.7563	3151.3557	3213.7563	3462.8074	3812.0094
CC1(O)COC(=N)C=C1	C[C@@]1(O)COC(=C[CH]1)[NH]	
InChI=1S/C6H9NO2/c1-6(8)3-2-5(7)9-4-6/h2-3,7-8H,4H2,1H3	InChI=1S/C6H9NO2/c1-6(8)3-2-5(7)9-4-6/h2-3,7-8H,4H2,1H3/t6-/m0/s1
