19
gdb 79521	3.06283	1.55133	1.26948	3.0763	73.84	-0.2267	0.0577	0.2844	1032.2836	0.159834	-422.963149	-422.955494	-422.95455	-422.995115	30.638	
C	-0.1840396429	 1.5670053284	-0.0015069312	-0.410288
C	 0.0185877299	 0.0513898643	-0.0089829888	-0.047505
C	 0.925723029	-0.4664419013	-1.1212554458	-0.032846
C	 1.383941841	-1.9116546212	-0.7799759648	 0.028228
O	 2.6841505097	-1.6948950623	-1.428504478	-0.32051
C	 2.4163173381	-0.4666440204	-0.6620211229	 0.060698
C	 1.9010045823	-1.2945594826	 0.5503176383	-0.031522
C	 0.793660583	-0.5202313593	 1.2411612372	 0.066334
O	 1.404019738	 0.4647543366	 2.0631325758	-0.428051
H	 0.7667091998	 2.0977042628	 0.0934430211	 0.131969
H	-0.6685576877	 1.8932482417	-0.9272437262	 0.116549
H	-0.8272889667	 1.8827343725	 0.8280544497	 0.101991
H	-0.9629650492	-0.434443666	-0.0804478653	 0.070917
H	 0.7095416095	-0.2280157116	-2.1627618124	 0.075618
H	 0.8769616053	-2.8618561631	-0.954231933	 0.088324
H	 3.1632649655	 0.3254534567	-0.6919738175	 0.095938
H	 2.620414963	-1.8513578866	 1.1481986931	 0.083083
H	 0.1477055671	-1.1719229151	 1.8468197085	 0.066068
H	 0.7120198853	 0.9400568567	 2.5331287822	 0.285006
92.5531	203.9992	215.1545	270.2655	311.0447	343.2825	478.282	494.8853	560.8755	657.4841	709.4598	771.0521	796.3962	852.4848	888.2304	901.5405	905.887	940.1943	976.7017	990.5272	1009.7679	1021.5103	1077.0895	1112.6935	1129.6049	1138.5423	1155.0372	1171.7551	1185.6361	1229.5258	1243.4297	1258.6015	1273.2848	1290.4839	1341.6153	1360.2483	1377.2825	1408.6948	1431.6217	1495.6416	1501.651	2990.9164	3022.5093	3032.2626	3091.2018	3104.794	3119.7646	3122.7819	3130.7618	3146.406	3823.8023
CC1C2C3OC2C3C1O	C[C@H]1[C@@H]2[C@H]3O[C@@H]2[C@H]3[C@H]1O	
InChI=1S/C7H10O2/c1-2-3-6-4(5(2)8)7(3)9-6/h2-8H,1H3	InChI=1S/C7H10O2/c1-2-3-6-4(5(2)8)7(3)9-6/h2-8H,1H3/t2-,3-,4+,5-,6-,7+/m0/s1
