18
gdb 105994	2.7734	1.64966	1.26907	2.3753	75.53	-0.2032	0.0702	0.2734	1046.2018	0.145604	-401.814671	-401.806374	-401.80543	-401.847489	31.327	
C	-0.266782555	 1.2960544951	 0.09777842	-0.257849
O	 0.2281070869	-0.0297867861	-0.0569227606	-0.27829
C	 0.8102342589	-0.5361941586	 1.0594714204	 0.381965
C	 2.1567840895	-0.2557567402	 1.8045488456	-0.156837
C	 1.5470246575	-0.7064717111	 3.0834430336	-0.040456
C	 0.1869983816	-0.9815685781	 2.4058939701	-0.270476
C	 0.9141873536	-1.9656114338	 1.4935763761	 0.294335
C	 0.5273212153	-3.2608966962	 0.874454317	-0.522432
N	 2.2505852885	-1.7066988563	 2.2056565329	-0.202275
H	 0.5445760468	 2.000721151	 0.3228981868	 0.120319
H	-0.7291228289	 1.5734623409	-0.8513326846	 0.132494
H	-1.0126648211	 1.3467726868	 0.9012408066	 0.117533
H	 3.039908568	 0.334814522	 1.5878541865	 0.098457
H	 1.8397760872	-0.5321062743	 4.1127370655	 0.094688
H	-0.8414565955	-0.9596432725	 2.7373845847	 0.09489
H	-0.4560099388	-3.1748382655	 0.4013980768	 0.13109
H	 1.2504391676	-3.5549340995	 0.1058903637	 0.133413
H	 0.4816583379	-4.0575094736	 1.624659959	 0.129429
100.1349	136.4923	166.5421	186.2723	240.133	264.1437	373.1542	442.492	568.6761	646.8816	711.0637	758.344	762.2057	792.5344	857.3544	868.9577	873.6451	897.0356	959.4248	990.7362	1010.0118	1036.5739	1055.9106	1109.278	1123.0774	1167.8045	1178.0495	1187.4772	1211.0056	1247.7436	1302.6451	1348.0323	1406.8953	1460.281	1472.7767	1485.9604	1491.3711	1503.3137	1522.7705	3005.0004	3029.9701	3064.5121	3095.276	3108.2621	3132.1062	3164.0169	3177.9865	3218.4629
COC12C3C4C1C2(C)N34	CO[C@@]12[C@H]3[C@H]4[C@@H]1[C@]2(C)N34	
InChI=1S/C7H9NO/c1-6-4-3-5(8(3)6)7(4,6)9-2/h3-5H,1-2H3	InChI=1S/C7H9NO/c1-6-4-3-5(8(3)6)7(4,6)9-2/h3-5H,1-2H3/t3-,4-,5-,6+,7-,8?/m1/s1
