13
gdb 25384	4.00318	1.21538	0.93232	1.489	70.35	-0.2491	-0.1142	0.1349	1143.5204	0.091096	-448.965549	-448.958249	-448.957305	-448.99795	26.22	
N	-0.1685868773	 1.3064373005	 0.0089158277	-0.554475
C	 0.0118453442	 0.0491026742	 0.0011370309	 0.418132
N	-1.1342109417	-0.7805440019	 0.0024808302	-0.337641
C	-1.0432133742	-2.1240005243	-0.0052109622	 0.322893
C	-2.3585632296	-2.8709152672	-0.0025252522	 0.111274
O	-2.4436592738	-4.0643273642	-0.0084734994	-0.19683
N	 0.0886417453	-2.7636260448	-0.0144237489	-0.297651
C	 1.191568785	-1.9347030193	-0.0156031085	 0.064725
N	 1.2240410773	-0.6400008851	-0.008782497	-0.277505
H	 0.7369979189	 1.7726934502	 0.0068391121	 0.235178
H	-2.0285816975	-0.3054306088	 0.0096120601	 0.279008
H	-3.2538428862	-2.2084570191	 0.0056568933	 0.094561
H	 2.1472465696	-2.4552740403	-0.023291276	 0.13833
77.9035	138.7174	190.8714	198.789	389.7104	413.2026	475.344	571.9725	590.2946	705.2497	716.0765	779.2244	839.7077	863.3996	902.8476	1007.03	1010.0602	1027.9866	1057.3062	1183.6983	1249.6928	1307.5196	1419.7311	1429.3803	1491.8574	1563.7019	1652.8567	1748.0286	1850.9702	2878.9056	3161.0665	3517.5399	3575.7606
N=C1NC(C=O)=NC=N1	[NH]C1=NC=N[C@@H](N1)C=O	
InChI=1S/C4H4N4O/c5-4-7-2-6-3(1-9)8-4/h1-2H,(H2,5,6,7,8)	InChI=1S/C4H5N4O/c5-4-7-2-6-3(1-9)8-4/h1-3,5H,(H,6,7,8)/t3-/m0/s1
