21
gdb 86625	3.68145	0.97852	0.86222	0.9851	78.92	-0.2463	0.0566	0.3029	1392.8627	0.182163	-424.195013	-424.185695	-424.184751	-424.229502	35.239	
O	 0.064879601	 1.4095444759	-0.2063343258	-0.442619
C	 0.0399233785	 0.0132946023	-0.0780018819	 0.146248
C	 0.3952297713	-0.6374869119	 1.2872399449	-0.29884
C	-0.7904490033	-1.6277708232	 1.0776532813	 0.002277
C	-1.6487708059	-2.012991614	 2.2496815509	 0.031722
C	-2.4641720716	-3.2821248842	 2.2208977595	-0.27208
C	-1.2569126386	-3.1819963297	 3.1203157162	-0.275914
C	-1.3678334204	-0.6585807982	 0.0086379362	 0.043188
O	-2.3009074464	 0.2303229604	 0.6112853641	-0.436612
H	-0.551663292	 1.7433126179	 0.4576888107	 0.274497
H	 0.639116859	-0.3925168975	-0.8978342336	 0.086841
H	 1.397946743	-1.0512603726	 1.4134240569	 0.098796
H	 0.1935649912	 0.0540464416	 2.1113940462	 0.100795
H	-0.4353337478	-2.5317775605	 0.5694348265	 0.067419
H	-2.1058174608	-1.1697056879	 2.7572163448	 0.09175
H	-3.4490731276	-3.2712104753	 2.6743693754	 0.110758
H	-2.3893953818	-3.9156287527	 1.3426566073	 0.105792
H	-0.3720063155	-3.7466460564	 2.844452363	 0.106997
H	-1.4147425	-3.1045369264	 4.190419962	 0.109556
H	-1.7868113372	-1.1028803857	-0.9024543688	 0.058906
H	-2.625198785	 0.8159492181	-0.0806204157	 0.290522
70.4221	74.0723	147.4917	151.9709	231.0287	258.0593	297.7795	385.782	421.5768	499.1432	532.5494	615.9489	685.573	744.4023	792.0219	825.1456	861.3249	902.0662	910.5807	932.878	961.4814	992.9767	1053.8199	1058.7104	1074.3263	1077.5764	1106.1664	1140.4896	1153.1454	1160.0034	1198.0197	1219.1158	1222.4474	1240.8929	1248.7531	1274.5407	1297.5185	1323.0566	1325.4233	1414.9701	1427.9937	1445.7738	1470.1175	1481.2692	1505.9715	3020.1781	3040.4793	3056.2573	3076.5744	3116.3762	3126.7015	3131.7594	3163.1186	3204.3388	3220.0648	3771.8836	3818.0011
OC1CC(C2CC2)C1O	O[C@H]1C[C@@H](C2CC2)[C@H]1O	
InChI=1S/C7H12O2/c8-6-3-5(7(6)9)4-1-2-4/h4-9H,1-3H2	InChI=1S/C7H12O2/c8-6-3-5(7(6)9)4-1-2-4/h4-9H,1-3H2/t5-,6-,7+/m0/s1
