16
gdb 35097	2.28709	1.64807	1.49584	4.0041	82.06	-0.238	-0.0544	0.1837	983.0857	0.126556	-363.640152	-363.632696	-363.631752	-363.672073	28.705	
N	-0.2007036754	-1.1609844456	-0.3759325235	-0.331946
C	-0.1165858423	-0.0217818332	-0.2007368226	 0.288451
C	-0.0305259437	 1.4386855653	-0.013032025	-0.249196
C	-0.7220508413	 1.8988878083	 1.2566623794	-0.099486
C	-0.3280291771	 1.5312172727	 2.4893958091	-0.045687
C	 0.8674216706	 0.8014084263	 2.8305961137	-0.091458
C	 2.0377632097	 0.8210893459	 2.140894979	-0.091458
C	 2.2998984829	 1.5754102254	 0.9407179082	-0.045687
C	 1.4033013741	 1.9346301351	 0.0041601185	-0.099487
H	-0.5437591055	 1.882916665	-0.8712538043	 0.130141
H	-1.5914985329	 2.5362572247	 1.1333928895	 0.110388
H	-0.958923694	 1.8264174213	 3.325277032	 0.104538
H	 0.858262491	 0.2861049019	 3.7874113281	 0.102979
H	 2.8919188225	 0.3203029933	 2.5889446365	 0.102979
H	 3.3290641554	 1.8985271454	 0.7983022959	 0.104538
H	 1.700518876	 2.5916201981	-0.8066418547	 0.110388
90.3186	142.8929	239.4097	302.6147	343.6272	403.8236	426.195	538.6465	546.1046	675.3842	697.1968	765.6182	776.3128	818.9486	893.7137	903.3454	939.4488	960.1066	977.4976	988.5584	1011.8822	1034.595	1084.7898	1231.7633	1233.6821	1246.8209	1305.8445	1328.6205	1383.9004	1425.2375	1474.7811	1586.2891	1677.6599	1680.1025	2353.3212	3065.4828	3143.9882	3147.0861	3158.5298	3175.0937	3184.9931	3187.5299
N#CC1C=CC=CC=C1	N#C[C@H]1C=CC=CC=C1	
InChI=1S/C8H7N/c9-7-8-5-3-1-2-4-6-8/h1-6,8H	InChI=1S/C8H7N/c9-7-8-5-3-1-2-4-6-8/h1-6,8H
