17
gdb 37239	4.0519	1.39083	1.23005	3.2161	70.71	-0.2375	0.0458	0.2833	1014.7065	0.135684	-421.710058	-421.703041	-421.702097	-421.74153	27.875	
C	-0.0753287685	 1.4999817972	-0.1435592042	-0.132065
O	 1.2860029843	 1.5391253469	 0.3560396751	-0.281981
C	 1.3588941704	 0.1037578791	 0.4367416519	-0.155052
C	-0.0731105773	-0.023216909	-0.0856189768	 0.31353
C	-1.0649138647	-1.0307934248	 0.4062965797	-0.191868
C	-2.4896669329	-0.7635354951	-0.170536644	 0.020307
O	-2.4530431539	 0.4246333736	-0.9783393813	-0.242917
C	-1.9864338174	-0.8144766062	-1.5374039592	 0.020249
C	-0.5343618323	-1.0847899876	-1.0349113161	-0.191845
H	-0.776612367	 2.0002436594	 0.5323282285	 0.108955
H	-0.1596942856	 1.937402963	-1.1437702865	 0.108952
H	 2.142070903	-0.3102411017	-0.2128989232	 0.100543
H	 1.5246060695	-0.2472856061	 1.4644108831	 0.100541
H	-0.8603247479	-1.7054270485	 1.2283058413	 0.09681
H	-3.4398339332	-1.0459943196	 0.2655182372	 0.114511
H	-2.4344618141	-1.1477785603	-2.4652657971	 0.114512
H	 0.1373880177	-1.8069888403	-1.4819771787	 0.096819
107.4495	178.5275	205.4461	309.2259	384.0116	484.0253	494.5568	675.7736	757.7076	762.7549	783.2383	851.4769	851.5102	868.3456	906.6468	923.8373	963.4359	984.5407	985.3517	1009.228	1027.1551	1028.1013	1048.1182	1126.6701	1129.6821	1152.2269	1161.4834	1209.5914	1217.4381	1251.5079	1263.6997	1305.5805	1345.9787	1389.2415	1451.465	1505.268	1530.4798	2995.6154	3035.1281	3036.9838	3083.3112	3183.4244	3192.7297	3194.2906	3206.2307
C1OCC11C2C3OC3C12	C1OCC21[C@H]1[C@H]3O[C@H]3[C@@H]21	
InChI=1S/C7H8O2/c1-7(2-8-1)3-4(7)6-5(3)9-6/h3-6H,1-2H2	InChI=1S/C7H8O2/c1-7(2-8-1)3-4(7)6-5(3)9-6/h3-6H,1-2H2/t3-,4+,5-,6+
