21
gdb 40139	2.57254	1.55058	1.26762	1.459	82.52	-0.2372	0.0716	0.3088	1103.6721	0.182865	-387.051194	-387.042879	-387.041935	-387.08424	32.503	
C	 0.4701857839	 1.3997890689	-0.2766801826	-0.346059
C	 1.42243637	 0.2901478437	 0.1047755543	-0.305619
C	-0.0495786715	 0.0198396713	-0.0114431914	 0.315007
C	-0.9562331034	-0.5198112917	 1.1015323515	-0.3205
C	-1.213510262	-1.7680166729	 0.2041154583	-0.293296
C	-0.6273772534	-0.993219449	-1.0019460374	 0.400176
C	-1.5255559627	-0.5552275105	-2.1824589896	-0.352451
C	-0.5357031053	-1.3547867917	-3.0479600457	-0.075429
O	 0.2725300415	-1.6758422509	-1.8954650592	-0.313013
H	 0.260358579	 2.1727104984	 0.4560978971	 0.110522
H	 0.4865640761	 1.7539808781	-1.3034355199	 0.107749
H	 2.0564075104	-0.1251562847	-0.6710172501	 0.127668
H	 1.8620897935	 0.3081465963	 1.097037241	 0.107912
H	-0.490380203	-0.7015884878	 2.0730617414	 0.101818
H	-1.8564474555	 0.0839535602	 1.2526926504	 0.101085
H	-0.5580422138	-2.6026916943	 0.4650402218	 0.117393
H	-2.240448147	-2.1313037842	 0.1137374365	 0.093404
H	-2.5499272596	-0.9315748947	-2.1573433364	 0.108315
H	-1.539926025	 0.5208351935	-2.3661227954	 0.111706
H	-0.9413429667	-2.255879276	-3.523655327	 0.101718
H	 0.0268300146	-0.7828901718	-3.7951763376	 0.101892
82.6532	89.6198	182.7378	218.1065	272.82	318.7535	414.8307	474.2737	517.5057	579.2754	743.1896	782.9064	786.2597	858.5815	863.1441	881.5612	901.116	917.4466	936.896	944.2862	970.9791	993.4659	1026.1182	1050.521	1072.9517	1113.8464	1135.898	1155.6582	1169.1547	1187.864	1189.6991	1199.0089	1218.67	1235.4771	1256.7885	1261.1824	1308.0142	1353.072	1380.1182	1460.7052	1470.6537	1488.8104	1495.6474	1501.3523	1533.1294	3018.9004	3049.8052	3058.6224	3060.9147	3074.005	3098.1724	3117.2344	3120.9745	3128.2446	3129.0033	3197.4465	3220.5253
C1CC11CCC11CCO1	C1CC21CC[C@]12CCO1	
InChI=1S/C8H12O/c1-2-7(1)3-4-8(7)5-6-9-8/h1-6H2	InChI=1S/C8H12O/c1-2-7(1)3-4-8(7)5-6-9-8/h1-6H2/t8-/m1/s1
