18
gdb 11303	3.39487	1.64295	1.30792	3.0627	68.37	-0.2388	-0.0201	0.2187	986.6481	0.153253	-384.961313	-384.953182	-384.952238	-384.994446	29.305	
C	-0.1142027188	 1.4646512561	 0.0577368027	-0.406173
C	 0.1111211801	-0.0350108424	 0.0975120969	 0.142883
C	 0.656062658	-0.6653535754	-1.1925099799	-0.209492
C	 1.3736596966	-1.9350869506	-0.6913565067	-0.277995
C	 1.6140644778	-1.6196529568	 0.8246000899	 0.028093
O	 1.1252762791	-0.3227267272	 1.0660139097	-0.249834
C	 0.9246968894	-2.6722539361	 1.6817922227	 0.146669
O	-0.0671931031	-2.4887894291	 2.335240067	-0.238677
H	 0.8099001229	 1.9836306356	-0.2157193609	 0.120003
H	-0.8867331052	 1.7145049242	-0.6759806588	 0.116042
H	-0.4386728726	 1.8299433267	 1.0356888933	 0.132205
H	-0.819169536	-0.543533308	 0.3933842677	 0.085845
H	-0.1284411398	-0.8826143372	-1.9214270159	 0.106124
H	 1.3717835634	 0.0208493174	-1.6570107536	 0.106309
H	 0.7455144719	-2.8232219973	-0.8142415668	 0.11461
H	 2.3098944583	-2.1251852678	-1.2188578353	 0.117247
H	 2.6832741952	-1.6370263083	 1.074531505	 0.09644
H	 1.415629473	-3.6749406337	 1.6324831931	 0.069701
58.2123	103.5159	130.2605	224.4155	245.6068	309.1427	349.2313	467.8678	571.2881	659.5129	740.216	812.8558	827.6523	879.9019	901.3577	936.5136	956.0262	993.3463	1020.2721	1082.3361	1130.6206	1151.6198	1160.8313	1206.7473	1220.1172	1284.228	1307.7095	1311.5137	1349.8673	1374.6496	1398.0927	1416.1421	1418.0094	1482.6781	1487.2222	1500.2654	1506.0288	1841.5466	2835.7938	2989.5315	3022.7772	3041.1811	3052.2397	3053.8374	3103.7651	3113.9451	3117.8427	3122.0513
CC1CCC(O1)C=O	C[C@H]1CC[C@@H](O1)C=O	
InChI=1S/C6H10O2/c1-5-2-3-6(4-7)8-5/h4-6H,2-3H2,1H3	InChI=1S/C6H10O2/c1-5-2-3-6(4-7)8-5/h4-6H,2-3H2,1H3/t5-,6+/m0/s1
