20
gdb 6716	6.33726	0.73533	0.68436	2.8527	73.17	-0.2565	-0.0273	0.2292	1644.5935	0.172986	-386.145842	-386.135637	-386.134693	-386.182205	34.562	
C	-0.0322870197	 1.5236643165	-0.0890385339	-0.393729
C	-0.0154522635	-0.0072215348	 0.0002362665	 0.017826
C	 0.8052858456	-0.4970749358	 1.1994808839	-0.380394
C	-1.444567214	-0.5447222349	 0.0493242798	-0.03824
O	-1.4136823177	-1.9596855802	 0.0015115045	-0.251218
C	-2.6806801796	-2.5547300364	 0.0703076132	-0.143665
C	-2.5030936024	-4.0619927016	 0.0086497486	 0.138692
O	-3.4149461061	-4.8439086901	 0.0507782027	-0.237758
H	 0.9853718469	 1.9195107317	-0.1588251779	 0.117828
H	-0.5879957307	 1.87254202	-0.9660111566	 0.112979
H	-0.4972496173	 1.9657211123	 0.8002839793	 0.115014
H	 0.4400661498	-0.4053046103	-0.9163497738	 0.085073
H	 0.400031291	-0.0982028287	 2.1375562874	 0.108288
H	 0.7909106952	-1.5875314044	 1.2623898137	 0.12803
H	 1.8465553226	-0.1689286968	 1.1214967036	 0.110748
H	-1.9463193954	-0.2089254994	 0.9741742486	 0.086187
H	-2.0314429761	-0.1539961919	-0.7988778563	 0.086937
H	-3.2114534718	-2.2989344211	 1.003637972	 0.121048
H	-3.3337146843	-2.2420310746	-0.7629674491	 0.120507
H	-1.4408156926	-4.3801626995	-0.0801567661	 0.095848
44.9402	57.3694	96.9145	105.2527	141.0762	214.3652	234.4724	266.4397	293.0759	401.3059	416.3238	465.0308	579.8257	741.3701	834.6548	921.5622	932.2157	961.4759	975.8057	1017.596	1069.3875	1114.4447	1158.7511	1172.4886	1192.4891	1201.365	1237.0216	1277.5014	1325.1819	1349.5933	1374.7444	1398.4774	1400.1013	1415.5677	1437.8097	1480.6184	1489.3178	1490.3615	1503.8957	1512.1804	1521.5329	1845.4699	2898.3455	2945.1335	2958.7827	2978.3199	2984.914	3021.4333	3025.9821	3032.0062	3090.0091	3095.9072	3105.6661	3126.3994
CC(C)COCC=O	CC(C)COCC=O	
InChI=1S/C6H12O2/c1-6(2)5-8-4-3-7/h3,6H,4-5H2,1-2H3	InChI=1S/C6H12O2/c1-6(2)5-8-4-3-7/h3,6H,4-5H2,1-2H3
