18
gdb 42360	2.43984	1.29078	0.93132	3.7561	79.1	-0.2374	0.0221	0.2595	1271.1187	0.146299	-401.928333	-401.918877	-401.917933	-401.964142	33.133	
O	-0.649345797	-0.0003094349	 1.5091051021	-0.370029
C	-0.2410592312	 0.9660354035	 0.8906125715	 0.363691
C	 1.2064580089	 1.4801508984	 1.0407542439	-0.440674
C	 1.9692107273	 1.4819219571	-0.2003994222	 0.300455
C	 2.5923626175	 1.4719805781	-1.2284611368	-0.459353
N	-1.0274372513	 1.6728572819	 0.0495177786	-0.055763
C	-0.8879056129	 2.892173113	-0.7560417795	-0.173058
C	-2.3889131179	 2.748567404	-1.1416882289	-0.243631
C	-2.4443095895	 1.471728793	-0.2516651343	-0.15915
H	 1.1807032006	 2.4935029182	 1.4634460398	 0.141466
H	 1.6776346317	 0.8301334823	 1.7826064629	 0.161016
H	 3.1534776585	 1.4561923107	-2.129764261	 0.200428
H	-0.6392014303	 3.7858402047	-0.1714571047	 0.113263
H	-0.1710550973	 2.79946751	-1.5764721484	 0.13337
H	-3.0257322643	 3.5671516212	-0.806028846	 0.118467
H	-2.5656831994	 2.5705190072	-2.2024741728	 0.120566
H	-2.6519738196	 0.5321384414	-0.7732267918	 0.125245
H	-3.0895614238	 1.5305193204	 0.6307765577	 0.12369
30.6176	71.019	102.2683	125.3652	167.5196	194.6506	330.2357	355.1614	430.5912	554.2768	602.3656	619.9699	632.796	735.0719	765.1855	843.2275	882.4947	931.0667	940.889	963.5185	978.0752	1070.4883	1140.0526	1142.7561	1194.3585	1200.8855	1206.3026	1228.1317	1271.2127	1293.4618	1306.0763	1337.9123	1449.6314	1456.2168	1493.3322	1510.6564	1532.9801	1770.1838	2235.7423	3024.3682	3029.7324	3044.6535	3085.0673	3088.1477	3095.1482	3099.299	3149.6595	3505.0695
O=C(CC#C)N1CCC1	O=C(CC#C)N1CCC1	
InChI=1S/C7H9NO/c1-2-4-7(9)8-5-3-6-8/h1H,3-6H2	InChI=1S/C7H9NO/c1-2-4-7(9)8-5-3-6-8/h1H,3-6H2
