18
gdb 128209	5.12742	0.90074	0.77458	2.9111	76.87	-0.194	0.0464	0.2404	1468.7373	0.14841	-435.270895	-435.261549	-435.260604	-435.305151	33.477	
C	 0.0653222142	 1.4030327816	-0.0156454726	-0.323082
N	-0.0002368831	-0.0452714758	 0.1089558659	-0.394874
C	-1.2539075704	-0.632175434	 0.0372193906	 0.479135
C	-2.5245511567	-0.0896184069	 0.0344031424	-0.448171
C	-3.37366203	-1.2269242892	 0.0287632511	 0.474961
O	-4.7159386293	-1.1476441191	 0.0127266226	-0.269635
C	-5.4040089422	-2.3932326542	 0.0068365359	-0.230664
N	-2.7198320348	-2.3738392623	 0.0227727855	-0.338005
N	-1.4001540588	-1.9836149783	-0.0015169445	-0.318065
H	 1.1076958522	 1.7189979735	 0.0658879395	 0.12626
H	-0.3476079618	 1.781879697	-0.9628668032	 0.119779
H	-0.4924011214	 1.8622816917	 0.8058000364	 0.144044
H	 0.6909607056	-0.5208502182	-0.4552612804	 0.237495
H	-2.811005523	 0.9466662911	 0.0066812098	 0.101185
H	-6.4675477205	-2.1496252757	-0.0103630083	 0.120993
H	-5.1367260084	-2.9858757125	-0.8745023518	 0.129501
H	-5.1652931356	-2.9791894608	 0.9009402702	 0.128633
H	-0.6976301558	-2.6687541479	 0.2146700205	 0.260511
77.9618	109.5241	160.3353	173.2305	189.4977	249.7966	253.3404	285.1796	412.9997	443.5218	486.2739	570.9123	675.0661	697.8333	709.4967	750.9221	769.6604	983.06	1025.0397	1064.3134	1094.8926	1144.0094	1156.2178	1169.3134	1181.9263	1211.2777	1238.4663	1298.6818	1437.4912	1447.1727	1459.5243	1465.7255	1477.4346	1488.1581	1503.5449	1519.0265	1543.1429	1585.3805	1635.4649	2990.0746	3029.0366	3081.5163	3093.067	3126.0263	3138.5897	3287.7418	3572.4909	3681.0757
CNC1=CC(OC)=NN1	CNc1cc(OC)n[nH]1	
InChI=1S/C5H9N3O/c1-6-4-3-5(9-2)8-7-4/h3H,1-2H3,(H2,6,7,8)	InChI=1S/C5H9N3O/c1-6-4-3-5(9-2)8-7-4/h3H,1-2H3,(H2,6,7,8)
