17
gdb 6914	5.08315	1.08192	0.99992	5.2183	69.52	-0.2785	0.0307	0.3091	1188.5693	0.13968	-363.869283	-363.860349	-363.859404	-363.903273	31.611	
C	 0.0147905681	 1.5208634449	-0.1230435287	-0.457009
C	-0.0629172329	 0.0258507619	 0.100796195	 0.388026
C	-1.2099792372	-0.6634650225	-0.6085622549	-0.451561
O	 1.1915943291	-0.6819515282	 0.0273042769	-0.281385
C	 0.5243983786	-0.631888859	 1.2841548198	 0.013905
C	 1.2260242475	 0.1056713526	 2.4156317028	-0.376617
C	 2.2167561053	-0.7376127843	 3.0856641173	 0.265042
N	 2.9875831327	-1.4138735229	 3.6175833258	-0.298973
H	 0.8921422135	 1.9669250044	 0.3475146732	 0.127584
H	 0.0729584556	 1.7302826272	-1.1963511611	 0.134651
H	-0.8818385563	 2.0171932795	 0.2633885701	 0.126279
H	-1.1451557441	-0.492475468	-1.6883569892	 0.131228
H	-1.1869495546	-1.7412077367	-0.4318063118	 0.133115
H	-2.1729570941	-0.271420672	-0.2643628029	 0.123663
H	 0.087075461	-1.5814999767	 1.5978831757	 0.105285
H	 1.7260403583	 1.0016593766	 2.0404724216	 0.159968
H	 0.4868183894	 0.4267512632	 3.1598324204	 0.1568
41.5331	109.3773	145.4169	186.8779	222.8587	259.1568	356.1222	378.9088	391.1503	445.6122	476.0866	563.634	704.9508	814.4885	877.681	937.0598	949.9376	959.5559	995.935	1055.0247	1106.2118	1128.4382	1155.3104	1234.5013	1264.9457	1317.3534	1356.7048	1409.3643	1419.9477	1444.8002	1463.553	1471.905	1486.1422	1498.4398	1519.9705	2365.8544	3036.1013	3041.9744	3045.7019	3091.6395	3098.3331	3103.7873	3113.1137	3127.9584	3139.0304
CC1(C)OC1CC#N	CC1(C)O[C@H]1CC#N	
InChI=1S/C6H9NO/c1-6(2)5(8-6)3-4-7/h5H,3H2,1-2H3	InChI=1S/C6H9NO/c1-6(2)5(8-6)3-4-7/h5H,3H2,1-2H3/t5-/m0/s1
