20
gdb 83158	2.52777	1.47526	1.27059	2.4813	78.11	-0.2145	-0.0156	0.1989	1093.4923	0.171762	-403.148884	-403.140461	-403.139517	-403.182451	32.285	
C	-0.4488864344	 1.3523661409	 0.2510475385	-0.428134
C	-0.0748896542	-0.0940931723	 0.0209698134	 0.009686
C	 0.558101923	-0.585341832	-1.2409982259	-0.030752
C	 0.9312450163	 0.351853077	-2.3840028565	-0.25465
C	 2.4362685864	 0.6870330108	-2.360088313	-0.293891
C	 2.8113568512	 1.2532399572	-1.0063203847	 0.377637
O	 3.4182821633	 2.288583627	-0.8590102911	-0.313865
C	 2.4022532861	 0.3989149171	 0.1966960505	-0.257646
N	 1.3138289011	-0.5667219341	 0.0276259021	-0.117897
H	 0.205498107	 2.0591976383	-0.264884815	 0.130878
H	-1.4738369396	 1.5354303789	-0.0892883264	 0.12588
H	-0.4112606132	 1.5919695853	 1.3194704781	 0.130112
H	-0.7430268928	-0.7873956715	 0.5321349617	 0.089131
H	 0.3167838071	-1.5979685897	-1.5598067769	 0.091648
H	 0.6749750988	-0.1222690935	-3.3356597642	 0.112121
H	 0.3573235167	 1.2833730789	-2.3412310633	 0.117648
H	 3.0123462149	-0.2357489125	-2.5140795121	 0.124156
H	 2.7158706167	 1.4017956282	-3.136875831	 0.120983
H	 3.3052119334	-0.1731155292	 0.4591055658	 0.13574
H	 2.2104901823	 1.0661761552	 1.04226366	 0.131217
36.0685	126.1384	166.402	234.1995	281.7633	376.9445	418.2153	443.0156	490.5605	539.8966	548.7561	642.292	739.9689	755.7786	786.7312	833.59	880.7675	941.147	962.065	998.3229	1039.6242	1052.8195	1084.0516	1135.2598	1156.8097	1169.6536	1182.5094	1209.9012	1253.3248	1254.9705	1324.3763	1332.3468	1347.2517	1361.315	1389.2158	1418.4944	1431.3003	1458.8224	1468.3904	1486.4774	1498.7565	1509.6137	1815.6662	2998.0336	3023.7276	3035.7452	3047.7865	3083.8041	3084.0905	3092.6095	3094.8308	3112.8403	3114.3412	3123.4425
CC1C2CCC(=O)CN12	C[C@H]1[C@H]2CCC(=O)CN12	
InChI=1S/C7H11NO/c1-5-7-3-2-6(9)4-8(5)7/h5,7H,2-4H2,1H3	InChI=1S/C7H11NO/c1-5-7-3-2-6(9)4-8(5)7/h5,7H,2-4H2,1H3/t5-,7+,8?/m0/s1
