18
gdb 51003	3.45206	1.11298	0.95805	2.5748	72.02	-0.2407	-0.0367	0.204	1236.9379	0.146072	-439.03807	-439.029225	-439.02828	-439.072332	31.947	
O	-0.9802879764	 1.105319081	-0.3787147456	-0.247939
C	 0.1315522134	 0.6351186665	-0.352123203	 0.151801
C	 1.4231222844	 1.3690767507	-0.6141846278	-0.382267
C	 1.3859109891	 2.7967673583	-1.1403046069	 0.290243
C	 0.3811940791	 3.2435018619	-2.1409876338	-0.276201
N	 0.3220970379	 3.7334221917	-0.7514487738	-0.349056
C	 2.7674770663	 3.3890653036	-1.203688539	 0.011516
C	 3.0553115274	 4.752146511	-0.750591755	-0.164532
O	 3.4060018834	 3.6219966293	 0.0571083712	-0.248813
H	 0.2795442431	-0.4379796928	-0.0953380697	 0.094753
H	 1.9738595786	 1.3567059756	 0.3405868782	 0.160663
H	 2.0243907367	 0.7324465953	-1.2804840197	 0.131004
H	 0.6631630831	 3.9888189787	-2.8801359937	 0.114217
H	-0.3773237798	 2.5373513885	-2.4629878607	 0.125094
H	-0.4135388531	 3.2193068159	-0.2731324958	 0.250031
H	 3.424558505	 2.9376994708	-1.9507896198	 0.089312
H	 3.8974246877	 5.2924851413	-1.1810655342	 0.108706
H	 2.231801044	 5.3517551928	-0.3741264408	 0.141467
62.715	76.9197	137.4776	179.2787	215.2625	267.2569	313.5209	359.1801	469.499	505.7853	667.5872	710.9624	789.0475	824.8815	867.5925	889.5644	902.9697	940.8919	990.4096	1002.783	1022.9692	1073.5416	1099.4351	1121.0018	1140.0896	1158.4483	1178.5267	1242.8737	1282.7414	1288.5897	1300.5468	1362.862	1391.3573	1430.3129	1440.1539	1452.5563	1504.5307	1519.1881	1818.6954	2881.7933	2997.6919	3024.2661	3081.0451	3095.6164	3113.8445	3201.8189	3205.1739	3514.9796
O=CCC1(CN1)C1CO1	O=CC[C@]1(CN1)[C@H]1CO1	
InChI=1S/C6H9NO2/c8-2-1-6(4-7-6)5-3-9-5/h2,5,7H,1,3-4H2	InChI=1S/C6H9NO2/c8-2-1-6(4-7-6)5-3-9-5/h2,5,7H,1,3-4H2/t5-,6+/m1/s1
