16
gdb 62503	1.87995	1.59315	1.12506	6.4963	75.47	-0.2645	-0.0086	0.2559	1127.9871	0.123473	-396.938789	-396.92954	-396.928596	-396.97263	33.559	
C	-0.0771248371	 1.5569396681	-0.0030915342	-0.441272
C	 0.0092864629	 0.0479472084	 0.0057893368	 0.284205
N	-1.1894841851	-0.5793330736	-0.4689250972	-0.545065
C	 1.3770563647	-0.6157558772	-0.2483630432	-0.25209
C	 2.5605745916	 0.1559373344	-0.4844744633	 0.312151
N	 3.505241623	 0.7871146351	-0.7039673076	-0.331757
C	 0.715626894	-0.6531583351	 1.1450392687	-0.230563
C	 1.269622525	 0.083141775	 2.2456406489	 0.320222
N	 1.7010378262	 0.6749004335	 3.1404428057	-0.327564
H	 0.8284990371	 2.0204315461	 0.3903366745	 0.165002
H	-0.2217547483	 1.9171136287	-1.0272125068	 0.13045
H	-0.9304874776	 1.8775107614	 0.5995742296	 0.149636
H	-1.4017178969	-0.2734593176	-1.4139241182	 0.245025
H	-1.1206214356	-1.5914478992	-0.4818456135	 0.237904
H	 1.3546269093	-1.5641250495	-0.775845865	 0.138089
H	 0.3228314668	-1.6251847486	 1.4284071748	 0.145627
94.6862	126.8118	154.3356	173.0189	202.4141	255.3162	316.5388	369.8081	393.7656	397.5448	468.7624	555.6545	566.7552	658.3885	715.6	793.3826	806.0406	843.39	944.1836	1015.657	1021.7973	1068.2339	1079.075	1108.2039	1172.7967	1255.6207	1343.5945	1372.2586	1416.3101	1431.0915	1481.9934	1501.6898	1660.0595	2351.2039	2360.3761	3048.4857	3117.701	3151.2108	3155.6411	3166.2641	3498.7613	3583.7628
CC1(N)C(C#N)C1C#N	C[C@@]1(N)[C@@H](C#N)[C@H]1C#N	
InChI=1S/C6H7N3/c1-6(9)4(2-7)5(6)3-8/h4-5H,9H2,1H3	InChI=1S/C6H7N3/c1-6(9)4(2-7)5(6)3-8/h4-5H,9H2,1H3/t4-,5+,6+
