19
gdb 68295	2.78598	1.53252	1.41765	1.7743	75.51	-0.234	0.0776	0.3116	1020.8915	0.159463	-422.960119	-422.952245	-422.951301	-422.99237	31.132	
O	-0.2826148116	 1.2971578067	-0.0735023438	-0.475244
C	-0.0216633362	-0.0564546268	-0.0340490507	 0.32158
C	 0.6733218447	-0.9686675623	-1.099407276	-0.304989
C	 0.2011563405	-1.9233917402	 0.0402447561	-0.138643
C	 0.7265914391	-0.8789950897	 1.0651435911	-0.299372
C	-1.1275641947	-1.1275672311	 0.0432470298	 0.506635
C	-2.255421145	-1.1829049596	 1.0869956579	-0.391111
C	-3.1768039024	-1.3094483683	-0.1408604467	-0.084569
O	-2.0503655488	-1.2782560496	-1.0432185343	-0.337844
H	 0.5505783281	 1.7723465519	-0.1602832388	 0.28451
H	 0.1706758959	-1.0662108422	-2.0614052204	 0.122718
H	 1.7557967965	-0.8514518526	-1.2042472039	 0.083034
H	 0.3237232286	-3.0026856101	 0.0830704457	 0.081477
H	 1.8119457393	-0.7563571928	 1.0983864459	 0.089977
H	 0.2898660381	-0.8908483592	 2.066786195	 0.097126
H	-2.2373620353	-2.0500807682	 1.7498478149	 0.111896
H	-2.3811217216	-0.2745467009	 1.67853988	 0.12307
H	-3.7374998109	-2.2473717137	-0.2258764159	 0.101797
H	-3.8561210242	-0.4667755611	-0.3121787561	 0.107951
84.5231	189.5956	221.001	229.8123	248.2838	386.6223	436.6727	474.2875	572.246	618.3608	667.6595	743.7196	803.797	818.941	869.1209	916.2541	945.7244	950.3994	973.0406	987.5037	1023.3021	1040.6901	1042.5279	1107.0909	1118.2451	1128.0726	1139.3249	1167.204	1175.5983	1205.7339	1208.0168	1225.139	1239.3525	1281.0344	1301.2936	1353.7768	1406.6889	1485.1671	1490.744	1530.0344	1538.1733	3024.8432	3056.097	3060.1717	3066.7433	3077.1459	3123.1825	3132.5411	3147.8068	3151.8896	3810.8906
OC12CC(C1)C21CCO1	O[C@@]12C[C@@H](C1)[C@]12CCO1	
InChI=1S/C7H10O2/c8-6-3-5(4-6)7(6)1-2-9-7/h5,8H,1-4H2	InChI=1S/C7H10O2/c8-6-3-5(4-6)7(6)1-2-9-7/h5,8H,1-4H2/t5-,6-,7-/m0/s1
