18
gdb 97194	2.68199	1.35714	0.92824	2.1288	77.97	-0.2243	-0.0062	0.2181	1243.7194	0.149858	-435.324452	-435.315858	-435.314914	-435.357996	31.719	
C	 0.043094453	 1.4078231384	 0.1693933434	-0.341962
N	 0.0485221529	-0.0372917267	 0.055309945	-0.331151
C	-1.0585281605	-0.6562106791	-0.0636126607	 0.463264
N	-1.0964528435	-2.0389137971	-0.0703050491	-0.343395
C	-2.1863406522	-2.71595529	-0.7579636904	-0.187984
C	-3.5089759811	-2.1874760315	-0.2036850602	-0.30158
C	-3.5595418031	-0.6702844454	-0.2325473042	 0.400383
O	-4.5797533127	-0.0217102851	-0.298136084	-0.350909
N	-2.3204626771	-0.052532867	-0.163211964	-0.382678
H	 1.0642010915	 1.7544777248	 0.3474579672	 0.128392
H	-0.3079362336	 1.9076968837	-0.7481451798	 0.110626
H	-0.5730140457	 1.7766701039	 1.005552258	 0.110663
H	-0.1698149392	-2.4234734964	-0.1844970653	 0.251716
H	-2.1520567927	-2.5660781359	-1.8495397895	 0.110807
H	-2.0972594983	-3.7893066848	-0.572542842	 0.121147
H	-4.3693263702	-2.5627074997	-0.7607649146	 0.137081
H	-3.6232452598	-2.4995982601	 0.8413141857	 0.144026
H	-2.3539064076	 0.9564534283	-0.1616338656	 0.261554
96.4589	104.9171	133.1612	205.3578	214.9154	277.8644	413.3676	454.4048	491.9679	544.7243	575.9226	601.3044	677.9281	707.4686	729.1181	799.9467	928.8686	952.4352	1001.4483	1050.8458	1080.6948	1113.7777	1131.2853	1166.6237	1202.9653	1243.0564	1297.0879	1346.9133	1384.4524	1411.8704	1429.0207	1447.7519	1454.3064	1473.3675	1502.0718	1511.2521	1520.7854	1756.3102	1813.3778	2958.3362	2969.4267	3001.9664	3050.0324	3091.083	3096.9341	3125.1479	3613.197	3624.3681
CN=C1NCCC(=O)N1	CN=C1NCCC(=O)N1	
InChI=1S/C5H9N3O/c1-6-5-7-3-2-4(9)8-5/h2-3H2,1H3,(H2,6,7,8,9)	InChI=1S/C5H9N3O/c1-6-5-7-3-2-4(9)8-5/h2-3H2,1H3,(H2,6,7,8,9)
