17
gdb 36009	3.18222	1.04152	0.85782	3.014	77.87	-0.2616	0.019	0.2805	1335.5867	0.134928	-380.818418	-380.809173	-380.808229	-380.85313	33.16	
C	-0.1773817571	-1.1682135485	-0.0969288703	-0.413544
C	-0.1021337164	 0.0303441931	-0.0765968092	 0.290195
C	 0.0239339594	 1.4795933849	-0.0397873142	-0.3609
C	 1.501210455	 1.9663838348	 0.049087128	-0.172855
C	 2.2551369058	 1.5550957502	-1.1380330016	 0.285042
N	 2.8465384921	 1.2781135856	-2.0916917207	-0.329708
C	 1.5600237528	 3.480640018	 0.2492993405	 0.012072
C	 2.7288194168	 4.2947210333	-0.1564019658	-0.259916
N	 1.4442429941	 4.4181753245	-0.8725384215	-0.3172
H	-0.2540039086	-2.2271326563	-0.1269177937	 0.205821
H	-0.4462372522	 1.9274311009	-0.9225462041	 0.155068
H	-0.5059864682	 1.880114414	 0.8324318559	 0.14407
H	 1.9612397746	 1.4807304436	 0.9186559453	 0.145616
H	 0.9995397125	 3.7896869536	 1.1299748954	 0.105178
H	 3.0105196908	 5.1602910646	 0.4355455902	 0.126007
H	 3.5505262447	 3.7934291358	-0.6596583221	 0.139748
H	 1.507499364	 3.918605468	-1.7583456321	 0.245308
61.1489	74.5689	119.1701	158.2617	204.4888	239.2883	339.161	369.4728	415.1654	464.9605	583.6168	634.6083	639.0183	662.9848	782.7857	823.0315	854.9161	933.3867	955.5174	983.0869	1001.1148	1035.767	1079.8964	1129.5017	1149.3338	1188.6996	1210.4856	1263.9233	1278.1841	1311.74	1345.0755	1350.5709	1411.6012	1470.6485	1512.7542	2245.5951	2356.717	3035.3401	3041.1827	3076.568	3117.5785	3122.4626	3206.7304	3481.3332	3505.1977
C#CCC(C#N)C1CN1	C#CC[C@@H](C#N)[C@H]1CN1	
InChI=1S/C7H8N2/c1-2-3-6(4-8)7-5-9-7/h1,6-7,9H,3,5H2	InChI=1S/C7H8N2/c1-2-3-6(4-8)7-5-9-7/h1,6-7,9H,3,5H2/t6-,7+/m0/s1
