18
gdb 8655	2.56217	1.64969	1.39604	2.2001	74.47	-0.2502	-0.0314	0.2188	1007.7732	0.149818	-347.784994	-347.775414	-347.77447	-347.818841	34.552	
C	-0.219606202	 1.591937068	 0.0883680374	-0.41117
C	-0.0031982954	 0.076488192	 0.0205484572	-0.187753
C	 0.6909735835	-0.4425039117	-1.2648732197	-0.022242
C	 0.0057290483	 0.0371960506	-2.5683824295	-0.428467
C	 2.170676427	-0.0124616352	-1.3249068012	 0.157913
O	 2.7472680868	 0.6043162022	-0.4709209056	-0.24634
C	 0.7313857788	-1.9077988369	-1.2534318876	 0.321991
C	 0.801272989	-3.1084764803	-1.2450275047	-0.472305
H	 0.7248180595	 2.1331534021	-0.0012732356	 0.140647
H	-0.9007133568	 1.9470663529	-0.6909418325	 0.114097
H	-0.6650718809	 1.8562902867	 1.0522499767	 0.117134
H	 0.6043215732	-0.2419890985	 0.8727042557	 0.122004
H	-0.9646940254	-0.4407804596	 0.108220837	 0.104631
H	 0.0230405408	 1.1274855959	-2.6415760107	 0.131405
H	 0.5110133456	-0.3775791115	-3.4450954589	 0.130335
H	-1.0342487258	-0.298932726	-2.5890284088	 0.135746
H	 2.6861424128	-0.3424043908	-2.2544625805	 0.090119
H	 0.848096491	-4.1695492898	-1.2320496388	 0.202255
84.3882	116.6133	147.4233	176.8608	205.3981	221.9137	292.9561	299.7337	334.8143	416.0323	491.9327	517.7215	584.9856	629.3418	647.2605	727.7294	784.4404	896.9021	921.0987	965.6115	1021.0339	1038.514	1078.3192	1174.1586	1194.6267	1221.645	1321.5658	1366.5801	1397.7242	1408.8358	1424.4884	1478.037	1490.7693	1495.9796	1508.4498	1511.2422	1834.3109	2225.0881	2884.8331	3044.6339	3047.3217	3049.2013	3089.4001	3108.5691	3120.9263	3128.6596	3134.1183	3500.2373
CCC(C)(C=O)C#C	CC[C@@](C)(C=O)C#C	
InChI=1S/C7H10O/c1-4-7(3,5-2)6-8/h1,6H,5H2,2-3H3	InChI=1S/C7H10O/c1-4-7(3,5-2)6-8/h1,6H,5H2,2-3H3/t7-/m0/s1
