17
gdb 70235	4.0426	1.09095	0.95141	5.5547	81.76	-0.2504	-0.0454	0.205	1234.7468	0.137046	-380.879191	-380.871229	-380.870285	-380.911547	30.572	
C	-0.0612726084	 1.5627522563	 0.0577986077	-0.498101
C	 0.0984458692	 0.0668062534	-0.0044192941	 0.304909
N	-0.7607051027	-0.8228577845	 0.835256302	-0.359158
C	 0.697822392	-0.7878668829	 1.0643658883	-0.104421
C	 1.4402971139	-1.9475702366	 0.4150174354	-0.314871
C	 1.1596934957	-1.7278543183	-1.0680838786	 0.185659
C	 0.447366058	-0.6117199559	-1.2888308382	-0.192108
C	 1.6040568	-2.6356281284	-2.0661867965	 0.20924
N	 1.9897684899	-3.3895584918	-2.8571424238	-0.337137
H	 0.8137239824	 2.0717994917	-0.3596347311	 0.134533
H	-0.9404327125	 1.889284368	-0.509006232	 0.134145
H	-0.1843861423	 1.8996622207	 1.0919596015	 0.121716
H	-1.2113083461	-0.2494739134	 1.5478920039	 0.229148
H	 1.0737393122	-0.3565997257	 1.9860774618	 0.096091
H	 2.5160974318	-1.9177295113	 0.6229612056	 0.125645
H	 1.0648566686	-2.9182758813	 0.755120526	 0.141371
H	 0.1412011185	-0.2510880603	-2.2631878579	 0.123339
112.9517	149.5921	199.3272	234.8464	299.7792	339.7224	420.5822	484.4587	533.105	558.8704	572.7519	625.425	736.7119	808.1885	884.4896	898.196	918.6477	932.5843	945.5247	1011.8437	1052.936	1067.6363	1124.7292	1145.713	1153.1556	1191.6325	1255.405	1305.2344	1328.0547	1363.3879	1413.2635	1428.2763	1465.6902	1484.7619	1500.2357	1663.2245	2335.5366	3030.0912	3042.684	3085.1068	3094.4862	3105.3349	3168.6431	3213.6252	3469.5964
CC12NC1CC(=C2)C#N	C[C@]12N[C@H]1CC(=C2)C#N	
InChI=1S/C7H8N2/c1-7-3-5(4-8)2-6(7)9-7/h3,6,9H,2H2,1H3	InChI=1S/C7H8N2/c1-7-3-5(4-8)2-6(7)9-7/h3,6,9H,2H2,1H3/t6-,7+/m0/s1
