17
gdb 49479	3.05305	1.53142	1.20854	5.5231	76.41	-0.2386	-0.0111	0.2276	1043.0219	0.138137	-418.013828	-418.006411	-418.005467	-418.046182	28.347	
N	 0.0274409724	 1.2974790959	-0.0352349814	-0.429066
C	-0.0489322371	 0.0301079955	-0.0143724712	 0.070305
N	-1.2392712183	-0.6664317528	 0.0487676155	-0.074932
C	-1.3619159972	-2.1413089267	 0.0745686331	-0.007431
C	-2.5133647814	-2.3720203734	-0.9413171587	-0.230633
C	-3.3102245157	-1.5834267399	 0.1549435954	-0.155149
C	-2.4168007551	-2.3426849346	 1.1960791184	-0.23064
C	-2.5833515804	-0.2281945092	 0.1035150699	 0.43279
O	-3.0181755714	 0.8877803331	 0.1078560508	-0.342005
H	 1.0045312935	 1.5805094478	-0.0831179641	 0.226159
H	 0.8058556851	-0.6596102355	-0.0433505522	 0.08884
H	-0.4015281974	-2.6531092465	 0.0382044523	 0.089288
H	-2.4088254311	-1.9216619867	-1.9306035853	 0.118809
H	-2.8246578158	-3.4159858972	-1.0138523938	 0.113251
H	-4.3946270787	-1.5362800868	 0.2032791379	 0.098356
H	-2.718973452	-3.3838919927	 1.3249715548	 0.11325
H	-2.2240439595	-1.8655388502	 2.1592084386	 0.118807
63.4914	150.6287	196.5873	202.9679	439.1213	440.9347	481.4936	530.7049	673.2862	719.3744	747.8473	805.7658	834.7987	853.409	860.848	886.9863	980.9685	999.6814	1022.0074	1044.3702	1056.1031	1062.9122	1104.1773	1135.4975	1163.0226	1213.2657	1221.9224	1242.1963	1246.135	1282.5623	1295.0694	1418.5654	1434.363	1479.7545	1515.6087	1714.0234	1882.0132	3017.223	3068.0041	3072.6343	3133.4951	3135.5104	3139.2699	3163.5291	3503.0396
N=CN1C2CC(C2)C1=O	[NH][CH]N1[C@@H]2C[C@@H](C2)C1=O	
InChI=1S/C6H8N2O/c7-3-8-5-1-4(2-5)6(8)9/h3-5,7H,1-2H2	InChI=1S/C6H8N2O/c7-3-8-5-1-4(2-5)6(8)9/h3-5,7H,1-2H2/t4-,5+
