18
gdb 106251	2.51712	1.36122	1.10357	3.015	74.41	-0.2504	0.0146	0.265	1171.6152	0.146345	-439.058297	-439.049512	-439.048568	-439.091845	33.084	
C	-0.0665603263	 1.5046171599	-0.1571490915	-0.381783
C	-0.0553986677	 0.005577823	 0.174131731	-0.294769
C	-1.3960115162	-0.6293070329	-0.0045963303	 0.390484
O	-2.4695924886	-0.1858570886	 0.8920769675	-0.327023
C	-2.8553641756	-1.522619594	 1.0954945138	 0.443941
N	-3.6782484289	-2.0001844377	 1.9085118526	-0.553422
C	-1.9206973943	-2.0710046219	 0.0817288516	-0.332478
C	-2.0541766808	-1.2126918442	-1.197878605	 0.087589
O	-3.2486337564	-0.7555516711	-1.7236275636	-0.42483
H	 0.9234770311	 1.9414846354	-0.0001578266	 0.120108
H	-0.3535333263	 1.676509893	-1.1991895048	 0.126969
H	-0.7778542974	 2.0358520461	 0.4815399567	 0.137972
H	 0.6570641719	-0.5214808345	-0.4712193837	 0.113123
H	 0.2762110457	-0.150232575	 1.2077197007	 0.118007
H	-4.1112302438	-1.2684527686	 2.4741090276	 0.231023
H	-1.4202265527	-3.0281625696	 0.1112523084	 0.121211
H	-1.3841727435	-1.5489262189	-1.9847183511	 0.123564
H	-3.6559726602	-0.1903099503	-1.0542327933	 0.300316
78.799	119.9268	146.3979	196.3956	248.6945	306.5604	357.9152	398.954	443.0783	451.0769	571.3039	682.8512	714.1208	735.0169	780.6062	832.801	867.6981	900.1949	926.7333	958.4452	979.0696	988.3387	1001.5851	1077.2963	1106.2577	1147.9926	1173.3819	1184.6555	1252.7926	1306.7182	1317.3758	1350.5958	1392.6348	1410.8386	1472.0693	1490.3805	1498.3328	1510.4722	1833.6509	3032.8148	3043.7955	3070.5898	3115.976	3121.7799	3160.3148	3225.5587	3481.9602	3773.3438
CCC12OC(=N)C1C2O	CC[C@]12O[C]([NH])[C@H]1[C@H]2O	
InChI=1S/C6H9NO2/c1-2-6-3(4(6)8)5(7)9-6/h3-4,7-8H,2H2,1H3	InChI=1S/C6H9NO2/c1-2-6-3(4(6)8)5(7)9-6/h3-4,7-8H,2H2,1H3/t3-,4-,6+/m1/s1
