18
gdb 23323	3.4521	1.28394	1.20384	1.2129	74.51	-0.2408	0.0107	0.2515	1080.2634	0.149686	-439.056035	-439.048727	-439.047783	-439.087725	29.397	
O	-0.1388423788	 1.3377590931	 0.01073265	-0.394217
N	 0.0103200182	-0.0634892143	-0.011702373	-0.270431
C	-1.1208798672	-0.6396460638	-0.0014733387	 0.455548
C	-2.5212504305	-0.0457166728	 0.0509745349	-0.306773
C	-3.3617880416	-1.3402017235	 0.0498163365	 0.092459
C	-2.5185083853	-2.2916666656	 0.9147536923	-0.24138
C	-1.2853741168	-2.1433727189	-0.0142689358	-0.137527
C	-1.9551958871	-2.4956033679	-1.3625503886	-0.079194
O	-3.2741275718	-1.9268763777	-1.2592321179	-0.280215
H	 0.7762029681	 1.6381947992	 0.0160121767	 0.305808
H	-2.6605736923	 0.5541737706	 0.9576911612	 0.123111
H	-2.7360645712	 0.5932881367	-0.8093429052	 0.134249
H	-4.4154323392	-1.2206988135	 0.3007110877	 0.080438
H	-2.3428032701	-1.9279818892	 1.9297603033	 0.108936
H	-2.9216761083	-3.3065291507	 0.9439984137	 0.10923
H	-0.3854282646	-2.7110170756	 0.2138516483	 0.087369
H	-1.430022109	-2.0666268636	-2.2225341715	 0.112623
H	-2.0316405524	-3.5821871224	-1.5018376138	 0.099967
99.7633	207.5411	236.4161	334.6939	385.9193	404.1777	447.5658	513.6657	570.0279	611.9993	742.0493	799.3664	817.4096	862.1281	887.962	926.8724	942.3661	955.305	973.2768	979.1855	993.0413	1038.0642	1076.4649	1114.2076	1166.0768	1170.8259	1200.5497	1218.3118	1258.0937	1279.0252	1291.0401	1316.5711	1331.9482	1379.658	1407.5859	1452.5199	1491.1845	1530.574	1771.3445	3011.617	3048.2516	3067.7849	3070.324	3104.523	3125.4167	3128.2777	3144.8088	3818.5824
ON=C1CC2CC1CO2	ON=C1C[C@@H]2C[C@H]1CO2	
InChI=1S/C6H9NO2/c8-7-6-2-5-1-4(6)3-9-5/h4-5,8H,1-3H2	InChI=1S/C6H9NO2/c8-7-6-2-5-1-4(6)3-9-5/h4-5,8H,1-3H2/t4-,5-/m0/s1
