17
gdb 38554	2.78556	2.29428	1.67465	0.5428	75.12	-0.2146	-0.0099	0.2047	838.3599	0.139136	-380.782268	-380.776116	-380.775172	-380.812322	26.414	
C	 0.0027135669	 1.4845000818	 0.1201662893	-0.189069
C	 1.4588074373	 1.9484914293	-0.0226072969	-0.032522
N	 2.377031488	 1.8930768014	-1.1869569534	-0.421128
C	 2.2501134399	 0.721711324	-0.330217468	 0.259415
C	 2.9901282714	 0.215008856	 0.8769333418	-0.173876
C	 2.1411588332	-0.6187011633	 1.4967452934	-0.10227
C	 0.9493225662	-0.9456793327	 0.6214816261	-0.061473
C	 1.2292979199	-0.35599079	-0.7006577994	-0.126111
N	-0.0292630566	 0.0189387136	-0.0730339079	-0.128062
H	-0.3591836089	 1.7652258755	 1.115110168	 0.117611
H	-0.6928168904	 1.9200251255	-0.6098152409	 0.111286
H	 1.8271418001	 2.6324223838	 0.7356777452	 0.103117
H	 1.8932843492	 1.7114805456	-2.0659922343	 0.235714
H	 3.905354662	 0.6371382114	 1.2730721584	 0.114736
H	 2.2787778076	-1.0593427473	 2.4755899612	 0.103786
H	 0.4739898122	-1.9132179424	 0.7363782121	 0.102365
H	 1.2474843321	-0.862737742	-1.6639381848	 0.086482
203.7198	297.2249	351.9922	419.2192	515.6562	556.4996	637.9392	659.7341	707.8083	728.0462	776.9934	819.0408	836.5102	854.794	905.4499	916.9151	943.6653	963.1333	999.3897	1018.3667	1051.6156	1057.4909	1085.6718	1114.4354	1130.2084	1158.3777	1234.5859	1250.7657	1270.4713	1294.1377	1307.7221	1334.2691	1342.787	1368.6302	1419.9369	1491.4829	1615.7845	3014.7488	3071.7551	3118.3221	3156.0268	3176.3485	3204.1093	3228.3311	3463.4408
C1C2NC22C=CC3C2N13	C1[C@@H]2N[C@]32C=C[C@@H]2[C@H]3N12	
InChI=1S/C7H8N2/c1-2-7-5(8-7)3-9-4(1)6(7)9/h1-2,4-6,8H,3H2	InChI=1S/C7H8N2/c1-2-7-5(8-7)3-9-4(1)6(7)9/h1-2,4-6,8H,3H2/t4-,5+,6-,7+,9?/m1/s1
