19
gdb 36181	3.79682	1.12007	1.10347	0.8232	84.14	-0.245	0.0556	0.3006	1187.054	0.159286	-348.669784	-348.661903	-348.660958	-348.702378	31.424	
C	-0.1223793599	-1.1421345416	-0.3553977073	-0.457225
C	-0.0434802486	 0.0277257694	-0.0914695261	 0.315723
C	 0.0809320262	 1.4472244762	 0.2356817468	-0.48673
C	 1.4984930956	 1.9541741811	 0.1294885869	 0.376042
C	 2.6775118509	 1.6109373992	 1.0384836372	-0.27707
C	 3.3939556545	 2.8266762774	 0.3892482335	-0.065853
C	 3.6107563796	 2.3871821429	-1.0854766281	-0.229253
C	 2.0899872577	 2.4341382539	-1.2077777196	-0.094923
C	 1.969642826	 3.3807269897	-0.0323738582	-0.146304
H	-0.2002285847	-2.174377628	-0.5908480123	 0.193898
H	-0.5677354734	 2.0338034854	-0.4288681168	 0.128547
H	-0.2976067179	 1.6172506917	 1.2530467566	 0.129348
H	 2.4289659838	 1.7974412661	 2.0881077786	 0.092896
H	 3.154917133	 0.6290823315	 0.9410429911	 0.093504
H	 4.1620186945	 3.3753923655	 0.9299803004	 0.06957
H	 4.0795848562	 3.176625484	-1.679920471	 0.097665
H	 4.1305513904	 1.4374393701	-1.2580715693	 0.08961
H	 1.4869913779	 2.4170973119	-2.107334786	 0.084
H	 1.4667883282	 4.3297802938	 0.0877606836	 0.086555
65.939	98.2865	259.6684	281.676	346.3186	417.7737	430.7191	449.7679	616.6289	634.2107	677.1412	719.3691	755.7436	803.2257	824.801	871.3904	894.6135	937.5863	938.1164	960.1881	969.1727	996.2646	1006.7246	1024.8834	1076.8651	1102.2746	1128.8573	1144.5945	1170.5436	1188.6236	1217.2235	1250.6107	1264.5338	1279.659	1329.5506	1332.4173	1413.4452	1463.7098	1492.5191	1508.3446	2238.2449	3007.4925	3027.6723	3033.6932	3037.8455	3086.7049	3092.22	3137.1317	3189.3625	3216.8077	3507.3725
C#CCC12CC3CC1C23	C#CC[C@@]12C[C@H]3C[C@@H]1[C@@H]23	
InChI=1S/C9H10/c1-2-3-9-5-6-4-7(9)8(6)9/h1,6-8H,3-5H2	InChI=1S/C9H10/c1-2-3-9-5-6-4-7(9)8(6)9/h1,6-8H,3-5H2/t6-,7-,8+,9-/m1/s1
