20
gdb 107808	3.3393	1.47996	1.28353	1.5404	82.15	-0.2114	0.006	0.2174	1066.2873	0.17221	-365.979394	-365.971708	-365.970764	-366.011322	31.112	
C	 0.0498253041	 1.5253952026	-0.1673939936	-0.393326
C	-0.0432775467	 0.0095881482	 0.038907519	-0.274713
C	 0.6662273417	-0.4800295442	 1.2843723363	 0.300787
C	 2.2350345348	-0.3877161248	 1.3437223602	-0.278193
C	 2.2007368971	-1.8262032589	 1.8210049435	-0.052154
C	 1.1008067112	-2.1234021104	 2.8106686357	-0.075559
C	 0.4483607919	-0.9965719822	 3.5286618809	-0.084008
C	 0.137678071	-0.0548027108	 2.6375103842	-0.133736
N	 0.778606662	-2.020641427	 1.3700295779	-0.168909
H	 1.0921831784	 1.8575137385	-0.2240020856	 0.119674
H	-0.4432236397	 1.8215408055	-1.0978420351	 0.117509
H	-0.4295118134	 2.0767333751	 0.6481689849	 0.117754
H	-1.0938965947	-0.3015058709	 0.0924542225	 0.105519
H	 0.3870973379	-0.5112219958	-0.8246256929	 0.103182
H	 2.656258625	-0.3385493567	 0.3358629483	 0.11029
H	 2.6922053285	 0.3814054113	 1.973024838	 0.097104
H	 2.9682791566	-2.5676733123	 1.6169591443	 0.091019
H	 1.0775659113	-3.1297503409	 3.2183476567	 0.090774
H	 0.2950706457	-0.9686830453	 4.5995987623	 0.104054
H	-0.2835842629	 0.921522479	 2.8410078225	 0.102932
93.4507	174.0397	196.2653	289.8902	352.489	382.4593	412.4505	546.9607	619.3666	707.4272	733.7271	762.3691	771.7185	788.2933	805.4453	828.993	908.8045	918.6527	941.8927	972.1694	986.6107	1003.0306	1027.0364	1050.1174	1074.3537	1094.6763	1118.0844	1145.6318	1161.2088	1202.4474	1247.2024	1263.5862	1292.8445	1338.1676	1361.5308	1371.2309	1377.0859	1412.388	1478.4317	1489.6646	1500.035	1508.1554	1657.7863	3029.0578	3034.7879	3048.1264	3062.4589	3100.5425	3104.4408	3107.4599	3144.5202	3158.3123	3204.2093	3229.5316
CCC12CC3C(C=C1)N23	CC[C@@]12C[C@H]3[C@@H](C=C1)N23	
InChI=1S/C8H11N/c1-2-8-4-3-6-7(5-8)9(6)8/h3-4,6-7H,2,5H2,1H3	InChI=1S/C8H11N/c1-2-8-4-3-6-7(5-8)9(6)8/h3-4,6-7H,2,5H2,1H3/t6-,7+,8+,9?/m1/s1
