25
gdb 115337	3.14581	1.02698	0.88101	1.3656	88.64	-0.2589	0.0645	0.3235	1467.0001	0.229093	-389.51664	-389.50626	-389.505316	-389.55196	39.084	
C	-0.2958988667	 1.6575927662	-0.2557805232	-0.386715
C	-0.1316555015	 0.1536034248	-0.0146213171	-0.191116
C	 0.7340734023	-0.5406918671	-1.069866759	 0.049605
C	 2.2133632484	-0.0674617567	-1.131141724	-0.2172
C	 3.0449192238	-1.309323518	-1.5561141066	-0.21417
C	 2.0172817384	-2.4294812912	-1.8413272801	 0.035599
C	 2.5617408493	-3.8474221235	-1.6781357012	-0.436515
C	 0.8399689015	-2.0656780594	-0.9142278408	 0.082335
O	 1.1325061533	-2.3445041244	 0.4542323117	-0.440852
H	 0.6682281544	 2.1764209333	-0.2323747685	 0.116578
H	-0.7538452839	 1.8572929644	-1.2317088746	 0.10733
H	-0.933656555	 2.1126118245	 0.5087086805	 0.108527
H	 0.3066383965	-0.023507647	 0.9729125314	 0.112497
H	-1.1218821216	-0.3203244327	 0.0025614654	 0.08525
H	 0.2771719748	-0.3690884828	-2.0547971531	 0.062916
H	 2.3359793791	 0.7672369146	-1.8266225879	 0.093404
H	 2.5355019086	 0.2916574059	-0.1486546191	 0.103267
H	 3.6832496278	-1.1159748057	-2.4231351692	 0.089655
H	 3.7039217741	-1.6198034563	-0.7392782731	 0.101597
H	 1.6472893662	-2.3169894975	-2.870045515	 0.067542
H	 2.9326409242	-4.0118093158	-0.6599087451	 0.112029
H	 1.7977395461	-4.6040354143	-1.8927739285	 0.107335
H	 3.4007321972	-4.0272851479	-2.3580429721	 0.118489
H	-0.0917833142	-2.5712939857	-1.2117275417	 0.04874
H	 1.1862395269	-3.2987680775	 0.5591584407	 0.283874
61.7356	88.6678	119.1672	163.5428	225.5309	232.6595	260.6955	294.4125	306.3291	322.8094	385.5104	463.5535	537.6026	616.2702	684.9951	776.3083	814.2788	834.924	859.9011	909.8723	943.7387	946.5684	978.8189	1001.1572	1026.5602	1044.4096	1052.7898	1100.442	1128.2378	1154.3867	1183.6493	1199.6819	1220.5777	1256.685	1283.4373	1292.7936	1303.8853	1316.9589	1328.8498	1347.5225	1360.4985	1383.1794	1393.894	1403.9076	1410.6174	1424.0525	1483.6936	1488.4912	1498.5025	1500.1558	1506.8969	1507.5756	1509.8872	2977.2736	2998.0052	3012.122	3021.7769	3022.5121	3027.3237	3044.0558	3055.8701	3071.6608	3077.7834	3086.3729	3095.1496	3096.5689	3100.3898	3101.4084	3830.6999
CCC1CCC(C)C1O	CC[C@H]1CC[C@@H](C)[C@H]1O	
InChI=1S/C8H16O/c1-3-7-5-4-6(2)8(7)9/h6-9H,3-5H2,1-2H3	InChI=1S/C8H16O/c1-3-7-5-4-6(2)8(7)9/h6-9H,3-5H2,1-2H3/t6-,7+,8-/m1/s1
