12
gdb 132834	3.03792	1.54581	1.02451	4.8433	70.77	-0.2807	-0.0762	0.2044	1037.1277	0.079442	-439.71054	-439.703831	-439.702887	-439.741984	24.855	
F	-0.0010645463	 0.0571694219	 0.0043151831	-0.03874
C	-0.0216368375	 1.3788007409	 0.0110550874	 0.313996
N	-1.1981764194	 1.950806758	 0.0289113275	-0.315862
C	-1.2311704405	 3.2890021508	 0.0357907606	 0.013472
C	-0.089743193	 4.0835788537	 0.0249769076	-0.121687
C	 1.150114111	 3.4571807665	 0.0060115878	-0.140594
C	 1.2066934972	 2.0605373974	-0.0014679344	-0.014794
C	 2.444784595	 1.3535600849	-0.0208231646	 0.226515
N	 3.4589252275	 0.7965913563	-0.036564788	-0.328642
H	-2.2199708314	 3.7384315463	 0.0506719937	 0.136917
H	-0.1705985558	 5.1633975985	 0.0312383505	 0.124638
H	 2.0718294933	 4.0269605947	-0.0030860811	 0.144782
126.301	148.0327	237.7432	396.2651	408.9417	475.7175	523.4841	586.4215	602.7907	606.7276	740.2511	795.7459	833.3046	883.3556	984.6156	998.9673	1085.536	1123.077	1209.391	1282.5831	1316.4953	1337.3566	1481.2281	1490.2997	1604.5969	1638.9078	2350.8238	3175.2968	3205.945	3220.6221
FC1=NC=CC=C1C#N	Fc1ncccc1C#N	
InChI=1S/C6H3FN2/c7-6-5(4-8)2-1-3-9-6/h1-3H	InChI=1S/C6H3FN2/c7-6-5(4-8)2-1-3-9-6/h1-3H
