17
gdb 99927	2.40365	1.34584	1.05592	3.4743	68.42	-0.2587	0.012	0.2708	1163.7929	0.135284	-455.11534	-455.10616	-455.105215	-455.149407	33.63	
O	 0.0461315177	 1.4284972011	 0.1670139168	-0.425539
C	 0.0994009221	 0.0260487242	-0.0284321775	-0.104278
C	-1.3224801158	-0.5759273421	 0.0782097334	 0.163446
O	-1.918027144	-0.1391518054	 1.2803742328	-0.44897
C	-2.1082146078	-0.0636741259	-1.0807751961	 0.243186
N	-2.665751347	 0.3908382251	-1.9856837868	-0.3316
C	-1.2943082664	-2.0987932359	 0.0593023188	-0.009086
C	-1.0194652036	-2.8367010891	 1.3163249345	-0.247156
N	-2.361900879	-2.8602860351	 0.7087501243	-0.32125
H	-0.3078803253	 1.8334512441	-0.634263053	 0.307245
H	 0.5672583961	-0.2474653061	-0.9820059496	 0.120849
H	 0.6964285226	-0.3810458388	 0.7913167938	 0.135807
H	-1.631011443	 0.7785032252	 1.3993049155	 0.301225
H	-0.9617534384	-2.5108656663	-0.8905030051	 0.110025
H	-0.478536123	-3.777389881	 1.2769583847	 0.123523
H	-0.8796685929	-2.2523406377	 2.2198706114	 0.129111
H	-2.9623062223	-2.2154296463	 1.2191482021	 0.253461
77.6314	107.4623	148.3772	167.0574	208.8768	283.4928	327.649	388.9136	411.0327	445.3137	483.6774	546.9053	580.2424	663.6155	738.7457	845.57	879.5508	915.036	952.2667	993.0538	1044.528	1071.7614	1096.1683	1103.0969	1138.2653	1160.1336	1221.3154	1242.8941	1277.9296	1305.9393	1352.7192	1386.7388	1406.8175	1432.8121	1488.0613	1498.8516	2345.5762	3034.8825	3114.2271	3121.0036	3138.4963	3212.6325	3499.5856	3732.4253	3791.2629
OCC(O)(C#N)C1CN1	OC[C@@](O)(C#N)[C@H]1CN1	
InChI=1S/C5H8N2O2/c6-2-5(9,3-8)4-1-7-4/h4,7-9H,1,3H2	InChI=1S/C5H8N2O2/c6-2-5(9,3-8)4-1-7-4/h4,7-9H,1,3H2/t4-,5+/m1/s1
