18
gdb 101536	2.50048	1.00104	0.83005	4.5595	74.75	-0.3122	-0.0658	0.2464	1439.8504	0.144986	-439.132112	-439.121999	-439.121055	-439.16807	35.038	
C	 0.0101214864	 1.5656037345	 0.0828917362	-0.393518
C	-0.0247025945	 0.0355553073	 0.0872633177	-0.184357
C	-1.4271439174	-0.5507167531	-0.0277670171	 0.130588
C	-1.4582132673	-2.0719557874	-0.0906624121	-0.413303
O	-2.1500164875	-0.108389264	 1.1723414913	-0.239794
C	-3.4704673839	-0.0059677875	 1.080346629	 0.365847
O	-4.1630611451	-0.2383976321	 0.1260350933	-0.33799
C	-4.0241921198	 0.4598377271	 2.3613319019	 0.250129
N	-4.5111810758	 0.8222920114	 3.3436773815	-0.306284
H	 1.0383619756	 1.9302262357	 0.1569378157	 0.122738
H	-0.4214111652	 1.9695943277	-0.8394398778	 0.120163
H	-0.5528835218	 1.9748009409	 0.9260554067	 0.134159
H	 0.5585444091	-0.3559979507	-0.7544905756	 0.109692
H	 0.4431939993	-0.3537417357	 0.9994617336	 0.114706
H	-1.9545445227	-0.1273861748	-0.8878276396	 0.118485
H	-0.9840575162	-2.5058899638	 0.7946934022	 0.132523
H	-2.48490345	-2.4378952145	-0.1606751362	 0.145876
H	-0.9144142831	-2.413687591	-0.9762563509	 0.13034
52.4859	66.7868	117.2037	128.9425	212.435	218.3315	227.5778	266.7156	318.089	378.6172	422.6769	485.8313	533.3015	609.7715	772.1279	777.6891	836.5056	875.3471	934.641	980.2166	1006.6201	1034.4828	1133.4275	1142.7097	1201.0794	1269.227	1300.4917	1330.9152	1384.0916	1399.8287	1409.9925	1413.7161	1473.979	1489.5222	1497.7322	1501.153	1508.665	1810.7016	2360.2227	3034.1408	3040.6106	3048.2001	3066.0078	3080.2813	3109.1207	3121.2578	3123.2466	3134.804
CCC(C)OC(=O)C#N	CC[C@@H](C)OC(=O)C#N	
InChI=1S/C6H9NO2/c1-3-5(2)9-6(8)4-7/h5H,3H2,1-2H3	InChI=1S/C6H9NO2/c1-3-5(2)9-6(8)4-7/h5H,3H2,1-2H3/t5-/m1/s1
