12
gdb 9027	4.71566	0.93369	0.80382	1.3114	77.94	-0.254	-0.0342	0.2199	1324.0996	0.08013	-344.096459	-344.087911	-344.086967	-344.129709	30.458	
O	-0.0643628286	 1.4466235601	 0.0114042176	-0.38317
C	 0.0433012621	 0.0281159622	-0.0035302835	-0.282591
C	 0.6842366689	-0.4707796683	-1.2293687454	 0.326963
C	 1.2157274317	-0.8490622256	-2.2377217671	-0.444132
C	 0.731549967	-0.4892752154	 1.1870035139	 0.498235
C	 1.301406959	-0.8882339648	 2.1765507591	-0.324712
C	 1.9439368268	-1.3391314296	 3.2875685073	 0.295926
C	 2.5141290166	-1.7383913006	 4.2739291313	-0.543881
H	 0.8305926836	 1.804614431	-0.0267076052	 0.293615
H	-0.9967621938	-0.3237819492	 0.0163250193	 0.157641
H	 1.6812754764	-1.1904500761	-3.1295465979	 0.208895
H	 3.0154458503	-2.0911168437	 5.1410280705	 0.197213
71.1808	102.7523	177.2679	216.0851	251.0474	307.8101	361.184	456.4255	497.4843	540.5583	554.1785	591.4788	598.8475	617.8726	646.451	679.694	774.7285	928.3935	1042.2917	1166.0771	1257.2648	1307.2986	1410.7587	2182.6755	2239.3695	2363.4821	3026.9195	3500.9581	3503.8704	3798.66
OC(C#C)C#CC#C	O[C@@H](C#C)C#CC#C	
InChI=1S/C7H4O/c1-3-5-6-7(8)4-2/h1-2,7-8H	InChI=1S/C7H4O/c1-3-5-6-7(8)4-2/h1-2,7-8H/t7-/m0/s1
