21
gdb 104539	2.56829	0.93193	0.79226	1.7458	87.19	-0.2489	0.0515	0.3004	1555.9777	0.18024	-387.051241	-387.040521	-387.039577	-387.08908	37.897	
C	 0.7165724389	-5.2287340818	 3.7825682777	-0.497885
C	 0.4723096382	-4.5901344704	 2.4962392376	 0.071753
C	 0.2855767068	-4.0777520805	 1.4215364597	 0.047644
C	 0.0327297799	-3.4242798114	 0.1376916877	-0.445714
C	-1.4522542465	-3.2788214294	-0.1990333094	 0.373341
C	-2.2951243731	-2.6682213223	 0.9083311956	-0.141651
O	-1.7540299018	-1.4568328607	 1.4183262665	-0.426706
C	-1.796657195	-2.9650256596	-1.6317200099	-0.311834
C	-2.1120545921	-4.3271215227	-1.0572459017	-0.301808
H	 1.3025809678	-4.5829592997	 4.4459123756	 0.147122
H	-0.2221958348	-5.4650996793	 4.2955938	 0.148159
H	 1.2704901032	-6.1661069886	 3.6604767624	 0.14967
H	 0.4838887078	-2.4235010469	 0.1502382372	 0.134453
H	 0.5354075803	-3.9746303044	-0.6670908371	 0.122042
H	-3.2905601852	-2.4265424468	 0.5195803875	 0.099394
H	-2.4251027571	-3.4038541643	 1.7146380949	 0.09917
H	-1.0550691904	-1.6986458497	 2.0346603152	 0.288672
H	-2.618817367	-2.2830148559	-1.8209064038	 0.114409
H	-0.986364582	-2.8905508661	-2.3500429194	 0.108413
H	-1.5167326655	-5.1739216903	-1.3822344651	 0.11142
H	-3.1513515024	-4.5700959792	-0.8585358011	 0.109934
23.9082	28.7073	81.4705	106.5635	197.8668	224.5662	266.4968	314.6483	330.7748	364.2579	375.2134	392.3259	464.9525	531.036	747.7428	764.5544	784.6993	857.9608	918.329	935.5796	952.4192	1008.8992	1027.5313	1052.0651	1053.64	1056.4393	1071.7953	1082.4562	1160.9711	1184.5629	1200.9616	1219.0753	1313.658	1326.4291	1365.6004	1401.7829	1415.9807	1421.572	1464.9221	1473.5201	1479.1533	1479.262	1492.1077	1508.161	2365.8755	3003.2223	3018.1596	3026.9328	3050.6316	3066.5971	3087.0105	3087.8008	3124.5093	3128.5987	3201.4996	3215.6334	3815.1636
CC#CCC1(CO)CC1	CC#CCC1(CO)CC1	
InChI=1S/C8H12O/c1-2-3-4-8(7-9)5-6-8/h9H,4-7H2,1H3	InChI=1S/C8H12O/c1-2-3-4-8(7-9)5-6-8/h9H,4-7H2,1H3
