19
gdb 122664	3.33207	1.14433	0.92099	2.7864	74.25	-0.2431	0.0002	0.2433	1280.4355	0.159417	-460.156237	-460.147613	-460.146669	-460.190415	31.85	
O	-1.4806622427	 0.8747229892	 1.0457227335	-0.430935
C	-0.5547964662	 0.3435168229	 0.1266640974	-0.057633
C	-1.0130356795	-0.9531852679	-0.53858343	-0.086923
O	-2.0107153596	-0.7614992738	-1.5425431426	-0.253756
C	-3.3385282128	-0.6959785505	-1.1148943288	 0.168734
O	-3.7049233788	 0.6017904715	-0.6253227297	-0.274515
C	-4.5618197951	 1.2657973653	-1.5554517176	-0.127894
C	-4.9091168223	 0.2119880866	-2.5659227049	-0.086235
C	-4.2431681499	-0.9038695548	-2.2999155499	-0.097618
H	-2.2943790451	 1.069955489	 0.5571091305	 0.296264
H	-0.2909833976	 1.0650738512	-0.6640860649	 0.087294
H	 0.3605961549	 0.1280345318	 0.6919149734	 0.100458
H	-0.1654790036	-1.4180595986	-1.0546449156	 0.102539
H	-1.3793560745	-1.6493433974	 0.2305143991	 0.098947
H	-3.490551835	-1.4017870444	-0.2842258941	 0.0851
H	-5.4373238738	 1.6439592409	-1.0115670407	 0.121926
H	-4.0537458064	 2.1287477342	-2.0110546386	 0.120381
H	-5.5963756545	 0.3850981081	-3.3839735165	 0.116322
H	-4.2589459478	-1.8340982033	-2.8503734103	 0.117545
51.4892	86.0014	126.4023	181.1541	228.5021	332.0105	370.0397	442.7151	517.572	527.4354	633.3368	716.3447	785.0438	807.4541	850.5524	909.5193	920.7654	949.9214	961.215	1000.3473	1029.5861	1039.0338	1070.6347	1096.4749	1120.3582	1133.0602	1144.2835	1201.8161	1242.1096	1300.8779	1314.1524	1368.2404	1384.2031	1390.2845	1403.7479	1416.6801	1459.1829	1479.2967	1490.7781	1511.1432	1694.3836	2972.8061	2991.1153	2997.8166	3000.3894	3036.5384	3053.72	3072.4198	3217.1778	3245.3883	3700.3763
OCCOC1OCC=C1	OCCO[C@H]1OCC=C1	
InChI=1S/C6H10O3/c7-3-5-9-6-2-1-4-8-6/h1-2,6-7H,3-5H2	InChI=1S/C6H10O3/c7-3-5-9-6-2-1-4-8-6/h1-2,6-7H,3-5H2/t6-/m1/s1
