15
gdb 42456	2.43196	0.98684	0.75203	3.8775	72.78	-0.2677	0.0021	0.2697	1445.9093	0.110628	-416.81576	-416.806247	-416.805302	-416.851996	32.841	
O	-0.7259992115	 1.735075504	 2.16946819	-0.366128
C	-0.175847397	 1.5347905697	 1.1055565706	 0.444646
C	 1.3467994041	 1.7176060362	 0.9657635038	-0.482489
C	 1.9183754898	 1.4402853362	-0.3429416423	 0.278296
C	 2.3626096616	 1.2048739368	-1.4353765562	-0.416122
N	-0.8288913662	 1.1360820357	-0.0219706858	-0.324633
C	-2.2656542401	 0.9651404065	-0.0287025723	-0.28494
C	-2.9313019634	 1.8435753748	-0.9992837827	 0.257487
N	-3.4479563652	 2.5178527406	-1.7818862085	-0.296188
H	 1.5567548443	 2.7494887308	 1.2695824285	 0.1754
H	 1.8029686406	 1.0812706499	 1.7324146539	 0.172482
H	 2.7753105887	 1.0044102036	-2.3936958465	 0.211761
H	-0.3015868125	 1.0146665673	-0.8738174431	 0.270466
H	-2.544724006	-0.0723170986	-0.2490354677	 0.161621
H	-2.6121110672	 1.1991171565	 0.9830319583	 0.19834
29.983	50.4344	78.6646	138.0389	235.719	275.981	327.5231	361.2831	374.5601	492.8323	497.7417	567.0409	621.4568	635.2137	661.1804	679.8151	870.2329	931.951	948.3888	987.263	1050.0887	1110.6887	1217.6448	1238.2545	1274.1281	1305.871	1373.0985	1442.1781	1467.9682	1542.4396	1790.7316	2235.8263	2365.6003	3037.7334	3048.6607	3082.5074	3097.3094	3500.0522	3614.0173
O=C(CC#C)NCC#N	O=C(CC#C)NCC#N	
InChI=1S/C6H6N2O/c1-2-3-6(9)8-5-4-7/h1H,3,5H2,(H,8,9)	InChI=1S/C6H6N2O/c1-2-3-6(9)8-5-4-7/h1H,3,5H2,(H,8,9)
