21
gdb 119060	1.72393	1.49636	0.92321	1.4545	75.1	-0.2341	0.0595	0.2936	1337.603	0.179686	-461.326697	-461.316212	-461.315268	-461.362526	38.164	
C	-2.3651831652	 1.0869395312	-1.7803536269	-0.386932
C	-2.1090525346	-0.4043911711	-1.6491770959	-0.074985
O	-1.6582288091	-0.6568888697	-0.3097672189	-0.316202
C	-1.5746574793	-2.0226258835	 0.0380862088	 0.342587
C	-0.5127452874	-2.7926783398	-0.7083095002	-0.123715
O	 0.7733276691	-2.2301936296	-0.5098487514	-0.422503
C	-1.7944692429	-2.2694103756	 1.5125470333	-0.386563
C	-2.8673164772	-2.6418032982	 0.5139362293	 0.07393
O	-4.0492889602	-1.9038423886	 0.4306968843	-0.430884
H	-2.6776039663	 1.3282331654	-2.8005773908	 0.123196
H	-3.1522759347	 1.4121040647	-1.0933693379	 0.122477
H	-1.4585712881	 1.6549671078	-1.5527681403	 0.129304
H	-3.0195609441	-0.9837011071	-1.8467745748	 0.118139
H	-1.3446331399	-0.7216161712	-2.3716509786	 0.104531
H	-0.4798790864	-3.822746302	-0.3382743385	 0.10688
H	-0.7589297739	-2.8446167441	-1.7813082327	 0.089151
H	 0.6536703492	-1.2734246451	-0.5144074608	 0.289384
H	-1.2147786518	-3.0496925613	 1.993494372	 0.122805
H	-1.981430324	-1.3934479295	 2.125213174	 0.120838
H	-3.0603049749	-3.6907909115	 0.3139470145	 0.109158
H	-3.7972437683	-0.9733074112	 0.4754054515	 0.289403
54.7577	76.2423	122.0451	142.6168	191.4609	230.2487	263.613	296.4429	339.3693	370.2577	387.3317	406.6356	452.0906	484.3525	675.5233	752.6836	819.6343	824.3033	879.4295	910.7464	957.2763	983.48	1028.272	1046.4028	1070.3485	1078.3698	1096.6047	1132.5137	1147.4267	1186.7873	1204.7474	1254.6626	1301.1902	1306.6437	1338.1569	1358.4886	1401.4993	1423.6304	1437.4192	1440.53	1483.4392	1485.2554	1498.0047	1514.2266	1526.4806	2973.3545	3008.5381	3043.8687	3052.3516	3070.704	3117.3604	3121.7669	3131.4394	3167.2135	3223.1441	3786.8701	3794.8731
CCOC1(CO)CC1O	CCO[C@@]1(CO)C[C@H]1O	
InChI=1S/C6H12O3/c1-2-9-6(4-7)3-5(6)8/h5,7-8H,2-4H2,1H3	InChI=1S/C6H12O3/c1-2-9-6(4-7)3-5(6)8/h5,7-8H,2-4H2,1H3/t5-,6-/m1/s1
