20
gdb 38473	3.44809	1.66761	1.51202	1.524	82.56	-0.2196	0.0931	0.3127	953.9661	0.17452	-365.906133	-365.899696	-365.898752	-365.936396	28.387	
C	 0.0640624642	 1.4839411867	-0.1635633498	-0.252916
C	 1.3239424805	 0.7248913829	 0.0230434845	 0.002075
C	 1.9120675427	 0.6051170489	 1.456723598	-0.387296
C	 0.7407842111	-0.004511851	 2.2133555719	 0.303243
C	 0.3527955538	-1.1646467673	 3.1868458379	-0.293499
C	-0.9828623801	-0.7424695859	 2.4597977356	-0.08876
C	-0.5603249953	 0.7154744852	 2.7392528222	-0.259087
C	-0.0964765835	-0.7304563014	 1.160011679	 0.079597
N	 0.0010031764	 0.0135285089	-0.1064569112	-0.167948
H	-0.2794542409	 2.1181715528	 0.6424803453	 0.11537
H	-0.1843481777	 1.8682040518	-1.1501496897	 0.114603
H	 2.0128857733	 0.6081933527	-0.8087470454	 0.090017
H	 2.7744188259	-0.0701256207	 1.4428961566	 0.110938
H	 2.2497898648	 1.5706237164	 1.8454625984	 0.109033
H	 0.7542898554	-2.1548708973	 2.9556222898	 0.095996
H	 0.3886061341	-0.952284481	 4.2580246046	 0.094763
H	-1.9664973592	-1.1880132456	 2.6124998256	 0.074455
H	-0.5340275903	 1.013792278	 3.7918524982	 0.085432
H	-1.0386768471	 1.4852755511	 2.1421226024	 0.101084
H	 0.2531586817	-1.7363943551	 0.9030162257	 0.072899
226.1047	280.6926	350.634	383.0185	427.3642	516.5487	578.8951	674.479	695.873	754.6865	764.1411	802.3666	831.3132	865.4134	890.0754	916.2215	933.7278	953.3462	982.2944	1010.3441	1019.4301	1060.1313	1075.8843	1081.1414	1097.5544	1108.4434	1129.0435	1142.9674	1147.0115	1173.7294	1194.4969	1218.0516	1226.6812	1245.5494	1274.0308	1274.9605	1294.9212	1365.9383	1430.1669	1479.0209	1492.497	1509.7455	1546.2254	3038.7904	3046.4108	3052.9249	3059.6603	3090.4647	3105.9132	3118.3506	3122.0897	3147.2582	3172.9308	3225.5761
C1C2CC34CC(C3)C4N12	C1[C@H]2C[C@@]34C[C@@H](C3)[C@H]4N12	
InChI=1S/C8H11N/c1-5-2-8(1)3-6-4-9(6)7(5)8/h5-7H,1-4H2	InChI=1S/C8H11N/c1-5-2-8(1)3-6-4-9(6)7(5)8/h5-7H,1-4H2/t5-,6-,7-,8+,9?/m1/s1
