13
gdb 129104	5.04331	1.31881	1.05404	2.4489	66.95	-0.2274	-0.0515	0.1759	1029.4689	0.090565	-448.89689	-448.890118	-448.889174	-448.928061	25.95	
N	-0.0794099248	 1.2489492705	-0.0718314567	-0.520472
C	 0.0023545214	-0.010253153	 0.0172048699	 0.37734
C	-1.2532382504	-0.9285039663	 0.0183478306	-0.419933
C	-0.6062164899	-2.2705940549	-0.0397229453	 0.344029
C	 0.7403864163	-2.1529899444	 0.0060275091	 0.322998
N	 1.1567584071	-0.8244899379	 0.1309304808	-0.442773
N	 1.2865783555	-3.392191872	 0.0013802951	-0.220604
N	 0.3630574974	-4.2588655023	-0.0566199606	-0.038015
O	-0.9310019872	-3.5463226972	-0.0711712654	-0.229126
H	 0.8361363252	 1.7003610798	-0.0539818678	 0.21887
H	-1.8376191031	-0.7687248702	 0.930487178	 0.170582
H	-1.8984342235	-0.6889334444	-0.8310168473	 0.170481
H	 2.0465039861	-0.4953436977	-0.2102211703	 0.266622
110.881	208.0757	323.0517	342.7315	365.6469	473.0899	534.9978	543.7574	558.108	648.9755	715.243	739.9623	824.5071	859.3026	863.783	959.2688	1002.7798	1056.9529	1149.0857	1184.1572	1237.5958	1298.1818	1309.1142	1366.5272	1429.9359	1451.3841	1523.089	1638.6688	1763.0666	3062.3964	3104.7268	3469.6944	3634.5657
N=C1CC2=C(N1)N=NO2	[NH][C]1Cc2c(N1)nno2	
InChI=1S/C4H4N4O/c5-3-1-2-4(6-3)7-8-9-2/h1H2,(H2,5,6)	InChI=1S/C4H4N4O/c5-3-1-2-4(6-3)7-8-9-2/h1H2,(H2,5,6)
