15
gdb 5153	5.34585	1.30412	1.24495	1.6363	72.64	-0.2053	0.0273	0.2326	995.5139	0.119384	-325.517427	-325.51007	-325.509126	-325.550064	27.317	
C	-0.0307166074	-1.2260233428	-0.005516563	-0.45016
C	-0.0041373294	-0.0254563331	 0.0016656146	 0.330788
C	 0.0198830051	 1.4380638495	 0.0102703612	-0.339718
N	 1.3570016789	 2.007555798	 0.0003852939	 0.046962
C	 2.1215601797	 2.261352024	 1.1144171902	-0.092208
C	 3.3510743087	 2.7111939866	 0.6961402288	-0.164936
C	 3.3357725368	 2.7224101049	-0.7269315654	-0.164965
C	 2.0974716022	 2.2790102447	-1.1256975258	-0.092226
H	-0.0470622893	-2.2879524428	-0.0119451831	 0.206278
H	-0.52296979	 1.8232976319	-0.860027959	 0.149553
H	-0.5057181417	 1.8126799393	 0.8956844798	 0.149543
H	 1.7200339235	 2.0974794982	 2.1020015164	 0.116321
H	 4.1649779667	 3.0110634831	 1.3381892361	 0.094229
H	 4.1357139612	 3.0325225669	-1.3815388153	 0.09423
H	 1.6747497652	 2.1306815915	-2.1068753294	 0.11631
30.2166	87.636	239.0191	318.6941	334.6194	462.9713	622.5998	625.9945	626.6823	668.4591	677.9905	738.4068	744.7288	798.5572	850.8422	883.949	943.4797	968.2253	988.2957	1080.6232	1095.9982	1113.6774	1214.1994	1302.0173	1310.9116	1374.8294	1423.9556	1429.4223	1464.0224	1530.443	1564.4742	2242.9903	3039.9375	3076.1206	3240.055	3250.1716	3262.1999	3270.6904	3505.3431
C#CCN1C=CC=C1	C#CCn1cccc1	
InChI=1S/C7H7N/c1-2-5-8-6-3-4-7-8/h1,3-4,6-7H,5H2	InChI=1S/C7H7N/c1-2-5-8-6-3-4-7-8/h1,3-4,6-7H,5H2
