21
gdb 90998	3.40022	1.52718	1.50074	1.36	80.65	-0.2326	0.0951	0.3277	1003.4706	0.1862	-387.092112	-387.085165	-387.08422	-387.123019	29.577	
C	-0.1572869243	 1.5490399933	-0.0086249529	-0.412461
C	 0.0501565743	 0.0382238014	 0.004047465	 0.143216
O	 0.8539572605	-0.3738878606	-1.1275997256	-0.297996
C	 2.1048232809	-0.7724753008	-0.6088217163	 0.150995
C	 2.1853731705	-2.1431957561	 0.1662533071	-0.068358
C	 3.17808169	-1.4253718678	 1.119540409	-0.252766
C	 2.312139836	-0.1847428102	 0.8070857561	-0.06243
C	 0.840386451	-0.5290705037	 1.1981092657	-0.053787
C	 0.8877171916	-2.07780802	 0.9947650569	-0.221674
H	 0.7881357082	 2.0869000133	 0.1069530367	 0.117593
H	-0.6068153919	 1.8564990116	-0.9572059627	 0.124716
H	-0.8283646093	 1.8508138641	 0.8032072517	 0.109292
H	-0.9242532886	-0.458492169	-0.0859682149	 0.074741
H	 2.8885288802	-0.6128555519	-1.3498477968	 0.078481
H	 2.4314177611	-3.083627161	-0.3265233049	 0.059535
H	 3.2338986256	-1.7818416355	 2.1513671022	 0.093225
H	 4.1852464382	-1.3309224858	 0.7050688691	 0.097641
H	 2.6575852376	 0.8336146635	 0.9799416651	 0.065115
H	 0.4923188426	-0.1877924925	 2.1735316854	 0.063935
H	 0.0096639369	-2.4497398207	 0.460047263	 0.099783
H	 0.978846269	-2.6321143314	 1.9333673609	 0.091204
163.5766	222.1208	263.5821	328.1551	425.7521	449.9597	479.3228	625.9817	702.506	740.7197	796.7502	822.7155	835.8282	855.7919	871.4116	903.9958	935.8539	952.5339	962.2953	986.8228	1021.3747	1035.0463	1039.6108	1078.867	1086.6937	1095.4506	1123.0387	1133.9661	1181.574	1199.1801	1200.6623	1230.1563	1253.6766	1267.7633	1283.9437	1297.3894	1324.7665	1331.4104	1366.0785	1394.8215	1406.0974	1486.1687	1494.2579	1495.9437	1513.2123	3021.6914	3036.3574	3052.0034	3056.8263	3096.5969	3104.8584	3109.3168	3111.0433	3111.5694	3115.8214	3120.1411	3129.1707
CC1OC2C3CC2C1C3	C[C@H]1O[C@@H]2[C@H]3C[C@@H]2[C@@H]1C3	
InChI=1S/C8H12O/c1-4-6-2-5-3-7(6)8(5)9-4/h4-8H,2-3H2,1H3	InChI=1S/C8H12O/c1-4-6-2-5-3-7(6)8(5)9-4/h4-8H,2-3H2,1H3/t4-,5-,6-,7-,8-/m1/s1
