19
gdb 29772	2.38784	1.5392	0.95186	0.4223	80.32	-0.1705	0.0644	0.2348	1240.5237	0.15898	-419.239212	-419.22919	-419.228245	-419.274063	36.152	
C	-0.0004009263	 1.4724940919	 0.0094338206	-0.338541
N	-0.0307617425	 0.0267149254	 0.0014651767	-0.063383
C	-0.090508745	-0.7919015828	-1.1219494364	-0.224876
C	-0.0147060162	-2.1042262458	-0.7256502031	 0.223254
C	-0.0612018141	-3.3150028453	-1.6049220786	-0.504623
C	 0.1061912792	-2.0939309373	 0.7059520499	-0.059478
N	 0.2088827721	-3.1408845129	 1.6729679681	-0.62519
C	 0.0958287304	-0.7756109587	 1.0944888372	 0.39743
O	 0.1852161315	-0.2485855524	 2.3364642326	-0.450155
H	 1.0100343639	 1.862838408	-0.1632764234	 0.132222
H	-0.6622312635	 1.8574756413	-0.7707622163	 0.133574
H	-0.3499918377	 1.8345604369	 0.9777448825	 0.154439
H	-0.188288983	-0.3563053512	-2.1036314281	 0.105736
H	 0.8434250484	-3.9287772533	-1.5067381479	 0.11422
H	-0.9102301165	-3.9672080089	-1.3626324256	 0.114138
H	-0.1540700942	-3.0341951289	-2.6580026835	 0.119695
H	 1.032060249	-3.7173650802	 1.5230930902	 0.234775
H	-0.5913072712	-3.7663706096	 1.6427037173	 0.234665
H	 0.2392415659	-1.0202269561	 2.9205147478	 0.302099
66.1028	113.4784	125.5077	167.6902	221.1538	235.8381	265.1054	270.6178	279.3344	330.8852	510.2517	564.7818	577.47	602.0031	620.0262	642.2477	695.0534	752.2837	835.0746	939.3358	1008.5155	1059.353	1073.4446	1133.202	1151.7736	1205.6995	1207.4078	1261.0473	1316.8914	1368.2261	1411.7237	1423.4983	1456.0688	1481.8504	1491.0132	1494.0031	1509.9189	1576.0588	1599.1336	1628.7942	1684.2087	3011.5483	3025.4814	3052.3265	3095.3218	3102.1579	3141.8762	3255.0033	3476.7023	3535.8156	3731.7436
CN1C=C(C)C(N)=C1O	Cn1cc(C)c(N)c1O	
InChI=1S/C6H10N2O/c1-4-3-8(2)6(9)5(4)7/h3,9H,7H2,1-2H3	InChI=1S/C6H10N2O/c1-4-3-8(2)6(9)5(4)7/h3,9H,7H2,1-2H3
