20
gdb 41880	2.97105	1.56097	1.14557	2.2454	79.38	-0.2388	0.0216	0.2605	1096.7278	0.173643	-403.145141	-403.137463	-403.136518	-403.177391	30.229	
C	-0.0451327708	 1.5811499945	-0.1075836346	-0.249236
C	 1.4976202739	 1.5649474514	 0.0825879314	-0.238631
C	 1.3953150531	 0.1256603372	 0.631725501	 0.117468
O	 1.4677647738	 0.1693146413	 2.0631268091	-0.244915
C	 1.1839643104	-0.9587514852	 2.778657273	 0.116209
N	 0.3885867698	-1.914946927	 2.579755891	-0.248551
C	-0.5566508244	-2.0012667073	 1.473153052	-0.152215
C	-1.0829510463	-0.6646773711	 0.9259948171	-0.243201
C	-0.0445615144	 0.0330424778	 0.0591065995	 0.022811
H	-0.5577353161	 2.0790680132	 0.7200468012	 0.109333
H	-0.4295739551	 1.9822871202	-1.0475687547	 0.099787
H	 2.0418894624	 1.599138377	-0.8643790014	 0.106242
H	 1.9336176054	 2.2910878208	 0.7707687254	 0.114913
H	 2.1236225477	-0.610681956	 0.275270678	 0.079251
H	 1.7764984901	-0.9463228107	 3.6947109824	 0.11484
H	-0.1064937129	-2.5920850431	 0.6618865951	 0.106686
H	-1.3990950837	-2.6002109847	 1.837490453	 0.109403
H	-2.0009028477	-0.8394273392	 0.3514109828	 0.096331
H	-1.362689852	-0.0269590513	 1.7728234332	 0.108453
H	 0.0070215767	-0.4538308678	-0.9218617446	 0.075022
82.0634	148.5892	214.9533	283.7519	312.8182	372.0619	421.3648	495.5061	592.9358	661.1694	737.5431	792.4308	814.172	844.0933	890.8334	924.3482	949.2044	952.2943	979.082	1005.9985	1008.2375	1040.8633	1102.0957	1123.6298	1150.2901	1158.8099	1207.5478	1218.9496	1257.8855	1263.9962	1274.6827	1291.4972	1303.4349	1344.7636	1370.2917	1376.1512	1395.8024	1429.1963	1468.3476	1485.249	1492.2366	1494.8984	1755.2793	3003.0931	3025.2103	3030.2429	3044.3113	3050.2719	3062.8409	3069.8697	3072.7308	3113.5306	3126.3602	3132.6003
C1CC2OC=NCCC12	C1C[C@H]2OC=NCC[C@@H]12	
InChI=1S/C7H11NO/c1-2-7-6(1)3-4-8-5-9-7/h5-7H,1-4H2	InChI=1S/C7H11NO/c1-2-7-6(1)3-4-8-5-9-7/h5-7H,1-4H2/t6-,7-/m1/s1
