20
gdb 60655	2.69745	1.1962	0.99183	4.8846	74.59	-0.2495	0.0162	0.2657	1261.5529	0.172208	-440.307942	-440.298946	-440.298002	-440.34241	33.601	
N	-0.0027935208	 0.9958858726	-0.0473759023	-0.54386
H	 0.9972107751	 0.9778020157	 0.1180604863	 0.24698
H	-0.1633481093	 1.640864445	-0.8166921164	 0.248006
H	-1.3361857155	-0.2934849062	-0.1258973724	 0.30588
C	-0.7326684725	 1.4534971276	 1.1557441049	-0.173908
C	-0.7848010719	 2.9772760745	 1.306602831	 0.048774
C	-1.7569211859	 3.8279968337	 0.4344164129	-0.241275
C	-1.9347952166	 4.7783970955	 1.6498295642	-0.207923
C	-1.3957582512	 3.6484497854	 2.5696503495	-0.243271
C	-2.1201905532	 0.765874662	 1.1718964962	 0.433263
O	-2.2051983495	-0.2752508236	 0.3372202851	-0.365299
O	-3.0308377483	 1.1017923096	 1.8844596995	-0.339229
H	-0.2060853078	 1.0379350878	 2.0255726594	 0.120042
H	 0.2405120495	 3.3426729016	 1.1672413857	 0.063368
H	-1.3720720272	 4.2538191895	-0.4963049247	 0.08664
H	-2.6816572889	 3.2847471453	 0.2232697184	 0.125569
H	-1.2505495786	 5.6306214428	 1.6018128867	 0.097985
H	-2.9415099215	 5.1506905893	 1.8490896002	 0.104609
H	-2.2048783054	 3.0428289537	 2.9766959676	 0.146596
H	-0.7034830605	 3.9262109381	 3.3686927279	 0.087053
48.969	84.0981	118.261	199.8075	233.1165	293.5083	340.485	379.7415	462.6144	528.4	568.9729	653.8526	746.4616	765.5229	798.3844	840.6029	879.071	898.7559	925.0179	935.0097	960.6639	985.0851	1035.5468	1056.9212	1124.1766	1149.4174	1178.1934	1209.43	1220.7511	1250.0402	1263.3584	1269.0295	1278.7467	1290.5195	1308.8925	1365.8783	1401.5283	1434.1805	1476.7411	1488.2781	1511.9152	1651.5963	1854.5106	3018.1098	3028.474	3053.805	3059.0972	3069.5333	3104.9642	3119.7966	3152.8082	3436.5495	3497.32	3584.2809
[NH3+]C(C1CCC1)C([O-])=O	N[C@@H](C1CCC1)C(=O)O	
InChI=1S/C6H11NO2/c7-5(6(8)9)4-2-1-3-4/h4-5H,1-3,7H2,(H,8,9)	InChI=1S/C6H11NO2/c7-5(6(8)9)4-2-1-3-4/h4-5H,1-3,7H2,(H,8,9)/t5-/m0/s1
