18
gdb 16011	4.12623	1.83424	1.47066	1.0046	75.24	-0.2212	0.023	0.2442	897.98	0.155232	-347.798445	-347.791503	-347.790559	-347.82931	27.879	
C	-0.0196148969	 1.496450996	 0.0526700372	-0.32441
C	 1.3156897242	 0.7933467117	-0.0054184292	-0.323767
C	 0.0179569085	-0.003536061	-0.0270300522	 0.427772
O	-0.347111659	-0.6403000428	 1.1679046808	-0.298929
C	-0.1140110632	-2.0433860376	 1.1308292301	-0.092718
C	-0.9850391188	-2.7132538833	 0.0647953628	-0.258953
C	-0.8756675146	-1.9517508515	-1.2303106425	-0.100138
C	-0.3885247454	-0.7112145832	-1.2606977122	-0.096014
H	-0.3269728251	 1.9077282527	 1.007280962	 0.127324
H	-0.3613837402	 2.0482240042	-0.8160825404	 0.114773
H	 1.9031025357	 0.8579401831	-0.9147481498	 0.112039
H	 1.8891053567	 0.7381952349	 0.9128330395	 0.121911
H	 0.9487585216	-2.2450920153	 0.925371489	 0.093518
H	-0.3448160948	-2.4141128404	 2.133027447	 0.103254
H	-0.6644115945	-3.7541505594	-0.0715237466	 0.102
H	-2.0301617836	-2.7541927388	 0.401369516	 0.115034
H	-1.1922738294	-2.441936955	-2.1463724511	 0.088002
H	-0.2684868513	-0.1714339243	-2.1959259404	 0.089303
105.158	231.3023	269.9311	309.8526	395.6428	444.7868	497.9522	556.9422	660.2838	728.816	772.0602	793.2969	867.5401	886.18	905.2038	935.9729	945.4239	988.1145	1003.7064	1008.632	1050.1939	1076.6446	1085.6458	1106.5328	1170.2621	1193.3643	1230.2109	1279.9751	1302.9968	1310.6956	1363.959	1406.8997	1434.3814	1450.9232	1469.0622	1486.7292	1501.1708	1713.6574	2986.2314	3012.094	3046.9898	3091.7894	3134.1397	3137.39	3156.4202	3178.4841	3220.4759	3234.981
C1CC11OCCC=C1	C1CC21OCCC=C2	
InChI=1S/C7H10O/c1-2-6-8-7(3-1)4-5-7/h1,3H,2,4-6H2	InChI=1S/C7H10O/c1-2-6-8-7(3-1)4-5-7/h1,3H,2,4-6H2
