17
gdb 47736	2.57361	1.66663	1.13516	3.6098	68.52	-0.2419	-0.0366	0.2053	1058.4245	0.13602	-458.95458	-458.946811	-458.945867	-458.987177	29.449	
O	 0.0243091046	 0.0463061255	 0.3712260219	-0.29972
C	 0.0081537567	 1.2135508255	 0.067144052	 0.305543
C	-1.305887117	 1.9564046819	-0.1924757612	-0.189879
O	-1.1975510817	 3.0530062868	-1.0742890594	-0.239053
C	-0.1935137938	 3.9722877109	-0.6789476744	-0.089748
C	 1.1897701929	 3.3317587968	-0.8098391419	-0.30119
C	 1.264170892	 2.0640430736	 0.0194636975	 0.315574
C	 2.1526117546	 1.9528138259	 1.2023690052	-0.211547
O	 2.4883712493	 1.3389407719	-0.0307213568	-0.257041
H	-2.0259776087	 1.2535240071	-0.6169546065	 0.145297
H	-1.6912818839	 2.2790771	 0.7931239103	 0.115695
H	-0.2872681078	 4.8366010897	-1.3410943208	 0.120215
H	-0.3706724385	 4.3145833497	 0.3548549502	 0.092086
H	 1.3535796406	 3.0724569006	-1.862145901	 0.130801
H	 1.9792288499	 4.0312321826	-0.5156350536	 0.108672
H	 2.7535127698	 2.8166976727	 1.4853849032	 0.119034
H	 1.884482261	 1.2661383887	 2.0031407254	 0.135262
64.7217	132.4961	258.7847	285.477	298.8727	371.6599	394.8792	456.1187	508.3634	586.4948	633.7795	678.8873	828.361	873.016	879.5616	942.1707	976.5327	992.1857	1006.533	1105.0761	1124.0392	1136.5285	1159.5498	1177.5585	1214.094	1233.8143	1284.4665	1311.8343	1347.9839	1359.2462	1393.2757	1410.6866	1461.1703	1478.8854	1501.298	1510.7367	1821.6273	2937.0999	2966.2823	3041.1853	3081.1966	3087.3238	3098.5669	3113.9351	3179.7333
O=C1COCCC11CO1	O=C1COCC[C@]21CO2	
InChI=1S/C6H8O3/c7-5-3-8-2-1-6(5)4-9-6/h1-4H2	InChI=1S/C6H8O3/c7-5-3-8-2-1-6(5)4-9-6/h1-4H2/t6-/m1/s1
