15
gdb 34213	4.07298	1.38297	1.36658	0.8182	70.62	-0.2395	0.0384	0.2779	958.2248	0.113561	-420.578241	-420.571671	-420.570727	-420.609079	26.885	
C	 0.0634538788	-1.1591392936	-0.0516912776	-0.357569
C	-0.0026281055	 0.0413975521	 0.0069216187	 0.095264
C	-0.0692812036	 1.4581683187	 0.0667138209	 0.135497
C	-1.0670080508	 2.2628631977	 0.8992949847	-0.302859
C	-0.5169845079	 3.6295622436	 0.4458530115	 0.12934
O	 0.8710675905	 3.5435902297	 0.7572443147	-0.245919
C	 1.1684475469	 2.3829190143	 0.0160092066	-0.005926
C	 0.2084576082	 2.3864497547	-1.1378046691	-0.005922
O	-0.5709969644	 3.5488976998	-0.9759833461	-0.245919
H	 0.117071559	-2.2182636132	-0.0996146743	 0.180327
H	-2.1024867572	 2.1088064684	 0.5917924484	 0.125714
H	-0.9534202761	 2.1045797448	 1.9728645982	 0.125715
H	-0.9506982958	 4.5561878353	 0.8095460069	 0.110181
H	 2.1978345075	 2.0588531803	 0.0259340275	 0.131038
H	 0.3849306403	 2.0655189474	-2.1529969709	 0.131038
143.241	150.8696	408.9154	480.8617	485.4977	505.8091	574.57	588.0568	605.6489	649.8765	703.0467	739.0604	831.3462	847.8206	894.9115	904.9084	926.6811	1002.205	1005.4355	1023.7274	1028.7505	1058.1587	1081.122	1150.6536	1159.3903	1227.4442	1229.9128	1281.6146	1290.2966	1347.4484	1389.4179	1478.259	2235.8286	3086.6971	3148.4607	3185.8409	3241.6409	3249.9513	3503.9471
C#CC12CC3OC1C2O3	C#C[C@@]12C[C@H]3O[C@@H]1[C@@H]2O3	
InChI=1S/C7H6O2/c1-2-7-3-4-8-5(7)6(7)9-4/h1,4-6H,3H2	InChI=1S/C7H6O2/c1-2-7-3-4-8-5(7)6(7)9-4/h1,4-6H,3H2/t4-,5+,6-,7+
