15
gdb 74320	3.4661	1.25838	1.0221	4.869	67.68	-0.2378	-0.0227	0.2151	1122.0137	0.1126	-453.938429	-453.93058	-453.929636	-453.971414	29.115	
N	 0.3403329119	 1.4149435592	 0.2283389902	-0.579121
C	 0.1066189543	 0.0830635497	 0.0392636806	 0.403025
N	-1.0506414124	-0.4206201935	-0.2020176194	-0.314879
C	-0.9486361204	-1.884632909	-0.1850682048	-0.08562
C	-1.4899160657	-2.4739642931	-1.4866033762	 0.172696
O	-2.1787956768	-3.4578304488	-1.5430550247	-0.247109
C	 0.5383850793	-2.2140542888	-0.0043387453	 0.014252
O	 1.3620879132	-1.6776566358	-1.0474241652	-0.244203
C	 1.2173638403	-0.9233086091	 0.1690769592	-0.080161
H	 1.2536285185	 1.7678167961	-0.0095119314	 0.263125
H	-0.4280550342	 2.0258212937	-0.0090373007	 0.266458
H	-1.5351229719	-2.3100336534	 0.6372630224	 0.105
H	-1.1763186583	-1.9154481292	-2.3930325715	 0.093905
H	 0.8775971456	-3.1456325418	 0.4376563885	 0.118593
H	 2.1214320566	-0.7564215064	 0.7471283882	 0.114038
52.6977	114.9526	192.5945	256.7616	371.1335	385.5308	418.1536	455.3762	496.8915	561.1594	637.0383	724.301	817.3872	832.7083	868.6805	893.4301	912.0831	987.5603	1004.3272	1059.0623	1084.2936	1098.296	1172.7795	1237.5271	1257.9718	1277.5301	1287.4589	1380.8529	1408.5616	1444.2967	1624.8463	1704.3882	1833.8552	2920.4936	3051.5014	3159.7352	3173.0154	3574.9479	3691.4037
NC1=NC(C=O)C2OC12	NC1=N[C@@H](C=O)[C@H]2O[C@@H]12	
InChI=1S/C5H6N2O2/c6-5-4-3(9-4)2(1-8)7-5/h1-4H,(H2,6,7)	InChI=1S/C5H6N2O2/c6-5-4-3(9-4)2(1-8)7-5/h1-4H,(H2,6,7)/t2-,3+,4+/m0/s1
