19
gdb 96020	2.68263	1.42562	1.08502	2.207	70.	-0.2516	0.0743	0.3259	1134.7929	0.160304	-460.131662	-460.123401	-460.122456	-460.165059	31.242	
O	 0.0597320847	 1.3983948892	-0.2012677333	-0.431142
C	 0.0223213096	 0.0015057808	 0.0026443453	 0.094747
C	 0.505374458	-0.4288060134	 1.4117307797	-0.104462
O	-0.3265390056	-1.4983639688	 1.8219817892	-0.243823
C	-1.6242902169	-1.1907550756	 1.3386701496	-0.118451
C	-1.4060234815	-0.6500621519	-0.0870371871	-0.082855
C	-2.4442582768	 0.3212344803	-0.5964647511	 0.077323
C	-3.8040460804	 0.4250936456	-0.0508701239	-0.190978
O	-2.8070537695	 1.3944698201	 0.2879966147	-0.248364
H	-0.609192818	 1.8046159415	 0.3633540855	 0.297769
H	 0.6724584497	-0.4106234792	-0.7728130051	 0.096893
H	 1.5413745129	-0.7744816222	 1.4385872391	 0.111915
H	 0.4092055938	 0.4380104524	 2.0877917263	 0.08819
H	-2.2222594291	-2.1040005141	 1.379749926	 0.110447
H	-2.1001759184	-0.4221153824	 1.9685420893	 0.101825
H	-1.3640449554	-1.4933832842	-0.7846501149	 0.08783
H	-2.2929317923	 0.6492034144	-1.6243545128	 0.108598
H	-4.6097959628	 0.7958663162	-0.6819711304	 0.123056
H	-4.117906602	-0.2254999386	 0.7632832242	 0.121482
55.1577	104.8933	190.6316	206.9825	285.2621	350.3443	415.9402	436.0937	467.899	580.1079	631.4779	680.7972	762.3791	826.6725	889.3403	932.5176	969.0035	974.008	1009.8817	1033.6278	1061.5741	1095.6564	1113.497	1124.7337	1145.4196	1168.3853	1171.5186	1214.4194	1253.367	1281.3611	1295.9193	1307.9919	1325.9926	1334.9984	1372.9841	1403.671	1431.2575	1452.1803	1503.4177	1518.4547	1531.9471	2962.6859	2982.3193	3047.654	3079.5288	3091.791	3099.4195	3104.3378	3119.3282	3178.5302	3788.1248
OC1COCC1C1CO1	O[C@H]1COC[C@H]1[C@H]1CO1	
InChI=1S/C6H10O3/c7-5-2-8-1-4(5)6-3-9-6/h4-7H,1-3H2	InChI=1S/C6H10O3/c7-5-2-8-1-4(5)6-3-9-6/h4-7H,1-3H2/t4-,5+,6-/m1/s1
