18
gdb 41785	2.63946	1.75696	1.2765	1.0869	72.66	-0.2402	0.0187	0.2589	1004.2761	0.150254	-439.068889	-439.061465	-439.06052	-439.101155	28.346	
C	 0.2271413152	 1.7045333153	-0.0654069776	-0.076481
O	 1.4065572146	 1.4732649541	-0.8635211129	-0.295193
C	 1.2391556252	 0.0364291479	-0.7988365649	 0.116563
C	 2.5099991743	-0.6693030162	-0.3647633773	-0.239038
C	 2.9982895608	-0.2203110225	 1.0013754253	-0.085016
O	 2.3069882271	-0.8346866845	 2.098627604	-0.222307
C	 0.9832618804	-0.6277247115	 2.2922573356	 0.126495
N	 0.0408245481	-0.2126954397	 1.5647985948	-0.266931
C	 0.0368430965	 0.1868775204	 0.1861531909	-0.039244
H	 0.4410937795	 2.2943716639	 0.8323799044	 0.108769
H	-0.5706048586	 2.1877856638	-0.6419497246	 0.104944
H	 0.916182301	-0.3514975914	-1.7754428094	 0.071167
H	 2.3602695241	-1.7555231336	-0.3712212916	 0.11483
H	 3.2886806085	-0.4465682238	-1.1053144225	 0.117696
H	 4.0415421965	-0.5035901148	 1.1559918965	 0.118294
H	 2.9206041295	 0.8701570559	 1.0848559877	 0.12892
H	 0.7508054836	-0.9235487078	 3.3164768202	 0.120864
H	-0.8901641463	-0.2000876157	-0.2457203286	 0.095667
80.35	109.6442	251.1812	258.8939	332.6287	416.4775	433.8846	540.6086	612.2335	723.2131	761.5151	828.7724	847.1885	884.2142	926.5614	967.226	978.6506	993.3014	1016.6436	1063.6704	1086.571	1114.4266	1136.7829	1163.3363	1186.9703	1228.5087	1248.6347	1290.3807	1305.5704	1350.1171	1369.632	1386.8946	1399.7394	1421.5263	1445.3077	1453.9776	1503.7354	1520.5043	1767.0869	2993.5723	3022.9752	3032.5665	3043.8632	3059.5837	3077.3309	3079.5859	3111.2451	3126.7697
C1OC2CCOC=NC12	C1O[C@H]2CCOC=N[C@@H]12	
InChI=1S/C6H9NO2/c1-2-8-4-7-5-3-9-6(1)5/h4-6H,1-3H2	InChI=1S/C6H9NO2/c1-2-8-4-7-5-3-9-6(1)5/h4-6H,1-3H2/t5-,6-/m0/s1
