18
gdb 69934	3.44184	1.54715	1.3454	0.5108	76.08	-0.2054	0.0169	0.2223	985.2322	0.149044	-401.899701	-401.892578	-401.891633	-401.930806	29.397	
O	 0.0298582904	 1.4591250284	-0.2184963928	-0.459562
C	 0.0271852822	 0.0837693847	-0.1311334911	 0.380578
C	-0.1463062997	-0.757854058	-1.3516589317	-0.335969
C	-1.0961402283	-0.9461946026	-0.1788926446	-0.111775
N	-0.5167827024	-1.6982681554	 0.9418027325	-0.093075
C	 0.0235889963	-3.0476387251	 0.6754777633	-0.22372
C	 1.5225533056	-2.8505131921	 0.6247076019	-0.072968
C	 1.8608879712	-1.5759106178	 0.8260946435	-0.077803
C	 0.6360685136	-0.7394830462	 1.031624416	-0.106257
H	-0.3395127934	 1.8149245664	 0.5980641575	 0.28655
H	-0.5873757349	-0.2155929339	-2.182361069	 0.119682
H	 0.5806746468	-1.5149027831	-1.6312049273	 0.113659
H	-2.1700688124	-0.8304893852	-0.2746831173	 0.09471
H	-0.2669355692	-3.7528262057	 1.4670584658	 0.106199
H	-0.3739410024	-3.4513034682	-0.26749854	 0.106697
H	 2.2137597908	-3.6687688872	 0.4532644305	 0.098547
H	 2.8687248373	-1.1794112684	 0.8471075093	 0.102401
H	 0.6461911985	-0.1689050405	 1.9719474734	 0.072106
157.6707	209.5453	251.2197	353.4598	378.9909	396.0443	504.4834	526.2065	608.0296	681.4392	719.1717	765.1292	807.4983	851.7071	860.1515	923.568	933.7148	961.8057	970.1748	1005.5188	1008.092	1034.932	1067.8084	1082.0343	1096.213	1122.017	1147.3443	1193.5271	1216.0158	1225.2965	1268.6117	1294.7947	1317.4773	1342.0299	1360.2841	1426.3429	1497.3863	1503.38	1668.4599	2988.8288	2993.8595	3013.869	3120.1806	3169.5673	3186.174	3209.9714	3215.7971	3786.8297
OC12CC1N1CC=CC21	O[C@]12C[C@H]1N1CC=C[C@@H]21	
InChI=1S/C7H9NO/c9-7-4-6(7)8-3-1-2-5(7)8/h1-2,5-6,9H,3-4H2	InChI=1S/C7H9NO/c9-7-4-6(7)8-3-1-2-5(7)8/h1-2,5-6,9H,3-4H2/t5-,6+,7-/m0/s1
