15
gdb 62348	4.14057	1.14032	1.09751	2.8183	75.23	-0.2364	-0.0052	0.2312	1115.7419	0.111009	-416.724968	-416.716649	-416.715704	-416.757746	31.546	
N	-0.1498722052	 1.441397445	-0.2117717285	-0.572257
C	-0.0807702469	 0.0110084317	-0.057928365	 0.094807
C	 0.99179178	-0.606012451	-0.797118239	 0.300125
C	 1.9027981611	-1.1219007169	-1.3873924413	-0.419039
C	-0.4668473397	-0.7380674051	 1.2001625913	 0.026277
O	-1.4756668724	 0.0173782348	 1.9109661624	-0.280638
C	-2.3683087317	-0.1673295669	 0.8426462731	 0.421914
N	-3.5810549887	 0.1227730839	 0.7454481849	-0.546111
C	-1.3629495721	-0.8559093432	-0.0181545819	-0.223232
H	-0.8124115027	 1.8247930809	 0.4564690938	 0.250349
H	 0.7577893263	 1.8431378703	 0.005570005	 0.239088
H	 2.7037525111	-1.5720717002	-1.920518219	 0.204351
H	 0.1112293139	-1.4608972023	 1.7598226825	 0.132604
H	-3.9293743302	 0.5685333052	 1.5958115598	 0.235288
H	-1.5442805928	-1.6563153562	-0.7190930981	 0.136475
109.1515	122.5176	151.5711	187.7442	281.5724	363.1118	422.24	473.2103	530.3027	550.7473	606.1298	652.0126	681.2347	724.5634	754.0565	826.4531	849.0678	870.4134	900.4152	938.7534	966.2811	991.1501	1032.9761	1051.5331	1092.4932	1173.8364	1221.0939	1274.467	1318.1096	1380.9737	1653.9559	1832.1211	2241.2807	3212.0001	3242.4546	3481.828	3491.1339	3500.7701	3573.509
NC1(C#C)C2OC(=N)C12	N[C@@]1(C#C)[C@H]2O[C]([NH])[C@@H]12	
InChI=1S/C6H6N2O/c1-2-6(8)3-4(6)9-5(3)7/h1,3-4,7H,8H2	InChI=1S/C6H6N2O/c1-2-6(8)3-4(6)9-5(3)7/h1,3-4,7H,8H2/t3-,4-,6+/m0/s1
