18
gdb 40479	3.85548	1.35671	1.24561	2.3141	75.86	-0.2398	0.0686	0.3084	1051.1064	0.148669	-401.82421	-401.817083	-401.816139	-401.856012	28.388	
N	-0.2231619605	 1.3419407338	-0.0815666567	-0.325762
C	 1.1891258316	 1.0161816626	 0.1871031228	-0.239138
C	 0.1815060242	-0.0665091458	 0.0616232491	-0.171752
C	-0.2401912529	-0.7976200363	 1.2802073288	 0.503197
O	-0.2520710924	-0.0544520389	 2.5449458806	-0.366829
C	-0.7139031478	-1.395189356	 2.8948995505	 0.084159
C	-1.5565944059	-1.5948092105	 1.6020932019	-0.136274
C	-0.8882022145	-2.9528645835	 1.2991313742	-0.281364
C	 0.260167669	-2.1361777687	 1.9301223259	-0.137043
H	-0.6586347451	 1.6350875404	 0.7918783444	 0.24528
H	 1.8709064224	 1.2140987568	-0.6349142171	 0.117817
H	 1.5820716064	 1.2145770503	 1.1795374712	 0.131115
H	 0.1309034145	-0.6480392876	-0.8564316378	 0.096057
H	-0.9629859107	-1.6021402772	 3.9347049052	 0.098912
H	-2.5783640492	-1.257035061	 1.4306253899	 0.088238
H	-1.247502838	-3.8091243772	 1.8760968219	 0.102042
H	-0.7790980672	-3.2241139019	 0.2459652281	 0.10541
H	 1.295120076	-2.4116147293	 2.1318610971	 0.085935
78.5078	169.8952	181.1239	302.6318	420.8781	483.1946	552.8488	635.0516	749.4815	775.1251	808.9639	843.2043	857.159	870.8875	891.641	902.9003	921.9835	971.096	982.5276	1013.5242	1032.4736	1062.0294	1072.5744	1103.4315	1111.4743	1138.784	1143.6516	1167.7232	1178.6734	1194.7536	1230.9832	1242.1477	1276.6091	1287.6422	1309.3433	1330.0751	1450.0166	1503.7832	1516.5493	3056.4263	3111.882	3116.4883	3120.7044	3123.3654	3131.667	3138.473	3208.5256	3485.1905
N1CC1C12OC3C1CC23	N1C[C@H]1[C@@]12O[C@H]3[C@@H]1C[C@@H]23	
InChI=1S/C7H9NO/c1-3-6-4(1)7(3,9-6)5-2-8-5/h3-6,8H,1-2H2	InChI=1S/C7H9NO/c1-3-6-4(1)7(3,9-6)5-2-8-5/h3-6,8H,1-2H2/t3-,4+,5-,6-,7+/m0/s1
