21
gdb 122859	7.44646	0.49553	0.47142	2.5405	77.6	-0.2537	0.0173	0.271	2322.1839	0.179435	-461.388066	-461.376859	-461.375915	-461.426495	37.153	
C	 0.0141151899	 1.4281424437	-0.0468986721	-0.227504
O	 0.0086589704	 0.0223696603	-0.0155499333	-0.229685
C	 0.6466548445	-0.5552378588	-1.1316875331	-0.052795
C	 0.5830825304	-2.0701219113	-0.994800128	-0.189662
C	 1.2546816347	-2.7794240211	-2.1691845542	-0.335213
C	 1.2035375935	-4.28925809	-2.0516158026	 0.448691
O	 0.7006445303	-4.9106654649	-1.1500873412	-0.352408
O	 1.8076901159	-4.8683524968	-3.1108447993	-0.235081
C	 1.817313224	-6.3010234623	-3.1021532323	-0.239583
H	 1.0384832518	 1.8346384759	-0.0524680147	 0.101605
H	-0.5125604838	 1.8210742002	-0.9316718441	 0.101601
H	-0.4986309995	 1.7785073766	 0.8522348636	 0.127262
H	 0.1547084159	-0.2302748003	-2.0664888937	 0.080919
H	 1.6967495591	-0.2160168932	-1.1924112631	 0.080926
H	 1.0603247028	-2.367424694	-0.0561288143	 0.122842
H	-0.463188128	-2.3813149446	-0.9189207002	 0.122785
H	 0.7899453087	-2.503712358	-3.1241833145	 0.131641
H	 2.3083061585	-2.4883267948	-2.2650731044	 0.13164
H	 0.7976253771	-6.6946077366	-3.0939781818	 0.140103
H	 2.3343804593	-6.6003851666	-4.0139522013	 0.131854
H	 2.3441785845	-6.6789167635	-2.2221698256	 0.140063
31.6226	49.4014	85.7884	111.0213	121.99	126.9179	177.2533	214.7125	240.3526	273.3859	333.3298	425.4387	520.6874	586.0684	701.4321	763.3305	879.5462	896.9096	984.4016	1021.7133	1066.1659	1091.3877	1117.1796	1167.8648	1179.4249	1180.1884	1193.9157	1213.6613	1221.3385	1233.8863	1297.0892	1302.0063	1309.2584	1394.2726	1432.3018	1461.0102	1474.3571	1482.4403	1482.846	1486.0195	1494.4986	1498.626	1505.7585	1532.3412	1822.682	2933.2414	2956.6657	2966.4513	3007.5069	3033.4306	3051.0733	3062.5385	3063.4427	3107.2181	3113.2941	3124.7884	3157.5506
COCCCC(=O)OC	COCCCC(=O)OC	
InChI=1S/C6H12O3/c1-8-5-3-4-6(7)9-2/h3-5H2,1-2H3	InChI=1S/C6H12O3/c1-8-5-3-4-6(7)9-2/h3-5H2,1-2H3
