23
gdb 122624	3.29422	0.84388	0.73331	2.1704	82.83	-0.2539	0.0747	0.3286	1625.7228	0.20489	-425.407844	-425.397701	-425.396757	-425.443847	37.124	
C	-0.0112572371	 1.6433464059	 0.0108224715	-0.381749
C	-0.0257594348	 0.1168101809	 0.0072012935	-0.034717
C	 1.1433741184	-0.5270579387	-0.8004491067	-0.227876
C	 1.923649819	-0.7319121796	 0.528418052	-0.255791
C	 0.5776227837	-0.5387644178	 1.2788268302	 0.169812
O	 0.5462980061	 0.2601766509	 2.4342270559	-0.269376
C	 1.1054791859	-0.3512344997	 3.5851661941	-0.079098
C	 0.8113351689	 0.573433012	 4.7560702815	-0.058579
O	-0.5787877896	 0.7694354041	 4.9194983071	-0.422034
H	 0.9808798151	 2.0393461884	 0.2482668419	 0.11733
H	-0.3000686154	 2.0257659911	-0.9738755709	 0.11016
H	-0.7093373637	 2.0438982642	 0.7512939232	 0.11854
H	-1.0272966227	-0.2389224824	-0.2523563297	 0.068253
H	 0.8591408232	-1.4744513961	-1.2653281065	 0.101811
H	 1.6137961268	 0.1039927791	-1.5582828278	 0.10025
H	 2.4603200823	-1.6728004752	 0.6690542987	 0.095797
H	 2.6036538265	 0.0992462773	 0.7347705209	 0.109555
H	 0.1052931764	-1.5118727903	 1.4853212211	 0.065763
H	 0.6380788527	-1.3344973369	 3.7548593058	 0.094634
H	 2.1903391716	-0.5003233347	 3.4685158645	 0.091105
H	 1.1904882801	 0.1301977409	 5.6828244401	 0.106522
H	 1.3375410537	 1.5287218869	 4.5981985995	 0.091615
H	-0.9130445571	 0.9822461697	 4.0399688203	 0.288073
46.8684	65.8439	105.7984	148.3243	166.3754	225.8558	266.7292	299.9921	361.5497	427.5804	433.1184	482.1832	564.4969	683.3572	766.9986	821.4491	877.6791	885.9475	906.4279	922.964	951.1398	967.3775	1018.5557	1071.6203	1077.9822	1096.8629	1125.3961	1141.9098	1173.1536	1187.6057	1214.2656	1237.2247	1250.8547	1261.4476	1264.5243	1284.7169	1302.2707	1365.5646	1369.5575	1385.1724	1410.6419	1424.1798	1443.1303	1478.6909	1493.9631	1496.4839	1499.2952	1500.5137	1510.4045	2970.0104	2976.4561	2978.4071	3014.1055	3036.6	3052.3311	3060.4511	3067.1787	3077.9312	3103.6875	3106.3096	3112.4579	3123.3879	3793.0411
CC1CCC1OCCO	C[C@H]1CC[C@H]1OCCO	
InChI=1S/C7H14O2/c1-6-2-3-7(6)9-5-4-8/h6-8H,2-5H2,1H3	InChI=1S/C7H14O2/c1-6-2-3-7(6)9-5-4-8/h6-8H,2-5H2,1H3/t6-,7+/m0/s1
