18
gdb 85559	2.76155	1.41543	1.11716	5.0631	75.74	-0.237	0.0165	0.2534	1127.7863	0.148798	-435.292764	-435.284073	-435.283129	-435.326004	32.986	
C	 0.5311932619	 1.3514921448	-0.3049311865	-0.399066
C	-0.0867970672	 0.0259828219	 0.1531105688	 0.032788
O	-0.1377220262	-0.9085816187	-0.9317024565	-0.25533
C	 0.9003942693	-1.7743158402	-1.1263088626	 0.381368
N	 0.9143405589	-2.585446338	-2.0971260037	-0.516434
C	 2.0250301136	-1.7270490067	-0.1161944562	-0.25269
N	 1.6289046732	-1.370813714	 1.23765001	-0.295961
C	 0.6495433141	-0.5640256313	 1.3430670233	 0.355631
N	 0.1636236884	-0.1975528743	 2.5796305863	-0.548544
H	 1.5874056241	 1.2264574519	-0.5586248703	 0.138914
H	 0.0011206306	 1.7209815494	-1.1863969857	 0.137827
H	 0.4586985305	 2.1046088627	 0.4863580263	 0.119277
H	-1.1365893167	 0.1889106085	 0.4195093712	 0.104505
H	 0.0820492833	-2.4578691379	-2.6770361282	 0.21579
H	 2.5029610638	-2.7084128985	-0.1158853871	 0.144374
H	 2.7874787672	-1.0196961031	-0.4790297064	 0.12449
H	 0.7844799712	-0.3952451911	 3.3510820673	 0.259413
H	-0.33985767	 0.6718537344	 2.6525614102	 0.253649
78.4967	105.7065	224.3756	227.9149	259.5697	331.9026	369.7191	401.3306	436.4992	465.5242	536.9312	547.4958	590.5909	705.4613	751.6765	772.3538	855.3406	904.5888	937.2648	998.767	1010.9619	1045.2491	1092.9742	1114.7452	1160.0302	1201.7516	1239.9636	1292.6471	1324.2802	1340.5135	1385.2097	1404.8005	1436.8986	1479.2109	1490.6216	1496.0501	1631.8755	1748.3616	1755.4343	2984.7262	3043.5975	3051.6734	3107.357	3116.3536	3130.8509	3458.3458	3574.7525	3693.8229
CC1OC(=N)CN=C1N	C[C@H]1O[C]([NH])CN=C1N	
InChI=1S/C5H9N3O/c1-3-5(7)8-2-4(6)9-3/h3,6H,2H2,1H3,(H2,7,8)	InChI=1S/C5H9N3O/c1-3-5(7)8-2-4(6)9-3/h3,6H,2H2,1H3,(H2,7,8)/t3-/m1/s1
