18
gdb 68013	2.91622	1.60972	1.24451	2.5432	73.48	-0.26	0.0261	0.2861	1035.7226	0.147786	-439.091663	-439.083768	-439.082823	-439.123413	31.913	
C	-0.1107531772	 1.4906746399	-0.0163611407	-0.489291
C	 0.0934439449	 0.006422156	 0.0345403063	 0.403061
C	 1.0293666081	-0.808653794	-0.8941258759	-0.32164
C	 0.6753534308	-1.926553138	 0.1516323875	 0.322651
O	 1.3356854877	-3.1233879263	 0.2723643963	-0.480347
C	 0.6879297238	-0.7828169796	 1.2288556506	-0.321646
C	-0.8123553539	-1.9980096851	-0.0867732284	 0.40077
N	-1.482202688	-3.0605245434	-0.1815335445	-0.612742
O	-1.2012941669	-0.6956085959	-0.1651222241	-0.283796
H	 0.8428062152	 2.0051487453	 0.1307022104	 0.12814
H	-0.5216709946	 1.7915475934	-0.9845613412	 0.135754
H	-0.8032832943	 1.8128700415	 0.7668257569	 0.135754
H	 0.7174079596	-0.9471427699	-1.9316012819	 0.1126
H	 2.0728643207	-0.496109839	-0.8278871324	 0.114334
H	 0.6611077562	-3.8135073281	 0.1724341163	 0.298941
H	 1.7007684926	-0.4679442694	 1.4857045858	 0.114333
H	 0.0659183866	-0.8978525802	 2.1192049825	 0.112599
H	-2.4744746615	-2.890412707	-0.3431345835	 0.230525
170.8376	209.6002	233.3476	258.5532	272.9039	377.4366	427.1632	481.0648	498.2628	525.1429	580.2149	622.1132	711.8036	714.969	807.1254	846.4486	856.6444	866.9924	945.3434	962.7019	995.7528	1021.8466	1030.1908	1052.0616	1127.9236	1168.4409	1170.8289	1179.6995	1198.0459	1281.5906	1335.3829	1395.4296	1422.3738	1426.147	1471.9335	1481.2932	1493.9212	1518.6376	1811.1008	3044.8882	3070.1139	3076.4556	3116.6509	3123.1675	3141.0331	3146.8008	3496.104	3704.0686
CC12CC(O)(C1)C(=N)O2	C[C@@]12C[C@@](O)(C1)[C]([NH])O2	
InChI=1S/C6H9NO2/c1-5-2-6(8,3-5)4(7)9-5/h7-8H,2-3H2,1H3	InChI=1S/C6H9NO2/c1-5-2-6(8,3-5)4(7)9-5/h7-8H,2-3H2,1H3/t5-,6-
