16
gdb 49719	3.07978	1.46384	1.1183	5.1677	73.82	-0.24	-0.0228	0.2172	1071.2811	0.125628	-434.027608	-434.019937	-434.018993	-434.0602	28.332	
N	-0.0449103705	 1.3106634542	-0.2925364711	-0.448309
C	 0.004314095	 0.0376374548	-0.2393990995	 0.064156
N	-1.1312730924	-0.7124246908	-0.0725916696	-0.071912
C	-1.3486395651	-2.1484071403	 0.1084425703	-0.070135
C	-1.3218598918	-2.6301015737	 1.5733494435	-0.09009
O	-2.6950474037	-2.2249423179	 1.7782472656	-0.279183
C	-2.8433412608	-1.8208926049	 0.400041857	 0.010123
C	-2.4835197496	-0.3515426696	 0.1671980104	 0.396464
N	-3.1237917337	 0.7290326854	 0.1968711493	-0.545832
H	 0.8847926092	 1.6996205955	-0.4319010194	 0.231976
H	 0.9078205892	-0.5783640866	-0.3302415254	 0.100177
H	-0.9750940458	-2.7922418866	-0.6868552009	 0.10792
H	-1.2115597948	-3.7159573145	 1.6817113759	 0.114208
H	-0.6222380166	-2.1163925327	 2.2413032532	 0.117086
H	-3.7173312911	-2.2471741127	-0.09155932	 0.108825
H	-2.4964288274	 1.5181139406	 0.0265465206	 0.254526
83.443	135.3435	181.5794	198.542	259.9593	377.1177	437.8483	513.462	658.5884	714.4066	781.1854	803.5419	836.7173	882.9541	900.6918	927.5873	989.0344	993.0267	1021.2063	1049.7591	1068.455	1105.3249	1162.2929	1181.6849	1185.6042	1258.699	1264.198	1293.6049	1311.742	1348.8613	1388.0855	1441.5506	1507.6448	1696.7799	1799.2928	3023.7826	3041.9312	3079.7525	3120.001	3130.467	3472.0291	3516.3472
N=CN1C2COC2C1=N	[NH][CH]N1[C@H]2CO[C@H]2[C]1[NH]	
InChI=1S/C5H7N3O/c6-2-8-3-1-9-4(3)5(8)7/h2-4,6-7H,1H2	InChI=1S/C5H7N3O/c6-2-8-3-1-9-4(3)5(8)7/h2-4,6-7H,1H2/t3-,4+/m0/s1
