18
gdb 32446	3.23974	1.2177	0.89503	2.48	76.94	-0.1783	0.055	0.2333	1292.2588	0.146018	-439.10687	-439.096786	-439.095842	-439.142051	35.485	
C	 0.0641993209	 1.3333736037	 0.0068142256	-0.243286
O	 0.0176339572	-0.0778495483	-0.009317328	-0.28384
C	-1.2343552089	-0.6191784036	 0.0058968338	 0.243547
C	-2.4813201805	-0.0347038578	 0.0343677625	-0.222464
N	-3.3976036577	-1.0660435251	 0.0372990628	-0.329531
C	-2.7623508195	-2.2922605198	 0.013308937	 0.247647
C	-3.4894323731	-3.5931606566	 0.0108046226	-0.508879
C	-1.4121253201	-2.030244568	-0.00728956	 0.135473
O	-0.4119302167	-2.9616071827	-0.0366564514	-0.465854
H	 1.1175101177	 1.6191886939	-0.0079354849	 0.129697
H	-0.4409380041	 1.7568143386	-0.8725751855	 0.11805
H	-0.4100882977	 1.735422122	 0.9130380974	 0.117998
H	-2.7894020933	 0.9958919009	 0.0510174898	 0.115405
H	-4.3931045133	-0.9439035643	 0.0606194535	 0.254195
H	-4.1364112189	-3.7100698043	-0.8683796024	 0.121028
H	-2.7640586139	-4.409789844	-0.002095623	 0.150325
H	-4.1191191256	-3.7224799672	 0.9007055609	 0.120629
H	 0.4210462775	-2.4773088676	-0.0374760807	 0.29986
64.8129	80.5162	156.9813	160.7459	178.0315	223.7714	237.9383	276.9257	300.2921	337.0016	407.7342	528.7666	604.7562	609.6234	622.18	697.3212	739.6647	769.4957	968.246	1000.4708	1061.5228	1101.313	1136.2086	1182.7287	1211.2286	1232.5263	1268.9591	1304.6587	1345.8702	1414.9682	1458.681	1474.0037	1480.7156	1483.0034	1493.101	1509.7187	1524.2279	1602.9485	1693.9319	2992.5829	3009.4217	3045.4333	3050.3388	3125.0182	3129.4692	3279.7391	3701.4785	3815.5029
COC1=CNC(C)=C1O	COc1c[nH]c(C)c1O	
InChI=1S/C6H9NO2/c1-4-6(8)5(9-2)3-7-4/h3,7-8H,1-2H3	InChI=1S/C6H9NO2/c1-4-6(8)5(9-2)3-7-4/h3,7-8H,1-2H3
