16
gdb 61114	2.11722	1.31514	1.04295	2.8684	74.96	-0.2753	-0.0567	0.2186	1195.4319	0.120235	-400.736273	-400.726366	-400.725422	-400.771437	34.785	
C	 0.0799158924	 1.6494810864	-0.2935765427	-0.421369
C	 0.0164617183	 0.1100664768	-0.1207678046	-0.030232
C	 0.6547949416	-0.3530574337	 1.2171950953	-0.386233
C	 2.0488938898	 0.0394791573	 1.3582144648	 0.297484
C	 3.1989809834	 0.3709979294	 1.4618400886	-0.417831
C	-1.4761420036	-0.2838190983	-0.1508502481	 0.153295
O	-2.0832803342	-0.6597524211	 0.8122073373	-0.234691
C	 0.6597913167	-0.5392661619	-1.2691580612	 0.275501
N	 1.1237009672	-1.0607286894	-2.1904110588	-0.323405
H	 1.1217195921	 1.9740918963	-0.3118144763	 0.165862
H	-0.4011284057	 1.9602794243	-1.2244765982	 0.142162
H	-0.4274647163	 2.132363819	 0.5462783879	 0.142007
H	 0.04932588	 0.065742002	 2.0275174023	 0.156116
H	 0.5569770654	-1.4407842588	 1.2980190743	 0.157616
H	 4.2191846288	 0.6494379534	 1.5612541699	 0.205468
H	-1.9568478159	-0.1553273417	-1.1432115104	 0.118249
58.3205	78.5319	126.191	176.8409	187.1594	230.3782	254.6777	321.3971	338.6155	348.6319	454.0542	528.5681	580.7388	631.443	634.1792	662.5346	730.1959	880.9952	913.0285	968.058	983.9185	1010.155	1103.9128	1163.5996	1196.8573	1281.8677	1341.0695	1400.3447	1416.4181	1460.2455	1490.0676	1496.5257	1840.0374	2243.6649	2353.6103	2919.9192	3050.4723	3052.4383	3089.2051	3128.8549	3145.4269	3503.828
CC(CC#C)(C=O)C#N	C[C@@](CC#C)(C=O)C#N	
InChI=1S/C7H7NO/c1-3-4-7(2,5-8)6-9/h1,6H,4H2,2H3	InChI=1S/C7H7NO/c1-3-4-7(2,5-8)6-9/h1,6H,4H2,2H3/t7-/m0/s1
