21
gdb 73281	2.33178	1.67511	1.34951	1.4252	77.51	-0.2405	0.0774	0.3179	1059.5146	0.184343	-424.22119	-424.213123	-424.212179	-424.253262	32.637	
O	-0.0947008641	 1.4036766143	 0.1377315858	-0.487846
C	 0.0124218595	 0.0080722048	-0.0312242473	 0.404563
C	 0.2282162198	-0.5543423684	-1.4687769761	-0.291918
C	-0.8712414276	-1.6101880964	-1.1633499864	-0.253362
C	-1.3703840065	-0.6930491178	-0.0079012362	 0.001998
C	-1.8498159022	-1.2411591104	 1.3359159376	-0.246543
C	-0.687187088	-1.7770959627	 2.1765299001	-0.075923
O	 0.3701860192	-0.8323901667	 2.2553895355	-0.238312
C	 0.9657795338	-0.6336024745	 0.9899601813	-0.142488
H	 0.7874234557	 1.77264874	 0.2538138353	 0.272503
H	-0.1086164802	 0.1785938673	-2.2060010118	 0.107779
H	 1.2263086421	-0.9089443401	-1.7423247175	 0.089027
H	-1.5864805457	-1.8342805718	-1.9568113172	 0.101208
H	-0.450363957	-2.5532755704	-0.8032027409	 0.101012
H	-2.1032005427	 0.0118138964	-0.4117817779	 0.084133
H	-2.3304190619	-0.4313577356	 1.8964448297	 0.112829
H	-2.6026065724	-2.026586539	 1.1937268468	 0.093228
H	-1.0048844139	-1.9707708676	 3.204797933	 0.106136
H	-0.3053400281	-2.7253341954	 1.7597680313	 0.083953
H	 1.3418346486	-1.5948868525	 0.6008053257	 0.086248
H	 1.8357180519	 0.0157001463	 1.1497532292	 0.091775
145.2562	169.6417	227.9698	251.0004	312.9067	339.9042	391.2317	446.3324	485.7663	502.8084	601.6141	644.071	734.8747	788.7745	856.8061	869.3027	895.7978	927.8669	969.3329	982.5019	994.3439	1028.7194	1042.6808	1096.6082	1127.6449	1134.0885	1159.9222	1184.0075	1201.8779	1235.8181	1250.286	1261.5986	1267.0626	1306.5044	1335.2336	1357.8355	1370.4198	1388.1836	1407.326	1422.2699	1472.7102	1479.8047	1484.1462	1499.3544	1508.4046	2955.8435	2963.0044	3027.4283	3045.3483	3051.7826	3060.7713	3063.0884	3071.7403	3088.1574	3106.5172	3121.8192	3801.0397
OC12CCC1CCOC2	O[C@]12CC[C@H]1CCOC2	
InChI=1S/C7H12O2/c8-7-3-1-6(7)2-4-9-5-7/h6,8H,1-5H2	InChI=1S/C7H12O2/c8-7-3-1-6(7)2-4-9-5-7/h6,8H,1-5H2/t6-,7-/m0/s1
