20
gdb 106233	2.64284	1.41011	1.22012	2.0515	79.92	-0.2265	0.0075	0.234	1123.6835	0.17103	-403.121993	-403.113242	-403.112298	-403.155419	33.523	
C	-0.266820687	 1.4216856854	 0.1913970444	-0.319696
N	 0.0456368748	 0.0015003485	 0.2321590417	-0.142412
C	 1.3706278544	-0.4855075732	-0.1357658099	-0.098975
C	 2.5694402991	 0.4675425819	-0.1345867176	-0.295231
C	 2.6743408448	 0.9125717837	 1.3091868788	-0.08127
C	 1.7693575078	 0.3057730035	 2.0815908134	-0.138137
C	 0.8906638602	-0.6056164346	 1.2870481503	 0.285009
C	 0.2997056121	-1.8459313586	 1.9087009879	-0.147005
O	-0.7502874719	-1.5261419527	 2.8107279565	-0.42273
H	 0.5164344339	 2.0853579668	 0.5821620232	 0.112161
H	-0.471571491	 1.7001929262	-0.8475861946	 0.121299
H	-1.1784485572	 1.5994608926	 0.7711989177	 0.116655
H	 1.3764760624	-1.3265992417	-0.8243333103	 0.08841
H	 3.4742141911	-0.0575093095	-0.4654186163	 0.115956
H	 2.4390262713	 1.3144235405	-0.8215982538	 0.115452
H	 3.3877709031	 1.6598751212	 1.6394793402	 0.098518
H	 1.6369564629	 0.4507604838	 3.1470775413	 0.107338
H	-0.0481082824	-2.5179364174	 1.1109268662	 0.091295
H	 1.0544754112	-2.3777197008	 2.4980103039	 0.106326
H	-1.4155533296	-1.0608746657	 2.2909305869	 0.287036
57.7198	149.0921	156.5597	237.4095	252.7845	296.7792	331.0131	385.3775	431.2544	531.5036	538.0882	656.2602	727.6397	739.9449	780.761	828.6679	886.5524	929.9524	948.8331	967.4967	982.1775	1012.599	1033.8482	1079.3873	1104.0525	1143.7945	1150.9985	1167.6208	1186.1447	1205.2138	1269.182	1293.7545	1315.9911	1344.983	1390.7625	1405.5968	1430.8932	1449.8981	1466.6643	1485.4526	1494.7861	1509.5383	1663.5125	3000.1141	3003.7437	3022.1332	3049.6202	3070.5361	3074.6482	3096.4862	3135.8067	3185.2605	3214.9705	3799.7614
CN1C2CC=CC12CO	CN1[C@H]2CC=C[C@@]12CO	
InChI=1S/C7H11NO/c1-8-6-3-2-4-7(6,8)5-9/h2,4,6,9H,3,5H2,1H3	InChI=1S/C7H11NO/c1-8-6-3-2-4-7(6,8)5-9/h2,4,6,9H,3,5H2,1H3/t6-,7-,8?/m0/s1
