17
gdb 82002	2.56379	1.44335	1.3037	2.765	74.22	-0.2481	0.0212	0.2693	1058.0291	0.132517	-421.745097	-421.736112	-421.735167	-421.77833	33.924	
C	-0.0899937696	 1.5630347485	-0.0860570586	-0.404994
C	 0.0014444939	 0.0473567874	-0.0418590884	-0.107559
C	 0.7085927214	-0.6551158342	-1.2099829208	 0.043326
O	 2.0478579509	-0.1510669181	-1.2551029249	-0.24154
C	 1.7614640836	-1.2080437569	-0.3445881239	-0.016448
C	 1.1278149639	-0.5863899497	 0.9160754741	 0.215358
O	 1.9958076122	 0.3054988579	 1.5766956519	-0.457197
C	 0.578942969	-1.5894955569	 1.8192507283	 0.262173
C	 0.1270652065	-2.398221773	 2.5865639555	-0.462531
H	 0.8845049031	 1.9967921632	-0.3165195912	 0.148886
H	-0.8079052152	 1.8832833081	-0.8488107213	 0.113927
H	-0.4255336806	 1.9639299077	 0.8759525821	 0.110396
H	-0.9654673408	-0.4138529905	 0.1756322361	 0.087873
H	 0.2907187286	-1.0477452222	-2.1292395686	 0.105584
H	 2.3537608082	-2.1131213897	-0.4072218584	 0.112718
H	 1.621795136	 0.4994042178	 2.4428215905	 0.287403
H	-0.2683509211	-3.1171713694	 3.2612561875	 0.202625
106.1773	146.9998	177.9851	196.7468	226.8068	231.4885	278.0633	393.9665	475.4468	505.7805	536.3622	605.3814	623.0249	668.3672	672.7407	760.1537	840.8776	863.5867	875.5033	951.0714	1005.5918	1024.3707	1043.6834	1057.8042	1079.3828	1132.9377	1182.911	1229.4663	1234.2556	1259.4641	1349.4826	1372.9184	1381.2825	1407.7944	1488.5266	1497.2248	2227.6077	3038.0825	3079.0848	3097.4047	3141.6217	3185.7733	3200.3162	3498.9431	3815.5623
CC1C2OC2C1(O)C#C	C[C@H]1[C@H]2O[C@H]2[C@]1(O)C#C	
InChI=1S/C7H8O2/c1-3-7(8)4(2)5-6(7)9-5/h1,4-6,8H,2H3	InChI=1S/C7H8O2/c1-3-7(8)4(2)5-6(7)9-5/h1,4-6,8H,2H3/t4-,5+,6+,7-/m0/s1
