14
gdb 69879	2.7968	1.66319	1.19761	4.0148	66.87	-0.2757	-0.0205	0.2552	993.2759	0.098471	-436.601962	-436.594299	-436.593355	-436.634065	28.806	
C	-0.1180153729	 1.5496645084	 0.1437040856	-0.520908
C	 0.1034035932	 0.0782755396	 0.0751089052	 0.346372
O	-0.8031727384	-0.8380436519	 0.6639407771	-0.243245
C	 0.5823849081	-0.9482407524	 1.002695426	-0.104026
C	 1.300253523	-1.7157781199	-0.1713855926	-0.11105
O	 0.335096424	-2.0478929158	-1.1573947389	-0.245053
C	 0.8197539398	-0.7054953261	-1.1301984175	 0.303265
C	 1.4260836071	-0.1293495428	-2.2826435303	 0.19515
N	 1.9064012297	 0.401044691	-3.1920657118	-0.337344
H	 0.791696105	 2.0897798059	-0.1353853219	 0.14684
H	-0.9138847903	 1.8501761685	-0.5459112954	 0.1514
H	-0.4070954296	 1.8412416422	 1.1563122831	 0.146487
H	 0.8719255603	-0.9088916601	 2.0447601347	 0.128459
H	 2.2348762709	-2.2616228567	-0.1477533534	 0.143654
126.7821	134.5337	188.188	250.8717	292.7236	425.3476	449.3732	490.9137	523.9386	589.6139	614.3041	720.1344	778.0219	827.0356	835.0888	872.8609	925.7817	990.725	994.6896	1028.1563	1096.924	1106.2895	1178.6753	1215.9461	1254.2107	1403.6023	1412.8431	1466.7748	1482.8164	1496.1634	2349.9764	3042.5212	3109.3832	3130.7547	3204.6554	3213.0379
CC12OC1C1OC21C#N	C[C@]12O[C@H]1[C@H]1O[C@@]21C#N	
InChI=1S/C6H5NO2/c1-5-3(8-5)4-6(5,2-7)9-4/h3-4H,1H3	InChI=1S/C6H5NO2/c1-5-3(8-5)4-6(5,2-7)9-4/h3-4H,1H3/t3-,4+,5-,6+/m0/s1
