17
gdb 63155	2.3684	1.68706	1.33987	2.5698	68.38	-0.2321	-0.042	0.1901	1008.5967	0.134157	-458.931238	-458.922735	-458.921791	-458.964446	31.629	
C	 0.1390581464	 1.6102515264	 0.0255659104	-0.464785
C	 0.0611550056	 0.09702594	-0.0102240788	 0.28258
O	-1.2776153169	-0.374845259	 0.1401650605	-0.469533
C	 0.6704143391	-0.7235822455	-1.1869439355	-0.116085
C	 2.0302911989	-0.2528165726	-1.7143520155	-0.095364
O	 2.7380121364	-0.935110885	-0.6470842185	-0.287741
C	 1.5221580162	-1.5748606391	-0.1868879308	-0.023392
C	 0.9386584282	-0.7434492365	 0.9731062	 0.371425
O	 1.0293611382	-0.7568800097	 2.1654435113	-0.30395
H	 1.1614185257	 1.9703434964	-0.1184766581	 0.131461
H	-0.5049707321	 2.0437552198	-0.7457662454	 0.130644
H	-0.1990851808	 1.973207362	 1.0024270326	 0.129372
H	-1.5523172927	-0.181641541	 1.0449415207	 0.292279
H	-0.0617726026	-1.1352497987	-1.8766654561	 0.101913
H	 2.2967641368	-0.6771008077	-2.6899477795	 0.111875
H	 2.2314320505	 0.823403108	-1.7269643496	 0.111511
H	 1.5953768532	-2.6630796178	-0.1276025276	 0.097788
59.351	159.1568	196.338	213.4252	257.518	270.6964	348.3625	368.2639	424.6175	485.829	643.4641	664.6731	769.1102	797.6955	817.4029	900.0064	948.3281	953.6972	996.6471	998.0081	1053.6907	1062.0982	1103.787	1145.7145	1169.4747	1175.3915	1203.9819	1236.2228	1262.7749	1300.8106	1344.917	1369.7388	1403.6039	1483.8165	1487.779	1527.9547	1890.3531	3025.4796	3036.0975	3075.2618	3090.785	3103.9619	3120.5504	3154.0793	3787.1566
CC1(O)C2COC2C1=O	C[C@@]1(O)[C@H]2CO[C@H]2C1=O	
InChI=1S/C6H8O3/c1-6(8)3-2-9-4(3)5(6)7/h3-4,8H,2H2,1H3	InChI=1S/C6H8O3/c1-6(8)3-2-9-4(3)5(6)7/h3-4,8H,2H2,1H3/t3-,4+,6+/m0/s1
