19
gdb 106721	2.46543	1.45355	1.16677	2.6923	75.31	-0.233	0.0649	0.2979	1119.1156	0.158842	-422.96867	-422.960109	-422.959165	-423.001845	33.249	
O	 0.2706690117	 1.2135200521	-0.4680623746	-0.413468
C	 0.0425031009	-0.0451144073	 0.1612716718	-0.168981
C	-1.3905482166	-0.4867734733	 0.1476957817	 0.210779
C	-2.0803738925	-0.9626222756	-1.1213777669	-0.368734
C	-1.9680355383	-1.9251211004	 0.0143584164	 0.367078
O	-1.3071549663	-3.1227689396	-0.1898780365	-0.459379
C	-2.9695102404	-1.6457715916	 1.1027017093	-0.133234
C	-2.2888126408	-1.1693817486	 2.3663260323	-0.304933
C	-2.4292231894	-0.2109631522	 1.2157361373	-0.112965
H	-0.2695114548	 1.8667314333	-0.0122216343	 0.278832
H	 0.6516717176	-0.7633266961	-0.398575169	 0.112969
H	 0.4177530302	-0.0357675475	 1.1976118229	 0.081741
H	-3.0426855086	-0.5518770229	-1.415735648	 0.104542
H	-1.406915144	-1.1692991685	-1.9478694233	 0.125477
H	-1.007700128	-3.4482290624	 0.666759371	 0.284735
H	-4.0087104084	-1.9561530443	 1.0996657021	 0.091495
H	-2.9492139845	-0.9970738909	 3.2110703635	 0.114212
H	-1.3079050386	-1.5484540591	 2.6432734299	 0.102462
H	-3.0443102792	 0.6796900547	 1.2876605244	 0.087373
65.7431	130.3761	209.2022	235.7979	267.767	317.4839	352.8576	409.981	448.568	548.4337	559.5915	614.4403	737.4767	787.7628	819.5699	837.4519	857.2097	921.3659	943.2124	972.495	990.9299	1021.8412	1042.4048	1063.5826	1081.4138	1084.2146	1095.2002	1119.4794	1164.3878	1186.2255	1245.8575	1272.2802	1311.3152	1347.7254	1362.8876	1383.6739	1405.806	1424.6417	1487.0763	1492.6796	1503.7458	2969.8458	3066.6054	3107.5277	3112.0096	3163.1394	3171.9701	3197.5454	3203.1191	3790.9372	3816.7555
OCC12CC1(O)C1CC21	OC[C@@]12C[C@]1(O)[C@H]1C[C@@H]21	
InChI=1S/C7H10O2/c8-3-6-2-7(6,9)5-1-4(5)6/h4-5,8-9H,1-3H2	InChI=1S/C7H10O2/c8-3-6-2-7(6,9)5-1-4(5)6/h4-5,8-9H,1-3H2/t4-,5+,6-,7+/m1/s1
