17
gdb 74173	2.79157	1.23821	0.93156	2.1127	77.9	-0.245	-0.0595	0.1856	1229.9813	0.134356	-421.881338	-421.872542	-421.871598	-421.915861	31.428	
C	-0.0939571057	 1.4554838151	 0.1708805255	-0.490641
C	-0.0096776093	-0.0279257554	 0.0334220275	 0.312147
C	 0.0359437347	-0.7523975287	-1.095827358	-0.29396
C	 0.0568217969	-2.2011164311	-0.8106593659	 0.395254
O	 0.1219722249	-3.1090709617	-1.6048627633	-0.327764
C	-0.0417502662	-2.3501397977	 0.719174451	-0.377487
C	 0.046132309	-0.9185620332	 1.2753399521	-0.162194
C	 1.3682654965	-0.6524018197	 1.9900034796	 0.153505
O	 1.5050753744	 0.1077001213	 2.9108972511	-0.244933
H	 0.6851547851	 1.8343939843	 0.8416564163	 0.157871
H	-0.0098356342	 1.9580323593	-0.7949245753	 0.137488
H	-1.0515161985	 1.7385872861	 0.6263448517	 0.14685
H	 0.0319565194	-0.361221007	-2.1056811511	 0.117243
H	-0.9950060368	-2.8229346287	 0.9725450736	 0.143835
H	 0.7477951453	-3.0152278307	 1.0830051075	 0.134219
H	-0.7540981221	-0.6559995323	 1.9748393355	 0.108073
H	 2.2330163166	-1.2075928599	 1.5581328721	 0.090493
49.3443	63.0022	136.5049	179.5058	235.7674	293.5678	326.3891	426.4415	490.6601	526.3809	572.6117	584.16	674.4543	830.0558	863.0548	877.4033	902.2743	990.1547	1017.1323	1034.7767	1053.0764	1084.3525	1148.6943	1183.6359	1188.2893	1239.0696	1271.5359	1298.6678	1315.3612	1413.7985	1417.0174	1455.5252	1475.431	1477.7799	1675.7104	1818.0169	1830.3831	2867.4788	3028.8863	3059.3828	3065.5522	3082.172	3104.7891	3130.4126	3216.6487
CC1=CC(=O)CC1C=O	CC1=CC(=O)C[C@H]1C=O	
InChI=1S/C7H8O2/c1-5-2-7(9)3-6(5)4-8/h2,4,6H,3H2,1H3	InChI=1S/C7H8O2/c1-5-2-7(9)3-6(5)4-8/h2,4,6H,3H2,1H3/t6-/m0/s1
