16
gdb 128394	7.33793	0.70123	0.64328	14.5971	90.87	-0.1947	-0.0599	0.1347	1672.6686	0.125509	-430.200776	-430.191997	-430.191053	-430.235527	30.223	
C	 0.1853187005	 1.4830351744	-0.0351164323	-0.330196
N	 0.03711403	 0.0386446657	 0.0544900323	-0.305441
C	-1.1566628016	-0.5775664487	 0.0476255782	 0.194971
N	-1.3273775617	-1.8659705362	-0.0489535676	-0.349518
H	-0.5232297032	-2.4775512091	-0.1757549385	 0.279438
C	-2.5077986922	-2.6159771384	-0.0029983609	 0.33168
C	-3.8494393225	-2.3058293599	 0.1846813476	-0.161217
N	-4.5076269523	-3.4734259912	 0.1184730172	-0.205035
N	-3.5984697954	-4.4459096335	-0.0982394433	-0.15441
N	-2.3757092553	-3.9461730957	-0.1751464375	-0.309624
H	 1.0274790891	 1.8051552507	 0.5815383192	 0.160196
H	 0.3495669923	 1.8180864584	-1.065901733	 0.15557
H	-0.7188027127	 1.9614577993	 0.3474455822	 0.163571
H	 0.8666324625	-0.5203750521	-0.081540009	 0.272163
H	-2.0386911524	 0.0420461802	 0.1569302564	 0.181057
H	-4.3527697252	-1.3661163438	 0.3578223388	 0.076795
55.0344	80.0292	102.5153	123.6731	179.3245	301.2232	345.9595	380.0386	487.5154	537.5077	673.8741	719.4155	784.7617	789.9261	800.1358	974.1946	980.038	1031.3311	1039.1471	1077.0679	1145.3466	1150.2659	1166.8562	1228.9159	1273.9816	1338.4311	1365.2859	1385.8377	1425.8436	1474.0857	1485.03	1505.5772	1521.7799	1544.2203	1761.1696	3032.6026	3106.832	3140.7639	3222.0849	3233.0265	3508.1152	3613.1223
CNC=[NH+]C1=CN=N[N-]1	CN[CH]Nc1cnnn1	
InChI=1S/C4H6N5/c1-5-3-6-4-2-7-9-8-4/h2-3H,1H3,(H-,5,6,7,8,9)/q-1/p+1	InChI=1S/C4H8N5/c1-5-3-6-4-2-7-9-8-4/h2-3H,1H3,(H3,5,6,7,8,9)
