17
gdb 53973	3.09897	1.06458	0.97445	4.5788	68.84	-0.2554	0.0085	0.2639	1238.6467	0.133713	-455.198471	-455.188462	-455.187518	-455.233546	36.149	
C	 0.0195639955	 1.5965597891	-0.0501072926	-0.404371
C	 0.0223198636	 0.0661211102	-0.0026114311	 0.238248
O	 0.7662515651	-0.29657766	 1.1569427013	-0.461743
C	-1.4133845617	-0.5124313938	 0.0373281049	-0.383284
C	-2.1932192451	-0.0349939359	 1.174430681	 0.271257
N	-2.8102482976	 0.3390360126	 2.0768742548	-0.311554
C	 0.6867277722	-0.458629089	-1.302179661	 0.370779
N	 1.9809848057	-0.830179367	-1.1483887795	-0.529522
O	 0.0764371408	-0.5030812746	-2.3542777928	-0.378291
H	 1.0475165983	 1.9675330829	-0.0343853119	 0.130486
H	-0.4654857204	 1.9438238561	-0.9648901204	 0.144512
H	-0.5079365182	 1.997589502	 0.8185542215	 0.153982
H	 0.6188563368	-1.2309289489	 1.3429706641	 0.288545
H	-1.9133491547	-0.2602892459	-0.9013335449	 0.185874
H	-1.3697094279	-1.608407591	 0.0740559065	 0.145612
H	 2.4349581787	-0.699232151	-0.2601669234	 0.271795
H	 2.5127368791	-1.0894573958	-1.9627509064	 0.267674
55.1957	71.5081	130.5487	223.3502	226.4323	258.5854	281.7566	328.0656	364.2915	384.1314	403.7133	423.0889	464.194	531.186	613.2346	657.2431	752.7174	775.8399	874.4033	914.016	970.4437	980.0375	1075.8334	1092.9169	1149.2394	1168.5524	1247.3299	1327.9001	1357.805	1371.1057	1410.1186	1460.6667	1487.3386	1496.3508	1590.1431	1793.4938	2363.9543	3039.0837	3055.0237	3110.8795	3132.1613	3144.6754	3597.5677	3737.0705	3799.8985
CC(O)(CC#N)C(N)=O	C[C@@](O)(CC#N)C(=O)N	
InChI=1S/C5H8N2O2/c1-5(9,2-3-6)4(7)8/h9H,2H2,1H3,(H2,7,8)	InChI=1S/C5H8N2O2/c1-5(9,2-3-6)4(7)8/h9H,2H2,1H3,(H2,7,8)/t5-/m1/s1
