19
gdb 84395	2.23501	1.59896	1.15564	2.8321	76.16	-0.246	-0.018	0.228	1111.6909	0.158301	-423.041916	-423.03293	-423.031986	-423.075669	33.537	
C	 0.7001227033	 1.5249418717	-0.1811768614	-0.390755
C	 0.1207726451	 0.1286744157	 0.1174009457	-0.057915
C	 0.3306249249	-0.8107591688	-1.0516037945	-0.05122
C	 1.2150765298	-1.7766968239	-0.8016979584	-0.127938
C	 1.7888528612	-1.6596360451	 0.5884189702	 0.075869
O	 3.141024138	-1.1928761581	 0.5844218973	-0.432533
C	 0.7932123477	-0.6748515234	 1.2710114523	-0.149546
C	 1.4060500518	 0.0602190808	 2.4411018869	 0.161989
O	 1.177458322	 1.2010180475	 2.7568981774	-0.259976
H	 1.782321309	 1.4780423679	-0.3446644061	 0.100679
H	 0.2466277087	 1.932702053	-1.0907901601	 0.108682
H	 0.516648576	 2.2092806145	 0.6469413414	 0.152916
H	-0.9481403964	 0.2526243639	 0.3275323732	 0.088137
H	-0.1703076129	-0.6537972374	-2.001847274	 0.101959
H	 1.5600148026	-2.5258141895	-1.5051360746	 0.103629
H	 1.8338466605	-2.6136194039	 1.1231524288	 0.092046
H	 3.2165629278	-0.5296548912	-0.1105868754	 0.283218
H	 0.0120239646	-1.302707008	 1.7279288956	 0.112089
H	 2.0871672364	-0.5712010055	 3.0531643657	 0.088672
70.1667	102.2101	199.545	203.4365	217.6593	261.86	333.6154	345.1254	367.355	474.6606	568.8125	650.3993	701.9635	742.6545	774.2633	810.1848	882.2395	910.9834	958.9742	984.0898	992.6377	1038.9571	1062.8282	1086.1668	1107.4618	1138.0508	1162.9542	1217.7241	1254.7471	1294.5006	1301.8607	1339.8489	1345.839	1363.9052	1406.5815	1426.5285	1437.1226	1490.9457	1501.1213	1676.4996	1824.8328	2889.4478	2990.3111	3032.6435	3038.676	3062.218	3097.2546	3154.1895	3177.9634	3208.0792	3804.1278
CC1C=CC(O)C1C=O	C[C@H]1C=C[C@@H](O)[C@H]1C=O	
InChI=1S/C7H10O2/c1-5-2-3-7(9)6(5)4-8/h2-7,9H,1H3	InChI=1S/C7H10O2/c1-5-2-3-7(9)6(5)4-8/h2-7,9H,1H3/t5-,6-,7+/m0/s1
