17
gdb 61802	4.40132	0.74231	0.72094	2.1459	66.48	-0.249	-0.0533	0.1957	1539.2056	0.132004	-496.109745	-496.099933	-496.098989	-496.14566	34.062	
O	-0.0529109204	 1.5145952104	 0.0399593121	-0.435116
C	 0.085832093	 0.1076899779	-0.0313369395	 0.094972
C	 0.7654311202	-0.3357667947	-1.3410523569	-0.298036
C	 0.0175602932	 0.1440551563	-2.5676062174	 0.150839
O	-0.2819665992	-0.5648499264	-3.4946687957	-0.240394
C	 0.8755774742	-0.3799773871	 1.2000724278	 0.01605
O	 2.1112497267	 0.2897754653	 1.2418607869	-0.441948
C	 0.1027643636	-0.1022438042	 2.4776945303	 0.14567
O	 0.5927331744	 0.5293590361	 3.3808865058	-0.256408
H	 0.8266790874	 1.8486264671	 0.2665910918	 0.289359
H	-0.9295566015	-0.306352305	 0.0112532186	 0.102526
H	 1.7747154625	 0.0981630554	-1.3594636999	 0.138518
H	 0.8606525084	-1.4245107799	-1.3941311362	 0.119757
H	-0.2430316758	 1.2231644658	-2.554732074	 0.096987
H	 1.0125321825	-1.4739460118	 1.1327276162	 0.104296
H	 2.1844724968	 0.6391739824	 2.1462371027	 0.302891
H	-0.9216533762	-0.5196674576	 2.5389640174	 0.110036
47.483	75.3034	91.9705	110.5608	182.4767	264.6799	279.0957	288.7984	350.7725	436.9733	464.7633	542.5397	572.6364	699.4676	736.5237	816.8302	838.236	893.7475	962.7923	999.2012	1046.4124	1093.9869	1104.4058	1160.5323	1194.6941	1244.0886	1258.3985	1308.6535	1340.1397	1363.3782	1394.7087	1420.3202	1428.8719	1431.1157	1457.8774	1816.9555	1829.7387	2918.9921	2942.6112	2960.8019	3024.5242	3039.4231	3099.1422	3661.5821	3746.6701
OC(CC=O)C(O)C=O	O[C@@H](CC=O)[C@@H](O)C=O	
InChI=1S/C5H8O4/c6-2-1-4(8)5(9)3-7/h2-5,8-9H,1H2	InChI=1S/C5H8O4/c6-2-1-4(8)5(9)3-7/h2-5,8-9H,1H2/t4-,5-/m0/s1
