20
gdb 61016	2.9398	1.20162	0.95543	2.8222	79.74	-0.2212	-0.0228	0.1983	1267.1467	0.169389	-403.105279	-403.096287	-403.095343	-403.139618	33.361	
C	 0.0854962015	 1.4405236257	-0.0803784247	-0.407568
C	 0.1512631266	-0.0929246063	 0.011747432	-0.041937
C	 0.7493660605	-0.4477460055	 1.3676653038	 0.162937
O	 1.9063743638	-0.7157007061	 1.5577977301	-0.249316
N	-1.1850197629	-0.6624650983	-0.0607414003	-0.091846
C	-2.0065930806	-0.4967996505	-1.2987603876	-0.18578
C	-2.2343685346	-2.0097892345	-1.3441363869	-0.071398
C	-0.9035409456	-2.7112946571	-1.4450956934	-0.290184
C	-1.3341112569	-2.1189500137	-0.127820418	-0.007931
H	 1.0891664084	 1.8690037083	-0.0187314982	 0.134734
H	-0.3599342092	 1.7481271004	-1.0308886232	 0.126324
H	-0.527726761	 1.8493581658	 0.7288769878	 0.128746
H	 0.8417125598	-0.4727440513	-0.7602138391	 0.075082
H	 0.0082335288	-0.4046160141	 2.1991749311	 0.08113
H	-2.9036715763	 0.1015818733	-1.1121389952	 0.11141
H	-1.4742436936	-0.0806910213	-2.164740093	 0.099982
H	-3.1794018541	-2.4980668521	-1.5376099145	 0.097417
H	-0.9537461188	-3.7944260853	-1.496137184	 0.117395
H	-0.0923905626	-2.2731940388	-2.0209954668	 0.112341
H	-1.442312223	-2.7068485985	 0.77722648	 0.098464
57.036	71.0475	152.6128	185.6244	221.6282	289.485	335.5924	385.2381	411.4087	483.5993	522.9532	718.2304	787.4758	793.7058	849.3238	891.9832	929.7164	936.7923	960.7852	975.7089	1015.1886	1052.8812	1058.3227	1075.2643	1083.4898	1101.4566	1147.1148	1157.1244	1165.114	1189.8489	1246.0787	1273.3119	1299.4979	1317.1675	1338.0833	1368.968	1394.0073	1408.025	1479.166	1490.1795	1498.6581	1510.2005	1838.2814	2869.7631	2960.7929	3009.8925	3041.218	3071.0263	3112.6971	3115.2337	3126.0158	3164.7874	3201.4368	3212.8582
CC(C=O)N1CC2CC12	C[C@@H](C=O)N1C[C@H]2C[C@@H]12	
InChI=1S/C7H11NO/c1-5(4-9)8-3-6-2-7(6)8/h4-7H,2-3H2,1H3	InChI=1S/C7H11NO/c1-5(4-9)8-3-6-2-7(6)8/h4-7H,2-3H2,1H3/t5-,6+,7+/m0/s1
