18
gdb 70070	2.79058	1.55272	1.15518	4.3708	78.98	-0.2338	-0.0306	0.2033	1085.2761	0.149024	-401.990542	-401.982646	-401.981702	-402.022662	31.278	
C	 0.0013245547	 1.4980349398	-0.0087463536	-0.458903
C	-0.0161694718	-0.0133522798	 0.0403491468	 0.356405
C	-0.8723572952	-0.7162784418	 1.0627660946	-0.325896
C	 0.651433636	-0.7420592373	 1.1922497902	-0.132973
C	 1.3994550151	-1.9716620104	 0.867195335	-0.056955
C	 1.4196909832	-2.4885181778	-0.3659919705	-0.183061
C	 0.7570537156	-1.8335970818	-1.51766058	 0.394243
O	 0.7564125257	-2.3106325769	-2.6411685049	-0.387523
N	 0.1676451422	-0.6201998742	-1.2478672062	-0.393691
H	 0.9470686619	 1.8644221587	-0.4200610472	 0.132821
H	-0.8138334259	 1.8771994926	-0.637037005	 0.12313
H	-0.1301589828	 1.9205368425	 0.9909220077	 0.124213
H	-1.419780497	-0.1132802151	 1.7789968382	 0.11753
H	-1.3537024392	-1.6417600958	 0.7680659664	 0.127179
H	 1.0685580129	-0.1303790912	 1.9863394259	 0.098332
H	 1.9476355689	-2.4529124553	 1.673430427	 0.108448
H	 1.9474454513	-3.4031627639	-0.6074472442	 0.115437
H	-0.2973655555	-0.2002022225	-2.0401549301	 0.241265
100.9467	166.4228	229.282	288.6096	315.886	400.8958	421.6127	474.4698	503.3005	542.907	551.6854	669.8155	711.9954	794.3246	806.1472	840.5068	878.1319	919.4032	941.7081	1000.3899	1013.3849	1027.1571	1054.1134	1088.6713	1110.1216	1122.3368	1184.5051	1245.0338	1310.0188	1353.5429	1389.3014	1415.4633	1423.4066	1451.5363	1484.2933	1491.6207	1504.2936	1682.3626	1774.5275	3028.615	3093.2547	3118.8744	3133.0398	3148.4414	3160.9184	3213.9137	3229.6814	3602.996
CC12CC1C=CC(=O)N2	C[C@]12C[C@H]1C=CC(=O)N2	
InChI=1S/C7H9NO/c1-7-4-5(7)2-3-6(9)8-7/h2-3,5H,4H2,1H3,(H,8,9)	InChI=1S/C7H9NO/c1-7-4-5(7)2-3-6(9)8-7/h2-3,5H,4H2,1H3,(H,8,9)/t5-,7+/m1/s1
