17
gdb 8148	4.14514	1.81586	1.48194	1.4321	68.9	-0.2348	0.0256	0.2604	899.4868	0.141874	-363.879497	-363.871927	-363.870983	-363.910983	28.752	
C	-0.0177285454	 1.4277964799	 0.0606551365	-0.47825
C	-0.024931554	-0.0549973177	-0.0713402708	 0.383553
N	-0.0108554275	-0.729463049	-1.1550309404	-0.302236
C	 0.0232515409	-2.1175132125	-0.763905594	-0.064309
C	 1.2380568741	-2.5550922673	 0.0377837614	-0.34953
C	-0.0130086518	-2.1311469537	 0.7559806631	 0.400222
C	-0.8042415466	-3.0051764704	 1.6816396827	-0.474173
O	-0.052461788	-0.7479520901	 1.1075334196	-0.275917
H	 0.9052790474	 1.7665162904	 0.5424736309	 0.144512
H	-0.0948505563	 1.8810419129	-0.9271837436	 0.152833
H	-0.8520497897	 1.7579669173	 0.6872377526	 0.143336
H	-0.4908386887	-2.8236334082	-1.4055880522	 0.098027
H	 1.4572737455	-3.617442461	 0.048282164	 0.116511
H	 2.1046356815	-1.9021446997	 0.0500422316	 0.119742
H	-0.8002531269	-4.0365136553	 1.3183532132	 0.125059
H	-0.3768042467	-3.0013632638	 2.6900197271	 0.131338
H	-1.8426621278	-2.6658637918	 1.7475054385	 0.12928
138.2206	164.7982	182.8721	241.8186	281.3549	382.9343	422.4358	459.5499	605.9577	647.6104	677.3273	766.9407	815.6953	874.2376	920.8804	957.1463	972.2593	1021.694	1030.6089	1042.8181	1068.0779	1101.6844	1113.7721	1145.3299	1219.2021	1272.2391	1315.3905	1384.3949	1411.7601	1426.2603	1471.5697	1474.9088	1477.7207	1478.4445	1499.6648	1708.2799	3036.5868	3048.6921	3101.5607	3105.1622	3118.7723	3128.0126	3163.6105	3175.8623	3221.2928
CC1=NC2CC2(C)O1	CC1=N[C@H]2C[C@@]2(C)O1	
InChI=1S/C6H9NO/c1-4-7-5-3-6(5,2)8-4/h5H,3H2,1-2H3	InChI=1S/C6H9NO/c1-4-7-5-3-6(5,2)8-4/h5H,3H2,1-2H3/t5-,6+/m0/s1
