18
gdb 71362	3.01108	1.89187	1.54498	2.8456	74.17	-0.226	0.0774	0.3034	906.8987	0.148877	-401.857454	-401.850639	-401.849695	-401.888208	28.56	
C	 0.0744708049	 1.4986491343	-0.1506511139	-0.523178
C	-0.0083287425	 0.0146063786	 0.0149625722	 0.436488
O	 0.5964820719	-0.8284419349	-1.0450291982	-0.357517
C	 0.0580729483	-1.7753165855	-0.0799256605	 0.041886
C	 0.5852494906	-0.9194849079	 1.1240443348	-0.086233
C	-0.4155410577	-1.0315896667	 2.2579160955	-0.071961
N	-1.3325761206	 0.1352396286	 2.3577816777	-0.340817
C	-1.7077494142	-1.0408180071	 1.527986196	-0.071945
C	-1.2544456218	-0.9326191555	 0.0848529403	-0.086237
H	 1.1213584616	 1.8152048772	-0.1991385472	 0.124992
H	-0.4195613156	 1.8024533574	-1.0791866621	 0.125056
H	-0.4122308278	 1.9870817576	 0.6948493394	 0.153322
H	 0.1817424091	-2.8395135386	-0.2854034661	 0.087902
H	 1.6570672977	-0.8826625473	 1.3126357034	 0.076957
H	-0.2241846821	-1.6402611936	 3.1341076347	 0.0927
H	-1.8325058275	 0.075646049	 3.243564323	 0.22893
H	-2.5503204664	-1.6568862574	 1.8201257571	 0.092696
H	-1.9695926979	-0.908646168	-0.7359410361	 0.076958
178.5709	226.1105	240.4288	355.9136	404.454	501.7472	528.9235	628.1499	706.1644	725.0359	749.8194	772.4087	842.8463	853.0383	877.6775	888.2247	908.4159	945.0782	981.8336	987.3328	1013.0467	1017.0432	1073.9058	1094.6021	1121.0853	1141.4995	1154.5639	1179.0672	1206.8179	1212.0101	1252.9357	1257.0473	1284.9894	1357.1398	1371.0229	1404.1977	1420.0162	1484.4103	1486.2314	3041.2468	3106.3913	3106.8271	3135.304	3138.5918	3149.6715	3173.4363	3183.4396	3480.947
CC12OC3C1C1NC1C23	C[C@@]12O[C@H]3[C@@H]1[C@H]1N[C@H]1[C@@H]23	
InChI=1S/C7H9NO/c1-7-2-4-5(8-4)3(7)6(2)9-7/h2-6,8H,1H3	InChI=1S/C7H9NO/c1-7-2-4-5(8-4)3(7)6(2)9-7/h2-6,8H,1H3/t2-,3+,4+,5-,6-,7+
