23
gdb 40191	2.84576	1.50679	1.21573	0.1506	88.47	-0.2573	0.0789	0.3362	1134.5129	0.208523	-351.15057	-351.14263	-351.141686	-351.183053	32.609	
C	 0.0709129804	 1.5099522092	 0.0019703169	-0.332835
C	 1.2736362406	 0.6105701133	 0.1803376396	-0.325366
C	-0.1020234898	 0.0173160268	-0.0119896085	 0.416826
C	-0.768541833	-0.7382244862	 1.1340616845	-0.29679
C	-0.6100059444	-2.2160070629	 0.7206109248	-0.219431
C	-0.7891694934	-2.2089522007	-0.8067377062	 0.003997
C	-2.2437735167	-2.0091308222	-1.3279613144	-0.223835
C	-1.877057263	-0.5858952145	-1.8357030778	-0.227568
C	-0.4281557748	-0.7535532605	-1.2831222405	-0.08775
H	-0.2867321697	 2.0606667483	 0.8662884256	 0.105851
H	-0.0282207338	 2.0478953347	-0.9356553508	 0.107988
H	 1.9834630424	 0.5418259025	-0.6379622945	 0.106441
H	 1.7247035252	 0.5528688304	 1.1661903825	 0.105533
H	-0.3259128869	-0.512167255	 2.1088841995	 0.091146
H	-1.8325428961	-0.4737447102	 1.1955289309	 0.097451
H	 0.4005747242	-2.5589404658	 0.9717754722	 0.095484
H	-1.3175820502	-2.8820678548	 1.225631619	 0.089386
H	-0.2530554037	-3.0266747465	-1.2928517127	 0.058874
H	-2.5443697196	-2.709198067	-2.1112818152	 0.09481
H	-3.0082777691	-2.0355507438	-0.5452602945	 0.09297
H	-1.9251199711	-0.4748615374	-2.9218572087	 0.093875
H	-2.4428712421	 0.2356505751	-1.3872109443	 0.09632
H	 0.3555404249	-0.6555050328	-2.0379934675	 0.056626
61.6963	152.1475	208.3766	282.6277	330.2642	353.1685	432.4831	530.8654	587.7097	705.3013	737.4669	766.6519	783.5906	820.5458	858.4854	870.2832	896.8625	924.8236	943.738	952.8655	961.5083	978.9831	990.8523	1023.2413	1051.6069	1059.8189	1066.2153	1078.4058	1135.348	1161.4846	1183.9105	1190.7024	1205.1998	1233.4482	1253.6064	1264.5244	1273.0132	1288.0239	1299.0163	1317.1064	1327.3352	1349.4896	1394.4993	1467.8129	1475.4376	1484.5873	1489.7885	1502.1981	1506.6491	3018.9613	3032.2591	3047.1992	3054.9112	3067.6284	3075.4252	3080.4418	3084.5389	3092.7766	3112.2467	3119.2797	3123.8418	3196.4205	3211.3471
C1CC11CCC2CCC12	C1CC21CC[C@H]1CC[C@@H]21	
InChI=1S/C9H14/c1-2-8-7(1)3-4-9(8)5-6-9/h7-8H,1-6H2	InChI=1S/C9H14/c1-2-8-7(1)3-4-9(8)5-6-9/h7-8H,1-6H2/t7-,8-/m1/s1
