18
gdb 98544	3.59611	1.11519	0.93058	3.0098	74.36	-0.2439	0.0197	0.2636	1271.9917	0.147071	-439.069885	-439.060907	-439.059963	-439.104423	32.242	
C	-0.1804431384	 1.4561509619	-0.084290096	-0.336014
N	-0.1638242979	 0.0140467048	-0.2328689805	-0.33446
C	 0.8468248077	-0.6446802855	-0.8731011821	 0.328601
O	 1.8053943531	-0.0748392328	-1.3722893036	-0.397385
C	 0.7005635013	-2.1232097951	-0.9352206298	 0.15836
C	 1.9269956734	-3.0066363999	-1.1302875339	-0.332899
C	 0.8670186348	-3.0153339484	-2.1646973948	 0.078599
O	-0.2260416154	-3.8542984361	-1.7899362747	-0.280044
C	-0.5053119062	-3.0156428936	-0.6396738755	-0.162668
H	-0.151148861	 1.7502725999	 0.9709587043	 0.125653
H	 0.7074978349	 1.8418725851	-0.5859806255	 0.174317
H	-1.0725912238	 1.8941608052	-0.5456119208	 0.125722
H	-0.9101766872	-0.5210208965	 0.1776089823	 0.245716
H	 2.8114326226	-2.4276453638	-1.3724706417	 0.150877
H	 2.0681703759	-3.8786793663	-0.4981782664	 0.116481
H	 0.9866581185	-2.7598347594	-3.2106519603	 0.123643
H	-0.5023045392	-3.5799937046	 0.300473361	 0.111168
H	-1.4733503132	-2.5149285348	-0.7686900519	 0.104333
54.2106	79.4834	112.1031	162.0861	209.0592	316.6342	320.0441	393.2944	452.1917	456.8653	502.3193	732.0663	760.1276	793.0114	852.8139	893.0738	937.4335	988.9645	992.4504	995.8204	1052.786	1067.5319	1088.9551	1107.1025	1153.9806	1164.8494	1167.5977	1219.5104	1234.1878	1304.3964	1327.373	1396.0192	1438.5302	1464.0239	1493.9249	1500.2466	1514.0775	1564.8535	1758.4651	3010.8571	3027.1055	3061.0568	3078.6605	3122.3165	3156.2288	3194.2525	3230.3097	3653.4548
CNC(=O)C12CC1OC2	CNC(=O)[C@]12C[C@H]1OC2	
InChI=1S/C6H9NO2/c1-7-5(8)6-2-4(6)9-3-6/h4H,2-3H2,1H3,(H,7,8)	InChI=1S/C6H9NO2/c1-7-5(8)6-2-4(6)9-3-6/h4H,2-3H2,1H3,(H,7,8)/t4-,6+/m1/s1
