16
gdb 14214	2.80285	2.43898	1.87946	2.1771	64.3	-0.2262	0.0701	0.2964	777.3515	0.130426	-383.672185	-383.665256	-383.664312	-383.702681	27.889	
O	-0.1875288955	 1.2996161372	-0.0754843606	-0.46493
C	 0.0031711406	-0.063950431	-0.0608774194	 0.348752
C	 0.9602948172	-0.8921834927	-0.9113772028	-0.290279
C	 0.1111781943	-2.1192686762	-0.460152188	-0.135276
C	 0.3950540503	-2.244484314	 1.0637534776	-0.22585
C	-0.3396803589	-0.9170401277	 1.2118029016	-0.223164
C	-1.0716040954	-1.0981787684	-0.1076385916	 0.332462
O	-2.3757921054	-0.9864643439	-0.4990191135	-0.447792
H	 0.4737860722	 1.7069834511	 0.4948331138	 0.285128
H	 0.8301966945	-0.6717532969	-1.9743339616	 0.108236
H	 2.0272785429	-0.9066143931	-0.657958444	 0.082547
H	 0.0343601359	-2.9969521061	-1.0979505621	 0.073967
H	-0.1535699167	-3.0723483535	 1.5237172419	 0.092877
H	 1.4483086352	-2.2970438025	 1.3631080607	 0.087704
H	-0.6891563366	-0.4048247311	 2.1001241929	 0.084872
H	-2.9045486245	-1.6190853412	 0.0003491152	 0.290745
199.8949	242.5721	283.6026	317.4619	353.4483	387.8931	433.5699	536.0344	606.0075	665.1136	685.0705	767.9988	841.7217	900.9877	923.7809	940.0921	983.3593	989.4909	997.4586	1057.7979	1103.0188	1111.0397	1145.379	1170.8716	1203.238	1224.3885	1250.3411	1279.5496	1289.8484	1308.5057	1368.3647	1484.5252	1499.2582	1545.6075	3025.2866	3032.5975	3083.2856	3101.4313	3141.1053	3192.0419	3786.1582	3791.2856
OC12CC3CC1C23O	O[C@@]12C[C@H]3C[C@@H]1[C@@]23O	
InChI=1S/C6H8O2/c7-5-2-3-1-4(5)6(3,5)8/h3-4,7-8H,1-2H2	InChI=1S/C6H8O2/c7-5-2-3-1-4(5)6(3,5)8/h3-4,7-8H,1-2H2/t3-,4+,5+,6-/m1/s1
