18
gdb 53428	2.58011	1.07592	0.90495	1.9506	80.93	-0.2206	-0.0219	0.1987	1372.98	0.147189	-401.939241	-401.929873	-401.928929	-401.97586	32.859	
C	-0.1047396707	 1.4331430328	 0.1037892691	-0.49826
C	-0.0402263115	-0.0190253363	 0.0336399095	 0.046236
C	 0.0308820734	-1.2193692091	-0.0332836803	 0.157583
C	 0.05442599	-2.6786278069	-0.1014623889	-0.321271
N	 0.7730995985	-3.277127522	 1.0376260164	-0.280596
C	-0.2307205179	-3.3897250263	 2.1186725468	-0.178509
C	-1.5672547657	-3.7466519275	 1.4435995473	-0.328353
C	-1.4106120181	-3.2132150071	 0.0147388652	 0.404694
O	-2.2275154846	-3.2340953823	-0.8630365408	-0.302113
H	 0.5735254097	 1.8224789142	 0.8708835649	 0.151337
H	 0.178912369	 1.8875669339	-0.8517390323	 0.152451
H	-1.1161868214	 1.7764309468	 0.3473568668	 0.150385
H	 0.4881789041	-3.0070836274	-1.0511492721	 0.118892
H	 1.0652403384	-4.2115943762	 0.7646473922	 0.22199
H	 0.0973356261	-4.1245247841	 2.8561594603	 0.110882
H	-0.3012128526	-2.4197975025	 2.6222702742	 0.126401
H	-1.7144390034	-4.8315830813	 1.3828780116	 0.132328
H	-2.4596373633	-3.3246880288	 1.9132220801	 0.135925
14.0276	56.6401	84.9102	121.8576	216.2807	248.9202	331.5293	401.6819	440.7137	503.6035	555.5994	609.9616	664.8568	737.3341	810.9025	820.2409	880.1136	943.0331	969.5289	1031.5073	1051.3773	1053.5476	1066.9534	1121.1139	1157.4263	1193.275	1207.8932	1240.3799	1279.499	1342.0665	1360.9428	1413.8863	1446.6361	1462.3061	1476.5102	1477.8402	1499.1684	1856.6989	2366.5157	3028.0232	3045.9447	3053.2807	3063.5659	3089.2037	3090.8762	3102.1836	3116.7971	3501.4908
CC#CC1NCCC1=O	CC#C[C@H]1NCCC1=O	
InChI=1S/C7H9NO/c1-2-3-6-7(9)4-5-8-6/h6,8H,4-5H2,1H3	InChI=1S/C7H9NO/c1-2-3-6-7(9)4-5-8-6/h6,8H,4-5H2,1H3/t6-/m1/s1
