19
gdb 35820	2.61443	1.56077	1.18725	4.9112	77.87	-0.2492	0.0217	0.2708	1080.2854	0.162681	-382.070175	-382.062415	-382.061471	-382.102978	30.017	
N	-0.0095376838	-1.0645488075	 0.5027461366	-0.339868
C	-0.0403865798	 0.0588812045	 0.2325770735	 0.330315
C	-0.0510911636	 1.4868893443	-0.1254984386	-0.190683
N	-0.8974430234	 2.2477020804	 0.8162267858	-0.27678
C	 0.0222966608	 2.8561407428	 1.7910331811	-0.200306
C	 1.3041188037	 3.2342338663	 1.0189639972	-0.008381
C	 2.6510415394	 2.7277558524	 1.6036124639	-0.236754
C	 2.5395972283	 1.4573262303	 0.7133485317	-0.243818
C	 1.3769611631	 2.1312418196	-0.0772784817	-0.011009
H	-0.478892885	 1.5545565068	-1.1303490939	 0.120882
H	-1.368021774	 2.9795499266	 0.2950585275	 0.226396
H	-0.463138817	 3.7014020481	 2.2843696236	 0.111378
H	 0.2506167216	 2.1124450356	 2.5652534286	 0.120552
H	 1.2734915783	 4.2724013642	 0.6778377788	 0.067746
H	 3.493980828	 3.3636648783	 1.3234412295	 0.104803
H	 2.6819201043	 2.5737659264	 2.6856535127	 0.103899
H	 3.4224155962	 1.1991680526	 0.125694217	 0.107908
H	 2.2237941324	 0.5651830267	 1.2583063003	 0.133013
H	 1.6770757106	 2.4741890816	-1.0683372436	 0.080706
50.3705	138.6581	166.0063	260.3384	332.6773	366.225	492.9747	573.6073	619.6873	675.1417	723.9757	743.7674	771.1855	839.8012	858.1389	884.7258	921.2677	951.069	962.454	1003.2068	1034.7083	1069.0879	1072.801	1096.4018	1132.426	1193.9284	1220.2468	1228.135	1255.9012	1268.7611	1281.3609	1288.554	1310.8226	1327.5493	1359.5255	1361.4341	1468.1048	1483.8131	1494.3885	1504.678	2354.3393	3029.0035	3058.2439	3063.809	3066.1819	3077.0295	3096.9526	3105.5921	3108.2151	3132.2078	3529.237
N#CC1NCC2CCC12	N#C[C@H]1NC[C@H]2CC[C@@H]12	
InChI=1S/C7H10N2/c8-3-7-6-2-1-5(6)4-9-7/h5-7,9H,1-2,4H2	InChI=1S/C7H10N2/c8-3-7-6-2-1-5(6)4-9-7/h5-7,9H,1-2,4H2/t5-,6-,7-/m1/s1
