19
gdb 65524	3.76704	1.18082	1.14731	1.845	74.82	-0.245	0.0772	0.3221	1144.1351	0.158727	-422.970057	-422.962007	-422.961063	-423.002619	31.971	
O	-0.0148673588	 1.3704201903	-0.1175531415	-0.487222
C	 0.0030821619	-0.0332158309	-0.0821283451	 0.393574
C	 1.0022203908	-0.7392354771	-1.0989162238	-0.326772
C	 1.8012392363	-1.2287314006	 0.107706446	 0.04089
O	 2.1776141585	-0.0625749888	 0.8652384777	-0.26933
C	 0.8672131075	-0.6180024023	 1.0647386999	-0.041509
C	-1.4076968242	-0.5581690067	-0.1362332647	-0.029428
C	-2.5272615615	 0.1799015924	 0.5538072888	-0.275376
C	-2.4593993167	 0.1480295344	-0.9534060684	-0.273767
H	 0.8864814385	 1.6482250607	 0.0913233063	 0.288711
H	 0.5206579838	-1.5422509312	-1.6622655815	 0.110911
H	 1.5344793551	-0.0729728768	-1.7819243205	 0.107996
H	 2.4330453454	-2.1022246283	 0.2137086723	 0.107591
H	 0.5870090251	-0.8847408682	 2.0778745355	 0.103686
H	-1.4579760243	-1.6433869679	-0.1146191476	 0.079392
H	-3.2931110156	-0.4042539402	 1.0518552689	 0.105248
H	-2.2756790341	 1.1162032277	 1.0367526957	 0.12867
H	-2.1645476823	 1.0630308999	-1.4525899466	 0.131068
H	-3.1776641955	-0.4586074265	-1.4935594813	 0.105668
78.9145	141.3762	182.0264	262.9633	337.2354	356.9345	431.0611	473.4509	494.3397	581.9067	686.7926	769.7784	798.1633	824.9105	835.8484	855.8464	878.2859	917.7239	932.169	970.9238	979.4	1032.1988	1046.8598	1061.5874	1071.9793	1074.0698	1088.7261	1129.8558	1137.2651	1203.8233	1212.1864	1222.4272	1227.0549	1257.8902	1274.4971	1350.3236	1375.4865	1454.1168	1458.8905	1469.7036	1503.6818	3065.1832	3125.2668	3139.4337	3139.8134	3146.4238	3178.5627	3198.7233	3226.1493	3239.5726	3771.2265
OC1(CC2OC12)C1CC1	O[C@]1(C[C@H]2O[C@@H]12)C1CC1	
InChI=1S/C7H10O2/c8-7(4-1-2-4)3-5-6(7)9-5/h4-6,8H,1-3H2	InChI=1S/C7H10O2/c8-7(4-1-2-4)3-5-6(7)9-5/h4-6,8H,1-3H2/t5-,6-,7-/m1/s1
