19
gdb 127312	4.80063	0.77992	0.71304	2.9861	79.71	-0.2329	0.0249	0.2578	1601.2816	0.159712	-419.226491	-419.216925	-419.215981	-419.262762	33.288	
C	-0.3176583675	 1.4227000943	-0.0247244126	-0.316994
N	-0.0223570201	 0.0072490943	-0.0096249461	 0.062999
C	 0.4369688032	-0.7606746043	-1.0276000746	-0.022214
C	 0.4922405364	-2.0550086076	-0.5569462944	-0.310995
C	 0.0353476716	-1.9733401909	 0.7794803021	 0.330846
C	-0.0809747975	-3.0698026862	 1.793523746	-0.28171
C	 1.2577078811	-3.3914128505	 2.4612739716	-0.064707
O	 1.0412827552	-4.4631758966	 3.3664287804	-0.419764
N	-0.2762584823	-0.715450124	 1.0997480328	-0.332099
H	 0.1380635939	 1.8723484186	-0.9088171144	 0.13589
H	-1.398040554	 1.5978721902	-0.0486944834	 0.14487
H	 0.0936231242	 1.8908369387	 0.8721102947	 0.151942
H	 0.6787671035	-0.3332452004	-1.9883212133	 0.12625
H	 0.8158211539	-2.9311775095	-1.0957967569	 0.100068
H	-0.7963343744	-2.7768820308	 2.5669528664	 0.122042
H	-0.4583779349	-3.9850230405	 1.3242853556	 0.109541
H	 1.9998802923	-3.6592612799	 1.6920999657	 0.084035
H	 1.6296421968	-2.4933208985	 2.9778369328	 0.095444
H	 1.8691081184	-4.6439698762	 3.8206746077	 0.284557
30.4049	50.8422	91.9772	108.3576	198.3947	250.3289	274.8471	345.5263	369.3404	426.7595	629.6219	667.6804	719.1516	764.7259	781.6205	805.0741	829.9576	1002.3422	1013.7727	1018.1872	1051.2352	1069.7222	1077.1047	1101.9595	1151.2027	1210.915	1238.3533	1240.2194	1306.779	1318.174	1338.8237	1402.8451	1439.3524	1452.5897	1456.9075	1477.2803	1484.9226	1503.2097	1527.0448	1530.5226	1566.3352	2968.9343	3002.7004	3044.9854	3049.3831	3104.3791	3114.4671	3145.7079	3249.2718	3269.2575	3832.027
CN1C=CC(CCO)=N1	Cn1ccc(CCO)n1	
InChI=1S/C6H10N2O/c1-8-4-2-6(7-8)3-5-9/h2,4,9H,3,5H2,1H3	InChI=1S/C6H10N2O/c1-8-4-2-6(7-8)3-5-9/h2,4,9H,3,5H2,1H3
