21
gdb 88688	3.29834	0.93656	0.85715	0.212	80.57	-0.2581	0.0742	0.3324	1469.0269	0.17887	-424.199053	-424.188852	-424.187907	-424.234948	37.042	
C	-0.0885190628	 1.6700075821	-0.1382951934	-0.422998
C	 0.0369829461	 0.1727132293	-0.0256037834	 0.080956
O	 1.3216311761	-0.4109123992	-0.2702209332	-0.263369
C	 0.7578924503	-0.5479595224	 1.0412298098	 0.022681
C	 1.4946748395	 0.136603438	 2.1451320088	-0.021452
O	 0.9275884171	 0.0194000747	 3.4572287509	-0.299273
C	 2.2231034626	-0.5641522012	 3.2241809047	 0.395788
C	 2.2880556672	-2.0732111582	 3.3153948153	-0.457858
C	 3.3646733661	 0.1627228261	 3.9045149485	-0.450244
H	 0.746890994	 2.1898343184	 0.334091095	 0.130216
H	-0.1158216939	 1.9646670589	-1.1925004454	 0.13031
H	-1.0196242706	 2.0079100355	 0.3288592554	 0.129169
H	-0.7803609695	-0.3796281945	-0.4951049818	 0.090409
H	 0.4074959659	-1.5517331084	 1.2780653594	 0.092209
H	 1.8468657505	 1.1371293746	 1.893873961	 0.08629
H	 1.4039337024	-2.5489237275	 2.8892890863	 0.129408
H	 3.1742368572	-2.4530314875	 2.7961568696	 0.127364
H	 2.3592828648	-2.3790149841	 4.3648696035	 0.125191
H	 3.4032541664	-0.0983260279	 4.9677477207	 0.124678
H	 4.3241832748	-0.1149809988	 3.4554476905	 0.123885
H	 3.2415417357	 1.2453733422	 3.8231705879	 0.126641
26.4746	109.1527	142.3596	152.4755	169.1098	213.749	232.0852	351.6822	361.6836	391.0541	414.399	443.055	476.4842	569.7735	711.4455	775.2532	836.1461	858.914	925.2501	947.2206	966.8737	994.2026	1007.2353	1066.9759	1082.7384	1120.5565	1133.5912	1151.0609	1166.6877	1192.7307	1255.6131	1295.2111	1322.8852	1381.7179	1407.6764	1412.1428	1419.6484	1441.4405	1472.5609	1476.7755	1485.9337	1489.7411	1498.803	1506.5947	1531.2226	3034.0893	3041.0659	3041.7033	3079.6083	3096.5596	3101.8245	3102.7127	3106.118	3118.2311	3124.0267	3138.2148	3142.272
CC1OC1C1OC1(C)C	C[C@H]1O[C@H]1[C@H]1OC1(C)C	
InChI=1S/C7H12O2/c1-4-5(8-4)6-7(2,3)9-6/h4-6H,1-3H3	InChI=1S/C7H12O2/c1-4-5(8-4)6-7(2,3)9-6/h4-6H,1-3H3/t4-,5-,6-/m1/s1
