19
gdb 91673	3.32923	1.23894	1.1	1.8735	81.31	-0.249	0.0481	0.2971	1172.1214	0.159198	-385.836005	-385.827864	-385.82692	-385.868395	32.217	
C	-0.1160947424	 1.5540060119	 0.0106543743	-0.420714
C	 0.0610062938	 0.0374991724	 0.0104124976	 0.029404
C	 1.0058034414	-0.553004175	-1.0941584747	-0.257718
C	 1.9481610339	-1.3342560288	-0.1572397788	 0.080479
O	 1.0157084213	-1.9448261321	 0.7842257135	-0.297781
C	 0.8035343165	-0.5708138594	 1.2237511931	 0.064619
C	 2.3117346192	-0.2859991146	 0.93916363	-0.212507
C	 3.2331839801	-0.7396997589	 1.9579637056	 0.308019
C	 4.0177158047	-1.0855399462	 2.8006256638	-0.417798
H	 0.8423119909	 2.0819005902	 0.0578579899	 0.117738
H	-0.6272411029	 1.8857147719	-0.8987968703	 0.122347
H	-0.7183162741	 1.8814101501	 0.8653134808	 0.118898
H	-0.9217563661	-0.4399210895	-0.0451707734	 0.08572
H	 0.4873490261	-1.2202867122	-1.7852714293	 0.110914
H	 1.5240586019	 0.2169721769	-1.6738698776	 0.100048
H	 2.68346558	-2.0222677498	-0.5720580413	 0.090718
H	 0.3709715878	-0.4784907687	 2.2195922034	 0.088201
H	 2.5735791028	 0.7175628423	 0.5907449125	 0.097524
H	 4.704008135	-1.4032306305	 3.5457121809	 0.191891
121.4568	144.7468	196.2368	218.2014	280.4857	374.9654	429.0534	491.4679	499.1165	560.0625	619.6921	635.1463	663.3188	811.0103	850.2993	869.2159	889.3621	909.2277	929.4809	938.3221	957.9177	1033.3874	1046.8095	1070.0754	1095.7072	1115.9096	1162.6078	1186.5775	1203.3283	1231.7148	1248.1917	1296.343	1302.7053	1313.8455	1362.975	1375.662	1414.5098	1489.5708	1497.6294	1500.4795	2239.3255	3030.7215	3058.5184	3060.4445	3065.5729	3096.637	3101.592	3117.4527	3129.9027	3136.9847	3505.8106
CC1CC2OC1C2C#C	C[C@H]1C[C@@H]2O[C@H]1[C@H]2C#C	
InChI=1S/C8H10O/c1-3-6-7-4-5(2)8(6)9-7/h1,5-8H,4H2,2H3	InChI=1S/C8H10O/c1-3-6-7-4-5(2)8(6)9-7/h1,5-8H,4H2,2H3/t5-,6-,7-,8+/m0/s1
