18
gdb 7422	3.27448	1.46097	1.17298	0.3503	68.64	-0.2367	-0.0812	0.1555	1089.0529	0.149838	-384.983963	-384.974128	-384.973184	-385.019307	33.816	
C	-0.168108591	 1.589818307	 0.1270213034	-0.40094
C	 0.0729698609	 0.0677723808	-0.00206133	-0.060007
C	 0.8272997381	-0.2850318161	-1.2851768155	-0.392212
C	 0.8237439598	-0.4116923689	 1.2276907084	 0.273285
O	 2.0066406218	-0.6661591093	 1.2483884574	-0.292309
C	 0.000067697	-0.5725694308	 2.5350160261	 0.309226
C	 0.7873582207	-0.9354708674	 3.7697996544	-0.472555
O	-1.1998771293	-0.4221554532	 2.5171136153	-0.278301
H	 0.7822470681	 2.133471287	 0.1532396297	 0.125514
H	-0.7375317876	 1.9467415667	-0.7360668615	 0.12582
H	-0.7355087139	 1.8304303124	 1.0291331983	 0.136903
H	-0.9095809848	-0.4165788457	 0.0155084898	 0.109492
H	 1.8208669175	 0.1714038071	-1.2896344672	 0.131691
H	 0.9616886418	-1.3659914461	-1.3844814977	 0.119865
H	 0.2763884035	 0.0733822185	-2.1597053585	 0.111889
H	 1.3478226823	-1.8595605159	 3.5991735038	 0.158295
H	 1.5349322637	-0.1627402412	 3.9773312884	 0.154129
H	 0.1113343914	-1.0467727949	 4.6176721454	 0.140215
44.2027	56.0895	109.2522	176.3398	196.4141	209.0516	249.6612	300.9725	319.9822	393.4136	432.7866	519.6172	587.9992	699.8762	735.7246	860.8861	920.3085	935.4927	972.5698	1013.0334	1050.6176	1107.7213	1126.0712	1191.8692	1244.6539	1315.8113	1367.5834	1383.4513	1395.5112	1417.3027	1452.1228	1460.2979	1487.2275	1487.2876	1500.6543	1511.9966	1796.6377	1804.4732	3038.7779	3044.3761	3050.0812	3055.669	3109.4069	3111.9396	3114.0523	3122.214	3127.6512	3162.2719
CC(C)C(=O)C(C)=O	CC(C)C(=O)C(=O)C	
InChI=1S/C6H10O2/c1-4(2)6(8)5(3)7/h4H,1-3H3	InChI=1S/C6H10O2/c1-4(2)6(8)5(3)7/h4H,1-3H3
