14
gdb 127354	3.52593	1.70826	1.1592	7.7632	69.51	-0.2293	-0.0112	0.2181	976.2398	0.104103	-429.039459	-429.032414	-429.031469	-429.07113	25.988	
C	-0.0146341292	 1.4888009008	 0.0013665867	-0.354945
N	-0.007656643	 0.041715801	 0.0364888457	-0.161878
C	-0.0390567753	-0.8306340136	-1.0615613816	-0.006488
N	-0.0231838485	-2.1012488106	-0.7545567036	-0.33577
C	 0.0212747868	-2.0921003123	 0.6218736559	 0.325478
C	 0.0311953012	-0.7986493581	 1.1103758579	 0.432059
N	 0.0745357251	-0.9202436211	 2.447774828	-0.376443
N	 0.0909593235	-2.2763432068	 2.7646222464	-0.121905
N	 0.0586998402	-2.9644806931	 1.6661148661	-0.271079
H	 0.8907210142	 1.8991910568	 0.4603867631	 0.149003
H	-0.0505231679	 1.8120596336	-1.0405144295	 0.15638
H	-0.8908848338	 1.8919535445	 0.5194681873	 0.148996
H	-0.0732722245	-0.4236904298	-2.062661362	 0.137298
H	 0.0962448912	-0.2488695712	 3.1954018198	 0.279293
102.1238	149.6099	241.8219	254.7309	350.0636	402.9881	546.4302	616.8842	620.24	685.527	725.6953	781.496	818.3469	826.0673	898.0225	1018.0343	1046.2173	1135.6592	1153.0119	1254.9705	1255.7377	1283.0029	1365.8165	1375.1593	1440.7487	1471.1704	1482.7582	1500.0733	1521.1968	1525.5409	1651.5302	3035.5537	3095.3903	3139.2739	3239.8473	3685.2438
CN1C=NC2=C1NN=N2	Cn1cnc2c1[nH]nn2	
InChI=1S/C4H5N5/c1-9-2-5-3-4(9)7-8-6-3/h2H,1H3,(H,6,7,8)	InChI=1S/C4H5N5/c1-9-2-5-3-4(9)7-8-6-3/h2H,1H3,(H,6,7,8)
