20
gdb 85003	2.1741	1.60782	0.99313	4.2304	83.59	-0.2356	-0.0124	0.2232	1233.1848	0.169681	-403.223438	-403.213371	-403.212426	-403.258943	36.029	
C	-0.0442636484	 1.5716539906	-0.0365825976	-0.394321
C	-0.003460829	 0.0389475308	 0.0538634711	-0.046558
N	 0.7059076877	-0.5685762261	-1.051308923	-0.3505
C	 1.7823621328	-1.3259037656	-0.655065455	 0.372854
O	 2.558890708	-1.9208159448	-1.3762168301	-0.389625
C	 1.7862944067	-1.2631511281	 0.8406810442	 0.082418
C	 2.8276628599	-2.0075929418	 1.6076727047	-0.492289
C	 0.7701145431	-0.489585626	 1.2523386833	 0.202202
C	 0.3543891473	-0.138267123	 2.644390665	-0.499749
H	 0.9704188904	 1.9798993626	-0.0526263425	 0.129867
H	-0.5604575268	 1.8901113772	-0.9478754645	 0.118938
H	-0.5830300763	 1.9978801308	 0.8150666519	 0.122062
H	-1.0397297863	-0.334178801	 0.1007312381	 0.092547
H	 0.4981074032	-0.4012105149	-2.0210984292	 0.247394
H	 3.8284097762	-1.6490632087	 1.3422716731	 0.143434
H	 2.7004691701	-1.910981706	 2.6883239975	 0.116114
H	 2.806242193	-3.0709427507	 1.3456921976	 0.144329
H	 0.9649205743	-0.651683347	 3.3900732405	 0.134036
H	 0.4380915009	 0.9399936114	 2.8286773312	 0.135224
H	-0.6943372669	-0.4062615198	 2.8235394137	 0.131622
44.3391	76.0669	118.003	138.7215	209.2885	255.031	264.6261	293.5994	337.9463	346.0112	445.2806	538.3012	548.8461	586.7857	673.9613	720.699	775.3863	838.2358	942.8911	976.2387	1011.3361	1049.0785	1067.605	1103.3044	1124.2708	1137.0147	1170.4601	1194.2936	1311.5078	1344.8402	1365.3122	1399.1329	1413.0229	1416.5612	1421.8203	1471.7676	1479.3446	1482.4	1486.9759	1494.3725	1498.2337	1729.73	1813.0137	2968.3686	3022.1283	3037.2804	3038.0896	3067.3261	3089.4157	3107.2681	3120.6028	3121.8823	3126.1386	3667.1135
CC1NC(=O)C(C)=C1C	C[C@H]1NC(=O)C(=C1C)C	
InChI=1S/C7H11NO/c1-4-5(2)7(9)8-6(4)3/h6H,1-3H3,(H,8,9)	InChI=1S/C7H11NO/c1-4-5(2)7(9)8-6(4)3/h6H,1-3H3,(H,8,9)/t6-/m1/s1
