22
gdb 11475	4.18386	1.23795	1.11476	1.0224	78.64	-0.2449	0.0814	0.3263	1186.567	0.200584	-350.218207	-350.209308	-350.208364	-350.252589	33.058	
C	 0.1730693058	 0.9928366413	 0.4673816196	-0.236281
O	 0.0510377661	-0.3028934622	-0.0663455625	-0.248887
C	 0.5649703251	-0.4416696647	-1.3885148322	 0.143863
C	 2.1046990936	-0.5859192986	-1.4040097471	-0.232421
C	 2.3321871632	-2.0941796836	-1.2458083494	-0.201247
C	 1.2600556342	-2.7052982514	-2.1663856131	 0.060741
C	 0.9787415836	-4.1885958029	-1.9333990369	-0.408081
C	 0.0325594741	-1.7849070664	-1.9467944751	-0.240377
H	 1.220359295	 1.3101748627	 0.5838953397	 0.102698
H	-0.3400704126	 1.7399408875	-0.1596336722	 0.100721
H	-0.295289458	 0.9815160728	 1.4551475231	 0.124013
H	 0.2333023504	 0.4201905421	-1.9864575296	 0.053627
H	 2.4908526666	-0.2493922145	-2.3744959803	 0.091671
H	 2.5883062297	 0.0216017101	-0.6342695295	 0.094631
H	 3.3477850528	-2.4129876286	-1.4991476007	 0.08694
H	 2.139803767	-2.3894223605	-0.2065212073	 0.102669
H	 1.604810621	-2.578229052	-3.2024498976	 0.064916
H	 0.6436822363	-4.3647520767	-0.9045855841	 0.114903
H	 0.1963129742	-4.5581867422	-2.605206611	 0.110285
H	 1.8743233525	-4.7963877804	-2.1024236195	 0.108767
H	-0.6392701012	-2.2066275275	-1.1924735292	 0.113316
H	-0.5510804694	-1.6491523841	-2.8614340351	 0.093534
19.5994	116.6251	164.9649	220.0591	231.5639	287.4118	300.6998	376.2168	428.9939	449.3351	554.9011	679.9575	802.9472	811.1884	861.9701	906.6894	918.2959	957.2118	985.9315	998.8004	1017.5028	1072.2625	1112.6159	1134.0535	1160.2211	1179.7583	1186.0345	1206.2374	1235.0272	1256.0723	1284.8652	1311.9625	1325.5512	1341.2627	1358.5433	1380.5377	1395.9521	1410.313	1473.799	1478.5738	1480.1313	1491.0868	1494.7016	1496.6871	1500.3213	1512.2651	2968.8832	2984.4376	2996.731	3015.715	3022.8185	3030.0968	3034.5833	3054.3393	3084.4656	3090.3996	3092.0926	3094.469	3100.6799	3106.9898
COC1CCC(C)C1	CO[C@H]1CC[C@@H](C)C1	
InChI=1S/C7H14O/c1-6-3-4-7(5-6)8-2/h6-7H,3-5H2,1-2H3	InChI=1S/C7H14O/c1-6-3-4-7(5-6)8-2/h6-7H,3-5H2,1-2H3/t6-,7+/m1/s1
