19
gdb 63178	2.38001	1.68903	1.32566	1.0035	71.28	-0.2346	0.07	0.3045	1043.0713	0.156959	-460.140738	-460.13159	-460.130646	-460.173972	34.464	
C	-0.0766171228	 1.578182382	 0.0240212495	-0.448797
C	 0.0238324569	 0.0744173578	 0.0199795811	 0.277481
O	-1.0988828673	-0.5984852886	-0.4915046665	-0.462532
C	 1.3460413551	-0.6540161597	-0.2165260538	-0.069536
O	 2.5293138996	 0.0988388324	-0.0721728756	-0.25473
C	 2.7891816294	 0.0996158299	 1.3216293267	 0.011033
O	 1.5326216427	 0.0793298151	 1.9700170913	-0.290411
C	 0.6902896678	-0.7096402745	 1.139831819	 0.344149
C	 0.0777113368	-1.9101909636	 1.8024001271	-0.470131
H	 0.8054191378	 2.037733729	 0.468325282	 0.140766
H	-0.1753423358	 1.9549775687	-1.0013031931	 0.10703
H	-0.9594999279	 1.8916827411	 0.5892812068	 0.126604
H	-1.1682744191	-0.3834076782	-1.4289209717	 0.284694
H	 1.3944181358	-1.4986944104	-0.8976152908	 0.102584
H	 3.3830606608	-0.7882323937	 1.5993748449	 0.091979
H	 3.3197214233	 1.0170341224	 1.5899912107	 0.120291
H	-0.5294531301	-1.6019627221	 2.6597326383	 0.130424
H	-0.5675212986	-2.4398446542	 1.1000456684	 0.141653
H	 0.8545505255	-2.5924911032	 2.1622479757	 0.117446
127.2621	169.6308	182.7414	190.8752	205.7917	261.8841	287.9588	319.6335	370.563	402.1425	474.594	526.1807	645.8227	722.8643	752.3708	755.2552	897.9967	926.4753	966.3074	982.589	1005.4958	1045.3664	1074.2128	1114.0283	1130.6981	1159.2384	1187.995	1203.7604	1228.5812	1236.9309	1283.5182	1307.7933	1405.7404	1411.4943	1415.7833	1451.2476	1481.4193	1484.3945	1491.5569	1505.4449	1537.8458	2954.6043	3032.5736	3040.511	3096.1371	3097.1208	3101.394	3145.4189	3151.8009	3158.967	3786.9618
CC1(O)C2OCOC12C	C[C@@]1(O)[C@H]2OCO[C@@]12C	
InChI=1S/C6H10O3/c1-5(7)4-6(5,2)9-3-8-4/h4,7H,3H2,1-2H3	InChI=1S/C6H10O3/c1-5(7)4-6(5,2)9-3-8-4/h4,7H,3H2,1-2H3/t4-,5-,6-/m1/s1
