19
gdb 65708	4.20265	0.75675	0.73955	2.2059	78.93	-0.2515	-0.0385	0.2129	1547.4612	0.155668	-423.035973	-423.02612	-423.025176	-423.071648	34.896	
C	-0.1695437026	 1.6637723329	 0.1257652173	-0.467373
C	-0.0206940732	 0.1537428393	 0.0330209561	 0.313306
C	-1.2398851784	-0.5474203924	-0.556558386	-0.340241
C	-1.4558375187	-0.1861899292	-2.0153542094	 0.165013
O	-2.4964688256	 0.1961172761	-2.4821358253	-0.2348
C	 1.3270323344	-0.437217108	-0.2425810378	-0.335419
C	 0.7092038687	-0.6195216564	 1.1400138904	-0.148346
C	 1.3217173118	 0.0598343548	 2.3041896108	 0.157569
O	 1.3159319319	-0.3874822058	 3.4249720508	-0.265798
H	 0.7458028052	 2.1520320447	 0.4665195609	 0.125929
H	-0.4180538003	 2.0831379813	-0.8554318224	 0.134501
H	-0.9764008105	 1.9381264882	 0.8136838393	 0.135647
H	-1.0944064789	-1.6356491398	-0.5150813169	 0.123197
H	-2.1513699199	-0.3077951318	-0.0003311351	 0.128841
H	-0.5497181055	-0.3084944765	-2.653429202	 0.078439
H	 1.4111534813	-1.324638855	-0.8603099903	 0.127308
H	 2.1725588319	 0.2396183831	-0.3179906483	 0.12718
H	 0.3096391597	-1.5979940849	 1.3856917515	 0.106774
H	 1.8204758986	 1.0301314496	 2.0806394763	 0.068273
51.8406	61.3162	112.562	131.9657	205.3424	244.9004	273.2113	316.0693	361.9443	385.9869	445.9338	494.9528	553.868	694.7676	804.6203	840.2907	875.2717	943.2453	959.02	974.1644	1026.352	1050.5968	1069.2334	1082.6091	1091.9933	1115.4325	1186.4257	1200.6037	1244.4229	1308.9712	1334.2195	1376.6036	1423.5042	1425.682	1448.6503	1456.7974	1487.0643	1496.0016	1504.3421	1813.982	1836.7721	2863.2047	2869.7723	3021.5007	3036.4569	3093.494	3095.1455	3124.9005	3130.0444	3168.532	3215.5586
CC1(CC=O)CC1C=O	C[C@@]1(CC=O)C[C@H]1C=O	
InChI=1S/C7H10O2/c1-7(2-3-8)4-6(7)5-9/h3,5-6H,2,4H2,1H3	InChI=1S/C7H10O2/c1-7(2-3-8)4-6(7)5-9/h3,5-6H,2,4H2,1H3/t6-,7+/m0/s1
