21
gdb 116902	4.31029	0.57909	0.53735	1.5114	89.9	-0.2268	0.0575	0.2842	2092.2847	0.180413	-387.051514	-387.040844	-387.0399	-387.088828	37.936	
C	-0.0569593622	 1.5057947918	-0.0029703946	-0.455322
C	 0.0098372372	-0.0146883455	-0.0029244853	 0.189154
C	 1.3645068294	-0.67194548	-0.2245443508	-0.287489
C	 0.7411359907	-0.6992499844	 1.1428519576	-0.287487
C	-1.15054104	-0.675895461	-0.5451272243	 0.032229
C	-2.1382932062	-1.1919218481	-1.005713298	 0.036371
C	-3.3162425808	-1.8511425493	-1.5558892647	-0.326616
C	-3.1968641215	-3.3789147808	-1.5340580147	-0.061959
O	-4.393782423	-3.8966992825	-2.0902315471	-0.415418
H	 0.8572578197	 1.9317961522	 0.4221571033	 0.110382
H	-0.1722628549	 1.8916555372	-1.020722639	 0.125484
H	-0.9062688174	 1.8594549523	 0.5899914286	 0.125484
H	 1.3876428632	-1.5926714924	-0.7950287441	 0.120036
H	 2.2100558769	-0.0134387541	-0.3933102525	 0.113711
H	 1.1585238271	-0.0594907975	 1.913281124	 0.11371
H	 0.3396767994	-1.6385678234	 1.5037338929	 0.120036
H	-4.2155395081	-1.5692027603	-0.99414783	 0.133753
H	-3.4880265209	-1.5352074093	-2.5924515578	 0.133777
H	-2.3126847367	-3.6842970458	-2.1134690278	 0.096003
H	-3.0483688454	-3.7187141342	-0.4980963367	 0.096002
H	-4.3388433665	-4.8564557051	-2.0840732389	 0.288157
23.8087	62.6361	78.9936	152.5241	162.7237	226.7567	237.044	284.5052	307.1257	355.2522	378.1169	433.7386	542.9339	557.7348	636.9175	786.4614	797.3034	839.477	856.1258	940.9152	950.3863	999.21	1044.5309	1071.8685	1076.8804	1079.6964	1088.1277	1089.6096	1117.6104	1193.9855	1221.7049	1237.3387	1292.4045	1303.952	1323.114	1359.4512	1415.0068	1455.4137	1464.9409	1481.4019	1487.264	1496.2626	1503.4591	1527.846	2361.4491	2982.235	3012.1897	3025.8564	3033.305	3062.2326	3104.4799	3106.4125	3134.3217	3138.9351	3219.6003	3234.0962	3834.4676
CC1(CC1)C#CCCO	CC1(CC1)C#CCCO	
InChI=1S/C8H12O/c1-8(5-6-8)4-2-3-7-9/h9H,3,5-7H2,1H3	InChI=1S/C8H12O/c1-8(5-6-8)4-2-3-7-9/h9H,3,5-7H2,1H3
