18
gdb 38163	2.48327	2.21506	1.47011	1.9062	76.1	-0.2268	-0.0051	0.2217	913.2131	0.149737	-401.864626	-401.857942	-401.856998	-401.895202	28.248	
C	-0.005643374	 1.5212093629	-0.0392548171	-0.239853
N	 1.4854844088	 1.3328616723	 0.047678568	-0.113026
C	 1.2356145465	 0.0362839132	 0.7940061451	-0.261005
C	-0.0830333464	 0.0083913118	 0.004651158	 0.370228
O	-1.2112869546	-0.7968036573	-0.2699299462	-0.322901
C	-0.094728838	-0.795036915	-1.20703388	-0.00775
C	 0.0868714867	-0.0641788882	-2.4852906046	-0.163355
C	 1.1383455994	 0.7673185521	-2.5096212121	-0.039479
C	 2.0414024663	 1.1721070789	-1.3300006319	-0.212542
H	-0.3728447033	 1.9923428577	 0.8781029445	 0.106226
H	-0.3736256705	 2.0588295012	-0.9121363697	 0.117864
H	 1.9600731028	-0.7628066513	 0.6192829579	 0.108501
H	 1.1615392912	 0.2568613	 1.8628402833	 0.113117
H	 0.433319116	-1.7507618529	-1.1655599963	 0.102727
H	-0.4947777963	-0.2784520394	-3.3770842415	 0.101573
H	 1.4126424605	 1.2422222158	-3.4503231188	 0.096189
H	 2.4689603852	 2.1473617642	-1.5915000498	 0.120816
H	 2.8955673895	 0.4846610539	-1.2685802989	 0.122669
172.4934	313.4323	357.4601	386.2459	395.3524	426.1281	481.476	532.2367	592.039	705.956	718.1625	793.8273	844.2816	870.4578	893.5973	908.1031	952.4967	968.5707	984.0048	1004.5957	1013.0481	1032.685	1106.5837	1108.2818	1137.03	1182.2199	1206.0793	1239.6934	1249.7687	1282.8663	1297.5548	1342.0788	1365.4301	1395.5873	1467.7105	1494.1754	1501.8602	1521.5095	1662.7537	3019.9459	3051.3657	3052.1721	3056.7515	3070.9214	3115.7185	3137.0218	3141.7816	3173.5638
C1N2CC11OC1C=CC2	C1N2C[C@]31O[C@H]3C=CC2	
InChI=1S/C7H9NO/c1-2-6-7(9-6)4-8(3-1)5-7/h1-2,6H,3-5H2	InChI=1S/C7H9NO/c1-2-6-7(9-6)4-8(3-1)5-7/h1-2,6H,3-5H2/t6-/m0/s1
