16
gdb 69743	3.48275	1.60762	1.39589	1.7227	66.87	-0.2465	0.0177	0.2642	927.1019	0.12581	-437.857362	-437.850492	-437.849548	-437.888378	27.583	
O	-0.047104701	 1.4239122569	 0.0493798581	-0.462474
C	 0.005590854	 0.0441433039	 0.0377081438	 0.379486
C	-0.2882249366	-0.7771335837	-1.1820481608	-0.361804
C	-1.1768211197	-0.941929967	 0.0261136008	-0.104049
C	-0.4776121931	-1.7993071481	 1.1030550646	-0.023632
N	 0.1365131197	-3.0670052485	 0.6913349209	-0.260954
C	 1.3709122713	-2.8075461885	 0.5388178215	 0.104547
O	 1.8567817478	-1.5547958059	 0.7752263836	-0.231411
C	 0.6923773215	-0.777595965	 1.1346722354	-0.010713
H	 0.6209368094	 1.7616119833	-0.5574613075	 0.291644
H	-0.7449949496	-0.1986964821	-1.97908104	 0.119924
H	 0.3637526349	-1.5763968566	-1.5200538935	 0.129195
H	-2.238509071	-0.7351324993	-0.0145371507	 0.102139
H	-1.0637760817	-1.9217414887	 2.0153650447	 0.090081
H	 2.1275021657	-3.5195591891	 0.225571132	 0.138001
H	 0.8937491084	-0.2217507815	 2.0505726671	 0.100019
144.9762	245.797	252.5279	290.0305	378.3063	457.2328	504.69	576.4248	636.8205	715.6178	800.9693	815.3972	867.2591	890.8132	917.5513	939.0423	964.5816	981.39	991.6522	1002.4151	1050.7273	1078.0527	1084.6162	1094.9921	1195.6882	1213.6505	1234.9814	1273.7381	1302.1225	1316.4159	1326.185	1345.9462	1411.2352	1498.037	1671.2232	3094.2258	3118.9069	3126.3893	3199.4266	3207.4509	3212.6552	3793.9124
OC12CC1C1N=COC21	O[C@]12C[C@H]1[C@H]1N=CO[C@@H]21	
InChI=1S/C6H7NO2/c8-6-1-3(6)4-5(6)9-2-7-4/h2-5,8H,1H2	InChI=1S/C6H7NO2/c8-6-1-3(6)4-5(6)9-2-7-4/h2-5,8H,1H2/t3-,4+,5+,6+/m0/s1
