12
gdb 129262	5.30298	1.0835	0.89968	2.0417	68.92	-0.2783	-0.1304	0.1478	1169.7593	0.076407	-468.767822	-468.760362	-468.759418	-468.801343	26.172	
N	-0.1084650232	 1.3411430061	 0.0102860632	-0.485342
C	-0.0686748572	 0.0835664458	 0.0036065341	 0.467538
O	 1.2016805373	-0.5662162494	-0.0073343037	-0.249771
N	 1.3419907215	-1.9154612371	-0.0148189542	-0.063802
C	 0.2521773152	-2.6142080027	-0.011904516	 0.208275
C	 0.3792339342	-4.1059377952	-0.0199656006	 0.116627
O	 1.4178133724	-4.7090424619	-0.0288446854	-0.22488
C	-1.0527290415	-1.9756013053	-0.0012994248	-0.022277
N	-1.2115355189	-0.7038355053	 0.0060166839	-0.239075
H	 0.8305232564	 1.7397402311	 0.0069153402	 0.24683
H	-0.6034553288	-4.6267011151	-0.0169162994	 0.097011
H	-1.9459964575	-2.601625871	 0.0006213926	 0.148866
22.1704	104.0065	194.9017	271.03	345.0999	406.4841	453.1983	519.9239	605.9339	640.999	771.8514	772.5791	806.3945	875.0873	924.0155	972.2607	1016.5294	1031.8136	1096.7171	1216.9728	1253.3578	1426.7686	1437.7134	1573.3049	1684.9408	1756.6416	1830.2968	2895.1744	3126.9595	3505.7871
N=C1ON=C(C=O)C=N1	[NH]C1=N[CH]C(=NO1)C=O	
InChI=1S/C4H3N3O2/c5-4-6-1-3(2-8)7-9-4/h1-2,5H	InChI=1S/C4H3N3O2/c5-4-6-1-3(2-8)7-9-4/h1-2,5H
