15
gdb 28683	3.72289	1.02081	0.8723	3.1428	72.53	-0.2494	-0.012	0.2375	1302.3691	0.11292	-416.864693	-416.856355	-416.85541	-416.898803	29.122	
C	 0.1424286737	 1.3977219465	 0.1726265943	-0.48991
C	-0.0071732311	-0.0630038618	-0.0474374619	 0.38582
N	-0.3098339018	-0.6924727608	-1.1390869928	-0.292973
C	-0.3067199978	-2.0349491571	-0.7837822803	-0.196341
C	 0.0000998392	-2.1498335122	 0.5286210876	 0.334882
C	 0.1405186744	-3.2942112212	 1.4755835535	-0.453339
C	 1.5050246292	-3.4595721162	 1.9921008808	 0.269169
N	 2.5772697032	-3.588670835	 2.4009156792	-0.298437
O	 0.1947335574	-0.8858332836	 1.0189088572	-0.201133
H	 1.1534798882	 1.6407970303	 0.5147954207	 0.154233
H	-0.0525012168	 1.9170601306	-0.7656298462	 0.161457
H	-0.5587091387	 1.7550570266	 0.9336827003	 0.149069
H	-0.5235238264	-2.8146413509	-1.496981451	 0.130764
H	-0.5372979431	-3.1777189734	 2.3306127836	 0.172558
H	-0.1535352796	-4.2133488415	 0.959169655	 0.17418
47.9154	88.8465	107.5749	205.9306	251.0895	320.9482	377.0189	395.8511	476.4188	633.4477	686.7477	695.4535	777.0119	862.931	908.638	932.9482	986.0004	987.5078	1039.1441	1067.0769	1159.2412	1206.9628	1239.3085	1252.3883	1338.5504	1371.2863	1415.6617	1445.0889	1475.2174	1480.0027	1614.7235	1647.649	2368.3169	3036.1919	3047.0679	3093.5573	3102.7091	3160.6079	3262.9309
CC1=NC=C(CC#N)O1	Cc1ncc(CC#N)o1	
InChI=1S/C6H6N2O/c1-5-8-4-6(9-5)2-3-7/h4H,2H2,1H3	InChI=1S/C6H6N2O/c1-5-8-4-6(9-5)2-3-7/h4H,2H2,1H3
