22
gdb 107048	3.77483	1.05818	0.94151	2.7298	82.44	-0.2298	0.0668	0.2967	1333.0122	0.195162	-404.339514	-404.330342	-404.329398	-404.373241	35.284	
C	 0.0738788801	 1.5678761284	 0.0521387056	-0.400831
C	 0.0415113323	 0.0390688762	 0.0271492262	 0.039587
C	 0.7560898052	-0.5824204941	-1.2020838441	-0.229009
C	 1.2312551073	-1.9839066409	-0.7558128092	-0.261513
C	 1.4503364881	-1.8424768703	 0.7442971793	 0.374063
C	 1.5947665186	-3.0636328626	 1.6033905399	-0.19391
O	 2.8144028649	-3.7127445488	 1.2638617943	-0.417844
N	 2.2156569222	-0.6172837884	 1.0797268739	-0.36873
C	 0.7414816271	-0.6232024685	 1.2064898996	-0.107253
H	 1.1081444629	 1.922050256	 0.1071311416	 0.130276
H	-0.3832234342	 1.9881817732	-0.8500262908	 0.109117
H	-0.468797596	 1.967580654	 0.915895246	 0.10363
H	-1.0050311733	-0.2977109852	 0.0435281363	 0.064653
H	 0.1078526275	-0.6174009457	-2.082042814	 0.088191
H	 1.6233960551	 0.0320151678	-1.4566059522	 0.117647
H	 0.4526579868	-2.7384097693	-0.9269348071	 0.088312
H	 2.1310219542	-2.3142439251	-1.2814375505	 0.11239
H	 1.5826779265	-2.7697364582	 2.6668148108	 0.075547
H	 0.733869421	-3.731697878	 1.4372870043	 0.088098
H	 2.8485061249	-4.5514126533	 1.7334607937	 0.287729
H	 2.6367196404	-0.7336089041	 1.9987997272	 0.226635
H	 0.3026273584	-0.5617858829	 2.1991228491	 0.073217
75.1961	121.4279	172.5913	216.9637	239.9224	260.7424	305.779	360.4489	387.4707	412.8809	540.532	602.6887	639.9346	701.2478	817.5017	843.8506	873.1992	913.9045	936.1324	963.202	983.8835	1003.1421	1020.605	1062.9481	1069.3587	1074.6689	1111.36	1140.0648	1149.4349	1215.5415	1224.0966	1238.0283	1258.7836	1283.8859	1303.7007	1320.8306	1343.9871	1371.6817	1378.8196	1405.3501	1433.0384	1473.0654	1485.9918	1495.0379	1498.4278	1503.11	1511.0908	2950.6231	2983.8013	3001.3851	3028.776	3029.0803	3062.603	3092.0893	3092.5792	3105.9828	3110.7986	3141.5541	3494.734	3826.7529
CC1CCC2(CO)NC12	C[C@H]1CC[C@@]2(CO)N[C@@H]12	
InChI=1S/C7H13NO/c1-5-2-3-7(4-9)6(5)8-7/h5-6,8-9H,2-4H2,1H3	InChI=1S/C7H13NO/c1-5-2-3-7(4-9)6(5)8-7/h5-6,8-9H,2-4H2,1H3/t5-,6-,7-/m0/s1
