21
gdb 103603	2.52878	1.24619	1.07728	3.2468	79.	-0.2407	-0.0264	0.2142	1248.907	0.180515	-424.242702	-424.232698	-424.231754	-424.277485	36.882	
C	-0.9327690413	 1.0847509897	 0.2615620964	-0.408708
C	 0.0347500294	-0.0557194919	-0.0236038328	-0.081186
C	 0.8109006509	-0.129607742	-1.3833482241	-0.318821
C	 2.1525940028	-0.4228177206	-0.628881191	 0.179547
C	 2.5913653527	-1.8905228659	-0.659204763	-0.444291
C	 3.3352449721	 0.5230142584	-0.8915127179	-0.108574
O	 4.321910192	 0.4018370259	 0.1127343669	-0.423658
C	 1.4079675381	-0.0221834654	 0.6545380961	 0.370978
O	 1.8012556253	 0.3763986994	 1.7213046905	-0.336009
H	-0.4718051768	 2.0538510006	 0.0448548228	 0.122164
H	-1.8376032783	 0.9958366905	-0.347501076	 0.122098
H	-1.2282240289	 1.0847603829	 1.3149048525	 0.136745
H	-0.441983193	-1.021574293	 0.1869384308	 0.108021
H	 0.4819118885	-0.9005623594	-2.0818959885	 0.107254
H	 0.8242758713	 0.835755344	-1.8978746487	 0.109236
H	 2.8907552886	-2.1687760539	-1.6760072161	 0.120596
H	 3.4481156419	-2.0373262597	 0.0023575404	 0.14578
H	 1.7879924845	-2.5662534451	-0.3487191916	 0.112574
H	 3.817304388	 0.2742872316	-1.8446836196	 0.106626
H	 2.9661110533	 1.5588812464	-0.9709945724	 0.082646
H	 3.876833699	 0.5667376077	 0.9557564452	 0.296979
55.7105	131.2622	167.7226	174.9424	208.6723	217.7713	242.4007	283.3217	296.2456	368.4004	400.4764	531.484	542.8409	627.1819	712.2504	724.5724	822.9337	871.5326	911.0919	931.1067	961.5022	975.6959	1007.9273	1066.2153	1077.3733	1118.2845	1144.8507	1176.0428	1181.5936	1215.5732	1248.2905	1257.1302	1306.0884	1336.1979	1378.1729	1399.6328	1408.0682	1448.6055	1482.7203	1488.7476	1493.8113	1494.1815	1499.8792	1508.8832	1847.6459	2964.4298	3030.2752	3032.7305	3037.4203	3052.333	3061.0039	3094.9339	3106.5703	3113.5084	3123.7848	3129.7	3745.3053
CC1CC(C)(CO)C1=O	C[C@H]1C[C@@](C)(CO)C1=O	
InChI=1S/C7H12O2/c1-5-3-7(2,4-8)6(5)9/h5,8H,3-4H2,1-2H3	InChI=1S/C7H12O2/c1-5-3-7(2,4-8)6(5)9/h5,8H,3-4H2,1-2H3/t5-,7-/m0/s1
