16
gdb 129668	3.08647	1.40297	1.04461	3.6692	73.08	-0.2106	0.0103	0.2209	1121.3779	0.126558	-430.207221	-430.199311	-430.198367	-430.240256	29.517	
N	 0.0934263567	 1.4287939375	 0.1042639543	-0.611373
C	 0.0241104028	 0.0437248868	 0.0222066763	 0.254104
C	-1.0473425768	-0.8016072787	-0.1869214646	 0.314485
N	-0.5840335256	-2.0787860564	-0.2778241595	-0.257719
N	 0.707139739	-2.0891674863	-0.1309170688	-0.137925
N	 1.0877340871	-0.7931787485	 0.0419814283	-0.223565
N	-2.3866387939	-0.3824868311	-0.2876986407	-0.209015
C	-3.2324558456	-1.0651852018	-1.2829955481	-0.220281
C	-3.4209901854	-1.326568423	 0.1650625273	-0.220496
H	 0.5883178072	 1.7685632564	 0.9210428958	 0.252331
H	-0.8466475494	 1.809855844	 0.0941216214	 0.265386
H	 2.0652100758	-0.5729332659	 0.1412331063	 0.27624
H	-3.9218671901	-0.4194731704	-1.8191418934	 0.11636
H	-2.7614518422	-1.8474181605	-1.8706576531	 0.141561
H	-3.0768059778	-2.2835560203	 0.5449317955	 0.144769
H	-4.2507076019	-0.8734464317	 0.6999602329	 0.115136
44.4759	162.8076	183.4185	262.9153	276.4159	296.0098	467.064	507.4568	533.7508	593.754	691.7538	733.8536	757.6793	812.0926	826.6239	851.1331	925.7163	1010.8959	1037.9974	1044.3166	1106.5435	1116.1901	1134.7417	1174.5927	1185.3326	1219.1227	1257.0741	1309.9341	1360.0474	1409.8737	1480.1133	1506.6191	1533.0759	1635.5072	1675.1818	3113.5224	3116.6059	3203.3624	3217.9167	3513.4119	3600.9584	3662.7625
NC1=C(N=NN1)N1CC1	Nc1c(nn[nH]1)N1CC1	
InChI=1S/C4H7N5/c5-3-4(7-8-6-3)9-1-2-9/h1-2H2,(H3,5,6,7,8)	InChI=1S/C4H7N5/c5-3-4(7-8-6-3)9-1-2-9/h1-2H2,(H3,5,6,7,8)
