18
gdb 90578	3.31027	1.32936	1.02451	4.0616	80.15	-0.2056	0.0022	0.2078	1174.7837	0.148256	-401.969671	-401.961505	-401.960561	-402.002872	30.596	
C	-0.3111762526	 1.5278609092	 0.1226722382	-0.397347
C	 0.0159937244	 0.0468552762	-0.0191800988	-0.154693
C	 1.2298954915	-0.3450234651	-0.9550757068	-0.192806
N	 1.8165266153	-1.0213605456	 0.2155531085	-0.094908
C	 0.8212606673	-0.6078930504	 1.1022741701	 0.40071
C	 1.1076430863	-0.8795936262	 2.3769847715	-0.325581
C	 2.4713974971	-1.5560398489	 2.350328747	-0.376553
C	 2.9302649222	-1.5245949818	 0.8574541939	 0.373394
O	 3.9885468083	-1.8633640948	 0.3857588531	-0.367495
H	 0.5831559354	 2.1065330316	 0.3732709615	 0.128344
H	-0.7277383858	 1.9247843362	-0.808710853	 0.123921
H	-1.0480636668	 1.6878488342	 0.9157304688	 0.129961
H	-0.8837162053	-0.5219407444	-0.2725342288	 0.105779
H	 1.0050089382	-1.0116190247	-1.7908989046	 0.128666
H	 1.8202642344	 0.5059604933	-1.3089394444	 0.128991
H	 0.5322920891	-0.662216537	 3.2629693314	 0.104974
H	 3.2238948194	-1.0485696622	 2.9642610228	 0.141495
H	 2.4489060017	-2.6008422394	 2.6836112697	 0.143148
61.364	103.3291	176.2113	219.5023	261.2194	339.8069	387.0156	537.8751	554.9079	614.6252	658.9184	691.0897	713.6827	761.5438	851.4866	910.39	935.5249	948.3498	960.9115	993.1338	1086.338	1104.5198	1135.481	1142.2578	1176.7286	1191.7474	1237.1846	1249.9335	1272.5687	1315.5649	1356.4478	1377.0134	1412.7304	1438.0572	1494.4552	1495.4427	1510.7327	1713.8922	1830.2757	3036.9726	3041.2473	3051.9697	3063.2695	3077.3038	3107.7788	3108.326	3114.7535	3253.1193
CC1CN2C1=CCC2=O	C[C@H]1CN2C1=CCC2=O	
InChI=1S/C7H9NO/c1-5-4-8-6(5)2-3-7(8)9/h2,5H,3-4H2,1H3	InChI=1S/C7H9NO/c1-5-4-8-6(5)2-3-7(8)9/h2,5H,3-4H2,1H3/t5-/m0/s1
