16
gdb 12141	5.15016	1.53535	1.41876	3.3815	65.21	-0.247	0.076	0.323	912.1671	0.128853	-383.679946	-383.67273	-383.671786	-383.71114	27.686	
C	 0.0795202556	 1.5193932169	-0.0254283547	-0.500974
C	-0.0825138607	 0.0428868973	 0.1248261296	 0.419557
C	-1.3791759266	-0.7954762139	 0.0386766121	-0.395274
C	-0.7185452242	-1.761399343	 1.0532088863	 0.46882
C	-1.3349269927	-2.4796336017	 2.1677265285	-0.271319
O	-0.7824946673	-3.1700802574	 1.0360926735	-0.261927
C	 0.548907699	-0.9331238461	 1.0437175595	-0.149937
O	 0.9655994768	-0.8208640825	-0.3290579564	-0.279705
H	 1.0962478162	 1.8204507495	 0.2398498203	 0.137128
H	-0.1076235578	 1.8255889426	-1.0607482133	 0.135033
H	-0.6272488947	 2.0554408898	 0.6159916058	 0.126052
H	-2.2705054382	-0.3011103274	 0.4337025557	 0.110407
H	-1.5824960392	-1.2093658272	-0.9510439032	 0.123498
H	-0.7914496615	-2.610754334	 3.1029873156	 0.11757
H	-2.4205254452	-2.5106237867	 2.2522917197	 0.117598
H	 1.3102614604	-0.8177402561	 1.807196591	 0.103472
107.7934	198.85	240.1035	291.7515	330.6817	396.3478	425.6215	490.7133	582.6097	683.2662	780.8252	837.9598	843.1434	893.0182	917.3607	948.6148	984.4892	1001.3371	1047.0328	1099.7476	1124.0531	1151.2822	1158.0295	1162.0352	1209.9904	1239.5734	1252.9891	1401.7418	1436.9867	1449.9915	1473.1316	1484.257	1494.9887	1540.6864	3035.7799	3066.7739	3078.9318	3097.9933	3123.2482	3128.5497	3165.2353	3182.2864
CC12CC3(CO3)C1O2	C[C@]12C[C@]3(CO3)[C@H]1O2	
InChI=1S/C6H8O2/c1-5-2-6(3-7-6)4(5)8-5/h4H,2-3H2,1H3	InChI=1S/C6H8O2/c1-5-2-6(3-7-6)4(5)8-5/h4H,2-3H2,1H3/t4-,5-,6-/m0/s1
