16
gdb 28007	3.70134	1.11332	0.85833	3.8614	79.8	-0.1999	-0.016	0.184	1273.889	0.12596	-434.113529	-434.105047	-434.104102	-434.146383	32.09	
N	 0.1106968116	 1.3990264754	 0.1012593895	-0.616744
C	 0.022421067	 0.002735292	 0.0167163886	 0.20281
C	-1.0676934726	-0.817000886	 0.029778407	-0.171676
N	-0.6104000911	-2.1377318281	-0.0101871381	-0.034441
C	-1.4106411192	-3.2593518176	-0.0093374229	 0.172302
O	-1.0010074927	-4.3945336573	-0.057633727	-0.316754
C	 0.7833016328	-2.1385352104	-0.0457953569	-0.167711
C	 1.1995536334	-0.8385774991	-0.0247270361	 0.203723
N	 2.4905445376	-0.3014086486	-0.1032457083	-0.616211
H	 0.7743098447	 1.7730995369	-0.5687095267	 0.251445
H	-0.7809449229	 1.8621484291	-0.0178559407	 0.245098
H	-2.1230182078	-0.6009033507	 0.0602094919	 0.124067
H	-2.4824435312	-2.9922023548	 0.0420473581	 0.083524
H	 1.3167382768	-3.0723903023	-0.0789032492	 0.141595
H	 3.2173384751	-0.9960753834	 0.0103094593	 0.247986
H	 2.6298236086	 0.445065965	 0.5692397314	 0.250985
106.4298	166.8635	198.7478	218.5014	250.0621	313.8847	368.8069	386.881	439.7424	529.2718	589.6925	621.1918	624.0606	698.5626	736.2249	762.9423	782.8618	817.4751	836.0819	1002.5761	1015.9332	1109.7605	1119.5825	1211.7322	1232.4736	1283.3386	1343.8719	1424.8304	1448.1975	1476.8297	1605.2292	1626.8686	1654.1043	1698.48	1805.064	2964.5529	3264.5068	3291.2744	3514.6681	3516.9795	3614.5652	3616.5635
NC1=CN(C=O)C=C1N	Nc1cn(C=O)cc1N	
InChI=1S/C5H7N3O/c6-4-1-8(3-9)2-5(4)7/h1-3H,6-7H2	InChI=1S/C5H7N3O/c6-4-1-8(3-9)2-5(4)7/h1-3H,6-7H2
