17
gdb 38730	2.77682	2.1102	1.64533	0.8808	66.78	-0.2418	0.0824	0.3242	858.3032	0.137938	-458.917511	-458.91104	-458.910096	-458.948002	26.841	
C	-0.004081752	 1.5051930346	-0.1296925983	-0.393915
C	 1.3429829718	 0.8222712345	 0.0294465367	 0.066109
O	 2.0953298965	 0.274921616	-1.0351208031	-0.265576
C	 1.4520652627	-0.9848260418	-1.2350247621	 0.155501
C	 1.7253033349	-2.0505091272	-0.1486143814	-0.090458
O	 1.2315188606	-1.7273827049	 1.1522049171	-0.271415
C	-0.0030163735	-0.9905326283	 1.2071369842	-0.159218
C	 0.0790735343	 0.0191713381	 0.1026700235	 0.327881
O	 0.071722589	-0.6827173177	-1.1462502543	-0.284954
H	-0.2895526016	 2.1670622906	 0.6823906948	 0.124407
H	-0.3608985951	 1.7863160027	-1.1138555436	 0.137816
H	 1.9168951055	 1.0232176186	 0.9267799063	 0.113211
H	 1.7065789398	-1.3524649383	-2.2327054023	 0.098428
H	 1.261856543	-2.9802294379	-0.5155348363	 0.101746
H	 2.7992546437	-2.2211461842	-0.0273927446	 0.119629
H	-0.8661401536	-1.6568169805	 1.075119081	 0.106646
H	-0.0411788462	-0.5441790543	 2.2046440923	 0.114162
202.0038	238.8775	334.7297	347.159	410.8635	471.3362	517.0693	655.2434	690.9576	791.4064	804.4358	829.1555	847.7656	876.0759	912.7748	950.3219	968.4889	988.7736	1030.635	1040.8147	1059.6019	1086.5354	1108.0729	1117.3218	1136.598	1194.8903	1249.2599	1270.6026	1297.0049	1339.1723	1348.5772	1367.8689	1394.0001	1417.5384	1462.4742	1482.4879	1493.9165	2982.8404	3015.7081	3086.0046	3094.4754	3096.0828	3130.4988	3176.979	3230.3577
C1C2OC3COCC12O3	C1[C@@H]2O[C@H]3COC[C@@]12O3	
InChI=1S/C6H8O3/c1-4-6(1)3-7-2-5(8-4)9-6/h4-5H,1-3H2	InChI=1S/C6H8O3/c1-4-6(1)3-7-2-5(8-4)9-6/h4-5H,1-3H2/t4-,5+,6-/m0/s1
