21
gdb 115368	3.14817	1.08629	0.99461	2.054	82.22	-0.2401	0.0075	0.2475	1324.63	0.181958	-424.220338	-424.211073	-424.210129	-424.254764	34.434	
C	 0.0092789446	 1.3439643176	 0.170328831	-0.23323
O	-0.0335496869	-0.0025750168	-0.2373365586	-0.24391
C	-1.3071305798	-0.6228759969	-0.0954485582	 0.092047
C	-1.2161807398	-2.0059301403	-0.7376068263	-0.105015
O	-0.5611291303	-2.9378805014	 0.0993208917	-0.257399
C	-1.2636776941	-3.203545281	 1.3011739903	 0.094317
C	-0.3149184179	-3.9869489723	 2.2058616251	-0.398605
C	-1.764652097	-1.941419825	 1.9544696445	-0.053535
C	-1.7632743993	-0.7610837585	 1.3398699237	-0.114447
H	 0.9937629533	 1.7309675306	-0.1047116418	 0.127294
H	-0.7607798176	 1.9494348716	-0.3358017061	 0.09741
H	-0.1193263349	 1.4613825088	 1.2560869927	 0.106645
H	-2.0537402616	-0.0267890571	-0.6513668352	 0.061634
H	-2.2318461352	-2.3530928612	-0.9907423033	 0.08343
H	-0.6265548397	-1.9433410461	-1.6553244658	 0.115283
H	-2.14056886	-3.8437710034	 1.0761771663	 0.071464
H	 0.5516247932	-3.3724522268	 2.4648364546	 0.131632
H	-0.8218180174	-4.2902008648	 3.1268464523	 0.111538
H	 0.0356631923	-4.8832318559	 1.687763246	 0.126676
H	-2.1443054122	-2.0445673158	 2.9686871016	 0.093824
H	-2.1240985595	 0.1262149549	 1.8520802354	 0.092947
48.5351	89.3264	180.9904	198.1093	235.2337	252.5678	306.9593	339.1271	362.6378	460.8494	489.2088	588.3302	621.9702	742.6119	812.23	822.8383	879.1323	921.5582	943.5422	1001.5542	1018.5381	1058.3458	1093.0244	1113.864	1129.8314	1148.6686	1158.1211	1181.4724	1217.7575	1225.4	1298.1676	1335.0888	1352.3875	1359.9149	1369.2718	1398.3516	1406.8076	1426.6802	1477.4076	1481.8552	1484.7805	1490.466	1500.5616	1510.6133	1718.3709	2896.8163	2933.0357	2967.3608	2972.4332	3022.1087	3045.2151	3103.7047	3109.4369	3121.2212	3127.8981	3146.3614	3171.5901
COC1COC(C)C=C1	CO[C@H]1CO[C@@H](C)C=C1	
InChI=1S/C7H12O2/c1-6-3-4-7(8-2)5-9-6/h3-4,6-7H,5H2,1-2H3	InChI=1S/C7H12O2/c1-6-3-4-7(8-2)5-9-6/h3-4,6-7H,5H2,1-2H3/t6-,7+/m0/s1
