13
gdb 129788	3.54462	1.68052	1.14185	3.934	67.73	-0.2049	-0.0229	0.1821	962.149	0.093217	-445.080586	-445.073673	-445.072729	-445.111678	26.529	
N	 0.0818591963	 1.4025901595	 0.1441310479	-0.607125
C	-0.0396994366	 0.0270172038	 0.0452024489	 0.266398
C	-1.1430745139	-0.8261052853	 0.0367469517	 0.207723
N	-2.5144973741	-0.9088354592	 0.0330486071	-0.310174
N	-2.8283442014	-2.1583874608	-0.0001481049	-0.106415
N	-1.6793287288	-2.928558745	-0.0244329035	-0.351044
C	-0.5876082835	-2.1187887769	 0.0013272765	 0.448854
N	 0.7362956788	-2.168948359	-0.0175094752	-0.383527
N	 1.028175706	-0.8119640948	 0.01926725	-0.251463
H	 0.7923423064	 1.8116179339	-0.449032279	 0.258393
H	-0.8025729361	 1.8747517589	 0.0164486448	 0.27608
H	-1.7670568397	-3.9296119012	-0.0402482956	 0.278805
H	 1.9969432965	-0.5427368239	 0.0663355313	 0.273495
178.9421	215.5192	261.5096	271.4566	362.6097	431.2895	487.7002	565.9195	616.6897	642.4739	686.5762	705.9215	717.8354	787.4677	834.0886	957.6679	1011.0438	1067.1215	1096.976	1205.4566	1284.3267	1313.6551	1356.2404	1411.5905	1459.2006	1484.2259	1619.5767	1650.2241	1685.7817	3547.1968	3644.9868	3666.1367	3690.0388
NC1=C2N=NNC2=NN1	Nc1c2nn[nH]c2n[nH]1	
InChI=1S/C3H4N6/c4-2-1-3(7-6-2)8-9-5-1/h(H4,4,5,6,7,8,9)	InChI=1S/C3H4N6/c4-2-1-3(7-6-2)8-9-5-1/h(H4,4,5,6,7,8,9)
