20
gdb 120347	3.97354	0.97832	0.87413	1.4901	80.95	-0.2312	0.0147	0.2459	1383.7883	0.171795	-403.112331	-403.103759	-403.102815	-403.146082	32.104	
C	 0.001360558	 1.4012110107	-0.0212338009	-0.225102
O	 0.0405481428	-0.004602755	-0.0216689138	-0.236713
C	 0.6300105496	-0.5374550959	 1.1474728837	-0.058372
C	 0.660098216	-2.0605023191	 1.0164020826	-0.05739
C	 1.5130469574	-2.5552007945	-0.1404756364	-0.076029
C	 2.4358217062	-3.4385250694	 0.2460029004	-0.06051
C	 2.3855088896	-3.6366904642	 1.7248603396	-0.084417
N	 2.6996340158	-2.383496573	 2.4747625922	-0.331626
C	 1.2896236713	-2.7623211293	 2.220782753	-0.076007
H	 1.0100051365	 1.8393570054	 0.0430695326	 0.105134
H	-0.4623467328	 1.717950145	-0.9589495013	 0.123902
H	-0.5942570673	 1.7939015307	 0.8188597208	 0.100563
H	 1.6533895161	-0.1582201782	 1.282059635	 0.11035
H	 0.0453742897	-0.2441142608	 2.0370392715	 0.076949
H	-0.3783949571	-2.3973011742	 0.8897648126	 0.08605
H	 1.3744952417	-2.1753437927	-1.145086463	 0.108287
H	 3.1597378919	-3.9250480453	-0.3967356042	 0.095864
H	 2.631594509	-4.5885519992	 2.1832202924	 0.087774
H	 2.9198191629	-2.6305773624	 3.4386961728	 0.225674
H	 0.6684779729	-3.0411305887	 3.0652677604	 0.085618
73.8755	98.3346	124.1527	190.3143	238.6582	304.3714	349.5668	433.0392	470.4243	607.3694	705.709	760.5853	795.086	808.3584	859.5276	876.787	913.9662	950.669	964.3639	975.1474	1007.8873	1064.826	1089.7508	1104.8077	1125.7797	1151.4445	1160.588	1169.6825	1185.3675	1226.1547	1243.5577	1247.2175	1300.7893	1318.8324	1338.7832	1392.8247	1405.4238	1417.7729	1479.9731	1485.2091	1504.41	1529.9801	1665.3019	2948.6808	2968.2003	3005.9684	3010.2964	3025.5266	3109.8366	3160.9089	3171.1227	3197.3351	3223.9898	3470.9333
COCC1C=CC2NC12	COC[C@H]1C=C[C@H]2N[C@@H]12	
InChI=1S/C7H11NO/c1-9-4-5-2-3-6-7(5)8-6/h2-3,5-8H,4H2,1H3	InChI=1S/C7H11NO/c1-9-4-5-2-3-6-7(5)8-6/h2-3,5-8H,4H2,1H3/t5-,6-,7+/m1/s1
