20
gdb 53157	6.51762	0.75632	0.7397	1.2831	91.22	-0.2149	0.0492	0.2641	1622.8642	0.169686	-365.908805	-365.899518	-365.898574	-365.944146	34.043	
C	 0.7936676835	 1.5035598036	 0.3913575497	-0.501652
C	 0.5400849325	 0.0703323168	 0.3597499943	 0.100251
C	 0.3299759707	-1.1161585772	 0.3337786064	 0.044516
C	 0.1081841096	-2.5433977805	 0.267303441	-0.167744
C	 0.0222593718	-3.4075526241	 1.5716002257	-0.014647
C	-1.3483499077	-2.742440722	 1.8806481269	-0.264226
C	-1.3361455539	-3.1408674168	 0.378130447	-0.014647
N	-0.6418840157	-4.4550767422	 0.6938560012	-0.11285
C	-1.4114583196	-5.5164684982	 1.3326110135	-0.330245
H	 1.5235638574	 1.794529879	-0.3722671716	 0.148787
H	-0.1227557758	 2.0754610831	 0.2073135179	 0.147294
H	 1.1896758169	 1.8177613066	 1.3635864983	 0.147292
H	 0.6974027963	-3.0311087142	-0.5123262299	 0.09943
H	 0.8390385762	-3.6568101572	 2.2515629781	 0.082229
H	-2.0300568682	-3.2828566971	 2.5358078161	 0.10031
H	-1.3426638768	-1.6761248464	 2.1124505932	 0.113381
H	-2.1356688558	-3.0728083043	-0.3619623799	 0.082229
H	-2.0231275732	-6.0058221021	 0.5672155014	 0.121517
H	-0.7106791916	-6.2634846222	 1.7203119406	 0.121517
H	-2.0777199366	-5.2206240949	 2.1570536901	 0.097259
21.7339	87.962	92.2297	180.8768	249.4291	262.4003	340.3513	345.856	446.9752	465.3679	517.9714	593.7809	731.7074	752.2539	804.2309	864.503	898.1873	901.8421	912.915	1000.5234	1047.611	1053.3422	1056.4083	1081.8845	1106.4584	1121.6264	1135.4469	1183.6867	1189.8724	1194.833	1200.0951	1212.5997	1247.5236	1279.7581	1356.701	1414.8899	1442.6987	1478.2817	1478.5308	1481.1944	1500.1732	1525.8743	2365.5901	2983.6005	3024.7906	3061.5139	3082.738	3084.3483	3085.9016	3089.1204	3094.8321	3095.1242	3104.9239	3150.623
CC#CC1C2CC1N2C	CC#C[C@H]1[C@H]2C[C@@H]1N2C	
InChI=1S/C8H11N/c1-3-4-6-7-5-8(6)9(7)2/h6-8H,5H2,1-2H3	InChI=1S/C8H11N/c1-3-4-6-7-5-8(6)9(7)2/h6-8H,5H2,1-2H3/t6-,7+,8-
