16
gdb 54939	4.88969	0.84825	0.7798	1.8876	66.04	-0.2464	-0.0449	0.2015	1401.4143	0.122671	-475.042163	-475.033133	-475.032189	-475.07746	31.525	
N	 0.3133331419	 0.0880878787	 0.9526884437	-0.516239
C	-0.1735732149	 0.5684592845	-0.2164931736	 0.361404
O	 0.2395563337	 1.5494706135	-0.8037892182	-0.367871
C	-1.3318776604	-0.2437243257	-0.7910488534	 0.04275
C	-1.0083180357	-1.0341623339	-2.0769245708	-0.305191
C	-1.2499670046	-2.288664095	-1.1929401644	 0.051413
O	-1.6239028913	-1.4651895818	-0.0643300916	-0.314053
C	-2.3885631489	-3.1778661741	-1.6466310183	 0.139559
O	-2.2340855649	-4.2100097384	-2.2436603736	-0.233967
H	 1.0568768403	 0.5807953679	 1.4183019984	 0.266265
H	-0.1069113188	-0.7256449756	 1.3702340566	 0.274886
H	-2.208010719	 0.4103631989	-0.8494039712	 0.120962
H	-1.7266513399	-0.8998837156	-2.8868459081	 0.131358
H	 0.0020360434	-0.9152371471	-2.4654174716	 0.146766
H	-0.3621189922	-2.8980350958	-0.9940179594	 0.110968
H	-3.3958815487	-2.7720494104	-1.3986255945	 0.090989
45.2946	55.9276	72.838	167.7898	244.8629	304.2922	319.9503	376.0875	415.8253	504.2207	561.8997	637.603	721.3122	791.1161	821.2737	896.1415	908.8493	992.1244	1028.2533	1035.9343	1060.8558	1093.4734	1106.8294	1163.9353	1243.2909	1248.0799	1283.6159	1308.1442	1334.5558	1381.1595	1402.9298	1494.7957	1594.6759	1805.7753	1836.343	2881.4632	3059.0751	3062.201	3093.3669	3156.5624	3596.3855	3737.078
NC(=O)C1CC(O1)C=O	NC(=O)[C@H]1C[C@@H](O1)C=O	
InChI=1S/C5H7NO3/c6-5(8)4-1-3(2-7)9-4/h2-4H,1H2,(H2,6,8)	InChI=1S/C5H7NO3/c6-5(8)4-1-3(2-7)9-4/h2-4H,1H2,(H2,6,8)/t3-,4-/m1/s1
