15
gdb 25784	4.25461	1.1188	0.88719	4.267	72.74	-0.2129	-0.0345	0.1784	1237.1109	0.11469	-450.165275	-450.157051	-450.156107	-450.198137	31.039	
N	-0.1450447295	 1.3140961889	 0.0918795315	-0.528761
C	 0.0262893184	-0.0512020432	 0.0336659033	 0.245531
N	 1.1882817558	-0.5821008555	-0.0000816811	-0.520647
C	-1.2270500881	-0.8333707381	 0.0574650601	 0.393349
N	-1.3425805557	-2.1288949922	 0.0625143392	-0.356046
C	-2.7028045627	-2.3671130659	 0.0668047905	 0.271608
N	-3.1826083883	-3.6651802112	 0.140371201	-0.599641
C	-3.3603051986	-1.171170314	 0.0579611899	-0.126814
O	-2.4066719598	-0.1796068671	 0.0529898935	-0.187062
H	 0.6810581938	 1.8467548588	-0.133039948	 0.260055
H	-1.0188593504	 1.6929687933	-0.2333975878	 0.261512
H	 1.0985135811	-1.5970017515	 0.0242566482	 0.234298
H	-2.5068524664	-4.337542198	-0.1956485087	 0.260353
H	-4.0886131773	-3.8056253711	-0.2827057183	 0.252008
H	-4.3888343424	-0.8588151831	 0.0624974068	 0.140256
69.9969	156.6279	177.4332	248.1168	340.4348	349.2121	403.3981	415.8022	490.8264	535.5572	620.7432	637.3328	645.5714	653.7443	726.1442	751.8397	779.1517	870.9389	979.8238	1027.0215	1096.6666	1119.6324	1133.743	1159.096	1233.0415	1326.0236	1394.1534	1441.2827	1583.3485	1619.0483	1636.7315	1669.3175	1714.4827	3303.2975	3502.3364	3562.1143	3592.219	3661.9132	3714.8918
NC(=N)C1=NC(N)=CO1	NC(=N)c1nc(N)co1	
InChI=1S/C4H6N4O/c5-2-1-9-4(8-2)3(6)7/h1H,5H2,(H3,6,7)	InChI=1S/C4H6N4O/c5-2-1-9-4(8-2)3(6)7/h1H,5H2,(H3,6,7)
