16
gdb 108461	2.25718	1.73059	1.29885	3.6579	65.01	-0.243	0.0051	0.2481	1008.7745	0.124166	-475.004934	-474.996775	-474.995831	-475.038027	30.074	
O	 0.5517161668	 0.4352407933	-0.8123984149	-0.415615
C	-0.1453053649	 0.2766329657	 0.4086340808	-0.177244
C	-1.4236559109	-0.5007501527	 0.2190325954	 0.273117
O	-2.2578461995	-0.5685370627	 1.3982506833	-0.320921
C	-2.4457999307	-1.9976619997	 1.254844019	-0.097952
C	-1.6551791287	-2.0168272454	-0.0674187232	-0.089183
N	-2.4144446931	-1.6135405842	-1.24797763	-0.331809
C	-2.269157064	-0.2525419326	-1.069542127	 0.392102
O	-2.6555038479	 0.7065549032	-1.6822903244	-0.369828
H	 0.013517041	 0.9977685707	-1.3817817767	 0.303156
H	 0.5263208956	-0.2466490478	 1.0961983211	 0.12161
H	-0.4078575423	 1.2382632505	 0.876464136	 0.118982
H	-1.9613634955	-2.5378601899	 2.0764781936	 0.115431
H	-3.5019689638	-2.2798411762	 1.193490801	 0.11175
H	-0.8722932592	-2.7547683696	-0.2328638646	 0.111857
H	-3.059902243	-2.1331947226	-1.8263143095	 0.254547
67.5445	135.619	142.1119	232.2715	251.9735	385.4866	413.3813	432.7446	472.8302	502.9805	667.9694	712.9023	761.5912	818.7095	854.3119	901.5	997.0445	999.6239	1045.3083	1065.2627	1084.8083	1098.1882	1103.5918	1165.6833	1193.9701	1242.4959	1308.0591	1333.0158	1336.1248	1374.5886	1382.0977	1419.8903	1491.5793	1506.4328	1882.4509	2993.8313	3029.512	3083.1258	3085.0303	3133.2861	3596.0523	3797.4874
OCC12OCC1NC2=O	OC[C@]12OC[C@H]1NC2=O	
InChI=1S/C5H7NO3/c7-2-5-3(1-9-5)6-4(5)8/h3,7H,1-2H2,(H,6,8)	InChI=1S/C5H7NO3/c7-2-5-3(1-9-5)6-4(5)8/h3,7H,1-2H2,(H,6,8)/t3-,5+/m1/s1
