19
gdb 41632	2.79156	1.82043	1.47858	3.3302	72.78	-0.2372	0.0483	0.2855	949.9049	0.162104	-422.989162	-422.982153	-422.981209	-423.021083	27.57	
C	 0.2676184235	 1.5031879118	-0.4567682262	-0.078354
O	 1.6426082991	 1.3956472538	-0.0351564084	-0.274004
C	 1.4201085034	 0.0851319776	 0.5257122651	 0.092964
C	-0.0282569562	 0.0481111098	-0.0437682677	-0.072821
C	-0.065901118	-1.0159359052	-1.1642630128	-0.266217
C	 1.3707695868	-1.5329195192	-1.3425510874	-0.06246
C	 2.4037978537	-0.7622205838	-2.2023656984	-0.088219
O	 3.2585160109	-0.5441523502	-1.0588826949	-0.272241
C	 2.2429488251	-1.0301071016	-0.1658883785	 0.103728
H	-0.2732882413	 2.2638366936	 0.1210321835	 0.100035
H	 0.1774182201	 1.7389649764	-1.5247530662	 0.0986
H	 1.5392789718	 0.0924294736	 1.6151697209	 0.070913
H	-0.8452788041	-0.068620915	 0.6692392072	 0.078223
H	-0.7194586251	-1.8431481989	-0.8694268819	 0.104543
H	-0.4797309304	-0.6097710434	-2.0942232657	 0.105302
H	 1.4088364447	-2.6085328726	-1.520459157	 0.081058
H	 2.9127662907	-1.3387398209	-2.9827742285	 0.102012
H	 2.043961148	 0.182785633	-2.6284370017	 0.104237
H	 2.6423927674	-1.753384619	 0.5532937187	 0.0727
67.7215	113.0816	266.445	318.4662	359.1819	510.858	624.6414	652.9865	719.7386	812.4516	828.2971	858.7956	872.6799	887.8707	918.1107	938.6904	996.7469	1014.4919	1029.8287	1035.892	1051.5662	1101.9621	1111.9447	1118.2116	1155.708	1165.1322	1186.5173	1200.247	1249.8055	1252.6036	1271.4814	1303.0422	1320.5106	1328.5132	1345.3936	1360.6682	1366.1167	1378.9499	1487.3491	1517.6568	1527.2452	3005.1215	3016.864	3030.3608	3038.6526	3047.3098	3051.0006	3063.3744	3073.5244	3097.4074	3104.0589
C1OC2C1CC1COC21	C1O[C@H]2[C@@H]1C[C@H]1CO[C@@H]21	
InChI=1S/C7H10O2/c1-4-2-8-6(4)7-5(1)3-9-7/h4-7H,1-3H2	InChI=1S/C7H10O2/c1-4-2-8-6(4)7-5(1)3-9-7/h4-7H,1-3H2/t4-,5+,6+,7-
