19
gdb 114312	2.29259	1.31466	1.12208	2.7939	71.37	-0.2367	0.0598	0.2964	1185.0184	0.15748	-460.104068	-460.094804	-460.09386	-460.137911	34.791	
C	 0.4224207774	 1.7118384879	-0.6223863939	-0.424613
C	 0.4517684134	 0.2196684128	-0.3689019882	-0.091035
C	 1.704511728	-0.6128324557	-0.344452571	 0.022434
O	 2.783857447	 0.0939457319	 0.2830744582	-0.317969
C	 2.0970302768	 0.0349584046	 1.5747540397	 0.067956
C	 2.1448536428	 1.3494991346	 2.3297837337	-0.098258
O	 3.4877012148	 1.7258141264	 2.5833420179	-0.419416
C	 0.8455743562	-0.5285126642	 0.8982034734	 0.245687
O	 0.0535247867	-1.5012134349	 1.4765406026	-0.452805
H	 1.3975630352	 2.1574783912	-0.4181644898	 0.136397
H	 0.1817999512	 1.908351314	-1.6724911104	 0.118557
H	-0.3285300994	 2.221316572	-0.009060722	 0.114337
H	-0.3542102631	-0.3392142913	-0.8451168416	 0.096887
H	 1.9550277919	-1.4212746948	-1.0208952972	 0.112938
H	 2.5701041347	-0.7485151366	 2.1812286763	 0.099941
H	 1.6022123499	 2.1362176581	 1.7897869493	 0.092423
H	 1.6628086161	 1.2206349156	 3.3058673871	 0.110178
H	 3.9354176578	 1.7302151097	 1.7291984626	 0.295216
H	-0.7709857776	-1.0942583213	 1.7633592331	 0.291144
77.2818	137.4079	179.9582	203.4417	236.5625	260.315	297.7905	311.6796	377.9436	417.0299	491.9454	549.3176	583.3435	653.0274	763.2617	780.3882	844.3802	918.998	968.6404	993.861	1013.6716	1055.4117	1073.8342	1081.508	1112.1535	1118.0921	1150.5151	1200.3541	1216.9253	1234.8822	1284.2511	1314.6631	1349.3257	1351.4209	1403.0306	1408.7786	1434.9989	1479.338	1494.6946	1501.2769	1512.7226	3019.0404	3031.0081	3036.2316	3071.9533	3091.938	3114.4651	3136.3403	3187.7636	3797.8735	3800.8077
CC1C2OC(CO)C12O	C[C@H]1[C@H]2O[C@@H](CO)[C@@]12O	
InChI=1S/C6H10O3/c1-3-5-6(3,8)4(2-7)9-5/h3-5,7-8H,2H2,1H3	InChI=1S/C6H10O3/c1-3-5-6(3,8)4(2-7)9-5/h3-5,7-8H,2H2,1H3/t3-,4-,5+,6-/m0/s1
