21
gdb 72791	2.60603	1.65614	1.27561	1.3679	85.19	-0.2333	0.0233	0.2566	1077.4142	0.183909	-387.082463	-387.074391	-387.073447	-387.114464	32.565	
C	-0.1315204965	 1.5440669784	-0.007723387	-0.448944
C	-0.0056648337	 0.0180863303	 0.0212927132	 0.280136
C	 0.8261601498	-0.5519803552	-1.1795981959	-0.290212
C	 2.0787365722	-0.6380109317	-0.2377008555	-0.32058
C	 1.0998362208	-0.5261507398	 0.90977397	 0.309894
C	 0.8941849875	-1.0979203991	 2.087432071	-0.267678
C	-0.49545205	-1.0784856118	 2.6760560828	-0.100396
O	-1.4614953246	-0.421081084	 1.8674278807	-0.259108
C	-1.313732148	-0.6373801577	 0.4656743194	-0.156487
H	 0.8395554736	 2.0308145832	-0.1430631365	 0.109803
H	-0.7823870425	 1.8590842099	-0.8321845125	 0.108532
H	-0.5649769273	 1.9029374632	 0.9297923916	 0.132302
H	 0.4845002757	-1.5442936001	-1.4857897284	 0.104055
H	 0.9113528993	 0.0873432446	-2.0618181972	 0.097796
H	 2.6969874489	-1.5378335624	-0.2890052206	 0.107802
H	 2.7292233825	 0.236172762	-0.3473796358	 0.112126
H	 1.6516135261	-1.6785651535	 2.6083619068	 0.087001
H	-0.8081365128	-2.1219517189	 2.8664512967	 0.095154
H	-0.5230698007	-0.5621388124	 3.6436403464	 0.116894
H	-2.2012634189	-0.1906846539	 0.0054054743	 0.100009
H	-1.3027106216	-1.713936421	 0.2332283565	 0.081901
131.6753	223.8565	232.7351	253.6204	271.4929	318.3089	366.8927	422.8846	471.2196	528.8258	632.8962	713.0834	738.7832	806.5292	815.1436	883.1634	902.5598	918.5034	948.8822	970.4621	978.0684	999.2246	1033.8733	1083.6448	1102.2095	1135.3585	1156.0186	1191.066	1215.0966	1229.3663	1245.0408	1265.6734	1277.0124	1308.4136	1344.782	1367.3685	1394.2675	1411.3889	1471.2934	1485.4618	1488.3837	1491.305	1499.099	1502.927	1768.749	2933.8087	2979.1728	3025.711	3039.7757	3045.2451	3057.619	3070.874	3091.1387	3096.3628	3115.6242	3118.0858	3156.534
CC12CCC1=CCOC2	C[C@@]12CC[C]1[CH]COC2	
InChI=1S/C8H12O/c1-8-4-2-7(8)3-5-9-6-8/h3H,2,4-6H2,1H3	InChI=1S/C8H12O/c1-8-4-2-7(8)3-5-9-6-8/h3H,2,4-6H2,1H3/t8-/m0/s1
