15
gdb 26898	3.08758	1.44382	0.98734	4.0676	77.53	-0.1841	-0.0293	0.1548	1120.5076	0.112982	-453.975497	-453.96739	-453.966446	-454.007827	31.294	
N	 0.0462595373	 1.3350270474	 0.1576321056	-0.564626
C	-0.0525802148	-0.0276312089	 0.0491356249	 0.376668
C	-1.224021314	-0.720752922	-0.0090305075	 0.118276
O	-2.4164011152	-0.0120420709	-0.0840089253	-0.458819
C	-1.1596655862	-2.1399675145	-0.0780429675	-0.125036
C	 0.0317554209	-2.7893323663	-0.0639455579	-0.187005
C	 1.2715498073	-2.057359626	 0.003522462	 0.377107
N	 2.4334522287	-2.5713440204	 0.0238890343	-0.545187
O	 1.1414595022	-0.6476807201	 0.0393373774	-0.271998
H	 0.9058680193	 1.7303142937	-0.1942369661	 0.26468
H	-0.7925017524	 1.820795263	-0.1252301663	 0.271059
H	-2.8656723996	-0.061666622	 0.767479741	 0.299209
H	-2.0927100562	-2.6908330731	-0.1474086065	 0.11188
H	 0.1133504727	-3.866179605	-0.1113377848	 0.118578
H	 3.1516629001	-1.8496647551	 0.0716410768	 0.215214
106.0057	174.3084	232.5367	284.9733	308.0867	342.5841	391.3113	423.5808	471.3785	499.5281	571.8962	603.7629	669.6231	728.7114	736.2722	785.1983	798.8758	829.3889	891.78	979.2435	1024.4334	1098.7386	1146.5761	1206.2271	1251.3026	1274.9155	1308.86	1418.6516	1457.1805	1574.3819	1627.081	1679.5771	1749.8333	3182.5657	3235.7218	3499.9838	3568.7872	3683.607	3775.6964
NC1=C(O)C=CC(=N)O1	NC1=C(O)CC=C([NH])O1	
InChI=1S/C5H6N2O2/c6-4-2-1-3(8)5(7)9-4/h1-2,6,8H,7H2	InChI=1S/C5H7N2O2/c6-4-2-1-3(8)5(7)9-4/h2,6,8H,1,7H2
