17
gdb 106122	2.70966	1.50925	1.22849	1.0234	67.94	-0.2282	0.0689	0.2971	1058.4607	0.134539	-458.862513	-458.85442	-458.853476	-458.895254	30.614	
C	 0.0902896181	 1.3996181282	 0.3288667828	-0.25567
O	 0.0367029633	 0.0540316559	-0.1342630987	-0.270917
C	-1.2096151776	-0.4766229339	-0.1154415658	 0.379135
C	-2.1957723193	-0.8639155434	 0.9385898919	-0.028228
O	-3.3203225178	-0.2195358952	 0.3376702522	-0.281427
C	-2.583367164	-0.2363212395	-0.9078212287	-0.07474
C	-2.5457358012	-1.7488020602	-1.2909504017	 0.126154
O	-1.8094587829	-2.018756292	-2.4621895507	-0.429637
C	-1.6565016136	-1.9204757111	-0.0717275307	-0.197901
H	 1.1365063625	 1.7069583697	 0.2816220431	 0.133043
H	-0.5108298641	 2.0623351001	-0.3070419336	 0.120444
H	-0.2705018656	 1.4770691719	 1.3623046478	 0.120724
H	-2.1527164969	-0.9768405728	 2.0133230054	 0.115361
H	-2.8686326662	 0.5423585405	-1.6138140121	 0.084218
H	-3.5236188343	-2.2501514539	-1.2874736077	 0.070925
H	-2.3513586368	-1.7644202163	-3.2165700969	 0.28529
H	-1.1006881938	-2.792849748	 0.2456868434	 0.103226
91.4514	138.6772	164.2279	212.7156	312.3376	325.2671	386.6597	446.0057	502.7612	572.9605	608.1414	778.4855	800.7766	847.548	869.0341	921.1255	960.8424	979.0447	992.7899	1048.7262	1058.2961	1062.965	1099.7987	1112.9431	1152.9745	1177.9283	1198.8925	1212.1933	1213.6768	1253.7171	1290.0356	1308.5756	1423.4904	1441.4588	1486.2797	1502.3885	1513.2499	3007.1554	3008.9876	3067.3528	3133.6018	3134.6624	3209.5094	3218.3049	3807.8381
COC12C3OC1C(O)C23	CO[C@@]12[C@H]3O[C@@H]1[C@@H](O)[C@@H]23	
InChI=1S/C6H8O3/c1-8-6-2-3(7)5(6)9-4(2)6/h2-5,7H,1H3	InChI=1S/C6H8O3/c1-8-6-2-3(7)5(6)9-4(2)6/h2-5,7H,1H3/t2-,3+,4+,5-,6+/m1/s1
