20
gdb 16666	2.99468	2.09413	1.49193	1.8343	73.36	-0.2535	0.0777	0.3311	920.1402	0.177974	-349.003533	-348.995769	-348.994825	-349.035515	30.376	
C	 0.115462441	 1.5797113893	-0.1178192647	-0.408474
C	 0.0748069644	 0.0560708501	-0.0061440167	 0.03477
C	 0.6450676364	-0.679207561	-1.2540342554	-0.251533
C	 1.2154691339	-1.9805256269	-0.7185510907	 0.036678
O	 2.4763495829	-1.8002425007	-0.0602878444	-0.253012
C	 1.2966190751	-1.9158039703	 0.7478212741	 0.037156
C	 0.7764068662	-0.5715423538	 1.2533019713	-0.033361
C	 1.8961252957	 0.2630143028	 1.8894322917	-0.390773
H	 1.1406423666	 1.9507143746	-0.2171040901	 0.122117
H	-0.442431251	 1.9139203446	-0.9992625397	 0.111106
H	-0.3333523099	 2.0618514396	 0.7572394989	 0.112444
H	-0.9794111126	-0.2398860384	 0.0669410503	 0.074548
H	-0.1330829791	-0.8528523525	-2.0041311138	 0.096917
H	 1.4420786611	-0.1031363647	-1.7382650479	 0.110479
H	 1.112339739	-2.9128668915	-1.269047043	 0.090955
H	 1.264533346	-2.7967538092	 1.3859959391	 0.087946
H	 0.0149384507	-0.7585596122	 2.0200737566	 0.068814
H	 2.7068349311	 0.4365955906	 1.1780122938	 0.133642
H	 1.5246166138	 1.2294801133	 2.2409490666	 0.109808
H	 2.3198413986	-0.2630933439	 2.7514918239	 0.109773
56.1969	231.709	250.7934	263.953	284.5152	334.1282	391.144	462.3142	500.2817	658.813	685.8288	737.3499	805.7373	854.0596	874.4506	926.3988	933.6443	976.307	1007.8862	1028.3758	1034.5954	1094.6633	1108.4762	1113.5393	1151.1076	1179.1121	1218.1502	1260.124	1299.13	1309.8658	1321.8709	1353.2741	1363.9362	1368.1933	1405.3192	1413.8208	1436.9631	1483.4553	1489.7928	1497.2805	1506.8533	1511.1647	3007.3317	3030.5443	3032.8956	3039.0622	3042.6191	3082.8957	3093.2572	3103.2506	3106.221	3126.6328	3130.1205	3142.0685
CC1CC2OC2C1C	C[C@H]1C[C@H]2O[C@H]2[C@H]1C	
InChI=1S/C7H12O/c1-4-3-6-7(8-6)5(4)2/h4-7H,3H2,1-2H3	InChI=1S/C7H12O/c1-4-3-6-7(8-6)5(4)2/h4-7H,3H2,1-2H3/t4-,5-,6+,7-/m0/s1
