16
gdb 47145	3.34678	1.34201	1.02902	4.6903	73.15	-0.2486	-0.0321	0.2165	1129.6907	0.125281	-437.907897	-437.900081	-437.899137	-437.940709	28.903	
O	-0.0843334655	-0.0533136669	 0.3394444376	-0.384275
C	-0.0231723289	 1.1384609585	 0.1151328457	 0.361828
N	-1.0878784388	 1.9692071472	-0.1464156452	-0.331476
C	-0.7148651906	 3.35681817	-0.280768594	-0.205348
C	 0.7801775237	 3.2920170538	-0.1301012422	-0.21498
C	 1.1869269308	 2.0353950911	 0.0824837061	 0.249752
C	 2.5757918671	 1.5709055981	 0.2576235129	-0.044721
C	 2.9187136273	 0.2584018221	 0.8376945529	-0.185523
O	 3.0067989767	 0.4804787486	-0.5677227024	-0.230099
H	-2.0349451918	 1.632792824	-0.1111866892	 0.256752
H	-1.0030371877	 3.7762723882	-1.2557248589	 0.131611
H	-1.1747157728	 3.9903552638	 0.4922271421	 0.129005
H	 1.4067118538	 4.1720356452	-0.2035256363	 0.117703
H	 3.3089826871	 2.3739950514	 0.3435307833	 0.086745
H	 3.8724961006	 0.1554757543	 1.3545068334	 0.109264
H	 2.1148296189	-0.4029659693	 1.145315304	 0.153765
76.0545	119.0349	160.99	211.4166	335.71	375.1768	429.3398	471.3659	522.9885	662.5217	732.9595	791.6523	799.1479	832.6297	859.4031	897.4003	957.962	993.5475	1013.4811	1080.3758	1099.5407	1168.3077	1170.8008	1185.7695	1191.0744	1221.3765	1283.4837	1326.5146	1361.6536	1419.2005	1427.5003	1497.7622	1507.7477	1696.4035	1811.5843	2996.2708	3017.6781	3089.0307	3100.8196	3209.309	3215.0467	3672.1333
O=C1NCC=C1C1CO1	O=C1NCC=C1[C@H]1CO1	
InChI=1S/C6H7NO2/c8-6-4(1-2-7-6)5-3-9-5/h1,5H,2-3H2,(H,7,8)	InChI=1S/C6H7NO2/c8-6-4(1-2-7-6)5-3-9-5/h1,5H,2-3H2,(H,7,8)/t5-/m1/s1
