18
gdb 93942	3.69121	1.11795	1.09618	16.4317	70.23	-0.1602	-0.0254	0.1347	1155.8707	0.14939	-476.174324	-476.166213	-476.165268	-476.207561	30.793	
N	-0.3451277236	 0.3976019779	 0.3124492358	-0.408759
H	-1.1602528626	-0.0952416856	 0.7479649523	 0.332617
H	 0.4725737325	-0.2114164146	 0.2880602457	 0.316412
H	-0.5821391312	 0.6952702202	-0.63419021	 0.316305
C	-0.194877141	 1.5672941075	 1.2954844708	-0.048219
C	-1.6530763049	 1.9204830359	 1.6235294792	-0.098418
O	-2.0664261024	 0.6909193898	 2.2092666393	-0.303813
C	-1.0431706358	 0.4111020783	 3.2460436176	-0.044705
C	 0.274520452	 0.9611583282	 2.6186831848	-0.251148
C	-1.4033263562	 1.1927135105	 4.5729052201	 0.389738
O	-1.7543840361	 0.4922056583	 5.5223619783	-0.454691
O	-1.2682332376	 2.4370487132	 4.4400319409	-0.491563
H	 0.4329794522	 2.3319424067	 0.8401672643	 0.118264
H	-1.6771242969	 2.7253258345	 2.3669346987	 0.193767
H	-2.2832047647	 2.1330105077	 0.7528786124	 0.095042
H	-1.0652586973	-0.669088751	 3.3949830021	 0.079546
H	 1.0641358154	 0.211929242	 2.4874398178	 0.087841
H	 0.6393850781	 1.7706073303	 3.2541732898	 0.171784
50.2843	109.2184	191.824	255.8955	327.1862	365.528	389.5398	438.5259	444.9467	653.7665	717.0508	728.3758	767.2441	809.5407	821.2091	873.4038	894.1556	908.4237	938.5244	971.3672	1004.9347	1039.5768	1090.8148	1107.9165	1192.3227	1237.6548	1244.203	1281.0299	1297.9743	1314.4698	1336.6075	1353.1204	1359.3804	1412.8112	1453.9368	1478.3164	1624.3119	1677.5429	1782.896	3026.3667	3035.9915	3091.4887	3099.0567	3106.2534	3121.0016	3139.8125	3468.1051	3540.5207
[NH3+]C1COC(C1)C([O-])=O	[NH3][C@H]1CO[C@@H](C1)C(=O)[O]	
InChI=1S/C5H9NO3/c6-3-1-4(5(7)8)9-2-3/h3-4H,1-2,6H2,(H,7,8)	InChI=1S/C5H9NO3/c6-3-1-4(5(7)8)9-2-3/h3-4H,1-2H2,6H3/t3-,4+/m1/s1
