16
gdb 34190	4.18952	1.37543	1.22824	4.3815	78.87	-0.2436	-0.0142	0.2294	1006.1312	0.126847	-363.601703	-363.595079	-363.594134	-363.632575	26.959	
N	 0.0836422426	-1.1328929344	-0.0511386823	-0.35234
C	 0.0257022371	 0.0239319096	-0.0340213032	 0.170977
C	-0.0464151499	 1.4455930805	-0.0052545758	 0.208345
C	-1.2526681177	 2.2688288351	 0.4451102355	-0.2836
C	-0.6873044382	 3.4780858024	-0.4035498975	-0.113185
C	 0.2140152766	 4.2681767575	 0.5185500158	-0.089181
C	 1.3046499367	 3.5439834713	 0.7913794895	-0.078042
C	 1.2795495186	 2.2955342855	-0.0202119258	-0.119005
C	 0.2644100881	 2.4535234345	-1.1051144055	-0.111129
H	-2.1620652718	 1.8670264246	-0.0059724406	 0.126305
H	-1.4025656602	 2.4329240699	 1.5157088426	 0.110754
H	-1.411721699	 4.0320484355	-0.9961470817	 0.085482
H	-0.0852772637	 5.1913733826	 0.9987133483	 0.108176
H	 2.079298305	 3.7745573268	 1.5108338141	 0.110471
H	 2.1694516393	 1.703960127	-0.1962658021	 0.112836
H	 0.4184491066	 2.2822786515	-2.1628610512	 0.113136
141.5847	160.8408	345.4558	372.0993	496.0083	510.1225	565.0969	580.632	690.1902	718.2634	759.0774	802.2324	857.0148	865.8595	884.7199	903.6211	942.8114	950.0841	985.0894	1014.8219	1039.5598	1051.8518	1113.896	1142.4171	1165.1973	1191.6922	1222.3602	1259.3353	1278.5656	1284.2122	1360.7845	1392.0741	1488.167	1643.4561	2339.138	3060.0357	3124.3525	3140.7561	3193.86	3202.1812	3207.7705	3232.3032
N#CC12CC3C=CC1C23	N#C[C@@]12C[C@H]3C=C[C@@H]1[C@@H]23	
InChI=1S/C8H7N/c9-4-8-3-5-1-2-6(8)7(5)8/h1-2,5-7H,3H2	InChI=1S/C8H7N/c9-4-8-3-5-1-2-6(8)7(5)8/h1-2,5-7H,3H2/t5-,6-,7+,8+/m1/s1
