17
gdb 35795	3.77992	1.22117	1.0338	4.0331	73.06	-0.2417	0.0062	0.2479	1138.626	0.13796	-417.981233	-417.973679	-417.972735	-418.01353	28.823	
N	 0.0445884269	-1.1500080288	 0.0413064573	-0.310528
C	 0.0501318242	 0.0045975181	 0.0184788102	 0.275542
C	-0.0018886238	 1.4699810867	 0.0138089458	-0.02511
C	-0.8283807264	 1.9974431413	 1.2077430508	-0.171472
N	-0.6380197717	 3.4328263966	 1.450223351	-0.106098
C	 0.5582916872	 3.8259222076	 2.2015801125	-0.23999
C	 0.4558970608	 4.1304247279	 0.754040107	-0.015223
C	 1.314475743	 3.3652876624	-0.2333243175	-0.119911
O	 1.3223695344	 1.9734437037	 0.0507418727	-0.2479
H	-0.4840250354	 1.7844081056	-0.927066956	 0.119421
H	-1.8893178914	 1.8122639124	 1.0068007886	 0.127292
H	-0.5611403743	 1.4352379352	 2.1076200917	 0.131179
H	 0.4062185779	 4.6047811093	 2.9437715417	 0.120321
H	 1.2529196183	 3.0394894274	 2.4894877863	 0.126828
H	 0.2048307487	 5.1415946613	 0.4379517065	 0.100507
H	 0.9485136866	 3.5317938192	-1.2597765342	 0.105359
H	 2.3564146648	 3.6950130243	-0.1880350342	 0.129784
74.8602	154.7411	199.7854	294.3918	361.7674	390.8306	428.6345	501.0681	534.3521	569.1123	692.7827	768.7185	793.7756	856.513	933.9	956.7868	1011.5643	1032.3047	1048.6932	1093.4106	1094.0723	1125.1537	1133.6036	1147.7887	1170.4465	1255.6772	1281.7234	1312.5738	1323.9849	1370.8116	1384.4868	1394.0771	1425.3843	1492.5114	1497.9429	1509.0789	2367.0866	2968.3438	2975.8791	3040.9587	3087.5272	3088.3848	3101.7035	3120.452	3190.003
N#CC1CN2CC2CO1	N#C[C@H]1CN2C[C@H]2CO1	
InChI=1S/C6H8N2O/c7-1-6-3-8-2-5(8)4-9-6/h5-6H,2-4H2	InChI=1S/C6H8N2O/c7-1-6-3-8-2-5(8)4-9-6/h5-6H,2-4H2/t5-,6-,8?/m0/s1
