22
gdb 9911	4.76407	0.86279	0.82534	1.4079	78.88	-0.2515	0.0754	0.3269	1501.6345	0.198569	-350.198828	-350.18914	-350.188196	-350.233562	35.78	
C	-0.2438911927	 1.5426702432	 0.0415524366	-0.381183
C	 0.0527744547	 0.0428743728	-0.0380911608	-0.163927
C	 0.6669480696	-0.5200277159	 1.2480628821	-0.171037
C	 0.9766634166	-2.0206451273	 1.1685293604	-0.244241
C	 1.5782285889	-2.5850708165	 2.4417774688	 0.425236
O	 2.8254049166	-2.0359911203	 2.794839881	-0.472206
C	 0.6799258226	-3.0290038061	 3.5721727458	-0.320004
C	 1.4547819027	-4.0441284844	 2.7503147112	-0.304929
H	 0.6696439114	 2.1173056251	 0.2313373124	 0.113294
H	-0.6822509516	 1.9139120938	-0.8900785344	 0.111871
H	-0.9471630141	 1.7650679809	 0.8519846391	 0.112754
H	-0.8728140478	-0.5029042673	-0.2646476102	 0.094404
H	 0.7321416328	-0.1532798062	-0.8779732094	 0.097245
H	 1.5925658743	 0.0298397665	 1.4685586261	 0.087045
H	-0.0136886839	-0.3319028031	 2.0901447028	 0.092545
H	 0.0568891211	-2.571870928	 0.9360125109	 0.090452
H	 1.674211231	-2.2061107642	 0.3411183475	 0.10149
H	 2.6718046868	-1.1444494047	 3.1250197842	 0.281435
H	 1.0276139457	-2.84443615	 4.5825667344	 0.110911
H	-0.3955436619	-2.9687872264	 3.4414056053	 0.107662
H	 0.9094574318	-4.6762335782	 2.0578508942	 0.109811
H	 2.3113158857	-4.5120617738	 3.2212568021	 0.121371
60.4238	84.0178	118.5306	138.6874	249.7926	269.7973	284.5402	311.851	347.5833	414.044	435.1299	516.8809	729.0073	743.8334	777.716	794.4931	883.3385	917.9232	921.9106	924.9598	957.6513	985.2924	1027.1787	1042.987	1066.8536	1075.0991	1110.1841	1131.8486	1188.5834	1231.3161	1272.8935	1276.9186	1304.877	1323.262	1332.3682	1359.3583	1385.9678	1405.8947	1414.5237	1451.9879	1474.2628	1486.1567	1497.4476	1499.5752	1500.6144	1512.3135	3002.0882	3013.7974	3020.9633	3028.1398	3028.7119	3048.8801	3066.7728	3094.9676	3101.1111	3128.7394	3137.1013	3214.5588	3230.8964	3805.029
CCCCC1(O)CC1	CCCCC1(O)CC1	
InChI=1S/C7H14O/c1-2-3-4-7(8)5-6-7/h8H,2-6H2,1H3	InChI=1S/C7H14O/c1-2-3-4-7(8)5-6-7/h8H,2-6H2,1H3
