17
gdb 68269	2.51637	1.46603	1.43455	2.7273	75.08	-0.2373	0.0259	0.2632	1026.2079	0.132112	-421.720947	-421.712007	-421.711063	-421.754016	34.125	
C	 0.0357036331	 1.465313504	 0.1531852465	-0.522046
C	 0.0397335295	-0.015113772	-0.0438770642	 0.37188
C	 0.7406857542	-0.9167333033	-1.093958662	-0.291828
C	 0.1371173292	-1.8200696886	 0.0021935128	-0.017873
O	 0.6348661143	-0.8744022901	 1.0153371899	-0.348308
C	-1.194183177	-0.9880864255	-0.055498763	 0.298032
O	-1.9542419373	-0.920845785	 1.120728813	-0.470789
C	-2.0388099789	-1.0768707899	-1.2367506279	 0.220694
C	-2.7875939314	-1.172251561	-2.1737355428	-0.470503
H	 1.0561947969	 1.8383205269	 0.2793450471	 0.135459
H	-0.4135084742	 1.9589523325	-0.7140090311	 0.132507
H	-0.546722245	 1.7201375533	 1.0430063296	 0.148858
H	 0.3371146565	-0.9617574717	-2.1066932677	 0.113494
H	 1.8280531936	-0.8588879384	-1.0596578499	 0.111701
H	 0.2694777834	-2.8850930531	 0.1907097367	 0.098694
H	-2.7824607171	-1.3847250408	 0.9640023726	 0.289023
H	-3.4370675599	-1.2499627273	-3.0108764196	 0.201004
111.9838	150.823	177.5863	185.8996	206.5047	296.1614	321.2398	376.5716	495.8229	506.3631	541.3808	588.5351	633.7812	659.9427	678.7982	714.3197	756.6488	813.69	882.3149	922.4494	959.1189	1018.7211	1026.7736	1068.6112	1115.9021	1150.3449	1190.6701	1196.1674	1230.6147	1236.1395	1314.2042	1383.898	1412.9745	1474.9727	1485.7094	1490.1406	2224.2895	3043.3139	3082.858	3118.4744	3123.8907	3127.3826	3164.5874	3498.331	3831.6248
CC12CC(O1)C2(O)C#C	C[C@@]12C[C@@H](O1)[C@]2(O)C#C	
InChI=1S/C7H8O2/c1-3-7(8)5-4-6(7,2)9-5/h1,5,8H,4H2,2H3	InChI=1S/C7H8O2/c1-3-7(8)5-4-6(7,2)9-5/h1,5,8H,4H2,2H3/t5-,6+,7-/m1/s1
