16
gdb 42057	2.87835	1.69112	1.13639	2.5763	79.89	-0.2245	-0.0237	0.2007	1037.8357	0.125316	-400.700509	-400.692845	-400.691901	-400.732526	29.153	
C	 0.0841078814	 1.5090319365	 0.2254965083	-0.1481
O	 1.3506569144	 2.0078117074	-0.1934564471	-0.199041
C	 1.4059002927	 2.8930080987	-1.2234047031	 0.141383
N	 2.2635262077	 2.9095459619	-2.148976323	-0.248585
C	 3.2057712381	 1.7880493764	-2.3309804192	-0.279832
C	 2.5223267734	 0.5074633722	-2.1303018514	-0.03197
C	 1.6373773377	-0.2064593021	-1.7228896161	 0.159025
C	 0.4908309907	-0.6914948177	-1.0469612089	-0.212126
C	-0.2081912935	 0.0896394771	-0.2045822248	-0.036029
H	 0.0832328527	 1.5459095599	 1.32273424	 0.132677
H	-0.7232717481	 2.1779754189	-0.1133369147	 0.117218
H	 0.6435848056	 3.6773411182	-1.181579251	 0.111245
H	 3.6264214727	 1.8808872654	-3.3367786313	 0.136693
H	 4.0495631051	 1.8836605483	-1.632920204	 0.142417
H	 0.1464257388	-1.706127623	-1.2268670535	 0.113014
H	-1.0989894091	-0.3222687182	 0.26562586	 0.10201
102.4287	164.8566	238.1709	272.1376	311.7072	344.2318	425.9255	456.2698	486.551	564.2826	687.484	729.2731	794.0818	834.8652	879.1345	902.8147	952.3432	980.9395	999.5564	1013.7328	1062.4685	1138.3	1163.5851	1235.9648	1240.4262	1300.6197	1340.4025	1385.9945	1415.7615	1416.2927	1472.8277	1477.708	1666.43	1736.64	2317.6009	2980.0071	3011.5588	3037.9933	3068.8874	3082.9716	3147.0592	3167.1122
C1OC=NCC#CC=C1	C1OC=NC[C]=C=C[CH]1	
InChI=1S/C7H7NO/c1-2-4-6-9-7-8-5-3-1/h2,4,7H,5-6H2/b4-2-,8-7-	InChI=1S/C7H7NO/c1-2-4-6-9-7-8-5-3-1/h2,4,7H,5-6H2/b4-2?,8-7-
