21
gdb 95937	1.99711	1.52608	1.19607	2.9954	78.03	-0.2451	-0.0182	0.2269	1161.1153	0.181782	-424.251946	-424.242494	-424.24155	-424.286599	35.546	
C	 0.0853608046	 1.7019173339	 0.3482816684	-0.469681
C	 0.0706306676	 0.188190355	 0.0740628846	 0.199006
C	 0.7822817549	-0.1905692748	-1.2510602627	-0.261921
C	 1.8363022951	-1.26022987	-0.8894274791	-0.213406
C	 2.2085163373	-0.9352828346	 0.5608475586	-0.241441
C	 0.8531588379	-0.6087202249	 1.2023978118	 0.09055
O	 0.9043181171	 0.0180976659	 2.4652170519	-0.42939
C	-1.3735411235	-0.2795672562	 0.1188165393	 0.117327
O	-1.9554309829	-0.8687474598	-0.7563033094	-0.259924
H	 1.1125626697	 2.0776493196	 0.4172974727	 0.111649
H	-0.4019754327	 2.2438960326	-0.4682433308	 0.130559
H	-0.4300345411	 1.9471555253	 1.2814833311	 0.131484
H	 0.0600884457	-0.5466261843	-1.9884655909	 0.12748
H	 1.272999085	 0.6939703929	-1.6698114246	 0.094085
H	 1.393106989	-2.2615746725	-0.9402171669	 0.111204
H	 2.6937772613	-1.2535583284	-1.5669019568	 0.100036
H	 2.7294190719	-1.7406096004	 1.0854102752	 0.106784
H	 2.8522073335	-0.0442577517	 0.5991430204	 0.087695
H	 0.3243667767	-1.5512078445	 1.3916861116	 0.100343
H	 1.4794717568	 0.7874562988	 2.3970883592	 0.281273
H	-1.883596424	-0.0455078921	 1.0823741665	 0.08629
38.7461	72.9295	210.4928	222.8471	251.6864	282.6299	301.121	324.8797	350.2111	418.7584	478.8273	516.776	564.1223	648.1754	746.0294	809.6032	870.9347	883.4307	927.4325	931.8645	992.8868	1021.2587	1033.0795	1055.915	1077.3806	1127.1653	1144.6592	1180.7188	1205.3721	1244.8218	1270.5567	1299.8608	1325.989	1341.8974	1347.0631	1361.8085	1400.6061	1425.1917	1434.0152	1485.9835	1489.512	1498.3539	1503.0683	1508.3386	1824.0509	2863.2479	3004.6316	3028.4022	3030.1287	3041.8787	3049.976	3093.4788	3094.4839	3097.7591	3112.5273	3114.8815	3810.6012	38.7451	72.9267	210.4928	222.8469	251.6857	282.6298	301.1207	324.8796	350.211	418.7583	478.8274	516.776	564.1223	648.1755	746.0295	809.6032	870.9347	883.4307	927.4325	931.8644	992.8868	1021.2587	1033.0796	1055.9151	1077.3806	1127.1652	1144.6592	1180.7189	1205.3722	1244.8218	1270.5569	1299.8609	1325.9891	1341.8975	1347.063	1361.8088	1400.6063	1425.1922	1434.0157	1485.9835	1489.5119	1498.3542	1503.0685	1508.3386	1824.0505	2863.2479	3004.6316	3028.4021	3030.1287	3041.8786	3049.976	3093.4788	3094.4839	3097.7591	3112.5273	3114.8815	3810.6011
CC1(CCCC1O)C=O	C[C@]1(CCC[C@H]1O)C=O	
InChI=1S/C7H12O2/c1-7(5-8)4-2-3-6(7)9/h5-6,9H,2-4H2,1H3	InChI=1S/C7H12O2/c1-7(5-8)4-2-3-6(7)9/h5-6,9H,2-4H2,1H3/t6-,7+/m1/s1
