17
gdb 80825	2.05842	1.84886	1.6577	3.525	67.34	-0.263	0.0038	0.2668	947.8701	0.136123	-458.985321	-458.97748	-458.976536	-459.017356	30.477	
C	-0.0295944153	 1.5598869455	 0.0334472899	-0.501859
C	-0.0407311755	 0.0562988955	-0.0320420693	 0.083526
C	 0.3796109022	-0.8148576676	-1.2722016034	-0.284445
C	-0.3340996659	-1.9162837986	-0.4690700018	 0.034042
O	 0.4984464327	-2.0318587883	 0.7296961248	-0.266346
C	 0.7336194262	-0.7041944022	 1.0361616871	 0.427619
O	 1.3896630822	-0.3381175477	 1.9630979787	-0.348892
C	-1.3546964495	-0.8404912972	-0.0293957804	 0.143097
O	-2.1141225348	-1.0120225994	 1.1197019412	-0.439759
H	 0.9939532964	 1.9463261866	 0.0154127442	 0.137344
H	-0.579065294	 1.995638018	-0.8061329213	 0.118509
H	-0.4951562613	 1.9015766214	 0.9628633042	 0.143695
H	-0.1431345969	-0.5286404191	-2.1870466322	 0.118302
H	 1.4457519634	-0.9548736775	-1.4567661886	 0.127682
H	-0.5803238369	-2.9101272261	-0.8344491725	 0.101882
H	-2.0307797376	-0.5380762757	-0.8320819659	 0.104556
H	-1.5792890455	-1.4833583776	 1.7713690952	 0.30105
140.3534	158.9758	204.2181	236.5529	263.7532	393.1077	425.0756	471.2813	510.3246	604.1343	614.6319	726.2472	774.8348	782.2459	822.1231	842.305	900.9157	925.6156	964.8356	1006.6877	1053.7511	1077.4252	1100.5336	1139.7029	1170.8183	1208.8765	1231.1021	1244.3454	1298.9005	1316.3738	1370.7208	1417.5622	1441.576	1486.8783	1488.8557	1498.6603	1907.4019	3041.62	3077.949	3101.5591	3112.8404	3114.4259	3145.2508	3159.0727	3776.4679
CC12CC(OC1=O)C2O	C[C@@]12C[C@@H](OC1=O)[C@H]2O	
InChI=1S/C6H8O3/c1-6-2-3(4(6)7)9-5(6)8/h3-4,7H,2H2,1H3	InChI=1S/C6H8O3/c1-6-2-3(4(6)7)9-5(6)8/h3-4,7H,2H2,1H3/t3-,4-,6+/m1/s1
