15
gdb 34082	3.51756	1.60537	1.37712	5.0351	73.17	-0.2413	-0.0246	0.2168	928.1541	0.114667	-379.638183	-379.63165	-379.630706	-379.668928	26.363	
N	-0.0421866875	-1.161397132	 0.0299290132	-0.33588
C	-0.0224757065	-0.0069281168	-0.0130388098	 0.20026
C	 0.0108094859	 1.4430582442	-0.02750487	 0.161474
C	-0.8938963072	 2.2045816441	 1.0123134845	-0.274691
C	-1.2963936447	 3.0909773869	-0.1507458269	-0.049403
C	-0.1603154875	 3.4494643953	-1.0756054428	-0.075774
C	 1.2405043182	 3.2997911467	-0.6006794396	-0.083484
C	 1.3768435244	 2.0988413058	-0.0409810317	-0.127056
N	-0.7853730356	 2.1074571745	-1.1727323184	-0.149338
H	-1.73444689	 1.5804225158	 1.319038356	 0.142615
H	-0.3999928476	 2.633964249	 1.8871669028	 0.117416
H	-2.2671851146	 3.5643134503	-0.25636893	 0.110443
H	-0.3977245066	 4.1182442422	-1.8966641345	 0.109056
H	 1.9943603913	 4.0704816525	-0.6870572342	 0.123323
H	 2.2394762279	 1.6817180516	 0.4599764515	 0.131038
152.379	167.8038	348.4689	383.7993	481.8268	542.9867	547.6692	561.558	707.728	738.3908	763.0707	774.6601	811.4973	828.8876	923.7655	935.4548	960.1294	976.4006	1021.3394	1029.1272	1068.3489	1089.4705	1129.9962	1146.7821	1174.9548	1248.8911	1253.3453	1326.03	1348.0642	1375.6617	1484.3212	1657.912	2363.0109	3069.5469	3137.0831	3163.3908	3173.4212	3221.0385	3244.7423
N#CC12CC3C(C=C1)N23	N#C[C@@]12C[C@H]3[C@@H](C=C1)N23	
InChI=1S/C7H6N2/c8-4-7-2-1-5-6(3-7)9(5)7/h1-2,5-6H,3H2	InChI=1S/C7H6N2/c8-4-7-2-1-5-6(3-7)9(5)7/h1-2,5-6H,3H2/t5-,6+,7+,9?/m1/s1
