19
gdb 69583	3.63238	1.31227	1.17967	1.848	81.96	-0.2325	0.0052	0.2377	1123.0755	0.158845	-385.871975	-385.864003	-385.863059	-385.904042	31.884	
C	-0.1006646368	 1.5359400766	 0.0605361567	-0.490901
C	 0.1274004786	 0.0527597128	-0.0101342244	 0.380264
O	-0.703684487	-0.7640145203	 0.8597627605	-0.302292
C	 0.7163951292	-0.7925289218	 1.0480193948	-0.139236
C	 1.4140416854	-1.9491613635	 0.3798762634	 0.342723
C	 2.7473427594	-2.46172136	 0.8912473328	-0.31584
C	 1.5203822797	-3.314779371	 1.0259303464	-0.301917
C	 1.136255753	-1.7639410334	-1.0722767293	-0.159186
C	 0.4437323098	-0.6432492106	-1.3026164179	-0.158652
H	 0.7529622901	 2.0811241739	-0.3558093374	 0.12435
H	-0.9908632939	 1.817683825	-0.5129662532	 0.127586
H	-0.2507808851	 1.8523891544	 1.0955049491	 0.130032
H	 1.0718065773	-0.407589478	 2.0019443435	 0.087157
H	 3.4964304729	-2.7390432454	 0.1575626035	 0.11635
H	 3.1485415589	-1.9920118711	 1.784084835	 0.117039
H	 1.0767031129	-3.4379230171	 2.0076552469	 0.124581
H	 1.4214868753	-4.1806686062	 0.3801583921	 0.118852
H	 1.4432029209	-2.4888277174	-1.8186356629	 0.10133
H	 0.1190851494	-0.2784721867	-2.2694101295	 0.097762
114.6094	187.229	207.6428	236.8185	304.7867	341.492	412.2794	453.2822	534.0658	612.6582	634.6374	742.9372	770.4489	777.9207	840.3582	854.6194	906.0761	920.818	928.92	948.1915	955.3564	988.9544	1020.9192	1048.5944	1060.7882	1078.8391	1096.8322	1121.6062	1190.9947	1225.6919	1263.6247	1308.0812	1338.7146	1369.6761	1410.727	1447.5656	1465.9403	1483.517	1494.5262	1498.7762	1649.8061	3034.4747	3095.6137	3124.49	3126.5136	3128.1178	3135.3751	3184.2921	3208.2021	3213.8056	3224.812
CC12OC1C1(CC1)C=C2	C[C@]12O[C@H]1C1(CC1)C=C2	
InChI=1S/C8H10O/c1-7-2-3-8(4-5-8)6(7)9-7/h2-3,6H,4-5H2,1H3	InChI=1S/C8H10O/c1-7-2-3-8(4-5-8)6(7)9-7/h2-3,6H,4-5H2,1H3/t6-,7-/m1/s1
