16
gdb 125343	4.82241	1.05244	0.87325	4.1891	75.08	-0.2444	-0.0783	0.1662	1289.9515	0.123976	-434.081362	-434.07286	-434.071915	-434.115385	30.135	
C	 0.0417047452	 1.4349150987	 0.1426370374	-0.484289
C	 0.0722770973	-0.0582006627	-0.0072312756	 0.342189
C	-0.362640763	-0.7113023068	-1.1769148516	-0.047824
N	-0.3298563491	-2.0235615791	-1.294094313	-0.267979
C	 0.1469737486	-2.6733531054	-0.2176704666	 0.364008
C	 0.2191204021	-4.1804496516	-0.2677954954	-0.106207
O	 0.7296718256	-4.7457046872	 0.9071519944	-0.424085
N	 0.5670311515	-2.1008396514	 0.9030486291	-0.258003
N	 0.5316739673	-0.7736995284	 1.0160195163	-0.230831
H	 0.6538482601	 1.9211786758	-0.6245461248	 0.143628
H	-0.9779045905	 1.821228176	 0.0382320679	 0.143632
H	 0.4243770774	 1.7103920733	 1.1263272794	 0.156463
H	-0.7413855078	-0.1413570196	-2.0238580461	 0.129066
H	-0.7938700531	-4.5585082717	-0.4784198811	 0.121261
H	 0.8344937028	-4.4584755912	-1.1381786653	 0.121195
H	 0.9263685155	-4.0056452788	 1.5008614449	 0.297776
55.2432	73.7274	113.5352	202.6071	303.0965	336.5005	348.1013	401.7031	447.3448	498.2261	581.652	662.8971	765.9157	792.6309	873.1491	956.7665	995.4803	1040.9959	1070.7476	1082.9688	1117.5623	1135.4001	1244.2895	1254.0993	1297.9044	1323.0516	1368.0961	1408.2937	1439.5668	1467.9465	1480.6743	1483.0164	1504.6065	1566.4309	1610.2687	2982.7965	2998.2039	3040.2163	3096.0076	3144.3104	3148.02	3705.3073
CC1=CN=C(CO)N=N1	Cc1cnc(CO)nn1	
InChI=1S/C5H7N3O/c1-4-2-6-5(3-9)8-7-4/h2,9H,3H2,1H3	InChI=1S/C5H7N3O/c1-4-2-6-5(3-9)8-7-4/h2,9H,3H2,1H3
