18
gdb 23155	2.24591	1.30768	0.93815	1.0313	82.12	-0.2461	0.0016	0.2478	1275.8983	0.144815	-401.863376	-401.85391	-401.852966	-401.897951	35.158	
C	-0.3676542934	 1.4627033472	-0.02070719	-0.39501
C	 0.0217552982	-0.0077181166	-0.0333588019	 0.002364
C	 1.2700658108	-0.3401007639	-0.915421503	-0.336879
C	 2.0585936008	-0.5448725779	 0.3573539215	 0.421324
N	 3.2776701759	-0.6225799216	 0.682499611	-0.235462
O	 4.1050012681	-0.5821134481	-0.4537423855	-0.390309
C	 0.8201886626	-0.5094871414	 1.2477292078	-0.289053
C	 0.8262950929	 0.2976592478	 2.4496876226	 0.346664
C	 0.8148254172	 0.9755066748	 3.4425239635	-0.456379
H	 0.4987329366	 2.100199422	 0.1844014149	 0.128376
H	-0.782036763	 1.7552828357	-0.9912065793	 0.114409
H	-1.1168573694	 1.6679382992	 0.7493674335	 0.127411
H	-0.8507565784	-0.6302526898	-0.2436642727	 0.080082
H	 1.1738506112	-1.2497839154	-1.5166225517	 0.124901
H	 1.6334197931	 0.4618412345	-1.5639839415	 0.129819
H	 4.9849084825	-0.6222709356	-0.0636795865	 0.308617
H	 0.5129801992	-1.5338990705	 1.4946594883	 0.122594
H	 0.8183209152	 1.5706137596	 4.321856599	 0.196532
44.5871	103.4357	141.9678	202.2661	248.4185	278.5843	328.9379	343.5651	381.0501	422.0823	484.892	521.8467	622.0997	631.6365	642.4364	712.9978	793.7368	808.665	887.9619	896.8079	982.9021	1015.3705	1056.0189	1084.1274	1090.5094	1134.5957	1175.1697	1217.4129	1241.0833	1275.5513	1320.3759	1361.2247	1403.0891	1415.164	1461.0652	1493.3234	1493.9335	1784.1749	2236.3241	3021.7722	3034.9445	3053.3548	3076.5124	3101.4565	3105.6892	3113.561	3504.4564	3815.4767
CC1CC(=NO)C1C#C	C[C@H]1CC(=NO)[C@H]1C#C	
InChI=1S/C7H9NO/c1-3-6-5(2)4-7(6)8-9/h1,5-6,9H,4H2,2H3	InChI=1S/C7H9NO/c1-3-6-5(2)4-7(6)8-9/h1,5-6,9H,4H2,2H3/t5-,6-/m0/s1
