18
gdb 82145	3.03811	1.16833	1.00966	2.5728	73.32	-0.2477	0.0266	0.2743	1211.3466	0.147173	-439.073262	-439.06465	-439.063706	-439.107302	31.59	
C	-0.170861306	 1.5927156321	-0.2560526214	-0.41194
C	-0.0299708609	 0.0842477339	-0.1329126231	-0.032355
C	 0.7501443827	-0.6596374041	-1.2258638835	 0.01766
O	 2.1114940839	-0.2023819678	-1.1651769051	-0.259765
C	 1.6944961883	-1.2342389084	-0.2562914646	-0.003406
C	 1.0127525935	-0.5163665397	 0.9136384058	-0.004141
N	 1.8613783496	 0.3851647889	 1.645630518	-0.270938
C	 1.7934826623	 0.55377023	 2.9942842793	 0.151672
O	 1.0224084464	-0.021596295	 3.7327433029	-0.32539
H	 0.7847173677	 2.0555275803	-0.5170617052	 0.122681
H	-0.8954464763	 1.8524585087	-1.034901016	 0.119538
H	-0.5177632974	 2.0306987367	 0.6849747269	 0.128947
H	-1.0035692393	-0.3875670255	 0.0332956873	 0.088128
H	 0.4066518973	-1.0493147352	-2.1766942856	 0.110027
H	 2.2589779653	-2.1594325205	-0.2640690198	 0.111659
H	 0.5302624568	-1.1766748328	 1.6336219655	 0.123343
H	 2.534292586	 0.9171258788	 1.1152595921	 0.258108
H	 2.5405108802	 1.2892279896	 3.3530102963	 0.076171
42.2513	109.1587	180.3922	205.7223	214.8815	260.6723	276.5791	455.8543	542.9636	596.165	620.2757	702.841	735.3668	824.8448	860.9553	862.0172	901.3949	940.1743	1002.7495	1009.9603	1032.3673	1052.4458	1069.7516	1119.158	1139.0284	1195.3969	1214.9419	1244.0237	1246.0991	1287.6894	1342.3387	1362.1185	1381.5171	1410.0467	1430.2859	1490.7481	1501.8369	1524.9872	1803.1283	2938.248	3038.8616	3061.9033	3104.3545	3119.5026	3133.5397	3183.2192	3199.2775	3629.2438
CC1C2OC2C1NC=O	C[C@H]1[C@H]2O[C@H]2[C@H]1NC=O	
InChI=1S/C6H9NO2/c1-3-4(7-2-8)6-5(3)9-6/h2-6H,1H3,(H,7,8)	InChI=1S/C6H9NO2/c1-3-4(7-2-8)6-5(3)9-6/h2-6H,1H3,(H,7,8)/t3-,4+,5-,6+/m1/s1
