18
gdb 64051	2.29283	1.80864	1.31853	2.103	71.76	-0.2738	-0.0261	0.2477	1020.003	0.147316	-439.139308	-439.130737	-439.129793	-439.172173	32.248	
C	 0.0189188025	 1.5504200551	-0.0535582601	-0.416063
C	 0.0301572525	 0.0184386904	-0.0022103042	 0.059314
C	-1.4172799226	-0.525058549	 0.0719891865	-0.418689
C	 0.7588708249	-0.564653581	-1.2331127473	-0.187333
N	 1.0546225273	-1.9873068484	-1.1323873918	-0.238636
C	 1.2367291713	-2.4439571717	 0.0245101292	 0.125143
O	 1.2129752803	-1.7569079247	 1.2192984183	-0.221986
C	 0.7540150704	-0.4494262613	 1.2539139893	 0.444308
O	 0.9132077256	 0.1788269365	 2.256945127	-0.310941
H	 1.0354176759	 1.9541606626	-0.0669807979	 0.125631
H	-0.4980622822	 1.8888362215	-0.9572947536	 0.115327
H	-0.4930598297	 1.9659918267	 0.816517834	 0.139553
H	-1.9798252663	-0.1757375463	-0.7996136296	 0.125982
H	-1.4477629462	-1.6176816464	 0.07538226	 0.135866
H	-1.9206662111	-0.1625635875	 0.9725325255	 0.136491
H	 0.1486276029	-0.398090819	-2.127275639	 0.120174
H	 1.7053981407	-0.0313510585	-1.4010441361	 0.123515
H	 1.4750319737	-3.4878645888	 0.2089305298	 0.142344
96.3912	156.4895	194.9507	232.4368	235.995	298.7033	333.7123	351.7806	467.6146	478.749	518.9658	576.8267	676.8968	755.6346	850.5741	878.885	936.0323	950.7673	964.4568	981.7529	1021.1352	1033.4758	1079.3213	1117.7852	1178.6974	1238.5953	1240.017	1297.3686	1374.2347	1401.6663	1405.4817	1426.1013	1476.6455	1484.0365	1489.6592	1501.212	1508.5613	1748.3597	1873.2248	3011.8644	3040.8875	3044.5688	3064.3287	3111.4144	3114.0074	3124.9825	3134.2105	3184.8351
CC1(C)CN=COC1=O	CC1(C)CN=COC1=O	
InChI=1S/C6H9NO2/c1-6(2)3-7-4-9-5(6)8/h4H,3H2,1-2H3	InChI=1S/C6H9NO2/c1-6(2)3-7-4-9-5(6)8/h4H,3H2,1-2H3
