16
gdb 35449	2.48802	1.4191	1.09505	1.1429	82.68	-0.2396	0.0108	0.2504	1130.4875	0.12243	-363.494111	-363.485764	-363.48482	-363.526952	32.116	
C	-0.0362707576	-1.2885648339	 0.0448802406	-0.454907
C	-0.0003556533	-0.0867848581	 0.0171751721	 0.324737
C	 0.0468017886	 1.3614596696	 0.0194669095	-0.263454
C	-0.168537196	 2.138848268	 1.3577597136	-0.172643
N	 1.1389273848	 2.866369394	 1.236491447	-0.161853
C	 2.1688544654	 1.8199908589	 1.2325816796	-0.273019
C	 1.4331843578	 2.0475044429	-0.0338314194	 0.157857
C	 2.0144474336	 2.5810156334	-1.2181563712	 0.215778
C	 2.4818262141	 3.002587123	-2.2435497525	-0.393438
H	-0.06819553	-2.350007317	 0.0567812531	 0.200898
H	-0.6005224893	 1.7650653121	-0.762655739	 0.121385
H	-1.0003602486	 2.8425744896	 1.3150778489	 0.122715
H	-0.2477549913	 1.5269982767	 2.2605320538	 0.119108
H	 3.1773395555	 2.2161702162	 1.2851046064	 0.135969
H	 2.0008793687	 0.8978735123	 1.7859282999	 0.126388
H	 2.9009653974	 3.3826388725	-3.1422447624	 0.194479
90.9241	130.0383	156.831	206.468	298.9514	428.398	447.6325	473.2922	531.7868	539.1729	599.3217	625.3094	641.3514	659.0389	664.5689	726.3616	768.9668	846.7935	876.4172	971.9774	1010.3586	1051.0595	1076.0369	1115.6208	1133.1145	1191.9849	1202.8567	1216.9534	1300.2736	1319.947	1377.7998	1489.2925	1507.1705	2231.2973	2235.6804	3064.3154	3081.7247	3104.8163	3132.5335	3209.4375	3502.0836	3502.5
C#CC1CN2CC12C#C	C#C[C@H]1CN2C[C@@]12C#C	
InChI=1S/C8H7N/c1-3-7-5-9-6-8(7,9)4-2/h1-2,7H,5-6H2	InChI=1S/C8H7N/c1-3-7-5-9-6-8(7,9)4-2/h1-2,7H,5-6H2/t7-,8-,9?/m0/s1
