17
gdb 125995	4.56401	1.31972	1.06948	3.0586	74.64	-0.2118	0.0349	0.2466	1109.0974	0.138834	-418.028929	-418.021588	-418.020644	-418.06101	28.007	
C	 0.1877141016	 1.5325017399	 0.0509203314	-0.406017
C	 0.0926684301	 0.0228235078	-0.0171155445	 0.109807
C	 0.8358677476	-0.6375317617	-1.2182348837	-0.207219
N	 1.3993939462	-1.7826462382	-0.5450458153	 0.009212
N	 2.1322600188	-2.8445900988	-0.9603570073	-0.307335
C	 2.5140272928	-3.4012218162	 0.1892330743	 0.021589
C	 2.0607116988	-2.7032570345	 1.343440777	-0.407178
C	 1.3558713665	-1.657079027	 0.7947014462	 0.486088
O	 0.6938315429	-0.5496777054	 1.1889583887	-0.293112
H	 1.233367386	 1.852632465	 0.0730374902	 0.135837
H	-0.2970355317	 1.9800605114	-0.8225456056	 0.128424
H	-0.3104067547	 1.9064427051	 0.9489271322	 0.140436
H	-0.9558770471	-0.2982846761	-0.0217311051	 0.106189
H	 0.1501260434	-0.9203399609	-2.0203685289	 0.137076
H	 1.6177595227	 0.0119833519	-1.6321600507	 0.12578
H	 3.1054062626	-4.3056360093	 0.1657439482	 0.110143
H	 2.2229189635	-2.9363840528	 2.3809750231	 0.11028
71.856	147.5866	228.2223	267.4318	316.8274	442.1562	478.9156	592.3704	649.0193	689.9302	753.1929	754.4149	808.7088	833.05	882.0249	903.9087	944.6486	961.5902	1048.5979	1069.1103	1121.231	1151.9304	1169.7928	1213.1303	1219.7049	1293.0649	1340.5823	1346.594	1354.2677	1387.3647	1414.0709	1447.4509	1484.0082	1496.802	1514.3742	1547.2285	1619.1411	3021.8824	3035.0339	3045.3081	3099.0022	3118.899	3129.6909	3238.5777	3288.4693
CC1CN2N=CC=C2O1	C[C@H]1Cn2nccc2O1	
InChI=1S/C6H8N2O/c1-5-4-8-6(9-5)2-3-7-8/h2-3,5H,4H2,1H3	InChI=1S/C6H8N2O/c1-5-4-8-6(9-5)2-3-7-8/h2-3,5H,4H2,1H3/t5-/m0/s1
