20
gdb 7204	3.78919	0.94863	0.79304	1.6707	69.4	-0.2546	0.0764	0.331	1470.7195	0.17434	-423.248914	-423.238748	-423.237804	-423.284704	34.666	
C	 0.3927525759	 1.0234575217	 0.2436451569	-0.22812
O	-0.1318548554	-0.2156227524	-0.1722713291	-0.250726
C	 0.7628662486	-0.9642776893	-0.9765136636	-0.07376
C	 0.002113037	-2.2058900484	-1.4288794572	 0.089602
O	-1.1927053794	-1.8365827809	-2.0943380646	-0.449476
C	 0.8068999193	-3.0532654901	-2.4056739941	-0.06623
O	 1.9632191094	-3.5176977377	-1.7453891244	-0.237559
C	 2.7743251058	-4.3266196819	-2.5625640451	-0.223639
H	 1.2987098308	 0.8945461297	 0.8552095989	 0.109725
H	 0.645364464	 1.6668438727	-0.6135630017	 0.107742
H	-0.372730494	 1.5187627559	 0.845977986	 0.128432
H	 1.0691177823	-0.3730579766	-1.8561332284	 0.085807
H	 1.6649213847	-1.2449539945	-0.4152093257	 0.108329
H	-0.2181589684	-2.8147458989	-0.5372886084	 0.07989
H	-1.570694293	-1.1220464874	-1.5673743004	 0.291672
H	 0.1810644683	-3.8909664371	-2.7521750391	 0.099814
H	 1.0698135497	-2.4513317918	-3.2919022458	 0.090798
H	 2.2368906419	-5.2232376674	-2.9094051864	 0.106547
H	 3.1356287163	-3.7808736468	-3.4486767833	 0.104567
H	 3.6341557964	-4.6390566389	-1.9649511744	 0.126584
70.2296	78.2594	95.7514	114.0824	170.4692	204.7835	234.479	238.8899	333.8776	361.2783	423.9647	455.7382	500.2404	565.9462	882.4295	938.4059	992.4326	999.0858	1077.4985	1130.8152	1138.317	1163.9099	1171.6558	1183.3173	1190.9767	1224.1652	1225.3722	1241.899	1264.7061	1289.4167	1366.4702	1375.3582	1423.8707	1462.388	1478.8225	1482.2142	1485.7278	1485.9939	1500.1546	1504.5182	1521.8224	1528.7009	2959.7887	2962.3809	2973.0077	2976.6554	2981.0321	3004.6584	3015.464	3023.7662	3034.6243	3113.8148	3114.6041	3788.1405
COCC(O)COC	COCC(O)COC	
InChI=1S/C5H12O3/c1-7-3-5(6)4-8-2/h5-6H,3-4H2,1-2H3	InChI=1S/C5H12O3/c1-7-3-5(6)4-8-2/h5-6H,3-4H2,1-2H3
