18
gdb 9628	2.98067	1.64034	1.25279	3.2694	69.75	-0.2563	-0.0407	0.2156	1025.8166	0.150583	-384.937319	-384.928272	-384.927328	-384.97107	32.151	
C	 0.125043169	 1.2891020184	-0.485671654	-0.384812
C	-0.0434218788	-0.0151829977	 0.307096809	-0.258112
C	-1.4609885457	-0.5546043585	 0.2411157091	 0.397554
C	-2.5357513936	 0.2548523781	 0.9387625742	-0.459052
O	-1.8424393141	-1.0943353049	-1.0229461188	-0.264092
C	-1.7255449514	-2.0186687478	 0.0529588702	-0.101897
C	-0.6401392455	-3.0437456329	 0.0009744009	 0.140267
O	 0.3246039572	-3.0083014282	-0.7204424561	-0.250287
H	 1.1705379785	 1.6093639888	-0.4703136593	 0.119074
H	-0.167894208	 1.140990145	-1.5291445145	 0.138612
H	-0.4760725691	 2.106028638	-0.0747459824	 0.114688
H	 0.6389289893	-0.766063644	-0.0953002394	 0.142074
H	 0.2228067701	 0.1460984543	 1.3592792042	 0.096598
H	-2.574487432	 1.2710187696	 0.5347969601	 0.137305
H	-3.5183872697	-0.201333241	 0.799387035	 0.130009
H	-2.329076742	 0.3279862758	 2.0114387507	 0.126187
H	-2.6716563428	-2.4024501083	 0.4406292142	 0.096302
H	-0.7938693713	-3.8778093046	 0.7234684068	 0.079582
63.3025	120.5242	152.8893	185.8064	213.6825	229.9021	274.4032	321.9712	370.1746	453.8017	514.9429	691.7001	757.3049	789.1654	808.4571	904.5863	929.8444	972.0695	1005.6129	1009.6608	1060.087	1094.7387	1125.6018	1136.5441	1245.0698	1303.882	1329.4968	1383.9811	1406.7972	1410.6108	1424.6458	1440.4804	1473.8341	1488.9457	1496.3587	1505.3943	1508.8278	1822.7029	2870.7132	3034.4572	3042.2566	3044.9273	3090.2188	3102.8332	3111.0909	3118.1165	3126.7047	3129.1678
CCC1(C)OC1C=O	CC[C@@]1(C)O[C@H]1C=O	
InChI=1S/C6H10O2/c1-3-6(2)5(4-7)8-6/h4-5H,3H2,1-2H3	InChI=1S/C6H10O2/c1-3-6(2)5(4-7)8-6/h4-5H,3H2,1-2H3/t5-,6+/m0/s1
