16
gdb 96965	2.70399	1.3387	0.99766	5.8227	78.81	-0.2503	-0.0032	0.2471	1189.4299	0.12447	-396.904299	-396.89594	-396.894996	-396.937542	30.56	
C	-0.0365544457	 1.3955910704	-0.0441853988	-0.344228
N	-0.0189388458	-0.057112489	 0.019199494	-0.307428
C	-1.1096658037	-0.6718151813	 0.04961598	 0.361238
N	-2.4909014316	-0.2934135003	 0.0992796133	-0.355411
C	-2.9208954937	-1.6926718363	 0.111205796	-0.039945
C	-2.3954071561	-2.4681631472	-1.0471695336	-0.318714
C	-1.4490247981	-2.1424592434	 0.1204172255	 0.087008
C	-0.8013767228	-3.1477447852	 0.8922778403	 0.210264
N	-0.2765926994	-3.968630668	 1.5160531418	-0.346008
H	 0.7458600407	 1.7889336372	 0.6114869042	 0.13936
H	 0.2037076567	 1.7246389898	-1.062537816	 0.130572
H	-0.9958630884	 1.8437122691	 0.250483806	 0.113445
H	-2.871546358	 0.328796129	-0.6066653145	 0.244303
H	-3.7143824766	-2.0249511454	 0.7675513652	 0.139346
H	-2.6856521848	-3.5127117538	-1.1004971134	 0.151438
H	-2.2246011027	-1.9839140658	-2.00389261	 0.13476
98.9422	117.0455	156.2417	158.9286	233.4854	307.8249	408.643	432.1684	517.3283	556.5819	637.5173	659.5185	735.585	739.052	840.0689	886.4884	926.0631	991.7951	1014.8554	1052.6975	1071.5675	1100.2852	1122.2088	1128.2242	1166.8614	1237.6872	1291.1753	1330.1202	1375.5221	1437.7213	1479.26	1486.3163	1505.3356	1831.9586	2356.6442	2998.7773	3065.882	3095.2926	3125.3574	3209.911	3222.6582	3526.4058
CN=C1NC2CC12C#N	CN=C1N[C@H]2C[C@@]12C#N	
InChI=1S/C6H7N3/c1-8-5-6(3-7)2-4(6)9-5/h4H,2H2,1H3,(H,8,9)	InChI=1S/C6H7N3/c1-8-5-6(3-7)2-4(6)9-5/h4H,2H2,1H3,(H,8,9)/t4-,6-/m0/s1
