15
gdb 36542	3.82603	1.07047	0.94172	5.5449	75.5	-0.259	-0.0474	0.2116	1227.855	0.113526	-416.835437	-416.827547	-416.826603	-416.869107	28.213	
N	 0.3044450439	-0.9111929807	-0.6132774432	-0.316967
C	 0.2267886457	 0.159073643	-0.184734132	 0.274556
C	 0.1366389805	 1.5191264756	 0.3676580939	-0.29361
N	 1.417550096	 2.2218390442	 0.3425680782	-0.343756
C	 1.8049657456	 2.6719557957	-0.7792923429	 0.460915
O	 1.1123269879	 2.544537636	-1.9533960153	-0.25038
C	 1.8521953865	 3.162260318	-3.0128300276	-0.135733
C	 3.0846614918	 3.7025989366	-2.3500662709	-0.094326
C	 3.0422703914	 3.4087956261	-1.0500241387	-0.160032
H	-0.6462033426	 2.0532452179	-0.1881514202	 0.151977
H	-0.1918516791	 1.4385816592	 1.408354432	 0.151964
H	 2.0713926566	 2.4079976239	-3.779231415	 0.14566
H	 1.2331977478	 3.9428859397	-3.4735336331	 0.138078
H	 3.8578787057	 4.2376008897	-2.8843503677	 0.133026
H	 3.7595859224	 3.638498425	-0.2770590674	 0.138628
34.8684	92.6738	175.8966	218.4911	284.5316	373.2044	400.7555	452.2257	624.7254	688.7129	697.8432	802.3695	805.7679	885.5792	919.3016	951.3458	974.1599	1004.4439	1027.5724	1029.7705	1087.9526	1116.9468	1198.8917	1199.8534	1268.362	1349.5354	1367.9561	1380.5451	1473.4298	1494.8415	1657.0825	1756.7797	2358.5175	3017.5636	3023.4715	3056.0281	3080.1748	3232.9867	3267.0875
N#CCN=C1OCC=C1	N#CCN=C1OCC=C1	
InChI=1S/C6H6N2O/c7-3-4-8-6-2-1-5-9-6/h1-2H,4-5H2	InChI=1S/C6H6N2O/c7-3-4-8-6-2-1-5-9-6/h1-2H,4-5H2
