18
gdb 14364	4.11976	2.11769	1.85842	1.6221	71.57	-0.2414	0.0942	0.3356	780.3068	0.156899	-347.729632	-347.723537	-347.722593	-347.75974	25.107	
C	-0.0572703761	 1.5456070506	 0.0816025693	-0.249345
C	 1.4638491762	 1.2677960622	 0.0528771548	-0.07998
C	 1.1835331465	 0.064241329	 1.0289835034	-0.304324
C	 0.093298847	-0.0025201554	-0.079667301	 0.314097
C	-0.9011649582	-0.8756218337	-0.7926266754	-0.195615
O	-0.7943929325	-0.4258857253	-2.1600806945	-0.285813
C	 0.4056280414	 0.3611701044	-2.3961562581	-0.119966
C	 1.2167388743	 0.2459967492	-1.1124907542	-0.010618
H	-0.4710956549	 1.8882215092	 1.0335904981	 0.088922
H	-0.485833115	 2.10223633	-0.7519244956	 0.104774
H	 2.2734257234	 1.9937976309	 0.1419648506	 0.074296
H	 1.923137197	-0.7407332602	 1.0405347725	 0.096991
H	 0.8536242239	 0.3265175412	 2.0375192617	 0.094944
H	-0.6429512334	-1.9422796898	-0.718246596	 0.094373
H	-1.94179676	-0.7422922376	-0.4790551002	 0.104837
H	 0.9290430233	-0.0712467076	-3.2552745479	 0.099391
H	 0.1092776557	 1.3824881119	-2.6611674465	 0.101728
H	 1.9644944612	-0.551052739	-1.1714685209	 0.071305
102.8143	297.53	343.0069	415.3918	519.7663	575.0064	664.9602	721.3292	788.1867	814.6614	859.1827	869.1811	899.2555	941.9213	961.202	993.6435	1002.9561	1014.5575	1052.587	1080.114	1099.1955	1114.829	1137.6369	1148.4371	1165.4322	1202.4823	1204.6571	1215.2873	1223.036	1253.9146	1293.5315	1346.0784	1374.6064	1401.8412	1497.8422	1513.8334	1523.8824	1549.9028	2993.5103	3029.4455	3047.8192	3052.7938	3065.5415	3067.079	3072.5723	3099.673	3120.6831	3137.8383
C1C2CC11COCC21	C1[C@H]2C[C@]31COC[C@@H]23	
InChI=1S/C7H10O/c1-5-2-7(1)4-8-3-6(5)7/h5-6H,1-4H2	InChI=1S/C7H10O/c1-5-2-7(1)4-8-3-6(5)7/h5-6H,1-4H2/t5-,6-,7+/m0/s1
