19
gdb 53656	5.14736	0.5281	0.5012	2.2653	83.11	-0.2453	-0.0401	0.2051	2166.7671	0.155579	-423.014934	-423.004134	-423.00319	-423.053154	36.59	
C	-0.0086430108	 1.5193825573	-0.0113478007	-0.497289
C	 0.0016880499	 0.0634720855	-0.0383724984	 0.114655
C	 0.0241382039	-1.140318757	-0.060950579	 0.018286
C	 0.0170844912	-2.5980259085	-0.0832686874	-0.356605
C	-1.4027619563	-3.1875864789	 0.0276298618	-0.195408
C	-1.3745952544	-4.7263211695	 0.0224382687	 0.045705
O	-0.6020912167	-5.2318868792	 1.0772406517	-0.433169
C	-2.7835694472	-5.2770183921	 0.0910388623	 0.133617
O	-3.1311510282	-6.0273965487	 0.9709011601	-0.259626
H	 0.3245876436	 1.9036267349	 0.9591552553	 0.147261
H	 0.6546364197	 1.9368165055	-0.777166316	 0.146864
H	-1.0138758761	 1.9148858872	-0.1952159782	 0.145474
H	 0.4854523808	-2.959841555	-1.0090189144	 0.122225
H	 0.6209642898	-2.9954922896	 0.7400380867	 0.152611
H	-1.8685761287	-2.8414466335	 0.9566009799	 0.120936
H	-2.0188177931	-2.8273978242	-0.8047054404	 0.106713
H	-0.9565673526	-5.0573631364	-0.9477272359	 0.09253
H	-1.1965999906	-5.8068852113	 1.5849501259	 0.29561
H	-3.4807252041	-4.9492722065	-0.7069835922	 0.099611
21.0477	54.1351	65.4767	95.1267	133.5483	210.607	229.8133	273.3712	314.5253	360.1229	384.5375	414.8312	475.0491	525.9233	727.3473	775.9398	789.9124	848.9696	947.7463	961.0677	1049.695	1052.5755	1055.9785	1092.9358	1156.7841	1170.6317	1207.3125	1245.9495	1293.7615	1313.8131	1352.2021	1376.2172	1403.3896	1415.7813	1437.2079	1471.9742	1478.9419	1479.9234	1486.8415	1812.6664	2374.0819	2921.4927	2937.7731	3013.9721	3025.6461	3038.1358	3065.2	3085.2303	3085.9046	3091.1602	3689.0829
CC#CCCC(O)C=O	CC#CCC[C@@H](O)C=O	
InChI=1S/C7H10O2/c1-2-3-4-5-7(9)6-8/h6-7,9H,4-5H2,1H3	InChI=1S/C7H10O2/c1-2-3-4-5-7(9)6-8/h6-7,9H,4-5H2,1H3/t7-/m1/s1
