19
gdb 97995	9.35534	0.41708	0.41461	4.3631	83.81	-0.2582	0.0052	0.2634	2585.2596	0.156563	-423.028377	-423.017631	-423.016686	-423.068085	35.556	
C	 0.2940281498	 1.4495556946	 0.1265582339	-0.364679
C	-0.2905835538	 0.0768946136	-0.2536062705	-0.313928
C	 0.3639924887	-0.5241416225	-1.4114590198	 0.104346
C	 0.9114404707	-0.9884663488	-2.3788091471	 0.014681
C	 1.5886240353	-1.5935741423	-3.5187268201	-0.344176
C	 2.4237586302	-2.8108884557	-3.0978770782	-0.080899
O	 3.130271293	-3.3341468249	-4.2265125678	-0.170133
C	 2.7052734993	-4.4966109534	-4.7580234804	 0.169539
O	 3.2087693396	-4.9903335638	-5.7206117283	-0.270916
H	 1.3567239338	 1.3657576998	 0.3694758835	 0.128291
H	 0.1920580381	 2.1575372546	-0.7002440963	 0.13005
H	-0.2278547391	 1.8578305355	 0.9969999501	 0.116643
H	-0.2109727144	-0.6054318818	 0.6024354548	 0.129819
H	-1.3643702126	 0.1785806637	-0.4566695891	 0.131541
H	 0.8605465022	-1.9071749178	-4.2778482523	 0.135136
H	 2.2514728211	-0.869059173	-4.0068285598	 0.147093
H	 3.1741515779	-2.5235167902	-2.3577564681	 0.137337
H	 1.7824516713	-3.5822069299	-2.6549679813	 0.122219
H	 1.8539750288	-4.9354956175	-4.2001743234	 0.078037
7.1759	43.5015	45.6628	87.6366	137.7626	158.5227	211.151	290.2476	322.7855	354.2765	385.9574	475.9651	517.8847	665.6458	764.5542	781.3003	785.1956	965.2374	1034.731	1041.023	1047.6139	1073.7928	1083.1472	1105.2418	1155.8269	1168.2451	1267.5499	1286.1118	1311.4621	1326.1041	1351.1538	1403.0845	1409.2017	1431.3399	1474.6359	1476.8227	1494.8252	1505.4803	1506.3675	1869.0712	2368.763	2938.9765	3020.221	3024.4067	3038.9075	3044.939	3047.3874	3061.4647	3111.9787	3118.6896	3124.1641
CCC#CCCOC=O	CCC#CCCOC=O	
InChI=1S/C7H10O2/c1-2-3-4-5-6-9-7-8/h7H,2,5-6H2,1H3	InChI=1S/C7H10O2/c1-2-3-4-5-6-9-7-8/h7H,2,5-6H2,1H3
