19
gdb 78470	3.4145	1.43589	1.4079	1.8672	73.05	-0.2517	0.0868	0.3385	1018.2838	0.161779	-423.009161	-423.002211	-423.001267	-423.040187	28.779	
C	 0.0452827438	 1.5875348373	-0.0083423303	-0.430651
C	 0.0289193671	 0.0742006173	 0.0285597261	-0.020794
C	 0.6168858116	-0.6840593283	-1.1457929049	-0.077087
C	 1.3231539503	-0.6727892408	 0.2003147145	-0.057657
C	 1.2548881375	-2.1710640873	 0.5541285466	 0.164292
O	-0.0854099245	-2.5517362366	 0.8888341912	-0.277607
C	-0.7448827695	-2.689429216	-0.3861743018	-0.106792
C	 0.3483476481	-2.1902904196	-1.3413011689	 0.024968
O	 1.492709919	-2.8024555527	-0.6922313579	-0.252053
H	 0.9405062818	 1.9649917477	-0.5137980098	 0.115743
H	-0.8281336571	 1.9779756449	-0.5415018916	 0.120308
H	 0.0336258815	 2.0042225794	 1.0043586077	 0.123239
H	-0.8307610593	-0.3543335652	 0.5317045572	 0.107702
H	 1.0007970165	-0.121561384	-1.9894549234	 0.088594
H	 2.2554744247	-0.1430284945	 0.3638203532	 0.086628
H	 1.9410603513	-2.5328989014	 1.318353648	 0.091803
H	-0.9875722437	-3.7421816444	-0.5676804856	 0.108077
H	-1.661337085	-2.0923523689	-0.4045612969	 0.105606
H	 0.2762196561	-2.5279117366	-2.3732290133	 0.08568
196.6265	206.8087	247.0943	289.7119	373.1206	417.7044	533.6076	601.4055	672.2184	761.4737	783.9105	820.7101	837.8908	880.8967	899.809	912.0933	961.7602	964.2	977.4212	995.0997	1026.1121	1045.1937	1058.9827	1076.6313	1112.9643	1136.2246	1145.3168	1194.7339	1211.2824	1242.654	1284.3457	1299.5188	1303.2305	1320.0563	1331.75	1373.0625	1416.041	1438.1695	1494.9985	1500.7027	1520.0623	3029.8617	3037.7745	3087.9123	3096.062	3097.5391	3140.3941	3146.5306	3165.7447	3168.7621	3176.4757
CC1C2C1C1OCC2O1	C[C@H]1[C@H]2[C@@H]1[C@H]1OC[C@@H]2O1	
InChI=1S/C7H10O2/c1-3-5-4-2-8-7(9-4)6(3)5/h3-7H,2H2,1H3	InChI=1S/C7H10O2/c1-3-5-4-2-8-7(9-4)6(3)5/h3-7H,2H2,1H3/t3-,4-,5+,6+,7-/m0/s1
