18
gdb 9903	4.75116	0.88612	0.84615	1.6492	78.78	-0.2282	0.0434	0.2715	1439.2263	0.151715	-347.76445	-347.755244	-347.7543	-347.799298	33.117	
C	 0.3362130793	 1.3752281876	 0.3212230392	-0.363268
C	-0.3101199014	 0.1045841218	-0.2604181801	-0.316405
C	 0.4296293543	-0.4616877981	-1.3832328293	 0.025839
C	 1.0526658352	-0.9259682531	-2.3056313724	 0.060903
C	 1.7850382965	-1.4365935563	-3.4363391455	 0.236331
O	 1.2787146175	-1.0787000439	-4.6985912689	-0.445305
C	 3.2906947398	-1.6211164236	-3.3224349029	-0.312927
C	 2.3780513624	-2.8203753397	-3.3962929566	-0.289998
H	 1.3475715163	 1.1668122171	 0.6807478512	 0.126894
H	 0.4039866262	 2.1591805812	-0.4380255109	 0.125745
H	-0.2559209614	 1.7565088063	 1.1586208074	 0.11418
H	-0.4043362048	-0.653047251	 0.5284670756	 0.13026
H	-1.335731795	 0.3281579799	-0.5815405572	 0.131159
H	 1.2774702729	-0.1159419474	-4.7448140537	 0.28248
H	 3.8618466916	-1.3731285362	-4.2099277147	 0.119416
H	 3.7656132284	-1.3845551201	-2.3775461355	 0.120471
H	 2.2209942885	-3.4130986323	-2.5036075463	 0.125023
H	 2.3415280638	-3.3666007721	-4.3317445494	 0.129202
28.7068	91.3993	102.7156	205.1517	217.9909	297.8407	325.309	361.3895	372.8663	481.2541	551.3815	568.6112	603.3462	775.9892	783.5929	845.1654	888.1396	923.0318	943.1283	990.4964	1053.4032	1066.2558	1080.3796	1096.7714	1103.0048	1194.0667	1238.3349	1287.1354	1306.3273	1351.5333	1384.0015	1408.7767	1448.8526	1471.6657	1487.7197	1494.7048	1505.1043	2355.5284	3019.1565	3043.5241	3046.2081	3116.6204	3122.7812	3138.5696	3146.615	3229.0096	3244.5265	3797.2309
CCC#CC1(O)CC1	CCC#CC1(O)CC1	
InChI=1S/C7H10O/c1-2-3-4-7(8)5-6-7/h8H,2,5-6H2,1H3	InChI=1S/C7H10O/c1-2-3-4-7(8)5-6-7/h8H,2,5-6H2,1H3
