19
gdb 70216	3.10084	1.32685	1.10257	2.5441	74.72	-0.2373	-0.0135	0.2238	1128.0763	0.159621	-423.043371	-423.035105	-423.034161	-423.076498	32.268	
O	-0.0296812436	 1.4061092427	 0.0600503377	-0.467516
C	 0.0316481936	 0.0067429111	-0.0517609582	 0.394193
C	-0.5591543713	-0.6134481327	-1.2959461584	-0.347273
C	-1.3130175043	-0.6679800913	 0.0198190749	-0.063076
C	-1.4911694147	-1.9868557626	 0.7558486404	-0.322474
C	-0.1778799504	-2.6512356764	 1.1549917646	 0.376512
O	 0.0010947617	-3.8435414436	 1.0695110336	-0.310648
C	 0.869714443	-1.6874570721	 1.684331482	-0.28938
C	 1.2501185266	-0.6464877067	 0.6089558662	-0.297674
H	 0.6414187945	 1.7788571086	-0.5227903177	 0.280686
H	-0.939687797	 0.0581492456	-2.0573660616	 0.113754
H	-0.1147584703	-1.5310479183	-1.671481343	 0.117181
H	-2.1502632527	 0.01879707	 0.0899215864	 0.102414
H	-2.0300608973	-1.7999094346	 1.6961896882	 0.125892
H	-2.0861086126	-2.7027538127	 0.1812161389	 0.123361
H	 0.4418996054	-1.1609004553	 2.5474809075	 0.119607
H	 1.741072421	-2.2543247801	 2.0186503117	 0.118284
H	 1.8856346817	-1.1229764402	-0.1460935509	 0.113305
H	 1.8432888968	 0.1464115984	 1.0732677875	 0.112852
48.2324	116.0145	208.0288	310.9316	354.6971	377.2044	389.4098	406.2403	480.1621	511.4386	536.5368	669.548	694.4836	767.1195	824.3	837.6861	892.206	921.6145	937.1423	961.4323	1007.308	1035.9055	1065.9574	1097.1304	1108.6767	1151.6972	1176.507	1222.4127	1242.708	1252.9117	1279.7609	1319.3977	1331.2078	1348.7325	1373.464	1415.494	1458.7031	1472.1863	1482.1599	1497.2308	1820.0176	3011.584	3028.5337	3038.8528	3086.7553	3090.304	3115.2481	3121.3569	3161.8115	3216.1198	3790.772
OC12CC1CC(=O)CC2	O[C@]12C[C@H]1CC(=O)CC2	
InChI=1S/C7H10O2/c8-6-1-2-7(9)4-5(7)3-6/h5,9H,1-4H2	InChI=1S/C7H10O2/c8-6-1-2-7(9)4-5(7)3-6/h5,9H,1-4H2/t5-,7-/m1/s1
