14
gdb 45911	2.88819	1.50577	1.02855	3.1868	64.93	-0.2724	-0.0959	0.1765	1075.9516	0.100901	-473.877531	-473.869868	-473.868924	-473.910622	27.896	
N	-0.1563227029	 1.3708199631	-0.141527025	-0.47558
C	-0.0729654954	 0.1341480678	 0.0720086805	 0.40302
C	-1.2330047849	-0.810059986	-0.0465242349	-0.306561
C	-1.2858087133	-1.7487880771	 1.1663228507	-0.327498
C	 0.0194010482	-2.4987374221	 1.2929546116	 0.280402
O	 0.1347898691	-3.624391846	 1.6912019707	-0.247851
C	 1.305804616	-1.725454813	 0.8740289387	 0.322977
O	 2.3982466212	-2.1867004742	 0.9788439812	-0.260398
O	 1.1508950032	-0.4386775093	 0.415340337	-0.233297
H	 0.750389369	 1.8255518001	-0.0173031387	 0.240877
H	-2.1421203079	-0.2177223595	-0.1468732321	 0.157023
H	-1.1171155304	-1.399888467	-0.965349869	 0.144543
H	-1.4278746921	-1.1619747377	 2.0845268649	 0.153421
H	-2.10418068	-2.4690767691	 1.1069695243	 0.148921
44.4946	105.6402	172.1062	325.7751	385.2363	398.4509	408.7823	471.418	544.5628	599.5167	643.2286	666.8856	776.2297	846.0261	918.3494	936.1845	986.7678	1037.3508	1083.9173	1105.6269	1158.1071	1175.5044	1261.2572	1313.2161	1331.2345	1365.2449	1459.5398	1480.3389	1774.9749	1842.381	1873.3841	3025.0861	3038.0498	3118.5845	3141.2118	3475.8423
N=C1CCC(=O)C(=O)O1	[NH][C]1CCC(=O)C(=O)O1	
InChI=1S/C5H5NO3/c6-4-2-1-3(7)5(8)9-4/h6H,1-2H2	InChI=1S/C5H5NO3/c6-4-2-1-3(7)5(8)9-4/h6H,1-2H2
