20
gdb 58523	2.77128	1.27986	1.22653	2.0374	73.79	-0.2326	0.0507	0.2834	1138.7692	0.169706	-440.229786	-440.220781	-440.219837	-440.262998	35.182	
C	 0.0884131623	 1.526955387	-0.1378153	-0.420201
C	 0.0617209812	 0.0138133341	 0.1108773288	 0.098466
O	 0.6160734551	-0.3130967394	 1.3754387049	-0.4407
C	-1.3507601327	-0.5764813494	 0.0198144065	 0.36943
O	-2.1210177212	-0.1115789455	 1.1295599667	-0.490523
C	-2.1447819639	-0.5553709056	-1.3159964477	-0.239438
N	-2.3914778056	-2.041156988	-1.2643471944	-0.129498
C	-1.0528605683	-2.6549756838	-1.318857267	-0.250612
C	-1.5007408413	-2.0954996983	-0.0311353691	-0.053848
H	 1.1104687201	 1.8984977938	-0.0325815957	 0.133209
H	-0.2705718009	 1.7802009805	-1.1414105376	 0.11527
H	-0.5291121655	 2.0590916283	 0.5951714777	 0.101798
H	 0.6985022986	-0.4764099221	-0.6340689355	 0.082495
H	-0.0923680607	-0.1566248376	 2.0141919725	 0.282529
H	-2.3751859208	 0.8022163037	 0.9599819136	 0.285392
H	-3.0886913726	-0.0120669203	-1.2308770481	 0.11104
H	-1.6119711504	-0.2285683775	-2.2160014391	 0.100633
H	-1.0864158479	-3.7345921168	-1.4275675768	 0.12716
H	-0.2681711763	-2.1700492577	-1.8961009533	 0.112061
H	-1.7509657193	-2.7025443054	 0.8315798835	 0.105338
86.2335	158.5712	179.0027	231.5066	282.3365	296.5979	336.2365	341.3557	444.378	469.9807	484.5464	504.6082	532.3496	706.8756	751.6879	784.6779	838.9106	900.7771	910.7171	953.463	982.543	1012.6061	1046.2052	1060.2195	1090.6672	1107.1818	1118.4753	1121.2588	1134.473	1189.3012	1220.2549	1254.6591	1285.2049	1296.5146	1322.1168	1359.352	1387.1794	1401.2411	1437.0232	1478.5573	1489.7979	1501.5521	1506.5156	3029.5868	3037.8156	3050.208	3096.0851	3105.2714	3108.1519	3122.5452	3179.4474	3198.2734	3759.6722	3807.6148
CC(O)C1(O)CN2CC12	C[C@@H](O)[C@@]1(O)CN2C[C@@H]12	
InChI=1S/C6H11NO2/c1-4(8)6(9)3-7-2-5(6)7/h4-5,8-9H,2-3H2,1H3	InChI=1S/C6H11NO2/c1-4(8)6(9)3-7-2-5(6)7/h4-5,8-9H,2-3H2,1H3/t4-,5+,6+,7?/m1/s1
