18
gdb 48251	1.84351	1.47456	0.8624	2.7237	78.37	-0.247	-0.0332	0.2138	1312.7207	0.144252	-401.884677	-401.875114	-401.874169	-401.919868	34.253	
O	-0.8384916276	 1.4019550031	 0.5315077095	-0.245924
C	 0.2231851679	 0.9834573156	 0.1512236835	 0.166497
C	 1.488937272	 1.8300158039	 0.0179215271	-0.066386
C	 1.4627809924	 2.9981850319	 1.0226107962	-0.364768
C	 2.4146462803	 4.059248831	 0.7230522824	 0.301276
C	 3.1889139849	 4.9425426525	 0.4664409648	-0.444317
N	 2.6357877818	 0.9576686855	 0.2278939831	-0.079174
C	 3.0956161533	 0.187459648	-0.9311250311	-0.233866
C	 3.8893551067	 1.3360058027	-0.4213717504	-0.212795
H	 0.3554450124	-0.0780673158	-0.1514791269	 0.094818
H	 1.4674074326	 2.250368713	-1.0083291114	 0.094988
H	 0.4428381316	 3.397261395	 1.0362305515	 0.155911
H	 1.6555719633	 2.5894418649	 2.0213915262	 0.144813
H	 3.8702601697	 5.72837665	 0.2527740687	 0.19638
H	 3.4003189175	-0.8336418335	-0.7238016554	 0.124284
H	 2.5739472293	 0.3242853923	-1.8772715828	 0.114253
H	 3.8976328519	 2.2467724341	-1.0138698859	 0.129471
H	 4.7860649101	 1.167258296	 0.166676761	 0.12454
61.3764	74.7462	98.5388	150.2946	193.3557	249.7596	282.6524	344.8499	401.2553	421.9653	536.3736	614.303	620.0381	639.7108	743.9289	819.1664	847.2305	897.6007	944.4674	981.9593	1021.5455	1049.4152	1069.5986	1112.5238	1113.5586	1123.9703	1173.6479	1183.9584	1245.8943	1273.4823	1316.4949	1346.6106	1357.8412	1417.1323	1463.2616	1494.3034	1521.4282	1834.6605	2237.6677	2893.6988	2902.3442	3042.0849	3084.4444	3097.8244	3118.5562	3187.4152	3206.9808	3505.4163
O=CC(CC#C)N1CC1	O=C[C@@H](CC#C)N1CC1	
InChI=1S/C7H9NO/c1-2-3-7(6-9)8-4-5-8/h1,6-7H,3-5H2	InChI=1S/C7H9NO/c1-2-3-7(6-9)8-4-5-8/h1,6-7H,3-5H2/t7-/m1/s1
