17
gdb 76818	2.94632	1.68278	1.42972	2.951	68.92	-0.2464	0.047	0.2933	944.3914	0.135684	-458.827902	-458.820744	-458.8198	-458.859073	29.495	
O	 0.3485389462	 1.328773973	-0.1423344482	-0.431971
C	 0.0960430684	-0.0482032753	-0.0650243856	 0.040903
C	 0.2082117099	-0.609104138	 1.4350251518	 0.020296
O	 0.954497612	 0.1327435869	 2.3306203435	-0.415486
C	-1.3416224425	-0.5500754162	 1.4400062031	 0.320954
C	-2.8376995754	-0.9385453818	 1.5451058478	-0.313433
C	-2.6381453563	 0.1729844848	 0.4427765915	 0.01795
O	-1.7843011584	 0.903143455	 1.3905369206	-0.362774
C	-1.391122105	-0.5736286717	-0.1005577629	-0.073586
H	-0.4036048763	 1.7350662948	 0.3178903573	 0.292201
H	 0.7535863662	-0.5448694981	-0.7813214094	 0.095501
H	 0.5413527325	-1.6524741071	 1.4411754492	 0.099116
H	 1.0193539841	 1.0188411981	 1.9443077726	 0.289724
H	-3.1067148148	-1.9447125979	 1.2162635371	 0.110825
H	-3.3826000945	-0.6123790009	 2.4318306188	 0.122182
H	-3.4136096935	 0.7431658574	-0.0759876502	 0.102401
H	-1.5406859126	-1.522024493	-0.617885437	 0.085195
165.8231	212.557	254.7977	284.1404	405.3897	424.2767	539.4864	560.2211	598.599	655.0394	697.2772	717.7249	743.4992	798.8894	830.0412	845.1256	904.1767	932.3091	967.8951	1005.5089	1036.9737	1087.3801	1097.9439	1109.4076	1157.3743	1159.8135	1177.057	1192.5932	1213.4189	1233.0506	1256.0499	1288.5921	1327.8007	1346.2305	1428.3021	1458.0787	1481.6899	3060.4119	3068.1134	3078.7123	3091.2779	3110.5567	3155.3218	3675.9313	3723.7139
OC1C(O)C23CC(O2)C13	O[C@H]1[C@@H](O)[C@@]23C[C@@H](O2)[C@@H]13	
InChI=1S/C6H8O3/c7-4-3-2-1-6(3,9-2)5(4)8/h2-5,7-8H,1H2	InChI=1S/C6H8O3/c7-4-3-2-1-6(3,9-2)5(4)8/h2-5,7-8H,1H2/t2-,3+,4-,5-,6+/m1/s1
