15
gdb 35677	4.52286	1.01731	0.95523	2.4851	69.29	-0.3111	-0.0116	0.2995	1196.6796	0.113715	-416.832761	-416.82473	-416.823786	-416.866291	28.684	
N	 0.2378087548	-1.1785408958	 0.174154068	-0.312046
C	 0.0808291072	-0.0361573738	 0.1045412079	 0.279827
C	-0.1343276374	 1.422864569	 0.0339950641	-0.022368
C	-0.7711855067	 1.9742846846	 1.3251062379	-0.252671
C	 0.4692775067	 2.2876072621	 2.1710685025	-0.252635
C	 1.4593631464	 2.7815417725	 1.0975839027	-0.022363
O	 1.1255425462	 2.0856741437	-0.106883064	-0.253057
C	 1.3493796454	 4.2367664644	 0.8733683014	 0.279781
N	 1.2530590713	 5.3769197731	 0.7143003436	-0.312022
H	-0.7354303991	 1.6392072645	-0.8542274887	 0.146506
H	-1.3224578206	 2.888575661	 1.0895375386	 0.14284
H	-1.4524323742	 1.2644650935	 1.7948054058	 0.144436
H	 0.2904926439	 3.0278237766	 2.9512526036	 0.144446
H	 0.8655589129	 1.3787871389	 2.6318638023	 0.142836
H	 2.498682563	 2.5500192558	 1.3490639044	 0.146489
43.6824	99.8027	163.5833	210.5918	276.2294	288.6585	462.5497	481.4211	547.2242	610.3306	677.3975	752.0601	823.4426	836.7889	913.6174	927.583	954.2295	980.7557	1052.5879	1080.2297	1089.7077	1172.3084	1204.3562	1276.3078	1298.806	1322.9071	1352.238	1356.7894	1377.9931	1483.0419	1493.9744	2359.1055	2359.5824	3069.0192	3070.4831	3079.8837	3081.3942	3138.8709	3145.7997
N#CC1CCC(O1)C#N	N#C[C@H]1CC[C@@H](O1)C#N	
InChI=1S/C6H6N2O/c7-3-5-1-2-6(4-8)9-5/h5-6H,1-2H2	InChI=1S/C6H6N2O/c7-3-5-1-2-6(4-8)9-5/h5-6H,1-2H2/t5-,6-/m1/s1
