15
gdb 44859	3.40253	1.67636	1.49502	2.1313	62.94	-0.2435	-0.03	0.2135	879.9315	0.114108	-457.753815	-457.74761	-457.746666	-457.784394	25.248	
O	 0.0131197265	 0.0256767978	 0.0720466244	-0.307724
C	-0.0142377361	 1.2231004949	 0.0275433705	 0.425673
C	-1.2532305619	 2.1521794229	 0.0047213168	-0.348711
C	-0.5532346457	 3.5264230045	 0.0489699415	 0.014924
O	 0.6155656317	 3.2880484456	-0.7533749331	-0.24112
C	 1.1761159491	 2.2129746628	-0.0017914102	-0.09445
C	 1.2105976758	 2.7821496772	 1.4299535652	 0.020235
O	 1.3645129689	 4.1994631132	 1.471118588	-0.230486
C	 0.0418626196	 3.6700633735	 1.4594967623	 0.032332
H	-1.808376065	 2.0126502286	-0.9269252845	 0.14455
H	-1.9196891256	 1.9312804627	 0.8429858238	 0.132331
H	-1.1022177452	 4.375824131	-0.3539903163	 0.101946
H	 2.0995666701	 1.850774575	-0.4470910645	 0.111458
H	 1.5787980405	 2.206451856	 2.2718249578	 0.124634
H	-0.5781395328	 3.8437089545	 2.3331582184	 0.11441
120.0372	285.9367	332.1853	446.1123	459.1167	558.3294	603.8368	621.971	737.5672	789.7238	832.3649	845.7546	871.5637	911.8192	941.121	949.1391	958.2063	989.219	1006.812	1048.5342	1089.5424	1130.7985	1138.3697	1193.2338	1237.9379	1240.9587	1259.1407	1276.2426	1313.0162	1329.1851	1407.5651	1452.0366	1870.5228	3067.75	3116.914	3137.0703	3160.4513	3170.5307	3187.2
O=C1CC2OC1C1OC21	O=C1C[C@@H]2O[C@H]1[C@H]1O[C@@H]21	
InChI=1S/C6H6O3/c7-2-1-3-5-6(9-5)4(2)8-3/h3-6H,1H2	InChI=1S/C6H6O3/c7-2-1-3-5-6(9-5)4(2)8-3/h3-6H,1H2/t3-,4+,5-,6+/m0/s1
