16
gdb 50019	3.14247	1.06826	0.98446	4.2238	72.7	-0.2578	-0.0326	0.2252	1222.6947	0.123348	-437.900117	-437.891633	-437.890689	-437.93394	30.357	
O	-0.0775415107	 0.0022088168	-0.3175754128	-0.259226
C	 0.0192634734	 1.1531307711	 0.025062147	 0.169762
C	 1.2814805934	 1.9285269353	 0.044260824	-0.159519
C	 1.189749067	 3.4320781599	-0.1802984682	-0.355721
C	 1.5028899266	 2.917720578	 1.1743770846	 0.155564
C	 0.7771844541	 3.0755171485	 2.5260720687	-0.242227
N	 2.1161497002	 3.2182516556	 3.1136563097	-0.345812
C	 2.8155734809	 3.0794540588	 1.9355843633	 0.410715
O	 3.9820791793	 3.0894868532	 1.6525018946	-0.3647
H	-0.87477717	 1.7336348369	 0.3586943753	 0.064995
H	 2.1592254006	 1.4053251064	-0.3196577792	 0.131822
H	 1.9924478119	 3.8952886189	-0.743084206	 0.152432
H	 0.2011526701	 3.8467099502	-0.3540677353	 0.131521
H	 0.1498870571	 3.9681756884	 2.6164053638	 0.122847
H	 0.2277473984	 2.1965940171	 2.8773917008	 0.127924
H	 2.4223389376	 3.370881605	 4.0619975898	 0.259623
81.034	82.0087	133.6139	188.3606	222.2614	296.7699	349.0464	436.8196	485.8392	536.2513	619.3775	736.6614	779.9477	860.6626	866.7476	897.7816	979.668	1004.2605	1030.6217	1054.5829	1075.8059	1090.2733	1151.2724	1155.3852	1168.177	1181.8235	1283.4029	1299.0551	1374.9025	1410.081	1445.3405	1484.7096	1525.4104	1824.8116	1899.7971	2836.507	3040.5864	3088.343	3129.4169	3182.3363	3223.2317	3630.4878
O=CC1CC11CNC1=O	O=C[C@H]1C[C@]21CNC2=O	
InChI=1S/C6H7NO2/c8-2-4-1-6(4)3-7-5(6)9/h2,4H,1,3H2,(H,7,9)	InChI=1S/C6H7NO2/c8-2-4-1-6(4)3-7-5(6)9/h2,4H,1,3H2,(H,7,9)/t4-,6-/m1/s1
