21
gdb 86572	2.78255	1.1386	0.90493	2.605	79.71	-0.2358	-0.0065	0.2293	1351.3273	0.17999	-424.241421	-424.231224	-424.23028	-424.276989	36.989	
C	-0.2541248011	 1.473507122	 0.0556773082	-0.382335
C	-0.040275855	-0.0366092634	 0.0666979588	-0.045923
C	 0.8855011294	-0.564494778	-1.0699884744	-0.263843
C	 2.07025428	-0.591560557	-0.075947462	-0.077854
C	 1.0402256635	-0.5215938838	 1.0882113029	 0.114445
O	 1.4449399916	 0.3168499014	 2.144715625	-0.424883
C	 2.9930824486	-1.7899260332	-0.0420115099	 0.350706
C	 4.1853178323	-1.6678318454	 0.8892453353	-0.48129
O	 2.7682152999	-2.7934091433	-0.6818540805	-0.307385
H	 0.6914736	 2.01647944	-0.0380799806	 0.121691
H	-0.8933851598	 1.761248733	-0.7854146127	 0.113711
H	-0.7345773592	 1.8153554603	 0.9780760616	 0.107686
H	-1.0043811524	-0.5471578079	 0.1560143182	 0.066459
H	 0.6378484054	-1.5752796442	-1.399489896	 0.124219
H	 0.9968295541	 0.0791426043	-1.9452442923	 0.101268
H	 2.6473082288	 0.3381254372	-0.0758970522	 0.090761
H	 0.8022369302	-1.5311275121	 1.4520014479	 0.078806
H	 0.8297784187	 0.2100932789	 2.8773303073	 0.287885
H	 3.8797621297	-1.2346005381	 1.8477138049	 0.148896
H	 4.6555777426	-2.6411893763	 1.0352382096	 0.135966
H	 4.9167500726	-0.9773090544	 0.4516466509	 0.141017
49.4421	75.4649	134.9289	157.398	205.1284	217.0155	243.0376	274.6152	322.5591	352.4796	401.2714	541.9969	580.9194	607.35	651.3719	790.3197	818.7006	885.3684	913.6342	942.0964	966.7701	988.6332	1019.0944	1055.3948	1085.353	1110.2084	1133.8608	1182.2649	1190.7555	1215.5334	1228.9203	1259.7612	1271.0371	1308.1439	1357.6006	1370.692	1385.4469	1410.4053	1425.1343	1466.3659	1474.4575	1489.4625	1493.0498	1497.004	1805.0017	2997.4722	3032.2927	3033.8394	3048.0677	3068.5134	3073.0764	3094.5762	3099.9517	3107.0412	3130.4336	3149.7475	3816.0398
CC1CC(C1O)C(C)=O	C[C@H]1C[C@@H]([C@H]1O)C(=O)C	
InChI=1S/C7H12O2/c1-4-3-6(5(2)8)7(4)9/h4,6-7,9H,3H2,1-2H3	InChI=1S/C7H12O2/c1-4-3-6(5(2)8)7(4)9/h4,6-7,9H,3H2,1-2H3/t4-,6+,7-/m0/s1
