17
gdb 65606	3.7843	1.18717	1.18509	3.4188	68.34	-0.2656	-0.0416	0.224	1082.5901	0.135029	-458.962663	-458.954783	-458.953839	-458.995167	30.333	
O	 0.0337038873	 1.5927508954	-0.0322137749	-0.467427
C	-0.0018812552	 0.1923780866	 0.0410209879	 0.308396
C	 0.6051589566	-0.3240498067	 1.3884939108	-0.294407
C	-0.5878594072	-0.5678212023	 2.2881224004	 0.046207
O	-1.503448564	 0.530593041	 2.3336275949	-0.241133
C	-1.8157161493	-0.5786432162	 1.4855003634	 0.046139
C	-1.4733101223	-0.3421365903	 0.0298953256	-0.29437
C	 0.7699718742	-0.3861633289	-1.1320692415	 0.108566
O	 1.3049801858	 0.3089369246	-1.9595431845	-0.267954
H	 0.5522473577	 1.8004889378	-0.8263793307	 0.290133
H	 1.1551357354	-1.2651861889	 1.2549766457	 0.100272
H	 1.2971089187	 0.4265245184	 1.7767770539	 0.136581
H	-0.4766006691	-1.1281832552	 3.2133045605	 0.098331
H	-2.7008235573	-1.1477122482	 1.7594727505	 0.098365
H	-2.1156336523	 0.3970252175	-0.4537945601	 0.13662
H	-1.5602683056	-1.2886511746	-0.5202001123	 0.100283
H	 0.8138594866	-1.4942611799	-1.1844554795	 0.095396
93.5307	94.3187	267.7524	301.1988	349.209	356.0965	395.1617	400.2414	496.8754	501.6746	680.5317	764.1284	812.1412	835.6319	864.2094	873.1929	901.9664	959.9326	990.2394	1003.3618	1025.2729	1053.1713	1081.8836	1124.7371	1163.4568	1199.5474	1260.8446	1295.1894	1299.7506	1314.0741	1327.995	1394.9352	1438.2829	1444.5187	1456.901	1468.3733	1816.7694	2916.8795	3024.8229	3027.5752	3111.8693	3113.0701	3138.775	3151.4163	3679.4447
OC1(CC2OC2C1)C=O	O[C@]1(C[C@H]2O[C@H]2C1)C=O	
InChI=1S/C6H8O3/c7-3-6(8)1-4-5(2-6)9-4/h3-5,8H,1-2H2	InChI=1S/C6H8O3/c7-3-6(8)1-4-5(2-6)9-4/h3-5,8H,1-2H2/t4-,5+,6+
