21
gdb 90680	3.51162	1.07198	1.00623	2.4982	84.22	-0.2298	-0.01	0.2198	1313.1417	0.181434	-387.087578	-387.078372	-387.077428	-387.121971	34.687	
C	-0.0478537094	 1.5180233569	 0.0034310577	-0.410855
C	 0.0312077174	-0.0033215825	-0.0389737359	 0.040296
C	 1.1846632057	-0.567256616	-0.936053517	-0.245069
C	 1.854261242	-1.1434531623	 0.3184331389	-0.076157
C	 0.737171842	-0.6080043981	 1.1897684844	-0.07999
C	 0.9553008744	-2.1106321127	 1.0783967081	-0.120767
C	 0.0061758231	-3.0900585198	 0.4643596294	 0.378828
C	-0.0859940666	-4.4308191543	 1.1770832852	-0.480725
O	-0.6546976668	-2.8606658601	-0.5282796242	-0.324121
H	 0.928038355	 1.9613946409	 0.2343603932	 0.11007
H	-0.3787397796	 1.9179375791	-0.9609804635	 0.115834
H	-0.756612889	 1.8568848183	 0.767610869	 0.111528
H	-0.9493871216	-0.4306716339	-0.253934106	 0.094089
H	 0.9016725439	-1.2777981317	-1.7128371606	 0.119939
H	 1.7825106221	 0.2361648015	-1.3752228448	 0.095622
H	 2.9209816618	-1.1705376976	 0.5098573695	 0.087698
H	 0.7908247711	-0.1409065822	 2.1677143975	 0.08491
H	 1.4565519677	-2.5024765643	 1.9603708058	 0.084747
H	 0.8976399862	-4.913763846	 1.208443562	 0.13794
H	-0.4016361909	-4.2871670367	 2.2170733872	 0.137822
H	-0.7976539085	-5.0763157185	 0.6614389642	 0.138362
35.7163	128.7207	150.6194	188.9296	240.9954	259.9078	299.458	315.6771	412.7809	456.5031	606.382	637.7902	708.4109	761.6862	790.7717	842.2282	869.4725	888.0258	941.1915	949.2364	964.6516	996.8321	1008.1818	1048.3807	1073.5935	1083.2376	1116.9162	1136.7229	1143.2206	1195.29	1212.1631	1249.3059	1263.0631	1298.7837	1328.8187	1365.8757	1374.7985	1409.7749	1436.6985	1464.3444	1475.6395	1479.5127	1494.9758	1500.3794	1788.0654	3021.2779	3031.8972	3064.9703	3079.9669	3091.8436	3093.947	3104.7072	3133.6722	3136.0262	3152.6823	3159.6183	3175.9439
CC1CC2C1C2C(C)=O	C[C@H]1C[C@H]2[C@@H]1[C@H]2C(=O)C	
InChI=1S/C8H12O/c1-4-3-6-7(4)8(6)5(2)9/h4,6-8H,3H2,1-2H3	InChI=1S/C8H12O/c1-4-3-6-7(4)8(6)5(2)9/h4,6-8H,3H2,1-2H3/t4-,6-,7+,8-/m0/s1
