13
gdb 42749	2.82269	1.62246	1.33715	5.3892	69.16	-0.271	-0.0334	0.2375	941.2343	0.089918	-415.582767	-415.575825	-415.574881	-415.614192	26.521	
O	-0.0739182764	-0.0017649457	-0.1882054225	-0.260295
C	-0.0654805868	 1.164171417	-0.0580005548	 0.43741
C	-1.0447352862	 2.4039280179	 0.1057149308	-0.182213
N	 0.0142594914	 2.9080406625	 1.0287769542	-0.308661
C	 1.0039555052	 2.3981880858	 0.0344328241	 0.07219
C	 0.6094035337	 3.0422615916	-1.2859162698	-0.125785
C	-0.7372403239	 3.0489571527	-1.233867049	-0.097299
C	 2.3881971864	 2.2694056881	 0.40961992	 0.172712
N	 3.5015665526	 2.1472633492	 0.6945482931	-0.328187
H	-2.0625190465	 2.3229088744	 0.4766771379	 0.113328
H	 0.0251549751	 3.9313508085	 1.0574605715	 0.226152
H	 1.2818799454	 3.2911606479	-2.0931160559	 0.144053
H	-1.4490428901	 3.3063965701	-2.0043665495	 0.136594
126.9575	161.5421	190.4584	333.6648	467.1339	499.9827	535.6198	547.617	583.6497	687.4413	717.9205	777.9259	787.2909	852.9289	861.2739	913.2648	938.5578	986.289	1033.0317	1061.0006	1083.6678	1157.1303	1252.5216	1281.7467	1315.1491	1322.0304	1566.3682	1967.184	2361.5023	3172.6511	3239.3318	3263.0571	3423.3453
O=C1C2NC1(C=C2)C#N	O=C1[C@H]2N[C@@]1(C=C2)C#N	
InChI=1S/C6H4N2O/c7-3-6-2-1-4(8-6)5(6)9/h1-2,4,8H	InChI=1S/C6H4N2O/c7-3-6-2-1-4(8-6)5(6)9/h1-2,4,8H/t4-,6-/m0/s1
