17
gdb 39258	2.97601	1.86719	1.3252	1.8359	73.28	-0.2394	-0.0002	0.2391	952.6188	0.137618	-421.815863	-421.80899	-421.808045	-421.847439	27.231	
C	-0.0391147317	 1.4640945134	 0.4003784601	-0.101127
O	 0.9729967244	 2.0857169339	-0.4037454469	-0.285938
C	 1.868650337	 1.1036824127	-0.9184756197	 0.068576
C	 2.119213668	 1.1793552464	-2.4430234412	-0.305905
C	 1.9239092855	-0.2545152468	-2.9021300822	-0.075886
C	 1.4164186771	-1.0442285135	-1.9498025536	-0.207398
C	 1.191919987	-0.2469034933	-0.7288363535	 0.439693
O	 1.1434789886	-0.7172698773	 0.6179472112	-0.318002
C	-0.0033611527	-0.0204058565	 0.0909585157	-0.087675
H	 0.151323642	 1.6513818391	 1.4664833421	 0.111397
H	-1.0091636523	 1.9011104102	 0.136377793	 0.109947
H	 2.8148688304	 1.1421795534	-0.3616286721	 0.088972
H	 1.3813108697	 1.8485436248	-2.9027737812	 0.126927
H	 3.1086707687	 1.572469722	-2.6975193132	 0.112973
H	 2.1418779615	-0.5701044669	-3.9165321847	 0.104845
H	 1.1602730908	-2.0918229107	-2.0414357765	 0.110922
H	-0.916230044	-0.6043292211	 0.0166676826	 0.107679
66.2026	177.9538	266.6448	384.3886	415.6312	480.7241	542.1549	612.8854	685.5971	750.6372	761.9903	806.5105	842.8067	894.4053	938.5216	947.2395	965.4205	973.2979	1027.8514	1030.8189	1040.9848	1081.5773	1106.4617	1120.8585	1177.2269	1227.6592	1231.0392	1267.9659	1280.8143	1328.6423	1346.1708	1358.1546	1384.3596	1474.9244	1479.4205	1502.8939	1658.9549	3005.4811	3011.9604	3036.8652	3060.4	3077.0431	3160.2291	3191.3958	3224.1409
C1OC2CC=CC22OC12	C1O[C@@H]2CC=C[C@]32O[C@@H]13	
InChI=1S/C7H8O2/c1-2-5-7(3-1)6(9-7)4-8-5/h1,3,5-6H,2,4H2	InChI=1S/C7H8O2/c1-2-5-7(3-1)6(9-7)4-8-5/h1,3,5-6H,2,4H2/t5-,6+,7-/m1/s1
