16
gdb 19546	4.06534	1.74181	1.70014	3.3237	70.95	-0.2418	-0.0153	0.2265	831.6326	0.131636	-346.568074	-346.561617	-346.560673	-346.598834	25.026	
O	-0.2582798186	 0.0562887948	 0.1564747959	-0.281038
C	-0.0331155804	 1.225367761	-0.0653850267	-0.005367
C	 1.2704412352	 1.8581587008	-0.0085521528	 0.314002
C	 1.681070445	 3.2392559674	 0.5312548506	-0.11342
C	 2.8210394771	 2.5985017617	 1.3260032368	-0.226334
C	 2.7501628026	 1.4273482921	 0.3071017739	-0.126284
C	 3.1753927988	 2.0828924527	-1.0361311658	-0.226344
C	 1.8994073469	 2.9204450634	-0.9269224475	-0.113377
H	-0.8524872365	 1.9311067051	-0.3423598032	 0.059253
H	 1.0055336868	 4.0261601608	 0.8419568137	 0.102608
H	 3.7691298977	 3.1430902166	 1.4007411872	 0.09632
H	 2.4859832416	 2.2947386672	 2.3203301187	 0.113747
H	 3.0746185895	 0.4259143774	 0.5743786095	 0.093534
H	 4.1377275304	 2.6068521811	-1.0574213831	 0.096379
H	 3.114891314	 1.3799537182	-1.8700441115	 0.113707
H	 1.3872356	 3.4686052995	-1.7075047759	 0.102614
95.636	162.6166	265.4219	406.3296	468.4286	483.2911	651.9776	710.4078	760.9633	821.5631	821.6539	908.1503	912.2326	959.244	985.74	986.0366	1007.8783	1017.1527	1045.7518	1067.2833	1111.9838	1130.4819	1132.4536	1188.3727	1222.9488	1232.5533	1251.5565	1319.4238	1322.3422	1394.0386	1448.6972	1488.4706	1505.2943	1788.1638	2842.8656	3035.3048	3041.1568	3109.5469	3111.4467	3163.6505	3196.3965	3206.7052
O=CC12C3CC1CC23	O=C[C@@]12[C@H]3C[C@@H]1C[C@@H]23	
InChI=1S/C7H8O/c8-3-7-4-1-5(7)6(7)2-4/h3-6H,1-2H2	InChI=1S/C7H8O/c8-3-7-4-1-5(7)6(7)2-4/h3-6H,1-2H2/t4-,5+,6-,7+
