22
gdb 118178	1.91674	1.00778	0.7586	2.5644	80.09	-0.2421	0.0351	0.2772	1598.6169	0.191498	-441.523229	-441.511651	-441.510707	-441.561962	39.892	
C	 0.0807505248	 1.7881142424	-0.1600710731	-0.404389
C	 0.0348941658	 0.2677585481	 0.0191934295	 0.029268
C	 0.7023294431	-0.4616086112	-1.1579033503	-0.158977
C	 0.5363896105	-1.9759491941	-1.1244135627	-0.079604
O	 1.1866403017	-2.4976846571	-2.2766135542	-0.426611
N	 0.632986886	-0.095480356	 1.3027045381	-0.311727
C	 0.0585687885	-0.9749457922	 2.1740416512	 0.415546
C	 0.8018929436	-1.1663505235	 3.4883912759	-0.483275
O	-0.9827092555	-1.5619014272	 1.9315943677	-0.385903
H	 1.1154089313	 2.1502061752	-0.2070009237	 0.110946
H	-0.4117491659	 2.0814894076	-1.0914237624	 0.125534
H	-0.4207460655	 2.2937607902	 0.6698730505	 0.122084
H	-1.0065191884	-0.0600650976	 0.0923258657	 0.120681
H	 0.2740903816	-0.089232233	-2.0959550433	 0.106075
H	 1.7735930036	-0.2221390726	-1.1870689287	 0.093093
H	 0.9743501802	-2.3842868182	-0.2021692888	 0.090297
H	-0.5334735618	-2.2330768592	-1.1140659583	 0.100809
H	 1.0852712696	-3.4537352156	-2.2663134321	 0.284937
H	 1.5024195592	 0.3445748685	 1.5580626994	 0.238257
H	 0.9240521368	-2.2365898631	 3.6699146206	 0.151373
H	 1.7818386983	-0.6824000942	 3.5172689422	 0.109458
H	 0.1878426424	-0.7659809771	 4.3003980669	 0.152127
33.9809	39.302	70.3123	82.1462	127.1118	169.1297	205.6102	250.9884	269.0572	317.6927	337.5382	428.9865	451.0817	473.8832	510.6489	610.1568	638.7764	798.9048	877.9857	918.1955	964.2513	984.2928	1015.7178	1038.2325	1050.3204	1065.6979	1118.6067	1158.4377	1179.1049	1231.6927	1249.1974	1264.1578	1315.8888	1320.7059	1364.8805	1393.298	1398.5453	1411.6441	1465.141	1470.1716	1483.2163	1486.5502	1494.3191	1498.7904	1521.7597	1534.8285	1770.5613	2987.2487	3015.6595	3023.7349	3029.0362	3048.6853	3067.7931	3079.3276	3101.7926	3120.0556	3121.9073	3134.3721	3635.6624	3831.2811
CC(CCO)NC(C)=O	C[C@@H](CCO)NC(=O)C	
InChI=1S/C6H13NO2/c1-5(3-4-8)7-6(2)9/h5,8H,3-4H2,1-2H3,(H,7,9)	InChI=1S/C6H13NO2/c1-5(3-4-8)7-6(2)9/h5,8H,3-4H2,1-2H3,(H,7,9)/t5-/m0/s1
