14
gdb 10848	5.00911	1.53854	1.22827	5.3976	54.28	-0.2832	0.034	0.3172	915.1103	0.107617	-456.84655	-456.839222	-456.838278	-456.878726	25.965	
O	 0.0398842846	 1.3785874467	-0.1637069944	-0.419019
C	 0.0288860466	-0.0255669424	-0.0050443548	 0.049405
C	 0.6805153886	-0.4546845705	 1.3030212647	-0.091705
O	 0.5022966213	-1.8567194579	 1.5267428969	-0.254145
C	-0.6349133574	-2.498866018	 1.1698660176	 0.482298
O	-0.8082422993	-3.6404150078	 1.4697284047	-0.356693
O	-1.5526184747	-1.8314177763	 0.4349908693	-0.260026
C	-1.4264428513	-0.4510280383	 0.0751334598	-0.063793
H	 0.9274651985	 1.6546557821	-0.4122848084	 0.298271
H	 0.5167563141	-0.5391612649	-0.8462708961	 0.098435
H	 1.7616125534	-0.2904000775	 1.3021007227	 0.121643
H	 0.2433190919	 0.1173552109	 2.131089637	 0.127765
H	-1.9418932865	 0.1697436436	 0.8180927752	 0.130954
H	-1.9359976198	-0.3384485697	-0.8838025043	 0.136611
74.4051	94.8579	224.009	250.3596	311.6485	428.0102	443.182	464.7951	588.8556	726.2058	762.5434	812.441	915.5955	947.637	1046.5967	1096.811	1119.4859	1142.7087	1165.8897	1184.4884	1224.6255	1240.2703	1302.729	1356.8961	1403.8957	1412.685	1456.2411	1511.3431	1524.3263	1883.786	3003.2869	3031.8848	3043.4525	3096.913	3116.4244	3828.9623
OC1COC(=O)OC1	OC1COC(=O)OC1	
InChI=1S/C4H6O4/c5-3-1-7-4(6)8-2-3/h3,5H,1-2H2	InChI=1S/C4H6O4/c5-3-1-7-4(6)8-2-3/h3,5H,1-2H2
