18
gdb 33877	3.43441	1.50451	1.31477	1.1907	82.69	-0.2218	0.0347	0.2566	1009.0492	0.149517	-364.726436	-364.719393	-364.718449	-364.757559	29.605	
C	 0.0430266213	-1.1401799273	-0.0288810772	-0.398331
C	 0.0382542595	 0.0631084234	 0.0137243735	 0.215954
C	-0.0090007868	 1.4872227635	 0.057789182	 0.178687
N	 0.325107699	 2.2944338996	-1.1573333641	-0.383514
C	 1.1900611201	 2.38007442	 0.0342003601	-0.086251
C	 0.7775856722	 3.4397819075	 1.0742763796	-0.051403
C	-0.7082969984	 3.722218226	 0.7162585033	-0.228232
C	-0.8835215629	 2.2289876819	 1.1030855493	-0.109205
C	 0.2057757277	 2.5038117213	 2.1979970566	-0.21848
H	 0.0564592725	-2.2011797882	-0.0628183762	 0.187609
H	 0.7632391956	 1.6673825214	-1.8305713084	 0.235633
H	 2.2011863726	 1.9916573632	-0.0007616877	 0.10313
H	 1.4874476398	 4.2390786617	 1.2858826355	 0.066858
H	-1.1767461599	 4.3773110722	 1.4530222378	 0.094119
H	-0.9513230395	 4.0310215001	-0.2976709962	 0.126512
H	-1.8529158075	 1.7903681418	 1.3343716995	 0.069879
H	 0.820581992	 1.6603395432	 2.524681456	 0.09938
H	-0.1802681773	 3.0537380087	 3.0596752367	 0.097654
132.2617	150.6652	357.7334	386.2868	478.9536	506.4904	535.0273	556.3992	571.3342	613.6393	660.1316	695.4657	816.4118	836.1132	844.5174	853.5378	899.2863	917.9677	932.9598	982.1405	997.2657	1023.5322	1036.3948	1065.6256	1084.501	1096.7556	1109.1174	1167.4578	1224.4688	1232.9398	1244.2489	1249.3315	1266.9714	1307.2601	1325.8325	1395.6677	1479.8851	1513.5861	2230.3099	3055.8875	3086.6643	3116.0267	3120.8339	3130.3779	3166.4518	3185.0325	3486.9412	3503.613
C#CC12NC1C1CC2C1	C#C[C@]12N[C@H]1[C@H]1C[C@@H]2C1	
InChI=1S/C8H9N/c1-2-8-6-3-5(4-6)7(8)9-8/h1,5-7,9H,3-4H2	InChI=1S/C8H9N/c1-2-8-6-3-5(4-6)7(8)9-8/h1,5-7,9H,3-4H2/t5-,6+,7-,8+/m0/s1
