22
gdb 57468	2.39291	1.36466	1.0982	2.4504	82.53	-0.2422	-0.0252	0.217	1225.5278	0.191822	-404.353568	-404.343557	-404.342613	-404.38799	37.903	
C	 0.0534999892	 1.5701889835	 0.1095708105	-0.429043
C	 0.0049333792	 0.033283207	 0.0556299003	 0.267531
C	 0.6441612587	-0.5620270283	 1.3229496157	-0.418024
C	-1.4557557577	-0.4321464591	-0.0755390848	-0.414039
C	 0.7899347799	-0.4885822481	-1.1658710934	-0.101262
N	 0.3908807724	 0.0456671713	-2.5028373751	-0.32951
C	 1.7918533533	 0.3620077873	-2.8890060851	-0.279635
C	 2.2073160511	 0.0487301276	-1.4435791885	 0.384541
O	 3.2032386676	 0.1902378794	-0.7980233167	-0.294819
H	 1.0765054333	 1.9311473231	 0.2580642478	 0.121115
H	-0.3336938755	 2.0006899622	-0.8179709674	 0.127927
H	-0.5534296164	 1.9422420577	 0.9414241359	 0.107253
H	 0.1261954821	-0.2011874033	 2.2177514913	 0.109505
H	 0.5837988984	-1.6565361232	 1.3226171596	 0.104352
H	 1.6988325101	-0.2825238734	 1.4008153165	 0.139793
H	-1.9111766207	-0.0317243294	-0.986774701	 0.122392
H	-1.524387935	-1.5257508533	-0.1092757234	 0.101868
H	-2.0487695279	-0.0873733609	 0.7783612229	 0.111713
H	 0.8165079488	-1.5900347126	-1.1265544242	 0.08551
H	-0.0520262376	-0.6401644468	-3.1018993744	 0.225271
H	 2.2579937694	-0.3235115122	-3.6101803912	 0.123241
H	 1.9519644872	 1.3909204515	-3.2293790652	 0.134321
75.6806	110.5152	142.8697	217.5508	245.0553	263.4912	274.8713	281.8166	327.3879	372.4496	399.1137	440.264	510.9663	572.2023	645.3438	716.1618	790.6538	839.9907	923.1019	939.7797	943.407	963.19	986.5563	1009.2067	1027.0438	1052.2073	1070.4326	1093.1373	1109.6575	1206.8282	1223.1916	1249.906	1276.7792	1296.4363	1338.8293	1368.6503	1392.9583	1396.5433	1426.7504	1473.165	1478.5419	1491.1795	1492.5173	1503.378	1505.5013	1524.4335	1903.1831	2969.3213	3013.2543	3022.0107	3027.6413	3036.4045	3069.5167	3087.6532	3092.82	3100.5634	3103.6825	3114.7689	3117.6482	3552.1095
CC(C)(C)C1NCC1=O	CC(C)(C)[C@H]1NCC1=O	
InChI=1S/C7H13NO/c1-7(2,3)6-5(9)4-8-6/h6,8H,4H2,1-3H3	InChI=1S/C7H13NO/c1-7(2,3)6-5(9)4-8-6/h6,8H,4H2,1-3H3/t6-/m0/s1
