17
gdb 48856	2.97801	1.38234	1.13647	2.8821	69.21	-0.2556	-0.0416	0.214	1089.1874	0.135999	-458.955495	-458.947702	-458.946758	-458.988002	29.313	
O	-0.412766566	 0.5961820812	 0.7472839128	-0.257768
C	 0.2385987558	 0.9499485841	-0.202955588	 0.111531
C	 1.3941840938	 1.8945287446	-0.1275085103	 0.252741
C	 1.9750174885	 2.1844743029	 1.2436516621	-0.155932
O	 2.9163952723	 3.2350462448	 1.2318655751	-0.237438
C	 2.4009506548	 4.4127367656	 0.6418820643	-0.08314
C	 2.2005278261	 4.241159059	-0.8694309809	-0.239403
C	 1.5074462177	 2.9283968014	-1.1920475139	-0.012463
O	 2.3174800718	 1.7592594725	-1.2143070242	-0.272815
H	 0.035139581	 0.5907532456	-1.2364189312	 0.092318
H	 1.137472107	 2.402041801	 1.924385065	 0.117119
H	 2.4966928024	 1.3011508096	 1.6230034018	 0.130326
H	 1.4450443345	 4.6877067076	 1.1184293433	 0.093921
H	 3.121833004	 5.2070717553	 0.8517520627	 0.116628
H	 1.6098322397	 5.0755726535	-1.2618201304	 0.108931
H	 3.1676142714	 4.2502743951	-1.3827928596	 0.133235
H	 0.7516582452	 2.9498995363	-1.9779241287	 0.10221
92.1606	131.1129	206.128	238.2024	318.1629	377.5414	403.8534	447.1767	514.1907	551.3659	677.5479	746.2106	791.4381	857.3311	917.7176	929.1458	995.2644	1009.8949	1055.7585	1060.1278	1085.8663	1131.8208	1160.2775	1240.2864	1252.0573	1273.8281	1317.3495	1320.7663	1365.358	1378.487	1407.7066	1424.0095	1454.3903	1467.5315	1482.9631	1502.2849	1819.8794	2892.3593	2968.191	2997.8506	3047.5541	3089.3255	3091.6942	3098.0872	3106.3167
O=CC12COCCC1O2	O=C[C@]12COCC[C@H]1O2	
InChI=1S/C6H8O3/c7-3-6-4-8-2-1-5(6)9-6/h3,5H,1-2,4H2	InChI=1S/C6H8O3/c7-3-6-4-8-2-1-5(6)9-6/h3,5H,1-2,4H2/t5-,6+/m1/s1
