13
gdb 130080	5.51433	1.39957	1.11733	3.8907	65.75	-0.2162	0.0143	0.2305	993.1867	0.092697	-448.944659	-448.938134	-448.93719	-448.975408	25.414	
N	 0.0563132834	 1.2894169996	 0.15160801	-0.584578
C	-0.045607864	-0.06460103	 0.0511479313	 0.471536
N	-1.1375798072	-0.7707344539	 0.017164096	-0.332262
N	-0.6271010489	-2.0624897911	 0.0142059078	 0.024862
C	-1.0297077068	-3.381383071	-0.0284378651	-0.14554
C	 0.1622642657	-4.0766777967	-0.0378148996	-0.094833
N	 1.2760375083	-3.2410080367	-0.0073654344	-0.394151
C	 0.7188092831	-2.0683464382	 0.0228966191	 0.465728
O	 1.1320855471	-0.7617177472	 0.0522975884	-0.230352
H	 0.8868057253	 1.6887820836	-0.2601473094	 0.279569
H	-0.7967669928	 1.7823499511	-0.0665909574	 0.282788
H	-2.0619263549	-3.6813318426	-0.0433673362	 0.14173
H	 0.2876517917	-5.1479747671	-0.0622223703	 0.115504
137.2761	265.4619	318.0787	334.1424	349.8777	548.514	570.4371	619.6715	621.559	693.0556	715.029	736.2533	790.4204	824.3249	846.8269	960.5563	972.5712	1073.4397	1123.625	1153.7121	1178.1283	1290.6262	1371.6326	1444.6008	1474.9496	1496.9315	1608.959	1623.8173	1709.7885	3258.3745	3305.1049	3580.6749	3690.7366
NC1=NN2C=CN=C2O1	Nc1nn2ccnc2o1	
InChI=1S/C4H4N4O/c5-3-7-8-2-1-6-4(8)9-3/h1-2H,(H2,5,7)	InChI=1S/C4H4N4O/c5-3-7-8-2-1-6-4(8)9-3/h1-2H,(H2,5,7)
