16
gdb 66547	3.09565	1.79134	1.46636	3.2466	71.46	-0.2334	-0.0234	0.21	914.4056	0.124559	-400.675132	-400.66829	-400.667346	-400.706238	27.314	
C	 0.0067914415	 1.4450243394	-0.0320871768	-0.509057
C	-0.0795643599	-0.0453089229	-0.0283983285	 0.356161
C	 0.0155495698	-1.042203754	 1.0639668389	-0.115598
C	-0.5213686275	-2.112105291	 0.0771425161	-0.066489
C	 0.8759580063	-2.0844293326	-0.6371688242	-0.138979
N	 1.2058816071	-0.849574992	 0.1767742755	-0.188841
C	 0.1645546615	-1.5797962886	-1.9043235709	 0.458663
O	 0.2680204131	-1.7645729689	-3.079603162	-0.316756
C	-0.8895226413	-0.9665888528	-0.966362043	-0.269029
H	 0.7172666554	 1.7800864456	 0.7289809673	 0.139518
H	 0.3531912352	 1.8141756602	-1.0035181062	 0.135574
H	-0.9679167433	 1.8975621686	 0.1783914247	 0.124468
H	 0.0588147063	-0.951438403	 2.1425579745	 0.105184
H	-1.1387233395	-2.9885743063	 0.2468195005	 0.093911
H	 1.6406174051	-2.8567948534	-0.6246108509	 0.096613
H	-1.8963950299	-0.6926461283	-1.2694258551	 0.094656
119.9522	193.7258	249.3888	295.4886	404.6061	562.826	574.5192	603.2215	686.725	731.7615	779.8533	798.0551	807.7613	872.7783	893.841	903.0679	949.6203	984.2256	1005.5615	1030.0695	1038.4415	1072.7088	1097.9156	1135.4068	1154.3249	1170.8254	1206.0158	1210.5652	1247.7865	1265.1269	1398.6438	1438.9982	1480.6254	1491.0413	1894.4866	3033.7061	3098.6517	3116.2428	3155.9726	3162.0233	3168.9788	3189.4903
CC12C3C4C(N13)C(=O)C24	C[C@]12[C@H]3[C@@H]4[C@H](N13)C(=O)[C@H]24	
InChI=1S/C7H7NO/c1-7-3-2-4(5(3)9)8(7)6(2)7/h2-4,6H,1H3	InChI=1S/C7H7NO/c1-7-3-2-4(5(3)9)8(7)6(2)7/h2-4,6H,1H3/t2-,3+,4-,6+,7-,8?/m0/s1
