15
gdb 55214	2.85858	1.62582	1.04305	2.3786	68.58	-0.2638	-0.0499	0.2139	1064.7444	0.114167	-454.043114	-454.035291	-454.034346	-454.075805	29.092	
N	-0.0050224507	 1.3184730793	 0.0130707764	-0.569695
C	 0.068299611	-0.0309913001	 0.0024499648	 0.486313
O	 1.0887571861	-0.69117733	-0.0123735086	-0.404301
N	-1.1905711734	-0.6794776923	 0.0130301957	-0.194163
C	-1.2527670941	-2.1320815672	 0.0087574451	-0.205814
C	-2.7287183384	-2.3966313344	 0.0193463818	-0.088215
C	-3.4124304415	-1.2501868354	 0.0278101914	-0.185328
C	-2.4649334344	-0.1104876119	 0.023567587	 0.448188
O	-2.7204577725	 1.0815962237	 0.0282172571	-0.410393
H	 0.8615109884	 1.825931319	-0.003463424	 0.264998
H	-0.9076507294	 1.7773387798	 0.016179034	 0.287451
H	-0.754875141	-2.5470241634	-0.8756062616	 0.152824
H	-0.741322553	-2.552856354	 0.8825959549	 0.152683
H	-3.1336948011	-3.4000804237	 0.0196647005	 0.131822
H	-4.4821053759	-1.0994096495	 0.0363440553	 0.133631
72.5138	111.7393	224.7501	252.8932	313.7761	372.3225	396.9727	438.3473	602.7487	646.0702	650.1503	686.2527	722.7547	776.4636	826.9546	832.8822	966.932	969.5886	1011.4066	1045.3063	1117.352	1128.4794	1189.489	1217.1823	1254.768	1360.4934	1379.1149	1379.8166	1485.9702	1599.2522	1654.3384	1782.4495	1814.9956	3041.9276	3068.504	3223.1702	3253.7258	3515.517	3726.2586
NC(=O)N1CC=CC1=O	NC(=O)N1CC=CC1=O	
InChI=1S/C5H6N2O2/c6-5(9)7-3-1-2-4(7)8/h1-2H,3H2,(H2,6,9)	InChI=1S/C5H6N2O2/c6-5(9)7-3-1-2-4(7)8/h1-2H,3H2,(H2,6,9)
