18
gdb 96941	3.38563	1.18636	1.09774	2.4904	75.32	-0.2494	0.0092	0.2585	1191.7485	0.146609	-439.053387	-439.044751	-439.043807	-439.087116	31.375	
C	 0.4037143523	 1.3910993495	-0.0975704913	-0.341728
N	 0.4261233302	-0.0620694208	-0.0097384671	-0.33147
C	 0.5692096739	-0.7408086194	-1.0452899326	 0.476513
O	 0.6888990092	-0.347769282	-2.3887535295	-0.284875
C	 0.7195186723	-1.7304031267	-2.8356519552	 0.035747
C	 2.1337648565	-2.3390986383	-2.8673423301	 0.128435
C	 3.3197802165	-1.4686957518	-3.2138414751	-0.406911
O	 2.0427147051	-2.6672930662	-1.4463469229	-0.310492
C	 0.6732322657	-2.2172356525	-1.3748699376	-0.050433
H	 1.2555184834	 1.792904749	 0.46217559	 0.133961
H	 0.4400763844	 1.7793507939	-1.1218994574	 0.127822
H	-0.5031341426	 1.7616659316	 0.3915418039	 0.13124
H	 0.0027428465	-1.9213938458	-3.6316046835	 0.103565
H	 2.1416657086	-3.2709944921	-3.44987696	 0.086281
H	 3.2525536542	-0.5021423541	-2.7104792848	 0.139902
H	 4.2449918691	-1.9642804698	-2.905568548	 0.133908
H	 3.3650415036	-1.3010400487	-4.2951407925	 0.121605
H	-0.006563119	-2.9322764759	-0.9125704062	 0.106929
78.5091	89.62	150.1445	200.1273	213.3474	243.0946	331.2791	386.3129	479.6491	561.6537	662.024	718.226	785.3657	813.6045	873.5092	908.2179	932.2056	971.4265	1015.5037	1041.1238	1071.9714	1096.686	1104.1017	1131.4004	1148.3459	1169.3894	1207.6112	1229.5538	1283.4311	1319.2535	1325.7363	1376.3309	1408.0593	1438.9592	1484.0718	1492.0611	1492.9438	1497.5815	1851.543	3008.0685	3020.0325	3044.8403	3087.4075	3092.8523	3112.9026	3123.1159	3139.144	3141.6055
CN=C1OC2C(C)OC12	CN=C1O[C@H]2[C@@H](C)O[C@@H]12	
InChI=1S/C6H9NO2/c1-3-4-5(8-3)6(7-2)9-4/h3-5H,1-2H3	InChI=1S/C6H9NO2/c1-3-4-5(8-3)6(7-2)9-4/h3-5H,1-2H3/t3-,4+,5-/m1/s1
