14
gdb 27341	3.22896	1.35424	0.95409	6.3756	68.54	-0.2034	-0.0041	0.1993	1125.0789	0.101701	-473.874851	-473.867009	-473.866065	-473.906877	30.229	
O	-0.1294227858	 1.3509183807	 0.0108191064	-0.425324
C	 0.0305073932	 0.0065801553	 0.0027924921	 0.50907
C	 1.2117686202	-0.6703259044	-0.0074567997	-0.428012
C	 1.2712457364	-2.1210749211	-0.0152079688	 0.351227
O	 2.3078546428	-2.7732596743	-0.0256140699	-0.396479
C	-0.0658345221	-2.7691306651	-0.0117439472	 0.207363
O	-0.0384303361	-4.125359326	-0.0194855627	-0.412744
C	-1.2022128488	-2.0339440983	-0.0014144964	-0.129431
N	-1.1559118	-0.649118138	 0.0059316987	-0.371714
H	 0.74013865	 1.7648913487	 0.008160957	 0.316246
H	 2.1521362878	-0.1313962176	-0.0100355134	 0.09716
H	-0.9389670891	-4.4678705361	-0.0165505677	 0.294249
H	-2.1958559225	-2.4658208779	 0.0016407875	 0.116712
H	-2.002756636	-0.105663826	 0.013632064	 0.271677
123.6049	184.5486	310.9665	316.694	350.8978	358.0367	362.287	428.3683	448.0204	455.0851	519.802	613.7527	673.9736	736.2347	754.7572	798.3008	798.6208	832.1609	991.8965	1135.7149	1183.9236	1228.2846	1238.8532	1261.3641	1310.379	1400.2183	1457.1341	1597.8374	1643.5557	1693.5453	1729.1347	3195.7338	3197.6716	3665.0521	3810.9928	3834.2092
OC1=CC(=O)C(O)=CN1	Oc1cc(=O)c(O)c[nH]1	
InChI=1S/C5H5NO3/c7-3-1-5(9)6-2-4(3)8/h1-2,8H,(H2,6,7,9)	InChI=1S/C5H5NO3/c7-3-1-5(9)6-2-4(3)8/h1-2,8H,(H2,6,7,9)
