23
gdb 63972	3.05303	1.26275	1.12692	0.3543	92.64	-0.2202	0.0254	0.2456	1234.7305	0.206298	-351.1524	-351.143558	-351.142614	-351.185248	35.384	
C	 0.0153437256	 1.4961589191	 0.1808252459	-0.445117
C	-0.0427245455	-0.0200461756	 0.0191457159	 0.21945
C	-1.4658292622	-0.4853671435	-0.3188687973	-0.430799
C	 1.0318201304	-0.6834242656	-0.9424702435	-0.290173
C	 1.2922949349	-1.7893900303	 0.1394392321	-0.038231
C	 2.6390642321	-2.1067235701	 0.8202388086	-0.243341
C	 2.3521270111	-1.826504226	 2.3332502976	-0.234236
C	 1.2360670927	-0.7832372734	 2.2874625054	-0.265565
C	 0.629120872	-0.8467452527	 1.1067628589	 0.31334
H	 1.028580627	 1.8277831876	 0.4261952365	 0.112531
H	-0.2971026704	 1.9999052885	-0.7414052902	 0.110671
H	-0.6521634026	 1.8321414526	 0.9827028113	 0.113849
H	-1.8039369294	-0.0317906375	-1.2574089716	 0.110353
H	-1.5216771258	-1.5723433536	-0.4309805615	 0.115068
H	-2.168404705	-0.1939507672	 0.4691193541	 0.11576
H	 0.6663620154	-1.0125700982	-1.9195280218	 0.092043
H	 1.9001640296	-0.0325530404	-1.0784041553	 0.098503
H	 0.7151266297	-2.6950937899	-0.0817451874	 0.071287
H	 3.0030798423	-3.1220837548	 0.6372769458	 0.090343
H	 3.409924183	-1.4113100141	 0.4681903897	 0.097793
H	 2.0420019211	-2.7414302598	 2.8585548683	 0.101559
H	 3.2391844469	-1.4572835071	 2.8597773698	 0.098267
H	 1.0607575172	-0.0694821581	 3.0843937685	 0.086644
119.1678	136.6483	214.7502	242.9266	260.5155	286.7252	322.7292	352.3369	389.6731	482.9448	580.0398	606.1297	673.9788	769.0167	809.2189	827.8317	860.8778	897.0218	900.7693	911.9053	951.6464	963.4319	971.3187	995.7817	1027.4766	1053.6133	1088.6275	1101.8173	1165.949	1189.0837	1195.128	1219.0816	1224.3379	1254.0269	1272.1752	1286.8521	1306.814	1332.5904	1340.5034	1398.6927	1416.5428	1473.1087	1481.581	1482.8762	1487.2464	1496.1841	1501.0268	1505.8768	1723.8729	3001.5759	3022.3036	3025.3493	3028.5705	3035.4596	3047.5777	3060.5945	3085.5906	3089.9173	3094.4048	3102.5801	3105.285	3110.0494	3192.4653
CC1(C)CC2CCC=C12	CC1(C)C[C@H]2CC[CH][C]12	
InChI=1S/C9H14/c1-9(2)6-7-4-3-5-8(7)9/h5,7H,3-4,6H2,1-2H3	InChI=1S/C9H14/c1-9(2)6-7-4-3-5-8(7)9/h5,7H,3-4,6H2,1-2H3/t7-/m1/s1
