17
gdb 98520	2.31574	1.40283	0.94156	4.2023	70.86	-0.2651	-0.0379	0.2272	1218.3727	0.13327	-458.976456	-458.967343	-458.966399	-459.010935	32.967	
O	 0.046283877	 1.4596129939	-0.1385335454	-0.424294
C	-0.0080957341	 0.0866857028	-0.3895619649	-0.137311
C	-1.2729171931	-0.5199077393	 0.1937998394	 0.267261
O	-2.0552226258	 0.2082070593	 0.779692085	-0.34833
C	-1.5675378467	-1.9853765992	 0.0595620381	 0.13954
C	-2.3619699523	-2.6042018578	 1.2322637253	-0.279007
C	-3.067951626	-2.3465203253	-0.0317032546	-0.278882
C	-0.6554981822	-2.9214237496	-0.6416844542	 0.093647
O	 0.3908506241	-2.6395822189	-1.1714855866	-0.267956
H	-0.7633085058	 1.6633465869	 0.3550813012	 0.293326
H	 0.0197871395	-0.1338473825	-1.467169503	 0.132123
H	 0.8597130084	-0.4412610806	 0.0332396126	 0.132099
H	-2.1073426343	-3.6237253487	 1.5001224587	 0.136871
H	-2.5267470712	-1.9222478424	 2.0571926028	 0.161125
H	-3.7226046987	-1.4854907977	-0.0843710072	 0.161147
H	-3.3231013908	-3.1799157799	-0.6769298891	 0.136911
H	-1.0302737981	-3.971801941	-0.6444965583	 0.08173
41.0658	122.6573	133.1865	189.733	260.0635	268.1161	321.7121	343.6942	395.2836	419.2882	490.1001	571.7012	637.4251	775.9778	791.8745	821.1414	929.0518	940.8184	958.0357	1022.9749	1049.821	1063.8443	1091.2107	1106.8886	1149.7834	1209.8669	1241.1902	1282.4504	1298.9483	1348.1991	1443.0584	1449.2748	1451.5169	1467.3151	1481.8775	1754.6192	1816.5614	2858.5787	3003.616	3018.8214	3145.1729	3145.6598	3237.9806	3251.0308	3697.5991
OCC(=O)C1(CC1)C=O	OCC(=O)C1(CC1)C=O	
InChI=1S/C6H8O3/c7-3-5(9)6(4-8)1-2-6/h4,7H,1-3H2	InChI=1S/C6H8O3/c7-3-5(9)6(4-8)1-2-6/h4,7H,1-3H2
