20
gdb 106137	2.50895	1.54907	1.23781	1.7542	78.9	-0.2351	0.0758	0.311	1102.5027	0.171183	-403.085984	-403.077461	-403.076517	-403.11913	32.836	
C	-0.2000455691	 1.4428535223	 0.0655868431	-0.496304
C	-0.0477618436	-0.0373232286	-0.0917359049	 0.290304
C	 0.9968760941	-0.7977865854	-0.9130875377	-0.287898
C	 0.1633179555	-2.0697281052	-0.6073640951	-0.123613
C	 0.3047913653	-2.1826093971	 0.9150265604	-0.150893
N	-0.469660245	-0.9057441525	 1.0748182769	-0.239348
C	-1.0568669308	-1.1114315802	-0.2953258196	 0.289267
C	-2.5296631039	-1.1574570582	-0.5198054655	-0.216882
O	-3.1461877067	-2.2146698185	 0.2028286084	-0.415564
H	 0.6497373767	 1.8618930219	 0.6162309199	 0.126135
H	-0.2484517986	 1.93874281	-0.9097716907	 0.118274
H	-1.1084540223	 1.6832937817	 0.6241922672	 0.131384
H	 0.9384755131	-0.5070848245	-1.9655852421	 0.103879
H	 2.0422440458	-0.7858419516	-0.5830103504	 0.091503
H	 0.1807546542	-2.9315247528	-1.2715092387	 0.077293
H	-0.2801342986	-2.9967885599	 1.3496476981	 0.10759
H	 1.3136675111	-2.1766546007	 1.3453916246	 0.093271
H	-2.9629847864	-0.1811877769	-0.250612708	 0.096366
H	-2.7564609117	-1.3377557511	-1.5760531766	 0.113955
H	-2.9192945592	-2.0715097026	 1.1291023606	 0.291281
69.8521	123.2142	185.7826	212.2749	284.6083	306.3103	357.621	430.9384	451.9858	541.3443	600.5292	663.8131	687.6913	795.9286	834.1612	870.6468	928.3801	936.5356	968.8663	979.4301	1004.8404	1027.2059	1039.6418	1086.421	1097.608	1144.9333	1149.5223	1176.4998	1194.1504	1224.2361	1236.0791	1265.4793	1312.2966	1326.9992	1365.2114	1408.0469	1421.8742	1461.2358	1484.8885	1486.552	1492.791	1498.1284	1515.6585	2981.128	3027.4327	3031.3242	3036.5046	3071.3996	3092.4455	3098.7521	3103.0685	3116.2212	3136.127	3796.1626
CC12CC3CN1C23CO	C[C@@]12C[C@H]3CN1[C@@]23CO	
InChI=1S/C7H11NO/c1-6-2-5-3-8(6)7(5,6)4-9/h5,9H,2-4H2,1H3	InChI=1S/C7H11NO/c1-6-2-5-3-8(6)7(5,6)4-9/h5,9H,2-4H2,1H3/t5-,6-,7+,8?/m0/s1
