17
gdb 73660	2.67241	1.59067	1.31976	1.2231	67.7	-0.2437	-0.0384	0.2053	1001.0885	0.135463	-458.968555	-458.960538	-458.959594	-459.001227	30.474	
O	 0.389744684	 1.4046240144	-0.2116674256	-0.479132
C	 0.124368726	 0.0380028686	-0.0702209074	 0.302954
C	 0.7041314795	-0.7801306998	-1.2485841649	-0.297889
C	-0.356932628	-1.8448698791	-1.560353323	-0.098831
O	-1.6042948447	-1.2974517791	-1.1333970822	-0.250207
C	-1.3528372382	-0.5229314276	 0.0106677528	 0.048003
C	-0.9869017236	-1.2996076225	 1.3254780624	-0.392846
C	 0.319063114	-0.5035633166	 1.3511445754	 0.321422
O	 1.072284741	-0.1487745027	 2.2167475526	-0.310979
H	 0.7826739161	 1.7070168511	 0.6169180599	 0.296306
H	 0.8032604371	-0.0689263883	-2.0731036064	 0.136763
H	 1.6896469425	-1.2038042959	-1.042246312	 0.119507
H	-0.4429737525	-2.0727378334	-2.6251851202	 0.121764
H	-0.1463564586	-2.7864511662	-1.0308892975	 0.097459
H	-2.1438836456	 0.2169935047	 0.1297362613	 0.1049
H	-1.6302205722	-1.1416588516	 2.1938344111	 0.139949
H	-0.8602896167	-2.3754477461	 1.1745260838	 0.140857
69.3068	162.2194	183.6317	236.2671	290.5213	339.0159	409.2091	462.1907	495.1057	616.5149	658.3705	678.2484	737.0846	803.5525	857.888	908.9768	923.0434	964.2801	992.7942	1031.6294	1065.1039	1094.5212	1127.8219	1138.4163	1168.5294	1192.5821	1217.5579	1245.1652	1259.3098	1328.1645	1348.567	1374.7649	1400.1348	1427.9692	1480.9571	1524.8732	1868.5259	2991.1296	3068.037	3070.0279	3100.7213	3120.3919	3121.7878	3132.3507	3774.1891
OC12CCOC1CC2=O	O[C@]12CCO[C@H]1CC2=O	
InChI=1S/C6H8O3/c7-4-3-5-6(4,8)1-2-9-5/h5,8H,1-3H2	InChI=1S/C6H8O3/c7-4-3-5-6(4,8)1-2-9-5/h5,8H,1-3H2/t5-,6-/m0/s1
