18
gdb 70280	4.15789	1.11389	0.99303	4.6073	73.39	-0.2445	0.0261	0.2706	1211.5971	0.147698	-439.108093	-439.099765	-439.098821	-439.141446	30.92	
C	-0.0613441307	 1.5088996105	 0.0237502159	-0.488604
C	-0.0606102203	 0.0080217952	 0.0903696755	 0.404342
C	-1.2663732943	-0.7829223676	-0.4020506793	-0.241232
N	-1.0709449082	-2.1120233028	 0.1699362279	-0.052439
C	-0.1256095879	-2.1157232184	 1.2867660722	-0.193829
C	 0.6209133355	-0.812477318	 1.1024049681	-0.033661
O	 1.1720085771	-0.6615706182	-0.2121026878	-0.287968
C	-1.4878990611	-3.2667961277	-0.4106349325	 0.150153
O	-1.2542246813	-4.3791162799	 0.0147929034	-0.338726
H	 0.8581745249	 1.9080590134	 0.4576542634	 0.138784
H	-0.1222967246	 1.8510113124	-1.0151083579	 0.134748
H	-0.9165169787	 1.9250508684	 0.5661068979	 0.127821
H	-2.1893515687	-0.306800025	-0.039887342	 0.110998
H	-1.3142377742	-0.8323896984	-1.494821057	 0.129349
H	-0.6353171838	-2.1308131064	 2.2601273002	 0.116015
H	 0.5079253309	-3.0037892065	 1.2220921536	 0.150814
H	 1.2024275464	-0.391706146	 1.9181137333	 0.102744
H	-2.0808930509	-3.0804841848	-1.328326445	 0.070693
42.6229	177.5229	193.8033	228.1868	251.1433	315.5274	335.3592	393.5795	418.3173	522.3992	636.6001	715.2382	770.6963	852.2064	880.4101	900.2535	953.7285	985.9264	993.7014	1033.8873	1048.4676	1108.1741	1119.1517	1196.6837	1217.2884	1224.2529	1252.9863	1296.4062	1341.8643	1353.0536	1408.3703	1415.6664	1443.3294	1467.001	1488.5112	1497.0352	1501.2771	1509.5755	1794.3894	2932.3836	2996.6736	3015.4191	3038.8831	3072.0371	3100.9781	3103.2242	3129.9235	3157.6981
CC12CN(CC1O2)C=O	C[C@]12CN(C[C@H]1O2)C=O	
InChI=1S/C6H9NO2/c1-6-3-7(4-8)2-5(6)9-6/h4-5H,2-3H2,1H3	InChI=1S/C6H9NO2/c1-6-3-7(4-8)2-5(6)9-6/h4-5H,2-3H2,1H3/t5-,6+/m1/s1
