17
gdb 6514	2.91989	1.87309	1.4168	4.8344	69.2	-0.2378	0.0267	0.2645	925.9874	0.141008	-360.029114	-360.019889	-360.018945	-360.062338	33.671	
C	 0.0442877289	 1.5362303205	 0.0047429681	-0.420863
C	 0.0330031999	 0.0221706251	-0.024398495	 0.286717
N	-1.2188118054	-0.5035566245	-0.5122370304	-0.575013
C	 1.3391321013	-0.7081041614	-0.2580196984	-0.360652
C	 0.724332187	-0.7208940594	 1.1365790826	 0.113062
N	 1.4032158904	-0.0602007284	 2.2204488577	-0.565286
C	 0.1011840556	-1.9658898637	 1.5414335836	 0.300402
N	-0.4373094864	-2.9465041063	 1.8381687253	-0.359404
H	 0.9815383234	 1.9382976014	 0.3961060444	 0.101772
H	-0.08689746	 1.9270482541	-1.0103310106	 0.124497
H	-0.7857599384	 1.9090752913	 0.611932328	 0.133638
H	-1.2355416526	-0.5028465041	-1.5277167086	 0.231056
H	-1.3764906737	-1.4577502039	-0.2044759214	 0.249762
H	 1.3179874699	-1.6361921851	-0.8177275269	 0.133705
H	 2.2561513181	-0.1358710268	-0.3662326322	 0.118505
H	 2.2000064301	 0.4715085484	 1.8972582747	 0.241839
H	 0.7854796918	 0.5584452829	 2.734184579	 0.246264
116.0787	140.9861	158.2597	158.8287	173.0195	261.0486	275.1673	398.3088	403.8456	415.6556	468.0666	584.1977	597.7102	663.0497	720.1408	769.0783	838.4635	874.0855	909.5951	954.8464	987.7707	1055.8028	1075.4757	1091.9693	1203.1992	1251.1446	1298.9777	1331.1705	1372.0221	1417.5411	1470.2339	1482.301	1497.769	1652.2645	1656.42	2342.4489	3039.5186	3101.8992	3122.7325	3127.868	3220.1828	3494.1329	3523.7289	3575.39	3622.9171
CC1(N)CC1(N)C#N	C[C@@]1(N)C[C@]1(N)C#N	
InChI=1S/C5H9N3/c1-4(7)2-5(4,8)3-6/h2,7-8H2,1H3	InChI=1S/C5H9N3/c1-4(7)2-5(4,8)3-6/h2,7-8H2,1H3/t4-,5+/m1/s1
