23
gdb 121250	2.96024	0.77806	0.66041	1.2865	82.3	-0.2607	0.0767	0.3374	1731.2389	0.204895	-425.402067	-425.391569	-425.390625	-425.438217	37.932	
O	 0.3243266079	 1.3364774944	-0.341945518	-0.42247
C	 0.1685739744	-0.00485534	 0.0985466294	-0.075769
C	-1.1924585092	-0.5011941983	-0.375060595	-0.200695
C	-1.471139313	-1.937692046	 0.0535928132	 0.020294
C	-1.7098304896	-2.2651632371	 1.5570868033	-0.229553
C	-2.7890908696	-3.2942110149	 1.1262304479	-0.21871
C	-2.8411583911	-2.61927638	-0.2741490315	-0.005668
C	-4.021092544	-1.6749085489	-0.4405560786	-0.086062
O	-5.19380691	-2.4752927467	-0.5219703123	-0.425001
H	 1.1753294979	 1.6580177063	-0.0305953279	 0.284248
H	 0.9617923176	-0.6531433658	-0.3097082336	 0.082418
H	 0.2281931126	-0.0719008	 1.1968695929	 0.088465
H	-1.9574652429	 0.1786213031	 0.0186552435	 0.101431
H	-1.2275099368	-0.4153976138	-1.4684418345	 0.103382
H	-0.6705533098	-2.5831014942	-0.3288669221	 0.069561
H	-0.8596127333	-2.6342119248	 2.1363666173	 0.091635
H	-2.1416552371	-1.4128562709	 2.0922524767	 0.097109
H	-2.3914702542	-4.3112555984	 1.0772547267	 0.096933
H	-3.7266404479	-3.3159762071	 1.6857041974	 0.105301
H	-2.8337245459	-3.3004769493	-1.1302931361	 0.07023
H	-4.0807032016	-0.9789411341	 0.4120900177	 0.081845
H	-3.8926544862	-1.0663788907	-1.3496903002	 0.08662
H	-5.9513724583	-1.889253313	-0.6066994962	 0.284457
77.1548	84.7757	97.9832	122.291	143.6065	215.1857	257.4962	261.5399	294.1699	336.129	370.696	467.7747	526.7358	695.0832	768.4684	804.2188	844.9124	891.6212	915.9473	945.896	956.7645	994.712	1021.1378	1063.2226	1067.593	1087.0976	1120.0606	1148.7747	1164.8185	1198.2731	1219.0799	1231.0962	1248.5338	1255.6877	1264.5137	1266.5254	1289.7509	1303.1481	1316.3694	1330.564	1367.2437	1392.8674	1459.0109	1461.7579	1485.1077	1491.6668	1501.5308	1522.3825	1527.0772	2958.1899	2962.7536	2985.4485	2991.4953	3020.25	3027.4398	3045.7358	3057.8303	3067.8827	3071.6961	3095.081	3119.0559	3828.805	3829.0079
OCCC1CCC1CO	OCC[C@H]1CC[C@H]1CO	
InChI=1S/C7H14O2/c8-4-3-6-1-2-7(6)5-9/h6-9H,1-5H2	InChI=1S/C7H14O2/c8-4-3-6-1-2-7(6)5-9/h6-9H,1-5H2/t6-,7+/m1/s1
