20
gdb 62598	3.37281	1.69619	1.49603	2.0143	79.72	-0.2266	0.0694	0.2959	961.5516	0.17183	-365.933061	-365.925731	-365.924787	-365.964154	30.583	
C	-0.0390211933	 1.5794281405	 0.0242398663	-0.456285
C	-0.00839109	 0.0559167982	 0.0075664864	 0.308817
C	-1.4027597504	-0.5287102034	-0.2338554869	-0.444497
C	 1.0685923515	-0.6482492005	-0.8791157433	-0.100197
C	 2.4503879108	-0.2243666543	-0.3418881164	-0.058181
C	 2.2043899809	-0.2453046185	 1.1295468126	-0.058188
C	 0.7250069078	-0.6776158576	 1.1763118241	-0.100176
C	 1.2237332755	-1.7803259614	 0.1872817712	 0.007049
N	 2.7072627796	-1.4805967229	 0.4396134291	-0.185856
H	 0.9567956313	 1.9980934301	 0.1965818038	 0.117903
H	-0.4111715677	 1.9753286463	-0.9278918271	 0.112239
H	-0.7022134028	 1.9503908049	 0.8143995707	 0.11224
H	-1.8079418576	-0.1880122716	-1.1933306461	 0.113523
H	-1.392935923	-1.6235575074	-0.2478229995	 0.116985
H	-2.0995005706	-0.2128814134	 0.5507757694	 0.113524
H	 0.9356236668	-0.8117846991	-1.9475695611	 0.066185
H	 3.2502171357	 0.3178924706	-0.8308911053	 0.093984
H	 2.7991912522	 0.2795269185	 1.8668792681	 0.093982
H	 0.2526132777	-0.8701611905	 2.1384916626	 0.066189
H	 0.8773285157	-2.8079160887	 0.1146937311	 0.080762
212.1814	215.2031	228.1496	246.9846	332.1748	338.7259	523.9509	577.6384	591.6748	774.1738	791.889	799.8386	809.7535	845.9287	850.553	883.6978	904.3483	921.1693	923.2421	952.4529	967.562	998.3889	1018.5537	1036.9319	1048.2413	1088.3553	1130.9291	1170.4531	1176.5654	1196.8614	1205.1767	1207.8265	1232.106	1263.8699	1297.3159	1300.9179	1355.7287	1400.1336	1418.9263	1483.8007	1487.2566	1504.4394	1507.1956	3022.97	3027.5315	3083.7857	3089.0941	3096.8609	3106.6594	3124.4958	3125.089	3149.2279	3182.9793	3194.5909
CC1(C)C2C3C4C1C2N34	CC1(C)[C@H]2[C@H]3[C@H]4[C@@H]1[C@@H]2N34	
InChI=1S/C8H11N/c1-8(2)3-5-4(8)7-6(3)9(5)7/h3-7H,1-2H3	InChI=1S/C8H11N/c1-8(2)3-5-4(8)7-6(3)9(5)7/h3-7H,1-2H3/t3-,4+,5-,6+,7-,9?
