19
gdb 36927	4.82489	0.92658	0.87035	0.9772	78.2	-0.2495	0.0094	0.2588	1385.0414	0.159109	-423.005453	-422.997158	-422.996214	-423.039337	31.019	
C	-0.1962375225	 1.115001423	-0.2054700805	-0.286405
C	 1.2272392738	 0.9984107645	 0.3056189043	-0.28795
C	 0.4149244728	-0.2334281632	 0.0823890485	 0.141339
O	 0.0174230077	-0.9263012425	 1.2322538025	-0.261571
C	-1.159752739	-1.6860502783	 1.0553298942	 0.184287
O	-0.9579449385	-2.7990509042	 0.1992290412	-0.267133
C	-0.9244481511	-4.0020788105	 0.962877723	-0.120475
C	-1.3814472678	-3.5995831461	 2.3360184795	-0.087398
C	-1.5433689562	-2.2834260863	 2.38253323	-0.106095
H	-0.9390012496	 1.4793094417	 0.4954702035	 0.115428
H	-0.3628093851	 1.402956209	-1.2375930689	 0.113256
H	 2.0484099266	 1.2071402099	-0.3706172899	 0.113345
H	 1.4041940475	 1.2774844905	 1.3380357033	 0.12332
H	 0.6594766004	-0.8770508399	-0.7588245986	 0.101382
H	-1.9244636127	-1.0481881678	 0.5878690517	 0.075176
H	-1.5893809427	-4.7359073785	 0.487538851	 0.113536
H	 0.0880359657	-4.4346814584	 0.9768837709	 0.113245
H	-1.5272443369	-4.3064631983	 3.1428180965	 0.110903
H	-1.8402048926	-1.6788173546	 3.2282269379	 0.11181
59.4994	72.8239	119.1953	170.4371	294.4119	335.4175	443.3069	469.8006	582.5291	714.181	758.4179	784.5219	814.8905	821.1852	847.7048	928.9935	940.3935	957.5393	961.2076	983.4515	1032.002	1038.2806	1042.8679	1062.9425	1071.595	1104.1596	1127.6428	1139.22	1192.2264	1194.1529	1201.4867	1236.3848	1310.9144	1365.9643	1368.4835	1390.1512	1415.0205	1453.1784	1496.6331	1510.6573	1691.5175	2986.8091	2996.3354	3026.7395	3134.6131	3137.5678	3143.6899	3214.1716	3218.9549	3233.8468	3242.7588
C1CC1OC1OCC=C1	C1CC1O[C@H]1OCC=C1	
InChI=1S/C7H10O2/c1-2-7(8-5-1)9-6-3-4-6/h1-2,6-7H,3-5H2	InChI=1S/C7H10O2/c1-2-7(8-5-1)9-6-3-4-6/h1-2,6-7H,3-5H2/t7-/m1/s1
