19
gdb 81786	2.13028	1.85353	1.21403	2.6795	75.23	-0.2443	0.0635	0.3078	1075.0739	0.157698	-422.974365	-422.965612	-422.964668	-423.007359	33.545	
C	-0.0048144644	 1.538445435	 0.0073995035	-0.496171
C	 0.0410235738	 0.0389139751	 0.0043626194	 0.266738
C	-0.8513948681	-0.8573902189	 0.8197624797	-0.349472
C	 0.6409207793	-0.958115894	 1.0163451717	-0.154164
C	 1.2880963739	-1.7604195689	-0.1201818981	 0.052302
O	 1.1027663916	-3.1515872463	-0.2062229456	-0.431745
C	 0.6028701442	-0.8067600235	-1.1260535797	 0.364544
C	 0.122438852	-1.0414615998	-2.4873537217	-0.280913
O	 1.3031872232	-0.2588811761	-2.2250900593	-0.285061
H	 0.942971005	 1.9594771428	-0.3413938112	 0.135824
H	-0.7955542999	 1.9122622793	-0.653559788	 0.12378
H	-0.2046897561	 1.9234845469	 1.0123042301	 0.118785
H	-1.3881023918	-0.3725483391	 1.6295638547	 0.118433
H	-1.4197708309	-1.6563061726	 0.3451576961	 0.097295
H	 1.100861302	-0.7540744553	 1.975777319	 0.09246
H	 2.3687921251	-1.5957560582	-0.1613819184	 0.109926
H	 0.1743525992	-3.3395264675	-0.0319614805	 0.281233
H	 0.3049787302	-2.0054446827	-2.9597367622	 0.122876
H	-0.7303267682	-0.4818890362	-2.8696753697	 0.113327
103.3127	173.9259	184.8502	210.1902	232.859	256.8848	300.2187	368.2246	447.8648	492.0721	574.9745	596.2098	662.568	747.3154	821.6499	869.4903	902.8787	918.5068	968.1364	977.397	993.4062	1025.9388	1069.6433	1080.7291	1095.0025	1116.1718	1123.7317	1153.879	1162.3487	1226.408	1274.4938	1276.2185	1287.5114	1385.3745	1422.5389	1423.9049	1445.9167	1481.9637	1499.1189	1500.1891	1533.3407	3029.54	3080.1041	3082.229	3089.9608	3091.2502	3109.6278	3172.1327	3181.0677	3190.8601	3807.3911
CC12CC1C(O)C21CO1	C[C@]12C[C@H]1[C@@H](O)[C@]12CO1	
InChI=1S/C7H10O2/c1-6-2-4(6)5(8)7(6)3-9-7/h4-5,8H,2-3H2,1H3	InChI=1S/C7H10O2/c1-6-2-4(6)5(8)7(6)3-9-7/h4-5,8H,2-3H2,1H3/t4-,5+,6-,7-/m0/s1
