20
gdb 82454	2.38533	1.72859	1.35588	2.2848	78.69	-0.2129	0.0636	0.2765	1052.3616	0.169882	-403.074344	-403.06562	-403.064675	-403.106964	34.202	
C	-0.100940888	 1.560961959	-0.0610274592	-0.435605
C	 0.0960120237	 0.0612767816	 0.0792205953	 0.010553
N	 1.0952547893	-0.6486877523	-0.8370410789	-0.186176
C	 2.4214614151	 0.0092470999	-0.4959165854	-0.234296
C	 2.3443318363	-0.6106020931	 0.8857818776	 0.247294
C	 3.4009775551	-0.7721110602	 1.9360393971	-0.518062
C	 1.3695036739	-1.6238795153	 0.3294533056	-0.127822
C	 0.8260741401	-0.5816701847	 1.2491489394	 0.302024
O	 0.3863994786	-0.7923689473	 2.5410172613	-0.461185
H	 0.7786226513	 2.1373934139	 0.2372647559	 0.114507
H	-0.3445896477	 1.8166079102	-1.0979693543	 0.130609
H	-0.9375982724	 1.8850355401	 0.5670855132	 0.120099
H	-0.8607523418	-0.44982386	-0.0766126503	 0.08463
H	 3.2023830569	-0.4424507527	-1.1162574734	 0.104161
H	 2.4552204437	 1.0971032633	-0.6172356955	 0.091425
H	 3.7406695357	 0.2015742599	 2.3106564271	 0.115037
H	 3.0165105212	-1.3418845891	 2.7878434432	 0.130142
H	 4.2788458614	-1.2984737278	 1.5454587128	 0.123813
H	 1.3168955806	-2.7024093935	 0.2824800735	 0.100645
H	 0.6097411369	-0.0195749118	 3.0722281948	 0.288204
145.6212	174.4386	184.272	220.3157	229.8332	292.4103	319.4161	365.4956	424.3622	497.7301	577.6386	599.9882	631.2857	690.1234	782.5418	799.3986	849.9671	891.3588	910.638	948.5834	951.8178	1011.3834	1062.5158	1095.863	1116.2077	1128.5469	1144.1297	1166.752	1175.1303	1215.8654	1249.751	1268.653	1298.6585	1373.2756	1395.3418	1404.6621	1421.3006	1439.1857	1489.1689	1492.0475	1495.4432	1500.7146	1525.0908	3020.0014	3032.8348	3037.429	3042.7651	3077.4361	3081.7561	3099.7743	3102.1775	3115.61	3216.0232	3786.6644
CC1N2CC3(C)C2C13O	C[C@H]1N2C[C@]3(C)[C@H]2[C@]13O	
InChI=1S/C7H11NO/c1-4-7(9)5-6(7,2)3-8(4)5/h4-5,9H,3H2,1-2H3	InChI=1S/C7H11NO/c1-4-7(9)5-6(7,2)3-8(4)5/h4-5,9H,3H2,1-2H3/t4-,5+,6-,7-/m1/s1
