23
gdb 96323	2.3019	1.4034	0.97232	0.8013	82.47	-0.2369	0.0834	0.3202	1303.241	0.205881	-425.431829	-425.422488	-425.421544	-425.465505	36.188	
C	 0.609551742	 1.4734415897	 0.2726890341	-0.395614
C	-0.1569554231	 0.211854578	-0.1317947222	 0.124186
C	 0.4242222684	-0.4260196123	-1.4074737374	-0.224964
C	 0.0152014345	-1.8880850222	-1.6622126455	 0.129342
C	 0.1512925442	-2.2698539315	-3.1326739693	-0.399208
O	 0.8622418685	-2.7850266223	-0.9451857566	-0.257625
C	 0.6171914596	-2.885568344	 0.4406936233	-0.067732
C	 0.7891438417	-1.5795887223	 1.2153003551	-0.095107
O	-0.28227466	-0.6852158215	 0.9731538045	-0.264312
H	 1.651865498	 1.2405977197	 0.5167516022	 0.11603
H	 0.6145565349	 2.2034268267	-0.543781234	 0.112471
H	 0.1460295771	 1.9345506855	 1.1488258906	 0.121345
H	-1.1978820539	 0.4910495748	-0.3387205597	 0.083236
H	 0.1110708056	 0.1972270981	-2.2535930476	 0.097774
H	 1.5206328928	-0.395984803	-1.3922546851	 0.103375
H	-1.028023431	-2.0395087323	-1.3400352427	 0.072287
H	 1.1783455958	-2.1072062768	-3.4754402316	 0.121662
H	-0.0907681152	-3.3264890512	-3.2722462888	 0.121255
H	-0.5205554793	-1.6702556716	-3.7539833516	 0.110441
H	-0.4027407455	-3.2590995473	 0.6303313533	 0.091878
H	 1.32990717	-3.6295960536	 0.8152978645	 0.09897
H	 0.7674583263	-1.8037024484	 2.2889853048	 0.103137
H	 1.7663630286	-1.1302259523	 0.9903878099	 0.097173
89.8693	137.8036	205.8157	225.2276	236.9995	255.3172	320.2198	336.1025	365.6957	392.3339	474.5895	503.9977	557.7799	572.8842	772.3439	828.2845	858.8022	894.9002	929.91	937.3011	970.5139	1007.918	1040.3066	1086.933	1112.5869	1125.7607	1143.3962	1155.3111	1165.7174	1191.6552	1260.5965	1284.8805	1298.0522	1323.4443	1362.4171	1376.0458	1387.3307	1394.8047	1403.8993	1409.7887	1411.8108	1416.9243	1468.796	1481.2947	1484.1093	1485.6453	1495.2155	1497.1206	1501.7468	2970.4502	2974.985	3006.8596	3022.0378	3028.2129	3035.48	3041.1806	3059.2613	3064.8665	3071.3945	3101.8447	3112.4787	3119.0288	3123.1103
CC1CC(C)OCCO1	C[C@H]1C[C@@H](C)OCCO1	
InChI=1S/C7H14O2/c1-6-5-7(2)9-4-3-8-6/h6-7H,3-5H2,1-2H3	InChI=1S/C7H14O2/c1-6-5-7(2)9-4-3-8-6/h6-7H,3-5H2,1-2H3/t6-,7+
