17
gdb 26309	3.90661	1.12449	0.89824	5.0514	72.85	-0.1852	0.046	0.2312	1267.7267	0.135603	-455.187134	-455.178108	-455.177164	-455.221022	32.545	
C	-0.1340474609	 1.4126580669	-0.143278453	-0.347128
N	-0.3144393171	-0.0301204016	-0.0026026141	-0.160429
C	 0.2546997155	-0.6092495712	 1.1995246653	-0.332107
C	-0.1542413851	-0.7922258721	-1.1372263917	 0.440702
C	 0.3932073882	-1.9999691167	-1.3739861956	-0.245137
N	 0.1240879092	-2.2781163048	-2.7305863788	-0.369688
C	-0.5407273743	-1.2387032488	-3.3141300509	 0.476546
O	-0.9220838684	-1.0785786202	-4.4414960631	-0.403779
O	-0.7218864349	-0.3040560956	-2.2932163151	-0.250504
H	 0.9280702546	 1.7009986169	-0.2046116465	 0.112095
H	-0.6416906337	 1.7568741702	-1.0440599733	 0.162291
H	-0.5797174643	 1.9101958495	 0.722289637	 0.126701
H	-0.056964714	-0.0165275445	 2.0629702466	 0.131518
H	-0.1196535785	-1.6293696103	 1.326248359	 0.134993
H	 1.357539751	-0.6416829043	 1.1808994767	 0.110982
H	 0.929847736	-2.6773848033	-0.7371302191	 0.139179
H	 0.3917875071	-3.0972930701	-3.2448893434	 0.273766
69.5641	130.4469	165.0516	182.7518	210.1823	240.4531	304.8142	352.9203	418.9891	431.6502	583.8255	597.3732	613.3877	670.2143	756.4083	761.5325	910.5982	945.6886	1008.4119	1075.7111	1081.4064	1124.7118	1148.321	1180.3428	1217.4606	1248.0257	1366.4885	1373.8599	1416.9053	1443.2211	1471.2482	1483.4577	1495.4688	1503.4014	1520.2118	1720.879	1903.7893	2961.4674	2974.7118	3073.6861	3088.4399	3121.4661	3155.4826	3311.2428	3707.1692
CN(C)C1=CNC(=O)O1	CN(C)c1c[nH]c(=O)o1	
InChI=1S/C5H8N2O2/c1-7(2)4-3-6-5(8)9-4/h3H,1-2H3,(H,6,8)	InChI=1S/C5H8N2O2/c1-7(2)4-3-6-5(8)9-4/h3H,1-2H3,(H,6,8)
