14
gdb 28845	3.09686	1.55421	1.22114	5.5166	74.08	-0.2446	-0.0753	0.1693	994.3283	0.10331	-429.064216	-429.056766	-429.055822	-429.096104	28.205	
N	 0.1152633768	 1.1117291119	 0.5236082608	-0.540244
C	-0.0060013797	-0.1389892543	 0.0169644518	 0.38225
N	-1.1663357413	-0.7217213434	 0.0386229486	-0.319022
C	-1.368314957	-1.9795629692	-0.4808074695	 0.059627
N	-0.5835752568	-2.9966756357	-0.5376163027	-0.254975
C	 0.7226170305	-2.8638232055	-0.0388711099	 0.334334
N	 1.2552881179	-3.5782520913	 0.8607429594	-0.484939
N	 1.5223384192	-1.9107981517	-0.7218798755	-0.162415
C	 1.2001057027	-0.6833224287	-0.6636111114	-0.049911
H	 1.0228294169	 1.5122776492	 0.6874720286	 0.276356
H	-0.6714974562	 1.4923808306	 1.025896619	 0.276021
H	-2.3875961391	-2.1304489406	-0.8380823537	 0.125376
H	 0.5594107224	-4.2350434452	 1.2188541276	 0.226448
H	 1.8333418836	 0.042117934	-1.1821294431	 0.131094
86.9848	177.3912	282.7165	296.5769	336.4541	370.9211	413.9376	478.6768	542.026	576.0753	651.0053	714.4217	768.4381	825.9553	857.1825	908.0737	920.2779	950.4525	990.4004	1009.2957	1043.9602	1260.7526	1309.6161	1363.4361	1423.4383	1443.0514	1595.7443	1626.4825	1662.4776	1707.8788	1737.9731	3088.4044	3129.3418	3472.7231	3596.3431	3729.0005
NC1=NC=NC(=N)N=C1	NC1=NC=N[C]([NH])N=C1	
InChI=1S/C4H5N5/c5-3-1-7-4(6)9-2-8-3/h1-2H,(H3,5,6,8,9)	InChI=1S/C4H5N5/c5-3-1-7-4(6)9-2-8-3/h1-2H,(H3,5,6,8,9)
