17
gdb 62280	3.27217	1.5704	1.35839	4.6753	75.39	-0.2609	0.0237	0.2846	976.0469	0.136532	-380.815391	-380.807892	-380.806948	-380.84707	29.442	
C	-0.0439578966	 1.5546688339	-0.0034201815	-0.462592
C	 0.0532481648	 0.0338049085	-0.0728417526	 0.16538
C	-1.2681121314	-0.5581173297	 0.1764582163	 0.283416
N	-2.322869472	-1.0021552708	 0.3362686514	-0.343379
C	 0.7482335491	-0.7037806307	-1.2585579637	-0.102005
C	 2.1600938213	-0.06779994	-1.2991171425	-0.270976
C	 2.3411078225	-0.6659020473	 0.0942419186	-0.044364
C	 1.2921896686	-1.682133899	-0.1462870896	-0.04059
N	 1.0410573345	-0.6189746811	 0.867527979	-0.157465
H	 0.9381358309	 2.0163141412	-0.111902852	 0.132324
H	-0.7043593282	 1.9359064872	-0.7879781875	 0.138286
H	-0.4537897257	 1.8532639889	 0.9652509385	 0.150477
H	 0.2048973652	-0.9510284515	-2.1672778702	 0.097225
H	 2.7948641788	-0.5939654008	-2.0166194457	 0.119649
H	 2.2519458028	 1.010155998	-1.4551063089	 0.106091
H	 3.2328767897	-0.730314426	 0.7026653412	 0.111621
H	 1.2094670057	-2.7424630806	 0.0453527693	 0.116902
148.7186	157.881	174.9036	254.408	312.3367	451.1726	493.9862	513.6919	544.2676	644.8602	748.4256	783.6551	791.5289	840.5752	869.297	914.0722	926.7815	939.815	975.2016	990.3586	1013.9184	1066.8844	1110.7113	1123.8833	1143.6812	1160.9049	1190.7621	1207.8513	1229.7213	1255.258	1287.8085	1330.5857	1406.873	1480.5	1486.1488	1515.0042	2357.5255	3052.9359	3061.8867	3112.5284	3123.5908	3147.6349	3150.8712	3210.8158	3226.3793
CC1(C#N)C2CC3C2N13	C[C@@]1(C#N)[C@H]2C[C@@H]3[C@H]2N13	
InChI=1S/C7H8N2/c1-7(3-8)4-2-5-6(4)9(5)7/h4-6H,2H2,1H3	InChI=1S/C7H8N2/c1-7(3-8)4-2-5-6(4)9(5)7/h4-6H,2H2,1H3/t4-,5+,6-,7+,9?/m0/s1
