18
gdb 52659	3.45622	0.82429	0.69276	3.117	82.35	-0.2467	0.0159	0.2626	1609.0683	0.146202	-398.100178	-398.089261	-398.088317	-398.137552	37.46	
C	-0.0913551039	 1.4886709424	-0.0471091299	-0.500215
C	-0.046543628	 0.0341401033	-0.0282202487	 0.091346
C	 0.0006758783	-1.1677086668	 0.0021781822	 0.104655
C	 0.0251198598	-2.6279986938	-0.0000745357	-0.155991
N	-1.335953328	-3.1565149042	 0.0590418295	-0.509103
C	 0.8720734856	-3.1328670581	-1.2243904179	-0.135732
N	 2.256001987	-2.6855898898	-1.1193249386	-0.485799
C	 0.7393821612	-4.6023783706	-1.3357406533	 0.246796
N	 0.675412083	-5.7560692191	-1.3974667871	-0.328793
H	 0.8178092188	 1.9058193602	-0.4935989423	 0.15257
H	-0.9452452945	 1.8529246662	-0.6286335435	 0.149497
H	-0.1824371153	 1.8953075674	 0.9659217372	 0.152758
H	 0.5469782341	-2.9816929988	 0.901084445	 0.116444
H	-1.8794467207	-2.8157565301	-0.7280773321	 0.23313
H	-1.3240512721	-4.1715643093	 0.0132263839	 0.246439
H	 0.4358079972	-2.6891569373	-2.1262228483	 0.132594
H	 2.7149068973	-3.1474529734	-0.3390620037	 0.242738
H	 2.7756812803	-2.936774068	-1.9542546366	 0.246664
30.6652	48.665	78.3581	147.3051	157.3972	224.9576	247.2893	255.1368	282.8415	327.3881	340.3902	413.8118	468.746	538.6051	550.7305	608.0503	774.7387	831.95	840.9578	925.7697	985.2934	1052.3281	1053.2901	1068.4217	1119.2474	1145.1088	1192.7613	1224.9724	1282.9538	1346.5668	1384.0894	1410.4745	1414.2019	1477.4047	1477.9317	1650.6085	1662.2403	2336.267	2378.889	3000.5968	3029.5425	3058.8327	3091.2176	3092.2262	3490.3074	3497.1268	3578.3738	3580.2652
CC#CC(N)C(N)C#N	CC#C[C@@H](N)[C@@H](N)C#N	
InChI=1S/C6H9N3/c1-2-3-5(8)6(9)4-7/h5-6H,8-9H2,1H3	InChI=1S/C6H9N3/c1-2-3-5(8)6(9)4-7/h5-6H,8-9H2,1H3/t5-,6+/m1/s1
