18
gdb 17631	3.74138	1.37728	1.13328	1.7266	63.94	-0.2516	0.0689	0.3205	1077.0398	0.151808	-422.049648	-422.040825	-422.039881	-422.082943	32.496	
C	 0.0511831891	 1.5120380773	-0.0667671283	-0.412744
C	-0.0193919725	-0.0071724125	 0.0280242491	 0.1125
O	 0.697430633	-0.5085469629	 1.155466175	-0.43128
C	-1.4771918601	-0.5213653105	 0.0608915268	 0.072793
O	-2.2282531151	-0.036591711	-1.0348584257	-0.437374
C	-1.5095908217	-2.042552771	 0.0913594273	 0.059616
C	-2.7071852728	-2.7859758656	-0.3052466432	-0.189726
O	-1.600707536	-2.64350641	-1.2128123708	-0.254127
H	 1.0912691345	 1.843923388	-0.1238974707	 0.121362
H	-0.4914654289	 1.8657097157	-0.9458029441	 0.140369
H	-0.4102755091	 1.9743910379	 0.8163656705	 0.102697
H	 0.4764573827	-0.4536526779	-0.8434412035	 0.096249
H	 0.4331170495	 0.0106832614	 1.9232197042	 0.279494
H	-1.9521197279	-0.1348160977	 0.9754003325	 0.079116
H	-2.0770061466	-0.6753481621	-1.7479352134	 0.293019
H	-0.7850353215	-2.5076378629	 0.7549270697	 0.11808
H	-2.8654405736	-3.7953065937	 0.0690664322	 0.122024
H	-3.6022055732	-2.2364697123	-0.5875872576	 0.127933
82.5689	96.1583	176.692	229.6257	275.5691	292.4048	303.3682	328.8578	426.2092	478.0106	479.9524	521.9165	673.5634	782.7836	864.2542	879.1078	927.1792	976.754	1008.0386	1058.9017	1099.4992	1111.405	1122.2995	1160.6404	1166.7579	1180.0204	1244.5195	1263.1908	1291.4576	1320.4875	1384.0922	1395.9983	1411.1115	1415.8694	1446.2787	1489.553	1496.3779	1515.8243	2997.7828	3020.0751	3039.0207	3098.4386	3100.5721	3139.6907	3157.0724	3191.8494	3716.4526	3797.9213
CC(O)C(O)C1CO1	C[C@@H](O)[C@@H](O)[C@H]1CO1	
InChI=1S/C5H10O3/c1-3(6)5(7)4-2-8-4/h3-7H,2H2,1H3	InChI=1S/C5H10O3/c1-3(6)5(7)4-2-8-4/h3-7H,2H2,1H3/t3-,4-,5-/m1/s1
