15
gdb 43899	3.12018	1.41416	1.16178	3.522	70.39	-0.2662	-0.027	0.2392	1039.4464	0.113174	-416.807398	-416.799879	-416.798934	-416.839604	28.177	
O	-0.0386329252	 0.0362276893	 0.4634552359	-0.300096
C	-0.080883777	 1.1797619089	 0.1268656068	 0.396341
C	-1.1924438172	 2.2278275987	-0.0989371517	-0.432557
C	-0.0286587664	 3.256057584	-0.0597935408	 0.18639
C	 0.532188889	 3.7179229705	 1.3274168228	-0.299437
C	 1.6345067705	 2.6289752135	 1.1775497012	-0.182993
N	 0.9732108985	 2.1209248845	-0.073328214	-0.156788
C	 0.0315172799	 4.2307755385	-1.1349776105	 0.242578
N	 0.0597481363	 5.0286324967	-1.9709197695	-0.326616
H	-1.7075279554	 2.1651868832	-1.0597238101	 0.162637
H	-1.9261920611	 2.2871429311	 0.7065585048	 0.152712
H	 0.8806185104	 4.7500447552	 1.3593142408	 0.142799
H	-0.1667689582	 3.5484455919	 2.1490587168	 0.131637
H	 2.6306502274	 3.0211129761	 0.9657532908	 0.139413
H	 1.6994010386	 1.8707519679	 1.9602600168	 0.143981
94.3241	146.0458	186.7793	228.2842	323.2671	441.8132	486.7907	533.5579	538.9425	610.581	689.6537	753.5098	813.2074	849.9849	874.3693	935.2989	960.2796	1001.0479	1026.8386	1061.6643	1128.1523	1159.3183	1187.6556	1207.6265	1222.2278	1261.2209	1277.3625	1308.2666	1440.2047	1480.8139	1509.1545	1905.4852	2355.4595	3078.8691	3083.2874	3085.2113	3132.0741	3146.7673	3152.1066
O=C1CC2(CCN12)C#N	O=C1C[C@]2(CCN12)C#N	
InChI=1S/C6H6N2O/c7-4-6-1-2-8(6)5(9)3-6/h1-3H2	InChI=1S/C6H6N2O/c7-4-6-1-2-8(6)5(9)3-6/h1-3H2/t6-/m1/s1
