19
gdb 79813	2.154	1.94613	1.66665	2.8823	73.84	-0.2213	0.0675	0.2888	950.6329	0.159817	-422.995234	-422.987442	-422.986497	-423.026935	31.309	
C	-0.0650111707	 1.5065900946	 0.0201026692	-0.504332
C	-0.0260116213	-0.0070080361	 0.0549614496	 0.210185
C	-1.3926815319	-0.7036721134	 0.0580805189	-0.091452
O	-1.1413042578	-2.0551625541	 0.4521788875	-0.267932
C	 0.1615804184	-2.0952656939	 0.9765127826	 0.12564
C	 1.3424130077	-1.7015960666	 0.1123510394	-0.145082
C	 0.750478766	-0.7508276444	 1.17971571	-0.17418
C	 0.9100137247	-0.7453552136	-0.9783718345	 0.109104
O	 0.3543134698	-1.3362178752	-2.1318783951	-0.429514
H	 0.9443123893	 1.9304744279	 0.0374779053	 0.119432
H	-0.562570683	 1.8679135178	-0.8878995924	 0.114891
H	-0.6124140241	 1.9120586407	 0.8783174311	 0.122221
H	-2.0857768691	-0.2246213277	 0.7668022527	 0.083119
H	-1.8455113037	-0.7126777654	-0.9384863164	 0.104184
H	 0.3092557386	-2.8980329135	 1.6890033651	 0.103658
H	 2.2752352247	-2.2541988627	 0.1349499931	 0.083115
H	 1.1852852546	-0.3343948855	 2.0782398281	 0.089013
H	 1.7439691458	-0.0799132774	-1.2425416851	 0.066253
H	 0.3150175517	-0.6726482015	-2.8273738193	 0.281678
159.6699	203.0167	236.0684	263.9304	277.1403	295.9709	369.5435	504.8831	559.0714	593.8486	668.3108	724.5806	768.2806	814.0354	839.1375	865.0331	939.9355	949.5174	975.0952	1006.5221	1010.7784	1023.4041	1046.1777	1062.3413	1112.0064	1143.244	1169.1469	1187.9679	1211.6768	1227.0946	1251.7671	1253.7245	1301.1931	1336.6291	1386.8971	1413.4675	1414.4119	1439.2024	1493.9905	1496.9861	1503.339	2982.8919	2998.4663	3023.8155	3075.5049	3085.7207	3096.7125	3169.2643	3190.6966	3206.5627	3822.7755
CC12COC3C(C13)C2O	C[C@]12CO[C@H]3[C@H]([C@@H]13)[C@H]2O	
InChI=1S/C7H10O2/c1-7-2-9-5-3(4(5)7)6(7)8/h3-6,8H,2H2,1H3	InChI=1S/C7H10O2/c1-7-2-9-5-3(4(5)7)6(7)8/h3-6,8H,2H2,1H3/t3-,4+,5-,6+,7-/m0/s1
