22
gdb 13932	3.17628	1.72379	1.42704	0.1045	81.79	-0.2644	0.0865	0.3509	1006.6512	0.201057	-313.056163	-313.048012	-313.047067	-313.088395	31.968	
C	-0.5326248428	 1.2967653522	-0.295424695	-0.41739
C	 0.1948949951	-0.0369932398	-0.2363304134	-0.021903
C	 1.6990783409	-0.1028653333	-0.6205812414	-0.23008
C	 1.9013282171	-1.1450691966	 0.509949838	-0.279634
C	 0.5606322803	-0.6698667448	 1.1363027371	 0.383385
C	 0.6887475423	 0.1897442838	 2.4282482485	-0.273708
C	 0.2249256733	-1.0453908853	 3.2464519668	-0.208074
C	-0.3260151583	-1.6576206891	 1.9305411829	-0.29417
H	 0.0088771188	 2.0716787186	 0.2583097465	 0.113331
H	-0.6349315214	 1.6414063003	-1.3306074426	 0.111694
H	-1.5410561409	 1.2262887262	 0.1289543393	 0.11081
H	-0.3598303104	-0.7832686379	-0.820417828	 0.065988
H	 1.9546616268	-0.3983895551	-1.6412742299	 0.090806
H	 2.2067714363	 0.8409593247	-0.3959560303	 0.096623
H	 1.8276380109	-2.1712367002	 0.1347331815	 0.094311
H	 2.8028837964	-1.0635793104	 1.1240667596	 0.091696
H	 1.6698690976	 0.6166213834	 2.6559622013	 0.090796
H	-0.053989565	 0.9929591821	 2.4611761043	 0.096903
H	 1.070734641	-1.6171858235	 3.6380393161	 0.101782
H	-0.4821405523	-0.8731052107	 4.0613448269	 0.093037
H	-1.3916220774	-1.4404735229	 1.7961646208	 0.094494
H	-0.1659451483	-2.7254866618	 1.753137501	 0.0893
108.5889	117.273	201.7407	219.5939	255.6465	339.1912	376.4472	464.1734	510.1275	636.605	701.8098	767.5382	800.5047	867.2291	881.763	889.611	900.7105	936.4342	946.2906	956.1988	969.7014	1018.4347	1067.7926	1102.9244	1156.8793	1173.7814	1180.6344	1187.8033	1205.8741	1240.4461	1251.0024	1255.8783	1263.0807	1270.5532	1285.4215	1304.257	1304.4995	1372.7329	1407.5997	1472.1318	1479.0929	1484.0963	1494.6417	1496.7834	1498.913	1506.5364	3013.7026	3021.9231	3035.6477	3040.0869	3045.1063	3048.8093	3058.942	3083.7778	3085.8481	3087.2946	3090.3175	3093.5202	3105.6494	3114.1836
CC1CCC11CCC1	C[C@H]1CCC21CCC2	
InChI=1S/C8H14/c1-7-3-6-8(7)4-2-5-8/h7H,2-6H2,1H3	InChI=1S/C8H14/c1-7-3-6-8(7)4-2-5-8/h7H,2-6H2,1H3/t7-/m0/s1
