14
gdb 28183	5.33764	1.3137	1.05716	2.6757	70.21	-0.1845	0.0301	0.2146	1051.4327	0.104287	-432.896281	-432.889309	-432.888365	-432.927397	27.212	
N	 0.0656620022	 1.3451840941	 0.173551836	-0.595128
C	-0.0335748693	-0.0387493735	 0.0548924617	 0.356378
N	-1.138839785	-0.7405784165	 0.1201650946	-0.397973
C	-0.6975789156	-2.0610614692	 0.0897857275	 0.207728
C	 0.6610090877	-2.0974052789	 0.003378198	 0.394119
N	 1.1286035679	-0.8052768992	-0.0632539639	-0.444308
O	 1.1784950371	-3.3257687801	-0.1334800577	-0.215776
C	 0.0522007248	-4.1494125917	-0.1027519906	-0.030276
C	-1.1043697276	-3.4369468391	 0.0246391629	-0.308431
H	 0.5480074454	 1.7832783876	-0.603665956	 0.250056
H	-0.8632637155	 1.7389421338	 0.2627809551	 0.263673
H	 2.0582321583	-0.4710316007	 0.1260605644	 0.2727
H	 0.2714800947	-5.20172701	-0.1549873019	 0.132614
H	-2.0965054451	-3.8583737368	 0.0648777398	 0.114625
137.0782	238.6793	260.8061	314.7251	355.1872	396.451	532.4896	585.2214	590.0901	658.1064	685.9414	746.8867	766.292	799.7653	825.5295	837.7896	920.4563	989.3383	1007.7444	1120.9157	1146.3968	1177.3492	1238.0938	1295.1927	1436.5315	1440.9636	1516.2386	1543.2099	1590.7305	1610.8661	1653.2906	3258.0542	3296.9706	3516.8701	3617.1432	3669.1659
NC1=NC2=C(N1)OC=C2	Nc1nc2c([nH]1)occ2	
InChI=1S/C5H5N3O/c6-5-7-3-1-2-9-4(3)8-5/h1-2H,(H3,6,7,8)	InChI=1S/C5H5N3O/c6-5-7-3-1-2-9-4(3)8-5/h1-2H,(H3,6,7,8)
