17
gdb 110849	2.64865	1.48177	1.23632	2.6471	67.94	-0.2237	0.0437	0.2674	1053.8804	0.137589	-455.137222	-455.129136	-455.128192	-455.170267	30.943	
N	 0.2431939254	 1.2628351128	-0.267144525	-0.577382
C	 0.0639325358	-0.0825046338	-0.1056919665	 0.447689
N	-1.0352400694	-0.7011922425	 0.1073698059	-0.335105
C	-0.7101033778	-2.1049152363	 0.0598220416	-0.052377
C	-0.1374683779	-2.6766705181	-1.2378537018	-0.090266
C	-0.2323166459	-1.9824916627	-2.5820569791	-0.096314
O	 1.0093045465	-1.9573194532	-3.274061082	-0.426728
C	 0.7874932451	-2.1803990739	-0.158086557	 0.022577
O	 1.2084543132	-0.8205245393	-0.2628593786	-0.251227
H	 1.1518959333	 1.6105772589	 0.0002948273	 0.265039
H	-0.5332610358	 1.8167181446	 0.0606035244	 0.272346
H	-1.2677855233	-2.7522268916	 0.726071458	 0.099769
H	-0.1673185864	-3.7625675347	-1.2796191339	 0.098556
H	-0.9227491613	-2.5350700337	-3.2263244366	 0.111519
H	-0.6454496385	-0.9727361027	-2.4635377481	 0.113708
H	 1.6147223038	-1.4368052919	-2.7352221706	 0.287336
H	 1.5130489132	-2.801708752	 0.3503831519	 0.110862
48.4849	150.7132	156.9443	293.8101	328.6763	363.708	387.4758	438.4481	550.7677	588.7213	608.4093	720.3893	743.4715	757.3438	784.4562	809.3229	899.3214	925.9993	987.8599	1001.8734	1043.7738	1062.7342	1083.7767	1088.2608	1106.9725	1180.4681	1204.9733	1235.012	1286.6184	1335.9744	1380.37	1406.5148	1420.5219	1431.1815	1511.672	1613.9572	1736.5183	3025.388	3082.2227	3144.2683	3178.6238	3198.7032	3582.157	3695.4392	3812.4595
NC1=NC2C(CO)C2O1	NC1=N[C@H]2[C@@H](CO)[C@H]2O1	
InChI=1S/C5H8N2O2/c6-5-7-3-2(1-8)4(3)9-5/h2-4,8H,1H2,(H2,6,7)	InChI=1S/C5H8N2O2/c6-5-7-3-2(1-8)4(3)9-5/h2-4,8H,1H2,(H2,6,7)/t2-,3+,4-/m1/s1
