23
gdb 114759	3.7899	1.03109	0.87948	0.3211	91.78	-0.2272	0.0234	0.2505	1413.6752	0.207607	-351.162737	-351.153981	-351.153037	-351.196144	34.544	
C	-0.1349489298	 1.5359272915	-0.1377907442	-0.391379
C	 0.0631773441	 0.0200913152	-0.0412014749	-0.17878
C	 0.753488177	-0.4486108148	 1.2531746894	-0.010445
C	 0.6167782927	-1.9770651127	 1.4295222007	-0.236899
C	 1.4320958688	-2.5231528957	 2.6008110694	-0.039867
C	 2.7285134223	-3.2555187701	 2.3440284931	-0.289035
C	 2.7467621262	-1.8457139454	 2.9037097022	-0.053526
C	 3.1163682598	-0.6925526578	 2.0467328727	-0.097971
C	 2.2133861418	-0.0468432365	 1.3066017504	-0.043059
H	 0.8153196259	 2.0784888122	-0.1019052315	 0.118846
H	-0.6321596166	 1.8089006117	-1.0739022264	 0.111844
H	-0.75421786	 1.9043074593	 0.6877660833	 0.114122
H	-0.9158181857	-0.4712891763	-0.1108233513	 0.09
H	 0.6436801721	-0.3356510632	-0.9031495209	 0.094022
H	 0.2334370002	 0.0364725257	 2.0954142586	 0.078256
H	-0.4400714752	-2.2364768731	 1.5591909093	 0.092115
H	 0.936844721	-2.4553527321	 0.4954236773	 0.096652
H	 0.8542189158	-2.8594047819	 3.4558263337	 0.080081
H	 3.0062006533	-4.0701567057	 3.0047783533	 0.105419
H	 3.0302778714	-3.3888157878	 1.3098812904	 0.109971
H	 3.038141729	-1.7619722438	 3.9480038719	 0.086137
H	 4.1567745865	-0.3744671209	 2.0457586433	 0.082175
H	 2.5242769994	 0.8015148224	 0.7019010102	 0.081319
76.4048	107.9679	185.9713	200.3839	248.0573	322.1681	369.0479	411.86	471.8466	517.1785	563.3338	716.8487	735.0143	769.4363	799.1435	818.6819	857.4679	903.0093	917.3497	962.6476	986.5925	993.4011	1000.0539	1042.7418	1056.4216	1071.9895	1095.9757	1111.592	1131.6755	1145.1246	1151.3547	1210.2936	1225.4759	1253.8139	1273.0496	1298.2079	1337.4642	1357.066	1374.8543	1381.181	1404.6587	1413.1801	1429.7969	1478.3781	1486.5312	1493.7702	1499.934	1506.0982	1705.6463	2965.406	3012.5111	3023.3844	3032.0632	3045.7948	3062.7791	3097.7295	3102.1671	3122.7934	3127.4377	3139.1533	3152.0904	3163.4967	3211.9671
CCC1CC2CC2C=C1	CC[C@H]1C[C@H]2C[C@H]2C=C1	
InChI=1S/C9H14/c1-2-7-3-4-8-6-9(8)5-7/h3-4,7-9H,2,5-6H2,1H3	InChI=1S/C9H14/c1-2-7-3-4-8-6-9(8)5-7/h3-4,7-9H,2,5-6H2,1H3/t7-,8-,9+/m1/s1
