14
gdb 75975	2.39593	1.98379	1.13219	2.0317	58.75	-0.2938	-0.0154	0.2784	994.4841	0.101983	-511.045377	-511.037555	-511.036611	-511.07859	27.41	
C	 0.1228339236	 1.4381272748	 0.0202938693	-0.33175
N	 0.140146646	-0.0291111241	-0.0024582596	-0.26486
C	 0.1428574868	-0.6488911902	-1.2580635428	 0.493904
O	 0.101816371	-0.0531735139	-2.294874969	-0.355922
O	 0.1789408406	-2.0048124255	-1.209306812	-0.218418
C	 0.6027059323	-2.5460325697	 0.0225535027	-0.007554
O	-0.1620761746	-2.0445688121	 1.0966177243	-0.21842
C	-0.2174797772	-0.6909007709	 1.1785635538	 0.4939
O	-0.5597397621	-0.1302976534	 2.1786256132	-0.35592
H	 0.7568326068	 1.7998715904	-0.7868841958	 0.160686
H	-0.8917949938	 1.8197555669	-0.1226965349	 0.152978
H	 0.4952194104	 1.7692723229	 0.9877775321	 0.160658
H	 0.4289517519	-3.6194617181	-0.0216488721	 0.158502
H	 1.6651423482	-2.3217119771	 0.1835411607	 0.132215
57.4107	108.8659	142.117	212.2634	307.1624	340.0473	409.6782	521.4753	521.743	614.7848	699.1437	767.1283	784.868	808.7327	979.7371	1023.062	1061.2158	1129.9266	1135.0983	1160.8389	1219.2767	1294.2272	1303.9626	1386.9824	1452.7301	1460.7413	1491.7762	1509.9614	1522.6881	1849.8607	1889.7964	3028.7448	3067.649	3149.685	3162.0504	3190.0152
CN1C(=O)OCOC1=O	CN1C(=O)OCOC1=O	
InChI=1S/C4H5NO4/c1-5-3(6)8-2-9-4(5)7/h2H2,1H3	InChI=1S/C4H5NO4/c1-5-3(6)8-2-9-4(5)7/h2H2,1H3
