21
gdb 113459	4.26704	0.93331	0.91483	2.2376	83.45	-0.2213	0.0728	0.2941	1396.0092	0.182938	-383.197655	-383.188974	-383.188029	-383.231194	33.402	
C	 0.3028559773	 1.5073349186	 0.2051899052	-0.373971
C	-0.2871236183	 0.148589275	-0.1874682644	-0.182342
C	 0.4031238713	-0.4546622863	-1.3899019129	-0.093047
N	 1.7122495218	-1.1039360273	-1.1347083823	-0.389587
C	 0.5793549127	-1.9124428113	-1.5729096171	 0.354392
C	 0.1036928544	-3.1445502895	-0.7943237512	-0.241327
N	 0.1260458	-3.9888060647	-2.049232163	-0.124983
C	-0.8251627623	-3.3517651041	-2.9763075024	-0.237797
C	 0.515524404	-2.7444838192	-2.8315841007	-0.128925
H	 1.367836399	 1.4077726863	 0.4357963434	 0.131476
H	 0.2007850868	 2.2348005071	-0.6080523364	 0.109637
H	-0.1998076643	 1.9196109006	 1.085316653	 0.111452
H	-0.1998098405	-0.5485277897	 0.6534554348	 0.104346
H	-1.3584372276	 0.2511307867	-0.4049672858	 0.094287
H	 0.3195738563	 0.1312449206	-2.3065738165	 0.078351
H	 2.3536085586	-0.9404757048	-1.9078416049	 0.22877
H	 0.8501324908	-3.5033513831	-0.0832035717	 0.125809
H	-0.8790887643	-3.1035221641	-0.3123780273	 0.10365
H	-1.0181010483	-3.9494049037	-3.8624327288	 0.121805
H	-1.6961836856	-2.8369429443	-2.5746252026	 0.112027
H	 1.2681967681	-2.7695146627	-3.6150405584	 0.095978
74.6372	108.5078	145.0293	192.0372	251.6273	315.5002	377.9713	443.4443	456.9694	492.291	609.6123	742.6791	766.7868	784.9665	827.0273	841.2017	903.6772	926.3343	958.8261	968.8282	996.7473	1030.0192	1050.5638	1065.365	1089.3275	1095.4017	1111.8081	1114.3054	1127.8229	1196.4651	1217.0808	1225.6207	1268.1189	1279.971	1304.5976	1323.132	1341.2139	1383.9026	1407.6308	1475.9631	1484.368	1492.7485	1498.6973	1503.6491	1509.7679	3023.2835	3033.0743	3044.4085	3064.4197	3093.8049	3097.686	3102.1304	3113.82	3118.9707	3146.8424	3192.0007	3487.9558
CCC1NC11CN2CC12	CC[C@H]1N[C@]21CN1C[C@@H]21	
InChI=1S/C7H12N2/c1-2-5-7(8-5)4-9-3-6(7)9/h5-6,8H,2-4H2,1H3	InChI=1S/C7H12N2/c1-2-5-7(8-5)4-9-3-6(7)9/h5-6,8H,2-4H2,1H3/t5-,6+,7+,9?/m1/s1
