20
gdb 95258	2.58142	1.841	1.40772	0.9616	76.61	-0.2344	0.0758	0.3102	996.2231	0.173739	-403.101719	-403.094356	-403.093412	-403.133287	29.979	
C	-0.0565760198	 1.5508842133	-0.01449142	-0.399127
C	 0.0136437833	 0.0186046116	-0.0109469697	-0.027422
C	 0.4972607091	-0.5113400715	-1.3822160635	-0.096894
O	 1.081391182	-1.8041345243	-1.3445435525	-0.265612
C	 2.0387616216	-1.9492627022	-0.3164014446	 0.086375
C	 2.9332758987	-0.7290859515	 0.0458264373	-0.200122
N	 2.2691242896	-0.5543817878	 1.3808970158	-0.161878
C	 1.479397797	-1.8287587547	 1.1056506034	-0.07637
C	 0.7959936865	-0.5279279657	 1.1774458357	-0.009939
H	 0.9415178878	 1.9907859304	-0.1131685144	 0.126188
H	-0.6698980117	 1.9166529305	-0.8452920012	 0.115142
H	-0.4953566916	 1.9275668763	 0.9147475348	 0.119624
H	-1.003453177	-0.3676796047	 0.1444656243	 0.08856
H	-0.3523684795	-0.5898590783	-2.0665114177	 0.110371
H	 1.2016191967	 0.205107927	-1.8296541478	 0.093336
H	 2.5851289337	-2.8677508737	-0.5331499395	 0.090552
H	 3.9705080182	-1.028845312	 0.2124693167	 0.114131
H	 2.9241087664	 0.1518933733	-0.5999911473	 0.106631
H	 1.3750775396	-2.624248054	 1.8356459745	 0.09081
H	 0.3169808796	-0.3052507819	 2.1288685958	 0.095644
99.2437	217.6879	249.0631	318.0391	351.5855	395.0055	451.5948	520.2406	571.2211	639.6507	748.95	778.1948	810.3248	851.5676	858.414	935.2721	942.562	965.3194	987.7426	1012.5243	1025.3954	1053.2617	1068.5944	1096.308	1135.8294	1147.004	1184.6084	1196.1882	1237.9829	1250.0132	1285.1387	1294.5846	1324.4431	1342.9477	1366.29	1374.8804	1409.8104	1411.8314	1443.6289	1491.304	1495.8378	1498.408	1523.2254	2989.8761	3006.1064	3030.6213	3066.9257	3082.2288	3098.11	3104.58	3105.7065	3118.2453	3128.589	3169.7071
CC1COC2CN3C2C13	C[C@H]1CO[C@H]2CN3[C@H]2[C@H]13	
InChI=1S/C7H11NO/c1-4-3-9-5-2-8-6(4)7(5)8/h4-7H,2-3H2,1H3	InChI=1S/C7H11NO/c1-4-3-9-5-2-8-6(4)7(5)8/h4-7H,2-3H2,1H3/t4-,5-,6-,7+,8?/m0/s1
