19
gdb 121045	3.40884	0.93137	0.89308	2.4877	72.38	-0.2453	-0.0231	0.2222	1400.0423	0.157863	-460.188485	-460.179375	-460.178431	-460.223485	32.763	
C	 0.5959195585	 1.3003108284	 0.0596970191	-0.386423
C	 0.100718653	-0.1291487813	-0.0672978106	-0.045918
O	 0.7388712243	-0.7250301964	-1.1941068888	-0.256067
C	 0.3508450418	-2.0452240804	-1.4398297481	 0.204754
C	 1.086640875	-2.5168281998	-2.6894244368	-0.357927
C	 2.3728096875	-3.1076352973	-2.1116803634	 0.374213
O	 3.383775758	-3.3830619299	-2.6979448197	-0.297802
C	 2.1201647442	-3.281162747	-0.6104508192	-0.185933
O	 0.7606811845	-2.9329017567	-0.4003563158	-0.261128
H	 1.6793044545	 1.3206493897	 0.2081765411	 0.128488
H	 0.363512776	 1.8723739266	-0.8430029929	 0.127135
H	 0.1203164638	 1.7905543633	 0.914289378	 0.118473
H	 0.3260083896	-0.7084694058	 0.8368876229	 0.110891
H	-0.9916833765	-0.1536952273	-0.2106185687	 0.090795
H	-0.7428001737	-2.1290087524	-1.4809621429	 0.079321
H	 0.5278639768	-3.3133392856	-3.1923136097	 0.139931
H	 1.2894331005	-1.7190349338	-3.4035828065	 0.147739
H	 2.2819541885	-4.3165837784	-0.2962009353	 0.137566
H	 2.8089996337	-2.6354744959	-0.0479954229	 0.131892
51.7024	66.2344	103.8098	169.7044	199.0466	249.8653	355.6003	398.6495	451.6281	471.2662	564.5361	636.2643	758.8445	777.2168	818.1355	830.376	892.9558	922.8242	965.4817	1022.8725	1055.2692	1074.2141	1125.5947	1141.3135	1163.489	1184.544	1196.834	1221.933	1270.5283	1292.6612	1320.4214	1365.3874	1379.9753	1405.2665	1433.3359	1444.3558	1479.1972	1483.5246	1500.1989	1529.3166	1865.8265	2977.8445	3014.2939	3028.5709	3043.2803	3045.6029	3066.5996	3088.3016	3120.3105	3122.186	3146.6561
CCOC1CC(=O)CO1	CCO[C@H]1CC(=O)CO1	
InChI=1S/C6H10O3/c1-2-8-6-3-5(7)4-9-6/h6H,2-4H2,1H3	InChI=1S/C6H10O3/c1-2-8-6-3-5(7)4-9-6/h6H,2-4H2,1H3/t6-/m1/s1
