18
gdb 31011	3.34837	1.12932	0.88063	1.7246	77.75	-0.1754	0.0354	0.2107	1316.5389	0.147674	-439.11702	-439.107822	-439.106878	-439.150832	34.107	
C	 0.3034817826	 1.5208473745	-0.1885482916	-0.489944
C	-0.0459662059	 0.0784102271	-0.1938997182	 0.353676
C	-1.1360038641	-0.6352387855	-0.5674549992	-0.390838
C	-0.8557355056	-2.026695829	-0.3148225771	 0.165095
C	-1.7108925688	-3.2330059809	-0.5406069024	-0.193128
O	-1.6193965899	-4.1773617737	 0.5375256865	-0.416605
C	 0.4112250147	-2.0423339065	 0.2005468036	 0.281028
N	 1.2415139837	-3.0848382026	 0.5725374108	-0.601448
O	 0.9188180619	-0.7916876929	 0.2870200737	-0.211931
H	 1.1862332949	 1.7310320459	-0.8047724303	 0.132859
H	-0.5327049336	 2.1001257419	-0.5873264184	 0.132436
H	 0.5189753028	 1.8880475232	 0.8225218261	 0.129365
H	-2.0479785703	-0.2270572899	-0.9778871636	 0.100267
H	-2.7548362138	-2.9310011164	-0.7096976615	 0.09861
H	-1.3976282563	-3.8035495148	-1.4234327254	 0.120094
H	-1.8715864734	-3.7032668214	 1.3379933613	 0.279761
H	 0.6962888912	-3.9104006534	 0.7930009237	 0.261176
H	 1.8830406	-2.8424825757	 1.3165908619	 0.249526
82.3652	138.08	158.6057	191.1417	234.0534	268.219	296.0554	331.8254	381.7054	441.8035	474.6849	613.5968	625.5419	658.5416	724.6905	763.0589	802.5316	815.9488	953.2964	970.7134	1012.6455	1018.264	1064.8751	1093.0523	1160.3617	1187.7536	1232.1113	1276.4197	1322.4843	1368.6252	1409.5466	1418.7092	1469.1808	1470.6505	1498.2818	1506.232	1611.7401	1652.161	1683.0449	2996.701	3018.9039	3044.618	3063.4252	3123.2202	3240.6585	3524.7342	3629.1022	3797.3446
CC1=CC(CO)=C(N)O1	Cc1cc(CO)c(N)o1	
InChI=1S/C6H9NO2/c1-4-2-5(3-8)6(7)9-4/h2,8H,3,7H2,1H3	InChI=1S/C6H9NO2/c1-4-2-5(3-8)6(7)9-4/h2,8H,3,7H2,1H3
