14
gdb 96700	2.7668	1.10833	0.89027	3.2302	67.51	-0.2847	-0.0638	0.221	1287.0785	0.098473	-470.048194	-470.038464	-470.03752	-470.084103	32.622	
C	-0.3105850867	 1.613984687	-0.1162847183	-0.347632
N	-0.4831677337	 0.1800563845	-0.1926096667	-0.225389
C	 0.2516095224	-0.5306031477	-0.9201044812	 0.342507
O	 0.0947334439	-1.8877309382	-1.0177771876	-0.28499
C	 0.0746729599	-2.6396946016	 0.1646055156	 0.507559
N	-0.4364770711	-3.8578398697	-0.1281311541	-0.553639
O	 0.4718179499	-2.2480928346	 1.2232965956	-0.356265
C	 1.3051900106	-0.0588642483	-1.8000251702	 0.242572
N	 2.1268887278	 0.359264301	-2.4980020655	-0.331468
H	 0.4678594162	 2.0179020918	-0.7756007857	 0.140342
H	-1.2679172844	 2.0891634722	-0.3531568762	 0.148803
H	-0.0729268672	 1.8748695155	 0.9203267878	 0.157714
H	-0.6395921414	-4.111982685	-1.0785826869	 0.278365
H	-0.3713945162	-4.572241537	 0.5751607635	 0.281521
38.6861	58.681	129.0156	150.3823	156.8514	208.0848	276.3271	312.7295	326.1895	413.9554	488.6605	539.9068	621.3641	647.8229	706.7401	749.3336	817.834	919.0669	1083.8346	1116.3271	1129.7076	1159.101	1227.4279	1336.3231	1438.3931	1481.2241	1498.6787	1610.273	1744.2362	1894.3052	2345.5144	3015.9765	3093.8223	3099.9338	3626.8123	3761.0761
CN=C(OC(N)=O)C#N	CN=C(OC(=O)N)C#N	
InChI=1S/C4H5N3O2/c1-7-3(2-5)9-4(6)8/h1H3,(H2,6,8)	InChI=1S/C4H5N3O2/c1-7-3(2-5)9-4(6)8/h1H3,(H2,6,8)
