19
gdb 40904	3.59614	1.28567	1.25326	0.2723	74.88	-0.2259	0.0697	0.2956	1083.0423	0.160771	-422.990986	-422.983429	-422.982485	-423.023227	29.273	
C	 0.0828060949	 1.3472760489	-0.3106655579	-0.083132
C	 1.5230038949	 1.5285383632	 0.2159195707	-0.35033
C	 1.3020298735	 0.1445203818	 0.8176616907	 0.484923
O	-0.0248901727	 0.0386762439	 0.3018356427	-0.321967
C	 2.1810229637	-1.0641655266	 0.8861499625	-0.168392
C	 3.6764919759	-0.810378974	 0.9271740749	-0.094351
O	 3.8632411038	 0.2491106649	 1.8634715417	-0.256557
C	 2.8472702048	 0.1625864817	 2.860648768	-0.09435
C	 1.6338885106	-0.4221849643	 2.1618881174	-0.168397
H	-0.663409525	 2.0421023873	 0.0904697753	 0.106646
H	-0.0241087218	 1.2919876297	-1.3997236845	 0.106644
H	 2.2998455724	 1.5902279744	-0.5477777446	 0.117256
H	 1.6635451871	 2.3366592046	 0.9354433238	 0.117255
H	 1.7993501253	-2.0087680724	 0.5163039506	 0.10004
H	 4.2066566504	-1.7236783568	 1.2423477148	 0.094594
H	 4.1069080353	-0.475092464	-0.022755265	 0.107741
H	 3.1555334941	-0.4903493112	 3.6932183132	 0.094594
H	 2.7012591409	 1.1742195588	 3.2547547733	 0.107742
H	 0.8454675518	-0.8895348801	 2.7404303324	 0.100041
88.9217	148.3452	176.9532	253.468	282.9758	402.0475	452.5971	563.7436	667.26	737.303	792.9741	834.0757	870.0111	870.3409	918.6236	946.5768	962.8812	977.093	1000.9448	1013.9451	1021.4773	1098.2968	1100.7219	1106.7188	1126.8802	1142.9173	1165.1357	1211.2924	1218.1852	1234.971	1251.1292	1275.6416	1290.4085	1352.1431	1358.0005	1377.392	1459.9164	1489.5096	1512.6359	1525.2544	1532.6678	2971.4081	2977.0626	3027.8002	3061.6957	3064.4192	3070.7279	3081.6571	3133.3743	3181.1717	3188.716
C1CC2(O1)C1COCC21	C1C[C@@]2(O1)[C@H]1COC[C@@H]21	
InChI=1S/C7H10O2/c1-2-9-7(1)5-3-8-4-6(5)7/h5-6H,1-4H2	InChI=1S/C7H10O2/c1-2-9-7(1)5-3-8-4-6(5)7/h5-6H,1-4H2/t5-,6+,7+
