17
gdb 128271	6.54152	0.88075	0.78591	2.4091	73.7	-0.2083	0.0329	0.2412	1451.7354	0.136731	-451.332231	-451.322931	-451.321986	-451.366691	32.426	
C	-0.0249119541	 1.4107276172	 0.0790689559	-0.332253
N	-0.0573656537	-0.0296789164	-0.1089333216	-0.394801
C	-1.2010035919	-0.7441407201	-0.022878325	 0.549266
N	-1.3091967419	-2.0454977511	 0.048424936	-0.448079
C	-2.6765504181	-2.1959449982	 0.0685442744	 0.455652
N	-3.2399615214	-3.4315555731	 0.184997615	-0.379069
C	-4.6611291982	-3.6064534825	-0.0534357043	-0.322369
N	-3.3869610142	-1.0878676082	 0.0047269132	-0.251147
O	-2.3589823333	-0.0828010139	-0.0399027063	-0.228246
H	 0.943178429	 1.7862093344	-0.2581958067	 0.134604
H	-0.8058966681	 1.8746558366	-0.5262923284	 0.162699
H	-0.1767060027	 1.7090103213	 1.1247894114	 0.133898
H	 0.7737586587	-0.5594597221	 0.0972451767	 0.265702
H	-2.6262253123	-4.1801941523	-0.0940168529	 0.251895
H	-5.2221272005	-2.9373284443	 0.6038121712	 0.155717
H	-4.9546352763	-3.3829744731	-1.088672738	 0.124386
H	-4.9356270007	-4.6370938242	 0.1813070192	 0.122146
77.0025	106.2164	127.034	138.0821	161.1002	242.4469	257.6331	369.2977	381.8057	460.6928	472.7608	613.4556	690.1674	717.4731	772.2291	787.312	909.2137	1008.5421	1019.4088	1093.4305	1129.2927	1154.1274	1157.4174	1181.3725	1195.1099	1345.7531	1401.0232	1437.5637	1455.7215	1476.4446	1481.9559	1491.1309	1512.9293	1515.9784	1559.1743	1634.3965	1694.8044	3007.5735	3018.2439	3091.4345	3103.5704	3133.3693	3144.0921	3638.8015	3651.5965
CNC1=NC(NC)=NO1	CNc1nc(NC)no1	
InChI=1S/C4H8N4O/c1-5-3-7-4(6-2)9-8-3/h1-2H3,(H2,5,6,7,8)	InChI=1S/C4H8N4O/c1-5-3-7-4(6-2)9-8-3/h1-2H3,(H2,5,6,7,8)
