18
gdb 51222	4.11658	1.05438	1.03395	3.2739	75.95	-0.2364	-0.0212	0.2152	1204.9133	0.147544	-401.888834	-401.881077	-401.880133	-401.921994	29.372	
O	-0.2527421658	 0.1300165826	 0.2102374961	-0.239302
C	 0.0564147903	 1.2901365074	 0.1245992452	 0.157301
C	 1.4408671214	 1.7891765957	-0.2503966891	-0.392824
C	 1.3823184538	 2.8120905632	-1.3478293313	 0.337742
C	 1.0962096872	 2.6012538106	-2.8371889749	-0.28871
C	 1.5028926873	 4.0888793308	-3.0113759605	-0.083703
C	 0.4080854858	 4.8168181033	-2.2162093742	-0.147505
N	 0.9352087468	 4.2051013848	-0.9507009875	-0.18488
C	 2.2486567149	 3.9836640436	-1.6246123604	-0.109811
H	-0.6756410417	 2.1038395823	 0.32351884	 0.093097
H	 1.8695403085	 2.2617144097	 0.6435523416	 0.133994
H	 2.0641415067	 0.9330063354	-0.5251679547	 0.121224
H	 1.8323220402	 1.9200435375	-3.2722978781	 0.111136
H	 0.0888088515	 2.3096079843	-3.1548108074	 0.101101
H	 1.8976008107	 4.4582849687	-3.9554721156	 0.079143
H	 0.5525191748	 5.8985448918	-2.1572640866	 0.11236
H	-0.6401683908	 4.5923831027	-2.4471655777	 0.099106
H	 3.2020624384	 4.3138601356	-1.2327103051	 0.100531
59.5498	71.0255	155.2429	293.4001	331.3049	432.2983	444.4658	490.05	644.4107	697.7816	749.3117	807.9209	824.757	850.2473	919.7651	923.9669	955.8589	980.2592	995.6589	1008.8993	1027.2099	1051.6585	1091.7446	1127.6503	1145.6255	1159.6903	1171.4539	1206.3963	1235.8809	1254.8731	1277.4953	1305.8982	1322.7406	1404.9274	1420.1313	1445.9264	1493.4627	1514.2729	1834.2048	2893.894	3027.7144	3031.5161	3040.8636	3097.7542	3102.1907	3104.4382	3138.7204	3199.9179
O=CCC12CC3CN1C23	O=CC[C@@]12C[C@H]3CN1[C@@H]23	
InChI=1S/C7H9NO/c9-2-1-7-3-5-4-8(7)6(5)7/h2,5-6H,1,3-4H2	InChI=1S/C7H9NO/c9-2-1-7-3-5-4-8(7)6(5)7/h2,5-6H,1,3-4H2/t5-,6+,7-,8?/m0/s1
