15
gdb 33575	2.18586	1.68712	1.22598	1.3261	73.3	-0.2621	0.0049	0.267	1053.5104	0.10962	-420.536159	-420.527524	-420.526579	-420.569968	31.731	
C	 0.0414894145	-1.1395457672	 0.0785800835	-0.458856
C	 0.0078591884	 0.0593986952	 0.019920769	 0.357842
C	-0.039034752	 1.5355636983	-0.0210228702	 0.062011
O	-0.6749460094	 2.0546735507	 1.1350302271	-0.257069
C	 0.3617096302	 2.2494476164	 2.0920652636	-0.112899
C	 1.5200458676	 2.7235647918	 1.2168653403	-0.089754
O	 1.3009395266	 2.0405833617	-0.0176432811	-0.278399
C	-0.7597716141	 2.0034730719	-1.2105306644	 0.304189
C	-1.3373686568	 2.3749928594	-2.1942108166	-0.409479
H	 0.0691941472	-2.2007285647	 0.1211492006	 0.203908
H	 0.0153221292	 2.986878651	 2.8179756908	 0.125602
H	 0.6012161677	 1.3086162599	 2.6055720486	 0.115511
H	 1.4872199433	 3.8083359424	 1.055347974	 0.114601
H	 2.5033490755	 2.444558568	 1.6054618137	 0.119595
H	-1.8497851579	 2.7065433351	-3.0637695589	 0.203197
42.2083	122.9824	156.1074	171.4454	233.4151	283.6612	465.5099	515.1614	518.3708	570.894	579.9029	651.7112	655.9074	658.2605	669.0944	676.2911	786.8359	899.7768	950.6303	962.2342	1040.0186	1058.5683	1110.8972	1142.1307	1189.1952	1224.355	1253.1276	1366.9382	1382.4526	1506.6533	1523.0067	2236.8997	2251.4524	3017.9907	3027.3207	3093.5251	3123.8961	3498.9869	3500.0209
C#CC1(OCCO1)C#C	C#CC1(OCCO1)C#C	
InChI=1S/C7H6O2/c1-3-7(4-2)8-5-6-9-7/h1-2H,5-6H2	InChI=1S/C7H6O2/c1-3-7(4-2)8-5-6-9-7/h1-2H,5-6H2
