16
gdb 33906	3.97962	1.29157	1.16947	2.7772	73.37	-0.2666	0.0027	0.2694	1045.8568	0.125738	-400.700042	-400.693049	-400.692105	-400.731457	27.521	
N	 0.0714910398	-1.1627299048	-0.0765979899	-0.348453
C	 0.0389425161	-0.0055120886	-0.0409549608	 0.180171
C	-0.0110817671	 1.4160616287	 0.030611509	 0.195734
C	 0.2950901691	 2.2919433953	-1.1678206696	-0.33438
C	 1.1690605107	 2.4340971366	 0.0306806452	-0.101437
C	 0.4463356514	 3.2251828816	 1.1451101061	 0.108758
O	-0.4562133543	 4.2668253618	 0.7074847788	-0.295092
C	-1.606479039	 3.3837489621	 0.8307660924	-0.110833
C	-0.6952733321	 2.195406842	 1.1880564908	-0.131743
H	 0.7356642965	 1.7596524966	-2.003239963	 0.143476
H	-0.3811216132	 3.0931797192	-1.4413911722	 0.147552
H	 2.2282319626	 2.2107410507	 0.0072765655	 0.116054
H	 1.050106638	 3.5110573861	 2.0078904045	 0.095411
H	-2.2606067809	 3.7034682904	 1.6499090744	 0.115737
H	-2.1884005076	 3.3199951043	-0.0951470714	 0.114338
H	-0.9170321201	 1.597076758	 2.0682911001	 0.104706
125.5997	153.7909	241.0044	321.5613	391.504	470.2519	542.7829	559.2285	609.6598	700.6933	788.3286	830.0471	860.3064	880.3916	917.7424	930.3715	965.7746	996.8117	1008.6877	1028.0652	1056.7133	1089.5622	1094.4669	1158.0305	1188.5287	1190.8722	1234.9526	1235.9867	1298.1536	1310.74	1348.7492	1378.0302	1484.5591	1520.8241	2341.3351	3028.8066	3076.7341	3100.3203	3148.2767	3149.0407	3198.7848	3236.7348
N#CC12CC1C1OCC21	N#C[C@]12C[C@H]1[C@H]1OC[C@@H]21	
InChI=1S/C7H7NO/c8-3-7-1-4(7)6-5(7)2-9-6/h4-6H,1-2H2	InChI=1S/C7H7NO/c8-3-7-1-4(7)6-5(7)2-9-6/h4-6H,1-2H2/t4-,5+,6+,7+/m0/s1
