12
gdb 23871	2.9851	1.75186	1.40183	0.6619	48.58	-0.2659	0.0274	0.2934	859.7058	0.079151	-508.985782	-508.977821	-508.976877	-509.018364	28.515	
N	-0.0429196742	 1.4957719568	 0.091032146	-0.502732
C	-0.0333301273	 0.0384971709	-0.0008425284	-0.299278
C	-1.383056266	-0.5046539302	 0.1278165639	 0.353829
C	-2.4971114933	-0.9398729598	 0.2231965846	-0.43805
C	 0.6238018886	-0.4783418096	-1.297339495	 0.270665
F	 1.8792877993	-0.0026703089	-1.3847582465	-0.08286
F	 0.6903953515	-1.8115287127	-1.3274476808	-0.064978
F	-0.0397081522	-0.0660249078	-2.3838035471	-0.074783
H	 0.9004886663	 1.8462648222	-0.0480992273	 0.243201
H	-0.6199433452	 1.8768368954	-0.6531754603	 0.245024
H	 0.5917875112	-0.3511015502	 0.8131896325	 0.140883
H	-3.4814569087	-1.329495616	 0.3113430485	 0.209079
69.2791	134.8442	203.9183	237.4552	290.0995	341.7335	387.8969	436.0935	522.1674	555.3618	598.2881	649.7288	676.8083	700.9894	811.9553	901.5831	946.5337	1134.151	1163.8198	1198.3738	1225.2077	1272.5159	1356.6993	1401.6037	1657.3028	2252.8165	3035.8556	3495.4296	3503.1566	3581.5745
NC(C#C)C(F)(F)F	N[C@@H](C#C)C(F)(F)F	
InChI=1S/C4H4F3N/c1-2-3(8)4(5,6)7/h1,3H,8H2	InChI=1S/C4H4F3N/c1-2-3(8)4(5,6)7/h1,3H,8H2/t3-/m0/s1
