23
gdb 121991	5.71282	0.51598	0.49217	2.9347	84.61	-0.2493	-0.0213	0.228	2230.3256	0.201988	-425.429548	-425.418072	-425.417128	-425.467894	39.126	
C	-0.2121962397	 1.3570826786	 0.048586466	-0.228054
O	-0.1241708839	-0.0445694213	-0.0297210964	-0.229529
C	 0.6973821214	-0.4864438546	-1.0886127732	-0.063479
C	 0.7346895441	-2.0104036143	-1.0513292715	-0.197116
C	 1.464685913	-2.65976275	-2.2390772774	 0.005131
C	 2.950609074	-2.2726790896	-2.3071257191	-0.393617
C	 1.3048768756	-4.1950682169	-2.1813585101	-0.276206
C	 1.7569329742	-4.8711803623	-3.4548883206	 0.158527
O	 2.5654191271	-5.7604780234	-3.5251089106	-0.241097
H	 0.7726122012	 1.8213562173	 0.2184236603	 0.102971
H	-0.6405215665	 1.7930240262	-0.8683904767	 0.102347
H	-0.865020988	 1.5981993647	 0.8910872471	 0.127455
H	 0.2968043814	-0.1362557006	-2.0573680432	 0.081837
H	 1.7082587013	-0.0585472809	-0.9866299252	 0.087866
H	 1.198930327	-2.3299692501	-0.1097883204	 0.10683
H	-0.3028943763	-2.3634225071	-1.0224884625	 0.105403
H	 0.9776314623	-2.3127694273	-3.1632244106	 0.077548
H	 3.4597800722	-2.7844830984	-3.1300128472	 0.126871
H	 3.0839613371	-1.1977109928	-2.4562650509	 0.120242
H	 3.4658488936	-2.5501474569	-1.3800965566	 0.122586
H	 1.8562322938	-4.6241401928	-1.3385005983	 0.119021
H	 0.2404071589	-4.438577894	-2.0504639312	 0.116264
H	 1.2661228862	-4.4729734534	-4.3761258817	 0.068197
47.6381	49.8616	71.1789	95.5954	115.905	134.2257	234.2737	236.5147	243.6674	280.7426	305.596	408.0619	441.6018	513.5134	535.5997	778.9288	793.9038	877.1461	934.7423	960.457	984.6849	1008.2401	1023.7546	1062.0522	1132.4058	1155.6495	1162.717	1170.7144	1186.3355	1220.2565	1229.5573	1253.6531	1272.8275	1311.4465	1327.2625	1371.831	1376.7052	1420.0451	1426.9669	1432.0125	1460.4542	1482.0751	1485.8118	1487.9948	1500.5016	1503.196	1506.8633	1533.0842	1835.1168	2838.1158	2938.6118	2967.3113	2978.1715	2989.2436	3009.727	3010.2448	3028.3077	3034.1755	3071.0759	3090.4066	3098.6575	3111.9149	3113.349
COCCC(C)CC=O	COCC[C@@H](C)CC=O	
InChI=1S/C7H14O2/c1-7(3-5-8)4-6-9-2/h5,7H,3-4,6H2,1-2H3	InChI=1S/C7H14O2/c1-7(3-5-8)4-6-9-2/h5,7H,3-4,6H2,1-2H3/t7-/m0/s1
