21
gdb 93955	4.08253	1.06245	0.99871	1.0917	78.34	-0.2477	0.0872	0.3349	1293.0496	0.182695	-424.219423	-424.210482	-424.209538	-424.25406	33.192	
C	 0.4366983278	 1.385125363	 0.0546075216	-0.402193
C	-0.1861136075	 0.0046089282	-0.1483468276	 0.108282
C	 0.5088676386	-0.8419678722	-1.2246558758	-0.100848
O	 1.5012083093	-1.5639712322	-0.5038641725	-0.275354
C	 1.1843236257	-1.5108427215	 0.8838525738	 0.201164
O	-0.0475600127	-0.8265010073	 1.0027509984	-0.273072
C	 1.0715833883	-2.8837915742	 1.4978620732	-0.020452
C	 0.5243940477	-4.0355190068	 0.7012269558	-0.25712
C	 1.9937662698	-3.9834692127	 1.0412190198	-0.266632
H	 1.5221341791	 1.3156944209	 0.1774119241	 0.128695
H	 0.2338119477	 2.0269603677	-0.8091836771	 0.115177
H	 0.0169482487	 1.8615442064	 0.9446131471	 0.12729
H	-1.2594650139	 0.1010052721	-0.3386694862	 0.087957
H	-0.1961035606	-1.5333568236	-1.7054106615	 0.098888
H	 0.9994981865	-0.2413396858	-1.9972557489	 0.107867
H	 1.9841249709	-0.9387047063	 1.385460403	 0.068708
H	 0.8278454037	-2.847122512	 2.5553680361	 0.091557
H	-0.1043845666	-4.7548522197	 1.2133223043	 0.107882
H	 0.2499342921	-3.8441730853	-0.3293831325	 0.118575
H	 2.6775401614	-3.7512854951	 0.2329418586	 0.12629
H	 2.3826957638	-4.6684769038	 1.7862991564	 0.10734
37.7214	72.9794	123.4401	197.6906	232.2209	240.1721	333.2849	391.4538	459.7785	574.7373	733.2175	745.5144	782.2061	802.1441	831.538	841.7465	918.0852	937.3141	945.6342	969.9115	1015.8467	1027.294	1062.9113	1072.7335	1086.8218	1091.937	1132.667	1138.3159	1156.8996	1182.416	1200.5602	1229.8174	1235.3747	1321.8197	1343.1505	1371.8951	1388.1141	1405.5187	1409.8873	1421.1548	1459.4622	1489.2416	1495.0696	1504.5284	1522.5438	2944.0401	3009.2997	3037.9231	3063.2749	3076.0481	3108.9047	3121.6952	3138.8521	3142.4925	3157.7445	3221.6506	3235.2508
CC1COC(O1)C1CC1	C[C@H]1CO[C@@H](O1)C1CC1	
InChI=1S/C7H12O2/c1-5-4-8-7(9-5)6-2-3-6/h5-7H,2-4H2,1H3	InChI=1S/C7H12O2/c1-5-4-8-7(9-5)6-2-3-6/h5-7H,2-4H2,1H3/t5-,7-/m0/s1
