19
gdb 92113	2.65341	1.68233	1.40012	2.1582	74.15	-0.2306	0.0761	0.3067	993.1243	0.160507	-422.999333	-422.99172	-422.990776	-423.030882	31.367	
O	-0.036861918	 1.45969086	-0.0287759662	-0.430446
C	 0.0095132144	 0.0349241701	 0.0249951076	 0.092017
C	 0.6838780743	-0.521110034	 1.3130972854	-0.23399
C	-0.4969057506	-0.9113684679	 2.2117012788	-0.045962
C	-1.4342137295	 0.3203625069	 2.4767684625	-0.301346
C	-2.2714570335	-0.1383426737	 1.2893928583	 0.420549
O	-3.5875692072	 0.2029396079	 1.0467715323	-0.467333
C	-1.5686789239	-1.4915301123	 1.245456476	-0.187652
C	-1.4106531081	-0.505027254	 0.105435539	-0.080156
H	 0.8629928127	 1.7793930803	-0.1484331944	 0.279222
H	 0.5119705633	-0.3513162968	-0.8735951713	 0.061192
H	 1.2835951865	-1.4064611272	 1.0717518145	 0.093256
H	 1.3471614889	 0.222333114	 1.7681574468	 0.08842
H	-0.2317090017	-1.4983977465	 3.090709466	 0.065417
H	-1.9844216815	 0.1964310046	 3.4161187478	 0.08199
H	-0.9910683079	 1.3187801873	 2.433559367	 0.107017
H	-4.1001351578	-0.0109145722	 1.8346364445	 0.280725
H	-1.9318698448	-2.5064870891	 1.1546391358	 0.08492
H	-1.9742000056	-0.6742962875	-0.8046227606	 0.092161
143.609	182.9537	300.491	308.1988	329.5379	398.6905	410.3931	440.2025	516.8831	574.6031	672.8337	711.1862	791.1362	820.3536	842.3152	865.5412	907.3897	912.7869	946.8968	981.0728	994.4211	1030.4959	1042.5925	1048.981	1091.8831	1123.6014	1161.7467	1178.2896	1211.0414	1218.1832	1241.7153	1256.8809	1260.1807	1312.7795	1324.8766	1347.3361	1356.2598	1425.4753	1448.1264	1476.5914	1498.4734	2987.1529	3033.7778	3037.5373	3080.0415	3099.4416	3111.3018	3188.3253	3204.0947	3790.3049	3815.5901
OC1CC2CC3(O)C2C13	O[C@H]1C[C@H]2C[C@]3(O)[C@H]2[C@H]13	
InChI=1S/C7H10O2/c8-4-1-3-2-7(9)5(3)6(4)7/h3-6,8-9H,1-2H2	InChI=1S/C7H10O2/c8-4-1-3-2-7(9)5(3)6(4)7/h3-6,8-9H,1-2H2/t3-,4-,5+,6-,7-/m0/s1
