25
gdb 58428	2.63854	1.29218	1.20389	0.0734	92.5	-0.2772	0.0841	0.3612	1237.7041	0.229081	-352.304064	-352.294543	-352.293598	-352.337899	37.894	
C	 0.1035534239	 1.4813373668	 0.2446829435	-0.398065
C	 0.0278737279	-0.0534798137	 0.1540753077	-0.042491
C	 0.8063368075	-0.7119510377	 1.3056365764	-0.394631
C	-1.4322113705	-0.569574353	 0.0562783296	 0.407018
C	-2.2713347509	 0.0322783162	 1.1972823859	-0.488523
C	-2.0870055722	-0.6281130593	-1.3826851908	-0.089942
C	-1.1487808427	-1.8254262823	-1.7282716794	-0.235265
C	-1.6708188278	-2.0967685164	-0.286768576	-0.087005
C	-3.0730556484	-1.7064957561	-0.8478849361	-0.238164
H	 1.1436379007	 1.8142557984	 0.161814186	 0.107292
H	-0.4624853698	 1.9593290803	-0.5621431676	 0.110406
H	-0.284474366	 1.8600319885	 1.1953509621	 0.11387
H	 0.5552875035	-0.3210933886	-0.7643426238	 0.072847
H	 0.3849686583	-0.4651923238	 2.2859541403	 0.113719
H	 0.8126116392	-1.8025552595	 1.2111325958	 0.113081
H	 1.8476003427	-0.3719262861	 1.30747383	 0.107853
H	-2.5596204848	 1.0647463725	 0.9742778179	 0.118029
H	-3.1855991027	-0.5221857398	 1.4071964025	 0.114511
H	-1.7001692158	 0.0534045167	 2.1297971299	 0.114926
H	-2.3329043105	 0.2213525944	-2.0248202726	 0.061209
H	-1.5253822477	-2.5039797267	-2.4979985454	 0.085498
H	-0.0862608071	-1.643519802	-1.8766202501	 0.094175
H	-1.436693822	-2.9572262274	 0.3444090268	 0.062518
H	-3.8528480297	-1.3989378177	-0.1542902974	 0.090731
H	-3.479636615	-2.3866685336	-1.6006819151	 0.086404
64.6243	137.2464	157.0698	214.9597	257.0677	275.4577	298.6624	311.9644	428.349	438.8987	478.0535	524.5599	602.5646	663.4697	766.1202	797.1926	859.5427	860.3035	895.9713	897.573	925.073	935.9075	967.1296	996.1028	1004.2302	1022.1151	1042.9303	1078.1325	1090.4921	1107.3975	1109.9128	1144.5386	1166.9835	1184.9578	1190.1756	1206.126	1228.8622	1238.3695	1254.8155	1272.2505	1351.1511	1382.3293	1396.6296	1411.6665	1422.9415	1485.7309	1488.4331	1494.3284	1503.2647	1507.251	1514.9979	1528.4624	1559.2369	3028.7082	3032.542	3047.7319	3062.8252	3066.4726	3071.9366	3076.3993	3089.4807	3092.0168	3096.4907	3099.7485	3104.5808	3108.8964	3131.7471	3147.0591	3155.7165
CC(C)C1(C)C2CC1C2	CC(C)[C@@]1(C)[C@H]2C[C@@H]1C2	
InChI=1S/C9H16/c1-6(2)9(3)7-4-8(9)5-7/h6-8H,4-5H2,1-3H3	InChI=1S/C9H16/c1-6(2)9(3)7-4-8(9)5-7/h6-8H,4-5H2,1-3H3/t7-,8+,9-
