16
gdb 127209	3.03304	1.3435	0.99387	2.2826	67.21	-0.2223	0.0034	0.2256	1147.9332	0.125402	-471.244193	-471.235402	-471.234458	-471.277905	31.265	
C	-0.4574064818	 1.2782048609	 0.2932578017	-0.356798
N	-0.0546074291	-0.1073665997	 0.1554409458	-0.152355
C	-0.0787114231	-0.7914774152	-1.0684632016	 0.454383
O	-0.4097576051	-0.3694528066	-2.1565972299	-0.430604
N	 0.3613560301	-2.0430073835	-0.6939175482	-0.308124
N	 0.6350157209	-2.1605534249	 0.6466248989	-0.265466
C	 0.380143776	-0.9781857871	 1.1277477301	 0.344545
C	 0.5058218702	-0.6293315621	 2.574534472	-0.179558
O	-0.7382452744	-0.2493040444	 3.1530673938	-0.407326
H	 0.4099809237	 1.9355999604	 0.4160797794	 0.137891
H	-0.9776719464	 1.5528839091	-0.6261442925	 0.169536
H	-1.1174415905	 1.3886953808	 1.1552572184	 0.158986
H	 0.4812774244	-2.8286751859	-1.3083625372	 0.281058
H	 0.9624818056	-1.4867447051	 3.0837546836	 0.131681
H	 1.1641242296	 0.2355264281	 2.7085653749	 0.129066
H	-1.3261909501	-1.0111093748	 3.1024160607	 0.293086
93.1708	122.3957	123.276	187.5354	220.5482	266.8873	306.6851	372.812	407.3101	481.3531	552.3444	627.6538	718.1397	747.673	760.4985	824.4949	962.9542	978.3228	1048.1505	1101.3995	1162.4941	1192.4419	1215.8565	1217.0908	1335.9386	1365.9479	1393.9104	1410.7906	1431.9907	1486.7472	1491.1406	1503.8915	1520.2154	1632.1419	1841.3529	3035.1571	3042.2692	3084.8221	3116.6257	3156.3314	3697.2852	3807.0916
CN1C(=O)NN=C1CO	Cn1c(=O)[nH]nc1CO	
InChI=1S/C4H7N3O2/c1-7-3(2-8)5-6-4(7)9/h8H,2H2,1H3,(H,6,9)	InChI=1S/C4H7N3O2/c1-7-3(2-8)5-6-4(7)9/h8H,2H2,1H3,(H,6,9)
