16
gdb 11657	3.11537	1.88831	1.51969	2.6413	66.33	-0.2454	-0.0303	0.2151	869.2381	0.130057	-383.692429	-383.685146	-383.684202	-383.724158	27.479	
O	 0.1635065667	 1.3792315361	-0.2060640884	-0.437366
C	 0.029763941	 0.0064617571	-0.0418645145	 0.15614
C	-0.0085110601	-0.6693901328	 1.3627587723	-0.099249
C	-1.4676869994	-0.1421697537	 1.5281592365	-0.289868
C	-1.39875081	-0.6789048957	 0.0711543305	 0.208298
C	-0.615493466	-1.9045659503	 0.6372436797	-0.264685
C	-2.4697306312	-0.6727224301	-0.9570287727	 0.025332
O	-3.5274549224	-0.1043457472	-0.8317209563	-0.249136
H	-0.3900067696	 1.8404817159	 0.4329784027	 0.290762
H	 0.70276878	-0.4543152956	-0.7692338769	 0.0926
H	 0.7809318852	-0.6737409169	 2.114651575	 0.083665
H	-2.1123877495	-0.6995644142	 2.2110129914	 0.109191
H	-1.6204444083	 0.9310678301	 1.6702372372	 0.090899
H	 0.0352008746	-2.4446804876	-0.05566932	 0.102383
H	-1.2016143105	-2.584938838	 1.2575084408	 0.110358
H	-2.2199316303	-1.2269609472	-1.8915141575	 0.070677
69.5582	182.7753	205.12	271.6949	330.7829	401.2716	494.3142	533.0456	604.005	704.1577	728.0684	845.608	860.7926	902.4266	943.0787	979.9661	1006.2026	1021.7723	1061.7611	1074.0151	1123.424	1144.1481	1152.1161	1180.3615	1210.8551	1234.9884	1239.9559	1285.8088	1312.8938	1421.8701	1451.5881	1505.8809	1544.9832	1809.0547	2861.6906	3058.7689	3061.6363	3089.2873	3113.8173	3118.4064	3133.5847	3813.0966
OC1C2CC1(C2)C=O	O[C@H]1[C@H]2C[C@@]1(C2)C=O	
InChI=1S/C6H8O2/c7-3-6-1-4(2-6)5(6)8/h3-5,8H,1-2H2	InChI=1S/C6H8O2/c7-3-6-1-4(2-6)5(6)8/h3-5,8H,1-2H2/t4-,5-,6+/m0/s1
