19
gdb 82144	3.11071	1.14604	0.97268	3.2764	75.37	-0.2488	-0.0236	0.2252	1237.5723	0.157181	-422.995425	-422.986498	-422.985553	-423.029985	32.553	
C	 0.0007355658	 1.6444467056	-0.0620177078	-0.41853
C	 0.0329810929	 0.121623739	-0.0489777483	-0.024709
C	 1.0695202049	-0.5578209645	-0.9602021216	 0.022881
O	 2.368248396	-0.1784054987	-0.4837173715	-0.245637
C	 1.6953334381	-1.2612691348	 0.1680930187	 0.007043
C	 0.7016286988	-0.657196091	 1.1696586515	-0.054361
C	 1.2877526447	 0.1210881907	 2.3534486142	-0.286534
C	 0.2052207162	 0.5988803799	 3.2943703394	 0.15931
O	-0.0443040598	 1.749455772	 3.5467342901	-0.236979
H	 1.0134288349	 2.0532850539	-0.0207975855	 0.136315
H	-0.4716393808	 2.0070994477	-0.9814329261	 0.113516
H	-0.5616625965	 2.0448854888	 0.7860669698	 0.137385
H	-0.9662667164	-0.2872002454	-0.2290217191	 0.079665
H	 0.9903719327	-0.8336042578	-2.0056224773	 0.10467
H	 2.2167512592	-2.2109963341	 0.2162855096	 0.103241
H	 0.0138279675	-1.429206666	 1.5329735761	 0.081143
H	 1.9384690097	-0.5583119134	 2.923683054	 0.115265
H	 1.8858208281	 0.9697823353	 2.017504849	 0.136831
H	-0.3892849661	-0.2265044773	 3.7560427549	 0.069483
46.7876	71.5692	130.0754	203.2994	228.32	249.3149	285.6964	398.3428	468.8921	565.3569	603.1532	712.0187	733.8548	832.8573	861.1395	862.2999	877.7687	912.7473	983.1573	1019.9283	1026.4975	1050.7261	1062.9919	1075.896	1138.9187	1147.9888	1192.9956	1217.2052	1238.0257	1246.3143	1267.0191	1294.6211	1357.8023	1369.8257	1394.1658	1415.5596	1430.6053	1467.7676	1492.88	1508.0258	1833.4305	2839.1538	3010.6639	3040.1046	3041.1877	3061.9548	3107.378	3125.0667	3129.3427	3173.4898	3190.166
CC1C2OC2C1CC=O	C[C@H]1[C@H]2O[C@H]2[C@H]1CC=O	
InChI=1S/C7H10O2/c1-4-5(2-3-8)7-6(4)9-7/h3-7H,2H2,1H3	InChI=1S/C7H10O2/c1-4-5(2-3-8)7-6(4)9-7/h3-7H,2H2,1H3/t4-,5+,6-,7+/m1/s1
