23
gdb 100026	2.459	1.27716	1.17953	2.0929	81.66	-0.2388	0.0741	0.3129	1230.2545	0.202371	-425.404901	-425.394334	-425.39339	-425.439804	40.487	
C	-0.4477990908	 1.2914438384	-0.1105004707	-0.244008
O	-0.1019777591	-0.0758503204	-0.1097240896	-0.3018
C	 0.7877389246	-0.5605861454	-1.1428205065	 0.281127
C	 0.2654947732	-0.2172559403	-2.5462384175	-0.422991
C	 2.1945692094	 0.0075591355	-0.9260158867	-0.443516
C	 0.6961946598	-2.0788445135	-0.9362888021	 0.464847
O	-0.6342439453	-2.5236996943	-0.9591821109	-0.483504
C	 1.6617454305	-3.0403158152	-1.5491345735	-0.32292
C	 1.6396654706	-2.8462826824	-0.0428773357	-0.339031
H	 0.4311287606	 1.9487067651	-0.0632135738	 0.108043
H	-1.0491976936	 1.5765765255	-0.9840505504	 0.1122
H	-1.0464937248	 1.4582094897	 0.7890170582	 0.127417
H	 0.2549169362	 0.861522093	-2.7243999416	 0.106393
H	 0.9164433549	-0.6708643764	-3.2991140588	 0.120365
H	-0.7413995711	-0.6166713826	-2.682674749	 0.132136
H	 2.506531617	-0.1158911245	 0.1134942146	 0.128438
H	 2.9243660589	-0.4836372948	-1.5755438461	 0.122274
H	 2.2216107536	 1.0742481653	-1.1661628333	 0.116012
H	-1.0981456583	-1.9385288575	-0.3454187838	 0.282539
H	 1.2332093984	-3.9530343428	-1.947041676	 0.123121
H	 2.5108926196	-2.658938159	-2.1053590431	 0.10915
H	 2.480436372	-2.3463709558	 0.4233809689	 0.108121
H	 1.1890988737	-3.6331102577	 0.5507581172	 0.115586
65.6577	84.5138	176.9599	195.2414	242.7235	254.4151	284.6639	305.8362	341.791	353.3769	367.7028	398.0236	461.7461	487.0663	508.4427	545.5889	659.6473	773.7353	791.7685	885.9432	902.6768	925.7492	946.8355	960.5149	986.9241	1014.5021	1052.6586	1077.8818	1112.4394	1177.5672	1181.4714	1188.4126	1192.9486	1204.0837	1221.9368	1272.6198	1324.94	1392.5176	1405.6351	1418.3137	1450.8601	1473.2831	1479.3035	1486.6494	1498.6994	1505.3073	1509.0613	1510.3957	1518.1468	2998.3834	3044.8534	3053.0546	3053.7049	3106.3481	3111.1112	3117.7042	3131.199	3137.6079	3138.8875	3142.2221	3220.0386	3234.6659	3763.5252
COC(C)(C)C1(O)CC1	COC(C)(C)C1(O)CC1	
InChI=1S/C7H14O2/c1-6(2,9-3)7(8)4-5-7/h8H,4-5H2,1-3H3	InChI=1S/C7H14O2/c1-6(2,9-3)7(8)4-5-7/h8H,4-5H2,1-3H3
