17
gdb 48881	3.2936	1.5386	1.29358	2.8106	71.37	-0.2372	-0.0339	0.2033	984.7693	0.136771	-421.799038	-421.791923	-421.790979	-421.830755	27.857	
O	-0.0506582982	-0.0200860038	 0.0791274055	-0.252262
C	 0.0343203435	 1.1775518909	-0.0362910395	 0.06103
C	 1.3199631832	 1.9379459145	-0.0550857565	 0.193599
C	 1.3961165987	 3.205619288	 0.8789032544	-0.282186
C	 2.0065556781	 3.9905112589	-0.2770297668	-0.104297
C	 3.045808436	 3.1236198867	-0.9614483602	 0.123471
O	 3.6464677723	 2.0703103708	-0.2457363013	-0.273499
C	 2.6089163741	 1.1266083183	 0.0616936269	-0.121625
C	 1.6094652356	 2.8876064214	-1.2673188776	-0.179638
H	-0.8770614866	 1.8113544874	-0.1361595348	 0.078477
H	 0.3970592839	 3.5701212801	 1.1341740795	 0.111202
H	 1.9872951056	 3.0866796309	 1.7923191382	 0.114077
H	 1.9753305605	 5.0659409604	-0.4086448524	 0.092068
H	 3.7026754133	 3.5850027343	-1.6892031398	 0.109424
H	 2.7804687854	 0.7377676243	 1.0692166988	 0.118965
H	 2.6204043572	 0.2890981717	-0.6484466965	 0.110458
H	 1.1226109175	 2.903398305	-2.2334075579	 0.100735
81.2809	178.8231	227.5193	299.7992	384.6292	413.5572	508.0456	614.0213	719.8554	722.1332	766.5972	797.8902	836.886	853.7088	936.6736	956.2495	978.9622	1010.7745	1028.2496	1033.9288	1037.9897	1068.2374	1114.0177	1130.4745	1144.6939	1163.5374	1213.9029	1221.5757	1273.2519	1278.5537	1316.8511	1377.2608	1402.8997	1429.2143	1488.0014	1513.6307	1816.1984	2865.454	3019.8376	3045.3605	3093.1729	3101.5321	3176.3275	3190.3812	3203.6318
O=CC12CC3C(OC1)C23	O=C[C@@]12C[C@H]3[C@@H](OC1)[C@@H]23	
InChI=1S/C7H8O2/c8-2-7-1-4-5(7)6(4)9-3-7/h2,4-6H,1,3H2	InChI=1S/C7H8O2/c8-2-7-1-4-5(7)6(4)9-3-7/h2,4-6H,1,3H2/t4-,5+,6-,7+/m1/s1
