21
gdb 41814	2.26466	1.98341	1.48598	2.0116	76.69	-0.2497	0.0736	0.3232	988.5683	0.186691	-424.240873	-424.233478	-424.232534	-424.27315	29.872	
C	-0.0691785038	 1.3903704751	-0.3490857024	-0.209297
C	 1.2073622004	 2.0254192802	 0.2681872689	-0.20948
C	 2.0153706463	 0.870600887	 0.9108295269	 0.135332
C	 1.5121815634	-0.3763945466	 0.1679220694	-0.26871
C	 0.0006615935	-0.124754617	-0.0209267796	-0.003833
C	-0.8049581724	-0.4735404758	 1.2348808254	-0.096774
O	-0.4608844116	 0.3135321924	 2.3679561382	-0.239741
C	 0.8210848894	 0.0624749721	 2.8831327991	 0.02274
O	 1.84235451	 0.8454617799	 2.3340361015	-0.266303
H	-0.9832883365	 1.8399821469	 0.0472935573	 0.106257
H	-0.0841744728	 1.5378665966	-1.4328803431	 0.094125
H	 1.8090823097	 2.5155266098	-0.5037664132	 0.09283
H	 0.9834353741	 2.7721218514	 1.0319337448	 0.115217
H	 3.0911558217	 1.014963873	 0.7777124022	 0.07845
H	 2.0039595876	-0.4016675437	-0.8111833827	 0.100765
H	 1.7530554416	-1.3170856562	 0.6714135517	 0.101797
H	-0.4023521133	-0.7324895151	-0.838935598	 0.06604
H	-1.8693990583	-0.2851917641	 1.0613593834	 0.107233
H	-0.6864386455	-1.5431519316	 1.4744063184	 0.086965
H	 0.7997735488	 0.3355319742	 3.9417936493	 0.112304
H	 1.0458943577	-1.0143235186	 2.7888614624	 0.074083
40.7704	183.0737	297.2167	328.8553	367.3161	415.5821	450.4053	496.8851	608.2447	734.8514	744.5928	783.6236	795.4988	826.3944	891.1882	919.135	927.836	966.1375	991.1648	1011.6826	1029.5763	1066.0778	1094.9457	1105.7967	1124.1008	1171.1543	1197.1457	1212.2963	1239.2624	1251.3263	1273.8282	1297.8032	1317.5254	1333.8546	1347.1033	1358.3489	1364.7035	1396.5894	1408.9651	1451.0642	1476.0223	1482.282	1491.3139	1503.5169	1518.5474	2944.7105	2971.3821	3036.9563	3044.4504	3050.6685	3059.2508	3073.308	3076.1946	3088.4366	3093.3292	3094.2339	3121.3017
C1CC2CC1COCO2	C1C[C@@H]2C[C@H]1COCO2	
InChI=1S/C7H12O2/c1-2-7-3-6(1)4-8-5-9-7/h6-7H,1-5H2	InChI=1S/C7H12O2/c1-2-7-3-6(1)4-8-5-9-7/h6-7H,1-5H2/t6-,7+/m0/s1
