15
gdb 19888	4.19869	1.90062	1.59293	1.3032	70.77	-0.2274	0.0319	0.2594	815.4709	0.118525	-325.390038	-325.383432	-325.382488	-325.420486	26.481	
C	-0.308256726	-1.2963403335	-0.238320225	-0.415337
C	-0.0737196253	-0.1290060227	-0.0608917235	 0.27939
C	 0.0883659528	 1.2920368239	 0.0837668173	-0.192755
C	 0.4771824027	 2.110170921	 1.3017423871	-0.114468
C	 1.7467167785	 1.6291404088	 2.0274050903	-0.035715
C	 2.438320966	 0.468442764	 1.4308403025	-0.259455
N	 2.5881586235	 1.7913212652	 0.7865468266	-0.145356
C	 1.3245050529	 2.1840000363	 0.0567902205	-0.030829
H	-0.4872565825	-2.333529783	-0.3788180094	 0.195939
H	-0.6990985196	 1.8238203387	-0.4521889902	 0.127726
H	-0.1967580412	 2.8429167139	 1.7260207413	 0.10213
H	 2.0627007105	 2.0814774627	 2.9617246297	 0.103606
H	 3.3616686279	 0.164595318	 1.9173129731	 0.122093
H	 1.9016747671	-0.3287250472	 0.9374175542	 0.152956
H	 1.4236621828	 2.9586885238	-0.6934179046	 0.110075
134.5694	176.9063	322.6905	361.2406	443.2082	573.2237	607.9746	640.7743	647.0668	684.7654	724.0433	746.494	757.3721	877.3751	899.2323	930.2249	955.8037	1005.6096	1023.3397	1055.5897	1064.2085	1084.6255	1114.8076	1140.8911	1189.6679	1236.9828	1274.4206	1325.6308	1351.2861	1420.0177	1503.064	2225.3605	3100.6337	3130.3767	3163.3266	3184.9416	3199.1781	3248.5892	3500.9866
C#CC1C2C3CN3C12	C#C[C@H]1[C@H]2[C@H]3CN3[C@@H]12	
InChI=1S/C7H7N/c1-2-4-6-5-3-8(5)7(4)6/h1,4-7H,3H2	InChI=1S/C7H7N/c1-2-4-6-5-3-8(5)7(4)6/h1,4-7H,3H2/t4-,5+,6-,7-,8?/m0/s1
