17
gdb 79072	2.21286	2.00745	1.70599	1.2525	71.67	-0.2258	0.0109	0.2367	900.5097	0.136248	-421.789711	-421.782391	-421.781447	-421.820817	30.277	
O	-0.1394717373	 1.5025988871	 0.0283419868	-0.435966
C	-0.0520841226	 0.1065274199	-0.0725310757	 0.126047
C	-1.3473673898	-0.6693569489	-0.0173801466	-0.113182
C	-2.027648223	-0.8108000431	-1.4068292197	-0.087615
C	-1.6403033848	 0.1306802753	-2.4940347221	-0.069974
C	-0.308441546	 0.2109993943	-2.5657267638	-0.174109
C	 0.2891912429	-0.6037570586	-1.4468398796	 0.299895
O	 1.6318911915	-0.9828030065	-1.5419687195	-0.50501
C	-0.8262302896	-1.6414354085	-1.053177071	-0.152955
H	 0.7540417141	 1.858653583	 0.0688644824	 0.284049
H	 0.6443629684	-0.315631934	 0.6649373452	 0.084702
H	-1.9172641196	-0.8709242972	 0.8812430529	 0.090268
H	-3.0173380245	-1.2518255383	-1.3738405419	 0.08721
H	-2.3545435363	 0.7000557803	-3.0752417029	 0.100703
H	 0.275085583	 0.8908170195	-3.1741800868	 0.097094
H	 1.7696647748	-1.3713880015	-2.4127332868	 0.27808
H	-0.7541071413	-2.7216768727	-1.0307656013	 0.090764
177.2072	249.7291	278.0556	297.5024	312.2313	370.2304	466.5513	531.3133	600.3593	607.168	732.1633	739.61	745.1194	779.5746	812.3213	825.6001	908.6	916.0465	943.8147	975.6031	983.7132	1016.7086	1052.2649	1074.7922	1098.0727	1128.6039	1148.2611	1182.4376	1205.304	1249.5729	1279.7991	1316.9615	1352.6797	1372.4098	1377.2852	1438.6465	1645.2067	3015.48	3176.4517	3184.4954	3197.2937	3199.6561	3224.1942	3801.7579	3815.072
OC1C2C3C=CC1(O)C23	O[C@H]1[C@H]2[C@H]3C=C[C@]1(O)[C@@H]23	
InChI=1S/C7H8O2/c8-6-4-3-1-2-7(6,9)5(3)4/h1-6,8-9H	InChI=1S/C7H8O2/c8-6-4-3-1-2-7(6,9)5(3)4/h1-6,8-9H/t3-,4+,5-,6+,7+/m1/s1
