18
gdb 32828	3.05884	1.27686	0.94822	2.1985	74.96	-0.1669	0.0569	0.2238	1218.3436	0.148875	-439.120886	-439.112316	-439.111372	-439.154239	32.887	
O	-0.1417646889	 0.3452531217	 1.2484698944	-0.416237
C	-0.1457444434	 0.2290038919	-0.1858526296	-0.079464
C	-1.3935715339	-0.5447281694	-0.6061008127	-0.325521
C	-1.3890013364	-2.0085223995	-0.2611092362	 0.132256
C	-1.2450134935	-2.5753329953	 0.9921295962	 0.295863
O	-1.039171172	-2.0467524772	 2.2159407371	-0.44721
N	-1.3541112655	-3.9310690977	 0.8786156474	-0.28876
C	-1.5678961141	-4.2708779172	-0.4457921872	-0.101885
C	-1.5899064277	-3.1046405269	-1.1633479802	-0.240518
H	 0.7199461631	 0.6656634686	 1.5310681774	 0.297151
H	-0.1562076357	 1.23609881	-0.6263201332	 0.094371
H	 0.7562663981	-0.294507603	-0.5284573959	 0.103673
H	-2.2590819853	-0.0260036816	-0.1686055813	 0.112908
H	-1.4945105778	-0.4394528	-1.6920300475	 0.106317
H	-0.7393174759	-1.127604456	 2.072445513	 0.306241
H	-1.2603572655	-4.5632468754	 1.6539454733	 0.259582
H	-1.6859142666	-5.2993640341	-0.7426381971	 0.109656
H	-1.7448356888	-3.0207642689	-2.2293230579	 0.081577
48.9638	162.4788	208.8178	241.9822	279.5574	310.6447	338.9293	447.8583	460.3462	476.0732	619.6369	625.5473	648.1757	674.7631	717.0433	732.305	806.5896	863.9172	910.0589	945.9607	1036.5663	1075.1104	1085.6732	1092.5847	1156.166	1215.2594	1252.718	1259.7562	1275.0866	1320.554	1371.4902	1409.1249	1425.5452	1442.176	1467.7517	1512.2582	1530.8212	1578.7446	1637.3899	2995.7604	3001.2027	3046.4687	3069.4679	3232.9898	3277.0232	3540.0307	3686.531	3834.4875
OCCC1=C(O)NC=C1	OCCc1c(O)[nH]cc1	
InChI=1S/C6H9NO2/c8-4-2-5-1-3-7-6(5)9/h1,3,7-9H,2,4H2	InChI=1S/C6H9NO2/c8-4-2-5-1-3-7-6(5)9/h1,3,7-9H,2,4H2
