18
gdb 7509	3.03615	1.29551	1.04231	1.5625	78.09	-0.226	0.0426	0.2686	1204.1769	0.150732	-347.768915	-347.759288	-347.758344	-347.804529	34.026	
C	 0.0944370135	 1.51414193	 0.0414943096	-0.499893
C	 0.0447813668	 0.0593918403	 0.0395424613	 0.003279
C	-0.0018856286	-1.1453536915	 0.0306494927	 0.088889
C	 0.0019224746	-2.5854914053	 0.0128106551	 0.216784
O	 1.0294899709	-3.1719206464	-0.7498025192	-0.44969
C	-0.4626101126	-3.3504671458	 1.2465340272	-0.346482
C	-1.2889997048	-3.3701522944	-0.0176508642	-0.025278
C	-2.637168185	-2.6939274826	-0.088938918	-0.412355
H	 0.9875765171	 1.8755909548	-0.4802898994	 0.150573
H	-0.7776427694	 1.94541597	-0.4626221821	 0.149505
H	 0.1227640057	 1.9151415447	 1.0608834606	 0.146989
H	 1.8680597806	-2.8708866073	-0.3817536014	 0.28166
H	 0.1093108563	-4.2368781978	 1.4971474318	 0.115432
H	-0.8272779528	-2.7745003617	 2.090408334	 0.115768
H	-1.1923140495	-4.2788838077	-0.6051986581	 0.102614
H	-2.6368442994	-1.753455434	 0.4690969913	 0.124201
H	-2.9106472362	-2.4655953462	-1.1244803026	 0.122146
H	-3.4164877571	-3.3383697291	 0.3320885212	 0.115858
15.7511	89.5316	116.0917	190.9992	222.7949	234.027	298.3504	329.1718	357.9118	391.6528	445.4726	554.2956	576.5559	604.9872	795.943	855.3822	892.1635	927.1076	989.4321	1038.5001	1051.0058	1054.3498	1057.7966	1102.0686	1131.0505	1189.6286	1218.437	1303.919	1362.6618	1402.6568	1414.4165	1422.3487	1475.0996	1475.9534	1479.7623	1491.4905	1501.9654	2360.2018	3025.3472	3033.5481	3084.7789	3087.3582	3095.1877	3111.343	3131.4024	3153.8359	3226.5334	3793.4143
CC#CC1(O)CC1C	CC#C[C@@]1(O)C[C@H]1C	
InChI=1S/C7H10O/c1-3-4-7(8)5-6(7)2/h6,8H,5H2,1-2H3	InChI=1S/C7H10O/c1-3-4-7(8)5-6(7)2/h6,8H,5H2,1-2H3/t6-,7-/m1/s1
