15
gdb 22766	1.8541	1.63675	1.05437	3.9894	69.69	-0.2755	-0.03	0.2455	1149.4993	0.110436	-453.886208	-453.877301	-453.876357	-453.920367	31.518	
C	-0.6059371145	 1.3984518604	 0.0411358632	-0.398686
C	-0.0368012039	-0.0056151561	-0.020989796	 0.0603
O	 1.1890061216	-0.0904417423	-0.821781236	-0.297909
C	 1.9779901497	-0.5820804625	 0.2820396163	-0.09869
C	 3.0918313175	 0.3025040831	 0.6342626591	 0.302799
N	 3.9678920705	 1.0045524096	 0.9066024713	-0.319259
C	 0.7423082764	-0.5150973455	 1.1678869437	 0.335641
N	 0.4365547987	-0.7680142227	 2.3633945079	-0.206214
O	 1.5384710926	-1.2287305401	 3.0844117787	-0.379136
H	 0.136275223	 2.1035461386	 0.4235627157	 0.14061
H	-0.9141985377	 1.7182038404	-0.9584045252	 0.13909
H	-1.4811112124	 1.4148977316	 0.6979171211	 0.137773
H	-0.7817939599	-0.7171777768	-0.3991443407	 0.113156
H	 2.3602937838	-1.5956923676	 0.1059015236	 0.150664
H	 1.1785526647	-1.3519748501	 3.9702646772	 0.319861
57.9719	105.6123	142.93	205.8135	224.6862	246.373	312.9398	367.0177	453.8109	466.4928	530.8472	569.5782	595.6172	732.0239	859.0712	878.5929	940.6527	1001.3983	1008.6074	1060.7811	1083.0614	1114.5133	1172.3665	1218.2887	1288.8424	1321.3391	1371.6842	1404.1593	1422.1584	1483.1534	1490.9393	1812.5891	2360.0858	3028.051	3033.0866	3045.6876	3121.9867	3132.4409	3810.4264
CC1OC(C#N)C1=NO	C[C@H]1O[C@@H](C#N)C1=NO	
InChI=1S/C5H6N2O2/c1-3-5(7-8)4(2-6)9-3/h3-4,8H,1H3	InChI=1S/C5H6N2O2/c1-3-5(7-8)4(2-6)9-3/h3-4,8H,1H3/t3-,4+/m1/s1
