12
gdb 23933	9.61341	0.70253	0.65469	1.498	94.98	-0.2343	-0.0634	0.1709	1580.2953	0.077407	-398.323045	-398.315536	-398.314592	-398.355647	27.232	
C	 0.1329491394	-3.7236825272	-0.0199103813	-0.584284
C	 0.0728311803	-2.5170475787	-0.0123409358	 0.246704
C	 0.0066134674	-1.1623649457	-0.0039442293	 0.141043
C	-0.0537440915	 0.0485398187	 0.0034804246	 0.290997
C	-0.1197083547	 1.450444538	 0.0120390881	 0.040091
N	-1.17764446	 2.2153521057	 0.030506804	-0.300271
C	-0.6767969646	 3.5004079911	 0.0306877795	-0.12447
C	 0.6800039974	 3.4511206156	 0.0118884824	-0.035854
O	 1.0570161102	 2.1469387699	-0.0003490291	-0.158888
H	 0.1846757745	-4.7844602416	-0.0265127727	 0.199787
H	-1.3239109733	 4.362827015	 0.0441867846	 0.131463
H	 1.4702716648	 4.1820164494	 0.0050490449	 0.15368
74.5249	85.6172	226.7477	226.7771	430.2498	447.47	491.5683	528.7269	543.1751	601.7963	617.1635	626.1156	756.348	780.1553	873.8072	921.0481	939.2227	1021.1383	1120.7081	1145.142	1164.015	1276.7789	1387.7962	1519.7987	1577.1465	2183.3466	2343.8166	3265.5048	3299.8635	3502.0006
C#CC#CC1=NC=CO1	C#CC#Cc1ncco1	
InChI=1S/C7H3NO/c1-2-3-4-7-8-5-6-9-7/h1,5-6H	InChI=1S/C7H3NO/c1-2-3-4-7-8-5-6-9-7/h1,5-6H
