15
gdb 25939	2.90349	1.57424	1.02734	5.3702	70.49	-0.2167	-0.0206	0.1961	1091.3339	0.112165	-453.98799	-453.979948	-453.979004	-454.021054	29.626	
C	-0.027073241	 1.5253196556	-0.0308601513	-0.507549
C	-0.0182207916	 0.0114036104	 0.0916709694	 0.410504
O	-0.0293566154	-0.5625768711	 1.1487406702	-0.286146
N	 0.0022264546	-0.6785436349	-1.1382289055	-0.185159
C	 0.0146919327	-0.102055944	-2.4264629476	-0.104627
C	 0.0321094041	-1.097655533	-3.3095054173	-0.050061
O	 0.0317353409	-2.3129828451	-2.6649511319	-0.224147
C	 0.0131004492	-2.0830556921	-1.2970211527	 0.48404
N	 0.0075529196	-2.9673395689	-0.4024467076	-0.53864
H	 0.8627639045	 1.8910879889	-0.5534074597	 0.145977
H	-0.9083901298	 1.8788128918	-0.5758572377	 0.146063
H	-0.0427592356	 1.9342733658	 0.9784583205	 0.158573
H	 0.0098807792	 0.9603088285	-2.5817795393	 0.158145
H	 0.0457516748	-1.1183857775	-4.3850697426	 0.159412
H	 0.0187763638	-3.8918154744	-0.8294858769	 0.233615
67.6871	103.099	191.9953	222.6727	239.7195	359.9685	455.2739	520.3251	564.487	581.6703	639.4607	701.2522	741.3303	760.3692	798.5583	801.8164	893.0361	926.7863	987.7503	1050.5398	1062.9187	1108.1719	1167.1568	1214.6974	1260.7399	1304.6504	1386.7318	1415.0952	1474.458	1484.9001	1678.51	1769.9118	1839.561	3043.1311	3107.6041	3166.6268	3295.7589	3326.4054	3519.7663
CC(=O)N1C=COC1=N	CC(=O)N1C=CO[C@H]1[NH]	
InChI=1S/C5H6N2O2/c1-4(8)7-2-3-9-5(7)6/h2-3,6H,1H3	InChI=1S/C5H7N2O2/c1-4(8)7-2-3-9-5(7)6/h2-3,5-6H,1H3/t5-/m0/s1
