24
gdb 102463	2.43236	0.95759	0.84621	3.2548	86.98	-0.2378	0.0368	0.2745	1562.6233	0.215669	-405.595126	-405.583435	-405.582491	-405.633085	40.896	
C	-1.0026246652	 0.6472638808	-1.2556894631	-0.400089
C	-0.3677352068	-0.6850586191	-0.8488999548	-0.16361
C	 1.141309032	-0.7810417345	-1.1398394551	-0.097747
C	 1.9993948841	 0.3115843047	-0.4462506193	-0.186257
C	 1.8760340724	 0.3729382562	 1.0803654035	-0.377086
C	 1.6568028712	-2.1649676689	-0.7358084971	 0.421436
O	 1.3166244907	-2.7161688765	 0.2996737349	-0.388416
N	 2.5518581955	-2.7225159007	-1.6051228684	-0.314349
C	 3.1877340412	-4.0021246558	-1.361974886	-0.335072
H	-0.6073518653	 1.486517782	-0.6749768072	 0.120119
H	-0.8294195173	 0.8678093352	-2.3157127051	 0.108231
H	-2.0852334732	 0.6222509119	-1.0973850881	 0.114757
H	-0.5333795726	-0.8844078812	 0.2134516576	 0.126608
H	-0.870030925	-1.5005361924	-1.3834251974	 0.095738
H	 1.287630361	-0.6583000908	-2.2227699576	 0.057742
H	 3.0487337456	 0.1407087666	-0.7183726021	 0.091223
H	 1.7338403778	 1.2834280121	-0.8776601557	 0.098111
H	 0.8728318092	 0.6796475731	 1.3921211049	 0.11709
H	 2.0772324237	-0.6005120977	 1.5337291141	 0.146062
H	 2.5835506716	 1.1011085323	 1.489279827	 0.104909
H	 2.7810249188	-2.2199278046	-2.4459486274	 0.242987
H	 4.2767377536	-3.9025463515	-1.2869396373	 0.122952
H	 2.7983497312	-4.3794939361	-0.4156804167	 0.171391
H	 2.9568179259	-4.7209981452	-2.1561909437	 0.123268
30.4789	83.0813	84.393	109.5093	120.8011	176.139	206.5757	217.9769	263.2355	286.7614	313.1597	343.7955	386.0913	472.1657	540.7509	690.5574	753.6221	768.9282	805.0158	844.576	902.5273	920.0812	1015.5815	1022.7201	1051.7443	1068.461	1113.1364	1134.7636	1154.5837	1170.7669	1183.0016	1219.9145	1269.1764	1294.5176	1321.0505	1350.9251	1381.2823	1405.3364	1412.189	1415.4388	1436.4874	1484.1072	1488.1307	1493.0735	1499.0203	1500.3633	1502.482	1505.3836	1516.7425	1556.6116	1762.9137	2994.1468	3024.5827	3025.026	3029.7908	3035.8752	3042.7935	3058.3361	3075.677	3083.159	3101.619	3104.0253	3107.8958	3130.3492	3152.6366	3651.9137
CCC(CC)C(=O)NC	CCC(CC)C(=O)NC	
InChI=1S/C7H15NO/c1-4-6(5-2)7(9)8-3/h6H,4-5H2,1-3H3,(H,8,9)	InChI=1S/C7H15NO/c1-4-6(5-2)7(9)8-3/h6H,4-5H2,1-3H3,(H,8,9)
