19
gdb 63784	3.52626	1.26832	1.17942	3.5713	76.93	-0.2353	0.02	0.2552	1126.2697	0.158916	-419.181102	-419.172635	-419.171691	-419.213785	32.969	
C	 0.3393097469	 1.4400270099	 0.0339218375	-0.420725
C	 0.0737681257	-0.0580174269	 0.0220449304	 0.288745
C	-1.3984437528	-0.3878463146	-0.222707153	-0.444742
N	 0.9988712787	-0.8182044181	-0.8942861058	-0.357696
C	 1.368030637	-1.765129845	 0.1923674345	-0.150845
C	 0.6204463806	-0.8856892408	 1.2187904287	 0.06088
O	 1.8968487844	-0.4254679162	 1.7534722038	-0.274697
C	 2.6104664715	-1.284567475	 0.9209788682	 0.474446
N	 3.8352950402	-1.5308290737	 0.8645365055	-0.549625
H	 1.3883310968	 1.6408212368	 0.2574970059	 0.137485
H	 0.1076375226	 1.8713448408	-0.9454753055	 0.116837
H	-0.281371943	 1.9426138656	 0.7837129165	 0.112179
H	-1.7062695656	-0.0411399411	-1.2154100461	 0.124452
H	-1.5817263057	-1.4668475976	-0.1684740929	 0.116361
H	-2.0404278923	 0.1024550463	 0.5172025136	 0.124159
H	 0.516706486	-1.2689767592	-1.6640728098	 0.220789
H	 1.2363477876	-2.8318060484	 0.0182545623	 0.101083
H	-0.0540334005	-1.2071604627	 2.0118359996	 0.091664
H	 4.3624880718	-0.9721204502	 1.5382611564	 0.22925
91.3523	184.7686	202.8412	219.3931	258.5771	311.0283	362.3903	389.6091	422.1478	491.3335	616.6556	669.5477	729.2953	780.3599	818.2315	867.8948	871.9738	912.6695	941.3987	949.7986	962.734	990.0146	1001.7243	1020.7953	1046.4628	1165.2799	1172.1993	1190.698	1213.5194	1238.8446	1282.5615	1294.8108	1337.9835	1385.2279	1399.322	1419.2519	1478.6468	1480.5752	1499.109	1503.3206	1831.6664	3023.2937	3037.7428	3093.9913	3095.6783	3103.3933	3117.4066	3131.8582	3139.2933	3472.0032	3535.4017
CC1(C)NC2C1OC2=N	CC1(C)N[C@@H]2[C@H]1O[C]2[NH]	
InChI=1S/C6H10N2O/c1-6(2)4-3(8-6)5(7)9-4/h3-4,7-8H,1-2H3	InChI=1S/C6H10N2O/c1-6(2)4-3(8-6)5(7)9-4/h3-4,7-8H,1-2H3/t3-,4-/m1/s1
