15
gdb 6594	6.08868	1.36311	1.36193	4.9278	67.43	-0.2606	-0.0031	0.2575	934.2847	0.117956	-362.614035	-362.606812	-362.605868	-362.645227	27.395	
C	-0.1439400842	 1.4076885485	 0.0119786845	-0.511477
C	 0.0830947592	-0.0677229152	-0.0025923751	 0.381581
C	 0.6774035163	-0.9755148898	-1.1163983694	-0.28354
C	 0.051274151	-1.8653123028	-0.0133406951	 0.323713
C	 0.7269072283	-0.9894725237	 1.0715297373	-0.283546
O	-1.1181823496	-0.9665717474	 0.0188277111	-0.354582
C	-0.1645460187	-3.2919584189	-0.0175684246	 0.177185
N	-0.3005758356	-4.4394626065	-0.0218333785	-0.343345
H	 0.8139210446	 1.9367082221	-0.0057796563	 0.134871
H	-0.7262371627	 1.7139617723	-0.8618401853	 0.142943
H	-0.6869174881	 1.7024082082	 0.9146143541	 0.142957
H	 0.1314614447	-0.972813804	-2.0597847698	 0.125493
H	 1.7622712554	-1.0040627786	-1.2388856389	 0.111127
H	 1.8161979344	-1.0192616578	 1.1444530819	 0.11113
H	 0.224192575	-0.9989689165	 2.0385995642	 0.125492
143.3101	147.1021	189.3465	308.9532	313.6802	499.9268	520.4795	521.7957	555.6465	610.5065	638.5333	707.376	785.2985	922.5646	954.8397	957.929	985.4066	1064.8753	1093.2226	1097.2361	1130.2542	1168.0664	1168.7626	1199.417	1248.1724	1363.6712	1418.9965	1466.1702	1475.8729	1487.8782	1517.8232	2360.767	3043.4983	3069.5836	3078.0684	3118.2761	3121.3925	3158.8557	3163.1801
CC12CC(C1)(O2)C#N	C[C@@]12C[C@@](C1)(O2)C#N	
InChI=1S/C6H7NO/c1-5-2-6(3-5,4-7)8-5/h2-3H2,1H3	InChI=1S/C6H7NO/c1-5-2-6(3-5,4-7)8-5/h2-3H2,1H3/t5-,6+
