18
gdb 16680	3.95694	1.72227	1.57955	3.1819	71.65	-0.2304	-0.0026	0.2277	886.9362	0.155442	-347.81689	-347.810003	-347.809059	-347.847671	27.54	
C	-0.1525748325	 1.5287684663	 0.0554129343	-0.434526
C	 0.0183945778	 0.0156799659	 0.0146677166	 0.039521
C	 0.7716371169	-0.6089560324	-1.205128691	-0.028873
C	 2.0986859144	-0.2782410932	-0.4632839388	-0.247536
C	 1.2407334652	-0.5866183794	 0.8103382504	-0.129805
C	 0.9754062447	-2.0687154581	 0.5931951999	 0.434554
O	 1.0149830885	-2.9758122381	 1.3797338128	-0.33828
C	 0.6257054202	-2.1153261007	-0.9149561925	-0.337641
H	 0.7755380816	 2.0740129617	-0.1354814323	 0.121169
H	-0.8836444083	 1.8470505942	-0.6960698485	 0.120638
H	-0.5269368623	 1.8459494301	 1.0343093774	 0.123661
H	-0.9460344037	-0.4548529408	 0.2413894392	 0.074311
H	 0.5839994985	-0.2701196148	-2.2243538847	 0.067334
H	 2.9668115154	-0.9145320713	-0.6578128753	 0.103251
H	 2.3921330908	 0.7688026504	-0.5279676795	 0.111473
H	 1.5148988747	-0.2715626756	 1.8153657802	 0.077355
H	-0.3836516823	-2.5078433895	-1.0733925604	 0.121764
H	 1.3300941403	-2.7467209647	-1.4655399877	 0.12163
138.2104	199.4554	255.6108	289.7796	426.7848	444.8585	513.9814	593.1828	612.4631	764.4238	779.634	810.6319	832.5869	882.1033	940.6207	960.9235	965.6851	1004.0622	1051.6623	1065.6252	1080.9224	1085.8774	1108.3479	1163.7155	1170.5775	1215.1717	1234.1513	1250.3961	1268.4245	1277.5249	1300.3305	1397.4755	1416.63	1461.3627	1495.3455	1496.5971	1523.2992	1869.1253	3026.0476	3036.1354	3054.1892	3065.7207	3095.0837	3100.6773	3108.4032	3114.2127	3139.2075	3143.7831
CC1C2CC1C(=O)C2	C[C@H]1[C@H]2C[C@@H]1C(=O)C2	
InChI=1S/C7H10O/c1-4-5-2-6(4)7(8)3-5/h4-6H,2-3H2,1H3	InChI=1S/C7H10O/c1-4-5-2-6(4)7(8)3-5/h4-6H,2-3H2,1H3/t4-,5-,6-/m0/s1
