22
gdb 113667	3.48208	0.8232	0.75404	3.6223	84.72	-0.2376	-0.0142	0.2233	1647.6817	0.19228	-404.351046	-404.340535	-404.339591	-404.387582	37.483	
C	-0.3071476497	 1.804551717	-0.7136205344	-0.378675
C	 0.0046478128	 0.5240310164	 0.0699261181	-0.192806
C	-1.2324593123	-0.3232445492	 0.2596891461	 0.008969
N	-1.6376046352	-1.1704480566	-0.8554595915	-0.312317
C	-1.2154811407	-1.8247221192	 0.3980376384	-0.157735
C	 0.0588875561	-2.6231718418	 0.3818080443	 0.407903
O	 0.9458515219	-2.4322255472	-0.4195639566	-0.310797
C	 0.1660711072	-3.6819487403	 1.4726069858	-0.286857
C	 1.5069034715	-4.4093466577	 1.4865468321	-0.37851
H	 0.5932266915	 2.4115953402	-0.8463835263	 0.114039
H	-0.7000243433	 1.5608454289	-1.7055224801	 0.130808
H	-1.0518466175	 2.422269799	-0.1980987967	 0.104954
H	 0.7568204009	-0.0672853344	-0.4562752604	 0.144744
H	 0.4151036806	 0.7781193762	 1.055855709	 0.089994
H	-2.0287829084	 0.1620571214	 0.8271824291	 0.084007
H	-2.6499491373	-1.2165954283	-0.9351857532	 0.235155
H	-1.993396618	-2.2402524148	 1.036350895	 0.081795
H	-0.0372481614	-3.1946532661	 2.4370161749	 0.12049
H	-0.6670097957	-4.3863373956	 1.332798761	 0.121972
H	 1.5302000811	-5.1657206358	 2.2760041967	 0.108003
H	 1.6914605788	-4.900161935	 0.5278466167	 0.134634
H	 2.3287533973	-3.7082387772	 1.6533915618	 0.130231
40.5162	72.7257	86.6882	131.3804	181.2034	202.3745	225.5082	247.7609	303.489	361.2027	419.8473	469.6134	587.7674	655.504	763.0533	783.8283	815.5342	847.2598	878.7556	910.4974	957.0516	995.2943	1024.9812	1040.4959	1054.3184	1089.5226	1100.2065	1127.6082	1150.3889	1193.1889	1230.2777	1257.1309	1275.7171	1311.2161	1345.5144	1361.7916	1407.4407	1413.3522	1429.3632	1451.1088	1471.3633	1485.7307	1491.6217	1497.2531	1500.096	1508.9194	1803.7948	3008.9289	3028.543	3030.6677	3034.9976	3051.5704	3084.0905	3091.9636	3112.4515	3119.0312	3122.2459	3124.5418	3128.346	3504.6248
CCC1NC1C(=O)CC	CC[C@H]1N[C@H]1C(=O)CC	
InChI=1S/C7H13NO/c1-3-5-7(8-5)6(9)4-2/h5,7-8H,3-4H2,1-2H3	InChI=1S/C7H13NO/c1-3-5-7(8-5)6(9)4-2/h5,7-8H,3-4H2,1-2H3/t5-,7-/m1/s1
