19
gdb 38929	2.76253	2.0367	1.4663	1.8089	73.31	-0.2455	0.0695	0.315	927.2191	0.162388	-422.995788	-422.989086	-422.988142	-423.026869	27.695	
C	 0.1961629491	 1.4987091728	-0.6301937774	-0.244619
C	 1.6260522392	 1.4745154816	-0.0384708849	-0.028035
C	 1.7341762661	 2.0280711389	 1.4137160258	-0.259132
C	 1.6219369303	 0.578304916	 1.9818946577	 0.139458
O	 0.6259694197	 0.3401990318	 2.963655054	-0.263832
C	-0.5622968164	-0.1906305763	 2.4307064036	 0.015537
O	-0.9903084152	 0.4905148208	 1.2825324266	-0.256381
C	-0.1477750997	 0.214622211	 0.1664127507	 0.109086
C	 1.3540948132	 0.0455683376	 0.5545148379	-0.116397
H	-0.4271923182	 2.3677212674	-0.4047108476	 0.108624
H	 0.1856937627	 1.3201572548	-1.7091077587	 0.100783
H	 2.4606445658	 1.6891092124	-0.7052499587	 0.067391
H	 2.6761320981	 2.5286752012	 1.6492918102	 0.099308
H	 0.9061522	 2.6730541482	 1.7152854795	 0.112318
H	 2.5726076676	 0.2273687379	 2.3946299941	 0.083214
H	-0.4347173666	-1.2652121878	 2.2056431498	 0.077188
H	-1.3327120991	-0.0639358345	 3.1945590498	 0.11755
H	-0.5750261932	-0.6100390613	-0.4178740197	 0.074172
H	 1.8464411565	-0.8698862925	 0.2270048872	 0.063767
83.9573	272.635	329.3843	361.675	404.8073	478.5945	528.5657	601.7012	728.8529	733.5547	783.3965	793.8401	876.5689	892.3212	932.0525	947.5652	981.3503	998.0911	1014.7522	1037.5222	1063.2118	1088.4054	1116.1495	1133.7585	1154.8649	1185.9755	1210.6781	1222.3179	1227.9719	1265.9009	1279.7469	1287.6759	1304.6843	1314.6723	1320.7454	1359.4909	1381.4078	1444.7449	1465.799	1478.65	1520.7099	2932.4053	3013.2188	3050.0076	3055.8844	3065.5968	3100.7702	3103.8678	3109.7783	3114.0315	3125.8919
C1C2CC3OCOC1C23	C1[C@H]2C[C@H]3OCO[C@@H]1[C@@H]23	
InChI=1S/C7H10O2/c1-4-2-6-7(4)5(1)8-3-9-6/h4-7H,1-3H2	InChI=1S/C7H10O2/c1-4-2-6-7(4)5(1)8-3-9-6/h4-7H,1-3H2/t4-,5-,6+,7+
