17
gdb 75982	1.99534	1.93246	1.09941	4.6773	69.56	-0.2477	-0.0473	0.2004	1084.567	0.135927	-459.012772	-459.004651	-459.003707	-459.045607	30.802	
O	 0.2380953022	 1.3442872297	-0.1317716101	-0.414293
C	 0.0948473499	-0.0165801029	 0.0695604533	-0.042833
C	 0.770714655	-0.5286568704	 1.3688125361	 0.348401
O	 1.3539552954	 0.2042556641	 2.1200652781	-0.275568
C	 0.5836239547	-2.0236669367	 1.5983656922	-0.304072
C	-0.9177909636	-2.3743071581	 1.6253437926	-0.222477
C	-1.6470780767	-1.9054274066	 0.347962037	-0.3005
C	-1.3801911015	-0.4368857536	 0.1010571917	 0.354899
O	-2.2361243055	 0.4098437582	-0.0234404077	-0.318485
H	-0.6645681401	 1.7020271832	-0.1372819049	 0.29743
H	 0.5673292047	-0.5912792999	-0.7491555045	 0.110796
H	 1.0737477538	-2.5749721064	 0.7846268002	 0.120194
H	 1.0750305036	-2.2926681513	 2.5354163595	 0.132596
H	-1.0449743692	-3.4541701801	 1.7406378125	 0.122047
H	-1.3827023985	-1.9044145387	 2.4998144553	 0.130641
H	-1.2716419312	-2.4742144535	-0.5133187884	 0.127238
H	-2.7256318529	-2.0626578268	 0.4142943271	 0.133986
81.8337	111.7211	202.4108	284.679	309.6978	373.7627	388.4354	419.1637	460.3553	560.9912	591.2013	619.4995	647.9493	828.3505	844.6976	879.5697	890.0025	895.9103	1018.5789	1047.9504	1068.5859	1114.872	1154.9123	1197.8389	1214.439	1235.9774	1279.6753	1327.2208	1341.0365	1354.8746	1366.1192	1415.3069	1466.1037	1474.2825	1498.2094	1798.4951	1850.4239	2938.8475	3025.9098	3027.3771	3045.5715	3094.6275	3115.6451	3118.1676	3683.7862
OC1C(=O)CCCC1=O	OC1C(=O)CCCC1=O	
InChI=1S/C6H8O3/c7-4-2-1-3-5(8)6(4)9/h6,9H,1-3H2	InChI=1S/C6H8O3/c7-4-2-1-3-5(8)6(4)9/h6,9H,1-3H2
