21
gdb 112574	2.91926	1.21308	1.0887	0.7759	80.9	-0.2521	0.0102	0.2622	1246.2418	0.180264	-424.237452	-424.227766	-424.226822	-424.27185	36.146	
C	 0.0474727946	 1.2463596372	-0.4957527307	-0.239482
O	-0.0464536002	-0.160951308	-0.3719173235	-0.243271
C	-1.26409371	-0.5911064609	 0.188957694	 0.160375
O	-2.3709399005	-0.3629007064	-0.6621038678	-0.298074
C	-2.7968159795	-1.5958636707	-1.2829315986	 0.330399
C	-4.3172666182	-1.6900970238	-1.1263624463	-0.417761
C	-2.3822292165	-1.5943483442	-2.7624207475	-0.408068
C	-2.0551653414	-2.6509242806	-0.4938464925	-0.109587
C	-1.2083220021	-2.0865792076	 0.3557221798	-0.122982
H	 1.0397669638	 1.4682113829	-0.8948175559	 0.123556
H	-0.7154241532	 1.6412120968	-1.1774723513	 0.123462
H	-0.0633868801	 1.7432682964	 0.4806202147	 0.102226
H	-1.4451598063	-0.0261770199	 1.1186024718	 0.066473
H	-4.7977189321	-0.837449291	-1.6152682131	 0.123374
H	-4.699095405	-2.6082319662	-1.5843340419	 0.110867
H	-4.5934813427	-1.6847111566	-0.0689473214	 0.120562
H	-1.3006110745	-1.465618347	-2.8455706881	 0.131919
H	-2.6649607531	-2.5328848863	-3.2508633794	 0.108384
H	-2.875487048	-0.771540304	-3.2889577676	 0.119383
H	-2.2124191988	-3.7107855209	-0.6525575501	 0.105973
H	-0.5182957763	-2.5732757192	 1.0314108455	 0.112272
64.6555	112.0151	149.7205	188.2506	210.5883	249.2317	292.1174	320.5588	341.7428	380.7617	445.2733	543.4261	556.4843	648.5501	761.5933	812.839	834.4784	874.1898	927.2278	958.0797	961.6583	982.9755	1001.8573	1014.8072	1051.1523	1108.2726	1124.6059	1177.55	1197.6626	1206.1153	1213.8731	1249.5779	1348.4203	1374.1861	1389.9806	1398.0081	1411.2311	1473.9169	1475.5563	1482.8364	1483.907	1494.1141	1505.1552	1513.1635	1692.7824	2963.4422	2986.1297	3035.4318	3040.9712	3058.5974	3105.4523	3113.2857	3121.3503	3123.5393	3129.8193	3206.1359	3237.3707
COC1OC(C)(C)C=C1	CO[C@H]1OC(C)(C)C=C1	
InChI=1S/C7H12O2/c1-7(2)5-4-6(8-3)9-7/h4-6H,1-3H3	InChI=1S/C7H12O2/c1-7(2)5-4-6(8-3)9-7/h4-6H,1-3H3/t6-/m0/s1
