19
gdb 67504	2.27731	1.61284	1.22454	3.0494	80.3	-0.215	-0.0227	0.1923	1095.434	0.157511	-385.82233	-385.813909	-385.812965	-385.855611	32.336	
C	-0.1568052247	 1.4013446366	 0.1422966766	-0.494315
C	-0.0674415505	-0.0967379155	 0.1268856428	 0.328903
C	-1.3385877097	-0.9665443098	 0.3435281273	-0.098585
C	-1.1954716246	-2.417244009	-0.0103717081	-0.316709
C	-0.543859878	-1.9030559283	 1.2431349346	-0.050594
C	 0.7320629305	-1.0445346601	 1.0223369225	-0.147223
C	 1.1396027326	-0.842736369	-0.4122614636	-0.163671
C	 1.2646621947	-1.8514273477	-1.5233056086	 0.100086
O	 1.1968636794	-1.5649784719	-2.6926103844	-0.257222
H	 0.8326397296	 1.8587069648	 0.2402571806	 0.119627
H	-0.6100621282	 1.7796800883	-0.781998754	 0.13167
H	-0.7729643414	 1.7489433704	 0.9798760376	 0.120645
H	-2.3034611031	-0.5107864058	 0.5268258465	 0.091644
H	-2.0911317702	-3.0051469427	 0.1729925808	 0.117699
H	-0.6456598651	-2.7559552813	-0.881008513	 0.127177
H	-0.8146023653	-2.2787173449	 2.2210305369	 0.093956
H	 1.3907972554	-0.7833802333	 1.8420960401	 0.089576
H	 1.9761999333	-0.1457416355	-0.4890260358	 0.119201
H	 1.4991911252	-2.8907216253	-1.1994062989	 0.088135
52.9306	121.3791	196.6373	211.4275	283.255	300.6689	372.9949	423.9215	544.9594	562.2005	647.9232	697.7993	746.827	764.6515	843.6843	858.5966	913.4697	926.8432	954.3916	975.2617	997.0361	1024.1274	1033.0897	1055.224	1058.9045	1079.7285	1107.4587	1154.2259	1181.3635	1219.7497	1248.789	1298.7475	1319.5485	1334.1886	1410.1877	1415.4669	1452.4879	1482.5478	1496.6062	1501.1478	1807.6085	2867.6281	3020.5258	3078.113	3098.428	3102.3221	3126.1854	3176.988	3187.1675	3197.0813	3207.0042
CC12C3CC3C1C2C=O	C[C@]12[C@H]3C[C@H]3[C@H]1[C@H]2C=O	
InChI=1S/C8H10O/c1-8-5-2-4(5)7(8)6(8)3-9/h3-7H,2H2,1H3	InChI=1S/C8H10O/c1-8-5-2-4(5)7(8)6(8)3-9/h3-7H,2H2,1H3/t4-,5+,6-,7+,8-/m1/s1
