19
gdb 111946	2.74034	1.27913	0.99077	3.0523	78.06	-0.2485	-0.055	0.1935	1234.9023	0.15911	-423.062253	-423.05339	-423.052446	-423.096091	33.145	
C	 0.0935328279	 1.5283129261	-0.0925521238	-0.396887
C	 0.0060013692	 0.0010770264	-0.0429376191	-0.158269
C	-1.436540137	-0.5317574144	 0.0992702832	-0.099075
C	-2.2907220129	-0.2505267317	-1.1199948324	-0.045813
C	-2.5365124021	-1.3347113858	-1.871839032	-0.185197
C	-1.893430886	-2.5027685334	-1.2446003055	 0.344362
O	-1.6357297843	-3.5931705003	-1.7075172626	-0.35269
C	-1.50308831	-2.0793794635	 0.177019387	 0.028839
O	-0.3381698628	-2.7244268765	 0.6129463995	-0.434049
H	 1.1368956844	 1.8547060312	-0.1351379728	 0.120838
H	-0.4143476606	 1.9411982565	-0.9705752578	 0.113967
H	-0.3586735725	 1.9822674883	 0.7966664717	 0.116048
H	 0.4578886475	-0.4325528414	-0.9425256121	 0.103476
H	 0.5842797451	-0.3836316733	 0.8018063407	 0.124969
H	-1.8810270025	-0.0660752296	 0.9879161251	 0.085551
H	-2.6319406492	 0.7517882455	-1.3573861847	 0.12134
H	-3.0638173433	-1.3720802264	-2.8161994239	 0.121948
H	-2.3591991135	-2.3477140327	 0.8219003205	 0.097476
H	-0.2612067271	-3.5158314648	 0.058475599	 0.293166
63.6393	94.2105	181.93	211.998	250.0871	279.4611	303.6764	390.5399	429.6731	510.2237	549.6077	641.6486	710.3603	749.6826	779.8786	806.5879	818.3427	908.2387	952.9978	997.0007	1008.1822	1053.2113	1100.4355	1113.122	1123.781	1154.0053	1202.5735	1220.975	1267.4478	1308.6803	1334.563	1357.5359	1367.8977	1375.6778	1413.4052	1414.3186	1484.4863	1499.8834	1506.7195	1630.7547	1809.5967	2941.0149	3024.5299	3031.0168	3046.383	3083.1189	3103.4618	3108.0663	3187.8916	3226.8558	3712.0126
CCC1C=CC(=O)C1O	CC[C@H]1C=CC(=O)[C@H]1O	
InChI=1S/C7H10O2/c1-2-5-3-4-6(8)7(5)9/h3-5,7,9H,2H2,1H3	InChI=1S/C7H10O2/c1-2-5-3-4-6(8)7(5)9/h3-5,7,9H,2H2,1H3/t5-,7-/m0/s1
