17
gdb 125856	3.16353	1.76192	1.20677	2.5084	81.63	-0.2147	-0.0246	0.1901	1010.5301	0.139252	-380.907126	-380.900058	-380.899114	-380.938551	27.807	
C	-0.0545716311	 1.5553074649	 0.0896438021	-0.391448
C	 0.0178361598	 0.0261626708	 0.0283009116	-0.042633
C	 0.7943136285	-0.5323851129	-1.1529694465	-0.096214
C	 1.8369490249	-1.2753682236	-0.7401757885	-0.219084
C	 1.8489890966	-1.2906519178	 0.7154808372	 0.410333
C	 2.4736442139	-1.7366487309	 1.8684592459	-0.390707
C	 1.6927231747	-1.1803687144	 2.9090043225	 0.013822
N	 0.665861991	-0.4501335897	 2.4548287911	-0.299415
N	 0.7918491073	-0.5397793747	 1.1254610789	 0.049479
H	 0.9474153585	 1.9887115764	 0.0339701861	 0.132528
H	-0.6517806158	 1.9403387691	-0.7418786049	 0.121178
H	-0.5185184693	 1.8657305308	 1.0292143745	 0.148443
H	-0.9999794598	-0.386697823	 0.0487162772	 0.118325
H	 0.5098267307	-0.3243992958	-2.1751717156	 0.113304
H	 2.5549558575	-1.7843004798	-1.3675952908	 0.119072
H	 3.3475679431	-2.3604359082	 1.9557661421	 0.103987
H	 1.8370743095	-1.2844231513	 3.9747109372	 0.10903
120.4939	163.899	223.2913	294.8596	363.3538	483.9864	544.1358	654.0862	667.3966	685.9971	720.5747	768.1236	786.3584	807.2303	879.6251	909.5049	940.4687	952.1218	1028.7721	1055.5075	1075.8024	1084.6145	1117.3933	1173.91	1206.042	1276.6704	1313.389	1337.439	1345.6066	1355.0211	1404.3206	1438.0311	1449.8196	1487.9241	1496.6698	1574.9054	1623.7149	3020.2436	3047.1645	3124.765	3132.3043	3225.2462	3241.6911	3246.4714	3275.471
CC1C=CC2=CC=NN12	C[C@H]1C=Cc2ccnn12	
InChI=1S/C7H8N2/c1-6-2-3-7-4-5-8-9(6)7/h2-6H,1H3	InChI=1S/C7H8N2/c1-6-2-3-7-4-5-8-9(6)7/h2-6H,1H3/t6-/m0/s1
