17
gdb 98645	5.51484	0.79043	0.78307	3.5632	70.92	-0.249	-0.0223	0.2267	1470.6479	0.133765	-459.004597	-458.995389	-458.994445	-459.040733	31.932	
C	-0.1471896309	 1.4386446292	 0.1846890727	-0.24252
O	-0.2215050919	 0.0084516738	 0.275919638	-0.233585
C	 0.8598335783	-0.5911634238	 0.8065097771	 0.447368
O	 1.8389610084	 0.0039325375	 1.1880676244	-0.371521
C	 0.6986525162	-2.0882464001	 0.8651662001	-0.129953
C	 1.8835848152	-2.905559066	 0.2484765566	-0.345521
C	 1.9060107065	-3.7368320881	 1.5394828763	 0.399723
O	 2.3705571044	-4.7966374415	 1.8357819813	-0.283746
C	 0.9974084309	-2.7311799308	 2.261424978	-0.345555
H	 0.6948518785	 1.7400810762	-0.4431075806	 0.143849
H	-1.0900460605	 1.7562674147	-0.2599985886	 0.136665
H	-0.0214921944	 1.8805374696	 1.1761263157	 0.143861
H	-0.2688520781	-2.3881501941	 0.4650587268	 0.102695
H	 1.712410936	-3.43806964	-0.6891116526	 0.134141
H	 2.7868682448	-2.2922158502	 0.1644986341	 0.154962
H	 1.5866991519	-2.0558307889	 2.8905479366	 0.155027
H	 0.1605700248	-3.1326498375	 2.8362898341	 0.134111
15.2349	64.1143	105.3251	137.3424	213.4165	252.3007	303.9822	365.9744	430.3304	473.8795	629.2074	653.0478	708.4295	777.3212	801.7698	902.9684	925.7146	967.8267	1013.825	1056.3989	1071.072	1099.0159	1178.4273	1185.7382	1203.4685	1204.3571	1218.7277	1242.5419	1255.957	1382.7746	1419.5599	1439.2594	1473.9997	1480.849	1496.1974	1809.68	1904.0209	3054.1376	3058.7795	3063.6573	3117.7761	3129.5901	3129.8435	3135.8009	3162.6101
COC(=O)C1CC(=O)C1	COC(=O)C1CC(=O)C1	
InChI=1S/C6H8O3/c1-9-6(8)4-2-5(7)3-4/h4H,2-3H2,1H3	InChI=1S/C6H8O3/c1-9-6(8)4-2-5(7)3-4/h4H,2-3H2,1H3
