21
gdb 60154	4.46122	0.7606	0.68049	4.4965	80.1	-0.232	-0.0094	0.2226	1656.6325	0.179859	-424.239112	-424.229186	-424.228242	-424.274719	36.601	
C	-0.0210592314	 1.561374784	 0.0852585892	-0.403623
C	 0.013391896	 0.0334948043	 0.0358139674	 0.128488
O	 0.6039450552	-0.5045772926	 1.2179469649	-0.42542
C	-1.3856199118	-0.5738742203	-0.0793046829	-0.194261
C	-1.4064182713	-2.0897297055	-0.2444534515	 0.026236
C	-1.0643387938	-2.9836782884	 0.9915966293	-0.335358
C	-2.3290445571	-3.7972458494	 0.6932511346	 0.395331
O	-2.74669921	-4.8577979913	 1.0594890571	-0.295346
C	-2.8121513598	-2.7662776188	-0.3420477162	-0.371335
H	 0.9912606068	 1.97077897	 0.1818652189	 0.10502
H	-0.4598636863	 1.977030915	-0.8276610315	 0.116683
H	-0.6088508162	 1.9030747424	 0.9431897337	 0.125486
H	 0.5985859003	-0.2790997404	-0.8465830554	 0.06379
H	 1.4902810592	-0.1398756726	 1.3030351043	 0.282155
H	-1.9618312654	-0.2908338541	 0.8123475287	 0.09884
H	-1.8871024861	-0.1122448765	-0.9392997807	 0.097634
H	-0.78928824	-2.3756651224	-1.1027983087	 0.075502
H	-0.1191721597	-3.530854528	 0.9890824959	 0.124566
H	-1.137444996	-2.4424732045	 1.9401328236	 0.137743
H	-3.6158550902	-2.1404085623	 0.0644220063	 0.124346
H	-3.1363531324	-3.1609346988	-1.308511827	 0.123525
45.5033	63.4244	102.356	159.2304	247.9602	276.327	288.5091	300.2217	397.4399	422.2294	451.0763	481.8904	496.0979	652.87	676.0462	769.5697	843.3261	870.2148	920.8358	935.6857	955.694	994.4933	1012.8312	1071.6345	1086.3688	1101.5935	1133.9693	1147.1379	1180.0152	1193.2692	1238.0554	1243.3339	1263.6412	1308.6101	1325.4428	1378.7051	1388.5289	1406.9655	1425.3794	1429.0306	1446.4505	1472.2245	1493.9398	1499.6322	1891.072	2946.9762	3013.894	3027.9051	3041.2181	3044.9807	3062.2903	3067.0306	3093.7807	3107.0834	3112.5202	3121.7525	3820.5612
CC(O)CC1CC(=O)C1	C[C@@H](O)CC1CC(=O)C1	
InChI=1S/C7H12O2/c1-5(8)2-6-3-7(9)4-6/h5-6,8H,2-4H2,1H3	InChI=1S/C7H12O2/c1-5(8)2-6-3-7(9)4-6/h5-6,8H,2-4H2,1H3/t5-/m1/s1
