17
gdb 84534	2.37882	1.72063	1.54017	3.4981	73.22	-0.2442	-0.0421	0.2021	961.8734	0.135922	-417.991276	-417.983312	-417.982368	-418.023828	29.62	
C	 0.0010332181	 0.8994703899	-0.9431856654	-0.402459
C	 0.4784137562	-0.511006673	-0.5933655979	 0.026915
N	 1.534230126	-0.9757606925	-1.5139578156	-0.201203
C	 2.5052729814	-1.3887031838	-0.8115282362	 0.050391
N	 2.3560960901	-1.4297452498	 0.622173206	-0.133865
C	 2.3603391871	-0.0915785433	 1.2481202702	-0.116266
C	 3.0035748886	 1.1141989509	 0.6442344145	 0.149406
O	 3.676443407	 1.1413834777	-0.3546988709	-0.247947
C	 1.0707945738	-0.7280842975	 0.8047987183	-0.068522
H	 0.8245332196	 1.6171693071	-0.9092472989	 0.134104
H	-0.4096986523	 0.9111701891	-1.9558039936	 0.13773
H	-0.7792349726	 1.2268760763	-0.2489898854	 0.115309
H	-0.3773071386	-1.1928906182	-0.6944852465	 0.100072
H	 3.4304800044	-1.7718651292	-1.2268865077	 0.137808
H	 2.5334430477	-0.1224940332	 2.325016997	 0.119865
H	 2.8435803092	 2.030000509	 1.2576412028	 0.089627
H	 0.4238107042	-1.1057886897	 1.5905164194	 0.109035
91.897	158.649	164.7048	219.3769	243.7781	280.618	375.945	506.8855	569.6649	708.4363	725.1113	746.6365	782.8654	859.1922	862.2423	907.0465	943.9659	964.724	1001.1797	1036.1842	1069.79	1089.6723	1112.2778	1131.7337	1152.3526	1261.7705	1310.5716	1313.8918	1348.602	1357.4828	1392.5979	1410.4575	1421.4337	1486.8103	1501.6593	1685.2167	1818.5912	2873.84	3008.8873	3046.6089	3099.9643	3119.7558	3130.4429	3157.6704	3211.6896
CC1N=CN2C(C=O)C12	C[C@H]1N=CN2[C@@H](C=O)[C@@H]12	
InChI=1S/C6H8N2O/c1-4-6-5(2-9)8(6)3-7-4/h2-6H,1H3	InChI=1S/C6H8N2O/c1-4-6-5(2-9)8(6)3-7-4/h2-6H,1H3/t4-,5+,6-,8?/m1/s1
