22
gdb 113840	2.48596	1.24591	1.04352	1.7705	83.93	-0.2052	0.0827	0.288	1285.2591	0.192623	-404.281899	-404.27215	-404.271206	-404.316467	36.351	
C	-0.6835112087	 1.0508279841	 0.9287761031	-0.236153
O	-0.9192366303	-0.3298058785	 1.1337513589	-0.22888
C	-1.5409476426	-0.9405861231	 0.0462502016	 0.094169
C	-0.7131014584	-1.3939271156	-1.1376146976	-0.340745
C	-1.3442050374	-2.4188903631	-0.2232891255	 0.009168
N	-0.5301327217	-3.3826149433	 0.4598590115	-0.10243
C	 0.4813420614	-3.0258916017	 1.4516982006	-0.263441
C	-0.7607341452	-3.7499180688	 1.8595765306	 0.028705
C	-1.8041617036	-3.0772920075	 2.7239278507	-0.422998
H	-0.2078531255	 1.4351892421	 1.8338399462	 0.128496
H	-0.0223241491	 1.2225789549	 0.0682722369	 0.114198
H	-1.6238840215	 1.5959636591	 0.7591487577	 0.109586
H	-2.536319425	-0.5405049086	-0.16175316	 0.082425
H	-1.080251054	-1.2630693839	-2.1497886085	 0.1112
H	 0.3601099807	-1.2768596025	-1.0227051244	 0.124236
H	-2.2394553098	-2.8987071046	-0.6125104047	 0.097877
H	 1.4250647126	-3.5588080621	 1.3548330973	 0.103097
H	 0.5627063662	-1.9883565526	 1.7559283475	 0.132879
H	-0.683382165	-4.8259206629	 2.0161149191	 0.08353
H	-1.7798919057	-1.9915706449	 2.6145803496	 0.14953
H	-2.8110746333	-3.4326120939	 2.4756086	 0.111534
H	-1.6233969643	-3.3193431326	 3.7771950193	 0.114016
75.9762	107.5949	139.1839	173.485	199.6493	228.8213	247.706	296.1592	380.7062	400.6608	441.4253	537.3817	655.629	683.9366	771.4	797.7208	823.6125	894.2467	917.8646	967.5484	1001.6091	1032.6449	1044.6536	1066.7501	1099.7734	1125.9829	1130.7525	1140.6902	1161.9907	1164.7492	1169.4027	1182.7774	1200.6259	1225.1551	1263.0244	1357.7215	1385.5037	1400.4303	1406.6249	1423.9995	1470.2243	1484.7406	1486.908	1499.0407	1503.8842	1505.5956	1510.8365	2989.0018	3030.5659	3043.8297	3066.1359	3084.6892	3096.4732	3104.4346	3121.3078	3127.2856	3129.5005	3142.6361	3211.4971	3217.3876
COC1CC1N1CC1C	CO[C@H]1C[C@H]1N1C[C@H]1C	
InChI=1S/C7H13NO/c1-5-4-8(5)6-3-7(6)9-2/h5-7H,3-4H2,1-2H3	InChI=1S/C7H13NO/c1-5-4-8(5)6-3-7(6)9-2/h5-7H,3-4H2,1-2H3/t5-,6-,7+,8?/m1/s1
