15
gdb 29032	2.61514	1.75104	1.17942	2.8892	78.52	-0.2511	-0.0925	0.1586	1024.2842	0.113012	-416.836577	-416.828837	-416.827893	-416.868903	28.488	
C	-0.4174634077	 1.5104056522	 0.0533874351	-0.478836
C	-0.1178161052	 0.0419116968	-0.0217124096	 0.16318
C	 0.002624907	-0.6198650611	-1.2003300108	-0.041879
N	 0.4033554838	-1.9152264954	-1.4417559677	-0.211093
C	 0.2751332171	-2.8983753312	-0.6183309312	-0.007463
C	-0.3830775629	-2.8537807395	 0.6830125041	-0.014221
N	-0.4522519837	-1.8526481206	 1.4776520899	-0.203181
C	 0.2156727306	-0.6403589894	 1.2576271908	 0.293841
O	 0.9181014367	-0.1432683714	 2.1072615361	-0.316438
H	 0.3974306887	 2.0300459904	 0.5665146463	 0.165361
H	-0.5546899453	 1.943364382	-0.9399624517	 0.129691
H	-1.3257115258	 1.6902077352	 0.6404605045	 0.146867
H	-0.1345772525	-0.0507649338	-2.1181409401	 0.116762
H	 0.6025279838	-3.878506822	-0.9700488914	 0.125766
H	-0.8993249146	-3.7687032823	 0.9883635657	 0.131642
96.3124	149.2711	181.7434	280.1348	287.1809	324.5861	366.2096	476.9638	545.5827	623.167	639.1662	758.6155	793.9464	842.304	916.5718	930.4262	953.9387	994.7186	1014.681	1058.6014	1092.905	1128.8656	1261.7569	1399.1035	1403.7671	1417.4089	1425.128	1469.0361	1483.5325	1558.4206	1640.5317	1696.5145	1788.0144	3036.3993	3084.5015	3096.5351	3114.5519	3131.0027	3144.3333
CC1=CN=CC=NC1=O	Cc1cnccnc1=O	
InChI=1S/C6H6N2O/c1-5-4-7-2-3-8-6(5)9/h2-4H,1H3	InChI=1S/C6H6N2O/c1-5-4-7-2-3-8-6(5)9/h2-4H,1H3
