18
gdb 10602	3.10892	1.5989	1.22174	2.7968	63.88	-0.259	0.0645	0.3235	1024.7392	0.152211	-422.049895	-422.041027	-422.040083	-422.083295	32.44	
C	 0.1328151574	 1.4003773531	-0.2406924672	-0.427018
C	 0.019338801	-0.0480765078	 0.1638221877	 0.03508
O	 1.2133941452	-0.8433265642	 0.1259376718	-0.306248
C	 0.5764462509	-0.6056861546	 1.4073130697	 0.285658
C	 1.3631187764	 0.2534084461	 2.3964818325	-0.11044
O	 1.8237124343	-0.4639841685	 3.5231863595	-0.429013
C	 0.0133682997	-1.897377119	 1.9698478434	-0.141115
O	 1.0824053215	-2.8208898533	 2.184919971	-0.421106
H	 1.0086786826	 1.8800137092	 0.1995952571	 0.134633
H	 0.2100904551	 1.4816617959	-1.3296568408	 0.133911
H	-0.76161122	 1.9496659357	 0.0723592102	 0.127768
H	-0.8510407758	-0.5597633664	-0.253847487	 0.087371
H	 2.1898988592	 0.7295023877	 1.8491157102	 0.101061
H	 0.7175225622	 1.0534028706	 2.7818506185	 0.107106
H	 2.0383897396	-1.3623115216	 3.2345214323	 0.291236
H	-0.4537251563	-1.7353873326	 2.9440712767	 0.131492
H	-0.7319438121	-2.3195463542	 1.2831783343	 0.099522
H	 1.5210438692	-2.914226666	 1.3293278502	 0.300102
64.942	139.0925	168.2417	191.4522	207.1278	283.5174	325.0635	392.5978	433.0042	474.2463	494.6027	566.6761	591.2435	729.0406	819.9681	896.3705	933.742	997.2928	1009.5897	1040.7169	1052.1432	1102.1299	1129.1393	1171.4301	1193.3346	1261.8902	1270.8565	1327.7108	1354.6087	1392.2821	1412.3285	1427.2245	1462.0892	1467.3641	1488.4669	1491.025	1505.0714	1511.8562	2992.1731	3019.9083	3039.608	3042.5119	3077.3217	3103.5334	3111.8734	3140.8698	3727.4396	3778.1646
CC1OC1(CO)CO	C[C@H]1OC1(CO)CO	
InChI=1S/C5H10O3/c1-4-5(2-6,3-7)8-4/h4,6-7H,2-3H2,1H3	InChI=1S/C5H10O3/c1-4-5(2-6,3-7)8-4/h4,6-7H,2-3H2,1H3/t4-/m1/s1
