17
gdb 39799	3.49506	1.47569	1.20831	1.6564	72.91	-0.2578	0.0907	0.3485	1028.9693	0.135577	-421.715409	-421.7083	-421.707356	-421.746729	28.648	
C	-0.0032312787	 1.5107733402	 0.0102645673	-0.31452
O	 1.1960255952	 0.6907608023	-0.0060112112	-0.300012
C	-0.0545205056	 0.0591659361	 0.0029264743	 0.551791
C	-0.5689898133	-1.0221501121	 0.9699758796	-0.274949
C	-1.8095439069	-1.1045128559	 0.0139716631	-0.235047
C	-0.5881035124	-1.0116923078	-0.9654003854	-0.274949
C	 0.0984976761	-2.0122603234	-0.0097767956	 0.558559
C	 1.3043229867	-2.8183148853	-0.0260402685	-0.306054
O	-0.0263607193	-3.4074851815	-0.0160824506	-0.302474
H	-0.1670658599	 2.0626196266	 0.9344287841	 0.122226
H	-0.185228305	 2.0725603319	-0.9044636467	 0.122226
H	-0.5531519086	-1.0257426291	 2.0581096679	 0.091688
H	-2.3399826878	-2.056242415	 0.014067471	 0.123594
H	-2.4879413602	-0.249113241	 0.025293491	 0.098936
H	-0.5937563115	-1.0035266053	-2.0536100447	 0.091688
H	 1.8592998638	-2.9566361233	-0.9520581979	 0.123649
H	 1.8774632673	-2.9665740074	 0.8872893024	 0.123649
125.0567	240.2203	260.953	278.3446	362.1403	410.9107	486.7451	509.705	666.5139	676.8708	750.862	792.874	867.7379	877.6501	879.2378	910.2389	966.5987	996.3617	1050.2856	1050.5743	1055.0358	1088.695	1107.57	1110.9529	1118.3973	1146.8598	1149.799	1153.3751	1168.8186	1205.0621	1214.4889	1239.3066	1454.9389	1461.3984	1505.4619	1549.9281	1574.1264	3075.86	3087.2462	3092.139	3140.2295	3143.1765	3155.8036	3173.5192	3179.4934
C1OC11C2CC1C21CO1	C1O[C@]21[C@H]1C[C@@H]2[C@]21CO2	
InChI=1S/C7H8O2/c1-4-6(2-8-6)5(1)7(4)3-9-7/h4-5H,1-3H2	InChI=1S/C7H8O2/c1-4-6(2-8-6)5(1)7(4)3-9-7/h4-5H,1-3H2/t4-,5+,6-,7-
