17
gdb 50439	2.64234	1.45063	0.99217	3.6627	73.71	-0.2441	-0.0313	0.2128	1157.1909	0.135249	-421.867528	-421.859222	-421.858278	-421.901243	30.3	
O	-0.6354612555	 0.8162129059	-0.7014551134	-0.243706
C	 0.0969024058	 1.0293717624	 0.2301058957	 0.156846
C	 1.2900784087	 1.9671201784	 0.1651294256	-0.21671
C	 1.4400809891	 2.6786017037	-1.1926574177	-0.255968
C	 2.4990658381	 3.7454083531	-1.1549285367	-0.075401
C	 2.9529929636	 4.2992922137	-0.0321394649	-0.049988
C	 2.4334170667	 3.9527434936	 1.3395996422	-0.359894
C	 1.2709918487	 2.9703386967	 1.3213254066	 0.384587
O	 0.4006136394	 2.978793507	 2.1597536839	-0.307435
H	-0.0510409654	 0.5322597258	 1.2097323528	 0.10281
H	 2.1893807884	 1.3495598809	 0.3316913131	 0.121735
H	 1.6680304416	 1.9348764299	-1.9632369888	 0.125914
H	 0.4716942847	 3.1035777601	-1.4870703913	 0.140728
H	 2.8978810641	 4.0708983235	-2.1120901127	 0.098329
H	 3.7244006877	 5.063601334	-0.0744735663	 0.098578
H	 3.2339302685	 3.5074661559	 1.9518801112	 0.13815
H	 2.1070141258	 4.8434445953	 1.8881448806	 0.141424
69.3672	77.2746	110.8544	216.6787	285.0449	345.0298	386.3067	475.3701	528.1715	576.3473	650.6313	677.2667	732.8372	791.7958	893.3719	905.5372	935.1009	981.2807	1003.7898	1031.6556	1045.8643	1109.6888	1124.0057	1163.052	1209.813	1228.0074	1279.5472	1301.4769	1335.0189	1371.5299	1408.5146	1423.7057	1444.1235	1478.5294	1729.2739	1808.2612	1830.8774	2933.5391	2976.7042	2993.3334	3033.6728	3066.303	3070.9622	3152.8939	3175.1235
O=CC1CC=CCC1=O	O=C[C@H]1CC=CCC1=O	
InChI=1S/C7H8O2/c8-5-6-3-1-2-4-7(6)9/h1-2,5-6H,3-4H2	InChI=1S/C7H8O2/c8-5-6-3-1-2-4-7(6)9/h1-2,5-6H,3-4H2/t6-/m1/s1
