15
gdb 19239	3.03694	2.14521	1.60725	2.8492	64.67	-0.2469	0.0046	0.2515	817.4554	0.120505	-358.797952	-358.790767	-358.789823	-358.829284	27.005	
N	-0.0843515613	 1.510940584	 0.2131452984	-0.509029
C	-0.0522793458	 0.0965351329	-0.0236596864	 0.004331
C	-1.3807231251	-0.6458409711	-0.0364557723	-0.008992
C	-2.1665960855	-0.3880648137	-1.2579177212	-0.254199
N	-1.0739654985	-1.3757175213	-1.3433874866	-0.131045
C	 0.2039285972	-0.5781881287	-1.4490692928	-0.173993
C	 0.306873826	 0.3289419533	-2.5795336906	 0.303978
N	 0.3742286153	 1.1065844003	-3.4336625613	-0.332236
H	 0.8478801433	 1.9109692213	 0.2144605907	 0.240686
H	-0.6232886773	 2.0022064983	-0.4920797755	 0.242489
H	 0.6402361878	-0.3571175983	 0.6888102884	 0.108758
H	-1.7995954847	-1.169715631	 0.8157301972	 0.108913
H	-3.1450422695	-0.8534958866	-1.3173424268	 0.136778
H	-2.0839103945	 0.546264016	-1.8074509339	 0.134968
H	 1.0560171525	-1.2605839055	-1.4454774773	 0.128593
122.3337	134.4545	216.6084	268.1783	340.2138	409.4864	500.5535	556.4057	622.7844	723.5825	747.9952	781.6871	809.9001	847.5237	935.0315	982.7227	1012.6842	1033.9803	1066.599	1121.3652	1130.9761	1139.3572	1182.4945	1215.2904	1258.9484	1278.4879	1339.2225	1372.6763	1439.586	1504.2225	1666.4081	2342.7327	3086.0937	3099.1135	3117.7353	3176.2656	3207.501	3512.5263	3591.975
NC1C2CN2C1C#N	N[C@H]1[C@H]2CN2[C@H]1C#N	
InChI=1S/C5H7N3/c6-1-3-5(7)4-2-8(3)4/h3-5H,2,7H2	InChI=1S/C5H7N3/c6-1-3-5(7)4-2-8(3)4/h3-5H,2,7H2/t3-,4+,5+,8?/m0/s1
