20
gdb 70858	2.75164	1.78022	1.35098	1.5849	83.18	-0.2079	0.0073	0.2151	1029.9613	0.171171	-365.989066	-365.981095	-365.980151	-366.020795	32.445	
C	-0.1184489259	 1.4982854141	-0.0449068772	-0.490976
C	 0.0416754797	 0.00621833	 0.0042457912	 0.331911
C	 0.7472192639	-0.8195225485	-1.06026086	-0.332415
C	-0.2517896133	-1.9724719716	-0.6952479881	 0.298392
C	-0.9652053845	-2.6999271924	-1.8098085767	-0.484039
C	 0.396515283	-2.8019939231	 0.3925232378	-0.132258
C	 0.4352448562	-2.0752210834	 1.509018153	-0.08325
C	-0.2672384126	-0.789297781	 1.2531990907	-0.122398
N	-1.1280556899	-0.944857346	 0.0543282579	-0.199823
H	 0.8333690512	 1.9972921364	 0.1718640478	 0.121085
H	-0.4538292648	 1.8274652829	-1.0346076468	 0.121225
H	-0.8536947595	 1.838029228	 0.6907195962	 0.125875
H	 0.5258229041	-0.4132989853	-2.0514611539	 0.104968
H	 1.8209095749	-1.0128300879	-0.9748509613	 0.092843
H	-0.2654594555	-3.3211516995	-2.380017429	 0.113368
H	-1.7496487016	-3.3475991162	-1.4053020104	 0.1262
H	-1.4335931386	-1.9904553938	-2.49827512	 0.120615
H	 0.8686405922	-3.760198596	 0.2130994992	 0.099901
H	 0.909021889	-2.329133568	 2.4483051226	 0.103354
H	-0.714185798	-0.2337484588	 2.0730741269	 0.085422
172.4523	190.2648	203.8338	276.5813	292.8631	328.6106	382.3924	437.5529	542.9967	589.9493	608.6246	725.8833	733.6711	761.5085	793.5106	825.3617	855.6623	900.0769	929.784	937.5939	970.7184	995.3757	1036.431	1043.6012	1079.438	1099.9738	1124.2887	1154.5149	1176.0561	1234.289	1261.3533	1296.8314	1304.404	1360.6182	1394.4745	1412.2534	1416.4757	1480.726	1482.6735	1488.8686	1492.5574	1496.1619	1658.6779	3026.0528	3031.8455	3044.345	3088.1792	3099.2438	3101.3357	3106.743	3111.0776	3148.8583	3200.4058	3227.5172
CC12CC3(C)C=CC1N23	C[C@@]12C[C@@]3(C)C=C[C@@H]1N23	
InChI=1S/C8H11N/c1-7-4-3-6-8(2,5-7)9(6)7/h3-4,6H,5H2,1-2H3	InChI=1S/C8H11N/c1-7-4-3-6-8(2,5-7)9(6)7/h3-4,6H,5H2,1-2H3/t6-,7+,8+,9?/m0/s1
