19
gdb 49727	2.93383	1.20706	1.13838	3.5688	82.07	-0.2313	-0.0188	0.2125	1167.5771	0.160885	-385.900914	-385.893008	-385.892064	-385.933623	30.578	
O	 0.0180764126	-0.0919726686	 0.3530794169	-0.277101
C	 0.0184972169	 1.0702091629	 0.0180852438	 0.156088
C	 1.2372543861	 1.9054740944	-0.0337976399	-0.131525
C	 1.498935158	 2.9231694474	-1.1528080682	-0.05821
C	 0.4945686909	 3.1835568683	-2.2800877341	-0.237636
C	-0.2852584813	 4.4980056916	-2.0745736585	-0.249382
C	-0.7766747431	 4.6516035077	-0.6550827058	-0.052327
C	-0.1197258436	 4.1400778986	 0.387507648	-0.076673
C	 1.1712286271	 3.4231743706	 0.2158419019	-0.08969
H	-0.9266873995	 1.5835319694	-0.2556757559	 0.076518
H	 2.1125082567	 1.3920294295	 0.3501104723	 0.104893
H	 2.5424992497	 2.9678061659	-1.446359032	 0.099053
H	 1.0282677998	 3.2140116262	-3.2347470109	 0.105337
H	-0.220867787	 2.3606471011	-2.3631538619	 0.115534
H	 0.353134873	 5.3564338276	-2.3301634154	 0.115745
H	-1.1282189558	 4.5386055458	-2.7727840658	 0.106611
H	-1.6944726682	 5.2112241285	-0.4958141367	 0.094194
H	-0.4979566338	 4.2665983879	 1.3985265747	 0.094532
H	 1.9874555617	 3.7923488652	 0.8316708274	 0.104041
89.0548	98.8401	189.3505	249.7738	318.3421	413.4122	448.3103	469.8592	525.8424	576.4537	707.2126	739.6788	783.6042	836.7659	852.5452	912.1434	936.0754	971.9327	988.9229	999.4506	1013.7046	1056.1136	1062.1087	1097.1478	1132.6084	1142.6263	1192.0577	1212.6315	1238.7535	1268.1747	1335.2117	1338.6772	1350.4145	1388.6264	1408.6812	1420.1999	1452.2728	1478.1404	1499.3246	1707.4112	1803.732	2911.9282	3003.2911	3052.658	3064.9654	3090.9553	3133.7727	3151.9941	3156.276	3173.5251	3174.9447
O=CC1C2CCC=CC12	O=C[C@H]1[C@H]2CCC=C[C@@H]12	
InChI=1S/C8H10O/c9-5-8-6-3-1-2-4-7(6)8/h1,3,5-8H,2,4H2	InChI=1S/C8H10O/c9-5-8-6-3-1-2-4-7(6)8/h1,3,5-8H,2,4H2/t6-,7+,8-/m1/s1
