16
gdb 67344	2.90988	1.94532	1.35298	3.5237	68.02	-0.258	-0.0043	0.2537	922.6437	0.125603	-437.858553	-437.851659	-437.850715	-437.889672	27.35	
C	-0.0493597618	 1.5480235373	 0.0299052801	-0.507214
C	-0.0121435043	 0.0447618187	 0.0310148059	 0.178608
C	 1.1052131474	-0.7944728845	-0.6979219467	-0.101327
N	 2.0633727672	-0.4683216731	 0.4188774358	-0.335637
C	 0.7657099855	-0.8016894747	 1.1092377483	-0.101388
C	 0.473640929	-1.955670993	 0.1142252113	 0.094415
O	-0.9281819229	-2.0499624754	-0.1497085627	-0.244398
C	-1.2986608876	-0.7242304141	-0.2132270642	 0.416964
O	-2.4111347418	-0.3473252425	-0.4221845715	-0.336842
H	 0.948439994	 1.949701414	 0.2188748257	 0.144737
H	-0.4084500279	 1.923031479	-0.9330901538	 0.135246
H	-0.7339126735	 1.9162248828	 0.7998076174	 0.135214
H	 1.3851695589	-0.755385783	-1.7513439325	 0.099617
H	 2.7293136084	-1.2389363683	 0.5409325167	 0.214899
H	 0.6442040393	-0.7711588281	 2.1927063986	 0.099606
H	 0.9375315402	-2.936509445	 0.1973610616	 0.1075
149.5772	188.1916	248.0985	310.7631	384.1311	420.0394	543.0957	625.2017	683.1662	691.3138	727.8358	810.9563	853.4066	871.3947	896.8092	906.0018	933.9955	1017.0758	1037.0882	1076.7458	1089.2136	1134.1752	1140.3789	1151.7988	1162.2039	1206.6125	1242.994	1278.1329	1290.2617	1326.11	1378.8473	1413.4847	1488.1001	1492.5864	1907.8849	3048.2203	3112.4864	3113.3752	3115.195	3136.1112	3155.0256	3375.1029
CC12C3NC1C3OC2=O	C[C@@]12[C@H]3N[C@@H]1[C@H]3OC2=O	
InChI=1S/C6H7NO2/c1-6-3-2(4(6)7-3)9-5(6)8/h2-4,7H,1H3	InChI=1S/C6H7NO2/c1-6-3-2(4(6)7-3)9-5(6)8/h2-4,7H,1H3/t2-,3-,4+,6+
