19
gdb 126148	3.77293	0.96043	0.92645	2.0953	77.01	-0.2824	-0.0195	0.2629	1361.6332	0.15931	-419.224067	-419.214982	-419.214038	-419.259153	32.354	
C	-0.0890738005	 1.5148528549	 0.0760501705	-0.395561
C	 0.0044459779	-0.0102759118	-0.0185108134	-0.177253
C	 0.7755815986	-0.5133421694	-1.2638973436	-0.092632
C	 2.2604303883	-0.1046468287	-1.2619162885	-0.403681
C	 0.6360248469	-1.9973520016	-1.3841397246	 0.439006
N	-0.0004680296	-2.6830079221	-2.2903674202	-0.324072
C	 0.2106168799	-3.9729267837	-1.8698533867	 0.032616
N	 0.9228624509	-4.1001136289	-0.7855461348	-0.115422
O	 1.2139132011	-2.7697659294	-0.4511660284	-0.207117
H	 0.8919886601	 1.9810437999	 0.2056267056	 0.123582
H	-0.5469914643	 1.9405116695	-0.8237343495	 0.119881
H	-0.7052389162	 1.8069318831	 0.9315594749	 0.12143
H	 0.4823086781	-0.4155844882	 0.8812140628	 0.116403
H	-1.0074643238	-0.4308135198	-0.0474721666	 0.112385
H	 0.2925099772	-0.1069624501	-2.1587392141	 0.111941
H	 2.7720746849	-0.4951190323	-0.3772293981	 0.136814
H	 2.7734950906	-0.4892494714	-2.1479563937	 0.129939
H	 2.3586115743	 0.9832407808	-1.2644414707	 0.126133
H	-0.1771096843	-4.8383959211	-2.3875473811	 0.145609
31.0244	77.377	117.2964	187.8136	216.8038	266.6455	288.3055	347.921	380.5354	483.3547	658.4773	701.7765	781.5944	788.8215	851.8997	915.2132	931.6318	964.7193	979.5314	986.6739	1020.1759	1035.0155	1074.1498	1130.4207	1173.6008	1194.716	1255.2646	1287.1122	1303.2699	1338.3786	1354.6689	1377.6467	1409.0115	1415.4478	1485.5636	1493.8517	1497.5507	1504.6534	1510.2806	1520.324	1617.333	3032.5043	3037.1789	3047.2616	3057.4138	3073.4609	3105.0404	3112.5574	3118.3777	3129.7779	3259.5189
CCC(C)C1=NC=NO1	CC[C@@H](C)c1ncno1	
InChI=1S/C6H10N2O/c1-3-5(2)6-7-4-8-9-6/h4-5H,3H2,1-2H3	InChI=1S/C6H10N2O/c1-3-5(2)6-7-4-8-9-6/h4-5H,3H2,1-2H3/t5-/m1/s1
