20
gdb 93879	2.01818	1.66428	1.04451	4.6857	79.85	-0.2259	0.0311	0.257	1195.7725	0.172404	-399.33353	-399.324275	-399.323331	-399.367742	34.347	
C	 0.0864000074	 1.4232437082	-0.0921397244	-0.334023
N	-0.0681309742	 0.008431941	 0.1630428134	-0.046829
C	-1.4240534554	-0.5299202575	 0.0914209971	-0.155472
C	-1.2728884652	-1.9131565119	 0.7178131316	-0.239784
C	-0.3520219001	-1.6185484216	 1.9210180745	 0.015489
N	 0.3696345328	-2.7007404707	 2.562143171	-0.524162
C	 0.5966030197	-0.503970063	 1.3613895206	-0.124357
C	 1.9365490848	-1.0178201304	 1.0174460706	 0.312623
N	 2.9812088649	-1.4220404337	 0.7322206747	-0.344541
H	 1.1485618343	 1.6811907301	-0.1463507845	 0.136124
H	-0.3655617986	 1.6718896009	-1.057404089	 0.12638
H	-0.3848442089	 2.0610647772	 0.6799024898	 0.095499
H	-2.1515798903	 0.0759695804	 0.6657353846	 0.08011
H	-1.7666826307	-0.5516394476	-0.948642548	 0.110128
H	-2.2235444174	-2.3593502614	 1.0207028549	 0.100047
H	-0.773985634	-2.5948323852	 0.0198772371	 0.113448
H	-0.9603868106	-1.1377716758	 2.6962727509	 0.095612
H	-0.2807502852	-3.3591290616	 2.9778332736	 0.231933
H	 0.9291915554	-3.2129920659	 1.8859558538	 0.242639
H	 0.7380929611	 0.2699030585	 2.1318384576	 0.109135
43.7168	139.9982	170.5019	202.012	236.1054	269.7258	292.27	317.2128	383.9485	436.098	478.1547	564.6153	587.996	647.735	806.7217	844.004	861.4521	922.0086	937.3169	982.6489	1031.6836	1059.5448	1102.404	1137.2379	1153.22	1190.7213	1197.0777	1220.8961	1231.4387	1268.3027	1309.3266	1323.3013	1349.9283	1364.7544	1384.731	1428.185	1461.9803	1486.0315	1491.5668	1502.4308	1528.6462	1660.2034	2352.0319	2913.1113	2927.6512	2974.9245	3035.2367	3047.9948	3061.6273	3064.151	3107.2432	3107.7034	3496.207	3581.0357
CN1CCC(N)C1C#N	CN1CC[C@@H](N)[C@H]1C#N	
InChI=1S/C6H11N3/c1-9-3-2-5(8)6(9)4-7/h5-6H,2-3,8H2,1H3	InChI=1S/C6H11N3/c1-9-3-2-5(8)6(9)4-7/h5-6H,2-3,8H2,1H3/t5-,6-/m1/s1
