21
gdb 72658	2.00695	1.90551	1.56394	1.0257	77.18	-0.2431	0.0824	0.3256	1022.7668	0.18214	-424.232147	-424.223508	-424.222563	-424.264746	33.985	
C	-0.5147421904	 1.3948058488	 0.0432875198	-0.464862
C	 0.0529976762	-0.0063094127	-0.0471087336	 0.373177
C	 1.0036796239	-0.2683815554	-1.2157841268	-0.262702
C	 1.8161059461	-1.4693906927	-0.7163200767	-0.101501
O	 1.9552744915	-1.2705889797	 0.6901689676	-0.302498
C	 0.7698530621	-0.6652017655	 1.1821850073	 0.327635
C	 1.1065066343	 0.1150188591	 2.4325166727	-0.466243
C	-0.4574449589	-1.6069245664	 1.2070329881	-0.127263
O	-0.9985811214	-1.013682753	 0.0085210818	-0.338607
H	 0.2842963529	 2.140773637	 0.1039065357	 0.118009
H	-1.1193133501	 1.6138780826	-0.8430096366	 0.127913
H	-1.1587952983	 1.5007964873	 0.9208273213	 0.120711
H	 0.4578430812	-0.4712818915	-2.1405603637	 0.112114
H	 1.6530956132	 0.5995313795	-1.3718092875	 0.102474
H	 1.2838568817	-2.4080741727	-0.9269005176	 0.10327
H	 2.8202092945	-1.5387888481	-1.1415367743	 0.108433
H	 1.8718271026	 0.8675473378	 2.2219422416	 0.123835
H	 0.2222814015	 0.61443973	 2.8376041968	 0.11856
H	 1.5001195539	-0.5590915659	 3.2000415541	 0.130011
H	-0.2264852907	-2.6715363187	 1.0845590606	 0.103035
H	-1.1285179958	-1.4768569599	 2.0657774393	 0.0945
109.1233	202.2197	214.9876	225.8357	246.0426	286.8534	333.0461	360.5025	399.7874	479.8863	571.7278	628.9106	654.6683	685.1175	822.7395	863.2293	897.4249	928.8519	933.1677	957.6758	976.1222	1013.4877	1020.9758	1061.5711	1138.1248	1146.573	1164.2698	1194.89	1200.1127	1213.7427	1236.3631	1267.498	1282.016	1342.0511	1358.174	1384.6835	1407.3863	1413.4815	1468.0309	1476.8253	1484.6866	1492.8395	1499.9468	1511.4067	1521.03	3002.8266	3010.8947	3035.2232	3042.6925	3052.6235	3062.7285	3098.5058	3104.3502	3111.1123	3111.8536	3115.3329	3124.1833
CC12CCOC1(C)CO2	C[C@@]12CCO[C@]1(C)CO2	
InChI=1S/C7H12O2/c1-6-3-4-8-7(6,2)5-9-6/h3-5H2,1-2H3	InChI=1S/C7H12O2/c1-6-3-4-8-7(6,2)5-9-6/h3-5H2,1-2H3/t6-,7-/m1/s1
