18
gdb 68461	2.40205	2.04275	1.34559	3.5351	71.33	-0.2373	0.0062	0.2435	974.3802	0.14946	-439.10663	-439.09902	-439.098076	-439.138445	29.893	
C	-0.076287493	 1.5341147723	 0.0420398647	-0.46824
C	 0.0015185022	 0.0261591109	-0.0160643005	 0.158512
C	 0.7403173551	-0.6927449388	-1.1821379148	-0.262481
C	-0.341265296	-1.7753456101	-0.9737232418	-0.009199
C	 0.0787928232	-2.7018501994	 0.157206974	-0.084533
O	 0.5097456226	-1.9601878604	 1.3163218863	-0.243064
C	 0.5030871289	-0.596699843	 1.2896085258	 0.417097
O	 0.8615153701	 0.0163496247	 2.2563057677	-0.334958
N	-1.2343838491	-0.6988968715	-0.4643006872	-0.337161
H	 0.9109264286	 1.9636629042	 0.2315631045	 0.133969
H	-0.4635580132	 1.9172352207	-0.9052667046	 0.119454
H	-0.7360276835	 1.8598234742	 0.8512214843	 0.132264
H	 0.6058128213	-0.1501675229	-2.1186199656	 0.120242
H	 1.7864354613	-0.9700666177	-1.0419433981	 0.115061
H	-0.7159019483	-2.340473247	-1.8322233852	 0.083355
H	-0.7555060899	-3.3373675522	 0.4784036237	 0.118612
H	 0.9089081112	-3.351708323	-0.1434281712	 0.12202
H	-1.8563663014	-0.9856640811	 0.2913340281	 0.219049
119.3557	187.3612	208.4023	275.1055	321.5425	385.1409	420.3974	479.0327	497.935	635.8056	673.1179	752.7617	808.6751	821.3131	864.2095	902.285	928.8685	958.8996	1010.9273	1028.8153	1066.1642	1069.9201	1108.3798	1138.7134	1159.9968	1204.8695	1225.1195	1233.545	1306.66	1316.5065	1320.4012	1383.583	1411.4243	1418.6958	1480.6007	1483.6593	1490.5163	1510.0224	1848.3914	3026.445	3049.6184	3067.3261	3069.8922	3082.0488	3122.3749	3131.8132	3144.3878	3454.487
CC12CC(COC1=O)N2	C[C@@]12C[C@@H](COC1=O)N2	
InChI=1S/C6H9NO2/c1-6-2-4(7-6)3-9-5(6)8/h4,7H,2-3H2,1H3	InChI=1S/C6H9NO2/c1-6-2-4(7-6)3-9-5(6)8/h4,7H,2-3H2,1H3/t4-,6+/m0/s1
