17
gdb 34785	2.27393	1.58676	1.10667	0.6615	86.75	-0.2497	0.0252	0.2749	1122.3602	0.134773	-347.437211	-347.429126	-347.428181	-347.469629	32.11	
C	-0.0864577099	-1.2526710543	-0.0832406425	-0.434965
C	-0.0347632901	-0.0523244141	-0.0236564851	 0.305862
C	 0.0009847211	 1.3925647642	 0.0280313332	-0.209503
C	 0.0861631416	 2.1294178515	 1.4096238256	-0.079532
C	 1.5611913865	 1.652158352	 1.5200837829	-0.268652
C	 1.3960880979	 2.1479873206	 0.0438324969	 0.266143
C	 0.6130590581	 3.3667796077	 0.6339818562	-0.267675
C	 2.3771839137	 2.1570179998	-1.0001756938	 0.066717
C	 3.1982183223	 2.1640620401	-1.8794635822	-0.363122
H	-0.1269672997	-2.3124868304	-0.1359445734	 0.193759
H	-0.7188589845	 1.8275224566	-0.6722000602	 0.100912
H	-0.6750833087	 2.1101384512	 2.1878103811	 0.087072
H	 2.2225846957	 2.2532659969	 2.1480411614	 0.099759
H	 1.7298246635	 0.5831065624	 1.6528721849	 0.120372
H	-0.0838816834	 3.8689507901	-0.0419000887	 0.100047
H	 1.2119827933	 4.0804903568	 1.2031206547	 0.1029
H	 3.9234986226	 2.1674332186	-2.6550024211	 0.179907
93.5528	165.962	174.3417	202.9368	412.3764	422.5308	487.846	512.3092	526.1567	583.2197	619.1302	631.4209	634.0433	639.5904	643.9745	773.2748	826.0816	875.6321	922.7742	947.7824	956.4718	1022.1462	1038.9462	1071.11	1111.8023	1124.6187	1146.1752	1158.8266	1217.5092	1226.7906	1230.1734	1279.9957	1372.9361	1497.6087	1537.0447	2229.8163	2234.2688	3058.4261	3062.0807	3072.3483	3130.7607	3132.0531	3146.1178	3501.9547	3503.4898
C#CC1C2CC1(C2)C#C	C#C[C@H]1[C@H]2C[C@@]1(C2)C#C	
InChI=1S/C9H8/c1-3-8-7-5-9(8,4-2)6-7/h1-2,7-8H,5-6H2	InChI=1S/C9H8/c1-3-8-7-5-9(8,4-2)6-7/h1-2,7-8H,5-6H2/t7-,8-,9+/m0/s1
