20
gdb 58645	2.6682	1.39436	1.05974	1.2127	73.88	-0.2491	0.0693	0.3184	1176.7865	0.170206	-440.233725	-440.224557	-440.223613	-440.267535	34.817	
C	 0.6017811565	 0.1403906423	 0.9056198637	-0.413175
C	-0.4020909457	-0.0504114263	-0.2359994106	 0.056514
O	-1.0766580075	 1.161868572	-0.5269671021	-0.433145
C	 0.2560779223	-0.6162809061	-1.5004374461	 0.357257
C	-0.2898523953	-0.2492102876	-2.8135472402	-0.226072
O	 0.8973274072	 0.3914857518	-2.3019215116	-0.29411
C	 1.0307534873	-1.8942891833	-1.3390542706	-0.075047
C	 2.0761029777	-2.2833856214	-2.312929074	-0.248146
N	 2.4542791737	-1.8541373642	-0.9533644555	-0.321837
H	 1.0736870436	-0.8017582176	 1.1969686308	 0.140095
H	 1.3925384795	 0.8371104424	 0.6043358113	 0.115739
H	 0.0884066484	 0.563510335	 1.772385062	 0.125997
H	-1.182769123	-0.7536865236	 0.0804161651	 0.095994
H	-0.4235056461	 1.7327021264	-0.9531604816	 0.286952
H	-0.1197831115	-0.9100871695	-3.660360104	 0.117257
H	-1.1644599464	 0.3923953432	-2.8643446922	 0.13402
H	 0.4716821047	-2.6816801885	-0.8360657244	 0.094872
H	 2.2476250554	-3.3337758211	-2.528831895	 0.118586
H	 2.2769912642	-1.5993312837	-3.1318446026	 0.127222
H	 2.7737407653	-0.8884750103	-1.0051332025	 0.241028
79.8246	95.2232	175.7097	213.8626	248.9844	282.85	299.5645	375.2168	383.1153	457.5194	472.5768	557.6436	602.6361	695.3751	821.1579	839.6667	867.7079	916.4136	928.7844	946.3051	985.9886	1024.687	1050.8792	1091.9398	1100.9195	1126.4961	1135.2091	1151.6562	1177.4425	1188.8121	1205.0199	1276.4404	1301.6579	1307.7192	1346.7298	1385.4699	1407.8406	1426.0424	1429.7268	1492.4533	1498.6673	1499.4969	1510.1815	3034.0327	3039.4873	3106.8074	3109.9601	3116.3402	3122.3968	3131.61	3206.6296	3207.4032	3489.3516	3765.9948
CC(O)C1(CO1)C1CN1	C[C@@H](O)[C@]1(CO1)[C@H]1CN1	
InChI=1S/C6H11NO2/c1-4(8)6(3-9-6)5-2-7-5/h4-5,7-8H,2-3H2,1H3	InChI=1S/C6H11NO2/c1-4(8)6(3-9-6)5-2-7-5/h4-5,7-8H,2-3H2,1H3/t4-,5-,6-/m1/s1
