16
gdb 16256	2.89942	2.24941	1.45867	1.8317	60.01	-0.2446	0.0507	0.2952	854.617	0.130328	-420.844507	-420.837096	-420.836152	-420.876477	27.553	
O	 0.0639398372	 1.4195527643	-0.2206881706	-0.426173
C	-0.0030546319	 0.0288009858	 0.0338724326	 0.005745
C	 0.5118004085	-0.3934501555	 1.4243210159	-0.117705
O	-0.2224484801	-1.5630128151	 1.7510607792	-0.245477
C	-1.5629897063	-1.3234085277	 1.3352406946	-0.162452
C	-1.4538519727	-0.4532163081	 0.0867895629	 0.401257
C	-2.5637973383	 0.2828972002	-0.5163505041	-0.240382
O	-2.0472229606	-0.9076168511	-1.1283073968	-0.276315
H	 0.9592012643	 1.6327100655	-0.4999471099	 0.291747
H	 0.5097182691	-0.5423978206	-0.7517351801	 0.094794
H	 1.575007498	-0.6445740271	 1.4527220629	 0.107684
H	 0.3169007032	 0.4270918921	 2.1349422734	 0.09679
H	-2.045874144	-2.2808866456	 1.1263536252	 0.127567
H	-2.1244528298	-0.8033348527	 2.1278882591	 0.098119
H	-3.5633182845	 0.1921474167	-0.0911764437	 0.111951
H	-2.3554706922	 1.2100912189	-1.0442272506	 0.132848
54.0876	215.7086	231.3543	262.2321	298.1671	350.4765	409.3438	509.5072	556.2709	625.1661	753.3371	839.2275	889.6587	948.8124	959.8702	1002.4051	1056.4079	1081.8464	1111.5696	1121.7483	1132.3969	1165.8542	1204.5459	1219.7674	1245.8718	1269.0516	1316.3064	1330.3302	1364.4568	1417.7961	1451.8032	1499.4618	1514.689	1528.8083	2970.5142	2977.8559	3017.4708	3085.6642	3098.9675	3103.6303	3184.7559	3830.1861
OC1COCC11CO1	O[C@H]1COC[C@]21CO2	
InChI=1S/C5H8O3/c6-4-1-7-2-5(4)3-8-5/h4,6H,1-3H2	InChI=1S/C5H8O3/c6-4-1-7-2-5(4)3-8-5/h4,6H,1-3H2/t4-,5+/m0/s1
