20
gdb 39948	3.01193	1.37616	1.04532	1.536	89.42	-0.2194	0.0116	0.231	1189.393	0.173601	-365.99452	-365.986597	-365.985653	-366.027241	31.53	
C	 0.0021888686	 1.4667454496	-0.0363506812	-0.270087
N	 1.2486644	 0.7318067986	 0.1214462587	-0.353441
C	-0.0360626539	-0.0398930768	 0.0180801517	 0.269488
C	-0.3926838625	-0.6593765533	 1.319306218	-0.062542
C	-0.8837842968	-1.8673278627	 1.5953512014	-0.092059
C	-1.2573546767	-2.9800241644	 0.6512766371	-0.260261
C	-1.9409181878	-2.5476206706	-0.6555912571	-0.263356
C	-1.0936689047	-1.7218208744	-1.5872692934	-0.089146
C	-0.3058180439	-0.688184744	-1.288230857	-0.10679
H	-0.3147997009	 2.0333749123	 0.8356342968	 0.121202
H	-0.2260753888	 1.9378317248	-0.9892661988	 0.113597
H	 1.743465539	 0.6761494153	-0.7661356441	 0.232395
H	-0.155856295	-0.0111005048	 2.15991501	 0.087716
H	-1.0167175621	-2.1006916537	 2.6499999406	 0.085529
H	-0.3613132426	-3.567406445	 0.4057555792	 0.116538
H	-1.9274758663	-3.6699617494	 1.1773794533	 0.098407
H	-2.2692395537	-3.4474865274	-1.1875502565	 0.098255
H	-2.8581976087	-1.9956042754	-0.4071909951	 0.115962
H	-1.1601003231	-1.9899975046	-2.6394400721	 0.085946
H	 0.20062678	-0.1953116743	-2.1187522717	 0.072648
45.684	171.1355	235.4242	300.863	331.5475	339.164	393.4042	491.4741	564.3176	605.7426	665.7544	727.9781	751.2604	804.7272	842.657	857.2976	886.4956	939.1388	951.6548	971.3301	986.7621	1001.3706	1010.7072	1042.7484	1077.1513	1090.0138	1131.8317	1195.032	1227.3137	1251.159	1266.7919	1296.177	1308.2948	1358.9189	1371.0832	1407.0412	1441.5695	1455.1919	1479.4127	1484.1412	1506.4711	1730.478	1742.602	3006.0873	3013.5831	3051.6183	3059.0574	3100.241	3110.8681	3133.9399	3150.302	3159.2249	3186.5457	3491.2708
C1NC11C=CCCC=C1	C1N[C@]21C=CCCC=C2	
InChI=1S/C8H11N/c1-2-4-6-8(5-3-1)7-9-8/h3-6,9H,1-2,7H2	InChI=1S/C8H11N/c1-2-4-6-8(5-3-1)7-9-8/h3-6,9H,1-2,7H2
