19
gdb 100590	2.93489	0.88952	0.73652	1.7732	75.82	-0.2442	-0.0244	0.2198	1569.572	0.157594	-456.372991	-456.362577	-456.361633	-456.409481	36.07	
C	 0.0979340641	 1.4501605715	 0.1091327243	-0.396973
C	-0.0503383209	-0.0685879051	-0.0040594762	-0.184376
C	-1.5329819877	-0.5374162999	 0.0013110028	-0.085591
N	-2.3640948962	-0.0832052897	-1.1056265444	-0.521673
C	-1.5409866263	-2.0534245135	-0.0047710181	 0.489892
O	-1.725162137	-2.7466566982	-0.9677715789	-0.348241
O	-1.2502711347	-2.5363518685	 1.2465384705	-0.207475
C	-1.1660648356	-3.8979780289	 1.4118081693	 0.115434
N	-0.8670007229	-4.3326110327	 2.5529176345	-0.419128
H	 1.154022272	 1.7347046574	 0.1238352755	 0.124019
H	-0.3644725266	 1.9708752818	-0.7362762805	 0.113523
H	-0.3627169271	 1.8259655684	 1.0292263841	 0.124793
H	 0.4235687902	-0.4262926512	-0.9271356704	 0.104688
H	 0.4703266287	-0.548798543	 0.8320176054	 0.121405
H	-1.9834670334	-0.2095528759	 0.9464442839	 0.111872
H	-2.2125782471	 0.9033877389	-1.2818804766	 0.231321
H	-2.1119399639	-0.5955503482	-1.9456492359	 0.240296
H	-1.3806735995	-4.4501707976	 0.496892532	 0.145261
H	-0.8447546161	-5.3514300355	 2.5381313986	 0.240953
43.1297	87.8443	99.6688	109.2697	168.054	209.6856	223.4853	250.3886	312.3201	354.5053	359.301	474.8663	550.4918	692.7782	762.7614	788.7378	838.8517	854.8302	907.8083	943.4981	1001.0173	1022.2874	1068.366	1072.2354	1100.7913	1155.4433	1161.3304	1239.179	1264.0466	1294.7705	1332.4257	1366.1064	1388.4565	1407.9809	1427.7647	1484.4509	1498.6839	1507.628	1636.1057	1747.1262	1840.0401	3024.266	3033.16	3038.5144	3072.0809	3101.9249	3109.0524	3141.2369	3505.2257	3506.3059	3595.6656
CCC(N)C(=O)OC=N	CC[C@@H](N)C(=O)O[CH][NH]	
InChI=1S/C5H10N2O2/c1-2-4(7)5(8)9-3-6/h3-4,6H,2,7H2,1H3	InChI=1S/C5H10N2O2/c1-2-4(7)5(8)9-3-6/h3-4,6H,2,7H2,1H3/t4-/m1/s1
