21
gdb 59428	3.17399	1.06839	0.92196	0.6697	79.3	-0.2223	0.0696	0.2919	1350.8613	0.180753	-424.190306	-424.180693	-424.179748	-424.225053	35.733	
C	 0.2250638298	 1.5351673226	 0.2307765699	-0.39428
C	-0.0729313602	 0.0476955476	 0.0347372013	 0.122117
O	-1.4768226693	-0.213797177	 0.1093274283	-0.431452
C	 0.5270179697	-0.4970972531	-1.245188238	-0.113613
C	 1.9112052933	-1.1447056015	-1.2496603438	-0.374358
C	 0.6806403306	-1.9691591647	-1.4390258745	 0.459545
C	 0.1074493573	-3.1212563646	-0.6194990426	-0.360483
C	-0.1957879388	-3.7356350341	-2.0032806595	-0.075305
O	 0.3796298303	-2.5954861396	-2.6864992859	-0.312935
H	 1.3037592624	 1.7181433802	 0.2643334791	 0.120245
H	-0.1871382019	 2.123236884	-0.5984744933	 0.106421
H	-0.2234973654	 1.8946112616	 1.1607718478	 0.121416
H	 0.3444343051	-0.5115845267	 0.8813028278	 0.082831
H	-1.8910473681	 0.1973609823	-0.6574594585	 0.276747
H	 0.2739546782	 0.0614783053	-2.1458165194	 0.085383
H	 2.5398187736	-0.9813876039	-2.1184378393	 0.121578
H	 2.4471180477	-1.2198475941	-0.307280742	 0.110583
H	 0.8276105109	-3.6724157513	-0.0117779606	 0.109127
H	-0.7655176845	-2.8590150351	-0.0209164913	 0.135631
H	 0.339461762	-4.6611501356	-2.2432608438	 0.10456
H	-1.2570987327	-3.8589014121	-2.2465005216	 0.106241
65.4273	87.6855	120.8998	150.3176	244.9429	261.3065	290.531	322.0399	351.8291	438.998	485.4374	493.6944	620.9346	792.0482	797.4294	867.0609	872.217	891.8503	903.661	964.8698	969.5102	1010.8823	1019.8024	1037.7529	1063.7385	1087.33	1111.7027	1122.7269	1164.6764	1181.0603	1190.218	1220.399	1252.4902	1274.3095	1320.9997	1349.4755	1369.2724	1400.9044	1415.1236	1427.3789	1482.0093	1489.8675	1490.5561	1494.5687	1532.7966	3026.3742	3026.7206	3034.6032	3069.1151	3079.106	3096.4305	3116.9626	3118.167	3119.6863	3139.6903	3210.7322	3800.9853
CC(O)C1CC11CCO1	C[C@@H](O)[C@H]1C[C@]21CCO2	
InChI=1S/C7H12O2/c1-5(8)6-4-7(6)2-3-9-7/h5-6,8H,2-4H2,1H3	InChI=1S/C7H12O2/c1-5(8)6-4-7(6)2-3-9-7/h5-6,8H,2-4H2,1H3/t5-,6-,7+/m1/s1
