16
gdb 23414	3.6198	1.26841	0.99324	1.7806	75.28	-0.2468	-0.0098	0.237	1148.5076	0.124308	-437.798686	-437.791098	-437.790154	-437.830948	29.027	
O	-0.1778391421	 1.3686918728	 0.0993010634	-0.38679
N	 0.0111997905	-0.0197426797	 0.0869611198	-0.208968
C	-1.0939976371	-0.6379887423	-0.007358222	 0.357946
C	-2.5123848035	-0.0633478333	-0.1023126175	-0.339115
C	-3.3269587414	-1.2645873911	-0.5641313036	-0.187649
C	-2.6156287002	-2.3792284884	-0.423524001	 0.161649
C	-2.1361358222	-3.5732592551	-1.2098672856	-0.144211
O	-0.7810989359	-3.0274334451	-1.0979279494	-0.299844
C	-1.2042423431	-2.1495613459	 0.0089205963	 0.022519
H	 0.7265544699	 1.6989028529	 0.13932816	 0.310649
H	-2.8237552474	 0.3740911091	 0.8561444805	 0.134867
H	-2.5555663655	 0.755033468	-0.8303767823	 0.141349
H	-4.2690605708	-1.1585189506	-1.0889097389	 0.106829
H	-2.2051603076	-4.5480733546	-0.7102706563	 0.11026
H	-2.4737115082	-3.6598575603	-2.2469512517	 0.124214
H	-0.8538222354	-2.5804439562	 0.9552686482	 0.096294
79.0927	176.4142	215.65	264.5314	345.0287	352.1669	418.2838	511.1625	519.1256	650.8914	715.3181	784.9379	808.4355	833.11	893.6572	916.8677	940.159	977.5008	983.7589	1001.8324	1016.0437	1109.7122	1136.758	1150.4752	1196.2136	1235.4814	1274.6689	1292.0349	1328.4449	1342.0725	1404.6441	1463.9977	1512.0032	1731.4102	1757.0249	3017.0766	3019.6967	3025.6838	3062.2442	3086.9504	3202.0834	3812.3889
ON=C1CC=C2COC12	ON=C1C[CH][C]2CO[C@@H]12	
InChI=1S/C6H7NO2/c8-7-5-2-1-4-3-9-6(4)5/h1,6,8H,2-3H2	InChI=1S/C6H7NO2/c8-7-5-2-1-4-3-9-6(4)5/h1,6,8H,2-3H2/t6-/m1/s1
