18
gdb 110663	2.84768	1.7819	1.53271	0.7412	77.52	-0.2079	-0.0338	0.1741	929.4426	0.148131	-401.816543	-401.809091	-401.808147	-401.848211	29.795	
O	-0.0969252408	 1.5219770136	 0.0714659865	-0.410521
C	-0.0849497141	 0.149411965	-0.2732882344	-0.107737
C	-1.4307177404	-0.5409153266	-0.100557908	 0.030208
N	-2.1808502728	-0.2280191058	 1.210917906	-0.194889
C	-3.2537453005	 0.9241429413	 1.1412012483	-0.023409
C	-3.3434911673	 2.0165811155	 0.0600019005	-0.267786
C	-2.7629578397	 1.2458679434	-1.117749885	-0.093783
C	-2.7149363571	-0.069777727	-0.8085614385	-0.025403
C	-3.4752942881	-0.3625300817	 0.4890353605	-0.066406
H	-0.3932100725	 1.5713083761	 0.9871788951	 0.29514
H	 0.2379470877	 0.0860053843	-1.3179762094	 0.122263
H	 0.6555067679	-0.3978433669	 0.3309097497	 0.102326
H	-1.2847136557	-1.6275255249	-0.0831552981	 0.092163
H	-3.5834162017	 1.1175270155	 2.1583226149	 0.100801
H	-4.3835125974	 2.3697342491	 0.003541703	 0.115955
H	-2.7141399228	 2.8954438057	 0.2355793873	 0.123043
H	-2.0039449301	 1.7175373685	-1.7308539034	 0.113604
H	-4.1924753545	-1.147124125	 0.703410345	 0.094429
104.2989	152.5317	248.8674	277.6945	366.7098	402.5343	453.8062	532.8494	627.8748	673.4917	727.4948	776.0519	789.0703	835.6564	875.2777	883.4252	898.8397	924.5988	966.4364	982.0564	1015.7529	1036.7707	1056.7977	1072.0929	1131.0266	1147.5044	1185.2386	1213.9492	1238.4096	1256.585	1274.0174	1315.0069	1359.1763	1366.0096	1401.5313	1421.177	1463.6966	1489.8969	1575.0994	2983.9958	3001.399	3036.9743	3073.0102	3076.1565	3157.6276	3172.9532	3194.1181	3806.6078
OCC1N2C3CC=C1C23	OC[C@H]1N2[C@H]3C[CH][C]1[C@@H]23	
InChI=1S/C7H9NO/c9-3-6-4-1-2-5-7(4)8(5)6/h1,5-7,9H,2-3H2	InChI=1S/C7H9NO/c9-3-6-4-1-2-5-7(4)8(5)6/h1,5-7,9H,2-3H2/t5-,6+,7+,8?/m0/s1
