21
gdb 8910	3.38399	1.23194	0.96462	4.0584	79.03	-0.3104	0.0385	0.3489	1254.2468	0.187411	-329.158611	-329.148722	-329.147778	-329.193251	35.662	
C	-0.1137711751	 1.5895226294	-0.0225526017	-0.394826
C	 0.0388105243	 0.0642374925	 0.0018625193	-0.184617
C	 0.7564397829	-0.4823839347	 1.2513645079	 0.043491
C	 0.0290906114	-0.0938905868	 2.5466406253	-0.414499
C	 0.9284091722	-2.0296953065	 1.1627948867	-0.129808
C	 1.6775942582	-2.5242890327	-0.0928382662	-0.406162
C	 1.6212976735	-2.5353385109	 2.3548384167	 0.272481
N	 2.1849582988	-2.934065715	 3.2822656946	-0.336852
H	 0.8563803579	 2.0856623316	 0.0938645099	 0.118205
H	-0.5398248706	 1.9163969232	-0.9759114983	 0.116715
H	-0.7715295157	 1.9520419479	 0.7719082462	 0.124154
H	-0.9528606408	-0.4042014789	-0.0739307147	 0.095339
H	 0.5894355357	-0.2365089783	-0.8950743615	 0.102188
H	 1.7670149425	-0.0507797353	 1.2797942339	 0.087811
H	 0.5280693539	-0.5117859162	 3.4246787635	 0.145289
H	-0.004434596	 0.990848628	 2.6710663291	 0.122343
H	-1.0046083309	-0.4610962796	 2.5392231058	 0.113632
H	-0.0744932006	-2.4794306888	 1.1690594914	 0.121779
H	 2.6460245083	-2.0241846175	-0.1883574067	 0.135004
H	 1.8575606774	-3.6003304406	-0.0318528396	 0.138101
H	 1.0947028127	-2.3302327408	-0.9947399617	 0.130232
57.9391	89.0229	145.7221	199.9476	217.5278	221.1346	265.0806	281.4062	323.5609	387.9477	400.0842	439.1175	556.8978	588.7503	773.8186	815.2372	839.9702	910.2032	968.1656	990.9123	998.6039	1040.2898	1065.0233	1109.3917	1149.1672	1177.2956	1188.1276	1266.8194	1309.3958	1323.5383	1349.7314	1366.3954	1383.5917	1412.6579	1416.0975	1421.0742	1484.1377	1496.655	1497.7769	1500.7154	1505.5093	1507.8256	1517.6053	2351.8129	3002.4363	3012.6248	3022.3157	3035.306	3037.5141	3052.3311	3072.3065	3101.6258	3106.4989	3116.6946	3123.9473	3128.1113	3140.3552
CCC(C)C(C)C#N	CC[C@@H](C)[C@@H](C)C#N	
InChI=1S/C7H13N/c1-4-6(2)7(3)5-8/h6-7H,4H2,1-3H3	InChI=1S/C7H13N/c1-4-6(2)7(3)5-8/h6-7H,4H2,1-3H3/t6-,7+/m1/s1
