18
gdb 28549	2.32331	1.73332	1.00503	2.2896	83.08	-0.2098	-0.0309	0.1789	1165.3174	0.1477	-402.020179	-402.011491	-402.010547	-402.053224	32.395	
C	-0.0195514512	 1.5203425668	 0.0125181237	-0.472217
C	-0.0169565158	 0.0293214757	-0.0518841073	 0.298203
C	-0.0606005206	-0.7933708847	-1.1375897267	-0.223265
C	-0.0363228999	-2.1541037128	-0.6838334416	-0.237134
C	 0.0219894459	-2.150928015	 0.6763043556	 0.309184
C	 0.0670211441	-3.3021540222	 1.6279375787	-0.502721
N	 0.0348081345	-0.8024642623	 1.0854281477	-0.155605
C	 0.0900069214	-0.389721286	 2.4078377337	 0.16843
O	 0.1025584898	 0.7565601287	 2.7824106415	-0.306116
H	 0.876452644	 1.9143680441	 0.5009387846	 0.142699
H	-0.0640066593	 1.9124389772	-1.0070766421	 0.118536
H	-0.8740330871	 1.9081170317	 0.5748003672	 0.142639
H	-0.1057487183	-0.4588657453	-2.16323215	 0.103697
H	-0.059710543	-3.0395394408	-1.3015351383	 0.103497
H	 0.9782309005	-3.3160648715	 2.2381101728	 0.135206
H	-0.787807734	-3.3218816295	 2.314720389	 0.135194
H	 0.0450738993	-4.2302699881	 1.051955506	 0.138581
H	 0.12376077	-1.245379686	 3.1025714155	 0.101194
100.8357	177.6138	201.5891	213.2009	238.8563	254.7349	286.1622	317.1233	400.3902	520.2771	610.9636	627.1492	650.0576	714.4324	800.583	816.7101	838.9455	992.5367	996.3989	1034.8875	1042.3635	1061.8618	1065.5734	1069.4173	1227.9495	1244.809	1312.4413	1352.2501	1406.8835	1419.5637	1427.417	1457.2532	1473.0764	1481.4116	1482.2185	1498.201	1588.4631	1650.8768	1813.428	2999.4658	3021.3863	3043.3052	3066.7636	3101.4381	3120.2658	3121.4717	3237.8212	3251.8103
CC1=CC=C(C)N1C=O	Cc1ccc(C)n1C=O	
InChI=1S/C7H9NO/c1-6-3-4-7(2)8(6)5-9/h3-5H,1-2H3	InChI=1S/C7H9NO/c1-6-3-4-7(2)8(6)5-9/h3-5H,1-2H3
