23
gdb 111456	2.0629	1.61207	1.01206	0.2578	91.39	-0.2152	0.0287	0.244	1274.2835	0.206209	-351.166583	-351.157412	-351.156468	-351.200248	35.741	
C	 0.9308870828	-0.3366630071	 1.299492197	-0.382562
C	 0.1282000449	 0.097468137	 0.0696602854	-0.177205
C	 0.7392745588	-0.3876807006	-1.2581823614	-0.083466
C	 0.8101787187	-1.9113171905	-1.41745023	-0.041513
C	-0.4730747507	-2.7039189757	-1.4898535904	-0.283956
C	 0.2172636448	-2.2664393629	-2.7680254325	-0.078988
C	-0.2548936843	-0.9692975179	-3.3291879007	-0.188648
C	-0.0178528258	 0.06050605	-2.5084667459	 0.306434
C	-0.4088801416	 1.4885431903	-2.7282751747	-0.494294
H	 0.9687483162	-1.4273507955	 1.3841132147	 0.121605
H	 1.9629136981	 0.0292532613	 1.2475895267	 0.110342
H	 0.4863242206	 0.0535419565	 2.2204376528	 0.108858
H	-0.9006764016	-0.2745546582	 0.1508625598	 0.095141
H	 0.0585064128	 1.1921677231	 0.052814676	 0.09241
H	 1.7627848047	 0.0202676262	-1.3053982783	 0.070413
H	 1.6898106855	-2.4276328688	-1.0518485414	 0.081269
H	-0.410965728	-3.7522704213	-1.2150891217	 0.104635
H	-1.414828696	-2.2268217517	-1.2391745044	 0.108808
H	 0.653164105	-3.019211531	-3.4160138718	 0.080999
H	-0.7636818812	-0.8919621427	-4.2847126293	 0.083304
H	-0.8662445713	 1.6287691457	-3.711677806	 0.120323
H	-1.1254144358	 1.8371770941	-1.9739351224	 0.126367
H	 0.4614695033	 2.1546473595	-2.6595299112	 0.119726
80.3517	132.8918	175.2411	192.6337	214.7276	267.5977	284.7066	375.7241	431.3179	476.3213	529.199	622.9488	691.2728	741.0514	807.0351	819.2974	833.877	864.9237	922.4151	924.4326	967.3636	984.1457	1015.7564	1042.5183	1049.0914	1066.1502	1075.195	1081.6091	1109.3272	1115.1506	1142.3942	1185.8606	1215.8841	1278.1358	1280.7941	1299.2346	1348.7449	1358.7419	1369.5287	1378.2909	1408.6141	1413.2341	1474.4301	1478.3952	1488.3089	1490.6966	1498.4386	1508.0672	1704.3306	2959.8855	3013.3664	3023.4903	3029.3996	3056.0192	3058.9435	3095.788	3105.1477	3106.2897	3121.6496	3161.5583	3175.1981	3182.3483	3209.803
CCC1C2CC2C=C1C	CC[C@H]1[C@H]2C[C@H]2C=C1C	
InChI=1S/C9H14/c1-3-8-6(2)4-7-5-9(7)8/h4,7-9H,3,5H2,1-2H3	InChI=1S/C9H14/c1-3-8-6(2)4-7-5-9(7)8/h4,7-9H,3,5H2,1-2H3/t7-,8-,9+/m1/s1
