17
gdb 116523	2.58978	1.0833	0.81671	2.1206	81.35	-0.2418	-0.0773	0.1645	1405.8942	0.133282	-417.991014	-417.980974	-417.98003	-418.026484	35.831	
C	-0.2824865327	 1.6193370261	 0.2836736241	-0.370351
C	 0.2370439667	 0.19761274	 0.0197688544	-0.158632
N	 0.8322170165	-0.3828547563	 1.2119055243	-0.283924
C	 0.0891023013	-1.040987371	 2.0174706937	 0.292705
N	-1.2425551278	-1.3503455401	 1.9343403779	-0.562805
C	 0.7364715892	-1.6249227766	 3.2524334783	 0.176506
O	 0.0697090929	-2.2122219459	 4.0841346563	-0.317965
C	 2.1626572943	-1.4485574063	 3.3958338433	 0.321844
C	 3.3448482155	-1.3561472803	 3.5997871135	-0.406241
H	 0.5227545688	 2.2500405921	 0.6698415227	 0.135676
H	-0.6644676877	 2.0672068948	-0.6388837663	 0.11706
H	-1.0896076178	 1.6204673251	 1.023958462	 0.110835
H	-0.5724549093	-0.4281627133	-0.3910454774	 0.087491
H	 1.0165480325	 0.2440978058	-0.7483001492	 0.111196
H	-1.8524221553	-0.7872608297	 1.3685945575	 0.262406
H	-1.6350835855	-1.7638143804	 2.7674768889	 0.271831
H	 4.3910524284	-1.2642100439	 3.762654966	 0.212367
52.7136	83.2115	113.0455	133.2927	209.3926	252.9102	273.7537	322.8681	359.5861	386.1947	451.108	502.3621	541.1002	618.4928	641.5846	657.7168	712.585	753.8083	818.7219	827.7582	889.4406	1014.4082	1081.3508	1132.6591	1150.022	1196.0437	1299.612	1359.701	1370.9315	1404.3485	1489.2083	1498.9149	1525.6098	1605.0689	1722.6836	1742.1021	2219.1561	2965.7126	3036.6831	3055.8731	3105.87	3121.2455	3496.8604	3585.5744	3722.6173
CCN=C(N)C(=O)C#C	CCN=C(N)C(=O)C#C	
InChI=1S/C6H8N2O/c1-3-5(9)6(7)8-4-2/h1H,4H2,2H3,(H2,7,8)	InChI=1S/C6H8N2O/c1-3-5(9)6(7)8-4-2/h1H,4H2,2H3,(H2,7,8)
