16
gdb 49814	3.42387	1.30033	0.97417	1.8354	75.01	-0.2486	-0.0372	0.2114	1156.29	0.126529	-434.094237	-434.086586	-434.085642	-434.126894	28.235	
O	 0.0459405991	 0.0194293345	-0.9016984222	-0.295788
C	 0.054896938	 1.1764418438	-0.5747911141	 0.179319
N	 1.0611725675	 1.789002961	 0.1920700956	-0.149162
C	 2.1448151681	 0.9595212086	 0.598835309	 0.113399
N	 3.2539606155	 1.2666263452	 1.1133427733	-0.24552
C	 3.6533401631	 2.6328335064	 1.3838517702	-0.177092
C	 2.6055106232	 3.49555332	 2.1064768299	-0.175731
N	 1.4824142953	 3.9223042263	 1.2967984867	-0.247847
C	 0.868897387	 3.1556819625	 0.5075071111	 0.113711
H	-0.7424407849	 1.8895814043	-0.8472288728	 0.108979
H	 1.9180779099	-0.079790415	 0.3790313358	 0.160316
H	 4.5592186604	 2.5963857964	 1.9981848576	 0.11742
H	 3.931329237	 3.1271788345	 0.4433762426	 0.126533
H	 2.2352388392	 2.9443051396	 2.9808369818	 0.128763
H	 3.0958477778	 4.396780954	 2.489858612	 0.116964
H	 0.0197441937	 3.5617574781	-0.0439076064	 0.125739
58.6336	168.8144	205.2841	270.5317	274.6618	335.3178	418.0342	499.0575	561.319	596.9093	692.6752	768.3881	848.6971	903.1294	907.1595	939.4256	964.9148	1026.9158	1040.5801	1061.438	1095.4805	1190.1273	1227.9427	1276.6495	1308.0066	1342.0936	1390.6285	1422.8629	1451.3394	1488.4085	1490.7405	1492.8091	1744.1852	1772.4009	1838.2879	2981.4803	3020.4128	3025.7936	3066.4802	3068.8768	3117.7634	3185.105
O=CN1C=NCCN=C1	O=CN1C=NCCN=C1	
InChI=1S/C5H7N3O/c9-5-8-3-6-1-2-7-4-8/h3-5H,1-2H2	InChI=1S/C5H7N3O/c9-5-8-3-6-1-2-7-4-8/h3-5H,1-2H2
