19
gdb 92994	2.8798	1.14443	0.90425	4.1707	78.92	-0.2601	-0.0027	0.2574	1304.6979	0.158822	-423.064756	-423.0559	-423.054956	-423.099243	32.3	
C	-0.5473884966	 1.2801820262	 0.2392978436	-0.410526
C	 0.1712087807	-0.0461025214	 0.0020283025	 0.005922
C	 1.3073974087	-0.0026670578	-1.0526634311	-0.267514
C	 2.297301522	-1.0158792831	-0.5383239865	-0.056178
C	 2.0299806825	-1.3992032868	 0.7090027578	-0.077204
C	 0.8277239463	-0.6781083898	 1.2593230411	 0.058348
O	 1.2798158294	 0.341523119	 2.1885746547	-0.191256
C	 0.8156272059	 0.3159585749	 3.4484262117	 0.16836
O	 1.1339179564	 1.1172078497	 4.2759469358	-0.280877
H	 0.1438390446	 2.0430575856	 0.6064414283	 0.141015
H	-0.9957043496	 1.6424121288	-0.6912029522	 0.116087
H	-1.3519632654	 1.1758106337	 0.9749988546	 0.113888
H	-0.5600851053	-0.7859656142	-0.3455488226	 0.087186
H	 0.9417626152	-0.2359696411	-2.0588601656	 0.108736
H	 1.7704574124	 0.9919709001	-1.1149333426	 0.120182
H	 3.1394479544	-1.3625563648	-1.1274704747	 0.104701
H	 2.6158436012	-2.0863220739	 1.3079035014	 0.103507
H	 0.1294286143	-1.3296186614	 1.7993441842	 0.082777
H	 0.1148809729	-0.5232371436	 3.6320735197	 0.072847
43.7118	77.2568	150.2324	198.8703	236.8271	273.8853	328.8254	361.3307	440.4424	505.5635	602.7434	706.5717	753.8774	792.5398	844.0238	928.1351	932.7356	976.0043	982.0675	989.2306	1018.0206	1045.4159	1062.4479	1118.2772	1137.5835	1158.7889	1185.6638	1210.8046	1281.1682	1309.3858	1329.1834	1362.5464	1373.5703	1380.4017	1413.7436	1442.133	1484.54	1497.1288	1500.5064	1685.3782	1860.4964	2934.2931	3015.9911	3020.9723	3034.3124	3038.6718	3064.2619	3100.4019	3122.89	3187.127	3214.0194
CC1CC=CC1OC=O	C[C@H]1CC=C[C@H]1OC=O	
InChI=1S/C7H10O2/c1-6-3-2-4-7(6)9-5-8/h2,4-7H,3H2,1H3	InChI=1S/C7H10O2/c1-6-3-2-4-7(6)9-5-8/h2,4-7H,3H2,1H3/t6-,7+/m0/s1
