13
gdb 130242	3.26962	1.48989	1.02417	2.1096	65.67	-0.2383	-0.0609	0.1773	1057.8027	0.090253	-486.079788	-486.072106	-486.071162	-486.112098	28.864	
N	 0.0283435606	 1.3361677844	 0.2337154403	-0.545083
C	-0.0424708986	 0.0043027351	-0.0216178984	 0.310146
N	-1.1779921461	-0.5845307356	-0.1835177105	-0.189061
O	-1.1394192049	-1.9636116225	-0.5166061271	-0.275526
C	 0.0098885149	-2.6767922211	-0.6629480717	 0.502656
N	 0.0394670522	-3.9000197558	-0.9761304961	-0.560623
N	 1.1955233431	-1.9854280085	-0.4364412596	-0.398923
C	 1.2934540034	-0.6687609516	-0.1055359735	 0.435736
O	 2.3347975199	-0.0867943923	 0.115625733	-0.365179
H	 0.9189602969	 1.6638995782	 0.5744976164	 0.283255
H	-0.8087042867	 1.8168877627	 0.5185002301	 0.274885
H	-0.9015008471	-4.2656863347	-1.1031394951	 0.240633
H	 2.0445357124	-2.5290154284	-0.5204657477	 0.287084
79.2055	140.7115	253.0488	308.1466	360.047	379.2862	438.017	466.6043	510.0189	548.8355	601.9724	669.786	696.1961	715.1409	799.4931	811.1197	821.7487	911.685	962.5267	1107.0269	1148.3013	1302.6157	1374.0178	1415.5405	1478.4048	1602.0358	1680.1739	1768.1022	1812.3371	3535.7271	3590.5804	3606.8487	3721.3552
NC1=NOC(=N)NC1=O	NC1=NO[C]([NH])NC1=O	
InChI=1S/C3H4N4O2/c4-1-2(8)6-3(5)9-7-1/h(H2,4,7)(H2,5,6,8)	InChI=1S/C3H4N4O2/c4-1-2(8)6-3(5)9-7-1/h(H2,4,7)(H2,5,6,8)
