13
gdb 9003	6.94702	0.90059	0.80112	0.108	58.19	-0.2658	-0.1128	0.153	1290.1271	0.092566	-435.767876	-435.759412	-435.758468	-435.802749	27.578	
O	-0.0710948934	-0.0697325847	 0.0000590567	-0.320598
C	-0.0254994315	 1.1420053708	 0.007681354	 0.158217
N	 1.1275930136	 1.8598784757	 0.0028288642	-0.285664
C	 2.4136865723	 1.2246628994	-0.0126633977	-0.242565
C	 3.5112954657	 2.2640877751	-0.0194049484	 0.29118
O	 3.2988859012	 3.4508073288	-0.0118403582	-0.27333
C	 4.9516227879	 1.7072938516	-0.035381479	 0.090555
O	 5.9120526954	 2.4236981613	-0.0414423227	-0.195179
H	-0.9221239195	 1.7904759976	 0.0182138993	 0.089003
H	 1.1246179478	 2.8701541619	 0.0073201122	 0.26816
H	 2.5540282341	 0.5614839193	 0.8559179653	 0.158512
H	 2.5363110855	 0.5686461502	-0.8893070406	 0.158589
H	 5.0325566508	 0.5978973331	-0.0404860853	 0.103119
23.6274	72.282	121.3625	137.1817	243.1253	293.198	301.2749	403.8657	446.7627	565.1417	691.616	820.5112	848.2314	903.7665	1022.758	1036.8225	1046.7552	1110.6279	1223.0725	1230.781	1354.8798	1414.5914	1422.9271	1466.6137	1517.076	1796.1959	1816.1401	1846.6168	2893.7712	2958.1036	2992.479	3005.2322	3604.594
O=CNCC(=O)C=O	O=CNCC(=O)C=O	
InChI=1S/C4H5NO3/c6-2-4(8)1-5-3-7/h2-3H,1H2,(H,5,7)	InChI=1S/C4H5NO3/c6-2-4(8)1-5-3-7/h2-3H,1H2,(H,5,7)
