15
gdb 19959	4.04543	1.50395	1.16177	2.3538	62.21	-0.2525	0.0268	0.2793	984.4988	0.119001	-399.791402	-399.783943	-399.782999	-399.824036	26.462	
O	-0.2644671507	 0.0038245061	 0.0693281037	-0.355216
C	-0.1482278575	 1.1982955762	 0.0387274409	 0.408983
N	-1.0500291187	 2.2304620159	-0.0282288974	-0.320501
C	-0.0605870591	 3.3117883822	-0.0220625544	-0.180429
C	 1.040581571	 2.2094401195	 0.0650498528	-0.17535
C	 1.8929570494	 2.1787327104	 1.2999836464	 0.096942
C	 3.186157495	 1.4873033845	 1.3286917066	-0.178681
O	 3.1198015447	 2.9134513441	 1.2547451782	-0.241715
H	-2.0554238937	 2.2322590537	-0.1154392823	 0.254457
H	-0.041657607	 3.9128037327	-0.9359687227	 0.119865
H	-0.1216995273	 3.9706659805	 0.8499651488	 0.120107
H	 1.6666513153	 2.1450623194	-0.8278434708	 0.109553
H	 1.3500533242	 2.2795100737	 2.2416728965	 0.099124
H	 3.5589819731	 1.0820547267	 2.2676732038	 0.121588
H	 3.5460638714	 0.9872411244	 0.4309079098	 0.121274
60.4002	98.2498	147.5366	229.0589	325.0212	389.3775	464.8732	543.7733	672.0497	752.1733	830.3024	860.7541	909.3227	940.0183	964.7084	988.5768	1063.2739	1100.4957	1148.4148	1155.2427	1161.7838	1169.3741	1177.5644	1200.3905	1282.1218	1294.9698	1297.4596	1395.3207	1451.2958	1527.8417	1530.6662	1896.5763	3043.9382	3086.3747	3089.0495	3092.6369	3104.0085	3177.1044	3613.3406
O=C1NCC1C1CO1	O=C1NC[C@H]1[C@H]1CO1	
InChI=1S/C5H7NO2/c7-5-3(1-6-5)4-2-8-4/h3-4H,1-2H2,(H,6,7)	InChI=1S/C5H7NO2/c7-5-3(1-6-5)4-2-8-4/h3-4H,1-2H2,(H,6,7)/t3-,4+/m0/s1
