13
gdb 127541	5.51075	1.38193	1.11285	1.3815	67.	-0.2523	-0.0409	0.2115	1006.546	0.092366	-448.920127	-448.913497	-448.912553	-448.951769	24.079	
C	 0.002085613	 1.4099378468	-0.0022334612	-0.308818
N	-0.0390880365	-0.037906469	-0.0030263153	 0.116773
N	 0.0267106173	-0.730689373	-1.1656357546	-0.362509
C	 0.0525098496	-1.9621748932	-0.6940212609	 0.392746
O	 0.0887122188	-3.2324934195	-1.1647147441	-0.207756
C	 0.0658717713	-3.9636386824	 0.018344105	 0.067566
N	 0.0160536786	-3.3073657243	 1.1307743464	-0.326721
C	 0.0073265094	-1.9892656273	 0.6906063028	 0.318043
N	-0.0475718043	-0.7362141529	 1.1434979279	-0.335978
H	 1.0321864322	 1.7688535445	-0.0908434054	 0.153664
H	-0.5827357346	 1.7767721829	-0.8461422544	 0.162081
H	-0.4257913388	 1.7546109725	 0.9383193874	 0.166989
H	 0.0944368841	-5.0342170452	-0.1135379636	 0.16392
62.0956	147.1076	281.21	314.149	376.4211	569.8511	601.7179	625.9601	635.8189	783.6631	803.6565	858.6039	860.6966	924.2259	983.6864	1032.5679	1062.1383	1145.4614	1201.1128	1293.7405	1335.6878	1367.1547	1443.9277	1481.3123	1501.3539	1506.8849	1524.5655	1555.7584	1615.3185	3054.5931	3135.325	3178.3814	3279.8075
CN1N=C2OC=NC2=N1	Cn1nc2ocnc2n1	
InChI=1S/C4H4N4O/c1-8-6-3-4(7-8)9-2-5-3/h2H,1H3	InChI=1S/C4H4N4O/c1-8-6-3-4(7-8)9-2-5-3/h2H,1H3
