15
gdb 124783	4.25355	0.99505	0.93913	2.5588	62.95	-0.2678	-0.0241	0.2437	1251.3825	0.111933	-491.08555	-491.077057	-491.076113	-491.119553	30.599	
C	-0.1786704591	 1.5195751975	 0.0721724662	-0.41274
C	-0.041107346	-0.0072235624	 0.0176241788	 0.015309
O	 0.6002578154	-0.4503900315	-1.164591548	-0.417082
C	 0.667834524	-0.5282905685	 1.2386063152	 0.441319
N	 0.1713399056	-1.1105904016	 2.2884769824	-0.398557
C	 1.2993344267	-1.32234888	 3.0457535256	 0.435437
O	 1.254843783	-1.9115905947	 4.2379856795	-0.398105
N	 2.4271256019	-0.9129702765	 2.5229134982	-0.198447
O	 1.9915793063	-0.3679665543	 1.2937689484	-0.219574
H	 0.8071965409	 1.9940809265	 0.1168576607	 0.13104
H	-0.6954309265	 1.8648030559	-0.8264485087	 0.137717
H	-0.7485735273	 1.8317973522	 0.952359197	 0.136351
H	-1.0324402405	-0.4677177129	 0.0111915043	 0.129629
H	 1.5021565108	-0.1090045909	-1.1629168283	 0.29618
H	 0.3319254548	-2.1351333086	 4.4106727287	 0.321523
30.1752	126.0301	175.5552	252.3505	287.5326	299.6009	339.7498	399.9851	422.6685	447.6064	537.2332	672.3068	730.8959	762.4738	795.3714	902.388	933.5318	1022.6889	1038.095	1048.0122	1090.9846	1117.9204	1220.214	1286.2843	1326.6501	1345.61	1399.4381	1419.2997	1444.81	1489.2553	1492.8492	1605.4349	1677.0252	3040.5362	3089.6966	3117.5423	3132.0939	3800.9224	3811.9539
CC(O)C1=NC(O)=NO1	C[C@@H](O)c1nc(O)no1	
InChI=1S/C4H6N2O3/c1-2(7)3-5-4(8)6-9-3/h2,7H,1H3,(H,6,8)	InChI=1S/C4H6N2O3/c1-2(7)3-5-4(8)6-9-3/h2,7H,1H3,(H,6,8)/t2-/m1/s1
