12
gdb 21488	5.28872	1.68988	1.28268	1.1237	58.09	-0.2443	-0.0397	0.2046	861.3532	0.086707	-407.009417	-407.002806	-407.001862	-407.040507	24.083	
N	-0.1152252536	 1.2947071686	 0.2254978085	-0.552713
C	 0.0621367135	-0.0557490444	 0.028034233	 0.268882
N	 1.1516077459	-0.7007044377	-0.1425813556	-0.504001
C	-1.2169895118	-0.8032469701	 0.0680282153	 0.423082
N	-1.3401724112	-2.1273169964	 0.036362981	-0.247969
N	-2.6540075272	-2.2556529223	 0.0835773942	-0.058534
N	-3.3337133381	-1.1178350765	 0.1411387338	-0.098894
N	-2.425209401	-0.1809215211	 0.1324105577	-0.269942
H	 0.6404363816	 1.9099623041	-0.0265840137	 0.252137
H	-1.0497453698	 1.6625463395	 0.1319477719	 0.274064
H	 1.9539739843	-0.0676883098	-0.1477863764	 0.20587
H	-3.1130115926	-3.1551293039	 0.0771269603	 0.308018
74.1549	215.0324	223.2037	374.4931	414.1903	470.0839	515.4881	611.7869	644.6448	666.2728	741.0171	818.9069	870.837	1034.6467	1060.5114	1098.7712	1122.9356	1136.6181	1208.68	1281.114	1327.0048	1362.9345	1483.4552	1558.3732	1632.4866	1725.7408	3454.184	3582.2678	3642.7412	3707.5242
NC(=N)C1=NNN=N1	NC(=N)c1n[nH]nn1	
InChI=1S/C2H4N6/c3-1(4)2-5-7-8-6-2/h(H3,3,4)(H,5,6,7,8)	InChI=1S/C2H4N6/c3-1(4)2-5-7-8-6-2/h(H3,3,4)(H,5,6,7,8)
