17
gdb 41586	3.49209	1.58537	1.41367	0.7094	73.48	-0.2355	-0.0105	0.225	947.7495	0.137675	-421.757161	-421.75043	-421.749486	-421.788362	26.594	
C	-0.0108026482	 1.4762999841	 0.0427902936	-0.094622
O	 1.3618436225	 1.5707224761	-0.4269736493	-0.277429
C	 1.4210479342	 0.1505200605	-0.6184413222	 0.031799
C	 0.0196556742	-0.0650458463	 0.0556369442	-0.128388
C	-0.4667307128	-0.8170702945	-1.2345065323	 0.08314
O	-1.5783469274	-0.4454818165	-2.0236923462	-0.278734
C	-1.0677594405	-0.0896775134	-3.326085176	-0.111875
C	 0.4083141453	 0.2188092473	-3.1110282513	-0.203004
C	 0.7474120905	-0.2797957426	-1.9277454794	 0.158775
H	-0.1180801935	 1.9502232121	 1.0227408384	 0.112323
H	-0.7254096286	 1.9165913435	-0.6614801773	 0.115223
H	 2.3660859089	-0.293250764	-0.3020994484	 0.089804
H	-0.1204388317	-0.5602805282	 1.0155130212	 0.082054
H	-0.4773529151	-1.8992664756	-1.0322379758	 0.080354
H	-1.2459079028	-0.9126546553	-4.0370959185	 0.107276
H	-1.6173893038	 0.7869758738	-3.6902911727	 0.117233
H	 0.9779316489	 0.864978199	-3.7664688079	 0.116072
128.7689	158.2818	224.4643	292.4079	465.9488	490.0277	671.0121	689.1883	725.6945	783.4635	822.2562	849.4534	879.7467	898.2923	932.7276	965.0165	983.07	1000.9328	1009.7914	1021.3086	1070.5154	1090.7929	1121.7691	1144.7788	1160.8947	1193.6244	1198.8997	1229.8675	1257.3742	1285.8385	1321.567	1331.5912	1354.933	1382.2259	1512.6039	1513.3262	1705.0434	2972.27	2980.3871	3037.9506	3043.1738	3089.4053	3100.8599	3122.434	3218.2838
C1OC2C1C1OCC=C21	C1O[C@H]2[C@@H]1[C@H]1OC[CH][C]21	
InChI=1S/C7H8O2/c1-2-8-6-4(1)7-5(6)3-9-7/h1,5-7H,2-3H2	InChI=1S/C7H8O2/c1-2-8-6-4(1)7-5(6)3-9-7/h1,5-7H,2-3H2/t5-,6-,7+/m0/s1
