13
gdb 28757	6.18655	0.84606	0.76875	2.8622	62.51	-0.2192	-0.0137	0.2055	1360.337	0.089502	-489.934199	-489.926383	-489.925439	-489.96726	28.03	
O	-0.0518707293	 1.394054625	-0.2006690968	-0.42052
C	 0.0332332557	 0.0642786249	-0.0528780866	 0.461474
N	 0.5057295294	-0.7960996053	-0.9101713395	-0.351835
C	 0.358295301	-2.0350438801	-0.2972452368	-0.197556
C	-0.2000532607	-1.8746251885	 0.9332284474	 0.350815
N	-0.4074717744	-0.5107913495	 1.0982193753	-0.36662
O	-0.5765128999	-2.7328679292	 1.9241236523	-0.222019
C	 0.4009224725	-3.5331635847	 2.4637701033	 0.157493
O	 0.1504956323	-4.3637481464	 3.2750950315	-0.247112
H	 0.2982301613	 1.5929232666	-1.0787298455	 0.318322
H	 0.6489520492	-2.9511002447	-0.7856177584	 0.126613
H	-0.8322054962	-0.055569069	 1.8888076678	 0.285536
H	 1.3932076289	-3.299755669	 2.0404180561	 0.10541
56.7121	124.4778	160.6229	265.5149	329.6612	403.9563	430.8358	458.5255	469.6099	511.2911	651.4798	718.9878	733.1372	818.5505	828.4916	1007.2969	1042.2595	1059.5301	1095.354	1142.7889	1204.807	1252.1046	1293.0331	1393.0013	1408.5709	1554.2388	1620.7994	1635.4109	1883.9711	2997.7613	3264.2865	3670.2034	3799.4509
OC1=NC=C(N1)OC=O	Oc1ncc([nH]1)OC=O	
InChI=1S/C4H4N2O3/c7-2-9-3-1-5-4(8)6-3/h1-2H,(H2,5,6,8)	InChI=1S/C4H4N2O3/c7-2-9-3-1-5-4(8)6-3/h1-2H,(H2,5,6,8)
