15
gdb 85624	3.81972	1.06978	0.8588	3.3252	80.97	-0.2495	-0.0806	0.1689	1265.9125	0.111545	-420.629297	-420.621077	-420.620132	-420.662329	30.749	
O	 0.153577572	 1.3115332267	 0.355728381	-0.437921
C	-0.0328420593	-0.0407136305	 0.0284108793	 0.044681
C	-1.498757735	-0.4332865346	-0.2057244738	-0.345819
C	-1.4303182998	-1.3522559126	-1.4198292254	 0.17007
C	-0.2161325257	-1.328754235	-2.0160025558	-0.293778
C	 0.6660565799	-0.4046565209	-1.2922190405	 0.358473
O	 1.7288019845	 0.070065536	-1.6317444138	-0.351503
C	-2.5533922449	-2.0962610374	-1.8404299458	 0.220383
C	-3.5362434296	-2.7156728184	-2.1612165348	-0.372878
H	 1.0082322654	 1.5553174239	-0.0293097439	 0.293354
H	 0.3947142844	-0.6995060129	 0.8052855451	 0.098248
H	-1.9723678505	-0.926165298	 0.6470911144	 0.128585
H	-2.0878243958	 0.4603794453	-0.4389742444	 0.149403
H	 0.0624504118	-1.8525134387	-2.9203056997	 0.128838
H	-4.3949656674	-3.267174053	-2.4569218319	 0.209866
81.9059	120.216	141.508	257.6259	306.821	385.2596	431.9969	460.1612	487.1666	561.0752	574.6182	623.0547	636.9514	658.0996	725.3639	815.802	871.5483	903.9631	970.6571	1032.0293	1121.8604	1135.0683	1173.6205	1200.831	1235.9641	1279.5121	1310.4626	1363.7993	1415.2302	1473.6758	1620.8718	1802.8947	2219.0301	2944.4546	3056.6856	3103.5939	3232.5229	3498.1057	3728.4899
OC1CC(=CC1=O)C#C	O[C@H]1CC(=CC1=O)C#C	
InChI=1S/C7H6O2/c1-2-5-3-6(8)7(9)4-5/h1,3,7,9H,4H2	InChI=1S/C7H6O2/c1-2-5-3-6(8)7(9)4-5/h1,3,7,9H,4H2/t7-/m0/s1
