16
gdb 128788	5.17642	0.93811	0.80219	4.2013	73.61	-0.2349	-0.0692	0.1657	1379.6971	0.124729	-434.060338	-434.052108	-434.051163	-434.094359	28.618	
C	-0.004545606	 1.4073615315	-0.009488959	-0.230006
O	-0.0018015625	-0.003118953	 0.0088498612	-0.234284
C	 0.6362314233	-0.5652620945	-1.1064123215	-0.138034
C	 0.5963744447	-2.067295995	-1.0123969888	 0.274792
C	-0.0032699797	-2.7502583181	 0.0522358821	-0.009188
N	-0.0231699725	-4.0787406863	 0.1081726491	-0.174308
N	 0.545126467	-4.7680560474	-0.8794465232	-0.185061
C	 1.1047089616	-4.0787903679	-1.8725629165	 0.096859
N	 1.1645793881	-2.7507198781	-1.9997259894	-0.292184
H	 1.0181697312	 1.8139164175	-0.0104993577	 0.114084
H	-0.5342624265	 1.7994527134	-0.8909107421	 0.114082
H	-0.519635475	 1.7415943106	 0.8932875423	 0.137653
H	 0.1528682612	-0.2571018569	-2.049389744	 0.121997
H	 1.6893347233	-0.2432321673	-1.1774665206	 0.122023
H	-0.473246128	-2.2184530232	 0.8698529022	 0.145825
H	 1.5573776596	-4.6738950454	-2.6608161042	 0.13575
49.9061	73.2161	147.9263	184.7954	222.5391	339.5692	368.9394	413.0179	483.074	627.3998	695.9306	803.1729	866.6854	927.4132	1002.8478	1008.9007	1032.8964	1041.9198	1077.417	1155.1103	1170.2294	1185.2663	1228.8352	1245.6123	1255.0716	1313.9012	1329.2371	1406.3433	1475.7186	1480.3999	1485.8897	1492.7893	1515.7212	1567.7637	1594.2959	2957.6639	2981.5172	2981.8261	3029.4429	3127.1221	3180.5979	3221.6842
COCC1=CN=NC=N1	COCc1cnncn1	
InChI=1S/C5H7N3O/c1-9-3-5-2-7-8-4-6-5/h2,4H,3H2,1H3	InChI=1S/C5H7N3O/c1-9-3-5-2-7-8-4-6-5/h2,4H,3H2,1H3
