17
gdb 50675	2.16077	1.47419	1.05806	4.5376	72.75	-0.255	-0.0384	0.2166	1150.8417	0.137021	-418.023268	-418.014643	-418.013698	-418.057857	30.519	
O	 0.1573406877	-0.1915187757	-0.0382312264	-0.248686
C	 0.0976234845	 1.0105827167	-0.0544216767	 0.140099
C	 1.3052344274	 1.9205899357	 0.0233433358	-0.067648
C	 1.3879125202	 2.9288637253	-1.1483407837	-0.255722
C	 1.9906566529	 4.2267693607	-0.5218705109	-0.178477
N	 2.2624999996	 3.9524035174	 0.9015688739	-0.271132
C	 1.3651015204	 2.8595633764	 1.2780617764	-0.197381
C	 0.037238935	 3.3999302451	 1.6255881957	 0.314564
N	-1.0131676641	 3.8090210074	 1.8791827552	-0.322117
H	-0.8757255437	 1.5425672205	-0.1358798549	 0.105368
H	 2.1930524353	 1.2839471776	 0.0591162843	 0.102726
H	 1.9996469575	 2.529224741	-1.9595812865	 0.12567
H	 0.3929212265	 3.126748362	-1.560117215	 0.125335
H	 2.9093648001	 4.5502315639	-1.0156052567	 0.117937
H	 1.2722251833	 5.048636885	-0.5960326548	 0.136554
H	 3.2159174589	 3.6250627297	 1.0144112484	 0.233886
H	 1.7495641485	 2.3334231212	 2.1558402959	 0.139024
47.2294	70.3543	104.8559	145.195	252.2502	311.4217	356.0132	415.5046	496.9808	580.8635	705.4049	723.3914	762.6449	812.5174	865.4666	906.6049	914.4009	970.6221	1011.8755	1026.1508	1086.565	1102.2741	1123.7635	1208.2712	1219.7742	1261.417	1282.7763	1302.2187	1328.3312	1355.6024	1367.6413	1427.5485	1469.5323	1491.7761	1513.911	1828.3493	2357.8514	2897.4268	3053.4511	3063.9501	3077.949	3089.3281	3102.7593	3121.7617	3531.3529
O=CC1CCNC1C#N	O=C[C@H]1CCN[C@H]1C#N	
InChI=1S/C6H8N2O/c7-3-6-5(4-9)1-2-8-6/h4-6,8H,1-2H2	InChI=1S/C6H8N2O/c7-3-6-5(4-9)1-2-8-6/h4-6,8H,1-2H2/t5-,6+/m1/s1
