16
gdb 27056	3.1633	1.23586	0.89361	3.4801	75.83	-0.2058	0.0043	0.2101	1237.2819	0.12437	-437.943396	-437.934803	-437.933859	-437.978335	30.427	
C	 0.0819833625	 1.4960194032	 0.042889005	-0.500685
C	-0.030159753	 0.0143978869	 0.0515196685	 0.273358
C	-1.0797990751	-0.8611261815	-0.0021182996	 0.230534
N	-2.4332033807	-0.5078460733	-0.0865987765	-0.414979
C	-3.49979494	-1.3608151594	-0.1415467728	 0.14373
O	-3.4491380834	-2.5706937384	-0.126087693	-0.310748
C	-0.5281195988	-2.1875837756	 0.0445490036	-0.259271
C	 0.8137317825	-2.013890419	 0.1229031447	-0.012345
O	 1.1353667788	-0.6939945622	 0.1284638196	-0.177402
H	 0.6702072423	 1.8523070249	-0.8108237524	 0.145735
H	-0.9060900221	 1.960813928	-0.0213997138	 0.118492
H	 0.5640609651	 1.8706530358	 0.9533998838	 0.145724
H	-2.648215488	 0.4768443403	-0.109544644	 0.250333
H	-4.4504085855	-0.7957498973	-0.2041373561	 0.07878
H	-1.0845499725	-3.10691018	 0.0208135593	 0.152323
H	 1.6436912578	-2.6982681123	 0.1795537538	 0.136422
22.7784	59.7492	177.6812	193.6091	234.2666	250.9451	392.4431	416.2587	539.5808	593.1121	612.8604	683.1874	691.7809	751.643	856.257	865.5035	917.1642	961.3171	1012.635	1053.0434	1057.8254	1134.1451	1158.6726	1191.8935	1252.6354	1312.626	1415.2065	1433.7797	1464.8791	1472.5785	1490.7541	1508.7743	1550.823	1688.2804	1807.2067	2940.4902	3024.7129	3075.5215	3107.0307	3278.7334	3312.9497	3626.6165
CC1=C(NC=O)C=CO1	Cc1c(NC=O)cco1	
InChI=1S/C6H7NO2/c1-5-6(7-4-8)2-3-9-5/h2-4H,1H3,(H,7,8)	InChI=1S/C6H7NO2/c1-5-6(7-4-8)2-3-9-5/h2-4H,1H3,(H,7,8)
