13
gdb 131896	2.87661	1.67284	1.0589	7.9582	67.52	-0.2257	-0.0579	0.1678	1020.6973	0.090982	-486.022832	-486.015537	-486.014593	-486.054687	27.381	
N	 0.0430971253	 1.4111299366	 0.157244525	-0.603865
C	-0.0148707882	 0.0537660369	 0.0440023664	 0.346177
C	-1.0938345841	-0.8244618502	 0.0184641068	 0.302819
N	-0.6830427283	-2.1334491297	-0.0246086286	-0.274732
C	 0.6138539708	-2.0769907878	-0.0298427233	 0.013584
N	 1.0766641179	-0.7693025304	 0.0093863354	-0.322036
N	-2.4550425543	-0.4295684143	 0.0118520365	 0.361863
O	-2.673726013	 0.7981012438	 0.0575549558	-0.442992
O	-3.3276907051	-1.2807292425	-0.0427986009	-0.351436
H	 0.7948453495	 1.885043442	-0.3212718521	 0.258105
H	-0.875828128	 1.8246148496	 0.0402375979	 0.290886
H	 1.291555173	-2.9158984846	-0.0662545641	 0.147748
H	 2.0379953445	-0.4736397193	 0.0615598652	 0.273879
99.2647	196.2732	234.8954	301.6315	352.9735	361.8242	460.9839	503.2938	572.2933	634.2295	671.2843	705.9073	734.214	788.0156	801.7158	851.8697	940.3543	1058.4568	1087.4377	1213.1491	1274.468	1317.8022	1378.6605	1398.0537	1483.727	1559.169	1573.1038	1624.6937	1672.3965	3262.8792	3519.0222	3649.3798	3653.0071
NC1=C(N=CN1)N(=O)=O	Nc1c(nc[nH]1)N(=O)=O	
InChI=1S/C3H4N4O2/c4-2-3(7(8)9)6-1-5-2/h1H,4H2,(H,5,6)	InChI=1S/C3H4N4O2/c4-2-3(7(8)9)6-1-5-2/h1H,4H2,(H,5,6)
