21
gdb 57184	2.24449	1.3509	1.09257	2.7185	75.1	-0.2607	-0.023	0.2378	1223.106	0.177679	-461.391823	-461.380879	-461.379935	-461.42749	40.329	
C	 0.029344857	 1.4421420605	-0.0929922543	-0.475895
C	 0.033861707	-0.0623181832	-0.1121311036	 0.362856
O	 1.0533898596	-0.7088029096	-0.2560397282	-0.329863
C	-1.2928275957	-0.8373787588	 0.0026120272	 0.031722
O	-1.0529282866	-2.1850204708	-0.3053024245	-0.438606
C	-1.9664746434	-0.7323625977	 1.4053465299	 0.318976
C	-3.2363443019	-1.5908239695	 1.4047403965	-0.418372
C	-1.0053881697	-1.1741445485	 2.5146210234	-0.423709
O	-2.317378754	 0.6491415578	 1.5538785827	-0.4677
H	 1.0500929409	 1.8154286606	-0.1838491465	 0.135645
H	-0.5778004712	 1.8164547328	-0.9252042688	 0.144373
H	-0.4495178661	 1.8024495482	 0.8201224253	 0.168385
H	-2.0008562788	-0.3995741016	-0.7185084043	 0.090366
H	-0.0854738668	-2.2467474644	-0.3920842308	 0.293359
H	-2.9978369773	-2.6352190189	 1.1962955832	 0.146418
H	-3.7304662218	-1.5349940695	 2.3821579843	 0.098413
H	-3.9361107584	-1.2309709358	 0.6448024936	 0.119379
H	-0.1459154375	-0.5012973523	 2.5849542955	 0.122428
H	-1.5148301047	-1.1767281639	 3.484543001	 0.104242
H	-0.6402551546	-2.1858208848	 2.320599042	 0.136867
H	-2.8061993762	 0.7399498694	 2.3782833067	 0.280715
57.4003	75.2299	135.0778	198.4606	220.7416	243.1762	251.021	274.6805	284.0052	335.3844	361.2062	398.1383	423.9678	461.3323	520.9572	540.2238	591.4589	643.2379	768.8826	833.2779	923.1342	929.2421	977.9101	989.8728	1001.7599	1045.2572	1113.0729	1146.5655	1189.3778	1207.4782	1222.1216	1298.9201	1332.9123	1364.9944	1388.5844	1391.809	1411.3011	1443.3587	1464.9734	1469.1631	1477.2294	1486.6251	1500.4796	1508.6736	1783.3676	2987.4802	3029.6475	3037.7143	3047.0307	3099.5663	3104.3781	3117.9935	3128.0123	3143.2921	3161.6385	3634.4485	3815.0371
CC(=O)C(O)C(C)(C)O	CC(=O)[C@@H](O)C(C)(C)O	
InChI=1S/C6H12O3/c1-4(7)5(8)6(2,3)9/h5,8-9H,1-3H3	InChI=1S/C6H12O3/c1-4(7)5(8)6(2,3)9/h5,8-9H,1-3H3/t5-/m1/s1
