19
gdb 40519	3.11784	1.37981	1.17863	0.7894	74.85	-0.244	0.0593	0.3034	1103.9246	0.159399	-422.966693	-422.958753	-422.957808	-422.999665	30.239	
C	 0.2674732382	 1.4521964168	 0.0607683271	-0.180568
O	 1.2616849833	 0.4452705371	-0.1349613484	-0.234341
C	-0.1036918662	 0.0334574532	-0.0257531906	-0.016781
C	-0.4752318021	-0.7604288077	 1.1868501604	 0.464955
C	 0.2454033431	-0.523038894	 2.5341672152	-0.28891
C	 0.3528806686	-2.0678705492	 2.7356038829	-0.230277
C	-0.3280547178	-2.307159225	 1.3615231341	-0.147132
C	-1.8626909804	-2.3028446877	 1.4013979389	-0.086608
O	-1.9147270389	-0.8562810081	 1.3240940592	-0.336621
H	 0.2867112893	 1.9438029968	 1.0317641251	 0.119109
H	 0.0877381877	 2.1050214619	-0.7915390279	 0.120436
H	-0.5448419998	-0.3241321227	-0.957046411	 0.094974
H	 1.2167472033	-0.0389928345	 2.4116445623	 0.120808
H	-0.353997989	 0.026237757	 3.2629947295	 0.106503
H	 1.3829031818	-2.4271253092	 2.7787661793	 0.109682
H	-0.1896594249	-2.4764155927	 3.5924889621	 0.101734
H	 0.1665309492	-2.9629983315	 0.6460562852	 0.081728
H	-2.3509685604	-2.7623153142	 0.5324427309	 0.101648
H	-2.3304768149	-2.6870834663	 2.3167319857	 0.099662
73.5342	88.3199	180.1879	219.9585	307.135	361.0787	407.1959	481.1795	620.6668	682.4335	745.0398	820.0119	863.9662	871.7224	901.9022	914.1693	943.661	961.1204	1001.1319	1004.877	1041.7888	1074.6851	1102.6785	1119.2336	1141.8596	1154.5373	1161.2151	1169.6674	1187.4122	1231.3132	1236.4072	1266.9049	1280.2416	1309.5667	1331.1192	1351.1234	1436.9586	1458.7633	1486.0059	1523.6726	1527.1613	3007.5101	3050.3044	3060.7877	3070.297	3090.2887	3104.2963	3108.1788	3120.6853	3134.6322	3179.318
C1OC1C12CCC1CO2	C1O[C@H]1[C@]12CC[C@H]1CO2	
InChI=1S/C7H10O2/c1-2-7(6-4-8-6)5(1)3-9-7/h5-6H,1-4H2	InChI=1S/C7H10O2/c1-2-7(6-4-8-6)5(1)3-9-7/h5-6H,1-4H2/t5-,6+,7-/m0/s1
