17
gdb 74937	3.04858	1.78199	1.50776	0.5564	72.39	-0.2388	-0.0044	0.2344	926.6602	0.137029	-421.77825	-421.771529	-421.770584	-421.809126	27.527	
C	 0.0396351382	 1.4701741967	 0.0497112627	-0.507052
C	-0.0005250011	-0.0238612175	-0.0099142827	 0.378598
C	-0.1109593072	-0.7819655504	-1.1115059413	-0.163116
C	 0.0488789338	-2.2473512289	-0.8524022753	-0.014731
O	 1.3855214409	-2.408592352	-0.2404935065	-0.290244
C	 0.7879810799	-2.2490112445	 1.0285261107	 0.06777
C	-0.6030294798	-2.6567109084	 0.5631787929	 0.068967
O	-1.263011007	-1.6038939206	 1.2382710091	-0.289563
C	 0.0069471317	-0.8562598644	 1.2461717049	-0.083252
H	 0.9729770349	 1.8216526378	 0.5080079889	 0.131094
H	-0.0325541789	 1.9113219367	-0.9480846094	 0.127243
H	-0.7800578344	 1.866192752	 0.6617937172	 0.134785
H	-0.2259152461	-0.3852867264	-2.1142931471	 0.098457
H	-0.0799207785	-2.9105496076	-1.7073776717	 0.078164
H	 1.3761817332	-2.6345176089	 1.8621181367	 0.094067
H	-1.0971977896	-3.6260762639	 0.6361201474	 0.094574
H	 0.14393745	-0.3114208796	 2.1815008535	 0.074241
151.6204	179.0964	301.9203	380.3303	423.9437	477.0528	543.1444	646.6756	682.079	726.7148	754.3245	782.0505	823.128	832.2675	869.9922	902.0869	931.0634	975.6656	1033.1765	1049.2768	1056.6379	1068.0151	1080.2029	1132.3686	1176.9916	1183.9994	1222.4123	1235.7739	1283.1783	1310.0447	1323.5701	1352.2866	1360.7146	1412.4304	1477.8551	1486.182	1690.7454	3018.219	3067.1141	3100.8584	3106.8146	3112.2256	3114.9685	3123.4098	3186.0196
CC1=CC2OC3C2OC13	CC1=C[C@H]2O[C@@H]3[C@H]2O[C@H]13	
InChI=1S/C7H8O2/c1-3-2-4-6-7(8-4)5(3)9-6/h2,4-7H,1H3	InChI=1S/C7H8O2/c1-3-2-4-6-7(8-4)5(3)9-6/h2,4-7H,1H3/t4-,5-,6+,7+/m1/s1
