18
gdb 64766	3.59278	1.09615	1.02712	3.6526	77.46	-0.2609	0.0013	0.2622	1210.0965	0.147576	-401.978095	-401.969405	-401.968461	-402.011734	32.58	
O	-0.0993993663	 1.2128118511	-0.2158040574	-0.470135
C	 0.0811569115	-0.1790098359	 0.0498040061	 0.352798
C	 0.820036274	-0.339258096	 1.4067606737	-0.379106
C	 2.1126444127	 0.3407711411	 1.386923502	 0.248715
N	 3.1234820438	 0.8974088684	 1.3143723561	-0.315159
C	-1.3209119988	-0.832259751	 0.0759332822	-0.254433
C	-1.5046258081	-1.5018755671	-1.307796094	-0.265137
C	-0.0961771384	-1.5787217596	-1.8422135993	-0.064081
C	 0.7667177324	-0.8859854407	-1.1029651902	-0.127305
H	 0.761228983	 1.5973303561	-0.4219255144	 0.29044
H	 0.2050987255	 0.0970558571	 2.2011113402	 0.157004
H	 0.9737480579	-1.3981683396	 1.638836064	 0.14974
H	-1.3620999803	-1.5909500938	 0.8632504206	 0.103089
H	-2.0762820267	-0.0764861039	 0.2989028623	 0.123267
H	-1.9814181818	-2.4854020243	-1.233138289	 0.109544
H	-2.137087513	-0.902892706	-1.9754646524	 0.123201
H	 0.1542086077	-2.1194666316	-2.7487418797	 0.104164
H	 1.8267721747	-0.7659450142	-1.3002402907	 0.113395
68.3493	89.0926	130.0459	243.5086	310.337	331.6561	350.6872	400.9026	423.922	471.6466	510.5115	701.1286	723.5576	773.3912	808.8913	838.2228	899.0362	925.25	939.7927	970.6017	988.26	998.9923	1069.344	1095.9016	1117.404	1142.9585	1198.849	1225.7685	1275.1257	1289.7631	1315.6418	1321.2613	1379.3731	1391.1659	1453.1389	1472.485	1491.9884	1686.7541	2354.8469	3029.3251	3049.1935	3056.5918	3069.051	3097.5753	3122.151	3180.5445	3205.0562	3789.139
OC1(CC#N)CCC=C1	O[C@@]1(CC#N)CCC=C1	
InChI=1S/C7H9NO/c8-6-5-7(9)3-1-2-4-7/h1,3,9H,2,4-5H2	InChI=1S/C7H9NO/c8-6-5-7(9)3-1-2-4-7/h1,3,9H,2,4-5H2/t7-/m1/s1
