17
gdb 85162	2.08418	1.6921	1.0253	2.5649	69.19	-0.2614	-0.0325	0.2289	1152.8533	0.133497	-459.015733	-459.00661	-459.005666	-459.050295	32.442	
C	-0.4575671265	 1.633917417	-0.2525403589	-0.386321
C	-0.0998781482	 0.1733964882	-0.1057533867	 0.117759
O	 1.1377801281	-0.150985532	-0.857948	-0.247305
C	 1.787750598	-0.5664240359	 0.261256117	 0.453715
O	 2.9146165762	-0.9328584718	 0.3739769057	-0.325979
C	 0.5729452003	-0.3615138682	 1.1808762226	-0.319559
C	 0.7655328475	 0.4824645371	 2.4371225449	 0.364045
C	 1.8037814439	-0.0504324667	 3.4001577121	-0.484005
O	 0.1207605488	 1.4828834071	 2.6417638199	-0.292048
H	 0.3603280395	 2.2801479768	 0.0708446828	 0.137761
H	-0.6823292402	 1.8458225973	-1.3021374071	 0.127715
H	-1.3334266485	 1.8703350433	 0.3552416705	 0.144379
H	-0.9019874649	-0.4732522553	-0.4705665579	 0.105381
H	 0.1855720808	-1.3386723121	 1.4914700542	 0.1393
H	 1.4598644149	-1.002158412	 3.8231708581	 0.144349
H	 2.7391302259	-0.2619218156	 2.8716904746	 0.175237
H	 1.9624646144	 0.6662787428	 4.2063545281	 0.145576
46.2389	105.1756	139.4968	161.7084	203.7445	235.5419	310.9316	371.1755	411.0151	473.4565	539.8809	612.5377	665.2318	735.8939	798.6416	861.1743	872.2551	963.3122	1013.7491	1035.4266	1047.5189	1083.6577	1142.2143	1154.9985	1172.7196	1201.624	1315.5761	1321.8147	1385.4143	1390.1949	1419.6832	1465.0513	1472.4912	1473.8921	1490.8598	1814.9336	1921.0953	3036.5735	3054.6929	3058.1511	3080.7826	3101.034	3131.0477	3147.5895	3158.105
CC1OC(=O)C1C(C)=O	C[C@H]1OC(=O)[C@H]1C(=O)C	
InChI=1S/C6H8O3/c1-3(7)5-4(2)9-6(5)8/h4-5H,1-2H3	InChI=1S/C6H8O3/c1-3(7)5-4(2)9-6(5)8/h4-5H,1-2H3/t4-,5+/m1/s1
