16
gdb 36480	3.10022	1.00144	0.81287	4.5271	74.8	-0.267	-0.014	0.253	1353.4172	0.124623	-396.923184	-396.91462	-396.913676	-396.957334	30.235	
N	 0.08178365	-1.1711458808	-0.1892762961	-0.293887
C	 0.0284536787	-0.0198849686	-0.1183233182	 0.278087
C	-0.0400669779	 1.4394734104	 0.004556566	-0.295846
N	 1.2866438672	 2.0143001711	 0.1120063618	-0.069115
C	 2.0976745701	 1.7832629597	 1.3296710656	-0.171772
C	 2.62186114	 3.2336311667	 1.2058244975	-0.251718
C	 1.3884529664	 3.4763851717	 0.2883607722	-0.116202
C	 1.5498522778	 4.2512794672	-0.9405489706	 0.296595
N	 1.6761995848	 4.8730365021	-1.9062634863	-0.3134
H	-0.5291692903	 1.8443241533	-0.8893138143	 0.172301
H	-0.6876677755	 1.6789536002	 0.8698397333	 0.132399
H	 1.4860736102	 1.6384243874	 2.23367245	 0.105303
H	 2.8142742541	 0.9638381719	 1.2453597746	 0.138413
H	 2.671433167	 3.8346980167	 2.1119618409	 0.130596
H	 3.5597644026	 3.3022284084	 0.6556911948	 0.146789
H	 0.5490491648	 3.9033663127	 0.862060629	 0.111455
53.8321	113.0401	123.5136	159.2776	236.7495	318.2539	340.1216	388.7801	466.638	529.4124	588.2704	667.079	801.4208	830.6404	934.2868	952.0342	956.2308	990.1195	1057.6224	1084.0453	1110.0611	1155.4338	1211.0282	1216.6058	1251.6907	1261.7282	1273.7951	1330.5989	1363.9297	1396.0772	1473.1908	1487.4256	1522.9118	2360.0848	2370.5804	2925.8067	2964.8403	2989.6066	3062.4504	3103.3626	3109.3806	3171.003
N#CCN1CCC1C#N	N#CCN1CC[C@H]1C#N	
InChI=1S/C6H7N3/c7-2-4-9-3-1-6(9)5-8/h6H,1,3-4H2	InChI=1S/C6H7N3/c7-2-4-9-3-1-6(9)5-8/h6H,1,3-4H2/t6-/m0/s1
