21
gdb 113945	5.18854	0.67233	0.64586	2.4654	80.32	-0.2608	0.0881	0.3489	1799.5354	0.180671	-424.186693	-424.176916	-424.175971	-424.222766	34.903	
C	-0.3088626652	 1.4590046986	-0.6501343548	-0.374987
C	 0.0458845322	 0.2484102987	 0.222803572	-0.214007
C	-1.1823889252	-0.5462762693	 0.5978063537	 0.076705
O	-1.7911635597	-1.3445231996	-0.4273825028	-0.270822
C	-1.2557707541	-2.0107110437	 0.7256745614	 0.060542
C	-0.1071295999	-2.9669189492	 0.4928868906	-0.273792
C	-0.5986349067	-4.2709979901	-0.094055151	 0.106539
C	 0.0102445359	-5.5613898643	 0.2454871783	-0.179957
O	-1.2405749663	-5.171537606	 0.8155949687	-0.238168
H	 0.5857583005	 2.0290625925	-0.9170129145	 0.113406
H	-0.796711633	 1.1340566418	-1.5737975696	 0.134935
H	-0.9946996412	 2.1358068461	-0.1290949291	 0.11644
H	 0.7603500264	-0.3886817117	-0.3063480284	 0.103326
H	 0.5376875989	 0.5824651903	 1.145830998	 0.101498
H	-1.9103741946	 0.0235568043	 1.1823115791	 0.084702
H	-2.0232640531	-2.4109488693	 1.3912705745	 0.102743
H	 0.6274663307	-2.522735502	-0.1856901205	 0.108958
H	 0.3925417326	-3.1720696819	 1.4473490869	 0.107796
H	-1.1057865508	-4.179717326	-1.0553066252	 0.107567
H	-0.0344552679	-6.3876612959	-0.4625344169	 0.115554
H	 0.8505637106	-5.5909209132	 0.9387260696	 0.11102
44.1859	62.1047	82.6773	125.7776	173.8628	220.5861	263.5427	328.6893	414.8807	451.8045	497.6128	562.016	744.2206	794.1621	808.2416	824.0197	861.7895	928.4043	943.3843	967.5792	992.6527	1035.3779	1085.6476	1088.1214	1122.2306	1133.4638	1158.4424	1167.399	1176.7899	1187.9472	1253.0688	1289.5039	1294.3703	1304.5814	1314.3175	1347.8504	1406.9935	1415.5843	1443.512	1452.6969	1474.812	1495.2676	1498.3858	1510.022	1530.0906	3028.5194	3037.285	3039.0974	3063.3032	3079.79	3084.1447	3087.1411	3100.8735	3109.1708	3113.3614	3117.8032	3166.1647
CCC1OC1CC1CO1	CC[C@H]1O[C@H]1C[C@H]1CO1	
InChI=1S/C7H12O2/c1-2-6-7(9-6)3-5-4-8-5/h5-7H,2-4H2,1H3	InChI=1S/C7H12O2/c1-2-6-7(9-6)3-5-4-8-5/h5-7H,2-4H2,1H3/t5-,6+,7-/m0/s1
