22
gdb 7007	2.54308	1.79034	1.44256	1.2612	77.9	-0.2472	0.0722	0.3193	1027.7855	0.198195	-350.209463	-350.199977	-350.199033	-350.242533	36.446	
C	-1.333106044	 0.5780255977	-1.3093168608	-0.424965
C	-0.1225859079	-0.2486313199	-0.9021373091	 0.00582
C	 1.3027605583	 0.2089723917	-1.3131183032	-0.266483
C	 1.8328382468	-0.3481362864	 0.0358060327	 0.028178
C	 2.9713026881	 0.3530992609	 0.7601041441	-0.425393
C	 0.3771365023	-0.2952335207	 0.5845875087	 0.375771
C	 0.042912859	 0.9442917191	 1.4089344617	-0.452519
O	 0.062917827	-1.4723682121	 1.312808484	-0.480145
H	-1.2213821023	 1.6310266006	-1.03027586	 0.111045
H	-1.4817285978	 0.5412012995	-2.3942998242	 0.115712
H	-2.2523219136	 0.2045537747	-0.8424810477	 0.10734
H	-0.2647736978	-1.2907606935	-1.2086319863	 0.076856
H	 1.7239909189	-0.2027952126	-2.2331987196	 0.093967
H	 1.3793438873	 1.3015847635	-1.3576291354	 0.090869
H	 2.0730942195	-1.4097429204	-0.0868139894	 0.083377
H	 2.7764466972	 1.4231761481	 0.8880160174	 0.108577
H	 3.1369883034	-0.0802765825	 1.7525163062	 0.120393
H	 3.9061047769	 0.2554998023	 0.1970969628	 0.112965
H	 0.323217982	 1.8703746836	 0.8987498342	 0.119821
H	-1.034782667	 0.9974299973	 1.6080541583	 0.104808
H	 0.5650575127	 0.9111574338	 2.3696807794	 0.123467
H	-0.8154092289	-1.3677281646	 1.6944288461	 0.270541
103.4637	203.8935	210.6067	220.3176	233.8901	246.4061	260.4364	297.981	315.0967	396.1514	434.788	493.2855	496.6625	584.0416	692.1083	809.727	864.7027	876.4269	910.3612	942.0526	961.2196	996.1994	1046.5197	1064.3144	1118.4472	1151.6204	1159.9076	1166.6435	1197.583	1209.0106	1250.9445	1256.8681	1309.7412	1350.3563	1372.8414	1392.7275	1406.7964	1413.3202	1414.5081	1485.1115	1487.0004	1495.0201	1496.1585	1499.2921	1504.8752	1506.8856	3022.1515	3025.6315	3027.9896	3038.4479	3045.5929	3052.29	3083.7852	3090.0365	3092.951	3094.7344	3097.1299	3103.4508	3116.9327	3800.1837
CC1CC(C)C1(C)O	C[C@H]1C[C@@H](C)[C@]1(C)O	
InChI=1S/C7H14O/c1-5-4-6(2)7(5,3)8/h5-6,8H,4H2,1-3H3	InChI=1S/C7H14O/c1-5-4-6(2)7(5,3)8/h5-6,8H,4H2,1-3H3/t5-,6+,7+
