12
gdb 29117	3.11605	1.52024	1.02213	3.6403	61.01	-0.2282	-0.0678	0.1603	1042.2881	0.076225	-509.783306	-509.775489	-509.774545	-509.816504	27.828	
O	 0.0076156178	 1.3613333401	 0.3036149417	-0.408468
C	-0.0822230665	 0.037428949	 0.1002672849	 0.370168
C	-1.1889751689	-0.6026740813	-0.2576924255	-0.135392
O	-1.2111709457	-1.9797050847	-0.3901378136	-0.216081
C	-0.0800138371	-2.7091085622	-0.1960194346	 0.265968
N	-0.0434491707	-3.9666203499	-0.3034521108	-0.464529
C	 1.2008328929	-1.980994962	 0.1676999965	 0.375817
O	 2.2531406895	-2.5083105247	 0.330448637	-0.262243
O	 1.1036720808	-0.6133860327	 0.3209658909	-0.238621
H	 0.9430975428	 1.5966345602	 0.3402870957	 0.317393
H	-2.136149602	-0.1300344613	-0.4540261194	 0.155485
H	-0.9669944828	-4.3298374506	-0.5485515129	 0.240503
54.7442	101.2085	129.3544	327.3643	342.6842	364.5712	437.2648	460.2712	514.4185	598.659	609.1567	680.2101	743.2214	790.455	808.1992	911.0171	994.1198	1022.2083	1106.5508	1181.0287	1245.5466	1308.2868	1343.6543	1386.2428	1728.5233	1815.0465	1890.1539	3282.9712	3477.0437	3804.8288
OC1=COC(=N)C(=O)O1	OC1=CO[C]([NH])C(=O)O1	
InChI=1S/C4H3NO4/c5-3-4(7)9-2(6)1-8-3/h1,5-6H	InChI=1S/C4H3NO4/c5-3-4(7)9-2(6)1-8-3/h1,5-6H
