18
gdb 51132	4.36401	1.06473	0.96108	3.3257	79.15	-0.2391	0.0097	0.2488	1243.3121	0.147986	-401.938353	-401.93037	-401.929426	-401.971265	30.582	
N	-0.1177303323	 1.2722395206	-0.0924302599	-0.442215
C	-0.1403199951	 0.0205183188	-0.2467543736	 0.107929
O	-1.0921371424	-0.715513954	 0.3716476954	-0.230356
C	-1.0010641816	-2.1090735404	 0.2177416726	 0.419185
C	-1.292497379	-2.7155175404	-1.1279209132	-0.335982
C	-2.2673672023	-2.9103302331	 0.0296928139	-0.148249
C	-2.0680353437	-4.1454985183	 0.8421152718	-0.071227
C	-0.8829598038	-4.1437383195	 1.4583526085	-0.079809
C	-0.109019794	-2.8680275287	 1.2020504474	-0.330943
H	 0.6482746854	 1.672662646	-0.6301738018	 0.228964
H	 0.5443319944	-0.5810092286	-0.8580813601	 0.091237
H	-1.6023920082	-2.0240608745	-1.9044702315	 0.124192
H	-0.7122544482	-3.5677272892	-1.4670156779	 0.117869
H	-3.2340506399	-2.4246528843	-0.0338945549	 0.1084
H	-2.8011600891	-4.942141545	 0.8873279707	 0.101737
H	-0.4914458193	-4.9450999896	 2.0737155575	 0.100013
H	 0.8958748588	-3.0559544694	 0.8039111962	 0.110752
H	 0.0177823003	-2.2773543104	 2.1189121788	 0.128501
68.2984	120.2011	140.0475	271.4268	327.0321	372.1052	403.6368	485.6973	508.103	696.3732	729.2153	750.7717	781.0465	822.2971	871.7155	911.9218	941.429	955.0222	966.7684	997.6303	1008.0012	1042.4513	1050.5738	1057.1306	1070.1336	1096.3289	1144.0861	1173.3686	1240.984	1260.0973	1286.9867	1313.51	1367.1782	1382.5919	1415.3914	1464.6722	1480.67	1667.1774	1744.4911	3022.3022	3039.4853	3054.2784	3125.1553	3183.8582	3193.6628	3216.8579	3219.5781	3516.6094
N=COC12CC1C=CC2	[NH][CH]O[C@]12C[C@H]1C=CC2	
InChI=1S/C7H9NO/c8-5-9-7-3-1-2-6(7)4-7/h1-2,5-6,8H,3-4H2	InChI=1S/C7H9NO/c8-5-9-7-3-1-2-6(7)4-7/h1-2,5-6,8H,3-4H2/t6-,7-/m1/s1
