19
gdb 70391	2.36963	1.53016	1.33402	3.4966	79.61	-0.2435	0.0348	0.2782	1070.7734	0.158749	-382.052985	-382.044062	-382.043118	-382.08602	34.024	
C	-0.0988753491	 1.5470755996	 0.0778075884	-0.520998
C	 0.102464989	 0.0647316881	 0.042120053	 0.313739
N	-0.7816136594	-0.8787987037	 0.761806525	-0.377424
C	 0.6826335373	-0.9012707794	 1.0132476492	-0.090542
C	 1.2785047651	-1.7690704482	-0.0931445722	-0.26919
C	 0.6661252618	-0.7654522747	-1.1606401667	 0.114937
C	-0.3537113914	-1.3278862587	-2.1544249137	-0.458044
C	 1.723030877	-0.0312356558	-1.8494519133	 0.244096
N	 2.5540782918	 0.5628539846	-2.3921688317	-0.355339
H	 0.774765981	 2.0709327098	-0.3210876536	 0.154059
H	-0.9704496575	 1.8429187434	-0.5176569558	 0.133962
H	-0.2621835917	 1.8895354073	 1.1051901838	 0.121823
H	-1.2163687686	-0.3527372959	 1.519623903	 0.230612
H	 1.0784531799	-0.732376004	 2.0070749673	 0.101169
H	 2.3686678453	-1.7794682027	-0.1114566199	 0.129592
H	 0.8901784704	-2.7883511741	-0.1511887359	 0.117703
H	-1.153909504	-1.8189996179	-1.5983351723	 0.149665
H	-0.7835336529	-0.5313230384	-2.7691136209	 0.129068
H	 0.117206596	-2.0540487591	-2.8233189037	 0.131112
123.9184	137.1214	197.0945	209.434	224.5718	248.0143	316.0499	346.8009	441.7009	470.3874	535.481	558.5411	636.4301	659.1405	763.3948	844.9097	865.7212	914.6183	922.341	935.0953	990.1291	1024.4396	1044.1712	1094.1228	1114.1412	1132.0502	1151.4959	1183.4145	1240.2282	1259.8348	1302.2546	1335.5307	1400.3282	1408.4439	1439.3853	1475.5636	1481.8204	1488.7826	1498.312	1500.3204	2346.5594	3028.9346	3046.2423	3074.4925	3091.899	3111.1727	3113.8779	3141.7486	3145.0391	3192.9225	3474.3275
CC12NC1CC2(C)C#N	C[C@]12N[C@H]1C[C@]2(C)C#N	
InChI=1S/C7H10N2/c1-6(4-8)3-5-7(6,2)9-5/h5,9H,3H2,1-2H3	InChI=1S/C7H10N2/c1-6(4-8)3-5-7(6,2)9-5/h5,9H,3H2,1-2H3/t5-,6+,7-/m0/s1
