19
gdb 38934	2.71542	2.04486	1.45305	2.0828	73.83	-0.2284	0.0736	0.302	935.0794	0.162051	-422.994613	-422.987821	-422.986877	-423.025833	27.848	
C	 0.1288463688	 1.5501650168	 0.3949916853	-0.252839
C	 1.5685911219	 1.4864887323	-0.1449584502	 0.124305
O	 2.5058009822	 0.9881122035	 0.8386185395	-0.316033
C	 2.4939774662	-0.3473567595	 0.2576335638	 0.150397
C	 2.2150815618	-1.4617598317	 1.2728326943	-0.23876
C	 0.7447317988	-1.886694174	 1.2117834382	-0.07403
O	-0.112930326	-0.7591335707	 1.2303936772	-0.263038
C	-0.0391562966	 0.0384110745	 0.0637526332	 0.120547
C	 1.341849987	 0.0489789291	-0.6778452837	-0.171989
H	 0.02702329	 1.8080290771	 1.4503854091	 0.117986
H	-0.5210392293	 2.1878371171	-0.2116431099	 0.098109
H	 1.9731319934	 2.3220680097	-0.7224294543	 0.073183
H	 3.4376948337	-0.5197546699	-0.2755301875	 0.074265
H	 2.8579581398	-2.3292755268	 1.0871195658	 0.094385
H	 2.4554869828	-1.0759395129	 2.2686065649	 0.124212
H	 0.5633657012	-2.4962233181	 0.3108649838	 0.086003
H	 0.4701371964	-2.4938605032	 2.0788951278	 0.109759
H	-0.887692615	-0.1937817267	-0.5933511338	 0.070856
H	 1.3615110429	-0.2542850563	-1.7228498535	 0.072682
78.4943	249.8587	328.5427	353.9664	392.9838	460.5759	496.9753	639.4696	677.9454	750.2074	782.2469	839.5207	856.7467	910.0915	938.0581	944.1325	951.9259	981.4459	1019.2646	1027.045	1062.787	1081.4005	1109.3222	1118.7719	1150.6011	1185.869	1213.1381	1238.1027	1247.8608	1276.9344	1287.8179	1297.6658	1318.9397	1324.7156	1361.1516	1362.7709	1386.6325	1414.6836	1451.8709	1465.0239	1503.9866	2966.0158	3004.3219	3007.5178	3044.713	3058.0781	3072.1142	3084.6467	3095.5555	3126.8809	3132.8738
C1C2OC3CCOC1C23	C1[C@H]2O[C@H]3CCO[C@@H]1[C@@H]23	
InChI=1S/C7H10O2/c1-2-8-5-3-6-7(5)4(1)9-6/h4-7H,1-3H2	InChI=1S/C7H10O2/c1-2-8-5-3-6-7(5)4(1)9-6/h4-7H,1-3H2/t4-,5-,6+,7-/m0/s1
