18
gdb 84802	2.70523	1.42908	1.02953	6.2828	72.94	-0.244	-0.0023	0.2417	1143.9725	0.14977	-439.130656	-439.122553	-439.121609	-439.163952	30.834	
N	-0.317217758	 0.6316539842	-0.0593736906	-0.53448
H	-0.9924628885	-0.12226861	-0.1564855547	 0.24489
H	 1.1236661064	-0.0112165862	 0.588563523	 0.319641
H	-0.3711231854	 1.1877018248	-0.9061158748	 0.247681
C	-0.6458443397	 1.4583028867	 1.1351394783	-0.056107
C	-2.1341936751	 1.5239264478	 1.4043065743	-0.088644
C	-2.4856724507	 0.7596070118	 2.4387119229	-0.064641
C	-1.3004383968	 0.1047733082	 3.1018988696	-0.262579
C	-0.0979257885	 0.8613662674	 2.4688068514	-0.137924
C	 1.1958628605	 0.0335472817	 2.4908372963	 0.386748
O	 1.692197818	-0.2812618843	 3.5430905403	-0.350552
O	 1.727544175	-0.31987206	 1.3199796473	-0.378533
H	-0.1971413091	 2.4389978071	 0.9494072396	 0.096162
H	-2.8131495639	 2.0745574174	 0.761960137	 0.097343
H	-3.5039985457	 0.5952548482	 2.7742745948	 0.105345
H	-1.3025920887	 0.1991812708	 4.1910937821	 0.132408
H	-1.2745980047	-0.9730934792	 2.891192893	 0.121051
H	 0.1100361448	 1.7130693236	 3.1230430902	 0.12219
46.3784	104.8166	226.735	247.9512	318.7269	341.6507	388.898	416.7807	515.9979	641.8897	710.3828	724.9399	757.7971	787.5277	791.1366	885.8391	953.1074	963.2005	976.0433	991.9582	1005.4053	1018.0768	1033.932	1123.237	1132.7042	1153.2726	1189.1633	1268.1036	1286.1608	1292.4767	1316.2193	1335.4586	1362.406	1417.8247	1487.0822	1513.5538	1649.7857	1677.8788	1843.387	3021.1934	3056.5602	3071.4828	3092.1787	3143.0313	3180.0103	3205.0662	3493.9895	3580.0552
[NH3+]C1C=CCC1C([O-])=O	N[C@H]1C=CC[C@H]1C(=O)O	
InChI=1S/C6H9NO2/c7-5-3-1-2-4(5)6(8)9/h1,3-5H,2,7H2,(H,8,9)	InChI=1S/C6H9NO2/c7-5-3-1-2-4(5)6(8)9/h1,3-5H,2,7H2,(H,8,9)/t4-,5+/m1/s1
