13
gdb 124152	6.25383	0.86827	0.76606	4.2374	81.03	-0.2521	-0.0946	0.1574	1415.3632	0.088431	-411.738829	-411.730674	-411.72973	-411.774399	27.315	
C	-0.0335651437	 1.4526603536	 0.0100988986	-0.511746
C	 0.0158992012	 0.0025764812	 0.0024512396	 0.312165
C	 0.0554567424	-1.2024678866	-0.0040466934	-0.063997
C	 0.0868378578	-2.6219872983	-0.0116828687	 0.206884
N	 1.2707330527	-3.2477003419	-0.0219599238	-0.25359
C	 1.1600686516	-4.5682365998	-0.0282618957	 0.0952
N	 0.018684553	-5.2633637422	-0.0251708582	-0.162341
N	-1.1142294038	-4.5738885062	-0.0148634399	-0.065863
N	-1.1082204481	-3.260697518	-0.0080104724	-0.20916
H	 0.9719602248	 1.8847993582	 0.0025474793	 0.165678
H	-0.573566001	 1.8255017816	-0.8669266851	 0.169151
H	-0.5563779115	 1.8166288972	 0.9011623889	 0.169154
H	 2.0760447545	-5.1536992788	-0.0366787892	 0.148465
8.5914	79.5758	89.0006	196.8645	307.6241	314.4599	391.3938	432.3249	543.9553	600.2311	702.6488	784.9477	867.7034	949.8508	1006.0645	1006.5636	1043.5273	1052.9545	1061.716	1152.4315	1262.6727	1359.023	1408.0268	1419.5212	1467.6129	1470.0253	1509.5116	1553.556	2361.2319	3034.5569	3098.3553	3105.6558	3174.6798
CC#CC1=NC=NN=N1	CC#Cc1ncnnn1	
InChI=1S/C5H4N4/c1-2-3-5-6-4-7-9-8-5/h4H,1H3	InChI=1S/C5H4N4/c1-2-3-5-6-4-7-9-8-5/h4H,1H3
