18
gdb 6826	3.0091	1.5979	1.38613	1.2335	68.42	-0.2523	-0.0342	0.2181	979.1119	0.15103	-384.938094	-384.929328	-384.928384	-384.972108	31.394	
C	-0.2373586928	 1.5409686371	 0.1713301774	-0.432683
C	 0.0074770609	 0.0404398459	 0.0672866424	 0.407025
C	-1.2286570021	-0.7040755153	-0.4171633255	-0.421439
O	 1.1475589248	-0.2368094827	-0.7954783007	-0.313694
C	 1.8716457558	-0.8731695876	 0.2676554875	-0.094968
C	 0.7275988145	-0.6613027736	 1.2817640762	-0.188479
C	 1.0485215182	 0.1772700074	 2.4883703922	 0.150887
O	 0.6012411234	-0.0166031922	 3.5901730263	-0.252074
H	 0.6747410198	 2.0791052281	 0.4396008298	 0.121904
H	-0.5777254195	 1.9229401752	-0.7962248459	 0.128851
H	-1.0081187017	 1.7621787592	 0.9172084702	 0.127591
H	-1.5331863395	-0.3222340341	-1.3970163614	 0.127649
H	-1.0254263011	-1.7739002299	-0.5150881648	 0.121843
H	-2.0621701034	-0.5694459465	 0.280362685	 0.123996
H	 2.1087618619	-1.9199872	 0.0465209732	 0.112752
H	 2.8043878552	-0.3432731257	 0.5052270564	 0.104287
H	 0.2185964219	-1.5670638659	 1.6132011401	 0.098009
H	 1.7565226638	 1.0172674307	 2.3003680116	 0.078543
41.3774	59.4593	193.189	231.6999	235.0438	295.4913	340.5594	355.5325	403.5435	468.4802	473.2801	647.134	820.8213	863.37	881.0742	927.565	965.4408	989.8266	1019.4672	1041.5081	1070.3403	1121.6651	1168.1827	1175.8495	1200.8283	1254.2204	1267.879	1316.6017	1353.3715	1400.3243	1414.0654	1431.647	1472.7199	1481.4355	1492.906	1505.2285	1523.1585	1824.669	2861.5778	3003.8076	3034.0889	3040.8486	3055.0125	3105.1143	3110.2135	3112.3317	3117.662	3124.7199
CC1(C)OCC1C=O	CC1(C)OC[C@H]1C=O	
InChI=1S/C6H10O2/c1-6(2)5(3-7)4-8-6/h3,5H,4H2,1-2H3	InChI=1S/C6H10O2/c1-6(2)5(3-7)4-8-6/h3,5H,4H2,1-2H3/t5-/m1/s1
