20
gdb 60643	2.73657	1.11385	0.95074	3.7335	75.36	-0.2373	0.0262	0.2634	1311.3962	0.170096	-440.304986	-440.29501	-440.294066	-440.341251	35.343	
C	 0.1172871996	 1.6451256218	-0.1933554709	-0.402099
C	 0.1223609998	 0.1208016478	-0.0008332414	-0.116088
C	 0.8506260557	-0.5619453917	-1.1609883119	 0.174487
C	 0.6824891969	-2.0879581309	-1.3372550953	-0.298989
C	 0.0914854465	-1.7191071572	-2.7115968705	-0.06665
O	 0.2007533742	-0.307503388	-2.4303758506	-0.297939
C	 0.8372264924	-0.2475841203	 1.3002057271	 0.41474
N	 0.0775501774	-0.9045741728	 2.2268326537	-0.527695
O	 2.014050663	 0.0028407049	 1.48342735	-0.375745
H	 1.1366747734	 2.0328443238	-0.1170024114	 0.141156
H	-0.2853183531	 1.890935904	-1.1788519843	 0.138732
H	-0.4941921128	 2.1400599029	 0.5673491322	 0.109891
H	-0.9104441633	-0.25042774	 0.012010473	 0.061565
H	 1.892671875	-0.2209889355	-1.172017246	 0.098928
H	 1.6042707807	-2.6701567366	-1.3492946138	 0.118259
H	-0.0212925919	-2.5476576808	-0.6396147321	 0.104048
H	 0.7033242547	-2.0091296557	-3.5749017985	 0.103729
H	-0.9460098174	-2.021154564	-2.8977477961	 0.101456
H	-0.918525646	-0.9932444267	 2.1300416761	 0.258382
H	 0.4910882052	-1.0909672249	 3.1268205707	 0.259832
31.0247	66.4839	77.0686	144.5666	226.8959	235.4267	247.3247	251.309	357.8031	394.6554	474.6827	590.3912	612.9672	742.845	781.2384	808.2547	824.061	880.4762	952.8176	973.8543	1006.5275	1029.2275	1040.4765	1071.0288	1102.2157	1119.7666	1161.0169	1190.8711	1217.8262	1253.8632	1258.5364	1288.769	1311.5445	1358.4253	1382.3141	1395.7252	1404.8581	1491.2177	1497.6586	1502.1027	1532.2071	1615.5333	1789.1763	3015.2229	3020.0759	3043.2844	3045.0596	3054.7045	3076.6698	3115.8347	3134.114	3135.3359	3594.7108	3733.609
CC(C1CCO1)C(N)=O	C[C@@H]([C@H]1CCO1)C(=O)N	
InChI=1S/C6H11NO2/c1-4(6(7)8)5-2-3-9-5/h4-5H,2-3H2,1H3,(H2,7,8)	InChI=1S/C6H11NO2/c1-4(6(7)8)5-2-3-9-5/h4-5H,2-3H2,1H3,(H2,7,8)/t4-,5+/m0/s1
