14
gdb 27578	3.38961	1.29615	0.94307	6.3982	77.71	-0.2757	-0.0731	0.2027	1170.1904	0.102356	-395.801368	-395.793662	-395.792717	-395.834506	27.431	
C	-0.0003914053	 1.5009769485	-0.0122741717	-0.47557
C	 0.0029393431	 0.0000699288	 0.028485437	 0.318362
N	 0.0905976128	-0.6368684825	-1.1474350443	-0.315453
C	 0.0932162581	-1.9686459411	-1.1069223425	 0.240839
N	 0.0186516696	-2.7555523295	-0.0300766761	-0.276837
C	-0.0681564838	-2.1099445805	 1.1336143342	 0.00891
C	-0.080181928	-0.723456663	 1.2200975543	-0.161141
C	 0.1883826779	-2.6439748178	-2.3844639077	 0.281691
N	 0.2643667532	-3.1813790512	-3.4045931028	-0.322479
H	 0.9138235224	 1.8638716677	-0.4919103363	 0.158649
H	-0.8396079493	 1.8565498683	-0.6179338498	 0.158648
H	-0.0740659389	 1.9337137574	 0.9874124099	 0.129433
H	-0.1300186739	-2.7290177915	 2.0251089946	 0.133992
H	-0.1515261578	-0.2226631838	 2.1782711712	 0.120955
44.3571	135.9232	156.7819	194.6067	349.495	376.1504	473.9808	506.4543	545.2209	588.457	650.8631	745.9023	827.5224	863.8291	924.8351	1001.33	1015.815	1035.2067	1061.4974	1127.091	1256.5825	1270.9514	1310.7059	1394.6127	1412.566	1467.2692	1472.7673	1482.2535	1591.9737	1612.072	2363.462	3048.1178	3111.3011	3137.6725	3165.5043	3205.7497
CC1=NC(=NC=C1)C#N	Cc1nc(ncc1)C#N	
InChI=1S/C6H5N3/c1-5-2-3-8-6(4-7)9-5/h2-3H,1H3	InChI=1S/C6H5N3/c1-5-2-3-8-6(4-7)9-5/h2-3H,1H3
