17
gdb 97558	2.92861	0.6083	0.52173	2.2358	82.93	-0.2519	0.0122	0.2641	2079.6608	0.132124	-421.751236	-421.740015	-421.739071	-421.79119	36.94	
C	 0.0219851708	 1.4736521821	 0.1195600103	-0.49889
C	 0.0396474346	 0.0206493222	 0.0440924399	 0.048614
C	 0.0609857929	-1.1814655291	-0.0132844495	 0.102457
C	 0.0457753007	-2.648679491	-0.0863275736	-0.246469
O	-1.2671187124	-3.1851220516	 0.0734050628	-0.391222
C	 0.6896578549	-3.1182225779	-1.3228989697	 0.082345
C	 1.2003453776	-3.5089132701	-2.34165889	 0.050658
C	 1.8051495491	-4.0381473658	-3.5633063378	-0.191796
O	 2.454583924	-5.2876453219	-3.3813947049	-0.400673
H	 0.7388546105	 1.838859791	 0.862840859	 0.154229
H	 0.279727695	 1.9259880327	-0.8441214345	 0.152452
H	-0.9692055792	 1.8411300803	 0.4067630117	 0.153434
H	 0.6035618446	-3.0525612816	 0.768769113	 0.146306
H	-1.8085243519	-2.8210711583	-0.6366328322	 0.286071
H	 1.0357459683	-4.0946850123	-4.350310518	 0.119374
H	 2.5767942716	-3.3506560856	-3.9273993237	 0.143668
H	 1.8291743588	-5.8774986632	-2.9474995827	 0.289442
15.3802	20.4316	54.6901	110.4634	131.7083	146.0464	225.9091	264.881	306.8232	335.0306	352.6917	383.423	478.1169	497.4183	566.7767	603.4759	779.3892	820.8657	982.6604	1007.1328	1049.6467	1051.6757	1054.0293	1127.6077	1173.2918	1216.2197	1256.6894	1311.2986	1357.8991	1410.6378	1413.9399	1419.9267	1475.9207	1477.5344	1489.4159	2357.0079	2371.8535	2974.5137	3026.4555	3030.2785	3063.0999	3092.5912	3093.2902	3801.2598	3816.2244
CC#CC(O)C#CCO	CC#C[C@@H](O)C#CCO	
InChI=1S/C7H8O2/c1-2-4-7(9)5-3-6-8/h7-9H,6H2,1H3	InChI=1S/C7H8O2/c1-2-4-7(9)5-3-6-8/h7-9H,6H2,1H3/t7-/m1/s1
