21
gdb 102388	1.74445	1.52493	1.07556	3.923	78.59	-0.2387	0.0312	0.2699	1250.3311	0.183018	-416.569653	-416.558686	-416.557742	-416.605764	39.284	
C	-0.197849874	 1.4611629573	 0.1567254005	-0.336633
N	-0.0771621531	 0.0133552979	-0.0181597323	-0.296003
C	 0.6808043507	-0.4401369095	-1.1942280003	 0.07993
C	-0.0383844207	-0.0026509611	-2.5065176868	-0.179385
N	-1.4195341439	-0.4329373102	-2.646889271	-0.509786
C	 2.1687897762	 0.013406004	-1.2115440629	-0.186635
N	 2.8279871783	-0.3723791766	 0.034548863	-0.523918
C	 0.673251098	-1.9182431744	-1.1523205534	 0.289117
N	 0.7062260168	-3.0738189638	-1.1446818766	-0.355361
H	 0.7565029664	 2.0092192593	 0.1802112434	 0.108847
H	-0.8219632673	 1.8961670896	-0.6291046038	 0.131355
H	-0.7060316621	 1.6403020658	 1.1080005233	 0.130579
H	 0.3904642229	-0.3662610341	 0.7987734996	 0.239445
H	 0.0048525795	 1.0911846721	-2.5559757262	 0.112827
H	 0.5394659814	-0.3756464246	-3.3576885107	 0.118409
H	-1.4511371601	-1.4398512826	-2.7813210211	 0.241116
H	-1.9095165805	-0.2564225396	-1.7733913662	 0.240604
H	 2.6446484587	-0.3815803363	-2.1230553352	 0.100273
H	 2.1879720783	 1.1049668405	-1.2893394008	 0.111883
H	 3.0337288601	-1.3672931712	 0.0265188574	 0.246229
H	 3.7158803545	 0.1081769775	 0.1289789101	 0.237107
46.792	110.129	114.187	138.0819	168.3587	212.4263	242.4984	262.5811	274.6599	314.1899	340.0211	401.252	449.9261	466.0774	571.5204	651.455	690.9142	783.9611	835.9481	865.8532	919.3721	932.8231	1002.3475	1044.0874	1060.3546	1099.2364	1128.0748	1136.1647	1160.1488	1187.9132	1227.1768	1280.8906	1334.061	1370.8268	1402.347	1408.9703	1456.57	1479.2621	1498.5883	1504.4078	1509.5516	1534.0353	1658.9688	1678.8347	2349.638	2974.5847	2988.0532	3043.6999	3076.1619	3080.5346	3090.7433	3115.7962	3488.0922	3500.9709	3528.2113	3561.1922	3582.2074
CNC(CN)(CN)C#N	CNC(CN)(CN)C#N	
InChI=1S/C5H12N4/c1-9-5(2-6,3-7)4-8/h9H,2-3,6-7H2,1H3	InChI=1S/C5H12N4/c1-9-5(2-6,3-7)4-8/h9H,2-3,6-7H2,1H3
