25
gdb 96134	2.35361	1.59032	1.19189	0.0797	91.33	-0.2773	0.0789	0.3562	1186.6018	0.232663	-352.368355	-352.360063	-352.359119	-352.400489	34.68	
C	-0.0123717455	 1.5665670742	 0.0026548124	-0.399819
C	 0.0030627559	 0.0307206987	 0.0200360997	 0.028065
C	 0.53748553	-0.4961622949	-1.3297543611	-0.181903
C	 0.7228873318	-2.0166273188	-1.4394496564	-0.20917
C	 1.9189699683	-2.597195082	-0.661955023	-0.201854
C	 2.0202095556	-2.2035040698	 0.8190478369	 0.019148
C	 0.648368873	-2.0146904618	 1.5295594116	-0.252197
C	 0.7547215733	-0.4844353455	 1.2640937936	 0.02688
C	 2.2865387518	-0.6900046255	 1.072056689	-0.233763
H	 1.0077181521	 1.9680593235	-0.0284465369	 0.113603
H	-0.5440679004	 1.9501600341	-0.8747583806	 0.106465
H	-0.5007741289	 1.9710674819	 0.8952017254	 0.107685
H	-1.0379715392	-0.3136335705	 0.1164960525	 0.066213
H	-0.1621439189	-0.1699323655	-2.1093766465	 0.087583
H	 1.4883675701	 0.0020872087	-1.5642764436	 0.09093
H	-0.2023016875	-2.5145483435	-1.1219293078	 0.094895
H	 0.8497359099	-2.2809660935	-2.4962527506	 0.088389
H	 1.8718413601	-3.6913574965	-0.7357049766	 0.089627
H	 2.8517074816	-2.3003748424	-1.1616100843	 0.090698
H	 2.7207507847	-2.8805674576	 1.317267962	 0.057405
H	-0.2189774599	-2.5458744602	 1.1267371018	 0.08843
H	 0.7167254199	-2.2353082362	 2.5987230275	 0.089649
H	 0.4729587853	 0.1410237737	 2.1172461989	 0.054754
H	 2.8325953187	-0.5311559936	 2.0062778683	 0.089833
H	 2.7897616183	-0.1230844968	 0.2831644878	 0.088455
129.1959	213.5624	256.5815	262.5214	306.0458	324.2726	356.305	375.0387	462.3159	504.1671	541.9755	723.7968	767.8422	799.8512	819.4353	857.6796	869.9653	894.3451	923.0201	933.5444	951.9042	997.0859	1011.4373	1042.0439	1051.2355	1059.0285	1088.7254	1110.8961	1142.5422	1169.3224	1174.6212	1188.0287	1217.2483	1249.8063	1263.6181	1278.5154	1283.4686	1310.6587	1329.394	1345.8266	1359.6099	1370.19	1385.8921	1395.3694	1398.2315	1413.3626	1470.5529	1482.5301	1489.5963	1495.3428	1498.0548	1502.8556	1514.6393	2983.7477	3005.2594	3010.0287	3019.4755	3023.3965	3037.1623	3040.0973	3046.018	3048.515	3049.7823	3059.3548	3061.2709	3088.4642	3096.081	3096.9908	3098.3459
CC1CCCC2CC1C2	C[C@H]1CCC[C@@H]2C[C@H]1C2	
InChI=1S/C9H16/c1-7-3-2-4-8-5-9(7)6-8/h7-9H,2-6H2,1H3	InChI=1S/C9H16/c1-7-3-2-4-8-5-9(7)6-8/h7-9H,2-6H2,1H3/t7-,8-,9+/m0/s1
