23
gdb 120221	4.19784	0.92518	0.90377	0.9148	86.33	-0.2415	0.0919	0.3333	1445.4351	0.207302	-388.278132	-388.269443	-388.268499	-388.311895	33.726	
C	-0.0653123828	 1.4740123513	-0.0136445914	-0.384993
C	-0.109514197	-0.019037952	 0.2647212677	-0.043151
O	-1.2961881055	-0.5445601105	-0.3010751691	-0.273992
C	-1.4188642698	-1.9368409181	-0.1734594026	 0.188546
C	-1.945284825	-2.4665400838	 1.2048299442	-0.057928
C	-3.3494381508	-1.9948913817	 0.7236031062	-0.226462
C	-2.8025623815	-2.4366856336	-0.6675283308	-0.048224
C	-2.6551559235	-3.9584954085	-0.4905966239	-0.218226
C	-1.9941217942	-3.9807439423	 0.932725829	-0.21664
H	 0.8452149845	 1.9137997974	 0.4042974995	 0.113135
H	-0.0813710212	 1.663343513	-1.0907310448	 0.126147
H	-0.9292542474	 1.973764319	 0.4338423406	 0.125575
H	 0.7693938341	-0.5204894727	-0.174684336	 0.084729
H	-0.079297708	-0.2102113918	 1.3490697289	 0.088808
H	-0.5248336848	-2.4363963035	-0.5816255933	 0.048406
H	-1.5156966664	-2.139050639	 2.1522314336	 0.056453
H	-4.2271510588	-2.5156338468	 1.1181412362	 0.08109
H	-3.4745775767	-0.9156269427	 0.7952780681	 0.111149
H	-3.2241627409	-2.0666505893	-1.6021377451	 0.06197
H	-3.6210015295	-4.4703858833	-0.5142694981	 0.097125
H	-2.0176408287	-4.4101282853	-1.2564797409	 0.095206
H	-0.9992081841	-4.4367083421	 0.9242295068	 0.093963
H	-2.599024322	-4.5144861139	 1.670987945	 0.097314
62.6782	92.9014	133.6691	241.9154	292.8187	296.0468	326.9195	383.5961	462.4304	585.4522	643.0306	816.9786	822.6349	827.0192	841.2184	889.5396	892.7073	908.6028	925.8336	944.19	971.5052	1011.8208	1025.664	1050.2661	1066.2432	1085.8817	1116.1988	1136.1663	1154.8763	1186.6022	1189.239	1215.158	1228.0676	1249.3964	1261.9863	1268.3762	1291.3254	1295.3392	1318.2325	1323.4422	1380.286	1404.0404	1438.8178	1483.3066	1490.123	1492.9074	1499.8569	1516.7097	1528.5693	2957.3337	2966.9776	2992.0431	3044.3397	3046.6678	3055.8423	3059.4431	3083.5142	3103.0744	3108.1303	3117.3499	3118.6702	3120.9994	3150.1462
CCOC1C2CC1CC2	CCO[C@H]1[C@H]2C[C@@H]1CC2	
InChI=1S/C8H14O/c1-2-9-8-6-3-4-7(8)5-6/h6-8H,2-5H2,1H3	InChI=1S/C8H14O/c1-2-9-8-6-3-4-7(8)5-6/h6-8H,2-5H2,1H3/t6-,7+,8+
