19
gdb 63540	3.09641	1.32285	1.17445	0.4602	75.41	-0.2505	0.0731	0.3236	1130.2287	0.156389	-422.973387	-422.964645	-422.9637	-423.006454	33.438	
C	-0.0898084434	 1.5285141316	-0.0045264573	-0.455419
C	-0.0961341997	 0.0190741781	 0.0863823105	 0.284963
C	-1.2121944729	-0.6818901345	-0.6542166377	-0.45434
O	 1.2132100657	-0.5971076518	-0.0625919257	-0.332657
C	 0.5813697063	-0.646235485	 1.2027596568	 0.400656
C	 1.2808617565	-0.1141018483	 2.4821217124	-0.354931
C	 0.9301714592	-1.46064846	 3.1402765673	 0.031572
O	-0.4922805497	-1.6059085691	 3.0732889433	-0.242339
C	 0.2816817454	-1.9616786517	 1.9156670757	-0.093666
H	 0.7612961703	 1.9512105103	 0.5335325258	 0.128521
H	-0.0264968923	 1.8476325361	-1.0506548438	 0.125348
H	-1.0115830648	 1.9430610866	 0.417451818	 0.124757
H	-1.1812931877	-0.4290316832	-1.7197030645	 0.124657
H	-1.1288419199	-1.7663972618	-0.5581231784	 0.125104
H	-2.1868972046	-0.3719719301	-0.2628714492	 0.127321
H	 2.3516747655	 0.0168732647	 2.3053403849	 0.123846
H	 0.8648418122	 0.7714208809	 2.9679115153	 0.114413
H	 1.4518656166	-1.9947734812	 3.9250069231	 0.110253
H	 0.1761700674	-2.9628557115	 1.5153789636	 0.111941
107.8113	156.8504	169.8708	175.8041	210.1868	312.961	363.1535	411.0591	443.5699	468.7286	505.9024	592.084	712.6854	784.5073	846.651	863.4369	867.8822	935.7038	948.4183	955.0659	968.9759	995.3934	1025.1417	1063.9939	1097.4528	1123.0172	1157.4798	1170.7481	1222.0249	1235.1795	1249.6991	1270.6534	1372.2883	1407.3902	1416.5663	1457.7637	1472.5432	1475.6231	1483.6482	1498.1752	1537.4403	3033.9885	3038.9308	3066.0204	3096.2451	3101.3506	3126.6806	3128.9041	3130.5196	3188.0244	3202.6893
CC1(C)OC11CC2OC12	CC1(C)O[C@]21C[C@H]1O[C@@H]21	
InChI=1S/C7H10O2/c1-6(2)7(9-6)3-4-5(7)8-4/h4-5H,3H2,1-2H3	InChI=1S/C7H10O2/c1-6(2)7(9-6)3-4-5(7)8-4/h4-5H,3H2,1-2H3/t4-,5-,7-/m1/s1
