18
gdb 54134	3.21909	1.15347	0.99075	5.1129	72.96	-0.2423	-0.0159	0.2265	1210.8219	0.145617	-439.133169	-439.12382	-439.122876	-439.167786	34.702	
C	-0.1175094175	 1.5632164048	-0.2357554538	-0.495729
C	 0.0497288711	 0.0474470736	-0.1311697452	 0.208318
C	 1.3690781628	-0.4582773228	-0.8212660826	-0.364543
C	 2.0137018478	-0.4972678617	 0.568361375	 0.398695
O	 3.1429921191	-0.5019671858	 0.9610810521	-0.291056
C	 0.6474479457	-0.3942152321	 1.2547220868	-0.364451
C	-1.1634561273	-0.7977012085	-0.526534533	 0.365785
N	-2.2812780473	-0.1347796626	-0.9310429866	-0.543699
O	-1.1198774587	-2.0149788015	-0.475575316	-0.378934
H	 0.8038441794	 2.0703619913	 0.0682061688	 0.134389
H	-0.3319969586	 1.8776901648	-1.263419006	 0.123999
H	-0.915979568	 1.9292475873	 0.419397517	 0.124188
H	 1.2377432615	-1.4727959136	-1.2097731607	 0.156798
H	 1.8312370303	 0.1777865304	-1.5799847834	 0.12177
H	 0.5522343057	 0.2915477127	 2.100007475	 0.121826
H	 0.2841859828	-1.3880516968	 1.5335147871	 0.156747
H	-2.3393234006	 0.8650042649	-0.9863711385	 0.261929
H	-3.0819304083	-0.6850730145	-1.1954461659	 0.263968
39.4783	71.3819	168.7712	220.1423	261.2886	307.2827	336.8171	342.5949	381.2651	437.6201	478.2143	534.5181	592.1496	633.9158	689.0274	729.2093	777.3555	875.142	885.9268	892.5594	961.3775	1033.9003	1082.2842	1087.0421	1132.0654	1157.5248	1167.4628	1212.8399	1250.408	1276.5839	1372.4532	1416.4107	1418.5756	1439.3483	1503.2256	1509.6853	1615.1073	1775.7646	1898.9899	3024.278	3058.7196	3063.6325	3091.9052	3097.044	3125.8558	3126.1394	3612.6099	3752.6141
CC1(CC(=O)C1)C(N)=O	CC1(CC(=O)C1)C(=O)N	
InChI=1S/C6H9NO2/c1-6(5(7)9)2-4(8)3-6/h2-3H2,1H3,(H2,7,9)	InChI=1S/C6H9NO2/c1-6(5(7)9)2-4(8)3-6/h2-3H2,1H3,(H2,7,9)
