20
gdb 40238	2.74373	1.61989	1.23148	1.951	78.85	-0.2376	0.0669	0.3045	1069.2373	0.173619	-403.10948	-403.101921	-403.100977	-403.141323	30.665	
C	 0.0306645017	 1.5163613638	-0.008198157	-0.31533
C	 1.3138384559	 0.719849339	-0.0098372871	-0.311001
C	-0.0176650056	 0.0111485283	-0.00898081	 0.40582
C	-0.460964266	-0.7142950085	 1.2485272754	-0.176455
O	-0.0464400335	-2.0710191311	 1.2152827895	-0.249835
C	-0.7353718206	-2.8270919434	 0.2328648933	-0.076962
C	-0.7761785575	-2.1611758841	-1.1384659736	-0.058941
N	-1.8331473382	-1.1457803728	-1.3280417251	-0.346298
C	-0.4238617713	-0.7198796679	-1.2519586345	-0.115492
H	-0.2507396058	 2.0345889443	 0.9032984677	 0.111702
H	-0.2536288001	 2.0376088005	-0.9164757845	 0.109352
H	 1.9029371234	 0.7037878122	-0.9215455193	 0.108256
H	 1.9063228531	 0.6912548165	 0.8985209479	 0.115186
H	 0.0018459609	-0.2690996953	 2.1343882301	 0.098292
H	-1.5546247283	-0.6489775355	 1.3552705576	 0.105462
H	-0.202726941	-3.7808975424	 0.1701322103	 0.104783
H	-1.767832415	-3.0287263506	 0.5605967238	 0.097609
H	-0.5447189958	-2.8078572176	-1.9813725604	 0.08766
H	-2.1495978924	-1.1405756079	-2.2939355373	 0.229593
H	 0.0543860663	-0.3843819275	-2.1708442969	 0.076599
96.9607	201.2901	241.3687	280.9673	352.9503	383.272	436.9871	481.9692	526.4941	669.8141	766.3342	785.0252	799.1813	844.8584	894.922	922.0906	938.5306	947.8989	957.5238	982.9308	990.8153	1037.0391	1050.2104	1064.5756	1079.7797	1111.6184	1130.2369	1165.0474	1186.1463	1206.3527	1251.017	1259.1941	1302.0873	1334.2827	1345.3798	1375.7444	1409.3211	1418.035	1467.603	1470.4733	1485.6128	1495.763	1511.205	2976.7486	2991.5077	3078.053	3081.6045	3114.6129	3124.2034	3128.3523	3135.4162	3200.9675	3215.3789	3504.3778
C1CC11COCC2NC12	C1CC21COC[C@H]1N[C@@H]21	
InChI=1S/C7H11NO/c1-2-7(1)4-9-3-5-6(7)8-5/h5-6,8H,1-4H2	InChI=1S/C7H11NO/c1-2-7(1)4-9-3-5-6(7)8-5/h5-6,8H,1-4H2/t5-,6-/m1/s1
