21
gdb 122438	3.13386	0.87638	0.82732	1.6487	76.05	-0.2438	0.0729	0.3167	1489.6636	0.179528	-461.330384	-461.320041	-461.319097	-461.366071	38.072	
C	-0.3418309607	 1.4286823406	 0.6251537928	-0.455615
C	 0.0186346492	 0.0134343493	 0.2372406421	 0.356824
O	-1.0416897447	-0.7519710816	-0.2771248279	-0.460499
C	 1.4073549599	-0.2994244367	-0.295541394	-0.381586
C	 0.9856059094	-0.7999618679	 1.05824708	 0.091759
O	 1.6354871335	-0.2429149034	 2.155995082	-0.264442
C	 0.8953670503	-0.3211616992	 3.3701312376	-0.0737
C	 1.681613351	 0.4709142076	 4.4031966982	-0.067402
O	 1.8701159248	 1.8118458448	 3.9921067085	-0.420086
H	 0.4422514975	 1.8840977593	 1.2345062547	 0.129596
H	-0.4943464401	 2.0555337558	-0.2617024794	 0.108637
H	-1.270868242	 1.431512604	 1.2036048733	 0.127571
H	-1.2500950244	-0.4154609211	-1.1561181047	 0.281415
H	 1.4964493874	-1.0252650932	-1.09579573	 0.115393
H	 2.1338750292	 0.5062298267	-0.3101358012	 0.117849
H	 0.7485370729	-1.8598302046	 1.1540034982	 0.097127
H	-0.1034579616	 0.1149240277	 3.2341876752	 0.106864
H	 0.7777707328	-1.3696997505	 3.6855818322	 0.093202
H	 1.1288252486	 0.4964741952	 5.3476609509	 0.110431
H	 2.6445121024	-0.0307569769	 4.5877133462	 0.095179
H	 2.2830718447	 1.7604569341	 3.1225022053	 0.291482
48.33	75.7284	123.7355	170.0449	217.4445	243.665	267.7408	299.5566	334.7499	390.0668	420.2212	432.9009	453.8149	507.6117	582.5805	721.7421	798.9068	873.9554	904.7744	906.4613	924.4417	976.1806	1029.5825	1055.9247	1074.1687	1090.0414	1098.6527	1124.5404	1136.2501	1201.4034	1236.8559	1242.3982	1261.419	1299.4242	1343.7105	1386.5622	1391.6206	1412.6416	1420.274	1436.4948	1476.1744	1486.2867	1497.3673	1509.3268	1509.7178	2982.7738	2988.9011	3029.4063	3041.2104	3084.3504	3093.072	3103.749	3129.6294	3134.5339	3228.5236	3787.5244	3804.4873
CC1(O)CC1OCCO	C[C@@]1(O)C[C@H]1OCCO	
InChI=1S/C6H12O3/c1-6(8)4-5(6)9-3-2-7/h5,7-8H,2-4H2,1H3	InChI=1S/C6H12O3/c1-6(8)4-5(6)9-3-2-7/h5,7-8H,2-4H2,1H3/t5-,6-/m1/s1
