19
gdb 31957	4.4273	0.8879	0.781	2.2324	79.	-0.2279	0.0098	0.2377	1504.5866	0.160329	-419.24667	-419.23731	-419.236366	-419.281829	33.19	
C	 0.0549493436	 1.7275118418	-0.3097004186	-0.373506
C	 0.1735668829	 0.2279417085	 0.0137629543	-0.299913
C	 0.7921688026	-0.5680361841	-1.0794067561	 0.334241
C	 1.9180649173	-1.3077146579	-1.2154021245	-0.208064
N	 1.9864540686	-1.8313632842	-2.5041807699	-0.315501
C	 0.9172615688	-1.3928449521	-3.0860531941	 0.371165
C	 0.4607797704	-1.6382564978	-4.4968866055	-0.278864
N	 1.3437585991	-2.486063288	-5.28590286	-0.486363
O	 0.135460732	-0.616700421	-2.2895472959	-0.215225
H	 1.0407062775	 2.1681296428	-0.4859938205	 0.124371
H	-0.5498220357	 1.8838620688	-1.2071561224	 0.132407
H	-0.4180061889	 2.2638006211	 0.5181018943	 0.11674
H	 0.7803015585	 0.0824536563	 0.9134691186	 0.119365
H	-0.822626898	-0.1737023599	 0.2407831829	 0.119998
H	 2.6836527836	-1.5044666997	-0.4813866689	 0.11786
H	-0.5414073145	-2.0848350597	-4.4730776726	 0.13267
H	 0.3408833194	-0.6724147297	-5.0041467029	 0.132469
H	 2.2734552917	-2.0744151256	-5.288406502	 0.238196
H	 1.460722711	-3.3729717095	-4.8027019062	 0.237952
49.3054	65.4079	125.1783	161.4266	192.4941	219.7321	270.9795	324.4563	410.4003	451.8484	638.357	683.464	700.6706	722.7408	788.038	850.3795	912.922	940.4971	958.382	985.2919	1003.6829	1074.29	1092.8651	1137.066	1152.3462	1186.6587	1207.9228	1238.5657	1271.4318	1335.4639	1358.7865	1391.2389	1400.7037	1410.6699	1474.1346	1475.2751	1496.4641	1506.8421	1608.6346	1647.0307	1679.6936	3024.0218	3026.4978	3043.2681	3055.4945	3078.3413	3115.716	3122.7033	3260.5707	3491.0824	3556.997
CCC1=CN=C(CN)O1	CCc1cnc(CN)o1	
InChI=1S/C6H10N2O/c1-2-5-4-8-6(3-7)9-5/h4H,2-3,7H2,1H3	InChI=1S/C6H10N2O/c1-2-5-4-8-6(3-7)9-5/h4H,2-3,7H2,1H3
