21
gdb 98592	2.98476	1.01006	0.97496	2.6433	83.05	-0.2169	0.0192	0.2361	1376.739	0.181026	-420.410409	-420.399818	-420.398874	-420.446464	37.486	
C	 0.4926653262	 1.4860863233	-0.1550186018	-0.334051
N	 0.2190687139	 0.0639652172	-0.1914256753	-0.324421
C	-0.6346030291	-0.5460614413	 0.6853442324	 0.439131
O	-1.236365383	 0.0778701695	 1.5504989891	-0.395213
C	-0.748938986	-2.0275731575	 0.4622922583	-0.147992
C	-0.9406080217	-2.9892063265	 1.6133922425	 0.009421
C	-1.013426203	-2.5599365182	 3.0626768327	-0.429893
N	-1.9990385392	-2.7749905046	 0.6457993159	-0.10763
C	-3.2415270409	-2.101600271	 1.0188060056	-0.325183
H	 1.5577990933	 1.6836927576	 0.0103455446	 0.125238
H	 0.1868058002	 1.9760037071	-1.0864407668	 0.126043
H	-0.081184373	 1.9055254479	 0.6719500423	 0.172088
H	 0.6687182746	-0.4964068809	-0.8954337305	 0.247725
H	-0.1690349748	-2.3851306918	-0.3893709435	 0.072624
H	-0.4503741668	-3.9546214352	 1.4764095892	 0.089058
H	-1.3395621029	-1.5267737336	 3.1715367513	 0.166005
H	-1.6963969717	-3.2162556921	 3.6137896874	 0.116673
H	-0.0242677834	-2.6583678332	 3.5223871302	 0.115763
H	-3.1202340452	-1.2336342509	 1.6717582424	 0.150125
H	-3.7400033848	-1.7747780956	 0.100599833	 0.118156
H	-3.8877915327	-2.8400276402	 1.5038472011	 0.11633
48.9127	73.6008	132.1947	155.3216	168.1838	186.8776	217.7717	239.3755	311.6277	367.4704	385.506	445.4826	469.1024	518.5349	693.1816	742.3059	787.3204	797.9767	883.6581	950.6495	1021.8933	1048.1169	1071.0488	1121.6868	1140.182	1153.743	1163.7926	1167.0526	1177.346	1197.1609	1226.7745	1358.7343	1390.8831	1411.7536	1422.4193	1438.7646	1451.4724	1481.3497	1491.9216	1497.6666	1500.0577	1502.0517	1521.3187	1558.8049	1747.8385	3026.0336	3032.7243	3037.8488	3076.9216	3077.9918	3088.2866	3091.6517	3099.5621	3115.8022	3154.6592	3166.5359	3654.4733
CNC(=O)C1C(C)N1C	CNC(=O)[C@H]1[C@@H](C)N1C	
InChI=1S/C6H12N2O/c1-4-5(8(4)3)6(9)7-2/h4-5H,1-3H3,(H,7,9)	InChI=1S/C6H12N2O/c1-4-5(8(4)3)6(9)7-2/h4-5H,1-3H3,(H,7,9)/t4-,5-,8?/m1/s1
