16
gdb 11815	3.75757	1.66847	1.31675	3.3217	66.38	-0.2414	-0.038	0.2034	948.3989	0.12884	-383.725303	-383.717505	-383.716561	-383.757648	28.385	
C	 0.2560372617	 1.6236208234	-0.0671967332	-0.403163
C	 0.0568252082	 0.1139330755	-0.0011176065	-0.098786
C	 0.518503759	-0.7743007164	-1.2053394439	-0.35994
C	 1.2772336037	-1.6814643747	-0.2234413566	 0.347325
C	 1.3087411877	-3.1496999627	-0.1094984593	-0.247628
O	 2.466058263	-2.4006156251	-0.4711024641	-0.254146
C	 1.0418764738	-0.6751802341	 0.8963788994	 0.324283
O	 1.4905453718	-0.5085538051	 1.9924076943	-0.302543
H	 1.2790729312	 1.8725790786	-0.3673429552	 0.125373
H	-0.4294921162	 2.0810254998	-0.7870868247	 0.122752
H	 0.0765649912	 2.075037697	 0.9129605925	 0.138363
H	-0.9720957244	-0.1234321571	 0.2949117719	 0.106698
H	-0.2683633059	-1.2470596238	-1.7949142014	 0.114769
H	 1.2014368405	-0.2435063186	-1.8744066697	 0.125606
H	 1.3383143951	-3.6098745672	 0.8767465955	 0.135663
H	 0.8641660897	-3.7453805996	-0.9057522891	 0.125375
63.4624	182.4206	200.3196	219.7104	234.3223	295.7853	365.6675	497.9121	564.7063	698.0508	710.9226	809.9205	847.2733	881.2171	904.7074	940.3661	977.4336	1053.0585	1089.7711	1114.5808	1133.0059	1146.1039	1163.3663	1185.5071	1230.0711	1248.2704	1329.0564	1408.5009	1412.4087	1481.0481	1495.7226	1496.2581	1519.6465	1890.9846	3037.6379	3041.471	3069.6451	3083.8751	3107.4399	3114.7494	3128.833	3179.1871
CC1CC2(CO2)C1=O	C[C@H]1C[C@]2(CO2)C1=O	
InChI=1S/C6H8O2/c1-4-2-6(3-8-6)5(4)7/h4H,2-3H2,1H3	InChI=1S/C6H8O2/c1-4-2-6(3-8-6)5(4)7/h4H,2-3H2,1H3/t4-,6-/m0/s1
