15
gdb 126995	3.44861	1.08146	0.83188	2.988	66.79	-0.2165	-0.0253	0.1912	1327.8468	0.110275	-491.046851	-491.037996	-491.037052	-491.081342	30.904	
C	-0.0537935158	 1.4985870813	 0.0319490811	-0.391564
C	-0.0456162166	-0.0160827684	 0.0309228012	-0.063365
O	 0.6834477817	-0.4402015488	-1.1437460985	-0.267047
C	 0.8122466861	-1.7416554802	-1.339919653	 0.438379
C	 1.4430178277	-2.4246660766	-2.3502798594	 0.189871
O	 2.1022844115	-1.9216756934	-3.416136152	-0.430572
N	 1.2888043425	-3.7423412508	-2.0906720243	-0.184333
N	 0.627996347	-3.9390572611	-1.0245406599	-0.050373
O	 0.2944618025	-2.6308385541	-0.4982072335	-0.224131
H	 0.9653256457	 1.8922407358	 0.068413758	 0.139284
H	-0.5437248501	 1.8847040063	-0.8657045093	 0.139284
H	-0.5981572791	 1.8613794429	 0.9084105697	 0.130386
H	 0.4487738806	-0.422483256	 0.9197665915	 0.131112
H	-1.0587203272	-0.4299647104	-0.0131524868	 0.131127
H	 2.4237987835	-2.6696364065	-3.9331513949	 0.311941
60.7135	67.3246	130.8333	209.0138	242.5582	275.705	298.3133	344.5234	370.3809	529.5117	647.5393	661.4385	662.7921	707.8201	810.1103	815.979	917.8405	993.7751	1052.7162	1129.3332	1162.9374	1179.0354	1275.5952	1296.9428	1362.6612	1390.5749	1414.4367	1425.3286	1481.9323	1483.4141	1497.8824	1522.9732	1729.2478	3041.6279	3051.6529	3084.5388	3127.7346	3133.2694	3815.276
CCOC1=C(O)N=NO1	CCOc1c(O)nno1	
InChI=1S/C4H6N2O3/c1-2-8-4-3(7)5-6-9-4/h7H,2H2,1H3	InChI=1S/C4H6N2O3/c1-2-8-4-3(7)5-6-9-4/h7H,2H2,1H3
