14
gdb 45381	2.26582	1.82556	1.29698	6.7364	69.05	-0.2596	-0.0284	0.2312	976.9996	0.101611	-432.830828	-432.823354	-432.82241	-432.86289	27.903	
N	-0.0393228607	 1.0888607871	 0.5030048617	-0.527481
C	-0.0007537129	-0.0770223033	 0.0354705027	 0.345407
N	 0.9529190082	-0.9508205804	-0.5040454728	-0.337303
C	 0.0442825641	-2.0861823893	-0.6452696655	-0.089756
C	-0.2431263949	-2.8990442574	 0.6318946342	-0.09894
O	-1.2342775536	-1.9388221239	 1.077987816	-0.306323
C	-1.0967975455	-1.1491926389	-0.1203511483	 0.254643
C	-2.3421148703	-0.8472167281	-0.7905890019	 0.2418
N	-3.3260827894	-0.6137970343	-1.34908169	-0.328246
H	 0.8818308933	 1.5272108745	 0.5461831581	 0.224427
H	 1.9316332728	-0.9978527166	-0.2542911659	 0.250245
H	 0.0538967265	-2.5868093209	-1.6117359114	 0.124587
H	-0.7033206139	-3.876129389	 0.4479989522	 0.129362
H	 0.5868654363	-3.0021981094	 1.338216811	 0.117579
124.9738	127.6121	180.2457	255.3961	349.4234	395.3388	467.5339	511.9795	553.8299	627.2079	657.9352	716.9671	834.9991	855.6783	891.9292	970.6418	1000.0121	1008.0333	1030.27	1074.9756	1102.5301	1132.2922	1172.1817	1230.2941	1282.9893	1334.0359	1352.8933	1355.6671	1508.6798	1807.9351	2363.7884	3036.393	3091.8415	3135.238	3472.9278	3587.4894
N=C1NC2COC12C#N	[NH][C]1N[C@H]2CO[C@@]12C#N	
InChI=1S/C5H5N3O/c6-2-5-3(1-9-5)8-4(5)7/h3H,1H2,(H2,7,8)	InChI=1S/C5H5N3O/c6-2-5-3(1-9-5)8-4(5)7/h3H,1H2,(H2,7,8)/t3-,5+/m0/s1
