18
gdb 50240	3.71826	1.2624	1.17412	4.4112	76.94	-0.2399	0.0267	0.2666	1091.1085	0.149123	-401.913321	-401.905942	-401.904998	-401.946007	28.628	
O	-0.0205378814	-0.0189021628	 0.0758475745	-0.332573
C	 0.029822081	 1.1941651182	 0.0483391521	 0.12556
N	 1.1709299769	 1.9170801631	 0.0162389808	-0.029505
C	 2.5776059258	 1.4837008276	 0.0314174835	-0.208884
C	 2.9813615669	 2.9876978748	-0.0387562987	-0.046664
C	 3.0912329811	 3.6826073803	-1.4161889869	-0.060143
C	 2.1152011387	 3.1412044873	-2.4213247565	-0.299408
C	 1.6028727665	 4.0732370141	-1.364067454	-0.054586
C	 1.4743081993	 3.355326713	 0.0038328315	-0.021373
H	-0.8687998561	 1.8463864519	 0.0519735023	 0.064701
H	 2.8533537388	 0.9779866559	 0.9624929975	 0.123283
H	 2.8645005892	 0.8515332563	-0.8143707211	 0.125342
H	 3.6633707387	 3.3563336522	 0.7240523853	 0.08748
H	 3.9386596729	 4.2835949658	-1.721879563	 0.093486
H	 2.198887919	 3.5809236854	-3.4098133451	 0.119208
H	 1.8201235753	 2.0969926705	-2.4292288628	 0.132034
H	 1.1298290935	 5.0176331833	-1.6041599457	 0.091687
H	 1.0306318738	 3.9396525232	 0.8118667563	 0.090354
31.8309	177.928	212.026	300.2377	328.2412	420.0812	470.6255	599.3672	715.1789	739.1386	748.0983	801.0985	853.0587	889.7608	914.1264	926.9915	971.9935	978.1541	1015.1104	1034.1402	1042.8465	1058.4647	1090.1615	1091.6629	1124.182	1153.7843	1180.2322	1201.9177	1209.1426	1278.9878	1293.2783	1298.9168	1320.9035	1358.5616	1395.0346	1439.5793	1493.3752	1511.8295	1788.7032	2913.0873	3043.5768	3089.8465	3093.7504	3132.676	3140.8895	3180.8143	3190.0304	3213.8644
O=CN1CC2C3CC3C12	O=CN1C[C@H]2[C@H]3C[C@H]3[C@@H]12	
InChI=1S/C7H9NO/c9-3-8-2-6-4-1-5(4)7(6)8/h3-7H,1-2H2	InChI=1S/C7H9NO/c9-3-8-2-6-4-1-5(4)7(6)8/h3-7H,1-2H2/t4-,5+,6-,7+/m0/s1
