15
gdb 125387	3.41379	1.60213	1.09781	1.7578	72.32	-0.2127	0.014	0.2267	1039.6288	0.115511	-416.82886	-416.821767	-416.820823	-416.860248	27.29	
C	-0.0175628007	 1.531602596	-0.0240490681	-0.501701
C	-0.0075033253	 0.037317294	 0.0314326696	 0.063357
C	-0.0344557485	-0.8125784358	-1.0298030484	-0.106723
O	-0.0153546966	-2.1614432163	-0.6519998538	-0.225649
C	 0.0243182936	-2.0989682529	 0.6853955046	 0.467342
C	 0.0323655189	-0.8209052057	 1.1991776588	 0.120477
C	 0.0752991337	-1.0384522511	 2.6004866915	-0.164312
N	 0.0918552852	-2.3378368981	 2.8907224763	-0.22524
N	 0.0592736416	-2.9944827351	 1.6876128451	-0.3563
H	 0.8767697578	 1.9522217433	 0.4494358653	 0.134911
H	-0.0524237263	 1.8896499732	-1.056456032	 0.126982
H	-0.8845728024	 1.942394508	 0.5055270821	 0.134883
H	-0.0673778656	-0.6503389733	-2.0944167834	 0.138414
H	 0.0954178436	-0.3257940709	 3.41153355	 0.113495
H	 0.064297221	-3.9985889755	 1.6691289424	 0.280064
155.8954	182.6764	237.4465	252.0488	357.7447	412.9933	516.8537	594.4608	597.6963	656.9197	690.5211	713.8699	756.1123	791.4234	872.7329	967.6416	1011.0841	1054.5681	1064.0929	1065.109	1109.4743	1217.1545	1255.4421	1296.2692	1327.8316	1419.3502	1428.3111	1472.4157	1479.9364	1499.2914	1564.401	1607.7212	1626.7267	3030.3436	3081.784	3114.1285	3246.6029	3280.3542	3694.2426
CC1=COC2=C1C=NN2	Cc1coc2c1cn[nH]2	
InChI=1S/C6H6N2O/c1-4-3-9-6-5(4)2-7-8-6/h2-3H,1H3,(H,7,8)	InChI=1S/C6H6N2O/c1-4-3-9-6-5(4)2-7-8-6/h2-3H,1H3,(H,7,8)
