23
gdb 66307	4.27789	0.59286	0.57016	2.7897	87.67	-0.2471	-0.0188	0.2283	1995.7824	0.203398	-388.296231	-388.285718	-388.284774	-388.333018	37.924	
C	-0.0429799634	 1.5484414698	 0.4954161458	-0.462765
C	-0.0125641462	 0.0814444816	 0.105830903	 0.388797
C	-1.305653891	-0.4763391707	-0.4723573375	-0.263353
C	-1.7109597017	 0.1365408315	-1.8207815946	-0.192423
C	-2.99264283	-0.4932119082	-2.3950296299	-0.271433
C	-3.3162458257	 0.0483684306	-3.7676422898	 0.158995
O	-4.3454132521	 0.5917983378	-4.075882546	-0.237951
C	 1.2875584302	-0.4798354442	-0.4234571228	-0.294285
C	 0.8148560005	-0.8453888246	 0.9647421681	-0.313896
H	 0.9070042264	 1.8542546246	 0.9445167789	 0.113722
H	-0.2193917933	 2.1986230849	-0.3684677356	 0.118018
H	-0.835190241	 1.7458141821	 1.2276562292	 0.114826
H	-1.2015731721	-1.5620038492	-0.5974493809	 0.090902
H	-2.1203310404	-0.3296692984	 0.2507532415	 0.097779
H	-1.8644954292	 1.2163621732	-1.7123214066	 0.114324
H	-0.8875341694	 0.0115856274	-2.5361828378	 0.104303
H	-2.846018962	-1.5792319562	-2.4936159733	 0.115012
H	-3.853356687	-0.325358621	-1.7406807199	 0.120617
H	-2.4960288863	-0.0849848123	-4.5135436617	 0.067677
H	 1.2445157618	-1.244765504	-1.1924039582	 0.10551
H	 2.1369830219	 0.1888663164	-0.5152704253	 0.109093
H	 1.3434011313	-0.4212005847	 1.8120383039	 0.108956
H	 0.4526804086	-1.8548537065	 1.1302480795	 0.107572
49.4525	51.5245	91.7395	121.0894	140.4865	224.529	259.2058	287.845	343.644	363.6751	399.9844	468.969	525.8656	717.6963	749.5974	786.584	807.9759	869.2911	903.7932	920.9841	953.8404	956.5764	998.4274	1029.5524	1045.8401	1055.1137	1081.4034	1095.1003	1107.292	1138.2542	1181.1442	1187.5008	1252.5004	1279.8222	1313.7453	1324.0987	1345.8533	1369.6199	1397.0519	1422.0659	1430.9693	1465.0081	1468.9809	1478.3018	1496.1903	1501.3993	1504.0325	1513.0149	1836.7353	2844.3926	3004.7241	3007.1277	3024.1882	3025.8717	3040.0156	3069.1029	3084.7921	3096.7194	3100.4545	3124.236	3129.2983	3201.2832	3215.9637
CC1(CCCC=O)CC1	CC1(CCCC=O)CC1	
InChI=1S/C8H14O/c1-8(5-6-8)4-2-3-7-9/h7H,2-6H2,1H3	InChI=1S/C8H14O/c1-8(5-6-8)4-2-3-7-9/h7H,2-6H2,1H3
