17
gdb 83932	2.68001	1.42772	1.22987	2.7331	69.48	-0.2481	-0.0268	0.2213	1054.709	0.136326	-458.95751	-458.949656	-458.948712	-458.989917	29.854	
O	 0.0703086774	 1.3554883511	-0.1351577277	-0.425976
C	-0.0084759405	-0.0198196069	 0.0098457654	 0.099426
C	-0.4105329678	-0.708852138	 1.2674132139	-0.176538
C	-1.1547158127	 0.1318722889	 2.2894812215	-0.111834
O	-2.0904910547	 0.9107544116	 1.5389456427	-0.278251
C	-2.544355904	 0.1156065129	 0.4337844787	-0.167632
C	-1.3605663532	-0.7527256682	 0.0484507941	 0.160181
C	-1.5690304463	-1.9656252248	-0.7547901025	 0.069615
O	-2.6366282828	-2.3058917753	-1.2095155205	-0.270501
H	-0.6204783076	 1.7466376712	 0.4207016531	 0.304586
H	 0.7613500322	-0.5049159839	-0.5830225023	 0.119238
H	 0.1120677182	-1.5994019212	 1.5989812197	 0.107264
H	-1.6670327518	-0.5133115445	 3.0179749608	 0.114724
H	-0.5149913661	 0.833924119	 2.8334337129	 0.127563
H	-3.3995487956	-0.5138443172	 0.7117357308	 0.127492
H	-2.8609536499	 0.8080190869	-0.3507320894	 0.131667
H	-0.6481348347	-2.5675265116	-0.9344677814	 0.068978
97.1519	189.5928	197.5875	231.2221	262.8896	293.9217	427.4212	498.9894	550.1327	582.2452	676.9258	696.1935	761.5595	829.7562	866.1255	920.9001	967.8809	1006.0311	1022.0308	1061.6714	1083.9726	1091.1119	1105.4077	1142.0869	1204.5737	1218.8279	1251.3832	1293.0536	1325.611	1342.087	1367.5093	1415.1117	1437.1946	1472.5167	1509.6658	1522.0616	1798.0452	2860.6901	3002.3915	3029.1061	3080.8601	3097.6906	3160.6602	3175.9483	3712.5006
OC1C2COCC12C=O	O[C@H]1[C@H]2COC[C@@]12C=O	
InChI=1S/C6H8O3/c7-2-6-3-9-1-4(6)5(6)8/h2,4-5,8H,1,3H2	InChI=1S/C6H8O3/c7-2-6-3-9-1-4(6)5(6)8/h2,4-5,8H,1,3H2/t4-,5+,6-/m1/s1
