21
gdb 114512	2.51337	1.33259	1.04547	2.6157	77.97	-0.2422	0.0669	0.309	1224.7495	0.182699	-424.185412	-424.176516	-424.175572	-424.219306	33.849	
C	-1.058874479	 1.04011726	-0.1575118529	-0.422239
C	-0.0664263733	-0.1128758693	-0.0870070671	 0.042934
C	 1.3191952828	-0.0269015111	-0.8072505022	-0.271769
C	 1.9804578081	-0.6823050102	 0.4339454931	 0.13504
O	 2.6589660103	 0.2556452094	 1.2914922258	-0.327165
C	 1.4613425012	 0.4349161619	 2.1040931769	 0.124271
C	 1.1594606858	 1.9132109858	 2.2740698664	-0.083057
O	 2.2239351218	 2.5349661058	 2.9741113983	-0.423862
C	 0.6485188125	-0.5536779827	 1.225631732	-0.152565
H	-0.6078276985	 2.000832433	 0.1010494917	 0.123257
H	-1.4630979002	 1.131545273	-1.1718886376	 0.116951
H	-1.904544236	 0.8741390409	 0.5194428591	 0.116552
H	-0.5753925224	-1.0127623943	-0.4526691479	 0.082222
H	 1.3946160877	-0.5774544738	-1.7483387739	 0.100038
H	 1.6918861988	 0.9889855598	-0.9617858125	 0.107777
H	 2.5454123134	-1.6074147925	 0.2970098251	 0.078284
H	 1.6391204853	 0.016174016	 3.1045912289	 0.087037
H	 1.0050564753	 2.3905380869	 1.2977164828	 0.090202
H	 0.2534645546	 2.0560585242	 2.873319175	 0.10761
H	 3.0254067167	 2.3274594225	 2.4784920183	 0.293757
H	 0.185547595	-1.3694894254	 1.7808837807	 0.074724
61.827	105.6553	148.599	204.9451	222.2783	306.6442	368.4127	396.3641	439.9389	465.8265	571.2613	600.1766	736.8781	768.9861	849.0207	853.9076	875.1047	924.2391	948.5918	998.5859	1011.9787	1036.5196	1062.4458	1088.3254	1099.9945	1128.6518	1154.9046	1168.1681	1199.2744	1214.1817	1219.6944	1248.146	1273.7771	1306.7166	1323.4173	1340.2726	1353.3238	1381.9347	1403.9166	1413.1986	1433.0744	1473.8482	1491.1362	1494.641	1505.806	3002.9073	3019.1293	3024.6027	3033.8353	3058.9521	3077.3015	3077.8503	3089.8299	3106.0406	3116.4805	3123.7974	3790.248
CC1CC2OC(CO)C12	C[C@H]1C[C@H]2O[C@@H](CO)[C@@H]12	
InChI=1S/C7H12O2/c1-4-2-5-7(4)6(3-8)9-5/h4-8H,2-3H2,1H3	InChI=1S/C7H12O2/c1-4-2-5-7(4)6(3-8)9-5/h4-8H,2-3H2,1H3/t4-,5+,6-,7-/m0/s1
