21
gdb 60355	2.69154	0.82174	0.74763	3.3688	80.13	-0.2632	0.0284	0.2916	1643.0064	0.180474	-420.412055	-420.401031	-420.400087	-420.449552	38.659	
C	-0.2374869905	 0.9737951589	 1.2679243362	-0.388606
C	-0.1335715985	-0.0452742127	 0.1395357057	 0.157007
C	 0.8845205853	-1.1461925925	 0.446363162	-0.394113
O	-1.4483028122	-0.5764997103	-0.0389080135	-0.25769
C	-1.6788194013	-1.2236320859	-1.2610473341	-0.04376
C	-3.1456156542	-1.6752302163	-1.2799823571	-0.144678
N	-3.4632895279	-2.2534855364	-2.586242472	-0.503742
C	-3.4270727689	-2.5881000112	-0.1501829676	 0.267493
N	-3.6739943022	-3.354511361	 0.6794656228	-0.327929
H	 0.7295860087	 1.4536101103	 1.444043958	 0.114551
H	-0.9716878955	 1.7449390413	 1.020945411	 0.120759
H	-0.5545198983	 0.4819990243	 2.1928049582	 0.130516
H	 0.1624439377	 0.4718896674	-0.788699698	 0.066978
H	 0.9684941527	-1.8673513846	-0.3717044246	 0.11594
H	 1.8765528312	-0.7114750353	 0.603953647	 0.117577
H	 0.593532044	-1.6867114691	 1.3523910987	 0.132782
H	-1.5232485857	-0.5509149147	-2.1178075426	 0.108549
H	-1.0276827727	-2.1011580028	-1.3992337685	 0.096296
H	-3.7622453914	-0.7806833776	-1.1414110075	 0.140825
H	-2.9902239786	-3.1470573642	-2.6917390224	 0.243121
H	-4.4573571717	-2.4513075774	-2.6441987218	 0.248123
23.2182	53.9369	110.1212	139.5676	194.4522	209.0841	235.9642	246.5369	271.5393	306.366	325.7388	417.7131	440.1768	507.8343	591.5287	604.2476	796.7703	839.0947	893.5695	928.3972	934.8884	946.9601	1008.1982	1070.8744	1131.8211	1142.6408	1156.1018	1166.5065	1199.7037	1211.6672	1253.9648	1340.9604	1362.8406	1369.9609	1387.8777	1399.5304	1415.5059	1428.9517	1480.6671	1484.9165	1495.7503	1508.6867	1523.0844	1666.191	2348.0545	2960.7351	2977.5641	3016.8513	3039.4084	3045.0178	3066.4097	3109.3815	3114.7818	3120.6861	3124.1761	3496.5482	3574.9898
CC(C)OCC(N)C#N	CC(C)OC[C@@H](N)C#N	
InChI=1S/C6H12N2O/c1-5(2)9-4-6(8)3-7/h5-6H,4,8H2,1-2H3	InChI=1S/C6H12N2O/c1-5(2)9-4-6(8)3-7/h5-6H,4,8H2,1-2H3/t6-/m0/s1
