18
gdb 60320	3.65209	0.76223	0.65081	3.5046	78.02	-0.2537	-0.0212	0.2325	1686.0122	0.144804	-439.079709	-439.069403	-439.068459	-439.116073	36.636	
C	 0.011123103	 1.4849053325	-0.0184983318	-0.40898
C	-0.1340619758	-0.0331178108	-0.0236119653	 0.120388
O	 0.8354888832	-0.6651733395	 0.8166505226	-0.434456
C	-1.5449090264	-0.4828976683	 0.372158131	-0.165336
N	-1.612794564	-1.9284405695	 0.4155229918	-0.322764
C	-2.6721630143	-2.6345106048	-0.0651202982	 0.291415
O	-3.6780061183	-2.1291735122	-0.5329560132	-0.366501
C	-2.4959594556	-4.0798496645	 0.0309679759	 0.215479
C	-2.3852933935	-5.2752096784	 0.0964411423	-0.404098
H	 1.0329178634	 1.7678394471	-0.2837633601	 0.131952
H	-0.6756137318	 1.9484683411	-0.7334485462	 0.130265
H	-0.2138963739	 1.896127825	 0.9737055916	 0.112609
H	 0.0830502526	-0.4225420782	-1.024866093	 0.103794
H	 0.7988804975	-0.2371730159	 1.6801312562	 0.28179
H	-1.8024073499	-0.0511607641	 1.3525255706	 0.098639
H	-2.2933426977	-0.1336422426	-0.3432772262	 0.146725
H	-0.7988584307	-2.4140072337	 0.7610663804	 0.261212
H	-2.2990117678	-6.3331241532	 0.1478084515	 0.207868
36.8329	66.674	79.6986	163.7673	221.8947	234.2337	252.8212	300.7938	345.2687	351.2592	457.9955	481.0188	566.1185	573.0065	608.0842	655.6348	674.525	767.5712	829.7738	894.3945	932.8246	969.0588	1070.1253	1088.1804	1132.2834	1162.8616	1224.345	1243.2687	1320.3506	1323.9114	1399.9303	1406.3353	1423.7848	1488.6337	1494.8975	1501.6509	1525.0891	1754.0161	2226.9672	2978.9931	3027.7368	3053.5416	3098.1411	3111.3101	3125.0327	3497.3387	3628.2126	3791.2183
CC(O)CNC(=O)C#C	C[C@@H](O)CNC(=O)C#C	
InChI=1S/C6H9NO2/c1-3-6(9)7-4-5(2)8/h1,5,8H,4H2,2H3,(H,7,9)	InChI=1S/C6H9NO2/c1-3-6(9)7-4-5(2)8/h1,5,8H,4H2,2H3,(H,7,9)/t5-/m1/s1
