22
gdb 98686	3.40615	0.95552	0.87966	3.0582	84.59	-0.2394	0.0163	0.2557	1467.5811	0.191123	-404.370021	-404.359329	-404.358385	-404.406181	38.498	
C	-0.440657147	 1.3810407792	-0.182731229	-0.370256
C	-0.0656235319	-0.0984677575	-0.1341440673	-0.286074
C	 0.7123981085	-0.5492438134	-1.365098062	 0.385582
O	 0.8456846804	 0.1350632394	-2.3586011544	-0.354968
N	 1.3380451607	-1.7814161684	-1.2316773931	-0.10482
C	 0.7527735459	-3.0527589742	-0.8575645432	-0.299088
C	 1.3956413831	-2.8507269719	-2.2097696097	 0.316101
C	 0.4974707542	-2.7678965447	-3.428699467	-0.442184
C	 2.7762867494	-3.4230530251	-2.4622489082	-0.445133
H	 0.4533032064	 2.009967204	-0.2066568919	 0.129027
H	-1.0180362619	 1.6044009503	-1.0825818988	 0.134182
H	-1.0340729088	 1.6578190013	 0.6933788722	 0.105612
H	 0.5254197924	-0.3367216367	 0.7576478642	 0.122881
H	-0.9680620506	-0.7214731719	-0.0617616381	 0.116734
H	 1.2720381226	-3.6112951369	-0.0817982492	 0.117841
H	-0.3327048403	-3.126321786	-0.8219127037	 0.119002
H	-0.5073564371	-2.426481094	-3.1674691283	 0.118523
H	 0.9054244547	-2.0633423602	-4.1583598517	 0.147478
H	 0.4154785863	-3.7519872651	-3.9016190516	 0.1153
H	 2.70597615	-4.4502986506	-2.8357040811	 0.117907
H	 3.3061477573	-2.8264094864	-3.2121697114	 0.132455
H	 3.3721162658	-3.4236132812	-1.5462759369	 0.123898
41.2655	77.8018	121.5853	141.8184	191.5035	199.4078	221.0959	261.322	310.0243	358.3866	384.3578	407.7316	494.793	563.255	603.4502	722.6397	757.771	813.461	878.9359	914.143	964.3559	995.4251	1006.5474	1025.8204	1069.3349	1094.4223	1109.7403	1113.7242	1131.9324	1153.9172	1263.6337	1279.8099	1287.8329	1364.5903	1410.0225	1413.5468	1417.1085	1432.2626	1459.7225	1475.6524	1484.875	1491.0308	1494.1418	1499.9702	1503.7966	1516.86	1775.898	3019.5542	3035.0947	3043.3027	3050.7741	3064.5938	3090.2349	3101.0773	3113.1785	3119.6592	3122.5083	3124.7132	3132.4166	3175.6503
CCC(=O)N1CC1(C)C	CCC(=O)N1CC1(C)C	
InChI=1S/C7H13NO/c1-4-6(9)8-5-7(8,2)3/h4-5H2,1-3H3	InChI=1S/C7H13NO/c1-4-6(9)8-5-7(8,2)3/h4-5H2,1-3H3
