18
gdb 51011	2.29357	1.3416	0.97255	3.6212	73.67	-0.2463	-0.0074	0.2389	1233.2531	0.146591	-439.052486	-439.043713	-439.042769	-439.086528	32.111	
O	 0.2772959563	-0.0034543325	 0.3597058578	-0.270954
C	 0.0943249904	 1.1673050646	 0.2054825131	 0.153307
O	 1.0965015902	 2.0597069888	 0.3006617903	-0.24463
C	 0.9086820625	 3.4600553289	 0.1157633332	 0.414914
C	-0.0354683684	 3.98944111	-0.9289764465	-0.323847
C	-0.3502526027	 4.1594891332	 0.5471197789	-0.322715
C	 2.2252063492	 4.1485781695	 0.3198483612	-0.03411
C	 3.2297089175	 3.6345555966	 1.2813336194	-0.247122
N	 3.4728133969	 3.5563360511	-0.1732213369	-0.329149
H	-0.8880981265	 1.6109224415	-0.0221411918	 0.089299
H	 0.2824172608	 4.855008282	-1.4999745515	 0.135747
H	-0.6312159727	 3.2819066543	-1.4951016834	 0.129579
H	-1.156642451	 3.568750237	 0.9669376593	 0.130037
H	-0.2477005344	 5.1425086891	 0.9941816127	 0.13301
H	 2.155292625	 5.2233506475	 0.1630282488	 0.092481
H	 3.8681369022	 4.3310393314	 1.8171103409	 0.118594
H	 2.996328097	 2.7167563838	 1.8111489132	 0.131028
H	 3.2871406875	 2.6042170834	-0.4820510489	 0.244531
85.7548	91.912	128.0972	146.2009	244.3083	255.6584	353.4469	391.3347	493.9032	527.8155	551.7623	743.7805	781.0002	848.7973	863.8232	900.2813	934.1753	957.5923	976.8818	994.753	1021.4017	1036.8287	1060.598	1077.1881	1110.2016	1148.2665	1176.6978	1184.3977	1197.8845	1260.8295	1290.2509	1299.0113	1314.4363	1433.2818	1446.6164	1466.2777	1500.7219	1511.366	1855.3407	3009.3536	3118.818	3125.1627	3137.2814	3138.528	3211.0782	3216.1248	3227.9566	3499.0105
O=COC1(CC1)C1CN1	O=COC1(CC1)[C@H]1CN1	
InChI=1S/C6H9NO2/c8-4-9-6(1-2-6)5-3-7-5/h4-5,7H,1-3H2	InChI=1S/C6H9NO2/c8-4-9-6(1-2-6)5-3-7-5/h4-5,7H,1-3H2/t5-/m1/s1
