21
gdb 41260	3.26641	1.81748	1.44129	0.1044	85.54	-0.2463	0.0934	0.3397	972.567	0.18573	-349.89853	-349.891875	-349.890931	-349.929021	29.015	
C	-0.030624092	 1.463316801	 0.2006833695	-0.250044
C	 1.4694259783	 1.6255531327	-0.2117464042	-0.340777
C	 1.3936365817	 0.2187012903	-0.7990358442	 0.389731
C	 2.3663314146	-0.9217738994	-1.1171252419	-0.343204
C	 1.3171108099	-1.4789109444	-2.1238715318	-0.029814
C	 0.0496298317	-2.1192628823	-1.4855003167	-0.232005
C	-0.5687768259	-0.7159551811	-1.2216534875	-0.05173
C	 0.0877504563	-0.0840226287	 0.0101462708	-0.033266
C	 0.5762532094	-0.0959929841	-2.1073193216	-0.090089
H	-0.2962271548	 1.8010974285	 1.2042679415	 0.097768
H	-0.7201190398	 1.9254240891	-0.5115058837	 0.10192
H	 1.7370618955	 2.4497157124	-0.8805901059	 0.09074
H	 2.1201343356	 1.6678651218	 0.6691575333	 0.098373
H	 3.2533131494	-0.5678563715	-1.6562985085	 0.095272
H	 2.6919925787	-1.5624673738	-0.2899351585	 0.087503
H	 1.6993710694	-1.9532933577	-3.0280146807	 0.062603
H	-0.5217348287	-2.6613368444	-2.2449013242	 0.097466
H	 0.1877793518	-2.7784634888	-0.6208926693	 0.086666
H	-1.6412502578	-0.590132266	-1.3888128605	 0.054909
H	 0.1086890373	-0.6538277244	 0.9444239496	 0.052981
H	 0.4698007994	 0.5760876209	-2.9569659456	 0.054994
199.2259	249.3291	316.3746	337.6019	393.0939	504.3205	590.5645	666.1027	723.569	758.8323	813.642	826.1322	857.6076	866.496	871.5842	904.6928	915.3443	932.9802	963.3352	976.5371	1003.5082	1031.2767	1063.3311	1095.909	1110.4071	1113.6106	1140.9424	1164.9794	1177.6421	1196.7357	1209.9598	1214.6356	1233.8442	1239.6687	1251.8306	1271.6832	1274.0276	1295.6363	1304.0586	1335.4566	1337.3205	1476.1683	1477.5443	1486.3895	1493.378	3023.2193	3032.7094	3033.3649	3053.2852	3060.6686	3070.7087	3072.3258	3081.6194	3086.6439	3099.4049	3117.4658	3127.482
C1CC23CC4CC(C12)C34	C1C[C@@]23C[C@H]4C[C@@H]([C@H]12)[C@@H]34	
InChI=1S/C9H12/c1-2-9-4-5-3-6(7(1)9)8(5)9/h5-8H,1-4H2	InChI=1S/C9H12/c1-2-9-4-5-3-6(7(1)9)8(5)9/h5-8H,1-4H2/t5-,6+,7+,8+,9-/m1/s1
