18
gdb 112303	2.96527	1.33364	1.02783	5.0758	71.74	-0.2735	0.0153	0.2888	1182.9558	0.148328	-439.10938	-439.10126	-439.100315	-439.142438	30.362	
C	-0.0315415127	 1.5958941008	-0.0237324028	-0.386193
C	 0.0345298018	 0.0706511844	 0.0937066509	-0.193552
C	-1.3336178194	-0.5944257615	-0.0006973203	 0.106293
O	-1.9355944674	-0.3332640222	-1.2830915558	-0.243945
C	-2.4804021017	-1.465936782	-1.8211691394	 0.44668
O	-3.0888119311	-1.4705862935	-2.8444012696	-0.336917
N	-2.2206359727	-2.6076695693	-0.9894483722	-0.174627
C	-0.7621794509	-2.9137637322	-0.9825436342	-0.259251
C	-1.367884674	-2.1136533595	 0.1033504549	-0.053295
H	 0.9668896401	 2.0359762291	 0.0487936352	 0.11883
H	-0.4677266502	 1.8920500531	-0.9812105456	 0.144748
H	-0.6463718257	 2.0273721387	 0.7736632228	 0.118557
H	 0.6850463484	-0.3423623598	-0.6852803898	 0.107458
H	 0.4749129096	-0.2173022947	 1.0568459035	 0.107155
H	-1.9993170021	-0.170142201	 0.7630490095	 0.099478
H	-0.5333161236	-3.9613446149	-0.819775531	 0.14
H	-0.1442573335	-2.4158710556	-1.7241461784	 0.143406
H	-1.5329685249	-2.5552082099	 1.0802710524	 0.115177
93.3926	108.8041	153.1757	213.4953	247.4387	322.9441	404.0603	475.0997	524.7941	677.4989	693.155	765.1449	797.0619	814.5409	848.3397	870.7366	936.4167	986.9952	997.9008	1028.409	1071.5468	1086.9997	1106.0401	1122.0186	1135.9695	1167.4741	1172.5066	1271.3721	1293.1827	1324.6481	1372.8914	1396.3252	1407.8785	1414.577	1474.5463	1498.5183	1507.2872	1509.0472	1905.1555	3016.5743	3031.1165	3040.9609	3072.9497	3109.0581	3124.9827	3126.7628	3170.9276	3217.7717
CCC1OC(=O)N2CC12	CC[C@H]1OC(=O)N2C[C@@H]12	
InChI=1S/C6H9NO2/c1-2-5-4-3-7(4)6(8)9-5/h4-5H,2-3H2,1H3	InChI=1S/C6H9NO2/c1-2-5-4-3-7(4)6(8)9-5/h4-5H,2-3H2,1H3/t4-,5+,7?/m0/s1
