16
gdb 36463	2.88614	1.09756	0.85418	5.2038	75.2	-0.2721	0.012	0.2841	1302.4821	0.122937	-400.706387	-400.697506	-400.696562	-400.741184	31.44	
C	-0.1922685098	-1.2463500855	-0.1777059052	-0.459135
C	-0.1335363434	-0.049563854	-0.0751004322	 0.335617
C	-0.0504103305	 1.3882828231	 0.0616853507	-0.269005
C	 0.0396821496	 1.9812217025	 1.4966297556	-0.075718
O	 1.2805167859	 2.6464974333	 1.1923624452	-0.275142
C	 1.3365719182	 2.0868201687	-0.1281925557	 0.138195
C	 2.5460311796	 1.1690512727	-0.3287699902	-0.364064
C	 3.8032269605	 1.9119984307	-0.3080011867	 0.268092
N	 4.7941699525	 2.5057425581	-0.3036396349	-0.299549
H	-0.2540318325	-2.3027887928	-0.27107909	 0.209334
H	-0.8251471893	 1.8701500804	-0.539762991	 0.123681
H	-0.7532157356	 2.6880571858	 1.7618081601	 0.119059
H	 0.1513274741	 1.2373003158	 2.2924128806	 0.120766
H	 1.3361923543	 2.8719056291	-0.8930269746	 0.10528
H	 2.5621271194	 0.4014627363	 0.4509205133	 0.162918
H	 2.4516006069	 0.6506549358	-1.2899555549	 0.159671
51.7901	66.163	98.244	159.2027	210.9412	312.5076	379.4792	394.5417	495.6009	532.6274	562.2166	634.3205	657.5028	744.6277	832.7795	887.0036	903.6876	958.7723	1007.4655	1039.619	1056.981	1090.6812	1127.69	1163.6774	1202.9725	1233.2406	1266.9759	1313.7347	1347.2001	1364.4809	1396.0917	1446.2267	1525.7617	2235.1692	2366.1942	3034.5836	3041.303	3052.6799	3074.6483	3091.6142	3101.4008	3500.5002
C#CC1COC1CC#N	C#C[C@H]1CO[C@H]1CC#N	
InChI=1S/C7H7NO/c1-2-6-5-9-7(6)3-4-8/h1,6-7H,3,5H2	InChI=1S/C7H7NO/c1-2-6-5-9-7(6)3-4-8/h1,6-7H,3,5H2/t6-,7-/m0/s1
