16
gdb 23186	2.57197	1.36423	0.98626	1.3162	81.62	-0.2285	0.0085	0.237	1184.3361	0.122358	-400.642556	-400.634138	-400.633194	-400.675459	32.296	
O	-0.1685044947	 1.3358080766	-0.0587416914	-0.392035
N	 0.0097482384	-0.0570631496	 0.0476593132	-0.257402
C	-1.0996676705	-0.6587808124	-0.0435902648	 0.366228
C	-2.5668809192	-0.2475265058	-0.0919073528	-0.327665
C	-2.9259343954	-1.7358549147	 0.0605005567	-0.107811
C	-2.3347118146	-2.5231429741	-1.053739097	-0.313733
C	-1.4048763494	-2.1173027878	 0.0932943841	 0.126535
C	-0.7048482412	-3.0712749701	 0.8811884754	 0.186405
C	-0.1134734592	-3.8777306576	 1.5500588905	-0.416017
H	 0.7314544997	 1.6612836272	 0.0491117146	 0.308514
H	-2.8261674777	 0.3665975645	 0.7747836593	 0.137315
H	-2.9232096102	 0.2504803155	-0.9984850529	 0.123293
H	-3.6918873247	-2.1312358949	 0.7138059729	 0.116199
H	-2.5638296634	-3.5831204671	-1.0661287148	 0.137048
H	-2.1941292333	-2.0765793459	-2.0345299198	 0.124428
H	 0.4143324755	-4.5832505038	 2.1422266267	 0.188696
98.5564	135.6563	156.9253	224.1781	312.0607	381.787	408.29	425.4541	480.0793	520.4143	567.9826	577.1586	634.3217	658.5746	744.0063	793.2829	838.5265	872.1352	936.2726	975.6586	1008.8035	1024.5989	1046.0201	1085.141	1105.4604	1142.0611	1220.77	1252.0001	1290.7479	1358.9751	1415.9817	1467.7697	1491.7624	1785.235	2237.3291	3057.404	3107.6832	3118.1634	3209.4048	3219.3312	3503.3352	3819.837
ON=C1CC2CC12C#C	ON=C1C[C@H]2C[C@@]12C#C	
InChI=1S/C7H7NO/c1-2-7-4-5(7)3-6(7)8-9/h1,5,9H,3-4H2	InChI=1S/C7H7NO/c1-2-7-4-5(7)3-6(7)8-9/h1,5,9H,3-4H2/t5-,7+/m0/s1
