23
gdb 122200	3.45836	0.77913	0.73813	1.0897	82.95	-0.2424	0.0771	0.3195	1677.6704	0.203678	-425.403413	-425.392901	-425.391957	-425.439864	37.474	
C	 0.0768026977	 1.3853378359	-0.1413198803	-0.2272
O	-0.0787472826	-0.0038589798	 0.0082925865	-0.231773
C	 0.6403828225	-0.5192553564	 1.1104144435	-0.062118
C	 0.4103860493	-2.0257217897	 1.1578047893	-0.243669
C	 1.276732884	-2.7545721146	 2.1874032749	 0.429745
C	 0.9931561005	-2.3432329258	 3.6267074754	-0.437743
C	 1.3953808064	-4.2838442162	 1.9453872744	-0.336421
C	 2.8601769156	-3.9785031847	 1.5824693981	-0.063374
O	 2.6951852331	-2.5779722517	 1.877155074	-0.322901
H	 1.130309742	 1.6654098572	-0.3022660399	 0.103289
H	-0.5060835978	 1.6894902908	-1.0145019106	 0.123683
H	-0.2904219385	 1.9371761784	 0.739396776	 0.099862
H	 1.7174472868	-0.3143793867	 1.0036131588	 0.106939
H	 0.3026256405	-0.0321194432	 2.0403551655	 0.080826
H	-0.6482335731	-2.232823576	 1.3574174937	 0.10053
H	 0.6328751391	-2.4247616362	 0.1620732055	 0.105042
H	-0.0584041751	-2.517679504	 3.8801250735	 0.115267
H	 1.6161454455	-2.9190597014	 4.3168520969	 0.11598
H	 1.2123056854	-1.2830406788	 3.7833912645	 0.127663
H	 1.2568109676	-4.897109043	 2.8376996309	 0.105849
H	 0.7755316024	-4.6785731555	 1.1385081507	 0.108255
H	 3.621439023	-4.443698033	 2.2202109522	 0.100876
H	 3.1319305158	-4.1480920355	 0.5330919466	 0.101393
53.5672	74.5218	89.23	129.4771	132.9069	220.8763	238.2273	283.0295	307.5746	347.8587	374.1762	477.5232	490.517	699.3331	786.2402	796.0745	862.3083	889.8536	934.6855	967.9182	986.1172	999.756	1015.7477	1039.3094	1070.8744	1156.5867	1161.983	1164.0314	1181.5561	1202.6586	1209.5072	1235.1569	1240.7443	1266.878	1287.0009	1321.619	1337.5765	1357.17	1408.1828	1425.5387	1475.5688	1480.8546	1485.4093	1487.5612	1489.7522	1499.5639	1505.6179	1532.7851	1536.0818	2957.3628	2969.6178	2999.3264	3007.401	3014.3974	3031.3112	3037.367	3051.6287	3076.2122	3079.37	3107.4703	3109.65	3115.2884	3130.9391
COCCC1(C)CCO1	COCC[C@@]1(C)CCO1	
InChI=1S/C7H14O2/c1-7(3-5-8-2)4-6-9-7/h3-6H2,1-2H3	InChI=1S/C7H14O2/c1-7(3-5-8-2)4-6-9-7/h3-6H2,1-2H3/t7-/m0/s1
