19
gdb 72999	2.41377	1.58155	1.27372	1.595	77.42	-0.2401	-0.027	0.2131	1073.3111	0.156798	-423.00404	-422.994997	-422.994053	-423.037236	33.916	
C	-0.0628397432	 1.4793536309	 0.1679834979	-0.502649
C	-0.0143899176	-0.0121109579	 0.1819934925	 0.440329
O	-0.7124806642	-0.6973280587	-0.8577418592	-0.311209
C	-1.1107407839	-1.736160918	 0.0832891762	-0.124617
C	-0.2744001672	-1.0978277191	 1.1790867698	-0.204343
C	 1.1614590634	-0.9071488147	 0.6719064873	 0.149756
C	 1.852371822	-1.8719043465	-0.2694306467	-0.500055
C	 2.0336271569	-0.2427081978	 1.6728797581	 0.08738
O	 1.649149826	 0.3811781736	 2.6380153298	-0.281619
H	 0.4014627542	 1.8639511234	-0.7467384175	 0.131705
H	-1.1021651854	 1.8212443009	 0.1889439862	 0.131788
H	 0.4593740169	 1.8898427485	 1.0328788378	 0.160026
H	-2.1877540257	-1.6789004329	 0.2714855975	 0.121912
H	-0.8444818267	-2.7405108878	-0.2622127594	 0.112975
H	-0.4941403167	-1.0338129357	 2.2359430514	 0.123023
H	 1.2743553144	-1.9974944031	-1.1871251204	 0.147312
H	 2.8388354322	-1.487464484	-0.550423031	 0.121269
H	 1.9985267093	-2.8564455397	 0.1882696276	 0.122725
H	 3.1222586355	-0.3506433814	 1.4660227218	 0.074293
124.6004	168.9448	179.9486	198.2902	215.4485	249.6224	287.8751	305.3518	353.0886	434.5881	504.5413	614.267	663.2007	682.2506	732.3337	901.5501	913.9257	957.1335	976.095	976.8011	988.7925	1019.8903	1067.4744	1106.382	1112.9588	1155.9834	1169.2156	1204.5529	1229.7033	1275.0869	1332.6173	1391.1637	1408.488	1429.0932	1449.3732	1482.4163	1491.5722	1497.2764	1503.6518	1518.8897	1785.7373	2877.0607	3032.8655	3039.0781	3041.4497	3089.0916	3090.8461	3101.7026	3127.7171	3152.7016	3213.5134
CC12OCC1C2(C)C=O	C[C@]12OC[C@H]1[C@]2(C)C=O	
InChI=1S/C7H10O2/c1-6(4-8)5-3-9-7(5,6)2/h4-5H,3H2,1-2H3	InChI=1S/C7H10O2/c1-6(4-8)5-3-9-7(5,6)2/h4-5H,3H2,1-2H3/t5-,6-,7-/m0/s1
