23
gdb 119950	1.91198	1.03694	0.79051	3.4128	87.92	-0.2405	-0.0158	0.2246	1585.2665	0.203773	-388.298857	-388.288219	-388.287275	-388.335211	38.285	
C	 0.3013849136	 1.4213320527	-3.0411202687	-0.382484
C	 0.380785215	 0.1090526421	-2.2573256527	-0.160273
C	 0.9548974001	-1.0489466574	-3.0859848898	-0.204356
C	 0.9894311549	-2.3617663152	-2.3259187013	-0.031128
C	 1.9439462218	-3.4769657372	-2.6115660638	-0.05079
C	 2.99262774	-3.4351338111	-3.7048617615	-0.413146
C	 2.0767940777	-2.702059581	-1.2923245716	-0.127402
C	 3.2125107036	-1.7941185971	-1.0348580686	 0.162464
O	 3.7128351641	-1.6370607409	 0.0550215544	-0.278816
H	 1.2928623053	 1.7400480367	-3.3818459061	 0.115507
H	-0.3343686957	 1.3173717455	-3.9275596275	 0.113806
H	-0.1126882426	 2.2267997645	-2.4271411557	 0.115881
H	 0.995722489	 0.2506055685	-1.3597255676	 0.110235
H	-0.6189826809	-0.1671517748	-1.897518783	 0.097018
H	 0.3393478757	-1.1887238388	-3.985421977	 0.09971
H	 1.9499936117	-0.7716118081	-3.4492408403	 0.097882
H	 0.0010781956	-2.6783130002	-1.9990633036	 0.095831
H	 1.5362672334	-4.4736995387	-2.4617429728	 0.098406
H	 3.3862754034	-2.4334071715	-3.8871585581	 0.123886
H	 3.8399157232	-4.0819983552	-3.4550063407	 0.128388
H	 2.5666462857	-3.7951744238	-4.6476200052	 0.124097
H	 1.7501297592	-3.2133133853	-0.3926879345	 0.101635
H	 3.6042842262	-1.2399348138	-1.9154749042	 0.063652
53.532	84.886	103.2533	116.9294	185.7084	215.2966	231.2055	253.2439	266.5653	341.4627	412.6957	451.0579	522.2155	545.7185	713.1789	751.7516	828.8922	883.6027	897.2057	910.4834	959.1932	969.9488	1024.6043	1050.5507	1054.9536	1076.845	1103.0223	1128.8581	1153.6014	1188.2721	1194.5216	1255.3297	1270.5527	1305.4585	1329.1522	1341.4396	1380.2692	1401.6986	1413.6267	1421.6972	1436.2087	1456.6944	1484.3928	1493.1698	1496.359	1500.1362	1506.8827	1512.2765	1802.2369	2885.6055	3013.9107	3021.8421	3030.1576	3039.5064	3049.3616	3072.3473	3095.914	3096.4826	3104.7242	3120.2384	3125.5626	3140.7701	3168.8214
CCCC1C(C)C1C=O	CCC[C@H]1[C@@H](C)[C@H]1C=O	
InChI=1S/C8H14O/c1-3-4-7-6(2)8(7)5-9/h5-8H,3-4H2,1-2H3	InChI=1S/C8H14O/c1-3-4-7-6(2)8(7)5-9/h5-8H,3-4H2,1-2H3/t6-,7+,8-/m1/s1
