15
gdb 23441	4.11571	1.19698	1.04758	1.7938	69.31	-0.2519	-0.0117	0.2402	1105.946	0.113417	-453.896946	-453.889667	-453.888723	-453.929129	27.557	
O	-0.1646466115	 1.3042185978	-0.160120354	-0.388679
N	-0.0435964309	-0.0923387495	-0.214048725	-0.224864
C	-1.153414654	-0.6529323252	 0.0166022324	 0.431013
C	-2.551508447	-0.1988923222	 0.4103085424	-0.351688
C	-2.9169973959	-1.6923881082	 0.6265177667	 0.077062
O	-3.8239063216	-2.2292440994	-0.3546293634	-0.224756
C	-3.0300974845	-2.777127478	-1.3125402899	 0.11752
N	-1.7685806408	-2.789008563	-1.1770517338	-0.253512
C	-1.4971688007	-2.1302725397	 0.1132039482	-0.120568
H	 0.7349895913	 1.5947159638	-0.3466151362	 0.311098
H	-2.5872859632	 0.4327398402	 1.3023793885	 0.136037
H	-3.1266081627	 0.2871348743	-0.3830369984	 0.139633
H	-3.2633456135	-1.9832447928	 1.6171509725	 0.102921
H	-3.5726301635	-3.1899717577	-2.1557219081	 0.147862
H	-0.8442760516	-2.7469500203	 0.7346358581	 0.100921
66.2062	165.9724	197.6174	338.1995	359.9423	407.0885	467.1648	498.1091	603.3079	694.528	759.5448	798.9421	845.8439	880.0315	926.8214	965.0627	970.9188	980.3453	1025.0016	1048.7658	1103.2655	1125.2466	1162.3083	1198.3231	1250.638	1255.5501	1277.8584	1316.3984	1355.7693	1406.4337	1447.532	1684.1989	1780.3628	3061.346	3088.9538	3109.8577	3128.9815	3219.142	3812.9041
ON=C1CC2OC=NC12	ON=C1C[C@H]2OC=N[C@@H]12	
InChI=1S/C5H6N2O2/c8-7-3-1-4-5(3)6-2-9-4/h2,4-5,8H,1H2	InChI=1S/C5H6N2O2/c8-7-3-1-4-5(3)6-2-9-4/h2,4-5,8H,1H2/t4-,5+/m1/s1
