19
gdb 83343	2.13749	1.64896	1.5329	2.19	70.35	-0.2338	0.0536	0.2874	1013.4537	0.158895	-460.132708	-460.124182	-460.123238	-460.165134	33.496	
C	-0.1089828273	 1.6229226219	 0.0038152488	-0.44511
C	 0.0150875104	 0.1106830512	 0.0327961266	-0.04105
C	 1.1352114377	-0.6085971543	-0.7593045964	 0.024145
O	 2.3532973714	-0.0089665388	-0.274083221	-0.278338
C	 2.1351498394	 0.0093723847	 1.1573409417	-0.120199
C	 0.751983883	-0.6374004218	 1.2134773348	 0.338866
O	 0.2249695017	-0.817678942	 2.4797110665	-0.488253
C	 0.9780720164	-1.8145163948	 0.2131005704	 0.052404
O	-0.1928803332	-2.5952444114	 0.1270248084	-0.448333
H	 0.8697206805	 2.1078222279	-0.0350242948	 0.132875
H	-0.6747978098	 1.9513728067	-0.8744173726	 0.113812
H	-0.638338607	 1.9856763371	 0.8919269881	 0.121594
H	-0.9427526689	-0.3804173855	-0.1475217273	 0.087327
H	 1.1664465113	-0.6938305089	-1.8442702402	 0.076358
H	 2.9022125361	-0.5808648956	 1.6702678707	 0.106532
H	 2.1551621636	 1.0348037776	 1.541160099	 0.107709
H	-0.5253826167	-1.4175049672	 2.3916558464	 0.293119
H	 1.877512532	-2.4269476246	 0.3541956303	 0.07383
H	-0.0910360106	-3.226312052	-0.5917628194	 0.292711
160.0313	177.7713	210.7971	228.6862	270.8366	304.7739	339.8448	370.0745	396.0326	465.63	517.197	632.0824	647.6558	691.1472	769.588	825.3219	893.9452	929.1605	970.7263	992.4242	1024.3432	1057.1099	1073.9737	1109.1932	1139.2457	1144.6112	1164.3682	1191.7314	1205.37	1231.674	1263.7562	1272.6238	1299.4656	1354.5148	1373.9944	1402.4411	1419.105	1444.0273	1491.2236	1504.4107	1537.6917	3028.087	3033.8408	3037.6078	3077.8549	3092.3523	3099.0488	3122.5916	3137.4237	3793.5665	3825.7712
CC1C2OCC1(O)C2O	C[C@H]1[C@H]2OC[C@]1(O)[C@H]2O	
InChI=1S/C6H10O3/c1-3-4-5(7)6(3,8)2-9-4/h3-5,7-8H,2H2,1H3	InChI=1S/C6H10O3/c1-3-4-5(7)6(3,8)2-9-4/h3-5,7-8H,2H2,1H3/t3-,4+,5-,6+/m0/s1
