23
gdb 77870	2.29395	1.41579	1.23822	0.1924	91.74	-0.2142	0.0307	0.2449	1210.0615	0.205202	-351.173004	-351.163529	-351.162584	-351.206418	36.899	
C	-0.0841755622	 1.5801160868	 0.0410011934	-0.422288
C	 0.064349837	 0.0757271739	 0.0683696443	-0.041795
C	 1.3640312795	-0.671972259	-0.2283267149	-0.199261
C	 2.6442089323	 0.0897224524	-0.1076699945	 0.345472
C	 3.5373446222	 0.3277031633	-1.28521861	-0.498048
C	 2.8283478315	 0.5101373142	 1.1497661247	-0.18249
C	 1.7209304907	 0.0653215168	 2.077261074	-0.333014
C	 0.7490716249	-0.703809913	 1.1679549728	 0.329257
C	 0.0790839209	-1.9334955005	 1.7353966002	-0.483252
H	 0.8373635297	 2.0901940743	 0.3312420244	 0.124187
H	-0.3536949762	 1.9259824714	-0.9632539404	 0.111111
H	-0.8772808888	 1.9050695623	 0.7245484784	 0.111959
H	-0.8092861746	-0.4423732892	-0.3244683426	 0.07569
H	 1.316305946	-1.5260442944	-0.898797014	 0.0712
H	 3.0188152088	 0.8913664006	-2.0711273568	 0.126136
H	 4.4373448966	 0.8816408811	-1.0043220322	 0.120389
H	 3.8512168572	-0.6204353542	-1.7406021433	 0.122856
H	 3.6595826008	 1.1231117035	 1.4830474121	 0.08094
H	 2.1004636888	-0.5843885139	 2.878875532	 0.09896
H	 1.2357630821	 0.9125202883	 2.5819137192	 0.103605
H	-0.5930722515	-1.6755414081	 2.5632396142	 0.114147
H	-0.5186705967	-2.4476682696	 0.9757352177	 0.111148
H	 0.816498331	-2.647928457	 2.1204735613	 0.113093
125.1355	178.6507	183.5626	197.1161	214.2987	236.3549	263.5395	282.247	355.6062	427.5046	484.4264	548.9902	603.3123	641.5172	722.7094	767.6812	812.4313	868.8449	921.0848	933.3346	952.7955	974.2071	994.4038	1031.4775	1043.0004	1063.5254	1093.1272	1106.1409	1121.6171	1137.5176	1184.6976	1187.2962	1232.7437	1266.3534	1321.8954	1328.4763	1376.1823	1409.9284	1413.773	1417.585	1445.0843	1478.9766	1479.504	1489.5414	1490.5182	1497.15	1502.156	1503.5014	1706.6993	3000.1979	3016.1854	3016.7593	3023.432	3028.1721	3061.6458	3073.2617	3081.5243	3093.352	3106.4379	3108.5757	3122.4222	3140.5151	3182.5706
CC1C2C(C)=CCC12C	C[C@H]1[C@H]2C(=CC[C@@]12C)C	
InChI=1S/C9H14/c1-6-4-5-9(3)7(2)8(6)9/h4,7-8H,5H2,1-3H3	InChI=1S/C9H14/c1-6-4-5-9(3)7(2)8(6)9/h4,7-8H,5H2,1-3H3/t7-,8+,9-/m0/s1
