15
gdb 29992	3.27709	1.63317	1.13921	4.6943	73.68	-0.1976	-0.0248	0.1728	1006.8983	0.115559	-416.831631	-416.824616	-416.823672	-416.862982	27.442	
O	 0.1712020142	 1.4136110244	-0.2141309988	-0.416427
C	 0.0054080955	 0.0170751806	-0.0422213579	-0.04027
C	 0.6190878625	-0.5459789333	 1.2536414231	-0.125683
C	-0.2567678071	-1.3110865278	 1.9346398014	-0.208228
C	-1.5088083757	-1.2932688969	 1.1846602231	 0.307707
C	-1.4056102442	-0.5142914361	 0.06207078	 0.211242
N	-2.57128471	-0.4955245215	-0.6506781779	-0.336371
C	-3.3866359099	-1.2619304058	 0.0493553099	-0.021854
N	-2.7880375483	-1.7800033858	 1.1801595376	-0.386581
H	-0.3959486015	 1.84926766	 0.4314669185	 0.285866
H	 0.5227450147	-0.438992592	-0.8977385078	 0.11836
H	 1.6386465147	-0.3243852933	 1.539878364	 0.108738
H	-0.0715762565	-1.8338055344	 2.8642243705	 0.106784
H	-4.4151550667	-1.4803206881	-0.1957292696	 0.129345
H	-3.2210809616	-2.3942401599	 1.8491015139	 0.267372
136.7184	158.4507	270.1597	314.1798	362.8287	494.6394	514.9955	558.9661	642.1658	661.478	702.0544	709.9832	763.6937	786.0952	854.4278	931.7369	956.4926	969.6721	1059.5352	1077.4638	1090.4336	1165.0246	1207.9452	1245.1902	1259.8903	1325.3889	1372.6738	1375.7724	1414.4161	1462.5752	1508.1409	1567.7128	1608.6607	3025.1692	3207.7764	3234.1152	3254.4572	3666.0654	3807.4214
OC1C=CC2=C1N=CN2	O[C@H]1C=Cc2c1nc[nH]2	
InChI=1S/C6H6N2O/c9-5-2-1-4-6(5)8-3-7-4/h1-3,5,9H,(H,7,8)	InChI=1S/C6H6N2O/c9-5-2-1-4-6(5)8-3-7-4/h1-3,5,9H,(H,7,8)/t5-/m0/s1
