25
gdb 121856	3.73285	0.5294	0.47896	0.1309	99.74	-0.2387	0.0646	0.3033	2407.8868	0.226027	-352.350288	-352.338042	-352.337098	-352.390106	42.25	
C	 0.1059044222	 1.5601170039	 0.0876208959	-0.380102
C	 0.0332209963	 0.0313736073	 0.0478171065	-0.167109
C	-1.4018697862	-0.5025556977	-0.0337448316	-0.170632
C	-1.4655095425	-2.0332269971	-0.0736052532	-0.168992
C	-2.8983746198	-2.6207889019	-0.0497934812	-0.164487
C	-3.7205486259	-2.2450575651	-1.2999447419	-0.382041
C	-2.8500490365	-4.0750463094	 0.1135984917	 0.058325
C	-2.7934095947	-5.2730340036	 0.2273375352	 0.074653
C	-2.7319967595	-6.7208183037	 0.3749510408	-0.497623
H	 1.1412837824	 1.9103454119	 0.1458347923	 0.110635
H	-0.3447968872	 2.0016264469	-0.8083213231	 0.112783
H	-0.4297274148	 1.959483646	 0.9561979464	 0.112915
H	 0.6062350568	-0.3410706978	-0.8117195376	 0.095108
H	 0.5228391045	-0.383212204	 0.9389477868	 0.094985
H	-1.9733569289	-0.1359821026	 0.8311754375	 0.09019
H	-1.888400236	-0.0783215483	-0.9211876616	 0.096274
H	-0.948845584	-2.4061136882	-0.9676342611	 0.098909
H	-0.9174636945	-2.4377438805	 0.7856086833	 0.10116
H	-3.4117241813	-2.1981606526	 0.8269619862	 0.096241
H	-3.8424017945	-1.1615045799	-1.3827775593	 0.11391
H	-3.2262530128	-2.6076437695	-2.2070312128	 0.119929
H	-4.71506464	-2.696668436	-1.2559681406	 0.121376
H	-3.7344995612	-7.1596507861	 0.4329510037	 0.144661
H	-2.216998952	-7.1876522144	-0.4722598311	 0.144392
H	-2.1938729099	-7.0073010677	 1.2855783892	 0.14454
18.596	55.3138	65.4932	78.9714	125.8307	146.5598	167.6859	240.1594	248.2141	274.627	288.393	328.998	380.1857	406.7143	517.3058	552.3984	733.735	736.7626	789.4029	877.9955	905.1565	916.65	1014.5944	1016.3932	1028.4419	1053.7325	1054.3393	1067.0881	1099.4024	1133.0544	1159.6871	1202.9735	1244.3091	1271.8549	1309.3993	1331.1338	1333.146	1345.9857	1376.8241	1398.5958	1407.3082	1414.0866	1415.4845	1479.7387	1479.9978	1481.0355	1486.643	1494.7526	1498.4461	1499.7322	1502.5572	1513.4902	2368.3951	2989.3248	3003.456	3014.5418	3024.0726	3025.6167	3028.6582	3033.2055	3041.1471	3050.3059	3071.721	3083.2322	3083.4543	3095.0341	3100.4944	3112.9991	3119.3727
CCCCC(C)C#CC	CCCC[C@@H](C)C#CC	
InChI=1S/C9H16/c1-4-6-8-9(3)7-5-2/h9H,4,6,8H2,1-3H3	InChI=1S/C9H16/c1-4-6-8-9(3)7-5-2/h9H,4,6,8H2,1-3H3/t9-/m0/s1
