21
gdb 102354	1.71413	1.49279	1.08914	2.282	85.18	-0.2489	-0.0304	0.2185	1266.6395	0.178498	-387.072409	-387.061578	-387.060633	-387.107935	39.374	
C	-0.0108011323	 1.5679990298	 0.2033972245	-0.398058
C	-0.0456410769	 0.0487316312	 0.0221528115	-0.213489
C	 0.6238636702	-0.457307232	-1.290960268	-0.023936
C	 2.1344420585	-0.1221771705	-1.4019073473	-0.195364
C	 2.9851869429	-0.5099549631	-0.1875270841	-0.412587
C	 0.3837127755	-1.9797405692	-1.3585851094	 0.149808
O	 1.238301003	-2.810662032	-1.5049130172	-0.248901
C	-0.0956034778	 0.0756382728	-2.4516817288	 0.324612
C	-0.6961484499	 0.4679880704	-3.4174998099	-0.472375
H	 1.0133595205	 1.9431119356	 0.2872075162	 0.124468
H	-0.4876014579	 2.0737835309	-0.6410558607	 0.134177
H	-0.5438023995	 1.8528440836	 1.1152996525	 0.118533
H	 0.44704691	-0.4423453565	 0.8682604953	 0.112648
H	-1.0872751815	-0.2930547858	 0.0245329886	 0.107794
H	 2.5158501902	-0.6350242794	-2.2896773372	 0.12143
H	 2.2303627915	 0.9505300306	-1.5966954068	 0.107065
H	 2.6945503328	 0.0397758081	 0.713078494	 0.115222
H	 2.9160522121	-1.5795426979	 0.0217234895	 0.140647
H	 4.0358134758	-0.2762277918	-0.3850503752	 0.116397
H	-0.6897327317	-2.2586032192	-1.2674496737	 0.090326
H	-1.2173954756	 0.8283691145	-4.269996634	 0.201582
80.0514	110.1358	125.255	139.2323	166.5394	204.788	233.2567	261.9286	295.6978	306.1387	376.3321	423.0476	492.609	519.4138	607.0174	630.4644	645.4529	714.3536	769.9903	801.7908	907.0677	946.9281	974.264	1010.6949	1047.7044	1053.7196	1089.6963	1162.8518	1187.3587	1207.3678	1309.7834	1318.9321	1362.1116	1372.7703	1406.0669	1413.7386	1425.9249	1477.8856	1485.8018	1502.3372	1502.4475	1506.2502	1513.9855	1833.728	2221.8939	2885.2105	3035.132	3044.7496	3045.0532	3055.4581	3074.2729	3091.2243	3107.5584	3113.2199	3120.9677	3134.0864	3499.7864
CCC(CC)(C=O)C#C	CCC(CC)(C=O)C#C	
InChI=1S/C8H12O/c1-4-8(5-2,6-3)7-9/h1,7H,5-6H2,2-3H3	InChI=1S/C8H12O/c1-4-8(5-2,6-3)7-9/h1,7H,5-6H2,2-3H3
