19
gdb 91148	2.25105	1.9125	1.26666	3.4708	80.67	-0.2313	-0.0435	0.1878	1039.7406	0.160566	-385.919864	-385.911977	-385.911033	-385.952643	30.586	
C	-0.7353557083	 1.3104028946	-0.0154832295	-0.404418
C	-0.039694472	-0.0443500238	-0.033773175	 0.037698
C	 1.2375164192	-0.196500155	-0.9122861573	-0.254678
C	 2.0417117734	-0.6833202607	 0.3444783787	-0.065836
C	 3.0404924558	 0.2963713989	 0.8907537929	-0.062295
C	 2.5655367903	 1.0038375907	 1.9253260998	-0.182022
C	 1.1643916717	 0.6129576514	 2.2287193862	 0.386165
O	 0.445467865	 1.0836666823	 3.0819394971	-0.348068
C	 0.7878911224	-0.4851895687	 1.2324454417	-0.16349
H	-0.0290985667	 2.1241706566	 0.1777257166	 0.119547
H	-1.2132090506	 1.5072443843	-0.9815253832	 0.109924
H	-1.5043060299	 1.3503417497	 0.7617156874	 0.135086
H	-0.7701924524	-0.8214997316	-0.275536799	 0.081331
H	 1.1592773018	-0.935168678	-1.712675856	 0.10522
H	 1.6074641071	 0.7394699886	-1.3395736419	 0.101782
H	 2.4474198736	-1.6941475952	 0.255664448	 0.083547
H	 4.0251369856	 0.4205298196	 0.4497007306	 0.113681
H	 3.0814987138	 1.7788418363	 2.4781973449	 0.113881
H	 0.3811866203	-1.3503895	 1.758081348	 0.092944
47.0595	145.7969	216.9535	230.3982	336.0315	373.2079	383.178	502.2726	576.3436	692.5937	711.4771	737.7714	780.7675	839.7557	841.6932	886.4238	915.8859	918.4507	962.8068	1001.7462	1010.4171	1050.8443	1096.2021	1110.2395	1119.5348	1147.9959	1178.614	1218.3069	1228.0286	1241.2057	1264.997	1291.6847	1317.9466	1361.0692	1368.5245	1413.8518	1480.379	1491.6178	1497.1354	1635.7583	1802.2053	3032.9908	3055.435	3060.0721	3073.2588	3098.8741	3103.0124	3111.3446	3118.0703	3177.3887	3222.8517
CC1CC2C=CC(=O)C12	C[C@H]1C[C@H]2C=CC(=O)[C@@H]12	
InChI=1S/C8H10O/c1-5-4-6-2-3-7(9)8(5)6/h2-3,5-6,8H,4H2,1H3	InChI=1S/C8H10O/c1-5-4-6-2-3-7(9)8(5)6/h2-3,5-6,8H,4H2,1H3/t5-,6+,8-/m0/s1
