17
gdb 76186	2.19705	1.42926	1.17184	2.0797	67.52	-0.2462	-0.0349	0.2114	1115.2995	0.131764	-496.086187	-496.076537	-496.075593	-496.120081	35.826	
C	-0.0610046959	 1.5843194984	 0.2186596925	-0.436382
C	-0.0073119146	 0.0941430991	-0.0055559763	 0.24108
O	-1.1995248747	-0.5035410435	-0.4493910945	-0.455033
C	 1.260510636	-0.5857679926	-0.4598714333	-0.007957
O	 2.4578324385	 0.0971513814	-0.5620912241	-0.419787
C	 0.7352156546	-0.7850145301	 0.9879332429	 0.251052
O	 1.5161301846	-0.1541550108	 1.9512039933	-0.479501
C	 0.2462791973	-2.1103806157	 1.4075557858	 0.095987
O	 0.5913910781	-2.5780335629	 2.4747202927	-0.303675
H	 0.9033925803	 1.971014186	 0.5483667085	 0.14052
H	-0.3261347516	 2.0873365397	-0.7182567235	 0.116139
H	-0.8167045268	 1.8297470611	 0.9696328127	 0.134025
H	-1.3173674932	-0.2678806792	-1.3774464958	 0.288635
H	 1.1539531818	-1.4140329318	-1.1573915294	 0.110036
H	 2.7804196346	 0.2199483466	 0.3449057406	 0.303739
H	 1.6159084698	-0.826163651	 2.6493063289	 0.303517
H	-0.4144752488	-2.6460438744	 0.7074854191	 0.117608
103.6682	139.693	166.0211	200.0777	228.7237	262.608	307.0845	325.2753	341.21	385.6307	410.2812	458.3498	523.669	561.2146	597.6764	645.2822	696.2532	841.5585	853.7872	972.4361	1001.6996	1050.21	1063.9453	1085.0547	1155.0889	1202.6567	1284.3351	1315.0116	1316.8256	1351.0862	1381.6284	1408.682	1417.2334	1469.412	1479.19	1502.9492	1767.4036	3013.2655	3040.8995	3108.7707	3133.1921	3154.6315	3637.488	3693.8843	3782.5063
CC1(O)C(O)C1(O)C=O	C[C@@]1(O)[C@@H](O)[C@]1(O)C=O	
InChI=1S/C5H8O4/c1-4(8)3(7)5(4,9)2-6/h2-3,7-9H,1H3	InChI=1S/C5H8O4/c1-4(8)3(7)5(4,9)2-6/h2-3,7-9H,1H3/t3-,4-,5-/m1/s1
