18
gdb 10699	2.48165	1.93747	1.54461	3.1497	68.66	-0.2561	-0.0291	0.227	929.3235	0.1521	-384.944222	-384.935707	-384.934763	-384.976802	31.878	
C	 0.2602055747	 1.4155060345	 0.3758169097	-0.413128
C	-0.0967744582	-0.0251140606	-0.0104210332	 0.046993
O	-1.4942722792	-0.195000939	-0.1746341374	-0.442832
C	 0.6619046771	-0.5004407088	-1.249691391	 0.26643
C	 2.1107693264	-0.950058362	-1.1187406965	-0.310635
C	 1.0583807313	-1.9738807151	-1.3631141514	-0.309843
C	 0.2800863196	 0.1147212764	-2.5389491699	 0.114595
O	-0.6464338998	 0.8805568895	-2.6964457431	-0.294766
H	 1.3286681834	 1.516583445	 0.5933617873	 0.10801
H	 0.0059284321	 2.1078141973	-0.4316189175	 0.133986
H	-0.3042930836	 1.7032227516	 1.2666734793	 0.124
H	 0.1783772266	-0.6869649125	 0.8207004716	 0.079721
H	-1.7380910517	 0.3497254753	-0.9353557127	 0.292588
H	 2.7958240198	-0.7052311006	-1.9241098452	 0.124706
H	 2.5427487605	-0.8733318896	-0.1268958421	 0.13187
H	 0.7349148453	-2.6075003364	-0.5453754773	 0.140244
H	 1.0078943498	-2.4415882865	-2.3406288246	 0.127455
H	 0.908787406	-0.1943541085	-3.4057864063	 0.080607
98.5946	143.905	205.4484	211.0564	247.4234	282.4164	322.3538	378.5169	478.1259	495.9622	543.0183	550.3921	767.7036	786.4837	834.0863	906.4202	928.2839	959.5582	983.9237	1040.1664	1048.2953	1065.7773	1089.5962	1102.0552	1131.0857	1194.5559	1253.3348	1320.4795	1352.3303	1367.2911	1400.7519	1440.1599	1448.605	1467.01	1491.6836	1496.4268	1504.7032	1788.1889	2865.4126	3024.7811	3040.8669	3112.5882	3127.2597	3132.0816	3137.7304	3212.9911	3228.6355	3755.7252
CC(O)C1(CC1)C=O	C[C@@H](O)C1(CC1)C=O	
InChI=1S/C6H10O2/c1-5(8)6(4-7)2-3-6/h4-5,8H,2-3H2,1H3	InChI=1S/C6H10O2/c1-5(8)6(4-7)2-3-6/h4-5,8H,2-3H2,1H3/t5-/m1/s1
