17
gdb 7994	3.34993	1.85728	1.30903	1.9482	66.15	-0.2665	0.0239	0.2904	955.7235	0.141793	-401.030879	-401.02291	-401.021966	-401.063237	29.308	
C	 0.1594574383	 1.5648970615	 0.0878004378	-0.40463
C	 0.0644302138	 0.0658628789	-0.0593702768	 0.217709
O	 0.9271499636	-0.3965362777	-1.0635382927	-0.265843
C	 1.2939591052	-1.7287032902	-0.7031477882	 0.037475
C	 2.6711451249	-2.0742841111	-1.2355789397	-0.400102
C	 1.1906551517	-1.7015386062	 0.8125882895	 0.386949
N	 1.6763469638	-2.5565586681	 1.6009775013	-0.53961
O	 0.4854398366	-0.5884502735	 1.1543012525	-0.248244
H	 1.1897432716	 1.8487467686	 0.3145521004	 0.136763
H	-0.1472729636	 2.0443439471	-0.8453480995	 0.136108
H	-0.4966358662	 1.9063035157	 0.8920767762	 0.133848
H	-0.9718295937	-0.2583503447	-0.2568563544	 0.0805
H	 0.5461858372	-2.4409803152	-1.0909660217	 0.100102
H	 3.4062581649	-1.3453779957	-0.8852913443	 0.129262
H	 2.9582225451	-3.0630306679	-0.8706012302	 0.148644
H	 2.6698322284	-2.0795673404	-2.3284742841	 0.124896
H	 1.4600259083	-2.3265788811	 2.5718627239	 0.226174
98.6431	112.9881	211.8755	215.8727	249.8181	297.9987	401.8726	481.5323	488.8545	600.0127	687.24	712.3864	797.4257	881.3861	888.7865	893.7283	952.034	1046.2295	1077.5916	1094.2687	1135.4976	1138.9639	1171.4938	1178.6048	1285.1982	1333.7662	1359.3165	1393.7817	1400.386	1405.8927	1438.3165	1483.284	1484.1632	1486.7154	1496.0327	1793.1955	2958.2083	2965.8052	3054.0345	3055.7783	3131.7038	3136.075	3141.2863	3142.3351	3479.6651
CC1OC(C)C(=N)O1	C[C@H]1O[C@@H](C)[C]([NH])O1	
InChI=1S/C5H9NO2/c1-3-5(6)8-4(2)7-3/h3-4,6H,1-2H3	InChI=1S/C5H9NO2/c1-3-5(6)8-4(2)7-3/h3-4,6H,1-2H3/t3-,4-/m0/s1
