18
gdb 65990	2.32723	1.56049	1.41865	2.7391	71.38	-0.2385	0.0029	0.2413	1031.9249	0.146887	-439.077005	-439.068419	-439.067475	-439.110324	31.727	
C	 0.078203819	 1.5817818459	-0.2004442028	-0.439127
C	-0.0333801457	 0.0767625769	 0.0170848008	 0.109698
C	 0.8478139667	-0.8051554363	-0.8992247492	-0.109453
O	 1.6912117234	-1.1765841629	 0.2407456748	-0.246537
C	 0.9213472916	-0.4592634467	 1.1176833212	 0.426263
O	 1.0417045859	-0.3814238184	 2.3001749011	-0.339409
N	-1.430547877	-0.3131139253	 0.0571382565	-0.114416
C	-1.8242369288	-1.5081093903	 0.8043785687	-0.244354
C	-2.1534695474	-0.150101846	 1.3195821193	-0.227353
H	 1.1210052256	 1.8895555911	-0.3188902568	 0.128036
H	-0.4824847531	 1.866038259	-1.0952548197	 0.135268
H	-0.3401888207	 2.1184651276	 0.6555391334	 0.139218
H	 0.3482283496	-1.6821367352	-1.3137023863	 0.13089
H	 1.432852752	-0.2878285995	-1.6615353433	 0.125051
H	-2.5861024803	-2.1168331385	 0.3270619352	 0.121899
H	-1.063954594	-2.0674645387	 1.3449992123	 0.136398
H	-1.5930285799	 0.1877614394	 2.187397414	 0.14668
H	-3.161031917	 0.245014078	 1.2295186911	 0.12125
81.6107	130.521	146.2216	216.3636	232.3337	245.9402	334.7993	365.9647	468.5647	541.6934	646.81	734.7173	775.5197	810.6663	845.193	902.2599	906.7081	958.0637	962.6058	1004.2826	1040.8469	1102.7974	1112.2459	1132.1916	1152.7854	1159.9391	1173.5181	1202.9022	1211.712	1245.8055	1327.5686	1352.9009	1407.1444	1483.7392	1489.7602	1493.5871	1510.9747	1517.9497	1915.2243	3044.3655	3078.0988	3107.8429	3112.697	3121.1912	3124.3087	3144.0808	3191.8775	3207.1521
CC1(COC1=O)N1CC1	C[C@]1(COC1=O)N1CC1	
InChI=1S/C6H9NO2/c1-6(7-2-3-7)4-9-5(6)8/h2-4H2,1H3	InChI=1S/C6H9NO2/c1-6(7-2-3-7)4-9-5(6)8/h2-4H2,1H3/t6-/m1/s1
