17
gdb 68876	2.54315	1.86945	1.66068	2.2849	66.52	-0.2374	0.0545	0.2918	892.5689	0.135855	-458.896874	-458.889462	-458.888518	-458.928094	30.371	
O	-0.2748390076	 1.2796405563	-0.061634404	-0.473605
C	-0.0112813149	-0.0866722171	 0.0091835602	 0.270363
C	-0.3193333222	-0.9045107625	 1.250254108	-0.411038
C	-1.1965646295	-1.0182827106	 0.0196437899	 0.37564
O	-2.5005286104	-0.5484608746	-0.0035044077	-0.48151
C	-0.7349334183	-1.9813919265	-1.0952039853	 0.01373
C	-0.2736950138	-0.9998825576	-2.2074954325	-0.233363
C	 0.8049629092	-0.7716137254	-1.113612419	 0.010998
O	 0.6741918675	-2.1809226301	-0.7596038691	-0.286292
H	 0.3208490482	 1.7464278143	 0.5332011537	 0.295339
H	 0.3378651979	-1.7113904498	 1.5479040377	 0.131927
H	-0.7788676589	-0.3393153636	 2.0553466118	 0.111684
H	-2.4530374324	 0.411975946	-0.1082298015	 0.291743
H	-1.2937502887	-2.8979625308	-1.2788115216	 0.089024
H	 0.121735514	-1.5152885055	-3.0840898205	 0.108323
H	-0.9306418434	-0.1708798155	-2.4803832156	 0.107447
H	 1.8262703533	-0.4483191671	-1.3169803445	 0.07959
179.7349	217.9628	269.3187	300.5213	334.2785	388.6947	447.0924	522.6612	542.0029	554.0409	567.4174	761.3063	783.4558	814.4215	858.5112	869.1128	914.4326	924.3436	939.525	948.5449	1029.2963	1060.7025	1072.2906	1083.646	1140.0308	1181.0048	1204.2702	1212.2272	1233.2493	1258.4752	1277.0586	1290.2686	1328.6646	1381.6698	1392.8335	1471.4918	1485.3459	3072.3996	3117.7401	3134.7197	3137.2134	3145.628	3236.866	3739.6199	3809.3695
OC12CC1(O)C1CC2O1	O[C@@]12C[C@]1(O)[C@H]1C[C@@H]2O1	
InChI=1S/C6H8O3/c7-5-2-6(5,8)4-1-3(5)9-4/h3-4,7-8H,1-2H2	InChI=1S/C6H8O3/c7-5-2-6(5,8)4-1-3(5)9-4/h3-4,7-8H,1-2H2/t3-,4+,5+,6-
