22
gdb 122832	2.22438	0.95105	0.83446	2.0141	80.14	-0.2496	0.0227	0.2722	1556.9616	0.192054	-441.477207	-441.466261	-441.465317	-441.514884	37.916	
C	-0.6636741855	-0.0670418762	 0.0399845211	-0.386765
C	-0.0361243657	-1.0805108298	-0.9217841358	-0.186142
C	 1.079390126	-0.4493608914	-1.7594411794	-0.051699
O	 1.5890026135	-1.2805152402	-2.790689223	-0.233284
C	 2.5032931681	-2.2691637234	-2.3819326453	-0.138065
C	 1.8764013394	-3.5512165667	-1.85748879	 0.377898
N	 2.3227305344	-4.1035046931	-0.8054218783	-0.525578
O	 0.8824238312	-3.9650899796	-2.6796927643	-0.211534
C	 0.1971989053	-5.1589852304	-2.3331540091	-0.264339
H	 0.0804868868	 0.3360323404	 0.7361031727	 0.117924
H	-1.1011624574	 0.778773615	-0.5022528381	 0.115712
H	-1.4578075813	-0.5259471693	 0.6360731503	 0.115467
H	 0.3640213693	-1.9268244359	-0.3527906933	 0.112489
H	-0.7942075845	-1.4813442136	-1.6043597695	 0.105546
H	 0.6918614656	 0.4377587123	-2.2740963603	 0.103446
H	 1.9004872327	-0.1162188806	-1.1032551852	 0.089221
H	 3.0871995197	-2.527123176	-3.2740645584	 0.122127
H	 3.1927568159	-1.9040858489	-1.6106400701	 0.117391
H	 1.8596434595	-4.9864101891	-0.5918625304	 0.215065
H	 0.8728689836	-6.0231537998	-2.3304870381	 0.130047
H	-0.2817256632	-5.0737314407	-1.3501359195	 0.131361
H	-0.5675128433	-5.3019524628	-3.0972557659	 0.143712
33.5995	56.4065	79.8168	101.4467	137.1927	207.1452	218.7965	228.8453	276.3956	340.5522	371.1311	434.9906	502.7983	560.9384	702.9429	763.3885	830.8294	877.9495	882.683	897.1215	964.5688	1022.7824	1040.2506	1065.3476	1122.1694	1128.2298	1151.1866	1175.7787	1203.7781	1219.3932	1277.8814	1307.5286	1339.2352	1340.8769	1349.7358	1393.5976	1408.4453	1425.1001	1469.4607	1474.1899	1488.662	1492.1494	1496.9208	1499.9699	1505.3466	1513.9765	1726.0873	2970.9681	3013.9279	3021.4947	3029.8475	3039.9279	3053.0147	3071.0728	3076.7973	3077.4634	3101.2617	3106.2482	3144.8868	3487.2642
CCCOCC(=N)OC	CCCOC[C]([NH])OC	
InChI=1S/C6H13NO2/c1-3-4-9-5-6(7)8-2/h7H,3-5H2,1-2H3	InChI=1S/C6H13NO2/c1-3-4-9-5-6(7)8-2/h7H,3-5H2,1-2H3
