19
gdb 40595	5.62662	0.98901	0.97604	1.8241	80.43	-0.2587	0.0918	0.3505	1261.0763	0.160116	-385.784494	-385.777308	-385.776364	-385.816555	28.515	
C	 0.1927496842	 1.5757549204	-0.0128949494	-0.186475
O	 1.2596001976	 0.6328025837	-0.107975344	-0.240161
C	-0.0833619404	 0.1329447747	-0.0377877712	 0.068078
C	-0.4466590637	-0.6291049445	 1.201904453	-0.028201
C	-1.8915793126	-1.1606351982	 1.3594494182	-0.057792
C	-1.6412555991	-2.3913498122	 0.4146554135	-0.043124
C	-2.1762638257	-3.3926454037	 1.4562616198	-0.270367
C	-1.42576649	-2.3349976243	 2.287818394	-0.04413
C	-0.3022720318	-2.169467571	 1.2074663914	-0.047482
H	 0.1293131745	 2.1158934447	 0.9315628859	 0.109521
H	 0.0168759583	 2.178830606	-0.9029830409	 0.111533
H	-0.4397982127	-0.2916303163	-0.9778393308	 0.087117
H	-0.0343288571	-0.1262393681	 2.0849948917	 0.065901
H	-2.8239918737	-0.6002138664	 1.4513402661	 0.069674
H	-1.7575146141	-2.4103142105	-0.6695984883	 0.073309
H	-3.2628993538	-3.4403113682	 1.5822043983	 0.092121
H	-1.7473938796	-4.3997713153	 1.4371854649	 0.093643
H	-1.2836826943	-2.2724566208	 3.3679988326	 0.070878
H	 0.6034392938	-2.7718380103	 1.1225436951	 0.075956
71.006	150.5157	171.6537	331.4786	375.8743	461.8768	509.6957	731.1269	781.9655	840.0708	846.3113	853.5299	857.5212	886.9926	901.1813	909.6414	935.772	966.976	989.5802	1008.2201	1028.1816	1063.4381	1097.0547	1114.1598	1137.9848	1140.8921	1146.9981	1157.6134	1159.4757	1172.0712	1189.0846	1198.0189	1224.603	1242.6189	1278.6806	1291.3338	1316.7578	1329.4023	1466.1454	1510.8343	1530.267	3036.3714	3038.1411	3077.1344	3089.6332	3093.2922	3094.3608	3098.0485	3102.6084	3113.6404	3162.7446
C1OC1C1C2C3CC2C13	C1O[C@H]1[C@H]1[C@H]2[C@@H]3C[C@H]2[C@H]13	
InChI=1S/C8H10O/c1-3-6-4(1)7(3)8(6)5-2-9-5/h3-8H,1-2H2	InChI=1S/C8H10O/c1-3-6-4(1)7(3)8(6)5-2-9-5/h3-8H,1-2H2/t3-,4+,5-,6-,7+,8-/m1/s1
