22
gdb 57465	2.41863	1.36076	1.10212	3.387	82.2	-0.2444	0.0354	0.2797	1218.1402	0.192718	-404.384056	-404.374028	-404.373084	-404.418493	37.815	
C	-0.142141309	 1.563492248	 0.1280997341	-0.42451
C	-0.0523680944	 0.0279765863	 0.0437301941	 0.247235
C	 0.7836344498	-0.4932275715	 1.2296799295	-0.412926
C	-1.4657177588	-0.5792241772	 0.0974774431	-0.407858
C	 0.6465007166	-0.4255585573	-1.2535593591	-0.142147
C	 0.1289022587	 0.0516095884	-2.6490424015	-0.20127
N	 1.4559263993	 0.6328389981	-2.8667721208	-0.318249
C	 1.9695901508	 0.2909361905	-1.641231452	 0.421753
O	 3.0295368191	 0.5026363581	-1.1106528057	-0.373018
H	 0.8521903808	 2.0196333499	 0.1128844179	 0.135278
H	-0.7271197632	 1.9880510263	-0.6947203137	 0.10632
H	-0.6321808302	 1.8612358437	 1.0608673453	 0.111501
H	 0.347005864	-0.1685127588	 2.1801884293	 0.104662
H	 0.8188855183	-1.5884428494	 1.2348864062	 0.104942
H	 1.8108280955	-0.1228514137	 1.1731248628	 0.148377
H	-2.0918261448	-0.2184903676	-0.7261363526	 0.107923
H	-1.4306418205	-1.6727371209	 0.0396840204	 0.109084
H	-1.9653886763	-0.310919183	 1.0347689717	 0.112931
H	 0.7862050091	-1.5113662984	-1.2295187173	 0.096245
H	-0.1321795603	-0.7476614766	-3.3497268925	 0.111614
H	-0.6793871114	 0.7884314928	-2.6205974144	 0.113028
H	 1.843765587	 1.1699062826	-3.6281260149	 0.249089
75.5436	109.3301	144.6738	216.2171	238.3264	271.1881	277.4228	291.0264	325.6433	366.7409	399.1152	407.5942	505.6438	536.2163	653.6476	751.1173	778.8094	857.5404	915.2364	935.4772	940.1477	963.1925	989.1097	1008.1636	1050.0648	1065.6603	1082.8379	1162.1377	1176.03	1189.7901	1221.657	1249.1935	1280.9591	1298.7686	1341.0517	1395.4363	1399.5825	1401.1793	1432.7396	1480.732	1486.1218	1490.3311	1505.1051	1506.707	1520.8723	1532.2547	1878.2135	3021.0632	3027.7989	3034.2939	3043.3787	3059.2791	3087.4803	3089.4191	3090.4932	3095.2825	3099.0116	3110.9078	3120.3364	3610.3127
CC(C)(C)C1CNC1=O	CC(C)(C)[C@H]1CNC1=O	
InChI=1S/C7H13NO/c1-7(2,3)5-4-8-6(5)9/h5H,4H2,1-3H3,(H,8,9)	InChI=1S/C7H13NO/c1-7(2,3)5-4-8-6(5)9/h5H,4H2,1-3H3,(H,8,9)/t5-/m0/s1
