19
gdb 87221	4.17066	0.87319	0.8351	2.3633	71.57	-0.2348	0.0566	0.2913	1415.252	0.156793	-460.111422	-460.102054	-460.10111	-460.146122	34.861	
O	 1.7806154806	-0.04627013	 0.0056530574	-0.436506
C	 1.2475052268	-1.3121631335	-0.2080613629	 0.099261
C	 0.8340122499	-2.1687337026	 0.9753369629	-0.377076
C	-0.2128675701	-1.5278431092	 0.0894683391	 0.343332
O	-0.8424923838	-0.3578654021	 0.5733699889	-0.478558
C	-1.0937109904	-2.3655946694	-0.8143549563	-0.294138
C	-2.2655807575	-2.9786228566	-0.0836179793	 0.099863
C	-2.8007390325	-4.3021097771	-0.4209054628	-0.181
O	-1.9847707577	-4.1180668262	 0.7377600952	-0.236896
H	 1.0384010842	 0.5031869834	 0.2963308724	 0.28952
H	 1.6810644418	-1.8042010511	-1.0744805632	 0.098979
H	 0.9509611016	-3.2455938598	 0.929957546	 0.127206
H	 0.9915839986	-1.7283728159	 1.9551256291	 0.111577
H	-1.1702912506	-0.5311868133	 1.4614770058	 0.295441
H	-1.4704932514	-1.7311812383	-1.6271148998	 0.112871
H	-0.4952224706	-3.1637078647	-1.2664381774	 0.105383
H	-2.9481833588	-2.2630336061	 0.3780731948	 0.090927
H	-3.8472541679	-4.532154547	-0.2260050147	 0.115885
H	-2.3439728623	-4.8743972405	-1.2277888353	 0.113929
50.7108	74.945	126.259	219.1334	257.6789	273.3821	329.973	351.2993	390.442	439.7211	464.6701	488.223	653.5581	722.2019	787.8067	835.6957	862.6272	891.0827	924.8899	949.8254	972.8344	1015.7354	1029.0317	1077.5005	1099.5598	1101.1366	1158.0589	1160.6631	1171.48	1210.9872	1238.2249	1290.7827	1312.0843	1331.4917	1339.8075	1371.9209	1430.0208	1447.5037	1457.485	1482.0616	1529.9671	3028.2639	3078.5604	3081.7406	3099.7753	3129.0928	3145.6389	3167.4015	3223.5144	3729.5974	3818.2459
OC1CC1(O)CC1CO1	O[C@H]1C[C@]1(O)C[C@H]1CO1	
InChI=1S/C6H10O3/c7-5-2-6(5,8)1-4-3-9-4/h4-5,7-8H,1-3H2	InChI=1S/C6H10O3/c7-5-2-6(5,8)1-4-3-9-4/h4-5,7-8H,1-3H2/t4-,5-,6+/m0/s1
