22
gdb 94057	4.14168	0.9161	0.79151	4.3237	86.72	-0.3036	0.0426	0.3462	1473.599	0.196253	-367.265328	-367.256384	-367.25544	-367.298753	34.57	
C	-0.022489329	 1.5713733523	 0.0106978775	-0.404886
C	 0.0170625098	 0.0407796286	 0.0020982816	 0.053066
C	 0.6937400591	-0.5025878434	-1.2677398314	-0.205097
C	 0.7546109417	-2.0349361071	-1.2896277235	-0.206765
C	 1.4625375319	-2.5754135055	-0.0257332402	-0.134584
C	 0.7789034913	-2.0486181051	 1.2571485341	-0.206763
C	 0.7178418502	-0.5161346048	 1.252857874	-0.205095
C	 1.5147962116	-4.0381801299	-0.0341115247	 0.258559
N	 1.5429212011	-5.1938781743	-0.0405838938	-0.326933
H	 0.9907569838	 1.9901452174	 0.0032543686	 0.113925
H	-0.5489035294	 1.9606668909	-0.8670975	 0.113198
H	-0.5319723398	 1.9511577093	 0.9025371849	 0.113198
H	-1.0197465755	-0.3286385988	 0.0100215562	 0.072761
H	 0.1637652679	-0.1455450354	-2.1581218951	 0.09898
H	 1.7136094691	-0.0959959126	-1.3316139678	 0.09489
H	-0.2599016049	-2.4502238985	-1.3278572437	 0.11474
H	 1.2745542345	-2.3893979708	-2.1849694253	 0.113993
H	 2.501464416	-2.2167057395	-0.0337064674	 0.120214
H	-0.2347458326	-2.4643853917	 1.3102521479	 0.114739
H	 1.3157965093	-2.4126368929	 2.1385441912	 0.113992
H	 1.7387939465	-0.1101570806	 1.3015975073	 0.094891
H	 0.2050217273	-0.1687390276	 2.1569905797	 0.098978
80.7403	144.3774	202.3979	213.931	236.9495	304.8369	318.2697	354.3695	427.0517	448.8206	514.7147	563.2757	570.213	766.7342	792.3912	833.6463	896.304	930.5559	936.9501	970.6253	1002.9153	1015.6208	1047.301	1068.8227	1098.9658	1100.4291	1164.3108	1181.044	1244.6039	1265.3274	1278.5704	1318.7261	1325.4211	1336.5162	1336.7904	1357.5364	1380.0049	1391.8387	1400.6035	1414.9635	1478.904	1486.2647	1489.9878	1497.1029	1499.929	1500.9888	2355.2319	2985.7119	3003.4929	3010.3815	3011.6444	3026.4371	3034.1658	3038.722	3061.2058	3064.6716	3084.0744	3087.0441	3092.5327	3099.2672
CC1CCC(CC1)C#N	C[C@H]1CC[C@@H](CC1)C#N	
InChI=1S/C8H13N/c1-7-2-4-8(6-9)5-3-7/h7-8H,2-5H2,1H3	InChI=1S/C8H13N/c1-7-2-4-8(6-9)5-3-7/h7-8H,2-5H2,1H3/t7-,8-
