21
gdb 119427	3.37742	0.94892	0.86261	2.2364	80.58	-0.2293	0.0738	0.3032	1447.7575	0.180338	-424.175727	-424.166025	-424.165081	-424.210751	35.3	
C	 0.1540525194	 1.399245916	-0.0765196658	-0.220391
O	 0.2083979609	-0.0065544415	-0.0864046507	-0.232068
C	 0.5278298595	-0.5502343714	 1.1816306847	-0.1889
C	 0.5305272642	-2.0389753905	 1.0895098566	 0.220185
C	 1.6906898304	-2.8526188875	 0.5371695675	-0.371039
C	 1.2040306757	-3.1123382098	 1.9302029905	 0.412784
C	 2.012116004	-3.1186934502	 3.1866597441	-0.485091
O	 0.0477090061	-3.9626549842	 1.8849566334	-0.326418
C	-0.6900064922	-2.9488696631	 1.149410628	-0.126805
H	 1.1216145821	 1.8450952545	 0.2062759731	 0.101377
H	-0.1011925272	 1.7246963834	-1.0879012387	 0.127786
H	-0.6105734736	 1.7765224282	 0.6218089056	 0.102125
H	 1.5160259284	-0.1878121336	 1.5156343523	 0.083537
H	-0.2079756889	-0.2110003817	 1.9323572722	 0.08511
H	 1.5232104918	-3.5933737109	-0.2401685461	 0.112083
H	 2.6228426662	-2.3012129423	 0.4550442116	 0.111808
H	 2.8143758595	-2.377183119	 3.134009579	 0.122774
H	 1.3876789518	-2.902830515	 4.0590865049	 0.127069
H	 2.4725539395	-4.1022657977	 3.3344017831	 0.135241
H	-1.5050178339	-2.5450712898	 1.7627615112	 0.102121
H	-1.0923147237	-3.328693984	 0.2033237635	 0.10671
59.8816	92.4744	100.4209	190.6981	219.407	234.7032	254.8274	337.2752	349.3512	377.3587	447.1152	491.2875	628.8351	761.6431	805.744	852.8122	922.5401	944.4656	962.6959	982.4308	986.0599	1002.0402	1051.208	1072.8396	1109.6492	1148.2975	1153.1644	1172.4693	1194.7009	1218.301	1223.723	1281.2625	1304.3696	1354.5861	1390.6319	1413.9092	1440.3452	1473.4143	1480.0198	1485.4982	1491.603	1500.5717	1510.2135	1517.8637	1526.3146	2938.6226	2965.2926	2966.1403	3006.6676	3018.3081	3033.1082	3069.0213	3096.6674	3112.1201	3113.7737	3116.7703	3203.647
COCC12CC1(C)OC2	COC[C@@]12C[C@]1(C)OC2	
InChI=1S/C7H12O2/c1-6-3-7(6,4-8-2)5-9-6/h3-5H2,1-2H3	InChI=1S/C7H12O2/c1-6-3-7(6,4-8-2)5-9-6/h3-5H2,1-2H3/t6-,7+/m0/s1
