18
gdb 95851	2.43011	1.44928	1.15748	3.5023	71.63	-0.2854	0.018	0.3034	1124.8192	0.148345	-439.10261	-439.094262	-439.093317	-439.135491	31.435	
C	 0.014512969	 1.5421827594	 0.0626772273	-0.404616
C	 0.0249908798	 0.0292230094	-0.0572180657	 0.119763
C	 0.7785082896	-0.4959489409	-1.2834561152	-0.207229
C	 0.9089481219	-2.0154683917	-1.1898139672	-0.110141
O	 1.4873057776	-2.387645257	 0.0668002161	-0.233885
C	 0.7886834095	-1.8649029862	 1.156038409	 0.059428
O	 0.660171351	-0.476629003	 1.135176079	-0.250369
C	-0.5550886799	-2.5215092492	 1.2853855007	 0.269231
N	-1.5841242169	-3.0340168868	 1.4002031661	-0.33595
H	 1.0363554149	 1.9297582476	 0.113323223	 0.129703
H	-0.4845978608	 1.9851750706	-0.8041779028	 0.122001
H	-0.5174370611	 1.8502516078	 0.9664080544	 0.133937
H	-1.0094310275	-0.3482482399	-0.0799026165	 0.095712
H	 0.2489908075	-0.2186977377	-2.2013420637	 0.109111
H	 1.7755784023	-0.0426816911	-1.3137530389	 0.115913
H	-0.0730530382	-2.4986590708	-1.3011435313	 0.119911
H	 1.5777991682	-2.4196454602	-1.9520647078	 0.124626
H	 1.3739584231	-2.1101930403	 2.0462099135	 0.142855
108.9347	121.4047	202.2825	224.8669	275.0049	306.1626	339.3573	429.7596	439.5453	500.3084	565.8327	614.2397	742.642	798.23	858.0024	876.3296	932.036	964.6306	993.0614	1010.5402	1069.1635	1088.4632	1143.1053	1176.0483	1185.182	1245.8634	1282.7255	1339.643	1353.5568	1374.5869	1385.8195	1402.6117	1412.7301	1416.506	1467.8622	1484.3346	1500.2795	1506.3321	2351.3339	2988.0726	3006.2338	3041.8055	3046.8401	3090.3833	3092.8435	3112.7112	3121.0543	3126.7994
CC1CCOC(O1)C#N	C[C@H]1CCO[C@@H](O1)C#N	
InChI=1S/C6H9NO2/c1-5-2-3-8-6(4-7)9-5/h5-6H,2-3H2,1H3	InChI=1S/C6H9NO2/c1-5-2-3-8-6(4-7)9-5/h5-6H,2-3H2,1H3/t5-,6-/m0/s1
