17
gdb 70952	3.49937	1.36799	1.18409	4.5062	73.78	-0.2646	-0.0092	0.2553	1066.4589	0.135097	-421.73169	-421.724262	-421.723318	-421.763283	29.641	
C	 0.1437782453	 1.5695426392	-0.0303637207	-0.502427
C	 0.0479477708	 0.0686939324	-0.0063401036	 0.282471
C	 0.5888518475	-0.9407629199	-1.15542237	-0.334277
C	-0.0731208138	-1.7715192915	-0.0277079636	 0.397099
C	 0.6561356603	-0.908369028	 1.0255190266	-0.305531
O	-0.8464278755	-2.9184413846	 0.4396230407	-0.312198
C	-1.8469559853	-2.0019247102	 0.8531319949	 0.372915
O	-2.7955763271	-2.2519404669	 1.5139115506	-0.296873
C	-1.2573228414	-0.8460551772	-0.0205662443	-0.251026
H	 1.1893830979	 1.8887951844	-0.0989281822	 0.128457
H	-0.3975913825	 1.9877892311	-0.8844763443	 0.129453
H	-0.281872133	 1.9934196904	 0.884312194	 0.137392
H	 0.0720430615	-0.901620317	-2.1153648574	 0.117131
H	 1.6748737886	-0.9916340724	-1.2674237273	 0.111064
H	 1.7450857894	-0.9772120194	 1.0611825796	 0.101089
H	 0.2109234596	-0.8923703987	 2.0232509872	 0.114161
H	-1.8328997223	-0.8022574519	-0.9499016603	 0.111098
143.1797	194.4026	211.9192	262.0824	367.9176	431.1268	465.609	539.8063	557.5833	588.5524	647.1907	717.9446	734.8903	815.1872	855.7793	916.2818	946.3385	967.8079	989.2817	1014.0984	1030.3696	1071.2793	1080.0751	1122.5133	1152.135	1157.429	1189.475	1215.3735	1228.7613	1276.6369	1342.0899	1408.477	1483.3495	1488.1646	1493.165	1534.7571	1936.958	3034.2135	3061.1404	3064.4862	3069.5936	3103.6826	3111.0975	3133.2929	3145.0996
CC12CC3(C1)OC(=O)C23	C[C@@]12C[C@]3(C1)OC(=O)[C@@H]23	
InChI=1S/C7H8O2/c1-6-2-7(3-6)4(6)5(8)9-7/h4H,2-3H2,1H3	InChI=1S/C7H8O2/c1-6-2-7(3-6)4(6)5(8)9-7/h4H,2-3H2,1H3/t4-,6-,7-/m0/s1
