18
gdb 70196	3.41679	1.36631	1.16327	2.9606	73.93	-0.2393	0.0182	0.2575	1095.6109	0.147723	-439.072722	-439.06469	-439.063746	-439.105138	31.314	
C	-0.1317793956	 1.5210485122	-0.0111896617	-0.450883
C	-0.0043218099	 0.0214912245	 0.0266083919	 0.408041
C	-0.8163142776	-0.7980122885	 1.0170789536	-0.3957
C	 0.6888735046	-0.6695976367	 1.1582551874	 0.039759
O	 1.5322205803	-1.7720498809	 0.8913785723	-0.243041
C	 1.5645673498	-2.3190709876	-0.3561970784	 0.381213
N	 2.3943290414	-3.2182892718	-0.6750032908	-0.509858
C	 0.5244869538	-1.8504993221	-1.3494858397	-0.188526
O	 0.2420678682	-0.4654466209	-1.2658595014	-0.287057
H	 0.7674410643	 1.967970116	-0.4456051071	 0.134009
H	-0.9908889663	 1.8130995852	-0.6232423878	 0.133145
H	-0.2724469866	 1.9252864366	 0.9946764359	 0.119541
H	-1.4442867184	-0.2703707103	 1.7267550193	 0.122471
H	-1.2027552754	-1.7638549959	 0.7132738619	 0.129557
H	 1.101064585	-0.1011534288	 1.9841490022	 0.113846
H	 2.9943159235	-3.4465720904	 0.1208328291	 0.221318
H	 0.9058680454	-2.0393153801	-2.3523691012	 0.152079
H	-0.3923546767	-2.4467020605	-1.2217726256	 0.120089
77.537	201.4148	214.339	231.0077	307.2261	373.0122	386.659	448.5229	489.7243	530.1056	585.4243	678.3492	740.6714	791.819	836.9838	884.6881	908.2724	913.3069	950.3394	1017.4928	1033.3429	1054.8948	1076.5796	1117.6046	1125.1374	1133.1655	1194.9382	1260.1905	1272.0999	1295.9914	1357.9229	1386.5299	1413.1548	1430.0374	1475.6036	1479.3419	1495.4733	1506.8862	1757.9247	2986.2894	3041.8534	3111.5878	3123.1314	3140.1607	3142.6517	3174.2043	3228.7723	3460.6321
CC12CC1OC(=N)CO2	C[C@]12C[C@H]1O[C]([NH])CO2	
InChI=1S/C6H9NO2/c1-6-2-4(6)9-5(7)3-8-6/h4,7H,2-3H2,1H3	InChI=1S/C6H9NO2/c1-6-2-4(6)9-5(7)3-8-6/h4,7H,2-3H2,1H3/t4-,6+/m1/s1
