23
gdb 96353	2.07353	1.67235	1.20586	1.9068	80.69	-0.254	0.0749	0.3288	1162.1018	0.205371	-425.441201	-425.431737	-425.430793	-425.474508	37.12	
C	-0.0099288968	 1.5726983072	-0.1319179791	-0.420614
C	 0.0587310166	 0.047529153	-0.0031526749	 0.003629
C	 0.6697361725	-0.572348246	-1.2681289046	-0.106774
O	 0.7365546348	-1.9852653395	-1.1726334175	-0.234257
C	 1.4851012004	-2.361271024	-0.0477727096	 0.004144
O	 0.9301670051	-1.9037571947	 1.1528389487	-0.279696
C	 0.8019709403	-0.4677387779	 1.2632547097	 0.348079
C	 2.1856190468	 0.1729347861	 1.4695024022	-0.432723
C	-0.0493102968	-0.2754846464	 2.5193735695	-0.419125
H	 0.9811879306	 2.0133987737	-0.2813668849	 0.119979
H	-0.6265325732	 1.8535481055	-0.992498093	 0.117342
H	-0.4529447377	 2.0379485195	 0.7530301022	 0.120946
H	-0.9626120045	-0.3467321481	 0.0693665366	 0.084086
H	 0.0500310529	-0.3453771831	-2.1406959922	 0.108835
H	 1.6752790201	-0.1578963354	-1.4581672537	 0.085625
H	 1.4696697444	-3.4526170365	-0.0015421183	 0.113858
H	 2.5267832447	-2.0087092655	-0.1620643553	 0.072973
H	 2.8126041044	 0.1385847194	 0.5749518159	 0.115226
H	 2.0866042367	 1.2218852784	 1.7616989248	 0.119221
H	 2.7096766324	-0.3562893437	 2.2702568662	 0.123903
H	 0.4654835761	-0.6985514958	 3.3868779486	 0.120314
H	-0.238419924	 0.7833837893	 2.7153581186	 0.112386
H	-1.0071498856	-0.7907245457	 2.4081675103	 0.122644
115.0614	184.5471	210.1946	224.6018	238.749	268.7028	277.7697	339.4774	371.878	379.8036	449.3028	477.8675	492.9632	519.5897	665.0915	716.6782	833.9853	896.1714	928.1292	936.2017	965.6041	977.9821	1003.2431	1054.7468	1076.3767	1096.6485	1119.6378	1158.3144	1169.2759	1211.5609	1248.5758	1259.4913	1274.8446	1322.8053	1329.7035	1375.5638	1398.2993	1398.7383	1409.0326	1419.4528	1444.7544	1475.7634	1484.0914	1494.1593	1495.4503	1499.6821	1506.6977	1512.143	1517.1291	2932.4364	2955.06	3029.0295	3035.9805	3043.5049	3049.6059	3079.8386	3098.2687	3103.4458	3110.3352	3117.2283	3118.3026	3121.7433	3126.0124
CC1COCOC1(C)C	C[C@H]1COCOC1(C)C	
InChI=1S/C7H14O2/c1-6-4-8-5-9-7(6,2)3/h6H,4-5H2,1-3H3	InChI=1S/C7H14O2/c1-6-4-8-5-9-7(6,2)3/h6H,4-5H2,1-3H3/t6-/m0/s1
