15
gdb 43470	2.65582	1.84552	1.29411	1.7258	67.59	-0.2572	-0.0245	0.2327	950.3951	0.115486	-453.967696	-453.960937	-453.959993	-453.998896	26.646	
N	-0.1063163079	 1.3144477359	-0.0339033344	-0.524915
C	-0.0444471224	 0.0479487049	 0.0090052437	 0.419108
N	 1.1073557213	-0.7486628616	 0.0472611493	-0.379439
C	 1.0487956011	-2.1394653814	 0.0613278501	 0.429209
O	 2.0290976865	-2.8431898889	 0.058375009	-0.347283
C	-0.4037569505	-2.6214421296	 0.063609717	-0.033517
C	-1.1856034362	-1.9175330558	-1.0695408035	-0.264217
C	-1.2922740305	-0.8120982689	 0.0094017759	 0.028956
O	-1.1295266547	-1.8286607064	 1.0425092309	-0.284436
H	 0.8212197819	 1.7453504314	-0.04494777	 0.214372
H	 2.025498766	-0.324902623	 0.0768457226	 0.255984
H	-0.4643072332	-3.6970801978	 0.224903232	 0.112411
H	-0.6791570439	-1.6959095383	-2.0103088675	 0.126752
H	-2.1490146192	-2.3961814091	-1.2457615583	 0.131148
H	-2.1902000184	-0.2066750313	 0.1182929531	 0.115865
131.3613	159.7742	319.5849	357.2472	431.803	463.801	522.1555	583.7411	605.9131	701.9518	735.5678	786.0713	865.876	872.5438	902.5891	935.2273	959.8722	960.7951	1018.8428	1078.8741	1100.5394	1130.2363	1203.7662	1242.4236	1273.6842	1295.5274	1310.4318	1320.144	1384.888	1402.9063	1488.6335	1755.9118	1837.0049	3085.1703	3134.7616	3145.5954	3153.7164	3443.4557	3590.1462
N=C1NC(=O)C2CC1O2	[NH][C]1NC(=O)[C@@H]2C[C@H]1O2	
InChI=1S/C5H6N2O2/c6-4-2-1-3(9-2)5(8)7-4/h2-3H,1H2,(H2,6,7,8)	InChI=1S/C5H6N2O2/c6-4-2-1-3(9-2)5(8)7-4/h2-3H,1H2,(H2,6,7,8)/t2-,3+/m1/s1
