21
gdb 103617	2.56164	1.2354	1.09583	2.0105	79.64	-0.2206	-0.0227	0.1979	1257.3392	0.179145	-424.2312	-424.220813	-424.219869	-424.266578	37.393	
C	-0.2973746313	 1.7941696259	-0.4312935678	-0.262675
O	-0.0736067472	 0.3937502353	-0.5171770706	-0.288897
C	-1.1339723532	-0.4299939396	-0.0887790295	 0.320479
C	-2.4140014384	-0.2623504958	-0.9100852183	-0.460278
C	-0.6692055033	-1.910488833	 0.0622888668	-0.304659
C	-1.2638728271	-1.9857211086	 1.5047716008	-0.090587
C	-0.4483547959	-2.5882199324	 2.6412717053	-0.405278
C	-1.3800261253	-0.4538639511	 1.4497513865	 0.343511
O	-1.4438039991	 0.3988054969	 2.2910058673	-0.315847
H	 0.6605534187	 2.2702698768	-0.6537717725	 0.12669
H	-1.0356856454	 2.1415284255	-1.1671831729	 0.106464
H	-0.6232832529	 2.0895241625	 0.5716830823	 0.142271
H	-2.1901721741	-0.4124039291	-1.9714141788	 0.129553
H	-3.1671040821	-0.9974893796	-0.6101313298	 0.12176
H	-2.8522450582	 0.730931586	-0.7801875565	 0.131864
H	-1.0652950895	-2.6140370178	-0.6714362549	 0.103368
H	 0.4218309249	-1.9575418079	 0.0667631893	 0.121321
H	-2.2701698361	-2.4234730267	 1.4858337354	 0.101662
H	 0.5601988408	-2.1635395202	 2.6658801019	 0.125229
H	-0.9216770664	-2.3803867228	 3.6054487787	 0.1343
H	-0.3575986189	-3.6733300446	 2.5309993871	 0.119748
53.1663	103.8515	143.4836	179.5178	184.7041	206.2033	225.3879	270.8332	293.0986	306.5368	376.2104	409.1724	554.5866	600.0307	704.634	713.5523	825.3328	873.0308	901.6726	920.9978	952.5409	971.9662	1056.4325	1091.6121	1121.0164	1135.5977	1171.6217	1181.7834	1200.7613	1218.6865	1236.4431	1254.272	1290.243	1337.466	1395.748	1406.7079	1472.1737	1478.306	1483.4883	1489.8413	1493.9652	1494.9514	1502.7091	1512.9255	1871.3732	3002.8878	3029.8603	3036.7677	3037.3358	3076.5618	3078.5627	3107.2645	3109.1673	3113.0961	3115.3392	3122.4565	3137.7598
COC1(C)CC(C)C1=O	CO[C@@]1(C)C[C@@H](C)C1=O	
InChI=1S/C7H12O2/c1-5-4-7(2,9-3)6(5)8/h5H,4H2,1-3H3	InChI=1S/C7H12O2/c1-5-4-7(2,9-3)6(5)8/h5H,4H2,1-3H3/t5-,7+/m1/s1
