22
gdb 32970	3.13455	1.01413	0.82113	2.001	90.39	-0.1908	0.0481	0.2388	1481.1821	0.194577	-367.258067	-367.24819	-367.247246	-367.294201	35.789	
C	 0.0796431919	 1.588050806	 0.0187611886	-0.379536
C	 0.1129117263	 0.0579916781	 0.0290987451	-0.155181
C	 0.6546672162	-0.5367620857	-1.2878349237	-0.307359
C	 0.675544391	-2.0329821949	-1.3306631974	 0.284245
C	-0.2493617322	-2.9136350045	-1.8536777475	-0.233127
C	 0.2122822321	-4.2345388817	-1.6099060722	-0.162162
C	 1.4092610028	-4.124056032	-0.9452292641	-0.111471
N	 1.6906386016	-2.7880892816	-0.7738012255	-0.027498
C	 2.8847363168	-2.2772989141	-0.1349809208	-0.343155
H	 1.0820426539	 2.007141374	-0.1257984742	 0.111142
H	-0.5534717494	 1.9642466792	-0.7927336026	 0.115212
H	-0.3142330342	 1.9854609127	 0.959332084	 0.112291
H	 0.7240903486	-0.2920212864	 0.8703735313	 0.094771
H	-0.8936186519	-0.3401493847	 0.2024395305	 0.105774
H	 0.0272250286	-0.1845122067	-2.1146688474	 0.109199
H	 1.6568138675	-0.1281089221	-1.478428391	 0.093549
H	-1.1586686987	-2.62801734	-2.3619399464	 0.083961
H	-0.2717692334	-5.1564377848	-1.893364268	 0.08879
H	 2.0933993101	-4.8748103573	-0.5817800794	 0.107116
H	 3.4361875719	-1.6059085014	-0.8015327147	 0.137775
H	 2.6523180823	-1.7338065774	 0.7871993294	 0.136821
H	 3.535523218	-3.1164645647	 0.1165830961	 0.138844
27.3983	75.4178	91.5941	114.3213	200.5412	240.7005	280.992	305.8916	358.0731	424.2978	618.3772	643.1339	685.0319	704.8598	738.1894	755.4814	779.5744	831.0049	868.2354	891.8984	908.2363	1022.3114	1041.7525	1073.2276	1085.0791	1107.7283	1114.8122	1149.1504	1201.0305	1243.9922	1278.3664	1308.1165	1323.2389	1337.7966	1380.0679	1396.5541	1411.2336	1450.971	1471.9019	1476.4421	1483.0162	1492.5032	1498.9004	1509.1865	1513.6498	1530.1738	1592.9063	3008.1759	3026.2905	3028.1444	3031.413	3051.5743	3069.6414	3084.7241	3095.2229	3101.3599	3134.0275	3232.9692	3245.1729	3263.5421
CCCC1=CC=CN1C	CCCc1cccn1C	
InChI=1S/C8H13N/c1-3-5-8-6-4-7-9(8)2/h4,6-7H,3,5H2,1-2H3	InChI=1S/C8H13N/c1-3-5-8-6-4-7-9(8)2/h4,6-7H,3,5H2,1-2H3
