14
gdb 27277	3.34466	1.58878	1.08944	1.34	64.28	-0.1827	0.0521	0.2348	1015.3688	0.102291	-473.81456	-473.807094	-473.806149	-473.846339	28.145	
O	 0.0779290661	 1.3566761973	 0.2050799913	-0.435161
C	 0.0981306158	 0.0150252069	-0.006918435	 0.241629
C	 0.226419048	-0.7954701998	-1.0946525328	 0.12771
O	 0.5414195551	-0.7511848077	-2.4372814817	-0.300496
C	 0.2929759684	-2.1022217558	-2.8531314372	-0.004747
O	 0.413228366	-2.9676453712	-1.7135801793	-0.284355
C	 0.158081666	-2.1311579205	-0.6563933568	 0.27399
C	-0.0246279552	-2.1697208412	 0.6908789056	-0.245494
N	-0.0195099928	-0.8186898012	 1.090934426	-0.308594
H	 0.0773903365	 1.7974661149	-0.6501692683	 0.312496
H	-0.7308984563	-2.1758499096	-3.2519567544	 0.104944
H	 1.034188891	-2.3892208868	-3.6013547161	 0.130317
H	-0.0997044331	-2.9653266234	 1.4096267141	 0.126728
H	-0.4652430254	-0.4973523818	 1.9349827847	 0.261032
158.7972	164.2039	206.5947	278.8973	298.7355	342.1739	426.7001	555.8643	585.7859	606.1824	630.881	672.1259	678.813	772.0018	820.52	930.5876	1049.9255	1056.9116	1091.6875	1139.9219	1145.3475	1213.9328	1230.3982	1298.7665	1359.4426	1413.5807	1449.3784	1523.2516	1531.6006	1649.3027	1732.8174	2978.3424	3115.9678	3292.746	3653.476	3844.8734
OC1=C2OCOC2=CN1	Oc1c2OCOc2c[nH]1	
InChI=1S/C5H5NO3/c7-5-4-3(1-6-5)8-2-9-4/h1,6-7H,2H2	InChI=1S/C5H5NO3/c7-5-4-3(1-6-5)8-2-9-4/h1,6-7H,2H2
