15
gdb 75736	2.65082	1.65065	1.02378	3.2912	72.04	-0.2298	-0.0634	0.1664	1090.7626	0.11276	-454.037092	-454.028103	-454.027159	-454.07153	31.324	
C	 0.0015992811	 1.4362212347	 0.0437022643	-0.348045
N	 0.0055207936	-0.0102486136	 0.018062152	-0.1762
C	-0.0619234601	-0.7943457672	-1.178745896	 0.43532
O	-0.1280443235	-0.3033892043	-2.2804059308	-0.363485
C	-0.0334611971	-2.2030632519	-0.7704369856	-0.408314
C	 0.0456745857	-2.2460974005	 0.5798661235	 0.319608
N	 0.1038542956	-3.222507484	 1.4974911628	-0.591515
C	 0.0717155004	-0.8238649752	 1.1126884336	 0.39826
O	 0.1380570093	-0.5131197602	 2.2831498908	-0.384585
H	 0.9167215666	 1.8209819348	 0.5033449516	 0.141626
H	-0.0601681696	 1.7748576388	-0.9915023894	 0.164416
H	-0.8565896482	 1.8143341903	 0.6070040246	 0.14161
H	-0.0723487603	-3.0120792187	-1.4827701992	 0.116696
H	 0.086124042	-4.197184376	 1.2590642867	 0.273419
H	 0.1539748145	-2.9456291067	 2.4655155912	 0.281189
53.3326	78.7349	139.0065	164.7711	204.9637	258.535	278.5164	387.8598	466.4254	544.0078	577.4912	616.0078	664.3558	710.4939	731.7035	791.0038	801.8792	933.0041	1044.4109	1067.8149	1133.8002	1159.1515	1259.3968	1277.9944	1381.6903	1418.7906	1474.901	1490.7829	1512.6579	1607.655	1717.5264	1801.6368	1848.782	3044.3432	3104.9824	3152.3205	3256.3457	3598.8431	3740.147
CN1C(=O)C=C(N)C1=O	CN1C(=O)C=C(N)C1=O	
InChI=1S/C5H6N2O2/c1-7-4(8)2-3(6)5(7)9/h2H,6H2,1H3	InChI=1S/C5H6N2O2/c1-7-4(8)2-3(6)5(7)9/h2H,6H2,1H3
