16
gdb 30526	3.49719	1.07642	0.82545	6.5706	96.49	-0.1461	-0.0301	0.1159	1328.2792	0.125265	-434.059526	-434.051007	-434.050063	-434.092979	31.713	
N	-0.1564581381	 1.5043685734	 0.1059497109	-0.52046
C	 0.0770417678	 0.1414385672	-0.029051235	 0.040028
N	-0.8797047638	-0.7514228918	 0.0365059487	-0.257581
H	-1.8690763913	-0.4552024815	 0.0532946204	 0.268134
C	-0.9131174856	-2.10584311	 0.0958680458	 0.192489
C	-2.1854758554	-2.7509751943	-0.0061734021	 0.316399
O	-3.2759926402	-2.1467808733	-0.0487262963	-0.486793
C	-1.8288083886	-4.1735740393	-0.0856658081	-0.256022
C	-0.4733012998	-4.2732167518	-0.0486571998	-0.050922
N	 0.1406022828	-3.0137137133	-0.0241698672	-0.367583
H	 0.4376340294	 2.0797184493	-0.4774793513	 0.26581
H	-1.1256392245	 1.7812952817	 0.0082828849	 0.262506
H	 1.1045657598	-0.1898263433	-0.0832059244	 0.139758
H	-2.5266268286	-4.9911405188	-0.1835720162	 0.098388
H	 0.1534482625	-5.1531944511	-0.0487961496	 0.114507
H	 0.9758228036	-2.9123133929	 0.5390368593	 0.241341
76.968	98.3251	165.38	254.8021	271.2465	324.1128	339.6311	387.6719	495.0136	559.6977	605.087	663.3347	689.2315	705.1209	712.086	778.351	807.1431	856.2928	899.5947	970.5205	1048.9789	1067.8335	1110.3083	1140.1931	1233.6573	1315.7412	1332.3342	1359.0156	1382.7236	1482.8974	1503.8817	1575.5324	1648.0717	1672.6446	1729.459	3232.5581	3234.4856	3257.7578	3294.5235	3525.6866	3550.4179	3626.8611
NC=[NH+]C1=C([O-])C=CN1	[NH2]=CN[C]1C(=O)C=CN1	
InChI=1S/C5H7N3O/c6-3-8-5-4(9)1-2-7-5/h1-3,7,9H,(H2,6,8)	InChI=1S/C5H7N3O/c6-3-8-5-4(9)1-2-7-5/h1-3,7-8H,6H2
