20
gdb 40829	3.83829	1.08732	0.90337	1.6229	75.39	-0.2441	0.0823	0.3264	1298.2704	0.172798	-440.247067	-440.239053	-440.238109	-440.279867	30.845	
C	 1.3579458863	 0.0545751424	-0.3430965584	-0.223995
C	 0.5900308304	-1.0716745642	-0.9379157142	-0.223995
N	-0.0513185891	-0.1435091837	-0.0080084036	-0.071379
C	-0.3321717102	-0.656028486	 1.3249927988	 0.018267
C	-0.4076003558	 0.5038999188	 2.3274060051	-0.098913
O	-0.838977445	 0.0329361679	 3.5958294634	-0.234858
C	-2.0812719278	-0.6114394571	 3.4986499493	 0.017837
O	-2.0453982023	-1.7364259763	 2.661343726	-0.234857
C	-1.6884457241	-1.3746214041	 1.3352722493	-0.098912
H	 2.101598139	-0.196382098	 0.4116918553	 0.115245
H	 1.5835001444	 0.940417196	-0.929264307	 0.120129
H	 0.2446878249	-1.0231314298	-1.9662956218	 0.120129
H	 0.8216910034	-2.0735359287	-0.5797101823	 0.115245
H	 0.4383042561	-1.3660263016	 1.6746318891	 0.068994
H	 0.5699062213	 0.9700821647	 2.4764398857	 0.109907
H	-1.1003822596	 1.2678372609	 1.938023687	 0.099271
H	-2.3391462093	-0.9639632903	 4.4990364635	 0.117565
H	-2.8443000375	 0.102690632	 3.1315763899	 0.075144
H	-2.4484146997	-0.7092257191	 0.8938400893	 0.09927
H	-1.6582384354	-2.2977776538	 0.7505276658	 0.109906
92.1546	123.6343	175.5859	260.5397	275.4641	394.069	424.5147	448.3888	469.0982	495.4258	650.7229	796.5336	881.4467	892.8622	910.9815	918.7298	970.7439	976.9731	1024.4431	1050.8936	1071.8419	1093.806	1113.9298	1120.7811	1135.6715	1180.9535	1182.487	1194.1613	1216.7036	1227.8505	1303.2391	1314.2157	1329.4754	1331.9466	1357.0055	1379.4177	1422.2647	1442.8311	1488.4758	1494.9194	1496.8706	1510.4491	1515.9276	2913.7342	2944.4582	2975.8635	2986.2082	3091.2861	3093.3707	3095.5995	3099.4951	3116.5331	3180.2598	3194.2902
C1CN1C1COCOC1	C1CN1C1COCOC1	
InChI=1S/C6H11NO2/c1-2-7(1)6-3-8-5-9-4-6/h6H,1-5H2	InChI=1S/C6H11NO2/c1-2-7(1)6-3-8-5-9-4-6/h6H,1-5H2
