22
gdb 56670	2.52983	1.2219	1.05803	3.9711	85.56	-0.2969	0.0362	0.3331	1265.9905	0.19351	-367.229861	-367.220059	-367.219115	-367.264283	36.869	
C	 0.0467076314	 1.6312095146	 0.0238031236	-0.407214
C	 0.0819361935	 0.0953875019	 0.1546291189	-0.205329
C	 0.669035964	-0.2995786087	 1.441222535	 0.279249
N	 1.1167565679	-0.6136652993	 2.4599571008	-0.336574
C	-1.2920631974	-0.5893089979	-0.0498722861	 0.363297
C	-2.3256665216	-0.1578040679	 0.9924918854	-0.463513
C	-1.8463022564	-0.5051676769	-1.5094782887	-0.268663
C	-2.1565624312	-2.0252345797	-1.4558820735	-0.21822
C	-1.2383500955	-2.1429855246	-0.2102326294	-0.260215
H	 1.0575047349	 2.0448539945	 0.0598447014	 0.135883
H	-0.4056544727	 1.9097830317	-0.9321388918	 0.129174
H	-0.5327678537	 2.0886821363	 0.8286329635	 0.140583
H	 0.7521285612	-0.2939806016	-0.6230016723	 0.116753
H	-2.5452290042	 0.9128259626	 0.9288812673	 0.116905
H	-3.2679556339	-0.6930567434	 0.8401788112	 0.11866
H	-1.9775383867	-0.3772460887	 2.0071635203	 0.139678
H	-2.6844490151	 0.176297837	-1.6772810997	 0.100054
H	-1.0615001195	-0.2717271438	-2.2361158279	 0.097173
H	-3.2047496411	-2.229523077	-1.2247486411	 0.108763
H	-1.8800947095	-2.6158601849	-2.3314183725	 0.102718
H	-0.2351688039	-2.4955491456	-0.4678291398	 0.102505
H	-1.6013969605	-2.7328921288	 0.6345776856	 0.108334
70.95	116.6336	132.3727	209.3993	216.5209	241.1684	268.1226	316.0065	353.8544	371.071	426.2425	489.5231	575.5177	673.28	715.0344	792.0037	836.1747	866.2566	922.0931	925.7532	929.5157	945.2087	994.1024	1031.9214	1043.0105	1084.241	1114.7281	1171.1844	1183.0858	1211.6335	1216.0891	1258.9694	1275.8447	1277.2158	1305.3746	1332.2124	1342.6734	1407.6992	1418.4344	1474.0187	1481.7207	1491.4676	1493.9517	1500.5854	1506.0997	1508.8608	2350.9364	3021.633	3033.6465	3046.8591	3051.7491	3055.67	3068.5998	3096.3882	3101.4389	3106.0228	3107.0906	3124.2835	3124.6906	3134.4096
CC(C#N)C1(C)CCC1	C[C@@H](C#N)C1(C)CCC1	
InChI=1S/C8H13N/c1-7(6-9)8(2)4-3-5-8/h7H,3-5H2,1-2H3	InChI=1S/C8H13N/c1-7(6-9)8(2)4-3-5-8/h7H,3-5H2,1-2H3/t7-/m0/s1
