20
gdb 119858	3.3539	0.98215	0.8111	2.8414	84.65	-0.241	-0.0226	0.2185	1464.723	0.171583	-403.186733	-403.177683	-403.176739	-403.221146	33.285	
C	-0.1172406861	 1.5654417934	 0.0592684903	-0.379477
C	-0.0845762893	 0.035783077	 0.0591425293	-0.164652
C	 0.8286059582	-0.5305225958	 1.1650058055	-0.302808
C	 0.8487137924	-2.025680375	 1.1982120585	 0.275352
C	 1.8095338061	-2.8845810327	 0.8447862337	-0.223281
C	 1.3361400472	-4.2904195837	 1.0576794394	-0.135525
O	 0.0075314523	-4.1519636298	 1.5703700216	-0.244893
C	-0.30573474	-2.8199153682	 1.669446664	 0.351335
N	-1.4050269208	-2.3612856132	 2.1023686527	-0.551536
H	 0.8827960463	 1.9874129094	-0.0937400697	 0.109044
H	-0.764534173	 1.9470612476	-0.7363570548	 0.11229
H	-0.497402738	 1.9514729798	 1.0113917516	 0.119502
H	-1.0934229966	-0.3618882843	 0.2056107059	 0.132446
H	 0.2642800106	-0.3302647502	-0.9145650421	 0.091246
H	 1.8489831626	-0.1527215303	 1.0320618144	 0.095512
H	 0.4675946365	-0.165645284	 2.134190817	 0.124585
H	 2.7937208582	-2.6442240251	 0.4636705139	 0.114079
H	 1.3031033371	-4.880851106	 0.1319263206	 0.127293
H	 1.9443047801	-4.844785643	 1.7853441487	 0.1274
H	-2.0326352036	-3.1196038059	 2.3726408093	 0.222089
68.895	83.2514	116.1355	187.4707	241.0842	268.0259	293.0093	323.5303	438.597	490.224	654.3668	743.7136	752.1248	785.1257	801.3508	832.1994	872.266	884.57	902.6835	955.821	998.5303	1031.4243	1042.7346	1090.2291	1103.6239	1111.9321	1195.9701	1196.9007	1241.714	1271.2586	1312.5027	1326.1188	1366.1461	1384.1074	1400.0588	1411.0762	1476.4568	1494.1464	1498.5749	1502.8725	1509.1385	1706.3325	1751.4076	3010.1487	3025.3116	3028.1378	3034.6509	3037.6585	3068.3361	3082.5814	3103.2453	3105.4337	3220.4812	3482.5352
CCCC1=CCOC1=N	CCCC1=C(OC[CH]1)[NH]	
InChI=1S/C7H11NO/c1-2-3-6-4-5-9-7(6)8/h4,8H,2-3,5H2,1H3	InChI=1S/C7H11NO/c1-2-3-6-4-5-9-7(6)8/h4,8H,2-3,5H2,1H3
