12
gdb 21972	5.36001	1.65675	1.26557	6.3043	60.8	-0.2448	-0.0631	0.1817	863.5924	0.085739	-414.617625	-414.611411	-414.610467	-414.648341	22.942	
O	-0.0508003895	-0.0013498033	 0.0037212858	-0.370992
N	-0.0310162913	 1.2260869377	 0.0068932976	 0.338403
O	 0.9878634514	 1.9145644735	 0.0018634889	-0.386187
C	-1.2916593417	 1.9061671247	 0.0171517301	 0.349471
C	-1.436387854	 3.2780491856	 0.0217923762	-0.114868
N	-2.7735275274	 3.5179789354	 0.0312824983	-0.243711
C	-3.4785995253	 2.3311496304	 0.0328496251	-0.045165
C	-2.5763082202	 1.3002169971	 0.0242072159	-0.247957
H	-0.6954489993	 4.0580146582	 0.0189189351	 0.164788
H	-3.1888378744	 4.4341394893	 0.0364159759	 0.277662
H	-4.5561307035	 2.3285714265	 0.039994439	 0.140395
H	-2.7796720449	 0.243161115	 0.0228152519	 0.138159
92.4077	210.7471	226.0623	440.7946	543.4699	545.7613	615.8615	646.6399	713.7226	770.7675	825.2143	832.6353	871.2004	898.5396	973.0284	1052.5359	1096.9397	1153.3761	1262.3833	1283.3068	1415.7257	1439.1579	1459.4941	1523.3144	1581.4233	1619.9243	3271.5108	3294.9911	3298.9894	3674.9813
O=N(=O)C1=CNC=C1	O=N(=O)c1c[nH]cc1	
InChI=1S/C4H4N2O2/c7-6(8)4-1-2-5-3-4/h1-3,5H	InChI=1S/C4H4N2O2/c7-6(8)4-1-2-5-3-4/h1-3,5H
