13
gdb 62358	4.21864	1.15325	1.11599	3.4327	65.88	-0.2797	-0.0311	0.2486	1065.8576	0.087993	-452.706929	-452.699303	-452.698359	-452.739056	28.537	
O	-0.0439054466	 1.3669499362	-0.0206363591	-0.449513
C	-0.0555849968	-0.0136471882	 0.0123288221	 0.273027
C	 1.0255186825	-0.6069541992	-0.7444144883	 0.267806
N	 1.8794960568	-1.1106742608	-1.337890409	-0.318734
C	-0.4992406628	-0.7826340982	 1.2212335484	 0.003902
O	-1.4919503	 0.0204744846	 1.8964711863	-0.292651
C	-2.3698778502	-0.1447821884	 0.7978218645	 0.44367
N	-3.5649070158	 0.18138346	 0.6647694792	-0.531778
C	-1.3589949484	-0.8685147251	-0.0252188581	-0.261565
H	-0.4013035216	 1.6746244294	 0.823665244	 0.310941
H	 0.0543164223	-1.5082547926	 1.8013049271	 0.154105
H	-3.9336113877	 0.6520464651	 1.4920121808	 0.246016
H	-1.5272637418	-1.6526741828	-0.747675458	 0.154774
122.3126	132.5233	180.681	275.5011	323.5095	384.3811	428.9285	482.9626	556.69	571.2239	674.2567	737.1389	747.9643	834.0281	868.8513	878.2701	913.5051	967.3168	998.1103	1030.6093	1070.6307	1101.3593	1169.0771	1221.017	1261.9227	1348.9792	1406.1548	1849.7278	2363.7535	3219.3602	3245.1147	3494.3432	3764.3604
OC1(C#N)C2OC(=N)C12	O[C@@]1(C#N)[C@H]2O[C]([NH])[C@@H]12	
InChI=1S/C5H4N2O2/c6-1-5(8)2-3(5)9-4(2)7/h2-3,7-8H	InChI=1S/C5H4N2O2/c6-1-5(8)2-3(5)9-4(2)7/h2-3,7-8H/t2-,3-,5+/m0/s1
