18
gdb 79170	2.81506	1.83835	1.37669	3.7416	75.5	-0.221	0.0299	0.2509	969.501	0.149894	-401.954754	-401.947414	-401.94647	-401.986502	28.774	
C	-0.0358826609	 1.3597749635	-0.1218072721	-0.350074
N	 0.0081631962	-0.0580692003	 0.1427027474	-0.068236
C	-1.1407106625	-0.9221884359	 0.1649050711	 0.000861
C	-1.2455870159	-2.0837227624	-0.8290535642	-0.093776
C	 0.1334257212	-2.4167560506	-1.3950322608	-0.236678
C	 0.7309874962	-2.2504448228	 0.0558784588	-0.183067
C	-0.7250489378	-2.2881138061	 0.593428384	-0.092792
C	 1.1763863044	-0.7900024493	 0.1557034348	 0.407772
O	 2.3036303306	-0.3423477897	 0.1278190086	-0.399656
H	 0.9930013036	 1.7247691827	-0.0984153493	 0.1636
H	-0.470585657	 1.5769668241	-1.1062106574	 0.122771
H	-0.620986588	 1.8892102755	 0.6394230583	 0.122057
H	-2.0620366232	-0.4873011376	 0.5335910719	 0.103292
H	-2.2008276479	-2.3706367281	-1.2533807363	 0.089247
H	 0.1840860313	-3.4631859863	-1.7026519294	 0.115436
H	 0.5478723431	-1.7848964806	-2.1876992481	 0.109139
H	 1.476305849	-2.9697271622	 0.3820503344	 0.093857
H	-1.1163670724	-2.8419897338	 1.4364020983	 0.096246
111.5422	160.7171	171.5253	286.8453	333.6763	433.6049	493.0511	613.276	644.0437	717.542	761.5236	782.9469	810.4854	830.4487	893.3682	923.1554	957.9199	986.8651	1009.7706	1018.478	1028.0015	1055.7723	1102.8767	1131.1958	1148.1439	1158.9933	1198.0922	1231.2293	1244.7767	1270.4762	1293.3724	1323.339	1359.7881	1427.2746	1462.1212	1493.1267	1496.8977	1519.4041	1810.9591	3010.8526	3047.287	3062.1339	3112.6721	3135.8955	3163.9697	3176.4691	3187.175	3202.8909
CN1C2C3CC(C23)C1=O	CN1[C@H]2[C@H]3C[C@H]([C@@H]23)C1=O	
InChI=1S/C7H9NO/c1-8-6-3-2-4(5(3)6)7(8)9/h3-6H,2H2,1H3	InChI=1S/C7H9NO/c1-8-6-3-2-4(5(3)6)7(8)9/h3-6H,2H2,1H3/t3-,4+,5-,6-/m0/s1
