17
gdb 15690	3.02645	1.96829	1.39509	4.4567	64.26	-0.2342	0.0107	0.245	921.0652	0.143741	-401.030606	-401.02286	-401.021915	-401.062908	28.128	
C	 0.1449567579	 1.2954168529	-0.2176025587	-0.324331
N	 0.0236770661	-0.1292587184	 0.0894009705	-0.300361
C	 0.5907962253	-0.5161834665	 1.3817131342	-0.102986
C	 0.3229394491	-1.9943208202	 1.6722760324	-0.265956
C	 1.4772374709	-2.6836701162	 0.9313138344	-0.065198
O	 2.5721706663	-1.7541052012	 0.9913364183	-0.217557
C	 2.125258185	-0.4967537017	 1.2407187179	 0.465905
O	 2.8597704198	 0.4467971609	 1.3059382846	-0.345481
H	 1.1999025601	 1.5669319183	-0.2951051884	 0.158649
H	-0.3339469394	 1.494062538	-1.1802590722	 0.1181
H	-0.3126057538	 1.950856982	 0.5435032604	 0.098286
H	-0.9561793243	-0.3924191696	 0.0808966963	 0.219824
H	 0.2963024372	 0.1513167474	 2.2068666234	 0.081414
H	 0.3937111553	-2.1825883208	 2.7475182723	 0.120299
H	-0.6584094306	-2.3326978495	 1.3297954468	 0.108503
H	 1.8062380649	-3.6158188969	 1.3947192341	 0.122583
H	 1.2336890603	-2.8667933288	-0.1197179663	 0.128307
88.6489	128.2409	191.4468	202.5824	248.446	320.9609	394.0874	493.0668	663.5999	680.2616	727.2779	751.918	865.7456	885.9889	931.4896	966.8302	1018.7897	1063.3115	1088.3653	1136.1496	1152.6704	1175.7874	1194.2859	1222.6132	1248.5192	1306.4132	1340.6262	1353.1537	1404.9578	1459.9021	1473.9055	1488.5681	1497.1733	1516.3251	1523.3932	1874.6423	2958.8273	2974.9625	3058.9718	3062.3038	3083.6136	3105.7911	3121.9298	3133.2449	3515.1808
CNC1CCOC1=O	CN[C@H]1CCOC1=O	
InChI=1S/C5H9NO2/c1-6-4-2-3-8-5(4)7/h4,6H,2-3H2,1H3	InChI=1S/C5H9NO2/c1-6-4-2-3-8-5(4)7/h4,6H,2-3H2,1H3/t4-/m0/s1
