14
gdb 11651	3.42416	1.87795	1.50177	1.886	65.18	-0.2419	0.0103	0.2523	847.1139	0.105408	-382.427686	-382.420565	-382.41962	-382.458757	27.545	
O	 0.1928923839	 1.462433316	 0.0993651593	-0.422948
C	 0.0519283166	 0.0785659998	 0.0337339608	 0.090662
C	-0.1154481209	-0.6774444639	 1.3669135951	 0.005376
C	-1.5384368872	-0.0989831265	 1.5324317586	-0.26218
C	-1.3762653749	-0.5962631345	 0.0679666579	 0.301856
O	-0.6810561279	-1.8038934213	 0.5889584961	-0.334454
C	-2.3466346257	-0.7222581494	-0.9732311363	 0.052953
C	-3.1550665118	-0.7830590283	-1.861589965	-0.351642
H	 0.1695780585	 1.8146643591	-0.7961540448	 0.297111
H	 0.7290142021	-0.4108096962	-0.6740668547	 0.094633
H	 0.6314638002	-0.9161168296	 2.1216804127	 0.103464
H	-2.2157729842	-0.6991866397	 2.1399558081	 0.114626
H	-1.6380793433	 0.9755344371	 1.68498267	 0.120812
H	-3.8729511955	-0.8482883326	-2.6418373279	 0.18973
127.0282	169.8357	274.5249	313.5503	324.9653	488.5227	493.3886	566.6359	581.1464	620.0758	627.0873	688.7105	742.0697	848.4501	908.841	923.1789	958.6475	980.0518	1048.3702	1099.5174	1133.184	1166.5052	1207.2598	1226.1697	1241.443	1278.589	1303.1011	1417.2342	1483.1595	2235.308	3065.8355	3089.8098	3144.2673	3172.1611	3498.9041	3821.3351
OC1C2CC1(O2)C#C	O[C@H]1[C@H]2C[C@@]1(O2)C#C	
InChI=1S/C6H6O2/c1-2-6-3-4(8-6)5(6)7/h1,4-5,7H,3H2	InChI=1S/C6H6O2/c1-2-6-3-4(8-6)5(6)7/h1,4-5,7H,3H2/t4-,5+,6+/m1/s1
