19
gdb 79200	2.37166	1.94664	1.40441	0.8978	74.65	-0.2376	0.0775	0.315	988.1786	0.159691	-422.96827	-422.960475	-422.95953	-423.000064	31.411	
C	-0.2485935236	 1.5984789099	-0.1090886834	-0.434872
C	 0.112133005	 0.1267556451	-0.0226483774	-0.068471
C	 1.434516716	-0.564660446	-0.3393125049	-0.139174
C	 2.7735909887	 0.1067279203	 0.0261946902	 0.055165
C	 3.2428969083	-0.7326402569	 1.2506116374	-0.222537
C	 2.0187356	 0.0309362414	 1.8223699563	-0.005459
O	 2.3859573793	 1.1534924507	 0.9711535893	-0.282814
C	 0.8460996635	-0.6332478824	 1.0579285164	 0.353093
O	 0.3465850587	-1.826376778	 1.5803390592	-0.4683
H	-0.4707991949	 1.8662520785	-1.1485595396	 0.111622
H	-1.1546843977	 1.7969644536	 0.4757561343	 0.105649
H	 0.5483420541	 2.2418033947	 0.2533260834	 0.150399
H	-0.6965608006	-0.5089246084	-0.3862956906	 0.090271
H	 1.4400905704	-1.4247068797	-0.9990628463	 0.096351
H	 3.4411047758	 0.4479284916	-0.7647888145	 0.082467
H	 3.1987954281	-1.8225343303	 1.19407838	 0.109698
H	 4.1880709223	-0.3769289375	 1.6646906563	 0.104957
H	 1.8928832633	 0.2820442119	 2.8761463945	 0.076975
H	-0.3658680665	-1.6094294387	 2.1913265493	 0.284977
140.9717	184.1971	233.1199	252.8854	310.0944	325.9093	415.9968	510.2723	525.6247	567.2092	695.0059	715.7273	728.8806	850.4386	862.7055	881.8922	894.7832	925.6337	973.5382	980.6438	989.3935	1023.8769	1076.6133	1085.1293	1097.912	1126.82	1135.2712	1175.7467	1214.4123	1224.7812	1242.2415	1269.5241	1296.4248	1301.5609	1324.3226	1354.0343	1404.0514	1458.5409	1484.0912	1494.9364	1514.7987	3029.4671	3070.6516	3078.2765	3099.2208	3116.1981	3123.5982	3144.0843	3180.8565	3186.9459	3796.894
CC1C2C3CC(O3)C12O	C[C@H]1[C@H]2[C@@H]3C[C@@H](O3)[C@@]12O	
InChI=1S/C7H10O2/c1-3-6-4-2-5(9-4)7(3,6)8/h3-6,8H,2H2,1H3	InChI=1S/C7H10O2/c1-3-6-4-2-5(9-4)7(3,6)8/h3-6,8H,2H2,1H3/t3-,4-,5+,6-,7-/m0/s1
