19
gdb 78958	2.49414	2.05105	1.54572	1.2555	77.25	-0.2252	0.0765	0.3016	935.1789	0.159647	-385.817925	-385.810576	-385.809632	-385.849127	30.555	
C	-0.056931478	 1.6261888454	 0.0069436681	-0.419567
C	 0.027856869	 0.1093524241	 0.0044736451	-0.043796
C	 1.0765903495	-0.6407255065	-0.8594592306	-0.080795
C	 2.4805988663	-0.2619099035	-0.3227562371	-0.067161
C	 2.6460881487	-1.5348512363	 0.4775981255	-0.110309
C	 2.2071309735	-0.2710995064	 1.1816511726	-0.102039
C	 0.7091045086	-0.6481176565	 1.1780413385	 0.386941
O	 0.1434710265	-0.7934465035	 2.4366662893	-0.488874
C	 1.1399007068	-1.8129363265	 0.1914475392	-0.139122
H	 0.9333000907	 2.0706540592	 0.1508439279	 0.120284
H	-0.4632381937	 2.0081215299	-0.936066782	 0.110861
H	-0.7031546615	 1.9830830922	 0.8165449348	 0.115729
H	-0.9598185918	-0.3414590287	-0.1744979551	 0.055611
H	 0.9422990879	-0.7993852093	-1.9281607507	 0.062277
H	 3.2411881422	 0.3602692709	-0.7761500347	 0.083915
H	 3.5075455223	-2.1699815982	 0.6322871071	 0.086391
H	 2.7388244818	 0.3455132387	 1.8937455224	 0.086805
H	-0.7572260303	-1.1163252263	 2.3269546779	 0.278665
H	 0.6298418813	-2.7678092287	 0.0896647018	 0.064183
187.2914	193.9703	216.7796	285.4795	339.741	359.8987	547.0642	585.602	606.3055	699.0118	748.1928	787.1192	791.166	825.5185	844.4932	862.4606	892.206	929.3438	953.0502	959.1893	989.7329	1010.299	1027.6058	1044.4683	1062.1843	1078.8233	1096.8206	1133.312	1173.9002	1179.6631	1193.4157	1226.2978	1237.5264	1270.0074	1291.2044	1353.0449	1374.4731	1405.4046	1415.3726	1494.166	1498.7437	3000.2362	3028.6709	3091.437	3101.2362	3125.7858	3146.0787	3192.7519	3199.6277	3213.9153	3806.9766
CC1C2C3C4C3C1(O)C24	C[C@H]1[C@H]2[C@@H]3[C@H]4[C@@H]3[C@]1(O)[C@@H]24	
InChI=1S/C8H10O/c1-2-3-4-5-6(3)8(2,9)7(4)5/h2-7,9H,1H3	InChI=1S/C8H10O/c1-2-3-4-5-6(3)8(2,9)7(4)5/h2-7,9H,1H3/t2-,3-,4+,5+,6-,7+,8+/m0/s1
