17
gdb 51963	2.74818	1.23944	1.03442	1.8428	70.22	-0.2475	-0.0012	0.2463	1187.535	0.135726	-455.164875	-455.155787	-455.154843	-455.199945	31.663	
O	 1.6394148844	 0.3019524386	-1.1767755287	-0.328338
C	 0.8788779044	 1.1252389668	-0.7057755717	 0.164597
N	 1.0877666549	 1.7797133456	 0.4666316851	-0.247493
C	 2.3598925838	 1.6430129659	 1.1484007807	-0.275888
C	 3.4912786873	 2.3473039047	 0.3823587942	 0.388841
O	 3.3343554346	 3.4295677272	-0.1355713706	-0.349421
N	 4.7038526698	 1.6769070322	 0.4308476985	-0.090934
C	 4.9442886695	 0.4110529671	-0.2548275964	-0.243645
C	 5.6190139821	 1.678852898	-0.6888680085	-0.221777
H	-0.0814063716	 1.4002610235	-1.1805656198	 0.088411
H	 0.5305211637	 2.5979252748	 0.6540001294	 0.261203
H	 2.2784655925	 2.1013522428	 2.1381475674	 0.138858
H	 2.5857359323	 0.5838299048	 1.280661491	 0.14599
H	 5.5041342653	-0.3292202898	 0.3099031013	 0.124431
H	 4.1324833218	 0.0294355068	-0.8677756795	 0.173694
H	 5.2708011973	 2.1596297924	-1.5984253372	 0.144459
H	 6.6643658978	 1.8417901886	-0.4444469955	 0.127013
44.9563	65.1807	111.4511	152.0648	211.3407	233.7455	303.0145	367.9554	442.578	490.3884	587.0769	627.3376	764.6266	813.5077	837.2525	924.1422	965.0969	988.8003	1029.2528	1037.8257	1061.8969	1128.4918	1142.1027	1147.2285	1181.1599	1185.524	1225.2838	1272.4677	1354.2454	1408.8889	1424.7065	1454.2473	1497.0728	1518.2749	1524.1027	1789.8969	1796.9451	2963.4982	3072.7706	3113.4618	3120.9627	3132.1263	3205.0395	3217.5914	3641.2065
O=CNCC(=O)N1CC1	O=CNCC(=O)N1CC1	
InChI=1S/C5H8N2O2/c8-4-6-3-5(9)7-1-2-7/h4H,1-3H2,(H,6,8)	InChI=1S/C5H8N2O2/c8-4-6-3-5(9)7-1-2-7/h4H,1-3H2,(H,6,8)
