20
gdb 83885	2.19531	1.77632	1.31164	3.136	75.22	-0.2111	0.0703	0.2814	1058.8428	0.17217	-440.241044	-440.232827	-440.231883	-440.27355	32.238	
C	 0.1212768293	 1.3111515752	-0.1541329152	-0.327695
N	-0.0280558888	-0.1170066401	 0.0734870713	-0.084967
C	-1.4079804993	-0.5951408974	-0.0011416391	-0.159433
C	-1.41159548	-2.1199988979	 0.0333866164	-0.0774
O	-0.8414442765	-2.6421161544	 1.2268842653	-0.258521
C	 0.2580997439	-1.9644280288	 1.7495825404	 0.06864
C	 1.5768767819	-1.7682833754	 1.0278364916	 0.063628
O	 1.7267959611	-2.169937827	-0.2931382626	-0.426441
C	 0.6390801756	-0.5802457958	 1.2704886866	-0.123038
H	 1.1827047624	 1.5748317576	-0.1527208803	 0.130888
H	-0.2949192277	 1.5733584205	-1.1319278546	 0.121975
H	-0.3869532987	 1.9242811043	 0.6109394273	 0.103644
H	-2.0294061627	-0.19581285	 0.8202211238	 0.091555
H	-1.8474471171	-0.2609617626	-0.9475233749	 0.104509
H	-2.4384522508	-2.4968777939	 0.0020113669	 0.108227
H	-0.8726122123	-2.5042743843	-0.8421722999	 0.110348
H	 0.319189628	-2.1387621157	 2.8200183541	 0.103741
H	 2.4897260215	-1.8505962967	 1.6130766753	 0.092167
H	 1.2687091666	-1.4834989821	-0.8113077617	 0.274103
H	 0.8806595435	 0.1843299843	 2.0067275794	 0.084069
106.2605	158.6037	198.8622	232.7738	281.3499	335.139	371.9282	429.8756	525.5365	574.7451	596.4057	637.7573	710.1371	740.546	773.6904	827.6199	886.0786	933.1667	1024.3965	1055.3932	1062.785	1080.223	1103.1491	1109.4872	1114.1384	1161.1045	1166.9687	1193.9452	1252.6454	1269.0313	1276.6495	1320.2127	1338.598	1350.9766	1389.1649	1399.5939	1421.1055	1452.9332	1462.689	1488.546	1500.39	1505.4686	1509.8593	2946.4457	2954.6702	3023.4799	3065.2325	3067.2353	3084.5407	3105.9728	3113.3135	3130.6933	3150.0127	3602.3647
CN1CCOC2C(O)C12	CN1CCO[C@H]2[C@@H](O)[C@@H]12	
InChI=1S/C6H11NO2/c1-7-2-3-9-6-4(7)5(6)8/h4-6,8H,2-3H2,1H3	InChI=1S/C6H11NO2/c1-7-2-3-9-6-4(7)5(6)8/h4-6,8H,2-3H2,1H3/t4-,5+,6-/m1/s1
