15
gdb 123614	4.17249	1.5501	1.23295	2.3768	70.19	-0.2331	-0.0162	0.2169	959.2411	0.115838	-416.763311	-416.757179	-416.756235	-416.793771	24.684	
C	 0.0608234005	 1.4824293665	-0.0203084535	-0.235085
C	 1.3199141214	 0.6856031087	 0.0395175649	-0.19351
N	-0.02501712	 0.0180293871	-0.0291118433	-0.101983
C	-0.1861649369	-0.6064315552	-1.373370285	-0.296469
C	 1.1041439146	-0.2648057776	-2.0570178385	 0.358513
C	 1.961493083	 0.4307881057	-1.2711792573	 0.204827
C	 3.0814754708	 0.6246736327	-2.1152571753	-0.140508
N	 2.8913128325	 0.0918190333	-3.3051404128	-0.139255
O	 1.6006273765	-0.4805521303	-3.2710330358	-0.223608
H	-0.3384990321	 1.944977447	 0.8785014738	 0.124408
H	-0.1338159851	 2.0265104323	-0.9427728669	 0.118082
H	 1.8680826019	 0.5763213433	 0.9698517972	 0.109263
H	-0.3268132326	-1.6870264757	-1.2553711716	 0.139361
H	-1.072127541	-0.2100346524	-1.8808627805	 0.138281
H	 4.0219575666	 1.1232120546	-1.9268248854	 0.137683
158.0175	226.9931	355.9001	417.378	455.6584	587.7665	633.3877	688.6375	699.8607	740.9096	794.4721	829.5165	864.3589	908.5517	959.7238	976.3991	1015.5949	1033.5952	1074.9546	1118.7766	1148.5539	1157.2846	1198.9772	1202.5885	1258.1152	1285.8816	1308.2368	1377.6443	1438.4291	1485.8775	1498.2094	1510.4874	1638.5855	3036.7339	3075.6233	3095.9509	3159.8946	3186.3126	3242.9758
C1C2N1CC1=C2C=NO1	C1[C@H]2N1Cc1c2cno1	
InChI=1S/C6H6N2O/c1-4-5-2-8(5)3-6(4)9-7-1/h1,5H,2-3H2	InChI=1S/C6H6N2O/c1-4-5-2-8(5)3-6(4)9-7-1/h1,5H,2-3H2/t5-,8?/m1/s1
