15
gdb 25561	3.95777	0.9576	0.90179	3.1791	69.34	-0.2562	-0.019	0.2372	1295.6911	0.113482	-453.96376	-453.955714	-453.954769	-453.998384	27.818	
N	-0.4718524193	 1.0450842825	 0.054592004	-0.435131
C	-0.6222488345	-0.1710278502	-0.2406900849	 0.122811
O	-0.5756528141	-1.1042005747	 0.740041117	-0.182375
C	-0.8024791247	-2.4559325662	 0.329676633	-0.200005
C	-2.241675706	-2.7424846261	 0.0621720138	 0.378886
N	-2.8500682697	-2.7493534429	-1.0836174287	-0.295679
C	-4.1755475926	-3.0184309485	-0.7726788322	-0.110038
C	-4.2915827206	-3.1620892768	 0.5688072387	-0.033909
O	-3.0558795065	-2.9889984102	 1.118607625	-0.158298
H	-0.515309205	 1.6136776027	-0.7886857898	 0.231661
H	-0.7921248443	-0.5908146364	-1.2400047441	 0.109501
H	-0.2326877302	-2.6917105116	-0.5747757664	 0.140931
H	-0.4377551162	-3.070344566	 1.1545142561	 0.145099
H	-4.9370520327	-3.0902192369	-1.5323995179	 0.132103
H	-5.0974783037	-3.3750791585	 1.2495811965	 0.154442
34.8666	59.711	95.6188	169.1594	276.9137	357.2506	394.553	626.5008	641.1309	687.9748	776.7837	809.7888	822.6314	870.7504	928.8986	937.043	956.7253	1017.1808	1044.52	1110.8626	1115.1641	1149.9872	1167.1681	1228.2371	1277.9982	1326.3691	1379.0021	1409.4739	1429.3969	1480.8616	1542.9097	1611.7041	1747.8128	3045.8183	3062.7048	3131.2979	3267.9799	3302.3685	3517.7105
N=COCC1=NC=CO1	[NH][CH]OCc1ncco1	
InChI=1S/C5H6N2O2/c6-4-8-3-5-7-1-2-9-5/h1-2,4,6H,3H2	InChI=1S/C5H6N2O2/c6-4-8-3-5-7-1-2-9-5/h1-2,4,6H,3H2
