17
gdb 56526	1.97089	1.60795	1.11658	3.6849	74.24	-0.2628	0.0145	0.2773	1135.0077	0.133069	-417.975003	-417.964885	-417.96394	-418.009515	37.159	
C	 0.002094152	 1.5388954304	 0.0791994326	-0.404707
C	 0.0031996592	 0.010134424	 0.004881219	 0.19606
O	 0.667003421	-0.4634681839	 1.1651960677	-0.448178
C	-1.39727187	-0.4809033508	-0.0180532635	 0.267639
N	-2.4898187208	-0.8566130621	-0.0277086931	-0.335419
C	 0.7405558506	-0.5151980396	-1.2745680485	-0.164852
N	 2.08173395	 0.0740473598	-1.3116659192	-0.507895
C	 0.7411911397	-1.9858144672	-1.2659282002	 0.281272
C	 0.7931314351	-3.1867152893	-1.2087106006	-0.430063
H	 1.0308843801	 1.8971159945	 0.0715069263	 0.153194
H	-0.5282207038	 1.9626734471	-0.7768918868	 0.132534
H	-0.4954809671	 1.8556425582	 0.9977670804	 0.141819
H	 0.6577047248	-1.4300782831	 1.1341090425	 0.295526
H	 0.1858877477	-0.1588876786	-2.150353437	 0.128559
H	 2.5905564142	-0.2379938877	-0.4883765046	 0.241858
H	 2.5831542631	-0.2827243833	-2.1189814857	 0.242204
H	 0.8207495644	-4.2488799286	-1.1886337991	 0.210446
74.2326	116.9159	165.4111	192.3635	202.5211	236.61	255.9921	303.5503	340.1234	387.4834	424.0496	458.3218	482.9053	580.8678	591.2466	629.8699	652.14	670.4103	773.362	857.7234	899.5654	944.7135	1005.5134	1083.3464	1090.1347	1139.7345	1188.1668	1234.2135	1309.4943	1373.1701	1397.2618	1409.6708	1481.8725	1485.6322	1646.4839	2220.6532	2354.5733	3047.5912	3065.9938	3142.0527	3169.0667	3494.3639	3498.0828	3576.7424	3756.3771
CC(O)(C#N)C(N)C#C	C[C@@](O)(C#N)[C@@H](N)C#C	
InChI=1S/C6H8N2O/c1-3-5(8)6(2,9)4-7/h1,5,9H,8H2,2H3	InChI=1S/C6H8N2O/c1-3-5(8)6(2,9)4-7/h1,5,9H,8H2,2H3/t5-,6+/m0/s1
