16
gdb 78792	2.17792	1.89221	1.64427	2.9937	67.58	-0.2499	-0.0012	0.2487	924.0329	0.123285	-437.844582	-437.836784	-437.83584	-437.876585	30.024	
C	 0.0329477427	 1.6370326277	-0.0885908256	-0.43426
C	 0.0317921024	 0.1164881508	-0.035055658	-0.034777
C	 0.7689251342	-0.7239289209	-1.0920429101	-0.045336
C	 1.1949299808	-1.742156039	-0.133394822	-0.141753
N	 2.240267659	-0.8104300199	-0.7552231235	-0.204472
C	 2.3419526229	-0.2129269909	 0.567315607	 0.36323
O	 3.3073628873	 0.1675885786	 1.1589167787	-0.340258
C	 0.9405792523	-0.6035441612	 0.992403383	 0.255473
O	 0.5716090827	-0.6840398088	 2.3037527321	-0.466392
H	 1.0428629473	 2.0356391633	-0.2284238088	 0.135683
H	-0.5889021381	 1.997732876	-0.9139586313	 0.12437
H	-0.3690348309	 2.0534163978	 0.8402937906	 0.13609
H	-0.9856893169	-0.2771197672	 0.0622595477	 0.098749
H	 0.5419357695	-0.8261917666	-2.1451085545	 0.116373
H	 1.3298315856	-2.8132064275	-0.1267907646	 0.132885
H	 1.3748617492	-0.6980721622	 2.8413178891	 0.304397
121.4389	192.8107	195.1633	218.4923	263.4566	366.5162	406.9815	495.6061	564.0301	644.0741	656.0489	693.0785	748.7775	829.1693	845.1976	861.7999	882.1828	914.5669	946.4881	995.9859	1036.6256	1082.9979	1111.5313	1138.5779	1149.8984	1204.5653	1241.8305	1330.1091	1355.7385	1371.8214	1414.4253	1422.361	1493.4107	1497.8562	1897.1844	3037.9459	3058.0913	3108.2688	3111.5554	3204.8401	3242.1278	3762.4159
CC1C2C3N2C(=O)C13O	C[C@H]1[C@@H]2[C@H]3N2C(=O)[C@@]13O	
InChI=1S/C6H7NO2/c1-2-3-4-6(2,9)5(8)7(3)4/h2-4,9H,1H3	InChI=1S/C6H7NO2/c1-2-3-4-6(2,9)5(8)7(3)4/h2-4,9H,1H3/t2-,3+,4+,6+,7?/m0/s1
