15
gdb 45452	2.83983	1.70944	1.22544	5.4165	67.61	-0.239	-0.068	0.171	986.6776	0.114225	-453.936633	-453.929463	-453.928519	-453.968581	27.186	
N	-0.0216671116	 1.163218211	 0.4580247736	-0.496841
C	-0.0028563112	-0.0156259741	 0.0129508616	 0.309033
O	 1.1032075347	-0.6897016281	-0.4216966935	-0.253189
C	 0.7929767764	-2.0182458268	-0.8781266473	 0.086421
C	 1.1254967678	-3.1131549303	 0.1545097867	-0.183506
N	-0.2669080613	-3.0215282716	 0.6534419242	-0.312231
C	-0.695522422	-2.2651954312	-0.5538333633	-0.151948
C	-1.2331337941	-0.9007974338	-0.1474437266	 0.3754
O	-2.3713888532	-0.5674360303	 0.0242647399	-0.280875
H	 0.9180165748	 1.5663403423	 0.4674863747	 0.232532
H	 1.1685700734	-2.1289062052	-1.8947280432	 0.106588
H	 1.3793090082	-4.0645923169	-0.3313288273	 0.106718
H	 1.8939308009	-2.8633906326	 0.8920603734	 0.125379
H	-0.7571148871	-3.889684575	 0.8267891215	 0.237688
H	-1.3109361255	-2.7901018173	-1.2880567943	 0.098831
88.6285	128.1241	218.4548	327.8507	363.799	428.1754	489.6127	604.5162	625.61	662.9865	728.8872	817.1281	847.572	885.4504	911.1486	949.3692	972.3107	1010.7302	1033.3457	1064.3152	1077.6498	1147.4954	1172.3609	1219.3354	1238.054	1274.654	1290.8883	1338.1155	1372.0461	1379.4106	1503.7329	1760.3052	1869.0515	3014.9369	3084.9142	3087.2196	3120.5216	3464.4815	3565.9411
N=C1OC2CNC2C1=O	[NH][C]1O[C@H]2CN[C@H]2C1=O	
InChI=1S/C5H6N2O2/c6-5-4(8)3-2(9-5)1-7-3/h2-3,6-7H,1H2	InChI=1S/C5H6N2O2/c6-5-4(8)3-2(9-5)1-7-3/h2-3,6-7H,1H2/t2-,3+/m0/s1
