18
gdb 22932	2.68774	1.51018	1.10068	1.0376	83.27	-0.2178	-0.0319	0.1859	1121.0692	0.147625	-401.915033	-401.906781	-401.905837	-401.947457	32.241	
C	-0.0444480709	 1.512276889	-0.0346981126	-0.47732
C	 0.0548927638	 0.0062869011	-0.0201948958	 0.256972
C	-0.8129951772	-0.8065841529	 0.9252195048	-0.313373
C	 0.6969900468	-0.7962492967	 1.0992671249	-0.130768
C	 1.4092964278	-1.9230379319	 0.4322255733	-0.083525
C	 1.2493500131	-1.8939522826	-0.901704053	-0.169044
C	 0.4592704724	-0.7150025956	-1.2767174186	 0.333302
N	 0.1356973759	-0.2666486869	-2.4312099496	-0.256665
O	 0.6128866216	-1.0970422795	-3.4595276867	-0.39155
H	 0.8965730239	 1.9653142126	-0.3627530011	 0.12348
H	-0.8271023233	 1.8399028873	-0.7255009378	 0.136594
H	-0.2820114251	 1.8993077979	 0.9608721969	 0.108658
H	-1.4027483134	-0.2388273911	 1.6382229898	 0.11448
H	-1.2771515823	-1.721082956	 0.5723383705	 0.119998
H	 1.1197537066	-0.3191401877	 1.9765028065	 0.093287
H	 1.9486770852	-2.6857439305	 0.9823222416	 0.108213
H	 1.6119122768	-2.6165041831	-1.6176962579	 0.121401
H	 0.3046472381	-0.6386262234	-4.2479143552	 0.305859
118.2992	179.6391	206.7602	215.2416	297.27	315.553	362.8203	427.2658	459.245	509.6916	587.444	703.2512	738.6236	774.9332	817.8656	836.9507	852.3213	891.534	962.0078	969.4033	980.1529	1017.6306	1053.2798	1057.5826	1074.0467	1114.9964	1130.8534	1161.384	1253.2832	1312.4625	1366.5369	1379.9403	1412.2709	1417.7896	1477.8539	1483.3037	1500.171	1624.2146	1718.7003	3036.2699	3103.7751	3109.8587	3124.7667	3171.3832	3198.8248	3217.2263	3252.2944	3822.9953
CC12CC1C=CC2=NO	C[C@]12C[C@H]1C=CC2=NO	
InChI=1S/C7H9NO/c1-7-4-5(7)2-3-6(7)8-9/h2-3,5,9H,4H2,1H3	InChI=1S/C7H9NO/c1-7-4-5(7)2-3-6(7)8-9/h2-3,5,9H,4H2,1H3/t5-,7+/m1/s1
