19
gdb 65987	2.26312	1.5065	1.37698	3.8729	74.14	-0.269	0.0108	0.2797	1074.0453	0.158842	-423.042855	-423.034114	-423.03317	-423.076412	32.559	
C	 0.0840680983	 1.5655930899	-0.2579451698	-0.451302
C	-0.0460955078	 0.0573889749	-0.0300115348	 0.087066
C	 0.8808506071	-0.8310190019	-0.8989822671	-0.115721
O	 1.6477089416	-1.2164473995	 0.2897612257	-0.247958
C	 0.8524597417	-0.4604275903	 1.1072776299	 0.445055
O	 0.9363691037	-0.3307224717	 2.2880483989	-0.340471
C	-1.4960314711	-0.3762647894	 0.0503659858	-0.042543
C	-1.919899233	-1.6524960816	 0.7348070568	-0.293082
C	-2.2533212168	-0.317202869	 1.3537146175	-0.271159
H	 1.1311741381	 1.8748918177	-0.3319376398	 0.126238
H	-0.4247820206	 1.8568040612	-1.1829972075	 0.122173
H	-0.3759326603	 2.1121471478	 0.5696526487	 0.143627
H	 0.4137667279	-1.7072621187	-1.3521098194	 0.125766
H	 1.5211356643	-0.3129419168	-1.6161960471	 0.120467
H	-2.0615543983	-0.1075784005	-0.8393893669	 0.087595
H	-2.7181156123	-2.2288561786	 0.2807616737	 0.113303
H	-1.1624544358	-2.255427752	 1.2244999186	 0.132538
H	-1.6973928151	-0.03367688	 2.2401689308	 0.145921
H	-3.2824372017	 0.0228113385	 1.3316463159	 0.112488
73.6459	122.2909	143.4977	213.3575	218.4941	244.6191	328.3218	379.9084	446.9077	532.559	661.4804	742.1546	775.8015	792.4832	834.5468	862.0143	890.8631	933.1155	958.8268	965.022	989.1523	1060.6913	1077.7688	1092.3255	1116.6576	1140.9693	1157.6427	1182.995	1198.1941	1208.1619	1229.9474	1277.3554	1352.9135	1392.8155	1414.5082	1469.74	1492.0543	1494.4366	1504.8008	1514.595	1920.0371	3035.9774	3070.3456	3104.5499	3121.2893	3124.7266	3134.6197	3135.3007	3141.1165	3215.3151	3232.7054
CC1(COC1=O)C1CC1	C[C@]1(COC1=O)C1CC1	
InChI=1S/C7H10O2/c1-7(5-2-3-5)4-9-6(7)8/h5H,2-4H2,1H3	InChI=1S/C7H10O2/c1-7(5-2-3-5)4-9-6(7)8/h5H,2-4H2,1H3/t7-/m0/s1
