21
gdb 99708	2.02235	1.08169	0.77032	1.6063	87.63	-0.2429	0.0572	0.3001	1569.7181	0.179846	-387.047517	-387.036736	-387.035792	-387.085159	37.247	
C	-0.1159464598	 1.4898815378	 0.0942612501	-0.400563
C	-0.0843530711	-0.0297926178	-0.0910388787	-0.162759
C	 0.793537806	-0.5115391136	-1.2783677875	-0.224251
C	 0.9413684021	-1.9660264833	-1.2459043658	 0.055773
C	 1.0537408243	-3.1635636958	-1.18370275	 0.099957
C	 1.1910116921	-4.6116106163	-1.1086213019	-0.500926
C	 0.2431047465	-0.0011635115	-2.6081223604	 0.102258
C	 0.199701805	-0.7939049983	-3.8406185654	-0.187619
O	-0.982512309	-0.5693015486	-3.0642276071	-0.235539
H	 0.8935948636	 1.898655234	 0.218321474	 0.1126
H	-0.5823095424	 2.0001000918	-0.753706617	 0.125342
H	-0.6905201442	 1.753457187	 0.9873601581	 0.117248
H	 0.2981756864	-0.5022823203	 0.8193052196	 0.105205
H	-1.0975704307	-0.4161651451	-0.2439289013	 0.123673
H	 1.7905677069	-0.0581926422	-1.1633304203	 0.099351
H	 2.0029633372	-4.9712695552	-1.7504685477	 0.145654
H	 1.4104199006	-4.9367083673	-0.0855467226	 0.147679
H	 0.2705998075	-5.1147923381	-1.424692173	 0.150435
H	 0.2920290237	 1.0834614751	-2.7138556896	 0.092818
H	 0.226504075	-0.2878723747	-4.8049896673	 0.108537
H	 0.5714983601	-1.8154605975	-3.8268904163	 0.125126
29.313	59.381	80.0865	91.3666	126.9535	205.6628	244.385	256.1969	286.4585	338.8094	394.2536	445.6387	525.3058	606.5079	707.272	811.628	833.4718	873.8735	902.7628	964.0466	1033.1131	1043.866	1053.3279	1054.7118	1084.716	1103.9029	1124.7514	1160.7093	1174.4924	1191.7733	1268.2751	1291.3458	1313.1979	1343.948	1379.8691	1412.4939	1415.0699	1425.9994	1478.7592	1479.6712	1488.5384	1500.2206	1507.6007	1522.2199	2369.665	2984.782	3026.5255	3032.6432	3048.5349	3082.0382	3086.1102	3087.8338	3088.1781	3099.5772	3102.3591	3113.115	3186.1197
CCC(C#CC)C1CO1	CC[C@@H](C#CC)[C@H]1CO1	
InChI=1S/C8H12O/c1-3-5-7(4-2)8-6-9-8/h7-8H,4,6H2,1-2H3	InChI=1S/C8H12O/c1-3-5-7(4-2)8-6-9-8/h7-8H,4,6H2,1-2H3/t7-,8+/m0/s1
