22
gdb 101787	4.50229	0.59881	0.57931	2.2808	79.93	-0.2441	0.036	0.2801	1986.2325	0.191873	-441.53014	-441.51883	-441.517886	-441.567936	40.023	
C	-0.1464734628	 1.5831565802	 0.0314436781	-0.381019
C	 0.0790273146	 0.0707385369	-0.0270056205	-0.186842
C	 0.7415190516	-0.4928550348	 1.2361350038	 0.130874
O	-0.0204509737	-0.1884417934	 2.4070149927	-0.429411
C	 1.0062516615	-1.9985643957	 1.1262181143	-0.197357
C	 1.7207359537	-2.5691946199	 2.3525381585	-0.318069
C	 1.6379424679	-4.0914881634	 2.4221234796	 0.406275
N	 2.6695120908	-4.6926483574	 3.0881823004	-0.52236
O	 0.7248851416	-4.7302209161	 1.9339759713	-0.361696
H	 0.8060977721	 2.120595856	 0.0979018796	 0.112305
H	-0.6700714161	 1.9411510464	-0.8600195767	 0.108857
H	-0.7377452857	 1.8504976489	 0.9110468693	 0.126456
H	-0.8797196221	-0.4471403604	-0.1776938544	 0.088539
H	 0.7001271116	-0.1860604145	-0.8942717974	 0.096596
H	 1.6932583834	 0.0325190066	 1.3977028267	 0.079454
H	-0.8740803144	-0.6282955849	 2.3156767318	 0.278547
H	 0.0567270041	-2.5336294568	 1.0029804902	 0.117568
H	 1.59000972	-2.2011941744	 0.2203625437	 0.098994
H	 2.7664062161	-2.240964204	 2.3897820207	 0.096322
H	 1.2377644066	-2.1705967615	 3.2538801552	 0.141517
H	 3.3593449385	-4.1602896764	 3.588743158	 0.256302
H	 2.5989411907	-5.6802862513	 3.2724740448	 0.258148
33.86	49.6562	85.318	119.8129	142.9273	210.1364	223.8969	235.1074	271.4565	331.8466	345.2814	440.5515	485.6302	517.5895	526.7879	621.3741	669.3283	771.5322	783.4523	841.3394	901.2602	952.0302	1001.341	1020.7256	1067.651	1073.3718	1095.7349	1113.9486	1148.3183	1165.8319	1245.6209	1263.9078	1294.4113	1310.0384	1358.8023	1362.5996	1392.7601	1406.0713	1407.9137	1422.7345	1467.8273	1478.3054	1491.3952	1496.0897	1509.5846	1617.3196	1794.705	3001.2526	3015.7104	3028.0142	3034.9936	3037.3257	3050.2241	3062.1716	3082.5078	3101.4201	3122.0597	3598.6406	3734.7587	3786.3862
CCC(O)CCC(N)=O	CC[C@@H](O)CCC(=O)N	
InChI=1S/C6H13NO2/c1-2-5(8)3-4-6(7)9/h5,8H,2-4H2,1H3,(H2,7,9)	InChI=1S/C6H13NO2/c1-2-5(8)3-4-6(7)9/h5,8H,2-4H2,1H3,(H2,7,9)/t5-/m1/s1
