25
gdb 102165	2.15836	1.05374	0.79879	0.7393	94.76	-0.2565	0.0565	0.313	1562.7472	0.225957	-352.334583	-352.32305	-352.322106	-352.371504	42.635	
C	-1.3459144233	-0.8490109861	-0.2848784223	-0.381644
C	-0.0363953736	-0.0970222551	-0.0138634859	-0.203407
C	 0.6830649568	-0.4483495389	 1.3080164125	 0.038174
C	-0.1513829528	 0.0076045311	 2.5379449407	-0.382576
C	-0.5065780765	 1.4219798062	 2.5236784035	 0.304324
C	-0.7845294257	 2.5920271758	 2.5132592991	-0.444001
C	 1.0857211936	-1.942452839	 1.429014438	 0.044845
C	 1.8717407548	-2.4274478669	 0.1996421489	-0.405196
C	 1.9101308711	-2.2291365252	 2.6961692896	-0.400526
H	-2.0928527447	-0.6625371498	 0.4934719134	 0.1194
H	-1.78191178	-0.5222510325	-1.2340597432	 0.113348
H	-1.196255797	-1.9316537662	-0.3495395034	 0.114939
H	 0.6533646716	-0.2623255401	-0.8477247549	 0.094474
H	-0.2416181009	 0.9785132282	-0.004153783	 0.112135
H	 1.612654363	 0.1386504478	 1.3243469215	 0.075771
H	-1.0661627414	-0.5960416817	 2.6053374293	 0.12659
H	 0.4084532054	-0.1933636079	 3.4566733546	 0.130424
H	-1.0364512701	 3.6233254014	 2.5105727572	 0.191214
H	 0.1634915663	-2.5372910558	 1.4938699196	 0.072824
H	 1.284197276	-2.3800623134	-0.720369253	 0.118415
H	 2.7764293247	-1.8254264595	 0.0504544448	 0.112399
H	 2.1877136974	-3.4670064499	 0.3343484821	 0.109048
H	 1.3496256768	-2.053290285	 3.617885512	 0.115231
H	 2.2335265285	-3.2749851808	 2.7120455112	 0.110243
H	 2.8120831001	-1.6056037169	 2.7275602679	 0.113551
46.1668	59.3131	105.7963	138.138	191.1644	218.0256	230.8027	252.3522	282.7639	349.2987	366.8315	378.8853	385.425	433.0551	514.9997	573.3845	612.0816	631.3527	757.2071	792.1555	854.1566	923.8812	928.5174	945.4988	950.236	970.8112	995.3142	1035.3103	1081.874	1122.8915	1155.2623	1175.2677	1188.657	1229.2734	1281.1922	1306.0525	1330.4282	1348.5427	1357.625	1380.1202	1388.933	1402.5932	1415.0158	1425.3554	1471.0784	1486.1463	1489.574	1500.7605	1502.5915	1504.6166	1509.3446	1521.0515	2233.6933	2993.5448	3006.9249	3026.0213	3027.0927	3032.2302	3037.2354	3049.8268	3076.0028	3076.5421	3088.6896	3095.7155	3102.2325	3105.3002	3111.6605	3117.1609	3506.6432
CCC(CC#C)C(C)C	CC[C@@H](CC#C)C(C)C	
InChI=1S/C9H16/c1-5-7-9(6-2)8(3)4/h1,8-9H,6-7H2,2-4H3	InChI=1S/C9H16/c1-5-7-9(6-2)8(3)4/h1,8-9H,6-7H2,2-4H3/t9-/m0/s1
