18
gdb 33538	2.20855	1.56255	1.12584	2.5008	75.6	-0.2854	0.025	0.3104	1125.7064	0.147775	-401.9283	-401.919853	-401.918909	-401.961756	31.259	
N	 0.3863848755	-1.245961293	-0.0896482596	-0.339983
C	 0.2098647289	-0.1037199187	-0.0473646472	 0.248104
C	-0.0175559133	 1.3375368378	-0.0042195714	 0.139839
C	-0.302659764	 1.8570125084	 1.4477292726	-0.267189
C	 1.1903643833	 2.2527302176	 1.5782052306	-0.21761
C	 1.3302187331	 2.1480545783	 0.0385758292	-0.257639
C	-0.9934159749	 1.7231084891	-1.1032922494	-0.002293
C	-2.4314712897	 1.8736138957	-0.8641313631	-0.175586
O	-1.5750444641	 3.0168138423	-0.9938257961	-0.236359
H	-0.9537460938	 2.731552738	 1.3910443941	 0.133831
H	-0.7075729425	 1.1350761774	 2.1577046437	 0.119959
H	 1.4069985523	 3.2218016465	 2.0301751516	 0.11192
H	 1.7732870903	 1.4856215557	 2.0932210452	 0.123655
H	 2.2139607979	 1.6541014352	-0.3668002713	 0.122388
H	 1.1897251673	 3.1114333849	-0.4568443388	 0.130546
H	-0.6609608701	 1.4613916822	-2.1086474051	 0.112621
H	-3.1329392997	 1.7214024062	-1.6816288364	 0.129847
H	-2.8309096564	 1.7051575464	 0.1341212815	 0.12395
81.2943	104.2342	150.1538	193.9607	206.3252	273.3645	409.926	455.7931	538.1552	571.3138	610.4053	696.2812	796.9211	854.9383	874.6353	889.1182	918.44	949.0883	955.265	975.0148	1055.7874	1079.4449	1096.3209	1154.4997	1166.2524	1180.7603	1202.0792	1216.8117	1265.7913	1270.311	1282.1353	1301.2741	1304.9178	1424.3676	1470.438	1482.8896	1502.2953	1527.713	2348.0156	3074.1831	3075.8785	3080.7031	3095.8289	3106.3147	3122.3952	3140.3459	3147.1993	3186.1102
N#CC1(CCC1)C1CO1	N#CC1(CCC1)[C@H]1CO1	
InChI=1S/C7H9NO/c8-5-7(2-1-3-7)6-4-9-6/h6H,1-4H2	InChI=1S/C7H9NO/c8-5-7(2-1-3-7)6-4-9-6/h6H,1-4H2/t6-/m1/s1
