18
gdb 98637	4.76477	0.85036	0.73778	2.4795	75.07	-0.2504	-0.0418	0.2086	1504.3672	0.145302	-439.118957	-439.109469	-439.108525	-439.154697	33.05	
C	-0.183361546	 1.5155743748	 0.0582426732	-0.372213
C	 0.027705832	 0.0030120621	 0.0476933036	-0.298984
C	 0.7714169368	-0.4860155036	 1.2864182962	 0.393134
O	 1.2663551437	 0.2562918694	 2.1153706916	-0.364718
N	 0.8420060708	-1.843041415	 1.4279234684	-0.09823
C	 0.6523830568	-2.9568614991	 0.4876882333	-0.303486
C	 1.4924395793	-3.8044897344	 1.4745413064	 0.38483
O	 1.8375389128	-4.9432544349	 1.5103721573	-0.263332
C	 1.6868212439	-2.5729804323	 2.3810960602	-0.284582
H	 0.7719673922	 2.0373688237	 0.1461261104	 0.138133
H	-0.6797976496	 1.8411075937	-0.8600986848	 0.107948
H	-0.797414302	 1.817563674	 0.9104503935	 0.131932
H	-0.9280978282	-0.5302493267	-0.0276559649	 0.119147
H	 0.6039156191	-0.2992004517	-0.8380180352	 0.12029
H	-0.3832157728	-3.2917064907	 0.3554322084	 0.144451
H	 1.1164773499	-2.8261535752	-0.4983072092	 0.142409
H	 2.7165430438	-2.2021188861	 2.4490338743	 0.152981
H	 1.2756725974	-2.6639952282	 3.3924573971	 0.150288
38.5809	54.7339	114.9985	139.3901	174.9431	209.0026	277.0199	365.0041	441.0761	449.3426	559.9645	571.5805	686.4457	737.0071	775.0686	813.949	900.5042	982.7882	1026.3792	1047.3416	1063.2509	1097.5599	1102.0668	1105.6442	1157.2067	1171.0752	1265.6923	1280.5838	1285.6769	1337.417	1413.9906	1438.753	1460.4522	1465.6569	1488.6443	1491.1271	1499.2495	1765.9131	1933.8513	3017.2818	3019.6602	3038.2151	3052.6655	3054.3026	3067.5585	3082.5593	3123.7919	3135.2469
CCC(=O)N1CC(=O)C1	CCC(=O)N1CC(=O)C1	
InChI=1S/C6H9NO2/c1-2-6(9)7-3-5(8)4-7/h2-4H2,1H3	InChI=1S/C6H9NO2/c1-2-6(9)7-3-5(8)4-7/h2-4H2,1H3
