22
gdb 87730	3.25113	1.09948	0.94031	1.2705	90.44	-0.2182	0.0164	0.2347	1357.4544	0.194617	-367.211923	-367.202825	-367.201881	-367.245774	35.224	
C	-0.0691202133	 1.5445035179	-0.0669936542	-0.39627
C	-0.0412794928	 0.0406112223	 0.0634432648	-0.054951
N	 1.2464271189	-0.6271144907	-0.1957434482	-0.381842
C	 0.663160161	-0.6647724271	 1.1697005756	 0.326923
C	 1.4190667758	 0.0194788966	 2.3151552391	-0.306347
C	 1.5881501775	-1.0671965231	 3.4179513706	-0.025343
C	 1.2839159516	-0.5607141079	 4.8335873858	-0.394945
C	 0.6626434752	-2.1719282702	 2.9516016945	-0.082451
C	 0.1626412371	-1.9436370036	 1.737454776	-0.156711
H	 0.8549205283	 1.9863449516	 0.3135879057	 0.127045
H	-0.174361522	 1.8395894966	-1.116629328	 0.11834
H	-0.9124299739	 1.9695595005	 0.4886224453	 0.113906
H	-0.9352350455	-0.4579438692	-0.313408335	 0.074115
H	 1.0997749503	-1.5198842996	-0.662582022	 0.222925
H	 2.3718708005	 0.4266412277	 1.9712634152	 0.11236
H	 0.8267529362	 0.8528805043	 2.7108686933	 0.099694
H	 2.6204699409	-1.4472778794	 3.4159010252	 0.08274
H	 0.25899117	-0.1790692816	 4.8988279041	 0.115004
H	 1.3925387063	-1.3602723164	 5.5744291332	 0.11031
H	 1.9649919054	 0.249367581	 5.1149528877	 0.11459
H	 0.461338656	-3.0492761625	 3.5576728573	 0.091421
H	-0.5051271535	-2.5995289272	 1.1875156641	 0.089491
51.0874	154.317	167.4958	188.489	255.5792	285.8441	299.5134	400.9477	426.8748	445.9858	505.1579	585.0387	689.2558	757.4098	791.0882	820.4695	841.3847	874.7706	927.2524	938.781	966.3242	967.3298	1026.3143	1034.1385	1059.6196	1087.5691	1109.7511	1122.296	1125.5	1143.2551	1217.6459	1242.1737	1271.7012	1285.7308	1314.2495	1339.3773	1345.3725	1386.0994	1406.5348	1409.8295	1462.5761	1482.6203	1490.3148	1497.7728	1499.2672	1500.032	1676.5937	2988.4852	3026.0701	3032.8059	3039.2634	3092.3319	3093.4047	3095.7241	3098.6246	3109.1852	3126.2458	3170.2103	3196.405	3481.6921
CC1NC11CC(C)C=C1	C[C@H]1N[C@]21C[C@@H](C)C=C2	
InChI=1S/C8H13N/c1-6-3-4-8(5-6)7(2)9-8/h3-4,6-7,9H,5H2,1-2H3	InChI=1S/C8H13N/c1-6-3-4-8(5-6)7(2)9-8/h3-4,6-7,9H,5H2,1-2H3/t6-,7+,8-/m0/s1
