23
gdb 60534	2.56625	1.17814	1.05302	0.9209	81.27	-0.2623	0.0709	0.3333	1287.5065	0.202683	-425.408954	-425.398409	-425.397464	-425.443901	40.091	
C	 0.0922546938	 1.5012893564	 0.2138293767	-0.434757
C	 0.0418715754	-0.0251304237	 0.0550765246	-0.002718
C	-1.345220867	-0.6029454175	 0.2808550452	 0.079553
C	-2.4313524961	 0.092044666	 0.9854895033	-0.19305
O	-2.4455279877	-0.0280770733	-0.4384261207	-0.236105
C	 0.6627435709	-0.498419522	-1.2938228989	 0.357891
C	 0.6440357423	-2.030379889	-1.4210431524	-0.426032
C	-0.0089418709	 0.1441654347	-2.5160113199	-0.428413
O	 2.030434023	-0.0680082554	-1.2054968665	-0.470616
H	 1.0597987398	 1.8756654444	-0.122919218	 0.136446
H	-0.6958471806	 1.9870065509	-0.3686315772	 0.129995
H	-0.0347718058	 1.7887962818	 1.2614725261	 0.107282
H	 0.685841266	-0.4692979555	 0.8267440124	 0.084428
H	-1.3836169843	-1.6921371044	 0.3115870797	 0.091255
H	-3.1866199521	-0.4926152454	 1.5095990089	 0.11127
H	-2.2832206375	 1.1002231969	 1.3641565256	 0.117402
H	-0.3647550744	-2.4230495817	-1.5765900673	 0.12275
H	 1.2467339328	-2.3346518436	-2.2843516404	 0.10068
H	 1.0742964088	-2.5004845125	-0.531290018	 0.116405
H	 0.1175787981	 1.2291026061	-2.5027734937	 0.122523
H	 0.4454218935	-0.2385553103	-3.4382286537	 0.095399
H	-1.0785271834	-0.0764888859	-2.5474080706	 0.145035
H	 2.4461027252	-0.243209987	-2.0561763253	 0.273377
60.011	95.4017	198.9981	228.8967	242.6103	255.775	265.4528	288.9645	293.7344	329.1362	361.5533	373.0873	412.5926	483.8779	516.5586	629.1676	715.6084	792.0546	860.5261	886.291	919.284	943.9747	971.0633	981.3636	1005.7511	1050.9555	1080.9907	1102.7577	1135.344	1143.2276	1166.0452	1184.4704	1204.2508	1220.3918	1302.1037	1332.2348	1357.5773	1368.9697	1393.9531	1399.1042	1418.3258	1439.1311	1480.8862	1485.4539	1499.8537	1505.7341	1509.7044	1518.6728	1530.1526	3014.1196	3027.7765	3033.6747	3048.8226	3089.7001	3093.3685	3106.2533	3106.6782	3113.2863	3117.2916	3138.5089	3144.4799	3181.4833	3810.0125
CC(C1CO1)C(C)(C)O	C[C@@H]([C@H]1CO1)C(C)(C)O	
InChI=1S/C7H14O2/c1-5(6-4-9-6)7(2,3)8/h5-6,8H,4H2,1-3H3	InChI=1S/C7H14O2/c1-5(6-4-9-6)7(2,3)8/h5-6,8H,4H2,1-3H3/t5-,6+/m0/s1
