16
gdb 32366	4.6526	1.01892	0.84024	4.6078	78.39	-0.207	-0.0419	0.1651	1306.7177	0.124927	-437.909021	-437.900811	-437.899867	-437.942346	30.254	
O	-0.0118262679	 1.4526990623	 0.0070644945	-0.416625
C	 0.0153197576	 0.0389217229	 0.0019895363	-0.163828
C	-1.3934208663	-0.4871241045	 0.0125607747	 0.143612
C	-2.4634992547	 0.3270794539	 0.0238889911	 0.013906
O	-3.7416705219	-0.1179006444	 0.0334893353	-0.241764
C	-4.0481101428	-1.4801180235	 0.0322354961	 0.37816
N	-5.2582992458	-1.8689794539	 0.0413544839	-0.5399
C	-2.9099274296	-2.3786207412	 0.0201418827	-0.149626
C	-1.6468450377	-1.9075071293	 0.0107764218	-0.129947
H	 0.8938363826	 1.7736089969	 0.0000936609	 0.295827
H	 0.5406260381	-0.3486894174	-0.8881699505	 0.103662
H	 0.5561563591	-0.3547894466	 0.8800836617	 0.103644
H	-2.4081595055	 1.4063200977	 0.0264646359	 0.15272
H	-5.8922347176	-1.0694217214	 0.0489445887	 0.21924
H	-3.1429144091	-3.4353918865	 0.0192064952	 0.124916
H	-0.8061313086	-2.5958088648	 0.0017938218	 0.106003
61.1041	97.9033	193.8395	209.4277	279.7094	361.5274	372.2292	455.1822	496.3301	530.2667	635.8128	719.0643	762.2293	799.138	830.6869	858.7964	899.3225	966.5866	1002.7119	1052.2719	1058.261	1089.1002	1168.6647	1185.1756	1228.9987	1240.2171	1248.0921	1296.0921	1374.84	1443.2189	1471.0381	1518.9173	1610.4476	1693.4155	1740.0144	2946.3003	2962.4366	3168.8586	3226.7179	3247.5291	3487.687	3846.6022
OCC1=COC(=N)C=C1	OCC1=COC(=CC1)[NH]	
InChI=1S/C6H7NO2/c7-6-2-1-5(3-8)4-9-6/h1-2,4,7-8H,3H2	InChI=1S/C6H8NO2/c7-6-2-1-5(3-8)4-9-6/h2,4,7-8H,1,3H2
