17
gdb 14835	3.0904	1.64465	1.13807	1.2102	68.05	-0.2444	0.0191	0.2635	1061.2581	0.140791	-400.975402	-400.966643	-400.965699	-401.009356	29.833	
C	 0.3083011308	 1.3282587008	-0.1095030598	-0.248564
O	-0.1525731692	 0.0139896051	 0.1667327452	-0.239865
C	 0.5619709495	-0.6111058596	 1.1896476478	-0.024432
C	 0.1663493706	-2.0829135583	 1.4053083468	-0.110373
O	 1.535388022	-2.5079084721	 1.1255973693	-0.267048
C	 1.9253381625	-1.2060047805	 0.8423758549	 0.448356
N	 3.0110496824	-0.7476174585	 0.4260987823	-0.331787
C	 4.111702432	-1.661046926	 0.1462866498	-0.340593
H	 1.3588690404	 1.3261384859	-0.4217949992	 0.146186
H	-0.3159048513	 1.7172083852	-0.9165822453	 0.128775
H	 0.2017227875	 1.9786076739	 0.7723358168	 0.10632
H	 0.5778521111	 0.0004071529	 2.1043406048	 0.092167
H	-0.1411440253	-2.376280072	 2.4110047783	 0.121279
H	-0.5297029183	-2.4592795935	 0.6526199021	 0.132222
H	 3.8508231613	-2.7202925098	 0.2511974957	 0.128984
H	 4.4704867757	-1.4830466267	-0.8729107033	 0.128773
H	 4.9442800484	-1.4361947768	 0.8222337839	 0.129601
79.5533	95.443	116.3272	148.092	200.7356	213.8132	260.1195	370.177	422.3429	541.681	696.4178	734.4795	828.2108	938.434	967.5605	1027.6639	1059.7887	1088.8706	1112.4089	1131.6027	1155.9454	1167.9327	1184.7312	1190.0074	1244.1492	1260.4253	1328.5103	1389.5546	1438.9708	1480.8	1486.1196	1493.3787	1496.6533	1506.7242	1514.1519	1843.0861	2987.8214	2995.5231	3019.5228	3068.8718	3071.1125	3084.7952	3092.2465	3129.2541	3136.0871
COC1COC1=NC	CO[C@H]1COC1=NC	
InChI=1S/C5H9NO2/c1-6-5-4(7-2)3-8-5/h4H,3H2,1-2H3	InChI=1S/C5H9NO2/c1-6-5-4(7-2)3-8-5/h4H,3H2,1-2H3/t4-/m0/s1
