20
gdb 86885	2.97569	1.17757	0.95877	4.4808	79.15	-0.2758	0.0167	0.2925	1277.1323	0.170999	-403.177733	-403.168506	-403.167562	-403.212453	34.076	
C	-0.0219425524	 1.6141492979	-0.0486031651	-0.402741
C	 0.1047431467	 0.0869717476	-0.0523787431	 0.003499
C	 0.8284781267	-0.43863637	-1.3135666487	-0.27822
C	 2.3166860534	-0.5563605551	-0.8551389774	-0.018531
O	 2.3468681066	-0.2672677512	 0.5325441169	-0.258802
C	 1.0240085699	-0.4669614531	 1.0563674058	 0.12941
C	 0.9512569374	 0.1657254988	 2.4334188701	-0.415853
C	 2.8696209033	-1.8996716735	-1.1233993952	 0.271977
N	 3.2975813989	-2.9512375477	-1.3395944593	-0.325214
H	 0.9618659107	 2.0940111552	-0.0744405163	 0.129471
H	-0.5844375064	 1.952706434	-0.9242515229	 0.116926
H	-0.5474228652	 1.9731293617	 0.8408879871	 0.121804
H	-0.8909793065	-0.3608677779	 0.0259133757	 0.082067
H	 0.4460095064	-1.4170989501	-1.6106618865	 0.130563
H	 0.7297786057	 0.2320679436	-2.1693991338	 0.119078
H	 2.9605527599	 0.1721427247	-1.3585817103	 0.128615
H	 0.8389858135	-1.549937683	 1.1493498766	 0.080725
H	 1.1874439113	 1.2318042017	 2.3948029074	 0.129863
H	-0.0521484785	 0.0428087241	 2.8524884137	 0.120812
H	 1.6641810386	-0.3175206677	 3.1064281854	 0.13455
27.0384	112.8996	173.5746	217.5178	235.7028	254.7515	279.4559	328.3872	358.3941	486.4218	530.6505	585.9519	674.5939	725.9752	774.1431	820.6884	874.1535	897.8991	950.9634	994.8076	1018.3841	1034.8273	1054.2191	1105.3691	1114.0432	1139.9177	1177.4578	1221.0443	1265.7918	1299.8373	1323.2034	1347.4306	1364.99	1381.884	1393.9697	1413.742	1420.6206	1481.8067	1492.7186	1497.2633	1504.0992	1511.104	2353.1004	2964.3792	3037.2827	3049.5292	3056.1059	3058.313	3078.6601	3105.5795	3111.2294	3121.2672	3125.523	3131.2831
CC1CC(OC1C)C#N	C[C@H]1C[C@@H](O[C@H]1C)C#N	
InChI=1S/C7H11NO/c1-5-3-7(4-8)9-6(5)2/h5-7H,3H2,1-2H3	InChI=1S/C7H11NO/c1-5-3-7(4-8)9-6(5)2/h5-7H,3H2,1-2H3/t5-,6-,7+/m0/s1
