23
gdb 120849	3.66806	0.61931	0.56697	2.4334	84.39	-0.2536	0.0853	0.3389	2064.0556	0.202964	-425.398696	-425.387723	-425.386779	-425.436301	38.119	
C	 0.167494569	 1.4795897551	-0.2961934065	-0.383257
C	 0.3341104445	-0.0296051739	-0.1067050867	-0.157966
C	 0.2803057676	-0.4576224899	 1.3674029219	-0.213666
C	 0.4379947606	-1.9516241975	 1.5284116237	 0.059065
O	 1.7505263453	-2.5019011238	 1.3579925267	-0.260222
C	 1.128294871	-2.6213797697	 2.6411328936	 0.042193
C	 1.7585758248	-1.8978189343	 3.8022465828	-0.083535
O	 2.6522969331	-2.7873590515	 4.435286633	-0.232954
C	 3.3021050025	-2.2118466197	 5.5424456924	-0.224645
H	 0.9558055911	 2.0334408112	 0.2257782188	 0.115321
H	 0.2130265208	 1.755050296	-1.3542659493	 0.114456
H	-0.7948327357	 1.8262004247	 0.0973258509	 0.112458
H	-0.4478676267	-0.5606864459	-0.6652083283	 0.095555
H	 1.2903509292	-0.3575593808	-0.5308082526	 0.116932
H	 1.0604853534	 0.0672511097	 1.9281322791	 0.10082
H	-0.6827201821	-0.1581582553	 1.8041036392	 0.097784
H	-0.3396138066	-2.5327205887	 1.0249022657	 0.085095
H	 0.8207425911	-3.6375731031	 2.8938510606	 0.0959
H	 2.2860651866	-0.9988935345	 3.450857777	 0.097447
H	 0.9744215948	-1.5730754325	 4.5104138841	 0.086612
H	 3.9626471131	-2.9724217396	 5.9653859978	 0.129518
H	 3.9061886819	-1.3370629676	 5.2537311091	 0.105466
H	 2.5859916808	-1.8917271383	 6.316781047	 0.101622
48.3925	69.8573	79.806	87.6238	114.8595	178.815	233.5883	244.1217	274.2451	316.6555	351.5759	477.2043	490.4832	550.5832	741.7265	792.5135	854.0052	879.5319	907.9407	944.8925	991.125	1035.0992	1053.2465	1065.9688	1110.6899	1128.276	1154.9628	1175.5623	1181.3919	1189.9322	1228.905	1260.2617	1268.4986	1293.7054	1310.3634	1328.9167	1365.661	1389.2469	1412.4509	1427.5685	1470.9101	1477.0851	1485.7187	1492.9998	1495.7265	1499.3491	1503.1034	1509.6427	1521.7915	2940.8138	2967.793	3007.9332	3011.6511	3016.47	3022.9272	3029.1756	3058.2367	3065.0553	3084.205	3097.6141	3102.8499	3103.5862	3115.8546
CCCC1OC1COC	CCC[C@H]1O[C@H]1COC	
InChI=1S/C7H14O2/c1-3-4-6-7(9-6)5-8-2/h6-7H,3-5H2,1-2H3	InChI=1S/C7H14O2/c1-3-4-6-7(9-6)5-8-2/h6-7H,3-5H2,1-2H3/t6-,7+/m1/s1
