18
gdb 97506	3.89305	0.69887	0.60192	3.632	82.46	-0.244	-0.0212	0.2228	1820.6026	0.144929	-439.072206	-439.061304	-439.060359	-439.109903	36.309	
C	 0.0617399266	 1.4206540947	-0.0351848985	-0.349123
N	 0.0779680917	-0.0304475789	 0.0009844002	-0.093108
C	 0.2113050856	-0.6465433411	 1.3046791224	-0.337878
C	-0.0260936022	-0.722341893	-1.1762770836	 0.293892
O	-0.1322160435	-0.1860641426	-2.2688967235	-0.373579
C	-0.0069823858	-2.1753682156	-1.079141694	-0.097732
C	-0.0006415647	-3.3809569579	-1.1357844476	 0.156446
C	-0.0273801652	-4.8365863467	-1.2709624435	-0.198702
O	 0.3388674117	-5.2914677341	-2.5620900382	-0.396951
H	 0.9927568354	 1.8264339741	 0.38009875	 0.124688
H	-0.0439823681	 1.7381431413	-1.0712277295	 0.172856
H	-0.7757679514	 1.8108144484	 0.5566085827	 0.123903
H	-0.6202462646	-0.3535502155	 1.958696019	 0.126782
H	 0.2136128453	-1.7315733562	 1.2069153937	 0.153358
H	 1.1469160764	-0.3348048662	 1.7868159868	 0.127671
H	 0.6871380607	-5.2926373664	-0.5765002079	 0.145686
H	-1.0268651997	-5.198515473	-0.9784673747	 0.126171
H	-0.1829349282	-4.7995312711	-3.2052571639	 0.29562
29.2203	70.0686	76.993	111.3774	151.5936	168.2963	189.7605	234.2041	309.8809	343.8193	383.4009	386.0367	433.9687	564.0732	602.7627	716.2168	748.7763	909.7617	985.7518	1035.4183	1076.3168	1081.7835	1130.0585	1180.4035	1200.003	1218.4094	1293.3713	1355.5064	1417.8635	1425.3733	1431.1535	1466.9433	1480.3602	1485.5961	1500.0801	1500.769	1542.7781	1728.493	2334.1942	2971.9815	3008.2281	3017.2188	3054.193	3062.647	3062.8983	3154.8814	3169.327	3814.2642
CN(C)C(=O)C#CCO	CN(C)C(=O)C#CCO	
InChI=1S/C6H9NO2/c1-7(2)6(9)4-3-5-8/h8H,5H2,1-2H3	InChI=1S/C6H9NO2/c1-7(2)6(9)4-3-5-8/h8H,5H2,1-2H3
