17
gdb 116734	5.21168	0.6648	0.59391	1.978	85.85	-0.2526	-0.0503	0.2022	1823.0021	0.13382	-418.004766	-417.994981	-417.994037	-418.040205	34.57	
C	 0.0472630848	 1.2373041214	 0.2966633584	-0.39793
C	 0.099127479	-0.2778768096	 0.5075429578	-0.112639
N	 0.6797954158	-1.1093500701	-0.5357547613	-0.269159
C	 1.130312458	-0.5828675918	-1.5932162116	 0.127208
N	 1.6828921054	-1.3922918817	-2.5823453024	-0.349461
C	 2.1973927298	-0.9074307619	-3.7653489216	 0.297885
O	 2.2192221252	 0.2707777927	-4.060019426	-0.342956
C	 2.7162373019	-1.9521429974	-4.6334100263	 0.204655
C	 3.15240624	-2.7958433179	-5.3704944176	-0.383513
H	 1.0471343646	 1.6675456121	 0.1766278061	 0.126273
H	-0.5470096698	 1.5073355191	-0.5826429464	 0.126271
H	-0.4151302415	 1.7112586167	 1.1674624736	 0.117005
H	 0.6506502492	-0.5008475631	 1.4310346575	 0.11607
H	-0.9160676842	-0.6583663878	 0.6845889366	 0.116073
H	 1.150343787	 0.4741509879	-1.8589112481	 0.138862
H	 1.6968304976	-2.3862210056	-2.4013849428	 0.269635
H	 3.541402737	-3.5318363829	-6.0313908558	 0.21572
51.5296	90.4008	91.5406	161.1023	206.8277	236.3332	291.4598	293.9207	354.598	387.2803	487.8072	588.1043	640.587	641.3177	665.5753	685.1155	763.8123	778.942	869.2082	971.0831	1008.0932	1077.0739	1093.2062	1148.0746	1177.6357	1243.1135	1311.8139	1349.6044	1383.4033	1410.4342	1477.1647	1496.8321	1502.8383	1510.7576	1748.9986	1769.5263	2228.0414	3014.6236	3033.7609	3035.6256	3104.4907	3110.3996	3138.2434	3496.1891	3613.702
CCN=CNC(=O)C#C	CCN=CNC(=O)C#C	
InChI=1S/C6H8N2O/c1-3-6(9)8-5-7-4-2/h1,5H,4H2,2H3,(H,7,8,9)	InChI=1S/C6H8N2O/c1-3-6(9)8-5-7-4-2/h1,5H,4H2,2H3,(H,7,8,9)
