21
gdb 73008	2.68742	1.48443	1.16742	1.779	82.99	-0.2229	0.0734	0.2964	1145.7098	0.182334	-387.036543	-387.027984	-387.02704	-387.069567	33.048	
C	-0.0276536884	 1.5926591243	-0.0088146718	-0.503077
C	 0.0127762369	 0.0932040404	 0.0167219268	 0.159056
C	-0.8022624219	-0.8321628902	-0.8900270655	-0.127977
O	-0.9932946255	-1.7982123644	 0.178945433	-0.290274
C	-0.2994299157	-0.9392118997	 1.0875373629	-0.016163
C	 1.1137893678	-0.7338873968	 0.6431123354	 0.319489
C	 2.0519150333	-1.809294764	 0.0826749448	-0.30096
C	 3.0066963435	-1.5152758284	 1.2791321002	-0.20866
C	 2.2069483127	-0.2135924911	 1.5879344726	-0.311175
H	 0.4951615031	 1.9907713246	-0.8875018125	 0.120351
H	-1.0578131029	 1.9654970324	-0.0387718208	 0.120215
H	 0.4548578897	 2.0174769781	 0.8766704218	 0.125558
H	-1.7653512289	-0.4043140151	-1.1945140481	 0.102594
H	-0.2993141022	-1.2678879097	-1.762001305	 0.101538
H	-0.6636195045	-0.8728230853	 2.108341581	 0.096319
H	 1.6356088562	-2.8161022838	 0.0069540515	 0.113395
H	 2.4907932967	-1.5356547694	-0.8826519864	 0.096016
H	 2.9096651197	-2.2566191855	 2.075624339	 0.107243
H	 4.0661464218	-1.392262764	 1.0454670713	 0.097963
H	 2.7065235309	 0.6837897779	 1.2076616841	 0.100133
H	 1.9263409377	-0.0345733002	 2.6300948257	 0.098416
92.1133	166.038	172.2472	177.9113	243.3348	259.793	324.4572	410.3689	512.1109	548.0255	660.6903	708.5583	762.375	807.202	864.0122	902.4227	922.2282	934.7745	955.3271	975.6776	988.1662	996.0596	1024.9033	1062.3241	1114.162	1126.3169	1132.4583	1156.8972	1176.5298	1205.1305	1223.1916	1242.4711	1253.8242	1270.3654	1281.9837	1297.503	1334.9097	1415.3395	1463.1307	1479.3225	1482.3207	1488.8097	1498.9428	1506.1178	1513.2472	3013.1389	3020.6332	3039.6293	3046.4781	3062.1572	3068.1817	3076.0454	3084.8459	3102.4528	3105.3246	3124.8821	3157.389
CC12COC1C21CCC1	C[C@]12CO[C@H]1C12CCC1	
InChI=1S/C8H12O/c1-7-5-9-6(7)8(7)3-2-4-8/h6H,2-5H2,1H3	InChI=1S/C8H12O/c1-7-5-9-6(7)8(7)3-2-4-8/h6H,2-5H2,1H3/t6-,7+/m1/s1
