15
gdb 45954	1.90901	1.74905	1.1986	2.5223	71.6	-0.2409	-0.0553	0.1857	1064.8203	0.110262	-420.634779	-420.626167	-420.625223	-420.670812	30.722	
O	-0.0305276106	 0.1118102983	-0.6788814587	-0.291663
C	 0.0132941744	 1.2177140638	-0.2206519477	 0.394117
C	-1.1740621521	 2.0183961954	 0.325370201	-0.327961
C	-0.7349169212	 3.4951410576	 0.3538371956	-0.327964
C	 0.7023593794	 3.53598039	-0.1768570923	 0.394107
O	 1.2739867761	 4.5014552013	-0.5963877707	-0.291656
C	 1.2841642127	 2.1001254795	-0.1252106416	-0.36174
C	 1.9133456271	 1.8886712575	 1.1683911009	 0.314582
C	 2.3855524649	 1.7276848218	 2.2624745765	-0.459288
H	-2.0472114146	 1.8284604115	-0.3031525958	 0.146199
H	-1.4109610385	 1.6347747814	 1.3230326173	 0.153485
H	-1.3562676852	 4.1535261978	-0.2576622769	 0.146169
H	-0.7334576882	 3.9098890836	 1.3670539888	 0.153485
H	 1.9766117321	 1.9098199564	-0.9489247881	 0.147226
H	 2.8291778036	 1.5778499841	 3.2159087316	 0.210902
7.0416	60.3297	114.7094	145.9607	350.5765	387.9308	397.8322	493.2579	552.1318	561.6855	601.1468	619.7734	638.7737	656.1474	759.2888	778.5433	838.0274	989.349	1000.4545	1009.007	1080.0943	1132.2964	1170.3625	1175.3718	1244.2594	1256.5062	1267.1304	1301.8456	1443.004	1462.4587	1846.277	1880.0687	2227.8534	3060.394	3068.8677	3090.8577	3106.056	3122.0574	3501.4879
O=C1CCC(=O)C1C#C	O=C1CCC(=O)C1C#C	
InChI=1S/C7H6O2/c1-2-5-6(8)3-4-7(5)9/h1,5H,3-4H2	InChI=1S/C7H6O2/c1-2-5-6(8)3-4-7(5)9/h1,5H,3-4H2
