20
gdb 6759	6.24414	0.64204	0.61244	1.8286	81.57	-0.2475	0.0424	0.2899	1891.6453	0.174466	-348.985492	-348.975108	-348.974164	-349.022366	35.964	
C	-0.0086351439	 1.5758578814	 0.1324470334	-0.381775
C	-0.0061689443	 0.0464819776	 0.1666188353	-0.153224
C	-1.3649568807	-0.5512226464	-0.2528071961	-0.335794
C	-1.3863655994	-2.0096275839	-0.2341828668	-0.021091
C	-1.3643151069	-3.2145676716	-0.2036085193	 0.131942
C	-1.3821008154	-4.6809372973	-0.2132655823	-0.016113
C	-2.738855076	-5.2334420632	 0.2478296581	-0.381485
O	-1.0121828171	-5.207715785	-1.4877651744	-0.415875
H	 0.9627428585	 1.9789866039	 0.4338129335	 0.115846
H	-0.2268267475	 1.9507571015	-0.8738428099	 0.115774
H	-0.7648185699	 1.9880890319	 0.8099962256	 0.115627
H	 0.7719462132	-0.3457714318	-0.4974038102	 0.111477
H	 0.2403005189	-0.3087009779	 1.1733845213	 0.109351
H	-2.151951391	-0.1638426996	 0.4086386486	 0.125709
H	-1.621091865	-0.1957937257	-1.2603422837	 0.1254
H	-0.6051787692	-5.0511962721	 0.4670497602	 0.114185
H	-3.5385466516	-4.8809478756	-0.4116725689	 0.114592
H	-2.7158051863	-6.3260912762	 0.2205498439	 0.122747
H	-2.9683184726	-4.9044603683	 1.2656328056	 0.122312
H	-1.5600495838	-4.7673605518	-2.1468971839	 0.280395
18.4709	73.3633	80.3095	138.1239	177.3039	240.8922	251.0661	269.8467	299.0174	341.168	399.2301	476.6329	542.1471	571.3977	735.7282	743.0504	872.4101	881.2202	905.0258	1011.7231	1041.5206	1069.1873	1094.4974	1108.8647	1121.94	1177.6335	1259.0176	1279.922	1305.7585	1321.977	1339.9967	1381.2976	1397.6586	1413.5114	1417.4975	1471.8698	1487.477	1491.4306	1492.4563	1499.1328	1509.0449	2357.8909	3008.5953	3029.8133	3033.531	3034.999	3038.6819	3042.9802	3074.2931	3100.6035	3106.4053	3113.36	3125.2424	3805.4302
CCCC#CC(C)O	CCCC#C[C@@H](C)O	
InChI=1S/C7H12O/c1-3-4-5-6-7(2)8/h7-8H,3-4H2,1-2H3	InChI=1S/C7H12O/c1-3-4-5-6-7(2)8/h7-8H,3-4H2,1-2H3/t7-/m1/s1
