12
gdb 129176	5.40247	1.35886	1.08642	2.3764	63.85	-0.2157	-0.0187	0.197	992.8159	0.079357	-468.780724	-468.774218	-468.773274	-468.811641	24.884	
N	-0.0279911628	 1.2863834981	-0.0193472602	-0.570109
C	-0.0292315673	 0.0313086746	 0.0182414242	 0.450931
N	-1.1417915048	-0.8061515636	 0.0630812014	-0.473693
C	-0.6914609728	-2.1305719183	-0.029086626	 0.165331
C	 0.6548035766	-2.0536136852	-0.0185802726	 0.468971
O	 1.2628680663	-3.2186362326	-0.009771946	-0.225109
N	 0.2156297584	-4.1952221047	-0.0243789641	-0.154562
C	-0.9263148697	-3.5184255886	-0.018777017	-0.086246
O	 1.1364433848	-0.799213799	 0.0286193114	-0.251996
H	 0.9113630428	 1.6703655076	-0.0504598359	 0.245431
H	-2.0399584812	-0.4461618831	-0.2099007728	 0.283873
H	-1.8474872502	-4.0820445552	-0.0239730025	 0.147178
123.2005	214.2246	326.1273	338.817	362.8364	554.9001	587.5163	600.4119	695.2105	727.0554	743.3388	767.4471	803.7603	833.937	863.2166	885.0533	975.9577	1025.8404	1151.1276	1197.701	1295.8371	1312.9163	1397.4452	1484.9187	1562.4563	1683.6496	1818.2514	3254.7119	3563.211	3682.726
N=C1NC2=C(ON=C2)O1	[NH][C@@H]1Nc2c(onc2)O1	
InChI=1S/C4H3N3O2/c5-4-7-2-1-6-9-3(2)8-4/h1H,(H2,5,7)	InChI=1S/C4H4N3O2/c5-4-7-2-1-6-9-3(2)8-4/h1,4-5,7H/t4-/m1/s1
