19
gdb 71816	3.32217	1.58559	1.47035	1.0734	77.14	-0.2351	0.0826	0.3176	963.5229	0.161449	-385.837876	-385.831031	-385.830087	-385.868566	29.512	
O	-0.1487896126	 1.4163474895	-0.0535133865	-0.463738
C	 0.0034928397	 0.0395744063	-0.0696384774	 0.379347
C	 0.6821675473	-0.7342069353	-1.1979379787	-0.311827
C	-0.1870705858	-1.9674807643	-0.7881210658	-0.061173
C	 0.4901336985	-2.8642235004	 0.2663052789	-0.033907
C	 1.7977836379	-2.4408024773	 0.9063847597	-0.306664
C	 0.4875853645	-2.0690083799	 1.5518366414	-0.027399
C	-0.2281612116	-0.7772462448	 1.2149898676	-0.133732
C	-1.1126285737	-0.9717840032	 0.0055003406	-0.134168
H	 0.6226190117	 1.8007888474	 0.3771790141	 0.283202
H	 0.3349416022	-0.3287686999	-2.1530236253	 0.103045
H	 1.7704444116	-0.8368372359	-1.2352365292	 0.086945
H	-0.6245119185	-2.5254345258	-1.6143833425	 0.069749
H	 0.2468090302	-3.9212200814	 0.2614272131	 0.080112
H	 2.3752099493	-3.2247437048	 1.3875548256	 0.104143
H	 2.4092487291	-1.6698202054	 0.4554790247	 0.111198
H	 0.2278409828	-2.5292111382	 2.5001849899	 0.07917
H	-0.6079060086	-0.1613945765	 2.0231256877	 0.084873
H	-2.1862370641	-0.8481410502	-0.0528957477	 0.090823
173.4252	254.8366	339.2262	349.5858	379.923	481.1153	537.0566	579.8432	657.4545	692.1519	731.089	768.6298	802.174	842.9188	874.9303	901.7881	910.2833	928.9699	944.2214	998.8157	1000.2751	1019.2247	1048.2975	1062.9766	1078.856	1093.0008	1107.1409	1125.4997	1167.1872	1173.9274	1204.3853	1227.7038	1255.7822	1274.6654	1304.3217	1315.2067	1339.3908	1378.4829	1431.9015	1486.3825	1524.5212	3048.4852	3093.8383	3122.9924	3131.3726	3148.3908	3164.2864	3176.9429	3199.3581	3220.4105	3794.211
OC12CC3C4CC4C1C23	O[C@@]12C[C@H]3[C@H]4C[C@H]4[C@@H]1[C@@H]23	
InChI=1S/C8H10O/c9-8-2-5-3-1-4(3)6(8)7(5)8/h3-7,9H,1-2H2	InChI=1S/C8H10O/c9-8-2-5-3-1-4(3)6(8)7(5)8/h3-7,9H,1-2H2/t3-,4+,5-,6+,7-,8-/m0/s1
