20
gdb 8319	6.1326	0.81942	0.78474	1.7811	71.89	-0.2546	0.0751	0.3296	1460.651	0.176201	-386.121337	-386.112214	-386.11127	-386.155561	33.186	
O	-0.028755649	 1.4168418423	-0.0072840743	-0.420798
C	 0.0194532558	 0.0011559263	 0.0949501134	-0.070371
C	-1.3895758324	-0.5351905005	-0.1257782544	-0.192654
C	-1.4695891855	-2.053436985	-0.0484599177	 0.036016
C	-1.2724093614	-2.7582230119	 1.3274784065	-0.246224
C	-2.3838398561	-3.7488914333	 0.9334419363	 0.146805
O	-3.2445498563	-4.0972661713	 1.9928267054	-0.43184
C	-2.8669014066	-2.7307650825	-0.136504265	-0.288346
H	 0.8538986448	 1.7604721672	 0.1579074896	 0.28426
H	 0.7022243967	-0.4293592679	-0.6567944087	 0.080749
H	 0.3873454202	-0.3140722953	 1.0848331728	 0.088516
H	-2.0548081383	-0.0876434746	 0.6232001857	 0.101664
H	-1.7424847765	-0.1890526877	-1.1055525277	 0.102861
H	-0.7960547158	-2.4975192334	-0.79161868	 0.066887
H	-0.2893314843	-3.1599749779	 1.5830179603	 0.094581
H	-1.6258758536	-2.1239521433	 2.1471076206	 0.110681
H	-1.9604287109	-4.6445474466	 0.4552236297	 0.063107
H	-3.9026216772	-4.7148213007	 1.6581529641	 0.280412
H	-3.6425507238	-2.0874627871	 0.2916564818	 0.104538
H	-3.2030794599	-3.1076354169	-1.1061507984	 0.089157
63.1983	92.7808	107.8478	170.8312	262.7609	265.4247	326.4173	332.9161	414.101	430.5962	472.3257	616.554	790.6957	806.6137	811.3953	915.8362	956.6404	972.176	999.2617	1023.7887	1056.8678	1074.8057	1094.8139	1127.6509	1174.5297	1199.7484	1216.1402	1236.724	1247.4498	1262.0447	1270.3725	1281.0832	1316.4296	1324.1039	1338.2561	1390.1487	1431.4762	1462.5517	1470.5869	1490.745	1502.9364	1526.9312	2956.7868	2984.1003	2987.083	3023.4952	3028.0213	3046.9451	3054.7474	3068.8043	3106.1727	3113.2072	3815.2636	3830.3292
OCCC1CC(O)C1	OCC[C@H]1C[C@@H](O)C1	
InChI=1S/C6H12O2/c7-2-1-5-3-6(8)4-5/h5-8H,1-4H2	InChI=1S/C6H12O2/c7-2-1-5-3-6(8)4-5/h5-8H,1-4H2/t5-,6+
