23
gdb 107625	2.40011	1.44413	1.08705	1.4974	84.26	-0.2234	0.0766	0.2999	1228.9181	0.205866	-388.288358	-388.279026	-388.278082	-388.322302	35.957	
C	-0.5294341218	 1.5205259981	-0.4008183787	-0.377057
C	 0.0940307281	 0.1652821215	-0.0401650467	-0.280879
C	 0.8482845954	-0.5166909922	-1.1647130083	 0.327292
C	 0.0703356554	-1.2394112366	-2.261727566	-0.38273
C	 0.9090722795	-2.0137793779	-1.2746988766	 0.066258
O	 2.1864152194	-2.4479539836	-1.6580725643	-0.260265
C	 2.8780980009	-1.3216726921	-2.1863762773	-0.102735
C	 2.2575830311	-0.051324897	-1.5528355182	-0.062812
C	 2.3681140975	 1.1598534682	-2.4831036212	-0.409678
H	 0.2314644915	 2.2713459814	-0.6327125217	 0.119906
H	-1.1841329927	 1.4306972336	-1.2739365547	 0.117746
H	-1.1284646857	 1.9056809651	 0.4305346648	 0.110407
H	 0.7672703793	 0.2873670867	 0.8192968021	 0.095551
H	-0.7053754377	-0.5068321725	 0.2972566275	 0.093804
H	-1.0077218578	-1.292789025	-2.1460405768	 0.109069
H	 0.40007377	-1.1718421489	-3.2930696298	 0.112742
H	 0.4483823377	-2.686110423	-0.5595000232	 0.097075
H	 3.9420479627	-1.4399371048	-1.9607324413	 0.108143
H	 2.7719046858	-1.2869763596	-3.2816546799	 0.090979
H	 2.7864299889	 0.1719081528	-0.6163569616	 0.074006
H	 1.7707357145	 1.0140594101	-3.3894745156	 0.117901
H	 2.0253531348	 2.0784210706	-2.0002016186	 0.121385
H	 3.4078120631	 1.320169835	-2.7907210842	 0.11389
61.6803	126.7931	186.5944	203.1003	223.1725	255.0415	300.5532	329.312	367.2908	457.6873	487.2221	600.5148	657.9117	706.2417	772.9852	825.8238	869.8218	912.2967	920.9484	947.1413	969.6357	987.9963	1017.3276	1034.5348	1057.7007	1069.2191	1090.6152	1108.1588	1135.0702	1150.2385	1174.0953	1227.1424	1253.3191	1264.1623	1312.6178	1337.3452	1354.8403	1364.3518	1390.7958	1405.7771	1414.1475	1416.6474	1474.8552	1487.7378	1491.5815	1494.8995	1502.1633	1509.7277	1525.6518	2982.0981	3008.7685	3012.7517	3031.5232	3037.6585	3043.5657	3078.4141	3093.2365	3103.2957	3109.0111	3118.5339	3126.6786	3173.9673	3210.603
CCC12CC1OCC2C	CC[C@]12C[C@H]1OC[C@H]2C	
InChI=1S/C8H14O/c1-3-8-4-7(8)9-5-6(8)2/h6-7H,3-5H2,1-2H3	InChI=1S/C8H14O/c1-3-8-4-7(8)9-5-6(8)2/h6-7H,3-5H2,1-2H3/t6-,7-,8-/m1/s1
