16
gdb 87033	2.15669	1.65569	1.09509	3.5539	73.49	-0.2351	0.0118	0.247	1100.2854	0.122375	-437.876411	-437.867438	-437.866494	-437.909706	34.28	
N	 0.0430413151	 1.2000059809	 0.3462741046	-0.567499
C	-0.0123455537	-0.0467168483	-0.1699037766	 0.430099
O	 0.9565629366	-0.5832384075	-0.7070504596	-0.419105
C	-1.3258843193	-0.7625455469	-0.0393590541	-0.064788
C	-1.6476955771	-1.7445852486	-1.1893318069	-0.348994
C	-1.1883718144	-2.3252502832	 0.0933134821	 0.124829
O	 0.0392455141	-2.9116099589	 0.2579064373	-0.416316
C	-2.405369381	-0.1073389177	 0.6327330338	 0.193105
C	-3.3085209498	 0.4493763101	 1.2040812885	-0.379468
H	 0.9203355623	 1.6919612689	 0.318517439	 0.266195
H	-0.7577941624	 1.6144166899	 0.7925618016	 0.27257
H	-2.6928248477	-1.8233210155	-1.4647487651	 0.133304
H	-0.9366858676	-1.7243490036	-2.0079996901	 0.145291
H	-1.9339096785	-2.7696504187	 0.7441397759	 0.127044
H	 0.6847283993	-2.3395038029	-0.2011098652	 0.309675
H	-4.1125998259	 0.9270240519	 1.7071784948	 0.194057
83.6182	146.7502	162.2726	232.5901	259.7682	280.0526	369.6678	440.7905	467.4185	504.8261	526.4307	541.3024	563.7256	620.4686	645.8889	668.2815	677.4509	735.7694	819.8073	859.1125	927.6909	1002.8311	1071.1922	1098.1123	1113.7997	1165.9885	1237.6184	1258.8728	1370.2955	1399.5625	1449.4864	1494.4581	1607.3443	1738.5552	2221.0598	3139.6993	3178.6007	3239.9745	3498.9918	3562.4483	3598.326	3735.5006
NC(=O)C1(CC1O)C#C	NC(=O)[C@]1(C[C@H]1O)C#C	
InChI=1S/C6H7NO2/c1-2-6(5(7)9)3-4(6)8/h1,4,8H,3H2,(H2,7,9)	InChI=1S/C6H7NO2/c1-2-6(5(7)9)3-4(6)8/h1,4,8H,3H2,(H2,7,9)/t4-,6+/m1/s1
