20
gdb 75244	3.68685	1.20892	1.0657	1.7354	80.77	-0.2374	0.0348	0.2721	1206.7059	0.171915	-403.161302	-403.152858	-403.151913	-403.194242	32.478	
C	 0.0675232403	 1.4655480775	 0.0688208228	-0.451509
C	-0.0270260857	-0.0263801912	-0.0656798061	 0.402347
N	-0.0654588465	-0.5964448202	-1.198126015	-0.311341
C	-0.100937212	-2.0545157935	-1.2614528203	-0.23099
C	 0.3228291551	-2.7130428719	 0.0362756431	 0.322419
C	 0.5860895365	-4.1902747141	 0.108462309	-0.328586
C	 1.7358665373	-3.2139633033	 0.1994400494	-0.295802
C	-0.3348037755	-2.0175500112	 1.1977444223	-0.145079
O	-0.0581387203	-0.609680202	 1.1691144286	-0.261032
H	 0.9545470009	 1.7357503339	 0.6508275956	 0.136221
H	 0.122873274	 1.9186998263	-0.9199123195	 0.142366
H	-0.8021596191	 1.8552200795	 0.6077241644	 0.13419
H	-1.1196918044	-2.3664945105	-1.5358889183	 0.106349
H	 0.5457731614	-2.3758425818	-2.0866733332	 0.104435
H	 0.2943099594	-4.7247272286	 1.0073956129	 0.110675
H	 0.4743227039	-4.7682362867	-0.8034665409	 0.11577
H	 2.4053917066	-3.1320046728	-0.6503413761	 0.118165
H	 2.2207618668	-3.0837897505	 1.161527295	 0.114137
H	-1.4248927239	-2.1562876131	 1.1695558616	 0.107177
H	 0.0325976753	-2.3776173659	 2.1624929748	 0.110088
87.2681	138.8709	162.7796	246.8539	253.135	324.6083	368.8315	375.6469	455.094	542.1178	612.1437	668.0637	774.727	781.3128	842.7882	891.5697	931.3497	962.5905	971.9966	975.8606	1004.1267	1056.011	1059.9518	1074.6239	1081.9117	1090.7159	1124.5853	1185.5077	1235.3685	1236.757	1261.9928	1335.8357	1339.1909	1374.7696	1407.9721	1426.7057	1468.7749	1475.7168	1477.4074	1486.9252	1502.9426	1515.0631	1750.8092	2994.3973	3007.8226	3042.5609	3047.0421	3089.1486	3103.5388	3122.7406	3129.1578	3167.2917	3200.5115	3216.2972
CC1=NCC2(CC2)CO1	CC1=NCC2(CC2)CO1	
InChI=1S/C7H11NO/c1-6-8-4-7(2-3-7)5-9-6/h2-5H2,1H3	InChI=1S/C7H11NO/c1-6-8-4-7(2-3-7)5-9-6/h2-5H2,1H3
