16
gdb 65846	2.65013	1.38104	1.25791	2.0729	71.97	-0.2686	0.0145	0.2831	1075.9975	0.122232	-437.866273	-437.857726	-437.856782	-437.899437	32.032	
C	 0.069643763	 1.5202012063	 0.0045334439	-0.429582
C	 0.0217994903	 0.0035115873	-0.0063822794	 0.204187
O	 0.7284163184	-0.4840673965	-1.1288412885	-0.255789
C	 1.2835570533	-1.7349244074	-0.7452414276	-0.180338
C	 1.4496801286	-1.6067467324	 0.7539928196	 0.382647
N	 2.1261514619	-2.3615620627	 1.4993273294	-0.533941
O	 0.7349920952	-0.5082125284	 1.1422397995	-0.242985
C	-1.3567683731	-0.5204105199	 0.0233215827	 0.375119
C	-2.4812460428	-0.94202105	 0.030254953	-0.473023
H	 1.1132106535	 1.8411491514	 0.0070845213	 0.137109
H	-0.4288951842	 1.9056313016	-0.8872675204	 0.145858
H	-0.4382966127	 1.9045440527	 0.8910296044	 0.143564
H	 0.6135060066	-2.5708759967	-0.9884752172	 0.137277
H	 2.2363616943	-1.8765242767	-1.2566194389	 0.150458
H	 2.0585487627	-2.0719008635	 2.4758671706	 0.230403
H	-3.4752937953	-1.3176061351	 0.0391552477	 0.209034
78.9405	125.7184	188.2303	204.1344	221.5121	302.5614	413.9163	441.9233	506.4867	534.2078	569.6222	633.0788	666.0807	673.4995	683.1975	809.1763	862.3873	893.7374	902.3354	927.2287	1029.1636	1061.5126	1092.0003	1127.6201	1202.1509	1209.4604	1228.4976	1323.6369	1351.607	1406.6061	1477.1507	1479.447	1495.7697	1801.7478	2236.932	3021.1622	3062.42	3128.2909	3148.7165	3151.4964	3483.1523	3497.0399
CC1(OCC(=N)O1)C#C	C[C@]1(OC[C]([NH])O1)C#C	
InChI=1S/C6H7NO2/c1-3-6(2)8-4-5(7)9-6/h1,7H,4H2,2H3	InChI=1S/C6H7NO2/c1-3-6(2)8-4-5(7)9-6/h1,7H,4H2,2H3/t6-/m1/s1
