17
gdb 62763	3.75829	1.25578	1.21596	5.0577	68.04	-0.2765	0.0384	0.3149	1080.5134	0.135228	-458.999421	-458.99127	-458.990326	-459.032043	30.583	
C	-0.0580574771	 1.5601603412	 0.0530238405	-0.469603
C	 0.029375887	 0.0490140575	 0.0356130886	 0.211897
C	-1.1926745351	-0.6620187602	-0.5192644697	-0.452586
C	 1.3385242205	-0.6673854735	-0.241909772	 0.015671
O	 2.5350502845	 0.06861776	-0.0987326532	-0.242947
C	 2.697941294	 0.4381466241	 1.2050934342	 0.490654
O	 3.6080007326	 1.0762682318	 1.6223960452	-0.368928
O	 1.646633361	-0.0064320915	 1.95348549	-0.24296
C	 0.7426983697	-0.7177364457	 1.1344147176	 0.015701
H	 0.834921455	 2.0387863534	 0.457967263	 0.154177
H	-0.2058703694	 1.9408493173	-0.9629347962	 0.129205
H	-0.9102680342	 1.8813480622	 0.6609127926	 0.129187
H	-1.3788876074	-0.3577882273	-1.5546781118	 0.131446
H	-1.0727735629	-1.7504683698	-0.5085673916	 0.12069
H	-2.0818353651	-0.4192224111	 0.0721484984	 0.131445
H	 1.428796234	-1.4922908764	-0.9375648461	 0.123476
H	 0.3198509229	-1.5860169218	 1.6241536205	 0.123476
116.9795	129.7537	178.8561	217.8596	279.8464	282.4518	333.5252	477.961	501.526	546.6963	709.5607	749.4913	770.6026	775.5204	852.1709	869.2049	900.7918	981.2745	995.1634	1024.0016	1069.7521	1078.3491	1104.1323	1124.5489	1144.8295	1164.2967	1239.7004	1316.0717	1343.0915	1410.6064	1417.9793	1442.1232	1479.2258	1490.7875	1501.0549	1512.8314	1931.0499	3030.0135	3042.0547	3099.45	3099.8905	3101.8855	3136.6561	3188.1503	3196.529
CC1(C)C2OC(=O)OC12	CC1(C)[C@H]2OC(=O)O[C@@H]12	
InChI=1S/C6H8O3/c1-6(2)3-4(6)9-5(7)8-3/h3-4H,1-2H3	InChI=1S/C6H8O3/c1-6(2)3-4(6)9-5(7)8-3/h3-4H,1-2H3/t3-,4+
