15
gdb 128039	6.86029	0.78047	0.70506	2.976	73.69	-0.2363	-0.015	0.2213	1536.2746	0.112918	-450.111201	-450.102918	-450.101974	-450.145863	28.836	
C	-0.0481214084	 1.401216078	 0.0057605118	-0.317891
N	 0.159322566	-0.0290312121	-0.1048310338	-0.201431
C	 0.585223772	-0.625409621	 0.9120979587	 0.103458
O	 0.7759681367	-1.9812138918	 0.840042118	-0.241395
C	 1.2933762026	-2.6189022072	 1.9140784968	 0.423004
C	 1.3521730257	-3.9839325353	 2.0781057108	-0.199312
N	 1.9668128172	-4.1096336681	 3.2807708271	-0.14055
N	 2.2643055574	-2.9245616579	 3.8239496514	-0.113292
N	 1.8546802454	-2.0071267446	 2.9844113825	-0.270737
H	 0.5577603862	 1.9144173601	-0.7490504067	 0.132646
H	-1.0957754135	 1.6337794311	-0.2149839068	 0.131622
H	 0.2007540846	 1.8169651577	 0.9945324583	 0.1056
H	 0.8314793899	-0.1914426519	 1.8843423983	 0.136807
H	 1.0281094738	-4.8129897974	 1.4753620019	 0.160791
H	 2.2108573342	-4.9518368798	 3.7772187318	 0.290679
22.1651	77.4113	128.3862	207.1218	293.4946	319.0927	352.1909	409.7432	548.7431	581.9712	686.936	724.7177	765.4594	797.8169	983.3761	986.673	1035.5589	1061.6384	1066.2915	1138.2486	1141.9343	1142.136	1194.4381	1282.116	1345.1622	1355.9864	1388.5206	1448.5311	1481.5277	1502.9997	1506.1051	1612.1942	1780.7818	2980.8388	3066.1818	3084.0834	3103.3265	3302.6124	3658.7004
CN=COC1=CNN=N1	CN=COc1c[nH]nn1	
InChI=1S/C4H6N4O/c1-5-3-9-4-2-6-8-7-4/h2-3H,1H3,(H,6,7,8)	InChI=1S/C4H6N4O/c1-5-3-9-4-2-6-8-7-4/h2-3H,1H3,(H,6,7,8)
