17
gdb 125153	3.04902	1.31291	0.99529	4.2895	77.39	-0.2429	-0.029	0.2139	1194.609	0.135464	-417.987471	-417.979125	-417.978181	-418.021303	30.292	
C	 0.2283810657	 1.5172930789	 0.1537816569	-0.497146
C	 0.0810323428	 0.0422200059	-0.007944967	 0.133281
C	-0.1092976988	-0.7352544951	-1.1176190056	 0.373012
O	-0.1788049267	-2.0121869228	-0.7298535685	-0.238782
N	-0.0216094141	-2.0154423145	 0.7021213484	-0.026488
N	 0.1228794889	-0.8236057674	 1.0640329381	-0.160126
C	-0.2385960039	-0.4243873037	-2.5418667518	-0.116075
C	 0.319164053	-1.3751835349	-3.5883460561	-0.260887
C	-1.1636447409	-1.2452683393	-3.4254009532	-0.26089
H	 1.191621065	 1.7714086137	 0.6077328408	 0.14673
H	 0.1668097754	 2.0243145287	-0.8122273904	 0.129547
H	-0.5558811851	 1.9249338884	 0.7997182966	 0.146727
H	-0.1699073087	 0.6346791836	-2.7612110026	 0.100181
H	 0.7908374231	-0.9305844742	-4.4570485349	 0.124266
H	 0.7910390523	-2.2796745117	-3.2233975763	 0.141191
H	-1.6940187255	-2.0619473105	-2.9503269931	 0.141196
H	-1.7278594128	-0.709910935	-4.1802800514	 0.124264
59.9174	74.0345	159.407	162.7846	266.2876	274.5983	410.8996	459.3864	598.5971	638.1527	689.2223	726.3592	738.2239	799.0356	825.5809	909.1236	914.3867	988.9046	1018.7706	1067.0783	1067.9106	1080.8811	1092.2676	1124.0264	1163.3303	1204.7813	1218.7872	1251.2464	1373.1277	1410.4803	1435.0107	1464.3729	1471.0649	1476.6323	1492.8889	1498.5014	1649.873	3041.5138	3097.8245	3123.3917	3144.0209	3146.9076	3179.0105	3229.4261	3244.0009
CC1=C(ON=N1)C1CC1	Cc1c(onn1)C1CC1	
InChI=1S/C6H8N2O/c1-4-6(5-2-3-5)9-8-7-4/h5H,2-3H2,1H3	InChI=1S/C6H8N2O/c1-4-6(5-2-3-5)9-8-7-4/h5H,2-3H2,1H3
