27
gdb 60339	2.83299	0.80903	0.75169	0.9513	93.27	-0.2447	0.0786	0.3233	1751.3499	0.247708	-390.707904	-390.695675	-390.694731	-390.746121	44.992	
C	 0.1172372663	 1.5076906507	-0.0220170476	-0.393469
C	 0.0123135905	-0.020831731	 0.0384866136	 0.031964
C	 0.7250104296	-0.587823244	 1.2718790093	-0.379466
C	-1.4558037882	-0.4532847587	-0.0046501138	-0.055814
O	-1.5003023657	-1.8633449232	-0.0923780241	-0.291772
C	-2.7787836694	-2.5167873405	-0.0898714105	 0.374743
C	-3.6381422659	-2.0611401644	-1.2805286142	-0.413351
C	-2.4207866424	-3.9995200661	-0.2368899892	-0.396722
C	-3.5179140897	-2.2825722633	 1.2380013622	-0.413058
H	 1.1641250371	 1.8269928661	-0.02658067	 0.112996
H	-0.3595531096	 1.9111550329	-0.9218852898	 0.109348
H	-0.3638255125	 1.9712212678	 0.8478452765	 0.111303
H	 0.4896221092	-0.4397423848	-0.8575191014	 0.079258
H	 0.2983243777	-0.1711455513	 2.1929788061	 0.103564
H	 0.6203663239	-1.6741613581	 1.3124438838	 0.127494
H	 1.7917068931	-0.3410085962	 1.2597084022	 0.104548
H	-1.9693698479	-0.0902106596	 0.9003812661	 0.079414
H	-1.9495325122	 0.0133390728	-0.8708168946	 0.079978
H	-3.0803049569	-2.1709358309	-2.2154719621	 0.117918
H	-4.5448320194	-2.6702717559	-1.3482362928	 0.112588
H	-3.9511699667	-1.0173284807	-1.1853288951	 0.113689
H	-1.7865718703	-4.3191688055	 0.5948046242	 0.116971
H	-3.3212761927	-4.6205322558	-0.2482146385	 0.106785
H	-1.8699788163	-4.1644507675	-1.1671377647	 0.116844
H	-3.8264115065	-1.240084074	 1.3586562106	 0.113329
H	-4.4219070506	-2.898010607	 1.2824007763	 0.112334
H	-2.8762982743	-2.5525590618	 2.0820945177	 0.118582
15.8026	65.6332	126.1013	142.2642	202.4917	216.2685	239.4366	246.0066	259.8991	270.4985	292.9519	336.2774	361.2701	387.9694	423.5154	454.9081	488.5804	511.7561	752.27	833.8681	897.0181	906.0641	918.7117	931.7213	931.8161	952.8795	963.4086	977.4804	1036.4711	1042.8596	1113.1762	1154.9499	1188.0759	1198.9159	1225.7189	1250.5171	1274.3036	1279.0588	1330.5527	1373.6178	1390.6994	1391.8466	1396.7223	1408.6996	1420.5384	1430.8627	1470.8234	1483.5018	1485.8838	1489.1992	1489.639	1498.7519	1500.0504	1502.6935	1512.4059	1514.3755	1524.7926	2966.891	2998.2211	3021.0192	3023.3059	3029.2449	3036.5069	3037.9172	3045.3479	3086.3227	3091.8935	3100.4211	3104.9516	3109.5861	3111.7469	3113.9247	3118.6452	3121.356	3127.4385
CC(C)COC(C)(C)C	CC(C)COC(C)(C)C	
InChI=1S/C8H18O/c1-7(2)6-9-8(3,4)5/h7H,6H2,1-5H3	InChI=1S/C8H18O/c1-7(2)6-9-8(3,4)5/h7H,6H2,1-5H3
