16
gdb 128523	2.09001	1.80237	1.00838	1.8091	68.51	-0.198	0.0399	0.2379	1133.522	0.124636	-471.201178	-471.191932	-471.190987	-471.235114	33.19	
C	 0.17194359	 1.402350962	 0.2325009214	-0.256579
O	-0.2469745009	 0.0871996533	-0.1264609794	-0.294054
C	 0.4872622787	-0.4873512994	-1.1247516315	 0.114901
C	-0.0344908517	-0.9888371645	-2.3035974777	 0.304432
N	-1.3305910364	-0.9226101384	-2.8165732235	-0.610909
N	 0.9964636054	-1.5710201485	-2.9638452005	-0.276745
N	 2.1901104273	-1.4422180766	-2.2997926872	-0.342429
C	 1.8674632036	-0.8042820047	-1.1905179886	 0.340772
O	 2.7803561802	-0.5064887974	-0.2386756068	-0.43612
H	 1.2023274103	 1.4013472304	 0.6041997131	 0.140974
H	 0.1010618515	 2.0870972331	-0.6229432488	 0.110665
H	-0.5009201568	 1.7380118189	 1.0248420074	 0.124403
H	-1.9372481625	-0.4680106693	-2.1433944626	 0.259191
H	-1.7164004363	-1.8346794964	-3.0369026294	 0.250931
H	 1.0028884451	-1.8851034116	-3.917613035	 0.269115
H	 3.6302532127	-0.8414926111	-0.5522883209	 0.301451
73.4844	152.5038	165.4003	194.638	212.7653	246.7817	273.9093	301.8445	387.1726	415.1177	467.4399	572.7943	586.6326	652.1506	714.7451	745.5832	803.3495	823.2269	1048.3814	1074.3075	1105.754	1162.9964	1180.9458	1218.1374	1225.7576	1311.4246	1356.2945	1465.0223	1482.1234	1487.3967	1510.0416	1575.9241	1583.2798	1640.2185	1684.4158	3009.158	3081.8747	3126.3303	3510.4942	3599.2549	3691.7575	3787.8433
COC1=C(N)NN=C1O	COc1c(N)[nH]nc1O	
InChI=1S/C4H7N3O2/c1-9-2-3(5)6-7-4(2)8/h1H3,(H4,5,6,7,8)	InChI=1S/C4H7N3O2/c1-9-2-3(5)6-7-4(2)8/h1H3,(H4,5,6,7,8)
