23
gdb 82971	2.47483	1.77298	1.46001	0.1438	87.29	-0.2609	0.0747	0.3356	1044.4368	0.209092	-351.149529	-351.141794	-351.14085	-351.181851	31.892	
C	-0.3427895391	 1.559495381	 0.0377637383	-0.418962
C	 0.0216712554	 0.0832142059	-0.0222678116	 0.041713
C	 0.6089225549	-0.5383250646	-1.3147932556	-0.042463
C	 1.8206268271	 0.2055734799	-1.945610918	-0.250575
C	 2.8184024616	-0.6146005884	-1.0638412223	-0.001005
C	 3.516058207	 0.130904611	 0.0772802604	-0.213231
C	 2.4121498148	 0.4285783488	 1.1277280774	-0.231842
C	 1.2207840968	-0.5085463561	 0.8067092997	-0.039645
C	 1.611771918	-1.3678257896	-0.4410718042	-0.03959
H	 0.4850720088	 2.2102865185	-0.2599994961	 0.116551
H	-1.1825838533	 1.7751659031	-0.6327344717	 0.110675
H	-0.6439080392	 1.852469258	 1.0501613044	 0.111641
H	-0.8675731769	-0.5012572632	 0.2419813434	 0.068444
H	-0.0999302597	-0.9785281805	-2.0184759684	 0.053855
H	 1.9309646843	-0.0082280397	-3.0115849317	 0.097632
H	 1.8482993373	 1.2928698562	-1.8209742546	 0.089074
H	 3.5113361447	-1.2187138571	-1.6540955661	 0.059498
H	 4.2834195802	-0.5181212673	 0.5157627608	 0.092469
H	 4.0271918781	 1.0372322707	-0.265402245	 0.091619
H	 2.7838493458	 0.2556436478	 2.1419154769	 0.094058
H	 2.1067635143	 1.4786891434	 1.0947370797	 0.09829
H	 0.8957964723	-1.0595106915	 1.6915301265	 0.060279
H	 1.6125712869	-2.4546161264	-0.360162682	 0.051514
49.024	196.5525	233.7133	250.6088	323.1637	395.796	524.6331	562.6758	601.9503	660.2008	724.9634	769.1447	795.017	825.051	858.9309	871.5806	887.9215	912.4161	952.8167	954.58	980.204	991.4155	1040.1362	1053.5033	1090.1172	1120.8391	1124.4668	1141.8406	1162.1975	1164.11	1189.9071	1208.2327	1225.5395	1251.7201	1256.2668	1281.6194	1289.5106	1301.1485	1321.2682	1335.9486	1337.9463	1358.0276	1371.5428	1406.8541	1477.7297	1483.0526	1492.5218	1500.6886	1509.8204	3022.9003	3027.4227	3028.1308	3046.598	3052.4709	3063.8166	3072.5147	3076.1771	3081.203	3086.8639	3091.3669	3098.0967	3101.9681	3112.5025
CC1C2CC3CCC1C23	C[C@H]1[C@H]2C[C@H]3CC[C@@H]1[C@@H]23	
InChI=1S/C9H14/c1-5-7-3-2-6-4-8(5)9(6)7/h5-9H,2-4H2,1H3	InChI=1S/C9H14/c1-5-7-3-2-6-4-8(5)9(6)7/h5-9H,2-4H2,1H3/t5-,6-,7+,8-,9+/m1/s1
