18
gdb 85627	3.27572	1.07676	0.91106	4.5675	81.49	-0.26	-0.0398	0.2202	1294.2933	0.147711	-401.981376	-401.972546	-401.971601	-402.0149	32.92	
C	-0.0807007504	 1.5896741623	 0.0205826805	-0.398944
C	 0.1000841969	 0.0684594077	 0.0001658557	-0.026833
C	 0.8955519434	-0.4664772222	-1.1658252117	-0.149617
C	 1.6901463494	-1.4830041421	-0.8069526541	 0.208402
C	 1.5519499324	-1.7946179537	 0.6730398786	-0.336935
C	 0.8489727786	-0.5284855987	 1.224682567	 0.089346
O	 1.7928615631	 0.4369792514	 1.6605506386	-0.426508
C	 2.5351647692	-2.2278663315	-1.6718761167	 0.19134
N	 3.2348118106	-2.8569992322	-2.3483097796	-0.33853
H	 0.8837506605	 2.0983633627	 0.0564627972	 0.14432
H	-0.6192287078	 1.9185636292	-0.8737782115	 0.112601
H	-0.6589826451	 1.9003620139	 0.895509948	 0.120314
H	-0.8989358738	-0.3937741742	-0.0363453415	 0.096581
H	 0.7994938406	-0.0829810989	-2.1749572766	 0.119946
H	 0.9405261604	-2.6940080396	 0.8214762536	 0.122285
H	 2.5133856289	-1.9727057031	 1.1658007759	 0.116085
H	 0.1509149827	-0.7753466044	 2.0361965447	 0.068402
H	 2.2644940501	 0.0758159235	 2.4172223019	 0.287745
87.0481	115.7109	157.1683	228.3193	263.0974	278.1022	301.8049	392.2063	404.2623	496.7015	566.9843	569.8135	573.168	722.4021	830.4764	877.0484	897.6292	903.9148	936.737	1000.9135	1007.1269	1063.7442	1105.9755	1133.3188	1177.333	1204.9824	1223.5123	1276.4874	1287.7302	1319.4439	1332.1793	1364.158	1404.7923	1427.0266	1472.4017	1492.9598	1501.6599	1675.1377	2335.8312	2979.8913	3006.6673	3031.3713	3046.4561	3077.5383	3110.0801	3143.6974	3207.2324	3825.3375
CC1C=C(CC1O)C#N	C[C@H]1C=C(C[C@H]1O)C#N	
InChI=1S/C7H9NO/c1-5-2-6(4-8)3-7(5)9/h2,5,7,9H,3H2,1H3	InChI=1S/C7H9NO/c1-5-2-6(4-8)3-7(5)9/h2,5,7,9H,3H2,1H3/t5-,7+/m0/s1
