20
gdb 56268	2.91898	0.94255	0.83652	3.4231	75.46	-0.2322	0.0369	0.2691	1444.7396	0.169935	-440.293764	-440.283844	-440.2829	-440.330292	35.583	
N	 0.0629174446	-0.9479419897	 1.12942212	-0.502566
C	-0.1173091934	-0.5434645694	-0.1523337212	 0.35843
O	 0.7541963757	-0.085765503	-0.8658822069	-0.367168
C	-1.5667451883	-0.6528964274	-0.6462700446	-0.17861
O	-2.4292693916	-1.3921400391	 0.1977005157	-0.249668
C	-2.7172871728	-2.719713021	-0.2329278952	-0.096884
C	-1.5994887689	-3.7109326387	-0.0129849225	 0.010014
C	-1.4003298683	-4.3319353486	 1.3471992813	-0.261098
C	-1.9475309381	-5.1611314632	 0.2129454355	-0.275423
H	 0.9824432208	-0.9064080165	 1.5348377962	 0.259625
H	-0.7064200108	-1.3548994736	 1.6338736171	 0.271785
H	-1.9569841588	 0.3703548055	-0.709205602	 0.136968
H	-1.5412532348	-1.0543159259	-1.6665752166	 0.123186
H	-3.5976401851	-3.025058997	 0.3436795976	 0.104233
H	-3.0064313807	-2.7030939171	-1.294964764	 0.101191
H	-0.6994919229	-3.5227032242	-0.5915329551	 0.100464
H	-0.3867174633	-4.5223648571	 1.6815676161	 0.116714
H	-2.0851380466	-4.0470472878	 2.1399605649	 0.11457
H	-2.9979799847	-5.4325035697	 0.2443646739	 0.114958
H	-1.3095769221	-5.9162503066	-0.2316861101	 0.119278
32.0348	54.5562	68.2441	117.6942	197.822	272.9136	292.2351	306.8998	410.7433	469.3196	508.9702	526.3202	552.4468	683.0301	775.8772	807.9018	842.1342	859.8137	917.9503	927.9923	977.2125	1012.1696	1039.965	1055.9517	1080.9361	1092.9215	1124.7645	1137.698	1197.7296	1202.7546	1228.0008	1279.5752	1323.4533	1358.8912	1368.4507	1380.9971	1431.9829	1467.0346	1471.1697	1486.9655	1509.2658	1589.4487	1806.3192	2988.8286	3026.7529	3064.9836	3072.8805	3129.2273	3134.8928	3150.6003	3208.9171	3224.0322	3600.66	3742.4139
NC(=O)COCC1CC1	NC(=O)COCC1CC1	
InChI=1S/C6H11NO2/c7-6(8)4-9-3-5-1-2-5/h5H,1-4H2,(H2,7,8)	InChI=1S/C6H11NO2/c7-6(8)4-9-3-5-1-2-5/h5H,1-4H2,(H2,7,8)
