14
gdb 123690	4.09905	1.56949	1.23023	3.0077	66.44	-0.2586	-0.0175	0.2412	941.4869	0.103326	-436.657522	-436.651503	-436.650558	-436.687909	24.137	
C	-0.0462191233	 1.5153318035	 0.0012675989	-0.380058
C	 1.4390952115	 1.9121287125	-0.0333189078	 0.055494
O	 2.1810513684	 1.5112306554	 1.1166687478	-0.24405
C	 2.3071618918	 0.7073425192	-0.0767327642	-0.167889
C	 1.3892429348	-0.4500636843	-0.0529944915	 0.206731
C	 1.2607716033	-1.7955874442	-0.0426831645	-0.088981
O	-0.0463785393	-2.1239318959	 0.0454627943	-0.175146
N	-0.8267804884	-0.9537681864	 0.1005335733	-0.237109
C	 0.044196235	 0.0112740644	 0.0347644213	 0.370867
H	-0.5507766495	 1.9323222951	 0.8776458671	 0.150109
H	-0.5718083859	 1.8740975358	-0.889994946	 0.135794
H	 1.7325946532	 2.8634393681	-0.4693362379	 0.107242
H	 3.2921395505	 0.6885803041	-0.5300890461	 0.109201
H	 1.9438100881	-2.6289459574	-0.0927479246	 0.157794
161.5357	242.8214	362.4174	443.4639	458.6327	594.6624	622.1904	700.8992	729.5833	781.4487	836.9772	852.1049	855.5263	875.2496	907.1362	957.1509	988.6606	1033.8949	1090.3455	1117.4757	1166.0487	1190.1933	1243.1761	1269.4157	1284.1261	1311.9025	1393.0112	1418.1655	1461.3052	1565.6414	1680.4997	3057.489	3101.9476	3151.0882	3180.6145	3267.9843
C1C2OC2C2=CON=C12	C1[C@H]2O[C@H]2c2conc12	
InChI=1S/C6H5NO2/c1-4-3(2-8-7-4)6-5(1)9-6/h2,5-6H,1H2	InChI=1S/C6H5NO2/c1-4-3(2-8-7-4)6-5(1)9-6/h2,5-6H,1H2/t5-,6+/m1/s1
