15
gdb 132580	3.20806	1.32097	0.94112	1.3002	71.58	-0.2447	-0.0149	0.2298	1166.62	0.112477	-461.977702	-461.969778	-461.968834	-462.010858	29.446	
C	-0.0426574299	 1.5130296919	-0.0265857052	-0.4639
C	 0.0157208312	 0.007603504	 0.0182922262	 0.33657
N	 0.1197350892	-0.6170168189	-1.1647782429	-0.333672
C	 0.1743048462	-1.9501292262	-1.1683540841	-0.102357
C	 0.1278754238	-2.6988263025	-0.0095735129	 0.108825
F	 0.1840044196	-4.0456679807	-0.0281712775	-0.09627
C	 0.0199603248	-2.0692425941	 1.2291783428	 0.303451
O	-0.0278676117	-2.7721890449	 2.3809153579	-0.42933
C	-0.0369049968	-0.6795439758	 1.2325816041	-0.266173
H	 0.8552046768	 1.9133623366	-0.5077886665	 0.141046
H	-0.8984363475	 1.8418734435	-0.6244844728	 0.141048
H	-0.126822889	 1.9468179122	 0.9725051111	 0.118154
H	 0.2585685167	-2.454278082	-2.127914712	 0.122122
H	 0.0249986903	-3.7112585447	 2.1611412091	 0.308825
H	-0.1209961736	-0.1553821585	 2.1772397927	 0.111661
38.7974	143.5221	221.885	283.1628	307.221	376.0195	443.7072	456.9934	482.2016	522.2866	589.4114	639.3591	750.0781	753.5902	798.4533	886.7196	943.3421	960.387	1022.86	1060.3048	1167.8894	1185.992	1273.2642	1297.5914	1338.4305	1350.1797	1409.8114	1451.894	1475.5902	1495.039	1538.4406	1633.737	1652.0538	3042.8137	3103.3475	3127.4224	3161.1464	3201.2755	3785.4114
CC1=NC=C(F)C(O)=C1	Cc1ncc(F)c(O)c1	
InChI=1S/C6H6FNO/c1-4-2-6(9)5(7)3-8-4/h2-3H,1H3,(H,8,9)	InChI=1S/C6H6FNO/c1-4-2-6(9)5(7)3-8-4/h2-3H,1H3,(H,8,9)
