20
gdb 99894	2.21573	1.29707	1.15916	4.1457	78.58	-0.2792	0.034	0.3132	1215.1997	0.168839	-403.146472	-403.136471	-403.135527	-403.181296	36.223	
C	 0.0794885149	 1.4300111533	 0.2714443016	-0.412214
C	 0.1011420178	-0.0667024606	-0.0453493874	-0.188871
C	 0.6967020349	-0.4517990511	-1.4305732491	 0.0442
C	-0.1277282166	 0.128267415	-2.602427113	-0.42176
C	 2.0768226138	 0.0495047926	-1.5219649745	 0.299618
N	 3.1525972042	 0.4632865064	-1.6087510678	-0.364295
C	 0.6887014115	-1.9799294366	-1.5372373955	 0.085524
C	 1.7751607932	-2.7819672853	-2.1101518922	-0.199817
O	 1.5725112891	-2.6995188859	-0.6923465286	-0.237633
H	 1.0843474514	 1.8603206464	 0.2235733079	 0.145808
H	-0.5620028414	 1.9891513015	-0.416315139	 0.119894
H	-0.3053932902	 1.5920633912	 1.2823617872	 0.123739
H	 0.6775577845	-0.5995414758	 0.7173452456	 0.135808
H	-0.9177144683	-0.4720877616	-0.0122275827	 0.101466
H	-0.1265316366	 1.2194843935	-2.5860995812	 0.14344
H	 0.279447812	-0.1980546474	-3.5629288376	 0.137294
H	-1.1637956584	-0.2168543273	-2.5292317407	 0.125029
H	-0.3255078318	-2.3832992612	-1.5777701437	 0.098293
H	 1.5467909973	-3.7485082506	-2.5559161517	 0.120681
H	 2.6741299085	-2.2907631067	-2.4748600677	 0.143797
77.3278	97.9262	143.7903	165.1246	196.1933	218.9533	242.9294	273.8451	322.3015	374.3747	425.4206	465.6951	584.9703	644.1668	655.766	788.4835	841.1817	887.8033	897.887	952.0952	1001.6007	1020.5398	1032.9858	1074.6543	1101.4036	1162.9755	1168.0499	1179.37	1189.6238	1240.7658	1298.3075	1330.8966	1366.3822	1403.7476	1417.9618	1427.1395	1480.911	1492.006	1497.4785	1506.5744	1509.2486	1526.5654	2353.1921	3032.5401	3043.5467	3047.8713	3083.0469	3086.4987	3097.6122	3113.0718	3117.9426	3120.1199	3139.7197	3191.0377
CCC(C)(C#N)C1CO1	CC[C@@](C)(C#N)[C@H]1CO1	
InChI=1S/C7H11NO/c1-3-7(2,5-8)6-4-9-6/h6H,3-4H2,1-2H3	InChI=1S/C7H11NO/c1-3-7(2,5-8)6-4-9-6/h6H,3-4H2,1-2H3/t6-,7+/m1/s1
