21
gdb 83523	2.70828	1.69781	1.54427	1.7057	79.7	-0.2496	0.0669	0.3165	981.957	0.186583	-387.087976	-387.080797	-387.079853	-387.118934	30.762	
O	 0.0865327374	 1.4412608483	-0.0643970892	-0.46779
C	 0.0301386334	 0.0305628262	-0.0024066024	 0.155172
C	 0.4641900387	-0.6114151449	 1.3383064854	-0.058687
C	-0.6458135625	-0.0783843363	 2.2879380547	-0.226333
C	-1.9225399613	-0.0675419264	 1.3730473066	-0.22633
C	-1.3860578116	-0.5957106094	 0.012440814	-0.058685
C	-1.0987332967	-2.0804315014	 0.2384240967	-0.016705
C	 0.1844426396	-2.7064605278	-0.250148575	-0.338523
C	 0.1412171643	-2.0909591954	 1.12696322	-0.016705
H	-0.4291467672	 1.8082272176	 0.6596817142	 0.280973
H	 0.6336649443	-0.2949561368	-0.8484878933	 0.080491
H	 1.4830376004	-0.3839566755	 1.6578081956	 0.062046
H	-0.7668756753	-0.7191122292	 3.1650231254	 0.099657
H	-0.4063372075	 0.9227113654	 2.6629341762	 0.089698
H	-2.7213252204	-0.7025076765	 1.7644888541	 0.099656
H	-2.3433376801	 0.9391635732	 1.2748818865	 0.089699
H	-2.0134699556	-0.3542814268	-0.8477537575	 0.062046
H	-1.9445103305	-2.7293053518	 0.4422877097	 0.082586
H	 0.1875691172	-3.7915537494	-0.2673719197	 0.108036
H	 0.7646749856	-2.2705373505	-1.0546879751	 0.117112
H	 0.2127177779	-2.7476048527	 1.988148543	 0.082586
216.1402	250.7297	253.2633	323.3064	331.6464	365.5006	499.5739	557.7722	578.9928	748.1215	749.986	787.5631	818.0311	831.6741	880.4796	883.8119	887.4553	894.4588	972.3084	976.0572	1007.3798	1020.0992	1043.8584	1063.4682	1065.4652	1081.6957	1117.9295	1125.9602	1158.4913	1187.1995	1198.6492	1203.8683	1234.8318	1271.895	1273.7998	1291.6341	1317.1923	1319.4302	1325.9164	1344.0731	1385.975	1459.134	1496.9185	1511.2071	1516.0798	3035.6596	3049.2021	3082.3246	3093.2675	3094.9041	3100.9308	3121.4349	3139.2995	3150.5957	3160.6672	3214.9228	3828.3779
OC1C2CCC1C1CC21	O[C@H]1[C@H]2CC[C@@H]1[C@H]1C[C@@H]21	
InChI=1S/C8H12O/c9-8-4-1-2-5(8)7-3-6(4)7/h4-9H,1-3H2	InChI=1S/C8H12O/c9-8-4-1-2-5(8)7-3-6(4)7/h4-9H,1-3H2/t4-,5+,6-,7+,8-
