19
gdb 52928	5.88849	0.74924	0.74872	1.4143	87.91	-0.2362	0.0528	0.2889	1587.4197	0.158011	-385.823913	-385.814692	-385.813747	-385.861035	34.112	
C	-0.0163468889	 1.4083365302	 0.0203659703	-0.517793
C	 0.0025491056	-0.046621641	 0.004138251	 0.410599
C	 0.0179265238	-1.2517140821	-0.009777941	-0.443868
C	 0.0371798466	-2.6827552241	-0.0246018132	 0.286213
C	 0.6806881084	-3.6389985654	 1.0399811073	-0.285069
C	 0.0665846539	-4.5583931885	-0.03685982	 0.355996
O	 0.1321466575	-5.9346335585	 0.0290550299	-0.468639
C	-1.1986704116	-3.645520998	-0.022403597	-0.318551
C	 0.669058881	-3.6090438395	-1.1186629999	-0.318516
H	 0.9990721148	 1.8203556435	 0.0152982272	 0.147998
H	-0.5401799556	 1.8098161665	-0.8544414434	 0.14753
H	-0.5235738718	 1.7905665708	 0.9133845874	 0.147997
H	 1.7709514125	-3.6189974193	 1.1074578671	 0.098524
H	 0.207837848	-3.6495153334	 2.0248285931	 0.098509
H	-0.3149865604	-6.3002759125	-0.7417859992	 0.283068
H	-1.802341556	-3.6525681786	 0.8882893499	 0.098671
H	-1.8164132106	-3.6317643635	-0.92490018	 0.089331
H	 0.1818484375	-3.5927255667	-2.0977717063	 0.089328
H	 1.7582261153	-3.58306258	-1.2015105733	 0.098671
2.6022	89.2802	89.6638	236.3089	272.4561	284.4244	378.8569	388.7239	431.0737	515.4052	516.5803	561.3254	561.5556	645.5765	771.9289	781.342	918.8524	956.693	963.6166	975.5352	1031.3444	1042.472	1054.5162	1054.6376	1103.2584	1116.8519	1129.0949	1146.6909	1153.9587	1161.064	1168.8641	1292.3421	1340.6765	1394.4586	1415.7087	1477.7466	1477.9392	1492.4848	1493.0927	1561.5154	2366.9366	3024.4431	3048.4059	3052.0523	3061.8047	3084.6445	3084.7076	3120.1903	3124.8276	3129.8993	3810.3378
CC#CC12CC(O)(C1)C2	CC#C[C@@]12C[C@@](O)(C1)C2	
InChI=1S/C8H10O/c1-2-3-7-4-8(9,5-7)6-7/h9H,4-6H2,1H3	InChI=1S/C8H10O/c1-2-3-7-4-8(9,5-7)6-7/h9H,4-6H2,1H3/t7-,8-
