23
gdb 93685	3.09014	1.17179	1.0916	1.0386	88.41	-0.2426	0.0217	0.2643	1277.5854	0.205065	-388.311517	-388.302023	-388.301079	-388.345045	37.254	
C	 0.0301640372	 1.5458396098	-0.0449493723	-0.398367
C	 0.0060283209	 0.0202133417	 0.0167205441	 0.096434
O	 0.61781967	-0.45303266	-1.1759832865	-0.269662
C	 0.9085437039	-1.8380980638	-1.1360006193	-0.104834
C	 2.0024959552	-2.1610624519	-0.1012577837	 0.225368
C	 2.0783341255	-3.6828674479	 0.1088609478	-0.427465
C	 3.365094283	-1.6252557754	-0.5864622127	-0.410814
C	 1.6092775904	-1.4788523551	 1.1924011734	-0.084731
C	 0.6925060045	-0.5163052101	 1.2477082334	-0.092739
H	 1.0613846074	 1.9100662418	-0.0338010566	 0.125339
H	-0.4519452607	 1.8902524853	-0.9637318975	 0.124285
H	-0.5018640452	 1.9733336887	 0.8102642925	 0.11228
H	-1.051091246	-0.3102269106	 0.031043726	 0.071766
H	-0.0026612608	-2.4138573773	-0.9028191597	 0.081688
H	 1.2327013697	-2.1119393073	-2.1455787017	 0.098826
H	 2.3171162775	-4.1960391291	-0.8297110958	 0.112116
H	 2.8593987778	-3.9373895793	 0.833476253	 0.113297
H	 1.1301135795	-4.0823995677	 0.4834252589	 0.115418
H	 3.2809356964	-0.5694077711	-0.8556180248	 0.128135
H	 4.1281460388	-1.72091106	 0.1932785544	 0.107098
H	 3.711169608	-2.1818544098	-1.4653577943	 0.105537
H	 2.1068536611	-1.8182848923	 2.0992844571	 0.082508
H	 0.4032524158	-0.0691404386	 2.1957494045	 0.088517
76.4272	187.7426	216.0762	234.6529	244.0266	258.7684	311.3306	314.9089	337.6934	404.817	418.7837	475.114	545.6232	596.435	703.0875	749.5644	811.7043	829.8444	898.0381	931.491	944.9709	950.1016	993.742	1005.1413	1039.5052	1053.7226	1099.7372	1130.6284	1140.3496	1196.2553	1197.0671	1234.8766	1286.1102	1315.5373	1339.6681	1358.0005	1389.564	1394.0896	1401.8304	1406.0633	1434.8534	1482.2267	1484.2493	1487.7428	1494.1444	1498.8071	1500.9649	1511.2992	1718.4903	2907.0383	2965.794	3022.9557	3027.5562	3042.7639	3069.2268	3089.0006	3094.1017	3098.9211	3118.4721	3121.285	3124.1965	3133.1221	3162.6717
CC1OCC(C)(C)C=C1	C[C@H]1OCC(C)(C)C=C1	
InChI=1S/C8H14O/c1-7-4-5-8(2,3)6-9-7/h4-5,7H,6H2,1-3H3	InChI=1S/C8H14O/c1-7-4-5-8(2,3)6-9-7/h4-5,7H,6H2,1-3H3/t7-/m1/s1
