19
gdb 32772	3.03431	1.00616	0.80354	0.9222	79.52	-0.1711	0.0524	0.2235	1420.8037	0.160118	-419.231159	-419.221527	-419.220582	-419.266277	35.204	
N	 0.0945618618	 1.467119699	-0.0573866752	-0.610822
C	 0.0564566511	 0.0562520066	-0.0039412875	 0.183022
C	-1.0767030552	-0.7370463824	-0.0183083733	 0.221091
C	-2.5240660459	-0.3740903016	-0.061511167	-0.315563
C	-3.0569620891	-0.1549711167	-1.4817431599	-0.061393
O	-4.4332763414	 0.1792178789	-1.3816394879	-0.420456
N	-0.6397683824	-2.0524126941	-0.0493674261	-0.295323
C	 0.7246802536	-2.0995129214	-0.0361510291	-0.088848
C	 1.191724593	-0.8047712401	-0.0127773282	-0.209622
H	 0.8804040768	 1.8392945326	 0.4622531259	 0.237389
H	-0.752211297	 1.886027898	 0.3094902895	 0.233864
H	-3.1340791811	-1.1489104468	 0.4203467945	 0.102663
H	-2.7033239486	 0.5446660647	 0.5114264186	 0.10668
H	-2.4777651321	 0.6453144114	-1.9662513946	 0.101904
H	-2.9061915462	-1.0715604317	-2.0741843969	 0.082456
H	-4.7639887574	 0.3619672788	-2.2657475087	 0.285821
H	-1.2481304714	-2.8514346505	-0.0307276249	 0.253814
H	 1.25254926	-3.0394456425	-0.0372714977	 0.111421
H	 2.2276277412	-0.5005131421	-0.0086950016	 0.081903
43.432	96.6149	104.4652	177.0494	256.1697	261.2535	274.7454	334.589	366.8189	395.9936	441.4008	633.2989	660.2286	676.4882	703.2051	773.6196	789.982	791.4679	813.3323	915.5444	1000.621	1010.326	1068.5558	1072.1812	1092.6146	1142.067	1206.4311	1230.5797	1243.401	1278.8882	1313.9302	1329.9118	1350.4229	1451.0718	1451.7041	1484.0904	1500.3833	1521.5141	1525.7362	1639.2203	1658.2801	2971.7961	3007.1161	3018.1702	3059.8614	3240.3949	3268.5616	3515.4376	3603.0259	3686.4536	3831.1063
NC1=C(CCO)NC=C1	Nc1c(CCO)[nH]cc1	
InChI=1S/C6H10N2O/c7-5-1-3-8-6(5)2-4-9/h1,3,8-9H,2,4,7H2	InChI=1S/C6H10N2O/c7-5-1-3-8-6(5)2-4-9/h1,3,8-9H,2,4,7H2
