13
gdb 129562	3.3688	1.11114	1.03648	3.9858	64.08	-0.2836	-0.0595	0.2241	1141.0735	0.089714	-448.897386	-448.889491	-448.888547	-448.930854	27.801	
N	-0.2506446382	 1.3708668428	 0.1272093257	-0.498129
C	 0.0133441589	-0.0606477113	-0.0246495493	-0.245512
C	 0.8055405277	-0.3949536453	-1.235356182	 0.264274
N	 1.3971725095	-0.6123677748	-2.204211422	-0.314846
C	 0.6882457913	-0.58779122	 1.2077875641	 0.317762
C	 0.3528668033	-1.5740215924	 2.0775234373	-0.053003
O	 1.2741299399	-1.6407009447	 3.0313077576	-0.157258
N	 2.2383499928	-0.6242805763	 2.7280501937	 0.011642
N	 1.8665384336	-0.0485523968	 1.6775023047	-0.166524
H	 0.6277183786	 1.8576846292	 0.2849025169	 0.262121
H	-0.6473106885	 1.7420253392	-0.731215119	 0.251029
H	-0.9490916979	-0.5755220856	-0.1261321609	 0.145863
H	-0.4705088611	-2.2673141941	 2.1319082431	 0.182581
43.7361	104.6246	175.1972	212.9584	278.6375	343.8881	420.5097	470.3672	591.3431	614.9539	647.0247	733.4465	766.5576	857.5519	867.6333	960.4382	983.5403	1034.5082	1096.4591	1150.2615	1185.9445	1262.9182	1306.3301	1359.1806	1396.1816	1474.9953	1622.0966	1660.195	2348.9823	3051.3718	3284.4186	3495.4997	3577.9581
NC(C#N)C1=CON=N1	N[C@@H](C#N)c1conn1	
InChI=1S/C4H4N4O/c5-1-3(6)4-2-9-8-7-4/h2-3H,6H2	InChI=1S/C4H4N4O/c5-1-3(6)4-2-9-8-7-4/h2-3H,6H2/t3-/m0/s1
