15
gdb 55665	2.09997	1.12864	0.85983	3.7098	67.25	-0.2733	-0.0504	0.2229	1330.5042	0.110293	-454.000173	-453.990485	-453.989541	-454.036446	32.772	
N	-0.0774868622	 1.2903978436	 0.0314708829	-0.524922
C	 0.0396168696	-0.0411364576	 0.268127649	 0.434162
O	 1.0455598638	-0.5465536479	 0.7306183228	-0.354506
C	-1.211781336	-0.8648404465	-0.0449790636	-0.349267
C	-0.8515164735	-2.3442444919	-0.2401072925	-0.222526
C	-1.9023689719	-3.3058869786	 0.3370732962	 0.156016
O	-2.7627130665	-2.9624036139	 1.099378686	-0.229987
C	-0.5620414154	-2.6968318906	-1.6280539917	 0.253304
N	-0.3667651245	-2.989684788	-2.7288851311	-0.310532
H	 0.7076071211	 1.885805003	 0.2388374983	 0.270568
H	-0.8947688332	 1.6943340799	-0.3906468689	 0.266937
H	-1.8879990027	-0.8039802784	 0.8154445154	 0.169774
H	-1.7514565971	-0.4675620277	-0.9085717083	 0.131035
H	 0.07053037	-2.516809425	 0.3423832317	 0.189585
H	-1.7826604916	-4.3604620406	 0.0169151137	 0.12036
34.3899	52.9154	94.9557	164.5543	176.6523	197.7241	251.2114	296.4256	406.456	505.8881	515.7618	561.2736	593.5502	652.5815	664.8602	810.506	868.4513	897.3631	1028.9727	1041.9182	1096.9113	1125.8881	1204.1888	1226.2761	1299.6265	1321.0622	1405.3624	1417.7911	1464.7356	1622.7252	1794.0396	1838.7781	2358.347	2937.2873	2975.9772	3054.6115	3106.0036	3605.759	3741.0554
NC(=O)CC(C=O)C#N	NC(=O)C[C@@H](C=O)C#N	
InChI=1S/C5H6N2O2/c6-2-4(3-8)1-5(7)9/h3-4H,1H2,(H2,7,9)	InChI=1S/C5H6N2O2/c6-2-4(3-8)1-5(7)9/h3-4H,1H2,(H2,7,9)/t4-/m1/s1
