14
gdb 13302	5.83436	1.29353	1.13252	3.0099	61.76	-0.2677	0.0058	0.2735	994.134	0.108718	-378.748832	-378.741723	-378.740778	-378.781166	24.895	
N	-0.0515742091	-1.1544059489	 0.0951611409	-0.296368
C	-0.0088994645	-0.0006673009	 0.1290485133	 0.269497
C	 0.0466179852	 1.4590940762	 0.15340029	-0.35687
C	 1.4525777214	 2.0149801522	-0.1170291138	 0.092219
C	 1.5309243109	 3.5641345955	-0.0252608314	-0.206282
N	 2.3627376771	 3.832972056	 1.1589476281	-0.252913
C	 2.7435151413	 2.7000627188	 1.5750477102	 0.122988
O	 2.3473713383	 1.5721260617	 0.9308702643	-0.219812
H	-0.6423939354	 1.8510366727	-0.603869161	 0.159829
H	-0.303622749	 1.8180472339	 1.1277135642	 0.164371
H	 1.8347081285	 1.6192515055	-1.0607894928	 0.119437
H	 1.9930755338	 4.0097346449	-0.9116654757	 0.129812
H	 0.5439609148	 4.0248633997	 0.0942770783	 0.12131
H	 3.3854804168	 2.5222865126	 2.4301311853	 0.15278
56.6431	92.0645	146.7077	320.6294	383.8142	394.584	492.8258	560.0138	749.1867	825.8362	879.2556	898.7247	951.0324	963.7755	979.8593	1026.0561	1043.7884	1099.425	1120.0392	1203.518	1251.1898	1294.495	1314.9821	1322.1991	1358.7663	1390.8107	1454.0523	1501.1154	1710.92	2368.0079	3041.1397	3045.9449	3073.0197	3084.1188	3097.8119	3225.255
N#CCC1CN=CO1	N#CC[C@H]1CN=CO1	
InChI=1S/C5H6N2O/c6-2-1-5-3-7-4-8-5/h4-5H,1,3H2	InChI=1S/C5H6N2O/c6-2-1-5-3-7-4-8-5/h4-5H,1,3H2/t5-/m0/s1
