20
gdb 30691	3.1037	1.21709	0.95404	2.6709	82.79	-0.1681	0.0402	0.2084	1276.918	0.171963	-399.358897	-399.349545	-399.3486	-399.393319	34.336	
C	-0.129288569	 1.5047493485	 0.0227540547	-0.382846
C	-0.0309167249	-0.0290789221	-0.0292089493	-0.152668
N	-1.2973788252	-0.736174973	 0.0178103528	-0.14821
C	-2.1007344511	-0.7382205107	-1.1911912744	-0.337189
C	-1.9484225862	-0.8197530611	 1.2383709759	 0.377753
C	-1.4695569966	-0.5249423467	 2.5011735242	-0.223709
N	-2.5050127463	-0.8680641601	 3.36098464	-0.24272
C	-3.5293019317	-1.3211596029	 2.6032246266	 0.016697
N	-3.2347788023	-1.3047279273	 1.3205855263	-0.337672
H	 0.8695851945	 1.9532000739	 0.0036783292	 0.109608
H	-0.687835051	 1.8938589077	-0.8342304338	 0.120547
H	-0.6359735981	 1.8347410098	 0.9341411197	 0.125126
H	 0.4810005601	-0.3309433048	-0.9506874806	 0.098463
H	 0.5912478381	-0.3901072334	 0.7989674747	 0.10437
H	-1.4705733458	-1.032939946	-2.0369445125	 0.108051
H	-2.9112309572	-1.4583618805	-1.0817557619	 0.156435
H	-2.5505013838	 0.2413686826	-1.4226890553	 0.10198
H	-0.5406489436	-0.1253345781	 2.8655238085	 0.117694
H	-2.4941379672	-0.7769876157	 4.3619894558	 0.262333
H	-4.4664742526	-1.6491183801	 3.0272658092	 0.125959
65.3478	98.6551	126.0952	157.3669	201.4906	258.1423	299.5424	383.2815	418.9163	459.3483	527.6009	602.7603	608.729	651.0565	736.6823	793.9799	798.4727	878.7373	948.3402	956.4891	1027.7201	1083.2172	1092.5666	1107.6611	1148.6	1154.7221	1209.4438	1227.7387	1271.4283	1325.8499	1361.5648	1386.4837	1389.81	1400.8077	1448.7331	1482.3372	1486.9415	1488.6686	1495.2742	1508.7936	1514.7815	1534.711	1622.8658	2966.2206	3022.1524	3037.4051	3057.8416	3065.0237	3105.1292	3117.6343	3150.1126	3251.427	3292.186	3676.2337
CCN(C)C1=CNC=N1	CCN(C)c1c[nH]cn1	
InChI=1S/C6H11N3/c1-3-9(2)6-4-7-5-8-6/h4-5H,3H2,1-2H3,(H,7,8)	InChI=1S/C6H11N3/c1-3-9(2)6-4-7-5-8-6/h4-5H,3H2,1-2H3,(H,7,8)
