19
gdb 64104	3.28096	1.20745	1.10039	3.7983	71.41	-0.2377	0.0541	0.2918	1154.1467	0.160463	-456.397909	-456.388869	-456.387925	-456.431262	34.44	
C	-0.237902592	 1.5765934312	-0.0179933392	-0.426976
C	-0.0305333008	 0.0609228476	-0.0060229602	 0.332678
O	-1.2767489091	-0.6256103411	 0.0558464688	-0.463892
C	 0.756350351	-0.4239995778	-1.2393428697	-0.196915
N	 2.1368527026	 0.0212787816	-1.165520356	-0.34373
C	 2.873881575	 0.052215953	 0.0021570309	 0.437024
O	 4.0862989565	 0.1755168786	 0.0086584759	-0.41741
N	 2.1253775308	 0.0136643137	 1.1601041868	-0.346952
C	 0.7360406544	-0.4028058528	 1.2403023367	-0.174027
H	 0.7164526137	 2.106871384	-0.0123196471	 0.149242
H	-0.785346221	 1.88149637	-0.9181758029	 0.105589
H	-0.817163412	 1.883018875	 0.8576880368	 0.124131
H	-1.872525389	-0.220538326	-0.5828542349	 0.281555
H	 0.6652299633	-1.5193635131	-1.2823579639	 0.110734
H	 0.3021517785	-0.0210022194	-2.1523713067	 0.098364
H	 2.7161140092	-0.0590761568	-1.9859470052	 0.250844
H	 2.6949772577	-0.0491535539	 1.9883504708	 0.251896
H	 0.2794946447	 0.0331092662	 2.1343686004	 0.114029
H	 0.6262549866	-1.4945604003	 1.3151516988	 0.113818
98.6094	115.1237	200.7718	215.0797	249.4758	294.5404	339.7181	380.1924	443.8404	448.9046	474.6368	490.5455	562.8837	590.7549	720.06	763.4066	805.5401	873.1069	946.7307	952.5934	968.1598	1032.0919	1076.208	1136.66	1167.0127	1173.9691	1207.9287	1235.8807	1290.6092	1302.2831	1369.4653	1393.5051	1412.8552	1422.7306	1467.7534	1473.5869	1490.5641	1496.6754	1526.695	1529.0453	1806.2455	2989.8661	2999.5788	3031.2314	3049.6281	3072.5542	3101.8566	3139.2397	3641.3357	3648.0463	3815.4676
CC1(O)CNC(=O)NC1	CC1(O)CNC(=O)NC1	
InChI=1S/C5H10N2O2/c1-5(9)2-6-4(8)7-3-5/h9H,2-3H2,1H3,(H2,6,7,8)	InChI=1S/C5H10N2O2/c1-5(9)2-6-4(8)7-3-5/h9H,2-3H2,1H3,(H2,6,7,8)
