18
gdb 54407	3.34264	1.32398	1.18904	3.8684	71.42	-0.2439	0.0224	0.2663	1075.4988	0.148969	-439.094603	-439.086525	-439.085581	-439.128019	30.945	
N	 0.2282423128	 0.9707549759	-0.7701513337	-0.533594
C	-0.0288922586	 0.0556967271	 0.2083856358	 0.270022
O	 0.7206094386	-0.1323423472	 1.1491704109	-0.369696
C	-1.3022507351	-0.7357083055	 0.0464141842	 0.211141
C	-2.3519369198	-0.62492644	-1.1101060489	-0.311694
C	-2.7740739363	-1.9940702917	-0.5167921377	 0.094763
C	-1.2724598886	-2.2725548605	-0.2711905414	-0.251779
O	-3.2700626632	-1.656506707	 0.7852417714	-0.278533
C	-2.2462727586	-0.7560367295	 1.2636284834	-0.100853
H	 1.0434487787	 1.5541052424	-0.6720781408	 0.261835
H	-0.4360831686	 1.1799799065	-1.4936429754	 0.262828
H	-3.0880659521	 0.1820907293	-1.0709904296	 0.104786
H	-1.9054618501	-0.7098419911	-2.1033689328	 0.102402
H	-3.4545562718	-2.6872112855	-1.0077048221	 0.085308
H	-0.7109754492	-2.4997668441	-1.1787943496	 0.106722
H	-1.0099201727	-2.9531876726	 0.5400940894	 0.117865
H	-1.7609804256	-1.152016763	 2.1599592668	 0.125822
H	-2.6826626898	 0.2239581366	 1.4882767501	 0.102654
28.0006	174.049	176.7982	196.3212	344.7033	366.4714	440.3053	492.8485	523.3521	583.3472	632.85	677.3465	756.9344	825.7514	859.0519	912.9421	914.7383	942.526	961.1641	992.0365	1018.1935	1024.7661	1084.3532	1112.1967	1126.4705	1167.4572	1172.3375	1199.3125	1210.4168	1231.9245	1246.3395	1294.5621	1362.5127	1395.5102	1473.3272	1506.1077	1533.8853	1611.9887	1783.9831	3035.0274	3060.0076	3080.0097	3093.5536	3127.0801	3143.9277	3148.351	3602.3418	3742.1622
NC(=O)C12CC(C1)OC2	NC(=O)[C@@]12C[C@@H](C1)OC2	
InChI=1S/C6H9NO2/c7-5(8)6-1-4(2-6)9-3-6/h4H,1-3H2,(H2,7,8)	InChI=1S/C6H9NO2/c7-5(8)6-1-4(2-6)9-3-6/h4H,1-3H2,(H2,7,8)/t4-,6-
