25
gdb 103488	2.30991	1.38271	1.16213	0.172	91.85	-0.251	0.0776	0.3286	1255.9042	0.230386	-352.366784	-352.357233	-352.356289	-352.400801	37.217	
C	-0.4420008279	 1.369814654	 0.0362912799	-0.38102
C	 0.1505673176	-0.0420877402	-0.084872711	-0.259112
C	 0.7935693123	-0.5607418295	 1.1961331388	 0.353831
C	 2.0689729498	 0.1853436029	 1.5680501038	-0.455358
C	-0.0050294083	-1.0583224379	 2.3886528896	-0.077283
C	-1.4784390447	-1.4324432152	 2.2720665668	-0.230529
C	-1.5836240864	-2.4989491516	 1.148278659	-0.217781
C	-0.1425466864	-3.022949643	 0.8961483136	-0.231188
C	 0.8104218221	-2.0345007192	 1.5598861823	-0.096806
H	 0.3211332841	 2.1130281408	 0.2865908029	 0.116353
H	-0.9036983615	 1.6798307234	-0.9067199283	 0.108004
H	-1.2101193073	 1.4103901939	 0.8153500198	 0.119444
H	-0.6304245295	-0.7210126686	-0.4325187191	 0.09728
H	 0.9135928941	-0.0435665996	-0.8757214244	 0.090509
H	 1.8774558347	 1.2465151991	 1.7612240432	 0.1142
H	 2.5245803808	-0.2329515181	 2.4706477411	 0.109956
H	 2.8097250628	 0.1225359936	 0.7616696586	 0.109198
H	 0.3409194172	-0.7413994231	 3.3681601293	 0.07033
H	-1.8014765852	-1.8542991828	 3.2305817813	 0.097654
H	-2.1310313793	-0.5740928298	 2.0772713205	 0.097435
H	-2.2593517631	-3.3115163049	 1.4307773306	 0.094189
H	-2.0041896542	-2.061722506	 0.2393654256	 0.107018
H	-0.0040292015	-4.0032151753	 1.3656285772	 0.097197
H	 0.0570523763	-3.1604568253	-0.1727801751	 0.095845
H	 1.7485339436	-2.4331690776	 1.9346548241	 0.070634
73.9095	127.0939	154.8683	202.174	216.3454	257.9764	277.1621	289.5007	376.4787	431.1425	500.4206	646.9193	688.011	694.8003	778.5169	790.4674	800.5969	861.9735	889.2682	895.0476	933.9094	978.8511	992.107	1017.9753	1025.7238	1047.966	1071.9472	1084.9639	1096.1747	1128.9862	1144.2988	1182.6336	1207.072	1223.4422	1253.252	1297.6237	1305.7841	1312.3526	1323.9946	1340.227	1356.2643	1371.5898	1407.8026	1417.7094	1437.0835	1477.8951	1490.7836	1493.4743	1495.7395	1502.3945	1506.6692	1511.5601	1522.7586	3013.4454	3022.6962	3031.6191	3032.1935	3037.9347	3057.487	3061.9983	3063.7666	3082.1898	3094.2906	3099.0849	3101.5707	3104.7768	3119.355	3140.5576	3151.1594
CCC1(C)C2CCCC12	CC[C@@]1(C)[C@H]2CCC[C@@H]12	
InChI=1S/C9H16/c1-3-9(2)7-5-4-6-8(7)9/h7-8H,3-6H2,1-2H3	InChI=1S/C9H16/c1-3-9(2)7-5-4-6-8(7)9/h7-8H,3-6H2,1-2H3/t7-,8+,9-
