13
gdb 129056	2.87629	1.66557	1.05478	3.5922	71.08	-0.2536	-0.1063	0.1473	1028.8354	0.090613	-448.934689	-448.927471	-448.926527	-448.967122	26.071	
N	-0.0512714641	 1.2404046429	-0.428691459	-0.533921
C	 0.0322446684	 0.0152002457	-0.0753700659	 0.379271
C	 1.2516956895	-0.7004352145	 0.3259764182	-0.015711
N	 1.2949479646	-1.9347057413	 0.6749403007	-0.239505
C	 0.0775071502	-2.6068682033	 0.6582328335	 0.080262
N	-1.0691281468	-2.1208880411	 0.3327305906	-0.148129
N	-1.1111853014	-0.813991985	-0.0361080623	-0.131691
C	-2.3955758536	-0.3048066529	-0.3908791624	 0.178081
O	-3.3914163283	-0.9664584262	-0.3733110463	-0.251174
H	 0.8663802542	 1.6826726403	-0.3983245682	 0.231971
H	 2.1764587674	-0.121981885	 0.3198902633	 0.140109
H	 0.0966749009	-3.649917524	 0.9502112934	 0.152037
H	-2.3239259009	 0.7528999144	-0.6715152257	 0.158399
53.2585	137.4126	243.1152	248.7285	379.2547	389.184	512.1665	539.4012	591.0344	657.3811	750.544	800.611	823.1369	883.8213	925.946	981.4678	1046.1982	1072.3431	1088.2883	1172.6616	1214.3636	1374.2639	1383.0062	1397.5203	1423.3255	1573.1851	1655.7665	1694.167	1841.7182	3083.6918	3128.9814	3215.8852	3492.6728
N=C1C=NC=NN1C=O	[NH]c1cncnn1C=O	
InChI=1S/C4H4N4O/c5-4-1-6-2-7-8(4)3-9/h1-3,5H	InChI=1S/C4H9N4O/c5-4-1-6-2-7-8(4)3-9/h3-7H,1-2H2
