20
gdb 58725	3.54789	1.4119	1.22533	1.7229	80.79	-0.2104	0.0686	0.279	1093.2137	0.169986	-365.896442	-365.888217	-365.887273	-365.929143	32.258	
C	-0.0333932199	 1.5458273412	-0.0242744655	-0.397439
C	-0.0066732656	 0.0111975217	 0.005204888	-0.13382
C	 0.7057047579	-0.5167459332	 1.2615678283	-0.389354
C	-1.3942693941	-0.5510678599	-0.0820214902	 0.407963
C	-1.9339385128	-2.012150648	-0.0678313073	-0.190422
C	-3.2372879879	-1.5133233361	-0.7067005599	-0.112742
C	-3.0679357669	-1.5178102066	 0.7894012634	-0.004201
N	-2.5309786589	-0.0885954658	 0.8042509714	-0.221753
C	-2.6637901417	-0.0762180745	-0.7017709299	-0.131102
H	 0.979367571	 1.9489642843	 0.0704103435	 0.109647
H	-0.4586050595	 1.9208010428	-0.9604279181	 0.11162
H	-0.6367949389	 1.9329102321	 0.8024906081	 0.14071
H	 0.5443438666	-0.3450363698	-0.8779622291	 0.07741
H	 0.7378147157	-1.6111202917	 1.2738134648	 0.111599
H	 1.7358195391	-0.1499307539	 1.3077645932	 0.108927
H	 0.181732365	-0.1852140425	 2.1636912031	 0.131551
H	-1.4668277178	-2.983983276	-0.1430807142	 0.094234
H	-3.929118574	-2.0403938092	-1.3476797483	 0.095812
H	-3.6346467328	-1.9743711623	 1.5911998053	 0.098028
H	-2.9131140145	 0.8266728074	-1.2471543566	 0.093333
71.5382	155.6729	175.0222	215.1724	258.0459	313.2111	400.8757	446.5215	598.7313	676.7365	736.7204	766.2874	788.6891	813.9798	851.4572	865.3605	873.287	914.7677	931.9402	944.6161	969.6649	990.1362	996.659	1002.599	1031.402	1056.3465	1085.0245	1113.8537	1146.4354	1177.8208	1199.103	1239.3938	1248.1178	1337.1852	1340.7848	1350.7245	1394.7723	1410.3358	1429.7988	1486.8228	1493.4031	1501.1948	1517.0081	2994.4661	3033.2585	3038.582	3101.608	3106.4575	3109.6921	3116.1633	3175.4643	3186.7569	3211.1628	3224.6167
CC(C)C12C3C4C3N1C24	CC(C)[C@@]12[C@@H]3[C@H]4[C@@H]3N1[C@@H]24	
InChI=1S/C8H11N/c1-3(2)8-5-4-6(5)9(8)7(4)8/h3-7H,1-2H3	InChI=1S/C8H11N/c1-3(2)8-5-4-6(5)9(8)7(4)8/h3-7H,1-2H3/t4-,5+,6-,7+,8-,9?/m0/s1
