15
gdb 67424	2.81368	1.5393	1.28397	1.2985	73.08	-0.2273	0.0353	0.2626	999.8562	0.110949	-420.513679	-420.506075	-420.505131	-420.545464	30.037	
O	-0.2539469194	 1.3978266057	 0.0029218766	-0.43515
C	-0.0391110936	 0.0544653293	 0.0167072376	 0.267198
C	 0.0739339306	-1.0367486769	-0.9873956517	-0.049921
O	 1.2239628255	-1.6409600235	-0.4276698546	-0.280613
C	 0.9128063177	-0.9548513089	 0.8170361563	-0.034429
C	-0.3499796876	-1.6826897414	 1.3320682202	-0.289703
C	-1.0640178117	-1.0740398906	 0.120075813	 0.149477
C	-2.4409741293	-1.0646128974	-0.2135996018	 0.11733
C	-3.6116361341	-1.0597985938	-0.4955842513	-0.38296
H	 0.4492042549	 1.8211528294	-0.5045777252	 0.300283
H	-0.1378248727	-1.1271226511	-2.0440021929	 0.128161
H	 1.7830153011	-0.748653965	 1.4351748395	 0.097157
H	-0.2794843662	-2.7712857401	 1.4034964475	 0.112678
H	-0.7235019899	-1.2511560599	 2.2632663596	 0.119948
H	-4.6447290155	-1.051678136	-0.7393861628	 0.180544
119.4343	152.2901	250.2854	313.203	347.821	438.4585	458.2556	498.1319	560.0154	569.2136	582.2544	650.6886	662.4395	713.2109	806.8416	831.7443	922.7517	932.2544	960.4309	1004.9822	1037.3504	1057.8285	1112.5479	1130.817	1164.3338	1214.884	1236.2485	1273.2147	1308.2107	1334.0561	1469.6456	1500.6241	2230.907	3063.1052	3128.9936	3157.4094	3222.6068	3504.0709	3779.2242
OC12C3OC1CC23C#C	O[C@@]12[C@H]3O[C@@H]1C[C@@]23C#C	
InChI=1S/C7H6O2/c1-2-6-3-4-7(6,8)5(6)9-4/h1,4-5,8H,3H2	InChI=1S/C7H6O2/c1-2-6-3-4-7(6,8)5(6)9-4/h1,4-5,8H,3H2/t4-,5+,6-,7-/m1/s1
