19
gdb 32929	4.08391	0.92722	0.83894	1.367	80.1	-0.1785	0.0575	0.2359	1431.6556	0.159435	-419.228916	-419.219363	-419.218418	-419.264297	34.714	
C	-0.2245226983	 1.0091727225	-1.0831870501	-0.377073
C	-0.0796119988	 0.1458249875	 0.1616234337	-0.06848
O	 1.0870532874	-0.6963712381	 0.1188573929	-0.284729
C	 0.9938187076	-1.7948956454	-0.6708538271	 0.346674
C	 1.3520772424	-2.0184655707	-1.9775775221	-0.247743
C	 1.0987056469	-3.3983164522	-2.2519041938	-0.200301
C	 0.5877077585	-3.9679958367	-1.1086296789	 0.25999
N	 0.1197101514	-5.2638012795	-0.7913477793	-0.611208
N	 0.5205838769	-2.980879595	-0.1500810757	-0.311155
H	 0.6588032631	 1.640330492	-1.2174789375	 0.125216
H	-0.3465457301	 0.3863965207	-1.9735191318	 0.134749
H	-1.1035501094	 1.65582201	-0.9916345101	 0.113064
H	 0.0567395046	 0.7662946626	 1.0523598205	 0.107702
H	-0.9738955984	-0.4739546057	 0.3121996823	 0.09626
H	 1.7694034424	-1.2832556549	-2.6471313289	 0.093172
H	 1.2847865845	-3.9153150423	-3.1813017816	 0.080783
H	-0.201403881	-5.7377639947	-1.627179413	 0.244051
H	 0.8466054992	-5.8429615983	-0.378922133	 0.241359
H	 0.170183441	-3.1102958417	 0.7836709634	 0.257669
35.0635	81.4404	96.2249	140.0489	226.4989	254.7795	306.6726	364.4627	449.4014	454.1742	506.3882	607.0483	640.4179	685.6255	717.5506	768.3345	807.2251	817.6979	831.1282	883.8896	999.3256	1012.7322	1049.3513	1060.0741	1107.1793	1169.0595	1185.8815	1218.2053	1256.1361	1295.6084	1323.3711	1389.6534	1406.785	1434.7252	1450.7298	1482.6241	1491.4097	1508.8968	1560.6722	1631.1512	1658.6458	3014.2137	3040.4496	3083.3271	3112.1153	3126.7134	3239.8989	3259.7573	3480.2418	3583.739	3677.1964
CCOC1=CC=C(N)N1	CCOc1ccc(N)[nH]1	
InChI=1S/C6H10N2O/c1-2-9-6-4-3-5(7)8-6/h3-4,8H,2,7H2,1H3	InChI=1S/C6H10N2O/c1-2-9-6-4-3-5(7)8-6/h3-4,8H,2,7H2,1H3
