17
gdb 86771	3.75659	0.98572	0.82431	6.9979	75.21	-0.2567	0.0183	0.275	1366.5935	0.135706	-418.043935	-418.034692	-418.033747	-418.078946	31.761	
C	 0.0042030112	 1.4424765477	 0.1291468773	-0.346217
N	-0.0041889464	 0.0042521491	 0.0650656724	-0.069289
C	-1.0915489761	-0.9720786512	 0.000483662	-0.205511
C	-0.0029634574	-2.0868803954	-0.0108820299	-0.147618
C	 0.0466241529	-2.980663607	-1.2562438089	-0.357285
C	 1.1604781022	-3.9278242894	-1.2326247941	 0.275934
N	 2.0211593599	-4.6976869602	-1.2094605119	-0.299253
C	 1.015771773	-0.9143604832	 0.0367918899	 0.407298
O	 2.2120149559	-0.80039788	 0.0354310829	-0.359524
H	 1.0476748787	 1.7652281855	 0.1527008412	 0.167614
H	-0.4842189165	 1.8869222809	-0.7465002919	 0.131355
H	-0.5002589428	 1.807876579	 1.031810331	 0.132772
H	-1.7532125463	-0.9702918933	 0.8736976797	 0.117835
H	-1.6970139327	-0.9048990738	-0.9121325644	 0.111321
H	 0.011630724	-2.6921574447	 0.8980118277	 0.125226
H	-0.8836914748	-3.5548160047	-1.3403106056	 0.157263
H	 0.124924305	-2.3667375694	-2.1611406073	 0.15808
54.4342	83.5028	116.2765	144.8706	172.5908	237.7857	247.4838	346.7542	389.8533	488.748	516.9127	668.8189	729.3194	784.7616	871.5619	928.7845	941.4396	1006.2268	1021.486	1081.9279	1119.9222	1137.519	1167.7734	1181.4456	1240.4948	1257.8948	1299.0118	1318.2295	1375.423	1420.6646	1449.4448	1465.8002	1482.2254	1511.5608	1533.5375	1884.7694	2368.2023	3015.8962	3022.0064	3037.9776	3065.9379	3069.6306	3074.805	3102.0497	3132.3606
CN1CC(CC#N)C1=O	CN1C[C@@H](CC#N)C1=O	
InChI=1S/C6H8N2O/c1-8-4-5(2-3-7)6(8)9/h5H,2,4H2,1H3	InChI=1S/C6H8N2O/c1-8-4-5(2-3-7)6(8)9/h5H,2,4H2,1H3/t5-/m1/s1
