20
gdb 88789	2.82509	1.29536	1.07241	1.4478	80.66	-0.2149	-0.025	0.19	1205.4233	0.169931	-403.125077	-403.116206	-403.115262	-403.158804	33.52	
C	-0.8823789117	 1.3864836115	 0.60988752	-0.433749
C	-0.7659635195	-0.107602336	 0.8130782596	 0.030275
C	 0.3752900298	-0.8766090644	 0.2336844522	-0.268533
N	 0.2454252805	-0.7098467601	 1.6825079976	-0.109245
C	 1.1844681297	 0.084041332	 2.4339671588	-0.034702
C	 2.2981448312	-0.6840656707	 3.2198799606	-0.247631
C	 3.327233501	 0.4310639314	 2.8829325967	-0.33156
C	 2.3373957207	 0.9318876131	 1.8201633901	 0.375329
O	 2.4566846382	 1.5854190781	 0.8209724316	-0.307999
H	 0.0948088088	 1.8487608467	 0.4513504394	 0.157091
H	-1.5061468208	 1.5933654433	-0.2664128165	 0.119703
H	-1.3635013903	 1.8656065163	 1.4708598657	 0.113691
H	-1.7241286014	-0.6214349106	 0.888470768	 0.088338
H	 0.2351100812	-1.8910047771	-0.1316773494	 0.110162
H	 1.1366952407	-0.3007334991	-0.2857837838	 0.135009
H	 0.6279992098	 0.7278907922	 3.128458062	 0.107682
H	 2.0960025794	-0.8733056465	 4.2740250251	 0.111475
H	 2.5363285143	-1.6267249948	 2.7229402098	 0.121667
H	 3.4589755604	 1.1638624021	 3.6854320344	 0.131712
H	 4.3118923778	 0.1361068726	 2.5142879181	 0.131284
70.5715	105.9753	157.9153	177.7335	250.6418	263.1798	356.863	409.3148	429.0851	510.7253	592.5979	641.2356	693.5361	768.846	777.0406	853.9231	911.3557	913.7553	935.194	972.7913	1008.6121	1040.8634	1058.0737	1087.3791	1118.7973	1124.9314	1164.3658	1171.6186	1188.5993	1202.8378	1223.4214	1235.2691	1253.8187	1334.5102	1355.9983	1401.7107	1426.9912	1443.7918	1490.9586	1501.6202	1506.4994	1513.352	1864.3208	3021.2578	3029.1839	3062.0709	3083.9785	3086.9877	3100.0397	3105.2514	3119.7643	3132.3578	3145.4621	3193.9211
CC1CN1C1CCC1=O	C[C@H]1CN1[C@H]1CCC1=O	
InChI=1S/C7H11NO/c1-5-4-8(5)6-2-3-7(6)9/h5-6H,2-4H2,1H3	InChI=1S/C7H11NO/c1-5-4-8(5)6-2-3-7(6)9/h5-6H,2-4H2,1H3/t5-,6-,8?/m0/s1
