21
gdb 75136	2.49944	1.43461	1.1498	2.9836	85.38	-0.232	-0.0373	0.1947	1190.3335	0.180989	-387.149952	-387.140182	-387.139238	-387.184681	36.255	
C	-0.0167413378	 1.5243864951	 0.0636897113	-0.491577
C	-0.00417498	 0.0338266676	-0.0346084936	 0.207213
C	-0.0270304328	-0.7533623742	-1.1197911057	-0.154139
C	-0.0029309409	-2.2266830083	-0.8075158924	-0.320288
C	 0.0421384365	-2.3054910684	 0.7402762249	 0.192519
C	-1.1963943018	-2.9963429107	 1.3342434594	-0.424133
C	 1.3266890035	-2.9700944186	 1.2620829467	-0.424127
C	 0.0391878658	-0.8227003468	 1.1754711488	 0.316882
O	 0.0679384352	-0.4364365311	 2.3241138477	-0.354565
H	 0.871064813	 1.8824301057	 0.5963037107	 0.142038
H	-0.0498272412	 1.9975311567	-0.920904772	 0.119254
H	-0.879798554	 1.8643589465	 0.6464610281	 0.142041
H	-0.0599855288	-0.3888037148	-2.142558409	 0.104078
H	-0.8857165614	-2.7302403532	-1.2220342582	 0.112856
H	 0.8648826211	-2.7122339172	-1.2721058866	 0.112854
H	-1.2037735722	-4.0627723156	 1.0852278286	 0.110365
H	-1.1974941695	-2.8913910333	 2.4229339676	 0.135527
H	-2.1218542526	-2.552532248	 0.9516782254	 0.113654
H	 2.2193461982	-2.5073736642	 0.8275105941	 0.113655
H	 1.3878263453	-2.864494405	 2.3489937523	 0.135526
H	 1.3419901143	-4.0362891823	 1.0124236318	 0.110367
37.4672	97.4948	192.7589	226.7208	236.8582	239.2258	266.1579	293.5703	334.6985	346.0431	418.8477	531.7908	549.9595	664.0219	705.0823	763.7861	860.1301	867.3971	913.2134	940.829	969.4336	985.5142	1014.7896	1034.1695	1053.9452	1069.1184	1124.6838	1177.7751	1233.9768	1247.2125	1268.8464	1325.168	1350.3149	1391.679	1413.5835	1414.3445	1473.0845	1477.0995	1481.7162	1484.6516	1489.6953	1500.2876	1510.9389	1700.1584	1796.7511	3018.897	3027.4399	3031.7878	3036.5211	3045.3868	3090.5413	3094.7497	3097.6395	3113.5742	3117.2936	3121.0042	3174.9795
CC1=CCC(C)(C)C1=O	CC1=CCC(C)(C)C1=O	
InChI=1S/C8H12O/c1-6-4-5-8(2,3)7(6)9/h4H,5H2,1-3H3	InChI=1S/C8H12O/c1-6-4-5-8(2,3)7(6)9/h4H,5H2,1-3H3
