18
gdb 74212	2.36241	1.56414	0.98794	3.4704	79.72	-0.2414	-0.0308	0.2106	1190.1713	0.148655	-439.098978	-439.090634	-439.08969	-439.132161	31.147	
C	-0.4570064449	 1.3587423861	 0.1405839026	-0.467978
C	 0.0660101473	-0.0552700107	 0.1026092064	 0.218487
C	-0.2676859626	-0.8741447396	-0.9054329591	-0.163374
C	 0.0859486504	-2.2683303683	-1.2176045701	 0.35173
N	-0.1697495373	-2.698282695	-2.3893871539	-0.51212
O	 0.6717005859	-3.0989313536	-0.3027155787	-0.246065
C	 0.7531747663	-2.7206959747	 1.0575610788	-0.002436
O	 1.5951841749	-1.6342503326	 1.2615559498	-0.224391
C	 0.9413063937	-0.383026986	 1.2822765648	-0.162257
H	 0.3666819074	 2.0831653888	 0.112788501	 0.135006
H	-1.1215589773	 1.5636096449	-0.7005559498	 0.138183
H	-1.0098963088	 1.5502772016	 1.069120342	 0.131276
H	-0.891935921	-0.4697848642	-1.6956684248	 0.115677
H	 0.1209174545	-3.6751274854	-2.4666359162	 0.220046
H	-0.2522986153	-2.5268020321	 1.45989318	 0.100192
H	 1.197990029	-3.585965041	 1.5529141399	 0.127103
H	 1.7386907623	 0.3658045985	 1.3600986659	 0.132083
H	 0.3363765854	-0.2847533369	 2.2021841814	 0.108839
77.5036	139.9258	153.2974	210.2486	293.3068	327.7805	372.7362	431.3122	446.6933	494.5062	584.0577	676.52	702.5521	828.0277	886.7457	903.2068	913.2963	975.511	1005.9525	1027.4446	1063.6879	1082.7128	1099.2426	1157.2368	1183.0225	1216.9489	1287.9262	1336.6105	1360.8678	1367.0305	1409.9512	1422.6656	1460.3711	1479.0079	1480.2747	1490.677	1511.0259	1684.0919	1731.5501	2942.379	2995.1887	3020.7112	3053.5453	3067.6445	3114.4462	3130.9599	3184.0293	3467.4177
CC1=CC(=N)OCOC1	C[C]1C=C([NH])OCOC1	
InChI=1S/C6H9NO2/c1-5-2-6(7)9-4-8-3-5/h2,7H,3-4H2,1H3	InChI=1S/C6H9NO2/c1-5-2-6(7)9-4-8-3-5/h2,7H,3-4H2,1H3
