16
gdb 107781	2.90962	1.6642	1.28905	2.4002	67.78	-0.2442	-0.0192	0.225	974.7113	0.124709	-437.823892	-437.816474	-437.81553	-437.855903	28.509	
O	 0.0297149236	 1.3992457694	-0.121988561	-0.420293
C	 0.1043192226	-0.0022711628	 0.0738127032	-0.198277
C	-1.2847988366	-0.587291806	 0.1318713908	 0.150002
C	-2.2957699786	-0.4506470722	 1.2811444902	-0.18981
N	-3.0172528192	-1.6798650729	 0.7657703043	-0.134792
C	-3.0275460993	-1.5470615033	-0.7315398311	-0.170018
C	-1.821500202	-2.0775434797	 0.0204600694	-0.116056
C	-2.198308242	-0.358349747	-1.0897987326	 0.429643
O	-2.0854033301	 0.3564896085	-2.0514106147	-0.36521
H	-0.4345924306	 1.5334070554	-0.9593265366	 0.301189
H	 0.6777075068	-0.4976760865	-0.7264734457	 0.098835
H	 0.6465919593	-0.1635795394	 1.0116861983	 0.113399
H	-1.8865752029	-0.6943131519	 2.2644887959	 0.123389
H	-2.9011630833	 0.4596138934	 1.3355332321	 0.123174
H	-3.7922969038	-2.0802910305	-1.2784092865	 0.127304
H	-1.3726696837	-3.0603808045	-0.0165646961	 0.12752
94.5856	146.8738	188.3057	255.9236	382.2906	418.788	472.8302	525.7258	618.6294	720.9475	748.7007	770.4465	809.7747	837.1117	849.1651	904.4366	925.8732	967.7677	980.6055	1053.1155	1072.8549	1084.8004	1122.6502	1150.8369	1155.7201	1211.6364	1233.0533	1268.1563	1290.0152	1357.4735	1387.4419	1445.7387	1505.4989	1511.0181	1856.3708	2975.1756	3052.5374	3066.5878	3116.3921	3217.3767	3229.332	3758.4471
OCC12CN3C(C13)C2=O	OC[C@]12CN3[C@H]([C@@H]13)C2=O	
InChI=1S/C6H7NO2/c8-2-6-1-7-3(4(6)7)5(6)9/h3-4,8H,1-2H2	InChI=1S/C6H7NO2/c8-2-6-1-7-3(4(6)7)5(6)9/h3-4,8H,1-2H2/t3-,4+,6-,7?/m1/s1
