21
gdb 116208	2.2249	1.43991	0.97363	2.3117	77.78	-0.2459	0.072	0.3179	1268.8736	0.182474	-424.210149	-424.201205	-424.200261	-424.244435	33.526	
C	-0.0205142502	 1.6482470907	-0.0371663553	-0.390259
C	-0.1008195762	 0.1173602815	-0.0379280573	-0.205443
C	 0.6960465996	-0.5285847844	-1.1727550651	-0.062502
C	 2.2152667534	-0.2787896856	-1.1346784661	-0.101224
O	 2.7950425072	-1.3378091267	-1.8840595333	-0.246915
C	 2.0819725227	-2.5127033165	-1.5344130051	-0.156382
C	 0.6476404866	-2.0612700996	-1.2518274075	 0.386322
C	-0.3370884117	-2.9318971255	-0.6035384215	-0.250446
O	-0.4082586223	-2.6575808827	-2.007430559	-0.272954
H	 1.0058421676	 1.9988863148	 0.1133325292	 0.12154
H	-0.37640052	 2.0617231998	-0.9872155451	 0.12046
H	-0.6345794987	 2.07347454	 0.7623105608	 0.115916
H	 0.2549702783	-0.2726616315	 0.9248079785	 0.095755
H	-1.1515313606	-0.1841214622	-0.1249815503	 0.107787
H	 0.3129099413	-0.1609696036	-2.1333222405	 0.097609
H	 2.5222900452	 0.6619797277	-1.5962339202	 0.115242
H	 2.5812802556	-0.2904870261	-0.092070762	 0.08414
H	 2.1293995133	-3.2212566133	-2.3651871549	 0.125384
H	 2.5234898856	-2.9817047382	-0.6392189425	 0.091073
H	-0.0593530157	-3.9532870718	-0.3406019381	 0.110731
H	-1.1377981608	-2.5078768768	-0.0002803147	 0.114167
40.3857	103.9957	171.7984	205.3942	251.3317	290.1713	298.967	354.0199	441.6802	492.5466	507.8312	636.362	756.7256	791.5767	825.6902	887.2028	931.4776	958.202	967.5788	976.4028	1010.0413	1042.6786	1079.5579	1115.6563	1128.1858	1146.2648	1160.2448	1171.978	1212.5016	1232.3057	1265.9945	1287.2308	1306.8012	1334.7464	1350.2212	1375.512	1399.3602	1416.2288	1427.9461	1486.8716	1499.6485	1502.3021	1506.3205	1516.572	1534.8981	2943.7628	2964.5813	3017.3068	3030.1744	3034.2741	3057.2099	3076.4363	3097.461	3101.3946	3104.103	3107.8903	3162.7151
CCC1COCC11CO1	CC[C@H]1COC[C@]21CO2	
InChI=1S/C7H12O2/c1-2-6-3-8-4-7(6)5-9-7/h6H,2-5H2,1H3	InChI=1S/C7H12O2/c1-2-6-3-8-4-7(6)5-9-7/h6H,2-5H2,1H3/t6-,7+/m0/s1
