25
gdb 110970	2.24712	1.21742	1.06896	0.23	93.98	-0.2807	0.095	0.3756	1360.6714	0.228433	-352.319939	-352.309938	-352.308994	-352.35456	38.485	
C	 0.1584092323	 1.4772228238	 0.1429106702	-0.372502
C	 0.1136974133	-0.045088343	 0.3284619424	-0.235964
C	-1.2964547163	-0.6055435318	 0.1685537645	 0.031325
C	-1.9820163386	-0.7638334979	-1.228520478	-0.077251
C	-1.0718620268	-1.9984986771	-1.4780801948	-0.273015
C	-1.5695723253	-2.1436223162	-0.004616476	 0.307258
C	-1.2411892225	-3.2464165759	 0.9685389171	-0.52016
C	-2.9874393864	-1.7605340243	-0.5651720576	 0.029042
C	-4.1334651273	-1.3105932704	 0.3305539319	-0.450128
H	 1.1673490364	 1.8691660582	 0.30571718	 0.108707
H	-0.1511645618	 1.7614388302	-0.8685183865	 0.116751
H	-0.5126340057	 1.983044605	 0.8463808109	 0.111814
H	 0.8211812742	-0.5120647708	-0.3640278219	 0.095533
H	 0.4715190439	-0.2943883014	 1.3367731055	 0.092822
H	-1.9334973857	-0.1278781155	 0.9194501267	 0.052465
H	-2.2228088939	 0.0274810852	-1.9412158057	 0.060076
H	-1.4491405952	-2.7419834349	-2.1871162134	 0.081747
H	-0.0079201552	-1.8217633867	-1.6378163304	 0.087503
H	-0.1684846715	-3.2741400392	 1.1909082484	 0.117936
H	-1.7739210954	-3.1103038594	 1.9167161177	 0.116045
H	-1.5223096567	-4.2258013477	 0.5649141347	 0.116074
H	-3.3652881228	-2.5058652583	-1.2764406817	 0.054612
H	-3.8530104995	-0.5577672191	 1.0710560093	 0.118762
H	-4.9435758768	-0.8886304423	-0.2749255219	 0.115703
H	-4.5495750765	-2.1668989904	 0.8736765285	 0.114846
62.6127	133.8985	157.5325	184.7287	197.7046	207.0887	254.6526	283.0116	366.2839	390.784	450.0118	549.9545	586.7993	630.8705	739.8722	753.0516	789.1921	816.7612	861.4066	896.2616	935.0736	961.5802	1011.1007	1018.2835	1027.3178	1050.719	1056.9525	1091.7707	1113.4368	1138.6928	1150.1752	1165.1651	1182.9787	1197.9292	1227.6449	1233.9362	1249.9765	1291.6804	1318.5501	1347.7723	1402.2786	1408.2975	1410.9943	1427.5612	1441.0699	1485.11	1490.0762	1491.0719	1496.9901	1499.3957	1504.2373	1506.7518	1535.3395	3016.6329	3018.682	3021.8533	3029.2115	3031.9431	3048.3108	3053.9343	3071.6558	3084.7401	3087.8441	3088.3302	3090.683	3098.4541	3101.3825	3117.2361	3127.4201
CCC1C2CC1(C)C2C	CC[C@H]1[C@H]2C[C@]1(C)[C@H]2C	
InChI=1S/C9H16/c1-4-8-7-5-9(8,3)6(7)2/h6-8H,4-5H2,1-3H3	InChI=1S/C9H16/c1-4-8-7-5-9(8,3)6(7)2/h6-8H,4-5H2,1-3H3/t6-,7-,8-,9+/m0/s1
