21
gdb 105908	2.09277	1.89781	1.23339	1.1246	82.97	-0.2428	0.0905	0.3333	1109.7487	0.181848	-387.011169	-387.002559	-387.001615	-387.04425	33.174	
C	-0.0050247736	 1.3294271717	 0.0523524215	-0.263556
O	-0.0679997116	-0.0816735072	-0.049644047	-0.296451
C	-1.3492624329	-0.5858319347	-0.0503227576	 0.455075
C	-2.4840809503	-0.3832736317	-1.086365679	-0.073259
C	-2.273664604	-0.8269222285	-2.5260442018	-0.421711
C	-3.03708464	-1.3859612163	-0.0447665836	-0.05769
C	-1.6531518887	-2.1015665396	 0.1576340058	-0.110043
C	-1.7227801128	-1.9558507605	 1.6916365258	-0.277949
C	-2.3600867138	-0.6556803985	 1.1627402965	-0.11667
H	 1.0518768115	 1.6041047241	 0.0391473677	 0.128332
H	-0.5114163331	 1.8214817281	-0.7896136151	 0.113429
H	-0.4569586146	 1.6871967569	 0.9881444979	 0.111899
H	-2.9661630926	 0.6022938507	-1.042264379	 0.059308
H	-1.7933374121	-1.8092339184	-2.5798958487	 0.11713
H	-3.2262835223	-0.8907905144	-3.0634459497	 0.112891
H	-1.6372134002	-0.1182644706	-3.0670844778	 0.117175
H	-4.0107297233	-1.8720805884	-0.0197351667	 0.074372
H	-1.2556049651	-2.9247563266	-0.4360404018	 0.073311
H	-2.3855462834	-2.6481398707	 2.2202859047	 0.088151
H	-0.7683057938	-1.8577509743	 2.2160951343	 0.100523
H	-2.7835633633	 0.187940029	 1.7101728535	 0.065733
82.8738	161.4362	188.6332	212.972	223.3553	226.6393	301.6954	427.413	499.475	535.7906	635.918	729.5966	753.6424	837.3488	874.6762	897.4411	906.0313	913.5731	944.2759	1005.7233	1028.3996	1054.3871	1056.925	1078.6823	1101.5245	1108.6431	1119.7097	1151.9638	1162.1923	1180.8547	1181.9397	1203.346	1230.1735	1238.475	1256.398	1281.8629	1329.5946	1405.5625	1413.4252	1484.4998	1488.1372	1494.0292	1498.3343	1507.1667	1507.697	2993.378	3017.9383	3029.7938	3045.067	3046.9348	3091.0477	3098.7485	3101.257	3104.3988	3113.5366	3122.2408	3135.2268
COC12C(C)C3C1CC23	CO[C@@]12[C@@H](C)[C@H]3[C@@H]1C[C@@H]23	
InChI=1S/C8H12O/c1-4-7-5-3-6(7)8(4,5)9-2/h4-7H,3H2,1-2H3	InChI=1S/C8H12O/c1-4-7-5-3-6(7)8(4,5)9-2/h4-7H,3H2,1-2H3/t4-,5-,6+,7-,8-/m0/s1
