22
gdb 119469	4.97819	0.84181	0.79914	1.63	84.28	-0.2032	0.0925	0.2958	1549.6755	0.192363	-404.290479	-404.280763	-404.279819	-404.32544	35.998	
C	 0.0282552271	 1.5881382998	 0.1789573452	-0.387029
C	-0.1132254373	 0.0768709126	 0.1496423865	-0.059343
O	 0.8740748745	-0.4791715271	 1.0146446673	-0.292539
C	 0.8267243291	-1.8491823979	 1.0987923569	 0.432938
C	-0.1839508856	-2.599294411	 1.9344131891	-0.358226
C	 1.3042710494	-2.7207186258	 2.2300141173	-0.106521
N	 2.0122631492	-3.601763218	 1.3021086046	-0.068501
C	 1.7361396549	-5.0251550886	 1.3443967558	-0.322778
C	 1.5259665423	-2.8151215602	 0.1299672395	-0.248648
H	 1.024251857	 1.887727207	-0.159097508	 0.128515
H	-0.7154786223	 2.0529729134	-0.4751494083	 0.11507
H	-0.1162618504	 1.9669117973	 1.1947901315	 0.127061
H	-1.1147504856	-0.2327775952	 0.4839328088	 0.094425
H	 0.0237430154	-0.3058762925	-0.8735177406	 0.093077
H	-0.7205678271	-1.9726962842	 2.6404524634	 0.11522
H	-0.7561181986	-3.4320286794	 1.5337261008	 0.104511
H	 1.7309784542	-2.4610603452	 3.1927576533	 0.100468
H	 0.6678870202	-5.287482952	 1.238883419	 0.091522
H	 2.2871780975	-5.5263933613	 0.5418861188	 0.11937
H	 2.0892704386	-5.4329399665	 2.2974278261	 0.120961
H	 0.8735531823	-3.362893997	-0.5633235303	 0.090103
H	 2.3525588053	-2.3617966883	-0.4272865867	 0.110345
57.5669	75.9113	107.8047	204.1191	213.4746	240.2164	272.9383	335.4887	374.9137	419.7902	426.4699	501.3655	653.7651	714.1134	817.7999	822.594	867.54	893.6907	937.2214	962.9958	989.4727	999.7208	1042.9675	1066.071	1071.9305	1090.0057	1124.1939	1149.3117	1170.8487	1186.6599	1208.4581	1219.8596	1229.4514	1290.5678	1295.4849	1306.0391	1381.5147	1404.4428	1432.3038	1450.64	1482.1211	1482.8298	1486.6665	1499.4563	1500.8915	1508.9822	1527.7187	2942.0882	2980.0806	3006.8067	3012.9005	3045.0433	3057.6213	3068.4653	3099.3345	3112.017	3119.3586	3122.164	3168.9537	3204.5202
CCOC12CC1N(C)C2	CCO[C@]12C[C@H]1N(C)C2	
InChI=1S/C7H13NO/c1-3-9-7-4-6(7)8(2)5-7/h6H,3-5H2,1-2H3	InChI=1S/C7H13NO/c1-3-9-7-4-6(7)8(2)5-7/h6H,3-5H2,1-2H3/t6-,7+/m1/s1
