19
gdb 26944	2.96358	1.30328	0.9808	3.4927	84.15	-0.1982	0.0364	0.2345	1237.704	0.160994	-382.108106	-382.099564	-382.09862	-382.141841	31.923	
C	 0.2073112309	 1.5449852418	 0.1513977918	-0.511517
C	 0.0357139384	 0.0728116284	-0.0145080904	 0.201345
C	-0.1575480275	-0.7338695021	-1.1132865327	 0.24284
N	-0.2587128193	-2.0579073342	-0.7252931476	-0.327891
C	-0.1302357003	-2.0576261858	 0.578398099	 0.001198
N	 0.050616358	-0.7984943074	 1.0631199315	-0.293668
C	-0.2567509133	-0.3478959554	-2.5343970756	-0.105819
C	 0.3003194212	-1.2641602233	-3.6053159626	-0.260286
C	-1.1863915561	-1.1079255449	-3.4589743634	-0.260286
H	 1.1726677909	 1.8014486546	 0.6060737797	 0.127596
H	 0.163461099	 2.0404689835	-0.8207259856	 0.143649
H	-0.5775882399	 1.9860152238	 0.7789941972	 0.127514
H	-0.1581672111	-2.9258941308	 1.2201944328	 0.124776
H	 0.1700774037	-0.5406521957	 2.0283925816	 0.259455
H	-0.1631758853	 0.7170078776	-2.7212488196	 0.06918
H	 0.7907593688	-0.8097925985	-4.4594758304	 0.101969
H	 0.7388384174	-2.1932258622	-3.2602203624	 0.12898
H	-1.731714437	-1.9336239484	-3.016922472	 0.128995
H	-1.7282430587	-0.545199231	-4.2115005515	 0.10197
59.2574	91.8584	167.8194	170.9701	239.4422	276.9995	421.8159	464.7342	493.4596	603.64	658.197	709.816	740.359	797.7528	801.0306	821.6661	914.9507	915.1061	960.5257	981.5344	1060.5731	1062.1971	1073.0519	1084.6214	1104.6706	1125.5069	1136.4768	1205.1104	1223.1389	1254.2676	1303.5283	1376.1107	1385.1304	1422.3014	1455.8301	1474.4092	1479.7162	1492.4754	1495.7249	1533.3913	1640.4877	3014.7922	3057.3955	3125.8993	3133.1371	3136.0156	3157.2357	3220.6538	3234.8798	3246.71	3661.6733
CC1=C(N=CN1)C1CC1	Cc1c(nc[nH]1)C1CC1	
InChI=1S/C7H10N2/c1-5-7(6-2-3-6)9-4-8-5/h4,6H,2-3H2,1H3,(H,8,9)	InChI=1S/C7H10N2/c1-5-7(6-2-3-6)9-4-8-5/h4,6H,2-3H2,1H3,(H,8,9)
