25
gdb 118965	2.41864	1.12168	0.97024	0.9259	89.33	-0.2395	0.0825	0.322	1422.5768	0.226749	-389.488425	-389.477704	-389.47676	-389.524049	40.15	
C	-0.0153136456	 1.5319286451	-0.2387912197	-0.381648
C	 0.0549255886	 0.0258065841	-0.0416040769	-0.052422
O	-1.2107472366	-0.5188768535	-0.3670194945	-0.296565
C	-1.4129134546	-1.8793805353	-0.0383558823	 0.442457
C	-0.5230853578	-2.8067739943	-0.8668076197	-0.448614
C	-1.4299344382	-2.2415809433	 1.4803667278	-0.275399
C	-2.7577403769	-3.0102842879	 1.2441087603	-0.231485
C	-2.9230125286	-2.278098106	-0.1210646582	-0.035731
C	-3.9073653444	-1.1133288396	-0.0887012954	-0.39061
H	 0.9513682251	 1.9930771458	-0.0141223183	 0.111042
H	-0.2809381608	 1.7694699331	-1.2729795644	 0.125234
H	-0.7727478355	 1.9712283015	 0.416658516	 0.122605
H	 0.8435799586	-0.4008711893	-0.6801587412	 0.088594
H	 0.3188612626	-0.2119889286	 1.0010166346	 0.087778
H	 0.5371213214	-2.6741642512	-0.6288440087	 0.113187
H	-0.7734878039	-3.8543793193	-0.6731703212	 0.115747
H	-0.6665527648	-2.6110603903	-1.9345449897	 0.118452
H	-0.5805353143	-2.8046770689	 1.8758631682	 0.089812
H	-1.5788692467	-1.3489972973	 2.0932949555	 0.10439
H	-2.6084869602	-4.0876513429	 1.1362440613	 0.098312
H	-3.5539241788	-2.8456807368	 1.9743059303	 0.095887
H	-3.1552856474	-2.9291158141	-0.9704636696	 0.060538
H	-3.7170149931	-0.4472741979	 0.7581577551	 0.113748
H	-3.839260199	-0.5108424118	-0.9983940286	 0.121682
H	-4.9319320489	-1.4909549912	 0.0006352192	 0.103009
59.7155	100.1901	116.9312	135.9109	225.5803	240.7056	254.4062	268.5001	296.1755	322.841	366.8543	405.4042	457.3026	502.8642	669.9888	727.0818	795.1525	821.8327	878.7263	883.7062	898.0772	919.7318	955.3469	965.5949	995.9158	1033.491	1078.3915	1096.7958	1136.5254	1172.9644	1183.4017	1190.3934	1192.2004	1216.5781	1231.738	1269.9357	1275.1845	1298.3217	1302.4938	1361.7459	1398.7635	1402.5549	1409.4031	1426.9782	1473.7744	1482.8334	1486.716	1490.8603	1493.8402	1498.3173	1498.7706	1501.0734	1529.9508	2974.8349	3002.1878	3033.488	3035.0356	3040.3662	3042.726	3054.8651	3063.1013	3100.1098	3102.125	3104.3716	3108.0316	3115.2439	3116.5212	3119.4413	3120.2182
CCOC1(C)CCC1C	CCO[C@@]1(C)CC[C@H]1C	
InChI=1S/C8H16O/c1-4-9-8(3)6-5-7(8)2/h7H,4-6H2,1-3H3	InChI=1S/C8H16O/c1-4-9-8(3)6-5-7(8)2/h7H,4-6H2,1-3H3/t7-,8+/m1/s1
