17
gdb 17709	6.06223	1.50518	1.46803	2.2419	68.58	-0.2099	0.076	0.2859	900.2144	0.141992	-363.752163	-363.745221	-363.744276	-363.782852	27.454	
C	 0.0036627805	 1.5275330496	-0.2189322772	-0.324032
N	 0.0264355174	 0.0793557325	-0.0461682424	-0.115414
C	-1.0863734639	-0.5009624429	 0.7666849743	-0.021237
C	-0.2013249473	-1.7064533407	 1.2047665791	-0.073882
C	-0.5780357666	-1.5307300479	 2.675696077	 0.099217
O	 0.4189371001	-1.9713548849	 3.5695439761	-0.44009
C	-0.5116732818	-0.075610544	 2.1703040095	-0.124426
C	 0.6850370111	-0.4216290997	 1.1988628977	-0.002175
H	 0.9848115962	 1.8612491129	-0.5730487833	 0.118816
H	-0.7321170011	 1.7868448869	-0.987658307	 0.117366
H	-0.2415030733	 2.0954077333	 0.6948760645	 0.092186
H	-2.1262571928	-0.5167775474	 0.436433978	 0.078529
H	-0.0203741719	-2.6126293867	 0.6291794921	 0.084775
H	-1.5740167339	-1.895001918	 2.9659727477	 0.063694
H	 0.1732084407	-1.6945303838	 4.457645547	 0.28314
H	-0.691742793	 0.8466453221	 2.7224547863	 0.075621
H	 1.7552242897	-0.3403758013	 1.3850951006	 0.087913
172.4178	214.617	233.1454	272.5695	316.0451	386.5203	529.1127	598.5224	735.3722	764.822	811.1558	824.6069	848.5281	880.0261	919.2472	928.9392	977.9096	1022.4078	1086.0296	1096.0082	1104.2356	1131.6994	1143.4443	1154.6745	1162.2206	1182.2918	1192.29	1204.4985	1212.2321	1295.6173	1305.7404	1327.5003	1436.2807	1449.5342	1492.2371	1498.2802	2961.1701	2998.5583	3059.9311	3095.6971	3099.9001	3114.5551	3125.3814	3139.8959	3821.2811
CN1C2C3C(O)C2C13	CN1[C@H]2[C@@H]3[C@@H](O)[C@H]2[C@H]13	
InChI=1S/C6H9NO/c1-7-4-2-5(7)3(4)6(2)8/h2-6,8H,1H3	InChI=1S/C6H9NO/c1-7-4-2-5(7)3(4)6(2)8/h2-6,8H,1H3/t2-,3+,4-,5+,6-
