20
gdb 116683	2.82181	0.89024	0.74373	4.5566	80.89	-0.2415	0.0082	0.2497	1582.733	0.168625	-440.254967	-440.244746	-440.243802	-440.291255	36.143	
C	 1.7099881454	-2.7369281999	-2.4768485698	-0.250518
O	 1.5169440058	-1.9281666847	-1.3211973465	-0.192047
C	 1.537173701	-2.5797907463	-0.1443206453	 0.121165
N	 1.380803517	-1.9469671844	 0.9324585053	-0.297358
C	 1.4221524236	-2.6258340946	 2.199883921	 0.320811
C	 2.4252004568	-1.9333061403	 3.1090762825	-0.089771
O	 2.1384806842	-0.557501723	 3.242339286	-0.424425
C	 0.1278127994	-3.0901054504	 2.8091842188	-0.271837
C	 1.1717451116	-4.105073012	 2.3851891795	-0.33239
H	 0.9272907163	-3.4995994946	-2.567986935	 0.129081
H	 1.6546559525	-2.0645892661	-3.3334437254	 0.149972
H	 2.6921483539	-3.2244433708	-2.4658679292	 0.130606
H	 1.6949624062	-3.663681165	-0.2234719653	 0.083704
H	 2.3908063917	-2.3737360363	 4.1114021219	 0.094837
H	 3.4407886567	-2.0941877821	 2.7081938733	 0.078233
H	 1.9148728011	-0.2560534108	 2.3516846949	 0.291941
H	-0.0332416645	-2.9099272436	 3.8665272375	 0.120159
H	-0.7631987127	-3.0119805127	 2.1957228854	 0.115557
H	 0.9439561795	-4.7228070078	 1.5239399843	 0.107065
H	 1.7361012645	-4.6231466647	 3.1539645161	 0.115213
45.5264	71.8337	92.2943	142.6325	149.7795	225.8505	230.8866	310.8061	324.5891	423.066	452.2271	470.9964	511.3462	595.169	774.3186	784.4096	898.9026	917.3609	939.0926	986.0975	996.9916	1045.9564	1050.8521	1070.1741	1076.0338	1086.8717	1164.3507	1177.2151	1183.9243	1204.7244	1265.3893	1311.7795	1336.9068	1364.0302	1410.1179	1448.5369	1463.0393	1485.5892	1494.9484	1495.6583	1500.4879	1511.8739	1769.1657	2955.1918	3013.9602	3032.7114	3065.2094	3081.0611	3131.3465	3134.4444	3148.2975	3208.4407	3224.7027	3760.6443
COC=NC1(CO)CC1	COC=NC1(CO)CC1	
InChI=1S/C6H11NO2/c1-9-5-7-6(4-8)2-3-6/h5,8H,2-4H2,1H3	InChI=1S/C6H11NO2/c1-9-5-7-6(4-8)2-3-6/h5,8H,2-4H2,1H3
