18
gdb 124858	3.59509	1.31869	1.05108	2.3615	77.56	-0.2361	0.0095	0.2455	1148.8201	0.149739	-398.150449	-398.14243	-398.141485	-398.183629	30.483	
C	 0.0201731445	 1.4970975199	-0.1438239796	-0.459693
C	-0.0096468186	-0.0134921173	-0.0243145389	 0.246197
C	 1.3006538738	-0.776958315	-0.1245325599	-0.289981
C	 0.611902437	-0.6583972252	 1.2035746986	-0.289982
C	-1.2142995941	-0.6654605094	-0.5908476009	 0.322091
N	-1.4061106964	-1.9806466453	-0.5733146747	-0.295713
N	-2.6081582716	-2.1069436202	-1.1851173579	-0.175224
C	-3.0821620102	-0.8987444859	-1.5383143563	 0.007414
N	-2.2297414616	 0.0406508191	-1.1799919899	-0.316859
H	 0.9395452335	 1.8922380323	 0.2985975881	 0.102671
H	-0.0222092141	 1.8129809625	-1.1904068383	 0.126051
H	-0.8324390776	 1.9523082622	 0.3687389708	 0.126111
H	 1.2738570787	-1.7387112866	-0.6231199076	 0.127206
H	 2.1993913383	-0.1937275325	-0.2959668866	 0.108581
H	 1.0351165476	 0.0066207279	 1.9491640347	 0.10859
H	 0.1215812896	-1.5404026595	 1.5984557777	 0.127192
H	-3.0124683901	-3.0197044938	-1.3135137407	 0.280859
H	-4.0269243087	-0.7548183734	-2.0408216885	 0.14449
33.8318	178.2503	192.5284	221.1735	307.2893	324.709	445.9808	452.8628	533.3031	547.803	678.2878	786.3336	791.5686	845.7541	846.1814	849.6371	956.9201	960.173	990.4573	1002.2803	1046.5445	1072.2439	1083.74	1107.1002	1121.4935	1170.1693	1199.8352	1230.4472	1298.5533	1312.8479	1357.3625	1418.4477	1459.7531	1473.4795	1483.749	1484.3485	1492.464	1516.1517	1552.5581	3038.6811	3108.6087	3110.6032	3131.767	3135.018	3219.4656	3233.4236	3257.2587	3666.5521
CC1(CC1)C1=NNC=N1	CC1(CC1)c1n[nH]cn1	
InChI=1S/C6H9N3/c1-6(2-3-6)5-7-4-8-9-5/h4H,2-3H2,1H3,(H,7,8,9)	InChI=1S/C6H9N3/c1-6(2-3-6)5-7-4-8-9-5/h4H,2-3H2,1H3,(H,7,8,9)
