14
gdb 11327	4.81083	1.48592	1.15179	2.7007	61.44	-0.2632	-0.0087	0.2545	980.7763	0.107909	-415.917498	-415.909976	-415.909031	-415.950043	26.177	
C	 0.0544567273	 1.4159178756	 0.0087268563	-0.344827
N	 0.0425671292	-0.0403716184	 0.0043890071	-0.309821
C	-1.0772536482	-0.6223478614	 0.0108510571	 0.39754
C	-1.2807848895	-2.1263974568	 0.0079731999	-0.168394
O	-2.7026080866	-2.3149229608	 0.0179843945	-0.236838
C	-3.341032191	-1.1145448251	 0.0258183506	 0.503294
O	-4.5273566244	-0.9738794638	 0.0359390435	-0.374358
N	-2.3701749604	-0.1172356651	 0.0220582785	-0.429928
H	 1.087734402	 1.7692797266	 0.0015649926	 0.136851
H	-0.4481072467	 1.8368891801	-0.8749371531	 0.118007
H	-0.433898366	 1.8313860478	 0.9028929088	 0.118046
H	-0.8583747792	-2.5908551335	-0.8872906667	 0.154388
H	-0.8451270669	-2.5960025747	 0.8941598082	 0.154414
H	-2.6305941395	 0.8540770795	 0.0273663426	 0.281627
64.4272	109.7487	181.7873	191.3378	232.1655	438.8142	499.3589	541.9842	603.7783	661.4534	716.7986	771.0062	906.4902	944.5675	1023.9868	1031.0475	1086.536	1110.568	1166.2032	1171.2802	1201.0035	1327.9779	1355.755	1391.5554	1439.2311	1492.7553	1499.7034	1509.3193	1802.1644	1911.8813	2980.9616	3031.4503	3064.2041	3110.2977	3111.9374	3682.9318
CN=C1COC(=O)N1	CN=C1COC(=O)N1	
InChI=1S/C4H6N2O2/c1-5-3-2-8-4(7)6-3/h2H2,1H3,(H,5,6,7)	InChI=1S/C4H6N2O2/c1-5-3-2-8-4(7)6-3/h2H2,1H3,(H,5,6,7)
