18
gdb 44534	3.43626	1.47742	1.39241	3.3484	75.23	-0.2501	0.0307	0.2808	989.6639	0.150457	-401.940253	-401.933373	-401.932429	-401.971707	28.002	
N	-0.0369839788	 1.2006728861	 0.7626131085	-0.541268
C	-0.0133645397	 0.0872581619	 0.1688113658	 0.396797
C	-1.238740161	-0.7721838789	-0.1227934102	-0.329139
C	-0.7039371103	-1.9405519254	-0.9537051743	-0.05184
C	-0.7209642175	-1.8790043035	-2.4942785996	-0.06116
C	-0.1450385629	-0.5896333289	-2.9978014614	-0.300163
C	 0.802305867	-1.6561977038	-2.5263349804	-0.059239
C	 0.8350541959	-1.7231105986	-0.9965261255	 0.076169
O	 1.1294195703	-0.5166680613	-0.2908907784	-0.237989
H	 0.9065675503	 1.5834572558	 0.8429530737	 0.220809
H	-1.6722033467	-1.1006900366	 0.8257420691	 0.134878
H	-1.9962105519	-0.1737784558	-0.6339421754	 0.139497
H	-0.9989743249	-2.9170210045	-0.5699495873	 0.084384
H	-1.3180978341	-2.5256182981	-3.1248160131	 0.093251
H	-0.1768146007	-0.4651128024	-4.0752616361	 0.119337
H	-0.2606726192	 0.3408275731	-2.4501716054	 0.133477
H	 1.5475639474	-2.0919783097	-3.1795486455	 0.091069
H	 1.4587194468	-2.5227938394	-0.5937143443	 0.091129
78.3022	160.4263	287.1029	381.6292	464.7837	528.1349	535.905	638.3874	668.7917	750.9455	767.1514	808.5531	837.3192	875.7732	890.0583	911.0964	929.7321	978.357	1004.096	1009.4189	1032.1084	1054.5892	1065.9844	1085.9655	1098.0581	1107.5662	1162.2406	1193.3828	1201.0388	1246.9748	1279.7333	1289.2994	1313.7046	1337.3595	1367.0816	1378.288	1468.886	1501.2504	1768.8223	3070.6677	3094.7138	3108.2382	3117.4127	3128.955	3186.2871	3194.5725	3210.8723	3472.9354
N=C1CC2C3CC3C2O1	[NH][C]1C[C@H]2[C@H]3C[C@H]3[C@H]2O1	
InChI=1S/C7H9NO/c8-6-2-5-3-1-4(3)7(5)9-6/h3-5,7-8H,1-2H2	InChI=1S/C7H9NO/c8-6-2-5-3-1-4(3)7(5)9-6/h3-5,7-8H,1-2H2/t3-,4+,5-,7+/m0/s1
