19
gdb 37045	2.85087	1.77317	1.47965	1.806	73.84	-0.2368	0.0831	0.3199	956.3764	0.161617	-422.988827	-422.981764	-422.98082	-423.019946	29.079	
C	 0.0200849851	 1.4325409896	 0.0859189527	-0.369256
C	 1.3739338125	 0.7693654108	-0.0498161396	 0.214093
C	 1.7731289049	 0.1290434181	 1.2918401927	-0.290756
C	 0.475937183	-0.7591868135	 1.2503339132	-0.290147
C	 0.0980349616	-0.0594377651	-0.0568975307	 0.393034
O	-0.3832726662	-0.6708759568	-1.208001955	-0.28699
C	 0.6618300803	-0.792549568	-2.1642968447	-0.002133
O	 1.3204527889	 0.4180047032	-2.4186117299	-0.237955
C	 2.1633424112	 0.8267632492	-1.3283150926	-0.183046
H	-0.265057454	 1.8925748256	 1.0291765245	 0.102642
H	-0.3419982018	 1.9344420071	-0.8040362941	 0.129477
H	 2.6862163473	-0.4681786749	 1.2278637556	 0.104254
H	 1.8661804627	 0.8193194699	 2.1358523105	 0.101752
H	 0.7131813925	-1.8150852153	 1.1022752297	 0.110179
H	-0.2331543649	-0.6690496561	 2.0790719809	 0.100129
H	 1.3892554201	-1.5529904239	-1.8268619052	 0.078049
H	 0.1874270402	-1.1051398414	-3.0958145475	 0.119872
H	 2.5247667045	 1.8238979261	-1.596830065	 0.114625
H	 3.0324913221	 0.1517047254	-1.2621900656	 0.092177
144.5866	193.3463	309.6477	336.0541	402.0772	410.672	495.2179	524.0827	561.1294	678.384	729.8037	777.9477	781.2779	874.893	919.5433	923.2253	938.8078	973.4844	994.1797	997.5311	1033.4239	1076.4507	1079.6901	1122.3921	1170.7482	1180.4752	1211.9371	1234.5124	1244.3587	1254.0915	1280.5782	1316.2093	1322.9459	1386.4862	1400.6073	1441.7118	1474.1754	1478.1295	1495.6513	1508.9185	1511.3337	2937.3799	2971.914	3046.8155	3054.1386	3075.1914	3096.9305	3110.151	3117.1647	3121.465	3219.9268
C1C23CCC12OCOC3	C1[C@@]23CC[C@@]12OCOC3	
InChI=1S/C7H10O2/c1-2-7-3-6(1,7)4-8-5-9-7/h1-5H2	InChI=1S/C7H10O2/c1-2-7-3-6(1,7)4-8-5-9-7/h1-5H2/t6-,7-/m1/s1
