16
gdb 46712	3.24826	1.69363	1.2735	3.0773	70.17	-0.2511	0.0141	0.2653	959.0803	0.126463	-437.82949	-437.822917	-437.821973	-437.860664	26.137	
N	-0.0381241128	 1.3021378487	-0.3050427724	-0.51798
C	 0.0105072849	 0.0849968392	 0.0415398071	 0.376805
O	 1.1729974384	-0.5069995168	 0.436267358	-0.262657
C	 1.1715183057	-1.8891014763	 0.8180019211	-0.119289
C	-0.1869129367	-2.5482062968	 0.7309258174	-0.045966
C	-1.1005694393	-2.2329261313	-0.4817484909	 0.033381
O	-2.2761867344	-2.5970866278	 0.3300072737	-0.309646
C	-1.4362605552	-1.7646945973	 1.2105099355	 0.033386
C	-1.2157632398	-0.7702834681	 0.0349045987	-0.082043
H	 0.8909486457	 1.7245675395	-0.237567033	 0.21958
H	 1.8882374171	-2.4065408986	 0.1686498053	 0.124207
H	 1.5562085113	-1.9434554235	 1.8437365742	 0.124217
H	-0.1655385045	-3.5989567459	 1.0258894484	 0.097666
H	-1.053670943	-2.5950658948	-1.5085546753	 0.107518
H	-1.7933539823	-1.5633432436	 2.2202707285	 0.10752
H	-2.0949255549	-0.2203433465	-0.2916726261	 0.113301
98.2977	170.5493	316.4968	381.7468	473.6659	479.2093	589.8503	654.6472	725.9793	747.2279	825.7146	867.5448	888.635	895.1054	914.0983	919.3122	972.1929	998.9945	1029.1451	1063.3761	1077.7291	1143.0338	1151.728	1173.017	1188.7454	1201.5963	1252.5607	1256.5065	1278.2828	1294.8058	1329.1513	1384.0392	1438.6216	1515.0509	1749.8263	3025.4896	3059.9656	3107.1239	3122.4668	3127.762	3163.8636	3457.4975
N=C1OCC2C3OC2C13	[NH][C]1OC[C@@H]2[C@H]3O[C@@H]2[C@@H]13	
InChI=1S/C6H7NO2/c7-6-3-4-2(1-8-6)5(3)9-4/h2-5,7H,1H2	InChI=1S/C6H7NO2/c7-6-3-4-2(1-8-6)5(3)9-4/h2-5,7H,1H2/t2-,3+,4-,5+
