16
gdb 61156	3.17578	0.91205	0.79637	3.0268	70.16	-0.2685	-0.1128	0.1557	1399.4014	0.121239	-437.921616	-437.911888	-437.910943	-437.957306	33.051	
C	 0.2292686911	 1.4288706165	 0.2839070151	-0.420583
C	 0.0726934029	-0.0871651877	 0.0337882192	-0.09812
C	 0.6388914721	-0.5229431132	-1.334023323	-0.348375
C	-0.0506561002	 0.1222763362	-2.4474050878	 0.26256
N	-0.6081518448	 0.642197344	-3.3159187505	-0.307756
C	 0.7703075633	-0.8595717132	 1.1366969289	 0.286068
O	 1.8148112225	-1.4547148932	 1.0046689157	-0.281295
C	 0.0959812855	-0.8934395426	 2.5182697304	 0.098851
O	-0.9833496933	-0.4154085603	 2.7450458332	-0.215857
H	 1.2856394281	 1.7166639155	 0.2893333372	 0.132955
H	-0.2744656484	 1.9863659734	-0.5096653735	 0.160414
H	-0.2181392178	 1.71226538	 1.2384282929	 0.150235
H	-0.9954614192	-0.325391243	 0.0902064745	 0.132425
H	 1.7069678277	-0.2877613486	-1.3852016014	 0.167765
H	 0.5591561439	-1.6087678063	-1.449778253	 0.161782
H	 0.7050784366	-1.4296306074	 3.2754188721	 0.118929
53.7966	64.9633	118.5317	125.4692	201.0919	217.6343	239.1788	282.3248	360.5567	392.3038	505.0012	532.0538	595.7138	644.2351	782.0644	862.5861	905.6918	968.4371	989.9432	1065.7187	1094.4477	1113.2338	1162.37	1252.3763	1305.343	1320.1579	1363.492	1381.1811	1409.4998	1458.218	1498.6214	1505.4342	1799.746	1824.0833	2362.9252	2933.2696	3046.121	3055.9884	3061.2739	3098.137	3122.1563	3142.2371
CC(CC#N)C(=O)C=O	C[C@@H](CC#N)C(=O)C=O	
InChI=1S/C6H7NO2/c1-5(2-3-7)6(9)4-8/h4-5H,2H2,1H3	InChI=1S/C6H7NO2/c1-5(2-3-7)6(9)4-8/h4-5H,2H2,1H3/t5-/m0/s1
