23
gdb 105081	2.49556	1.16188	1.06811	2.7715	85.7	-0.2195	0.0709	0.2904	1309.5517	0.20514	-384.406221	-384.396258	-384.395314	-384.441654	37.347	
C	-0.2760180647	 1.2475680733	 1.1005617336	-0.414545
C	-0.0676323274	-0.2309010657	 0.7547688218	-0.263383
C	 0.5565286452	-0.5497733933	-0.6028043418	 0.295477
C	 0.3860170387	 0.376180335	-1.7605960152	-0.267731
N	 1.6883747443	 0.2740518657	-1.0844719993	-0.352072
C	 0.7880208576	-2.0138742188	-0.9360560242	-0.034054
C	 0.2357414583	-3.154845369	-0.1469795733	-0.267845
N	-0.2292515271	-2.9087671884	-1.5055083073	-0.085232
C	-1.5933136542	-2.4335971735	-1.6765648096	-0.31444
H	 0.6578793801	 1.8197164309	 1.0883008234	 0.1185
H	-0.980944418	 1.7350399575	 0.4206426524	 0.125683
H	-0.6858704677	 1.3349778263	 2.1109435781	 0.12307
H	 0.5628305657	-0.6935998611	 1.5253247819	 0.110267
H	-1.0369750062	-0.7370011105	 0.8271539704	 0.110632
H	 0.3637484673	-0.0300526637	-2.7681439424	 0.120507
H	-0.2010410953	 1.2800532827	-1.6283334512	 0.107956
H	 1.8226051602	 1.0790104131	-0.4783642931	 0.226228
H	 1.7612139089	-2.1489886013	-1.4021033445	 0.105071
H	 0.8250579639	-4.0564395883	 0.0037472527	 0.111197
H	-0.4433847398	-2.925202571	 0.6721749818	 0.101211
H	-1.9553507349	-1.7594792011	-0.8847348608	 0.098962
H	-1.6771974303	-1.9065557078	-2.6323001883	 0.122371
H	-2.2620859645	-3.2998378909	-1.7113599351	 0.122171
31.6038	72.4236	158.8174	181.1235	212.7717	250.0403	291.0704	332.2772	355.0715	368.8041	414.5349	477.7759	570.7741	669.0068	757.2955	780.7924	837.4509	873.6242	907.0767	915.1758	964.1186	982.344	1027.4969	1037.9848	1050.5074	1082.2616	1106.3812	1124.9762	1133.2999	1142.5504	1160.8624	1174.8487	1206.911	1261.1746	1287.2627	1308.8765	1329.3331	1347.2795	1383.3046	1403.6393	1420.78	1450.2221	1485.5201	1491.7015	1496.3354	1499.0458	1503.8353	1515.3036	1518.4881	2981.1705	3023.9745	3037.3066	3057.5917	3066.8455	3092.7684	3099.6546	3101.2128	3109.4241	3114.7596	3132.991	3171.7646	3196.3701	3505.8451
CCC1(CN1)C1CN1C	CC[C@]1(CN1)[C@H]1CN1C	
InChI=1S/C7H14N2/c1-3-7(5-8-7)6-4-9(6)2/h6,8H,3-5H2,1-2H3	InChI=1S/C7H14N2/c1-3-7(5-8-7)6-4-9(6)2/h6,8H,3-5H2,1-2H3/t6-,7+,9?/m1/s1
