19
gdb 62397	2.50515	1.7727	1.34176	1.1754	80.48	-0.2512	0.0351	0.2863	1013.2582	0.159763	-385.842433	-385.834452	-385.833508	-385.874286	32.652	
O	-0.0330067329	 1.3679290441	-0.0856824316	-0.49156
C	 0.0367004717	-0.0501026283	-0.0452390609	 0.289876
C	 0.9735099842	-0.5366804409	-1.0504032718	 0.257589
C	 1.777767579	-0.9050177422	-1.8662257509	-0.449696
C	 0.1124633476	-0.6454019154	 1.413061663	-0.081108
C	-1.3851711343	-0.2383094634	 1.5346602452	-0.250876
C	-1.4116780021	-0.6386347916	 0.0291072601	-0.050715
C	-1.1495662389	-2.1527647687	 0.0979584999	-0.223885
C	 0.0139666428	-2.1582997603	 1.152146352	-0.22336
H	 0.8684788788	 1.7031672882	-0.0360675308	 0.28184
H	 2.47763138	-1.2316522035	-2.595437144	 0.19251
H	 0.8740768573	-0.2915893915	 2.1094936763	 0.059548
H	-2.0060608236	-0.8254103758	 2.2162672554	 0.086266
H	-1.5284452575	 0.827365742	 1.6951920034	 0.119777
H	-2.1730329405	-0.2744008081	-0.6601397397	 0.071853
H	-2.0334158551	-2.6972396015	 0.4404118846	 0.097016
H	-0.8420872437	-2.5701869214	-0.8635036656	 0.109693
H	 0.9388407321	-2.5758874178	 0.7478121514	 0.108758
H	-0.240838045	-2.7093797842	 2.0613984237	 0.096472
140.0349	150.2511	273.6406	301.9384	309.9868	317.9886	443.9715	490.5237	510.6774	550.2985	625.9978	643.2721	661.206	690.6838	822.8014	830.5561	843.4363	899.9958	901.3274	964.9637	972.2823	983.5926	1024.7456	1025.3062	1070.5582	1103.3604	1130.4434	1162.4729	1177.1794	1222.0352	1237.3064	1256.9849	1260.9082	1274.6444	1312.0363	1330.6413	1366.3296	1488.4206	1491.6541	1514.5079	2222.7668	3058.6617	3066.7507	3073.0084	3100.8229	3106.3975	3117.4477	3123.85	3168.4684	3499.2091	3811.2964
OC1(C#C)C2CC1CC2	O[C@@]1(C#C)[C@H]2C[C@@H]1CC2	
InChI=1S/C8H10O/c1-2-8(9)6-3-4-7(8)5-6/h1,6-7,9H,3-5H2	InChI=1S/C8H10O/c1-2-8(9)6-3-4-7(8)5-6/h1,6-7,9H,3-5H2/t6-,7+,8+
