18
gdb 43725	4.4213	1.0826	1.04631	3.955	77.41	-0.2449	0.013	0.2578	1181.4284	0.148548	-401.986253	-401.978453	-401.977509	-402.018966	30.406	
O	 0.2069491487	-0.0344415548	-0.0005374461	-0.365104
C	 0.0734362869	 1.1597247455	 0.0080864766	 0.439695
C	-1.1128085708	 2.154287244	 0.0310574971	-0.479072
C	-0.0380330889	 3.2819253944	 0.0215642411	 0.371916
C	 0.0423332306	 4.2326500378	-1.1984826463	-0.314572
C	 0.7612568288	 5.4395547477	-0.6448210642	-0.066114
C	 0.7808344207	 5.4321174853	 0.6882185462	-0.066114
C	 0.0782815395	 4.2189938362	 1.249254821	-0.314572
N	 0.9676778435	 2.2008008569	 0.0007622667	-0.35522
H	-1.7524190388	 2.1084696273	-0.8525015775	 0.127672
H	-1.7262040447	 2.0985106776	 0.9324522059	 0.127672
H	 0.5501404376	 3.7542532487	-2.0427247722	 0.111147
H	-0.963315837	 4.5059588321	-1.548539451	 0.114818
H	 1.1675310304	 6.2215560292	-1.2760471169	 0.097289
H	 1.2055978352	 6.2070949843	 1.3159262717	 0.097289
H	-0.9166095029	 4.4882160239	 1.6317188856	 0.114818
H	 0.6105826449	 3.7312919816	 2.0728316697	 0.111147
H	 1.9773821766	 2.2214089824	-0.0139528875	 0.247305
60.6463	88.117	265.7441	336.2626	362.4793	382.5344	415.8047	460.6825	526.3756	563.4451	680.8348	745.8475	778.621	801.9693	885.6727	885.6999	947.1129	961.3501	971.6513	978.1834	979.8591	1061.0895	1068.7414	1109.0179	1139.2626	1153.0388	1173.6221	1197.0688	1219.3894	1287.3542	1287.4524	1321.7848	1366.5292	1382.7796	1459.3238	1472.412	1481.0238	1680.3446	1895.1303	3008.2099	3008.9589	3066.8165	3067.3974	3080.3743	3138.286	3186.921	3211.5677	3602.039
O=C1CC2(CC=CC2)N1	O=C1C[C@]2(CC=CC2)N1	
InChI=1S/C7H9NO/c9-6-5-7(8-6)3-1-2-4-7/h1-2H,3-5H2,(H,8,9)	InChI=1S/C7H9NO/c9-6-5-7(8-6)3-1-2-4-7/h1-2H,3-5H2,(H,8,9)
