13
gdb 131887	2.88581	1.66916	1.05788	3.4137	69.	-0.2243	-0.0694	0.1549	1019.4558	0.090978	-486.03137	-486.023939	-486.022995	-486.063305	27.664	
N	 0.0571721935	 1.3968126288	 0.11710739	-0.59176
C	 0.0077117804	 0.0504430584	 0.0451702588	 0.329606
C	-1.1289330918	-0.7589662938	 0.0300050803	 0.374143
N	-0.6675327068	-2.0652215902	-0.0064952621	-0.326722
C	 0.6758058581	-1.986085361	-0.0164519148	 0.043
N	 1.1234611479	-0.7398426986	 0.0127500892	-0.318787
N	-2.4779648529	-0.4373398292	 0.0145366221	 0.334254
O	-3.2957824052	-1.3665209253	-0.0140940198	-0.41931
O	-2.7764921966	 0.7692288611	 0.0267334083	-0.426625
H	 0.9309900105	 1.8464823668	-0.097040506	 0.270495
H	-0.8100148291	 1.8899853062	-0.0293653037	 0.284073
H	-1.2711952171	-2.871175973	-0.0253003678	 0.29299
H	 1.3052494093	-2.8631054202	-0.0446846445	 0.154643
125.5938	164.7062	197.5948	310.3106	328.7815	357.362	458.932	495.1815	535.6168	575.1958	638.6344	728.2434	741.5563	777.6108	838.7965	866.6505	951.8169	1034.3284	1104.8661	1229.6082	1243.2627	1343.7393	1385.9492	1430.9442	1484.3857	1525.7456	1554.6081	1591.0852	1677.8825	3256.3421	3587.1433	3666.2204	3726.1866
NC1=C(NC=N1)N(=O)=O	Nc1c([nH]cn1)N(=O)=O	
InChI=1S/C3H4N4O2/c4-2-3(7(8)9)6-1-5-2/h1H,4H2,(H,5,6)	InChI=1S/C3H4N4O2/c4-2-3(7(8)9)6-1-5-2/h1H,4H2,(H,5,6)
