19
gdb 9277	5.09904	0.88419	0.8504	3.3209	69.3	-0.2505	0.0327	0.2833	1367.3836	0.163995	-402.222543	-402.212698	-402.211754	-402.258321	33.892	
C	 0.137097345	 1.4996242355	 0.1711727808	-0.383835
C	 0.0114555387	-0.015424606	-0.0189445303	 0.02236
C	 0.6833263502	-0.4732141574	-1.3145989656	-0.07543
O	 0.0080313311	 0.1379031402	-2.4033940547	-0.422498
C	 0.5904167398	-0.8068413125	 1.1660612651	-0.168046
N	-0.0860772036	-0.5345902465	 2.423728276	-0.274487
C	 0.534494959	 0.0017620213	 3.5089911017	 0.155013
O	 1.7061267206	 0.3085442721	 3.5704835038	-0.323127
H	 1.1867604185	 1.7885139311	 0.2993758193	 0.120247
H	-0.258672804	 2.0229068145	-0.7015816537	 0.133121
H	-0.4087952634	 1.8350254633	 1.0570125322	 0.111386
H	-1.0543437511	-0.270731557	-0.1159091566	 0.075615
H	 1.7486541589	-0.1892624261	-1.2948674764	 0.09052
H	 0.6378575607	-1.5722044511	-1.3901936719	 0.081865
H	 0.4841553315	-0.0735436323	-3.2113059757	 0.288429
H	 0.5429693264	-1.883172678	 0.9528151895	 0.102967
H	 1.6399405431	-0.5468462938	 1.3296562518	 0.148163
H	-1.0687794498	-0.7455187308	 2.4996411781	 0.245622
H	-0.1679904616	 0.1295088735	 4.3570001264	 0.072114
33.0436	58.2859	110.1764	158.0616	203.8183	243.9522	261.3645	268.309	307.3898	401.6843	422.2792	517.6606	540.9248	764.0313	841.0492	923.2388	930.5718	942.9208	1005.4078	1031.5188	1079.2878	1105.8506	1161.6367	1173.0131	1206.8154	1245.4488	1267.8298	1292.4971	1325.5915	1384.1396	1389.5225	1411.1538	1432.03	1460.0947	1488.3819	1493.5155	1502.0553	1520.9933	1536.4279	1807.3029	2931.8466	2955.5434	2981.2155	3003.2598	3015.4458	3038.524	3103.9409	3107.8559	3134.4899	3629.2292	3834.6524
CC(CO)CNC=O	C[C@@H](CO)CNC=O	
InChI=1S/C5H11NO2/c1-5(3-7)2-6-4-8/h4-5,7H,2-3H2,1H3,(H,6,8)	InChI=1S/C5H11NO2/c1-5(3-7)2-6-4-8/h4-5,7H,2-3H2,1H3,(H,6,8)/t5-/m1/s1
