16
gdb 48300	3.04388	0.87437	0.71389	4.2955	73.45	-0.2709	-0.0416	0.2293	1502.0938	0.124043	-434.105522	-434.096173	-434.095229	-434.141028	31.804	
N	 0.0206573506	 1.3419933971	 0.0163967247	-0.450428
C	 0.014518176	 0.0776133819	-0.0726855656	 0.094357
N	-1.1576632505	-0.6793309062	 0.0084871785	-0.067772
C	-1.0969469555	-2.1360161268	 0.011735368	-0.186115
C	-1.3089655299	-2.7187287269	 1.427757873	-0.336068
C	-1.1685905281	-4.1714494232	 1.4331259666	 0.259724
N	-1.0430614419	-5.3197676432	 1.4102203943	-0.296654
C	-2.4088496646	-0.0786701462	 0.0767655238	 0.158815
O	-3.4314616929	-0.716430071	 0.1841405542	-0.319709
H	 0.9643638605	 1.7054135629	-0.0911021221	 0.241583
H	 0.8958060383	-0.5560386049	-0.2232311644	 0.111066
H	-1.8754259484	-2.5183902169	-0.6510664122	 0.162818
H	-0.1259306311	-2.4440807234	-0.3821355744	 0.136288
H	-0.5837273067	-2.288067487	 2.1267549601	 0.15489
H	-2.309858133	-2.4472239686	 1.775016715	 0.187934
H	-2.3516263629	 1.0157393527	 0.0175112207	 0.149269
54.4599	68.3403	94.5108	149.309	189.4248	228.5957	286.4926	333.9645	402.4998	413.1529	499.8267	599.4692	710.3709	769.0265	809.2558	903.4036	964.3193	1023.8237	1044.1621	1051.2841	1063.3036	1143.6192	1222.9776	1270.4551	1300.1548	1323.9221	1388.3542	1405.1667	1429.3964	1436.8286	1471.6533	1483.3058	1727.2571	1791.5568	2365.0883	3054.1562	3055.7843	3071.1218	3080.0396	3106.4693	3136.5214	3525.8951
N=CN(CCC#N)C=O	N=CN(CCC#N)C=O	
InChI=1S/C5H7N3O/c6-2-1-3-8(4-7)5-9/h4-5,7H,1,3H2	InChI=1S/C5H7N3O/c6-2-1-3-8(4-7)5-9/h4-5,7H,1,3H2
