13
gdb 23658	3.70661	1.94967	1.27869	3.1363	64.25	-0.2158	-0.0129	0.203	864.2994	0.097508	-402.821967	-402.815645	-402.814701	-402.852242	24.851	
N	 0.016100395	 1.3657616526	 0.1638186148	-0.56536
C	-0.0155265644	-0.0074306544	 0.0629522701	 0.40017
C	-1.2262928798	-0.7203393711	 0.0411509294	-0.198911
C	-1.1687121994	-2.1041594348	-0.0081847693	-0.044656
C	 0.0633213843	-2.7546038053	-0.0323740892	-0.296643
C	 1.1822719071	-1.9335917278	-0.0084812021	 0.339802
F	 2.3875733573	-2.5004118904	-0.0357952009	-0.078563
N	 1.1773011529	-0.6206890594	 0.0329832019	-0.378186
H	 0.9040214139	 1.7817328475	-0.0720655939	 0.26005
H	-0.7911805755	 1.8729950933	-0.1602030411	 0.253677
H	-2.1739095912	-0.1951170356	 0.0687043595	 0.089268
H	-2.0863343507	-2.682982893	-0.0272293001	 0.110108
H	 0.1640315805	-3.8304153617	-0.0711486991	 0.109244
201.6296	241.8949	331.4788	396.513	457.3751	492.99	507.7227	558.2131	567.2754	693.2289	752.728	758.1214	803.6302	855.5317	983.58	990.6246	998.2425	1085.2574	1132.3818	1179.8991	1283.1428	1344.497	1377.8476	1492.175	1503.0695	1620.722	1632.5307	1660.2457	3180.7862	3198.0595	3227.0805	3587.6275	3704.7482
NC1=CC=CC(F)=N1	Nc1cccc(F)n1	
InChI=1S/C5H5FN2/c6-4-2-1-3-5(7)8-4/h1-3H,(H2,7,8)	InChI=1S/C5H5FN2/c6-4-2-1-3-5(7)8-4/h1-3H,(H2,7,8)
