20
gdb 58712	2.09241	1.4801	1.24462	2.1129	78.98	-0.2329	0.0239	0.2568	1147.4554	0.170718	-399.295863	-399.286204	-399.28526	-399.330271	35.188	
C	 0.0711536743	 1.3958673541	-0.1859981421	-0.343525
N	-0.0106388055	-0.0402822248	 0.0636553414	-0.096486
C	 0.6549470457	-0.4138870353	 1.3082269858	-0.343525
C	-1.3605861798	-0.5572605385	-0.0350707815	 0.163676
C	-2.0156189787	-0.52773687	-1.4534358473	-0.216431
N	-2.3287806313	-1.9822347285	-1.3827054322	-0.320226
C	-1.5055319943	-2.1090246508	-0.1478684523	-0.216432
C	-2.2672388283	 0.0005065126	 0.9947029499	 0.247442
N	-2.9352000617	 0.4645766534	 1.8177893073	-0.354672
H	 1.1237111331	 1.6892657366	-0.2329140565	 0.127244
H	-0.3890787783	 1.6354501889	-1.1487909968	 0.128266
H	-0.4218632494	 2.0009271719	 0.5939997797	 0.121807
H	 0.2053185503	 0.0566753523	 2.1992742032	 0.121807
H	 0.6221016084	-1.4992042671	 1.4393425803	 0.128266
H	 1.7048311565	-0.1122018533	 1.2544666832	 0.127244
H	-2.870559285	 0.1389112305	-1.5843161282	 0.124141
H	-1.266145686	-0.3211815071	-2.2238151411	 0.122592
H	-3.3102571583	-2.1212385671	-1.1676014141	 0.232074
H	-0.5389867103	-2.5754152919	-0.3626473381	 0.122593
H	-1.9809480513	-2.6189162057	 0.6926445896	 0.124142
80.1048	100.6427	137.2412	196.695	209.2396	238.221	238.6369	284.807	356.9988	423.5464	437.9352	514.2783	590.9363	632.866	765.4973	808.9833	874.8515	915.6125	941.2516	988.8932	1014.0836	1050.4425	1069.6953	1119.2014	1126.5187	1152.5124	1183.9496	1203.0153	1252.9059	1265.4802	1287.3896	1315.5023	1347.6555	1403.0014	1445.1931	1473.7632	1480.1618	1487.1415	1496.5795	1500.3326	1507.2565	1517.0983	2330.7838	2962.8335	2968.7918	3046.6805	3053.0375	3073.7498	3074.6865	3113.601	3113.9762	3114.8028	3116.3853	3531.2582
CN(C)C1(CNC1)C#N	CN(C)C1(CNC1)C#N	
InChI=1S/C6H11N3/c1-9(2)6(3-7)4-8-5-6/h8H,4-5H2,1-2H3	InChI=1S/C6H11N3/c1-9(2)6(3-7)4-8-5-6/h8H,4-5H2,1-2H3
