15
gdb 129551	3.21989	1.19535	0.98573	2.7599	72.23	-0.247	-0.0145	0.2325	1180.1944	0.112539	-416.750633	-416.74233	-416.741386	-416.78445	30.408	
N	-0.0618179308	 1.527827612	 0.0324599898	-0.49766
C	-0.0129942326	 0.0623556163	 0.0159362686	-0.258049
C	 0.6518882069	-0.5140037134	-1.1672282135	 0.327102
C	 1.1824233073	-0.9466527137	-2.1558123145	-0.485628
C	 0.6482426299	-0.461435955	 1.2721378249	 0.424673
N	 1.3833658946	 0.3275340088	 2.0153923193	-0.199134
O	 1.8565497798	-0.4626084242	 3.0560489338	-0.166493
C	 1.3838409654	-1.7081052864	 2.9008822889	 0.086551
C	 0.6104561486	-1.7882694988	 1.7911717878	-0.334049
H	 0.8625702999	 1.888186764	 0.2515198904	 0.252871
H	-0.2993278113	 1.8586983795	-0.8973876511	 0.23563
H	-1.0498646274	-0.3028418483	 0.021619291	 0.127554
H	 1.656171979	-1.329895203	-3.0257743276	 0.202739
H	 1.6798500001	-2.4200120681	 3.6556565905	 0.155305
H	 0.0954403805	-2.6466350996	 1.3939741616	 0.128585
33.2744	105.6141	190.8249	218.5842	257.7033	302.4755	410.6356	450.535	573.7272	612.1132	634.1766	654.5929	676.9429	779.1386	805.6621	863.0744	872.3292	919.7067	952.67	974.0599	1014.0898	1074.8562	1117.1662	1155.3044	1190.1039	1277.884	1324.7757	1386.6244	1453.4396	1485.4437	1609.889	1653.2984	2225.6964	3004.8288	3264.2179	3288.8977	3499.2821	3502.2666	3582.9803
NC(C#C)C1=NOC=C1	N[C@@H](C#C)c1nocc1	
InChI=1S/C6H6N2O/c1-2-5(7)6-3-4-9-8-6/h1,3-5H,7H2	InChI=1S/C6H6N2O/c1-2-5(7)6-3-4-9-8-6/h1,3-5H,7H2/t5-/m0/s1
