19
gdb 106919	3.81567	1.12885	1.0111	2.5371	76.31	-0.2353	-0.0196	0.2157	1229.7777	0.158356	-423.0402	-423.031588	-423.030644	-423.073638	32.496	
C	-0.2712763039	 1.5248527841	-0.1419179916	-0.377773
C	 0.1702432252	 0.0681527257	 0.0460845702	-0.25914
C	 0.7601647028	-0.5252365285	-1.2053481404	 0.46588
C	-0.0612388066	-1.1291956422	-2.2940269125	-0.352154
C	 0.9120630082	-2.0060608806	-1.4830754192	-0.258027
C	 2.2663367309	-2.1577649743	-2.0822174577	 0.394256
O	 2.8783194424	-3.1723530747	-2.299638805	-0.321643
C	 2.7936398131	-0.7320904594	-2.3181788101	-0.207032
O	 1.9291013972	 0.1569937177	-1.6299886553	-0.305777
H	 0.5725718101	 2.1449992823	-0.4546912239	 0.139336
H	-1.0504218377	 1.6051707842	-0.9069305101	 0.117063
H	-0.6697824065	 1.9326720884	 0.7914065462	 0.113386
H	 0.9174549514	 0.0047844239	 0.8459275907	 0.110101
H	-0.6813007418	-0.5491596014	 0.3540692518	 0.101619
H	-1.1119444149	-1.3148098884	-2.1004083263	 0.129349
H	 0.1777932677	-0.9076018406	-3.3285816115	 0.128187
H	 0.5219043867	-2.795991826	-0.8546664334	 0.114335
H	 3.811955736	-0.6358404118	-1.9277173514	 0.140378
H	 2.8230213197	-0.5148782583	-3.3958853205	 0.127656
79.9215	110.2651	137.2036	196.8935	235.0221	343.7955	370.9473	413.5872	464.0892	549.702	631.4127	650.6751	699.8098	781.1715	785.2943	872.6006	903.6742	937.9755	952.4988	981.147	1019.3378	1043.733	1052.4149	1072.046	1104.1102	1113.585	1174.8527	1204.5787	1223.073	1248.0388	1306.5046	1346.4799	1355.8037	1406.8547	1416.5457	1475.2543	1482.2359	1490.1445	1496.2805	1510.2643	1842.914	3005.3273	3034.0864	3042.4367	3072.3978	3075.8687	3110.2533	3126.65	3133.702	3202.8542	3223.9753
CCC12CC1C(=O)CO2	CC[C@]12C[C@H]1C(=O)CO2	
InChI=1S/C7H10O2/c1-2-7-3-5(7)6(8)4-9-7/h5H,2-4H2,1H3	InChI=1S/C7H10O2/c1-2-7-3-5(7)6(8)4-9-7/h5H,2-4H2,1H3/t5-,7-/m0/s1
