18
gdb 31548	3.25127	1.11958	0.85882	2.0752	77.16	-0.1673	0.0571	0.2243	1351.7644	0.147295	-435.300741	-435.290757	-435.289813	-435.336303	35.014	
C	 0.1095151914	 1.2684630461	 0.3958945399	-0.33338
N	-0.0466740724	 0.0143285587	-0.3354015156	-0.375732
C	-1.1986196072	-0.7339116541	-0.1230178155	 0.400949
N	-1.2466758517	-2.0278347268	 0.0492604869	-0.385708
C	-2.602978353	-2.3609335145	 0.1137761774	 0.146808
C	-3.0605821847	-3.7679841267	 0.3093056086	-0.498676
C	-3.3435722605	-1.2234028042	-0.0064179749	 0.29452
O	-4.6701971503	-0.9228772063	 0.0017145271	-0.443386
N	-2.4524373106	-0.1746205627	-0.1506695133	-0.348514
H	 1.0919688085	 1.687659042	 0.1665290105	 0.131752
H	-0.6344596677	 1.9991690046	 0.0610529311	 0.120596
H	 0.0164147056	 1.1623491163	 1.4875152273	 0.119048
H	 0.7507068794	-0.6000083811	-0.2313537269	 0.247138
H	-2.6774918288	-4.1909413734	 1.2452957221	 0.131319
H	-4.1545310887	-3.8365525883	 0.3420197725	 0.089001
H	-2.71714091	-4.4185276159	-0.5033254443	 0.132947
H	-5.159923191	-1.7374257626	 0.151166269	 0.304983
H	-2.7044241283	 0.7755160891	-0.3609417819	 0.266335
37.4575	93.9863	129.6145	160.4943	180.117	233.0552	247.1763	252.6278	352.7692	375.0373	427.3074	529.0941	594.7721	647.3675	658.9015	738.1295	746.4872	812.0611	985.3204	1013.052	1060.1772	1079.3904	1128.8448	1152.3714	1170.3948	1214.4776	1273.941	1312.8281	1415.1483	1421.1967	1456.271	1466.9082	1491.5805	1493.2385	1506.4416	1510.4818	1523.064	1637.3861	1686.0428	2986.2524	3016.6341	3067.2018	3073.5064	3079.164	3118.2785	3579.9092	3676.5287	3842.6163
CNC1=NC(C)=C(O)N1	CNc1nc(C)c(O)[nH]1	
InChI=1S/C5H9N3O/c1-3-4(9)8-5(6-2)7-3/h9H,1-2H3,(H2,6,7,8)	InChI=1S/C5H9N3O/c1-3-4(9)8-5(6-2)7-3/h9H,1-2H3,(H2,6,7,8)
