21
gdb 115150	2.84219	1.19102	0.9491	1.9093	78.48	-0.2377	-0.0277	0.2101	1301.0827	0.182142	-424.262494	-424.253025	-424.252081	-424.297437	35.237	
C	 0.0540872057	 1.5896286571	 0.1164465837	-0.390411
C	 0.053994156	 0.0590941373	 0.0534802329	-0.184422
C	 0.6159657915	-0.5061133426	-1.2535147792	 0.015409
C	 0.6898104089	-2.0525278465	-1.3010452544	-0.239415
C	 0.8956099371	-2.3802164154	-2.7888383949	-0.328721
C	 0.1116114729	-1.2912749924	-3.5111130736	 0.384091
O	-0.3337453534	-1.3285914674	-4.6309317333	-0.326421
C	-0.1605348239	-0.1296753521	-2.526227372	 0.025785
O	-1.5611838594	-0.1233752838	-2.2656585645	-0.438595
H	 1.0608071496	 1.9972551233	-0.0313662606	 0.10757
H	-0.5995683241	 2.0121426356	-0.6523837428	 0.131029
H	-0.3058544731	 1.9418149123	 1.0879804156	 0.111795
H	 0.645376435	-0.3452038419	 0.884977796	 0.089118
H	-0.9675326006	-0.3118233131	 0.1851439713	 0.116782
H	 1.6367935687	-0.1201639547	-1.3926810919	 0.071904
H	 1.4815253654	-2.4482509799	-0.6600758525	 0.101862
H	-0.2597634309	-2.4748656345	-0.9535322656	 0.117239
H	 1.9526765622	-2.2701154616	-3.069312948	 0.130016
H	 0.5782018741	-3.375512257	-3.1072815391	 0.129453
H	 0.159932104	 0.8283538977	-2.957852011	 0.081387
H	-2.0005839458	-0.1435304005	-3.1248959064	 0.294544
34.3672	86.719	150.6559	189.8911	226.1603	251.4459	277.6771	384.4389	416.435	449.9376	498.9518	537.9745	594.8119	661.7588	776.8101	811.7979	839.0467	854.6898	947.1192	962.3535	985.8853	1014.7693	1036.0726	1061.4915	1098.6561	1151.4642	1168.5615	1178.121	1223.8593	1241.4912	1281.5307	1299.2603	1304.4212	1323.7845	1346.9444	1367.5825	1387.5891	1409.1784	1416.424	1452.2351	1484.84	1497.4022	1498.8818	1509.5206	1839.18	2992.2598	3011.7647	3023.6599	3026.5609	3032.0981	3048.6266	3076.2293	3099.3244	3100.9887	3112.0329	3112.4039	3782.7507
CCC1CCC(=O)C1O	CC[C@H]1CCC(=O)[C@H]1O	
InChI=1S/C7H12O2/c1-2-5-3-4-6(8)7(5)9/h5,7,9H,2-4H2,1H3	InChI=1S/C7H12O2/c1-2-5-3-4-6(8)7(5)9/h5,7,9H,2-4H2,1H3/t5-,7-/m0/s1
