16
gdb 133749	2.60398	0.95394	0.81859	2.0024	53.99	-0.2672	0.0556	0.3228	1363.4472	0.11868	-606.525245	-606.515551	-606.514607	-606.560879	34.095	
O	 0.4425379643	 0.3768915868	 0.9085183188	-0.408388
C	-0.1287542207	 0.302318277	-0.3869091471	-0.098745
C	-1.5109628034	-0.3711063062	-0.3954559805	 0.092561
O	-2.0788977005	-0.3155834719	-1.6931223833	-0.424316
C	-1.4300364169	-1.7887103462	 0.1780677759	-0.3604
C	-2.7737766614	-2.4614173069	 0.3711194924	 0.288401
F	-3.3743689939	-2.7462742562	-0.7933941931	-0.077476
F	-2.6342722286	-3.6208938525	 1.0373144462	-0.080468
F	-3.6161296465	-1.6923594088	 1.0816758603	-0.086218
H	-0.0420209358	 1.0401281467	 1.4105441227	 0.291094
H	-0.2238770276	 1.2890180716	-0.85988971	 0.107993
H	 0.5702434569	-0.2872336397	-0.993563728	 0.104456
H	-2.188346032	 0.2187492915	 0.2346106904	 0.100215
H	-1.6402843419	-0.9691774072	-2.2485875589	 0.284042
H	-0.8268276886	-2.4343805871	-0.4718472979	 0.118923
H	-0.9290313235	-1.746198961	 1.148473502	 0.148327
38.5579	91.4105	130.7544	164.9068	187.4008	239.7366	302.3561	317.524	372.1115	417.9238	449.9144	504.7913	538.5123	554.6519	670.5158	835.3813	879.133	917.7648	1011.0034	1043.922	1093.3937	1121.3456	1125.2617	1154.4633	1206.502	1269.1822	1273.8408	1332.3253	1344.8686	1380.4341	1404.811	1411.7999	1423.5959	1472.9738	1502.9417	3012.6368	3036.2435	3049.283	3067.3263	3117.512	3807.4077	3818.0302
OCC(O)CC(F)(F)F	OC[C@@H](O)CC(F)(F)F	
InChI=1S/C4H7F3O2/c5-4(6,7)1-3(9)2-8/h3,8-9H,1-2H2	InChI=1S/C4H7F3O2/c5-4(6,7)1-3(9)2-8/h3,8-9H,1-2H2/t3-/m0/s1
