17
gdb 24165	5.2596	0.96677	0.85774	0.9341	74.3	-0.2083	0.0248	0.2331	1327.0589	0.136319	-421.820105	-421.812375	-421.811431	-421.853136	29.42	
C	-0.3564789236	 1.0459884562	-0.2330312696	-0.28528
C	 1.0713892691	 1.1139633953	 0.2742722654	-0.293219
C	 0.4272633943	-0.2098302099	 0.0375467937	 0.13081
O	 0.1301655127	-0.9590714002	 1.184934324	-0.269595
C	-0.8915865929	-1.8410250148	 1.0501383149	 0.31741
C	-1.7307089253	-2.0650751612	-0.0024293249	-0.143872
O	-2.6066768629	-3.0663241586	 0.3216000421	-0.149625
C	-2.3111988838	-3.4647627869	 1.5811869949	 0.022031
C	-1.2695718663	-2.7558382398	 2.086403766	-0.309976
H	-1.143176482	 1.2906842909	 0.471043509	 0.130984
H	-0.5621381366	 1.3180865683	-1.2625002286	 0.116689
H	 1.8568120106	 1.4325447789	-0.4013066726	 0.118832
H	 1.2139937406	 1.4021543154	 1.3093413558	 0.130773
H	 0.7495021396	-0.8201522102	-0.8044723634	 0.099801
H	-1.8414456475	-1.6295347568	-0.9784049353	 0.13221
H	-2.9242400629	-4.2567732906	 1.9788477117	 0.135717
H	-0.813508623	-2.8531487462	 3.0581328169	 0.116311
68.7533	74.8559	146.2618	301.1202	360.0148	381.9129	482.1324	610.4294	647.6137	695.9847	703.2389	759.4435	765.0694	821.436	824.9047	842.0835	883.442	974.8472	987.5751	1018.0623	1052.9397	1064.9967	1075.0037	1088.4026	1125.5442	1187.3823	1192.8906	1217.665	1235.4709	1261.3134	1319.0744	1387.2374	1426.2349	1455.0036	1497.2184	1543.054	1643.1583	3117.6496	3139.1256	3144.6966	3224.414	3238.1725	3262.7469	3284.9555	3303.757
C1CC1OC1=COC=C1	C1CC1Oc1cocc1	
InChI=1S/C7H8O2/c1-2-6(1)9-7-3-4-8-5-7/h3-6H,1-2H2	InChI=1S/C7H8O2/c1-2-6(1)9-7-3-4-8-5-7/h3-6H,1-2H2
