15
gdb 5632	3.22748	1.7823	1.17928	3.8301	63.46	-0.1938	0.0436	0.2374	963.363	0.119425	-399.818632	-399.810646	-399.809702	-399.851193	29.339	
O	 0.1591253082	 1.3652205905	 0.2194898084	-0.417315
C	 0.0182363267	 0.0555986364	-0.3225502209	-0.168728
C	-1.3726236769	-0.485437598	-0.1724893873	 0.148018
C	-2.5431646886	 0.2454550279	-0.1267297104	-0.157342
N	-3.5879709544	-0.6200915204	 0.0279085248	-0.240092
C	-3.1209842992	-1.9185147593	 0.0841578647	-0.215208
C	-1.7507208235	-1.8520419455	-0.0365059275	 0.210922
O	-0.8348903916	-2.8671705315	-0.0389269314	-0.448695
H	-0.1515604625	 1.3218951079	 1.1302461706	 0.275534
H	 0.2978751508	 0.1559685682	-1.3784251779	 0.116903
H	 0.7348997994	-0.6495980651	 0.1248752341	 0.101723
H	-2.6943112893	 1.3104014648	-0.1908513168	 0.128173
H	-4.5526542061	-0.3546577209	 0.1068841767	 0.261701
H	-3.7872063548	-2.7570792015	 0.2050446453	 0.109724
H	-1.2914217683	-3.7005984236	 0.1087448178	 0.294682
53.2576	166.1721	214.5296	247.8256	296.1401	336.5504	355.5641	404.8659	530.2186	606.3754	623.2317	634.0111	699.2852	755.9387	777.7742	907.5775	992.6282	1044.3755	1077.5478	1108.2955	1165.9637	1202.0684	1240.8847	1274.331	1348.6157	1374.232	1420.6313	1457.6104	1481.8985	1511.6463	1575.9802	1630.1676	2991.7698	3042.39	3259.7348	3272.6902	3697.5992	3803.9739	3837.2143
OCC1=CNC=C1O	OCc1c[nH]cc1O	
InChI=1S/C5H7NO2/c7-3-4-1-6-2-5(4)8/h1-2,6-8H,3H2	InChI=1S/C5H7NO2/c7-3-4-1-6-2-5(4)8/h1-2,6-8H,3H2
