16
gdb 42280	3.32595	1.276	0.93291	6.0133	77.42	-0.2403	-0.0351	0.2052	1186.0479	0.125649	-396.944647	-396.936505	-396.935561	-396.978053	29.454	
N	-0.0652985527	 1.3283928632	 0.084513113	-0.52839
C	 0.0881539577	 0.0553841647	 0.0668987126	 0.282679
C	-1.1251986142	-0.7508350831	 0.1187110188	 0.292339
N	-2.0713773033	-1.4127554902	 0.1590175822	-0.335637
N	 1.2384226608	-0.6766082358	 0.0057944767	-0.118156
C	 2.5520380361	-0.0413013688	-0.0519983146	-0.224556
C	 3.4772930741	-1.2256782033	-0.1058646964	-0.079308
C	 2.8044909259	-2.3711810069	-0.0828360148	-0.075279
C	 1.3205959027	-2.1437637961	-0.0099020426	-0.213419
H	 0.8303837195	 1.8145793743	 0.0453999918	 0.224834
H	 2.6465497534	 0.6086256006	-0.9366098161	 0.127885
H	 2.7311432636	 0.5944442423	 0.8298228057	 0.127889
H	 4.5519365644	-1.1106101079	-0.1564080685	 0.118484
H	 3.2280316978	-3.3665411643	-0.1111175998	 0.120262
H	 0.8732415431	-2.5853417335	 0.8914180431	 0.140189
H	 0.7886891511	-2.5711979452	-0.8712122211	 0.140187
66.2498	94.6879	140.0152	198.8748	272.2691	334.7604	411.335	467.8425	501.1506	661.6406	697.2301	716.8858	805.5582	819.5961	822.7335	942.4569	964.7423	967.5097	996.349	1027.296	1049.8459	1133.4618	1196.8855	1197.9366	1209.054	1230.8823	1332.6716	1372.6499	1384.809	1435.7671	1511.3654	1522.2288	1667.3432	1702.7249	2361.4891	2971.7466	2987.9942	3003.3885	3026.6184	3215.3523	3238.2759	3491.711
N=C(C#N)N1CC=CC1	[NH][C](C#N)N1CC=CC1	
InChI=1S/C6H7N3/c7-5-6(8)9-3-1-2-4-9/h1-2,8H,3-4H2	InChI=1S/C6H7N3/c7-5-6(8)9-3-1-2-4-9/h1-2,8H,3-4H2
