20
gdb 94177	2.42793	1.32567	1.17072	3.337	74.7	-0.2455	0.0248	0.2703	1172.3113	0.168783	-440.306809	-440.296545	-440.295601	-440.34269	36.803	
C	-0.4441047127	 1.3365037687	-0.0976576469	-0.420102
C	 0.259811617	-0.0014773357	-0.0726322542	 0.1369
O	 1.5961718502	 0.0472784407	-0.6423986402	-0.295453
C	 2.1296733739	-0.7540727034	 0.4210611828	-0.127686
C	 0.8243000258	-0.6060163402	 1.2466528191	 0.15136
C	 0.950442523	 0.3589206184	 2.4299380847	-0.454032
C	 0.0968384777	-1.8675297945	 1.6961364754	 0.338977
N	 0.8748141619	-2.8120026138	 2.3021753606	-0.527273
O	-1.1044495658	-2.0025001677	 1.5580057921	-0.367464
H	 0.1216672218	 2.1100080698	 0.4276959096	 0.115922
H	-0.5766649613	 1.659675588	-1.1350569148	 0.128288
H	-1.4345213912	 1.2443320218	 0.3592032108	 0.133762
H	-0.3520060759	-0.7459294833	-0.5980943914	 0.088654
H	 2.3502134681	-1.7807362391	 0.0933601297	 0.091479
H	 3.0359846411	-0.3142904198	 0.8561862341	 0.098283
H	 1.4686570164	 1.2744614797	 2.1317411809	 0.13032
H	-0.034665005	 0.6288558491	 2.8215530649	 0.139176
H	 1.5211294144	-0.101188077	 3.2435706157	 0.114737
H	 1.8753053509	-2.7380984588	 2.3545251054	 0.261434
H	 0.4369906697	-3.6655806429	 2.6085534118	 0.262717
30.365	70.6612	138.4009	165.4539	216.7297	221.9898	243.9116	281.5651	307.4151	330.5606	442.9471	490.0005	523.7275	571.2207	653.2111	762.9877	784.3167	871.257	899.1551	925.9976	949.1656	1033.3515	1041.5515	1079.7613	1090.3349	1119.6322	1170.4426	1182.8099	1204.7243	1232.3781	1283.0843	1353.2266	1367.3313	1392.8678	1410.1441	1416.3241	1481.519	1485.5479	1500.5732	1502.9027	1525.9814	1617.1422	1786.1197	2987.1149	3023.7379	3035.3129	3040.35	3042.9847	3103.5304	3111.8354	3117.9192	3126.1859	3601.4784	3737.9424
CC1OCC1(C)C(N)=O	C[C@H]1OC[C@]1(C)C(=O)N	
InChI=1S/C6H11NO2/c1-4-6(2,3-9-4)5(7)8/h4H,3H2,1-2H3,(H2,7,8)	InChI=1S/C6H11NO2/c1-4-6(2,3-9-4)5(7)8/h4H,3H2,1-2H3,(H2,7,8)/t4-,6+/m1/s1
