18
gdb 35332	4.48436	0.99001	0.94509	4.4111	76.52	-0.27	0.0031	0.2731	1277.1267	0.147892	-401.935513	-401.927352	-401.926408	-401.969103	30.601	
N	-0.791213242	-0.9389197063	-0.7762995976	-0.317237
C	-0.420968158	 0.0992583631	-0.4291089778	 0.275184
C	 0.0291650782	 1.4199604652	 0.0225463028	-0.014873
C	-0.1852552425	 1.7390922637	 1.5229339059	-0.369279
C	 1.3575775879	 1.7959016852	 1.5836603898	 0.464324
C	 2.0811473103	 3.0402968284	 2.1358000217	-0.289788
C	 2.4427735343	 2.2084884345	 3.3987542318	-0.216094
C	 2.1389285526	 0.9198106372	 2.5836978373	-0.283562
O	 1.4559807757	 1.5029825815	 0.1687813488	-0.308447
H	-0.3518268705	 2.1756438847	-0.6741169452	 0.127254
H	-0.6994009881	 2.6827609836	 1.7091842466	 0.12531
H	-0.6522308091	 0.942181793	 2.1018929831	 0.136303
H	 2.9635034936	 3.2568106771	 1.5267659822	 0.122065
H	 1.498021895	 3.9568765239	 2.2568647103	 0.099718
H	 3.4523174473	 2.3203974538	 3.796322075	 0.110249
H	 1.7285100917	 2.3609800261	 4.2117189966	 0.109194
H	 1.6030562013	 0.1011578634	 3.0701900167	 0.10596
H	 3.0372723722	 0.5217490818	 2.1035479721	 0.123717
36.3566	110.4038	164.3455	231.5427	283.7274	370.4425	397.6352	439.3345	544.6479	606.3017	694.366	767.8099	782.3981	853.2566	884.3889	911.4296	917.81	929.3142	961.3434	1006.1892	1027.9451	1043.2923	1099.1487	1153.2163	1173.4491	1190.4731	1216.2226	1244.3268	1245.8892	1259.4036	1275.7474	1286.7623	1318.718	1367.0678	1466.0007	1481.4421	1487.9961	1504.6519	2356.2504	3041.322	3056.3694	3062.2726	3072.1741	3088.1868	3109.4206	3114.874	3132.4246	3149.0257
N#CC1CC2(CCC2)O1	N#C[C@H]1CC2(CCC2)O1	
InChI=1S/C7H9NO/c8-5-6-4-7(9-6)2-1-3-7/h6H,1-4H2	InChI=1S/C7H9NO/c8-5-6-4-7(9-6)2-1-3-7/h6H,1-4H2/t6-/m1/s1
