18
gdb 39169	4.3122	1.07546	0.90633	2.2891	80.28	-0.2018	-0.0329	0.1689	1265.5837	0.148155	-401.93281	-401.924899	-401.923955	-401.96576	29.814	
C	-0.2666317563	 0.766506979	 0.816607945	-0.382589
C	 1.1422869027	 0.3545685412	 0.2299434769	-0.048019
C	 2.2546681767	 0.1599973743	 1.2327824612	 0.151831
O	 3.1712377316	 0.924237356	 1.3885312792	-0.243867
C	-1.6784408385	-0.7371741605	-0.9862072054	-0.291309
C	-0.9723387049	-1.7788468306	-1.8568319083	-0.245318
C	 0.537134873	-1.4728227976	-1.5993772817	-0.180241
N	 0.5023858406	-0.9008344937	-0.2442390692	-0.094614
C	-0.7792132436	-0.3238890992	-0.0977829719	 0.360509
H	-0.3627371327	 0.5486967283	 1.8838093837	 0.130909
H	-0.5950375536	 1.7857839498	 0.6169208896	 0.139128
H	 1.4618258099	 1.0331938938	-0.571233684	 0.094676
H	 2.1365763149	-0.7619450979	 1.8467729794	 0.083792
H	-2.708654399	-0.4338395178	-1.0896056805	 0.098164
H	-1.2139008818	-2.8054006527	-1.5476704555	 0.111571
H	-1.2280365628	-1.6958646214	-2.9174240156	 0.108676
H	 1.1751907512	-2.3577999623	-1.6611256366	 0.109963
H	 0.9015987926	-0.7246223287	-2.3212429662	 0.096738
66.9872	99.8829	211.9192	240.4324	270.2593	353.7125	413.5999	464.7065	606.6165	651.0807	729.0299	738.5714	815.5432	836.1878	892.8163	904.2896	957.753	962.7316	1025.1112	1045.0181	1065.6658	1082.14	1141.2137	1158.7784	1172.8856	1194.3948	1208.9876	1222.0864	1242.7538	1272.416	1304.1999	1311.6575	1377.6563	1407.7422	1471.6387	1489.9177	1510.1679	1737.5238	1833.5869	2880.5517	2978.6836	3007.702	3032.8712	3071.0584	3076.1059	3093.6586	3147.515	3252.6779
C1C2C3OC4CCN2C134	C1[C@@H](C=O)N2CC[CH][C]12	
InChI=1S/C7H9NO/c1-2-8-4-3-7(8)5(1)9-6(4)7/h4-6H,1-3H2	InChI=1S/C7H9NO/c9-5-7-4-6-2-1-3-8(6)7/h2,5,7H,1,3-4H2/t7-/m0/s1
