16
gdb 12914	3.42079	1.65477	1.3762	3.5692	66.45	-0.2333	-0.0205	0.2127	933.8091	0.128981	-383.708397	-383.700744	-383.6998	-383.740405	28.106	
C	-0.1201863848	 1.5194079917	 0.103860625	-0.485473
C	 0.0191262615	 0.0332700913	 0.1035186051	 0.436554
O	-1.1789926662	-0.7501218759	-0.0109420605	-0.315228
C	-0.6560648171	-1.7116283205	 0.9474086136	-0.102701
C	 0.6789593858	-0.9835693918	 0.9904549213	-0.200147
C	 1.2079192461	-0.7443196074	-0.4362668649	-0.170465
C	 1.1043488779	-1.7180736921	-1.5482036292	 0.149744
O	 2.0052017871	-1.9434596938	-2.3227014344	-0.273612
H	 0.8502576437	 1.9961414739	 0.2656203282	 0.13241
H	-0.5127962945	 1.8650699436	-0.8584639016	 0.142677
H	-0.8088765626	 1.8434093003	 0.8900955436	 0.13457
H	-1.2067424057	-1.6439320881	 1.8918985172	 0.120087
H	-0.6887311526	-2.7404201429	 0.575071537	 0.117027
H	 1.3295904156	-0.8696700537	 1.8467956143	 0.113614
H	 2.1394587362	-0.18555944	-0.4379789221	 0.110172
H	 0.1234085396	-2.2245732245	-1.6472025827	 0.090772
91.8123	179.9214	203.298	209.968	252.5684	317.7974	435.8614	457.4973	547.0012	646.5444	747.8196	824.0152	892.1302	918.1774	966.5494	984.8427	997.9295	1012.7319	1060.7547	1092.3603	1114.5194	1140.6492	1165.8518	1189.499	1237.6057	1301.4339	1339.0297	1400.7233	1422.8057	1470.2431	1477.6725	1496.5248	1520.5897	1804.8667	2931.6407	3037.479	3038.6872	3087.1463	3104.5914	3123.1734	3165.1619	3206.8401
CC12OCC1C2C=O	C[C@]12OC[C@H]1[C@H]2C=O	
InChI=1S/C6H8O2/c1-6-4(2-7)5(6)3-8-6/h2,4-5H,3H2,1H3	InChI=1S/C6H8O2/c1-6-4(2-7)5(6)3-8-6/h2,4-5H,3H2,1H3/t4-,5+,6-/m1/s1
