24
gdb 7386	3.41139	0.99825	0.81405	1.3	81.97	-0.2611	0.08	0.3412	1475.5167	0.221216	-351.410348	-351.399454	-351.39851	-351.446746	39.116	
C	 0.0614848706	 1.5443362308	 0.0179701661	-0.398989
C	-0.0003904067	 0.0074875352	 0.024279235	 0.053652
C	 0.7958592224	-0.5207098184	 1.2295925441	-0.397913
C	-1.4599185021	-0.5248455665	-0.0082361857	 0.038288
C	-2.2457824318	 0.0322831576	-1.2081084014	-0.40568
C	-1.5021638733	-2.0654628927	 0.0112059419	-0.174261
C	-2.9005952518	-2.6729306128	 0.0678165758	-0.086037
O	-2.746476255	-4.0644794546	 0.3179875736	-0.422812
H	 1.0988869671	 1.8853038347	 0.0972095702	 0.108339
H	-0.3547041584	 1.9795817968	-0.8935567467	 0.113608
H	-0.4874886714	 1.9624457293	 0.8709305242	 0.109071
H	 0.4973015716	-0.350669662	-0.8898624826	 0.068031
H	 0.294564262	-0.2671123522	 2.1719061803	 0.109279
H	 0.931868183	-1.6040989207	 1.2040987926	 0.119395
H	 1.7924771283	-0.0682023644	 1.2561080262	 0.107033
H	-1.9521070027	-0.1672080824	 0.9104659213	 0.064414
H	-3.278574118	-0.3270192246	-1.2129217754	 0.112312
H	-2.2899155003	 1.1234783735	-1.1975445089	 0.114788
H	-1.7844608106	-0.2759644981	-2.154554725	 0.110775
H	-0.9797404601	-2.464804793	-0.8684861121	 0.096346
H	-0.9699748393	-2.4461956806	 0.8872953355	 0.109894
H	-3.4832118318	-2.1882428682	 0.8699551978	 0.081088
H	-3.4420795461	-2.5064806164	-0.874755333	 0.086048
H	-3.6176282054	-4.4708276304	 0.2956309763	 0.283332
34.6741	75.5989	101.7957	146.9154	194.1271	208.7242	230.4877	268.461	311.5567	332.9749	364.7579	386.4277	430.9266	460.9616	531.8338	782.7087	807.4179	875.998	925.1075	941.8105	963.3553	966.3922	1002.2813	1023.2992	1062.251	1086.5092	1143.0768	1174.9124	1189.0916	1194.3234	1242.2221	1247.8564	1301.1513	1321.8232	1341.6198	1349.8292	1368.6577	1382.1564	1399.8944	1412.0658	1422.4787	1462.1796	1483.5564	1490.1349	1492.7927	1498.9324	1505.1715	1511.6197	1523.1193	1529.6794	2954.9781	2974.0076	2991.5404	3002.2731	3025.3583	3027.1105	3030.7948	3033.9472	3086.9411	3092.3063	3094.335	3100.5352	3110.2593	3119.2148	3123.8726	3829.2957
CC(C)C(C)CCO	CC(C)[C@@H](C)CCO	
InChI=1S/C7H16O/c1-6(2)7(3)4-5-8/h6-8H,4-5H2,1-3H3	InChI=1S/C7H16O/c1-6(2)7(3)4-5-8/h6-8H,4-5H2,1-3H3/t7-/m0/s1
