16
gdb 50870	3.58281	0.94884	0.77904	6.1766	67.99	-0.2467	-0.0301	0.2165	1397.9103	0.12317	-475.046619	-475.037769	-475.036825	-475.081369	30.682	
O	-0.3298803959	 0.6433458961	 0.3310498479	-0.253955
C	 0.5736192356	 1.2104926732	 0.8796499059	 0.165132
N	 1.8640793256	 1.3927697757	 0.3904065365	-0.343307
C	 2.3957289908	 0.923848695	-0.817487921	 0.399955
O	 1.7883146368	 0.2632535195	-1.6186148759	-0.29907
C	 3.8471679748	 1.374415289	-1.0333823685	-0.345264
C	 4.7733678708	 1.0432476016	 0.1165600117	 0.076841
C	 5.7725261473	 2.0004187726	 0.6072615359	-0.176092
O	 4.5577765132	 1.7803922948	 1.3329673963	-0.2397
H	 0.4809774162	 1.6795645743	 1.8806453786	 0.086795
H	 2.5098590212	 1.8880972749	 0.9948133265	 0.276204
H	 4.1917716433	 0.8917503468	-1.9505117595	 0.144506
H	 3.8484035095	 2.4588207459	-1.1970398419	 0.12973
H	 4.9574353531	-0.0181076971	 0.2817433665	 0.119445
H	 6.67229032	 1.6407484892	 1.1019612406	 0.131849
H	 5.8600538576	 2.9732299086	 0.1264296705	 0.126931
62.8957	77.0029	99.1789	168.8593	206.4226	237.0828	318.3089	351.9137	467.801	520.8707	662.8626	746.955	784.4603	799.326	870.5903	900.5831	948.5921	972.3207	1031.6017	1084.7719	1098.5747	1138.5407	1157.1544	1172.6134	1202.7431	1259.8102	1289.5846	1307.0191	1434.0744	1447.3987	1457.9734	1525.219	1537.5231	1812.0091	1873.0743	2923.8062	3043.768	3094.3468	3114.5465	3127.3539	3185.7252	3549.9234
O=CNC(=O)CC1CO1	O=CNC(=O)C[C@H]1CO1	
InChI=1S/C5H7NO3/c7-3-6-5(8)1-4-2-9-4/h3-4H,1-2H2,(H,6,7,8)	InChI=1S/C5H7NO3/c7-3-6-5(8)1-4-2-9-4/h3-4H,1-2H2,(H,6,7,8)/t4-/m0/s1
