17
gdb 78406	2.61593	1.81691	1.45832	3.8351	71.88	-0.2373	0.0074	0.2447	943.0017	0.136761	-417.95357	-417.945941	-417.944997	-417.98565	29.498	
C	-0.3507164759	 1.4991169403	 0.2422245598	-0.445448
C	 0.0322812776	 0.0540193693	-0.0094809045	 0.026533
C	 0.5743584542	-0.6469569636	-1.1943478973	-0.085539
C	 1.7556551556	 0.0043349059	-1.9472152952	 0.007808
N	 1.8488458188	 1.4563843015	-2.0723993733	-0.323753
C	 2.4487926413	 1.6545442896	-0.835478896	 0.403133
O	 2.7808419465	 2.6477001176	-0.2493755395	-0.358218
C	 2.474263989	 0.1153105284	-0.5965988451	-0.134478
N	 1.3466965543	-0.6109798549	 0.1400781081	-0.174666
H	 0.3179313014	 2.2511171187	-0.1627305019	 0.156473
H	-1.3513344188	 1.6700283385	-0.1701715431	 0.120575
H	-0.4098617063	 1.6621810309	 1.3233000549	 0.136052
H	-0.6843410861	-0.5987249832	 0.492596681	 0.109548
H	 0.139442325	-1.5810832964	-1.5398570653	 0.099124
H	 2.1507069155	-0.5695182273	-2.784719894	 0.100274
H	 1.3581526781	 2.1128488571	-2.6643287145	 0.250097
H	 3.4333737798	-0.3471837923	-0.3753592343	 0.112483
96.0151	151.0808	164.9517	269.4182	333.8985	423.3144	457.7439	502.1116	616.8941	652.2422	682.3636	694.4091	786.7711	813.282	862.6604	902.0524	937.6181	961.5326	969.3956	1023.1095	1048.9452	1077.1411	1114.1481	1139.3674	1160.7504	1178.9877	1222.9372	1259.5985	1282.6239	1326.2161	1358.4322	1372.5528	1422.3194	1450.6034	1492.3282	1506.6254	1883.8122	3044.5686	3087.8102	3097.2371	3117.8151	3144.2279	3148.5348	3206.8455	3585.6347
CC1C2C3NC(=O)C3N12	C[C@H]1[C@H]2[C@H]3NC(=O)[C@H]3N12	
InChI=1S/C6H8N2O/c1-2-4-3-5(8(2)4)6(9)7-3/h2-5H,1H3,(H,7,9)	InChI=1S/C6H8N2O/c1-2-4-3-5(8(2)4)6(9)7-3/h2-5H,1H3,(H,7,9)/t2-,3+,4-,5-,8?/m0/s1
