14
gdb 20465	6.22296	1.47126	1.28786	2.6737	63.96	-0.2372	0.0101	0.2473	910.9278	0.109775	-378.715925	-378.709477	-378.708532	-378.74696	23.828	
C	 0.2179681555	 1.5078949161	 0.0736080174	-0.172999
O	 1.2089500252	 0.4856988932	-0.051836957	-0.240512
C	-0.1660567471	 0.0840045977	 0.0103491993	-0.044292
C	-0.5446673541	-0.6768737876	 1.2157251983	 0.39077
C	-1.6821769738	-1.3773250139	 1.5699025855	-0.328333
C	-1.4134492624	-1.8523486918	 2.8715887093	 0.001317
N	-0.2058022847	-1.4893272624	 3.2961521274	-0.22651
N	 0.2964030196	-0.7696172903	 2.2765302283	-0.243657
H	 0.1909888089	 2.0194000451	 1.0338527232	 0.12532
H	 0.0865034014	 2.1390704776	-0.8037708944	 0.126511
H	-0.5760809762	-0.2874205733	-0.9276255893	 0.114513
H	-2.5728734833	-1.5151190128	 0.9784806205	 0.104134
H	-2.0494698023	-2.4455286496	 3.5121167309	 0.113581
H	 1.2440557231	-0.4303851981	 2.3060377308	 0.280158
83.5533	165.9085	185.1132	399.9084	452.6656	582.1969	663.0746	690.1467	715.9161	804.8831	852.537	892.1129	894.4881	940.8362	988.5812	1052.287	1062.9689	1093.9094	1128.6548	1153.3237	1168.9807	1243.9528	1264.6373	1306.2916	1336.4853	1396.9678	1458.886	1495.6935	1522.4253	1608.867	3089.4283	3124.7277	3183.9174	3245.4834	3269.0265	3666.9172
C1OC1C1=CC=NN1	C1O[C@H]1c1ccn[nH]1	
InChI=1S/C5H6N2O/c1-2-6-7-4(1)5-3-8-5/h1-2,5H,3H2,(H,6,7)	InChI=1S/C5H6N2O/c1-2-6-7-4(1)5-3-8-5/h1-2,5H,3H2,(H,6,7)/t5-/m1/s1
