19
gdb 126563	3.10977	1.02097	0.81825	0.4714	78.28	-0.2078	0.0278	0.2356	1428.8294	0.159658	-419.230989	-419.221544	-419.220599	-419.266165	34.17	
C	 0.006409522	 1.5466356642	 0.0490647473	-0.377975
C	 0.0073783439	 0.0178806763	 0.113170832	-0.162303
C	-1.400363946	-0.5892760191	-0.0487867425	-0.319836
C	-1.4189528467	-2.0854448028	 0.0195192444	 0.241748
N	-1.5322348319	-2.836974927	-1.0785343707	-0.285569
N	-1.4804799897	-4.1031041822	-0.6398202925	-0.188784
C	-1.3434541407	-4.2044239971	 0.7108312765	-0.111441
C	-1.2979548541	-2.9060305315	 1.1694692465	 0.189671
O	-1.1576665838	-2.5354207443	 2.4749349293	-0.448436
H	 1.0170058865	 1.9509429526	 0.1620321992	 0.113869
H	-0.3896420946	 1.9008064424	-0.9090973627	 0.118506
H	-0.6155333237	 1.9789576891	 0.841437145	 0.109784
H	 0.6550759155	-0.3915745658	-0.6704511104	 0.1128
H	 0.441105266	-0.314165201	 1.065726136	 0.092482
H	-2.0642807394	-0.1685928715	 0.7219723779	 0.087849
H	-1.822473241	-0.2857962926	-1.0123230492	 0.122706
H	-1.5558826732	-4.8528904271	-1.3043623878	 0.273254
H	-1.2919166299	-5.1491466071	 1.2255344076	 0.132317
H	-1.260465179	-1.5809057355	 2.5334394941	 0.299359
36.4069	85.2892	112.1728	188.1172	241.7266	253.0098	289.1081	317.0278	393.7654	454.1509	463.3015	654.3328	667.4031	718.7323	742.0553	756.1941	789.0828	871.021	899.9639	944.393	1042.3157	1065.0777	1076.1247	1110.3146	1159.2899	1216.1093	1247.9624	1261.1477	1308.3335	1321.8565	1349.4989	1380.5219	1413.4972	1434.984	1474.1891	1482.1838	1492.455	1500.3668	1509.9879	1534.336	1646.5159	2990.2494	3019.681	3028.8945	3058.8586	3079.545	3096.7436	3103.8636	3276.1199	3686.7414	3836.6086
CCCC1=NNC=C1O	CCCc1n[nH]cc1O	
InChI=1S/C6H10N2O/c1-2-3-5-6(9)4-7-8-5/h4,9H,2-3H2,1H3,(H,7,8)	InChI=1S/C6H10N2O/c1-2-3-5-6(9)4-7-8-5/h4,9H,2-3H2,1H3,(H,7,8)
