16
gdb 27907	1.82849	1.82271	0.91355	1.3302	77.09	-0.1972	0.0287	0.2259	1203.4053	0.125425	-437.955904	-437.947778	-437.946834	-437.987929	32.582	
N	-0.0158076327	 1.4128788291	 0.265137856	-0.592695
C	 0.0020842731	 0.0299231411	 0.0905258152	 0.367297
C	-1.2007272684	-0.6850056561	 0.0371407923	-0.307221
C	-1.1713200347	-2.0704099929	-0.0749573943	 0.438586
O	-2.3730649531	-2.7146604654	-0.1230948607	-0.445774
C	 0.0388485585	-2.764256043	-0.1386302811	-0.461408
C	 1.2303242932	-2.0378277431	-0.0869414921	 0.438586
O	 2.4485639023	-2.6492468586	-0.1471545225	-0.445774
C	 1.223254881	-0.6521201835	 0.0250448918	-0.307222
H	 0.8113568738	 1.8921463276	-0.0584769875	 0.246513
H	-0.8588523115	 1.8694865996	-0.0501558056	 0.246513
H	-2.1579077022	-0.1792525199	 0.0889676533	 0.085426
H	-2.2173531562	-3.6612646759	-0.1981806922	 0.294516
H	 0.0530994663	-3.8477571543	-0.2285291488	 0.062714
H	 2.3178475204	-3.5997368573	-0.2208130256	 0.294516
H	 2.1668327704	-0.1205802473	 0.0673863818	 0.085426
204.4363	232.1349	233.9279	310.6927	326.1534	331.3219	349.0153	352.8346	516.6884	520.2191	544.3657	569.2845	608.6259	629.1463	642.5961	696.5207	741.9694	813.6685	827.5042	1002.8475	1015.0677	1027.5551	1121.6718	1186.7118	1187.1403	1205.3773	1252.3496	1328.678	1388.2167	1409.611	1528.6939	1549.2982	1638.0713	1655.2189	1679.7238	3145.83	3192.7983	3194.1868	3568.367	3668.2914	3828.7335	3829.5019
NC1=CC(O)=CC(O)=C1	Nc1cc(O)cc(O)c1	
InChI=1S/C6H7NO2/c7-4-1-5(8)3-6(9)2-4/h1-3,8-9H,7H2	InChI=1S/C6H7NO2/c7-4-1-5(8)3-6(9)2-4/h1-3,8-9H,7H2
