18
gdb 9731	2.7443	1.90006	1.61646	2.8433	70.9	-0.2663	0.029	0.2954	901.9288	0.156072	-344.01249	-344.004427	-344.003483	-344.045219	29.981	
N	 0.1125037394	 1.5754809828	-0.3681286836	-0.541348
C	-0.049052888	 0.1807275612	 0.0471328879	 0.123747
C	 0.4780116453	-0.0543838911	 1.4822806703	-0.220483
C	-0.2401198503	-1.3292841066	 1.9711605652	-0.213025
C	-1.5517398561	-1.4258713137	 1.134256549	-0.212886
C	-1.5401598729	-0.2049340479	 0.1909804257	-0.220531
C	 0.6206110626	-0.7530104733	-0.8905901268	 0.246338
N	 1.1551886107	-1.4490418164	-1.6446982191	-0.350296
H	 1.1006183224	 1.8072674279	-0.4297388722	 0.239671
H	-0.2650990894	 1.7053856566	-1.3032399604	 0.23967
H	 1.5678118243	-0.1269625963	 1.5260967861	 0.109666
H	 0.1755512427	 0.8228815465	 2.0629564266	 0.117958
H	 0.3842536981	-2.2102483061	 1.8001764463	 0.120257
H	-0.434283963	-1.2838163276	 3.0454157192	 0.106684
H	-1.5665802383	-2.3551548293	 0.5586382631	 0.120166
H	-2.4462052219	-1.4290549906	 1.7617278701	 0.106732
H	-2.0329770212	 0.6587999318	 0.6484976287	 0.117983
H	-2.0222576746	-0.396093668	-0.771242646	 0.109696
52.2025	118.5059	180.5384	223.695	259.3081	357.2105	394.2152	481.6407	567.6167	640.0024	658.5782	682.4194	796.1317	814.7408	887.5139	901.4092	921.6568	950.1045	1002.0127	1029.1955	1054.126	1074.7953	1153.2566	1204.2587	1228.1275	1247.6811	1266.8101	1302.2705	1318.7589	1327.8005	1354.2083	1358.25	1483.5804	1494.1862	1497.4681	1518.893	1659.9262	2334.9068	3053.4289	3057.4471	3060.3268	3071.1868	3089.9254	3102.7892	3109.1442	3120.2823	3484.4735	3560.4844
NC1(CCCC1)C#N	NC1(CCCC1)C#N	
InChI=1S/C6H10N2/c7-5-6(8)3-1-2-4-6/h1-4,8H2	InChI=1S/C6H10N2/c7-5-6(8)3-1-2-4-6/h1-4,8H2
