18
gdb 100208	2.65133	1.12216	0.96569	3.0265	77.31	-0.2765	0.0229	0.2994	1273.6285	0.144508	-401.927608	-401.917368	-401.916424	-401.962651	37.012	
C	 0.029240457	 1.5929593442	 0.0173385321	-0.40809
C	 0.0203854678	 0.0528354769	 0.011110512	 0.040561
C	 0.7253055599	-0.4955244294	 1.2863908653	-0.074583
O	 2.0671425051	-0.0867519995	 1.3942871004	-0.418213
C	-1.4289912246	-0.5150996023	-0.0336389706	-0.389321
C	-2.2036147944	-0.0797264107	-1.1866931644	 0.304706
C	-2.8328710257	 0.2844515837	-2.1429746588	-0.422221
C	 0.7873021703	-0.4434269247	-1.1424556486	 0.278187
N	 1.4472612206	-0.8535985089	-1.9988271072	-0.344944
H	 1.0505303087	 1.9597662851	 0.1305841304	 0.148208
H	-0.4004600979	 1.9908968689	-0.9035651002	 0.147121
H	-0.5649743003	 1.9545343974	 0.8628560685	 0.121692
H	 0.2069703065	-0.0893758761	 2.1613769034	 0.120029
H	 0.627275044	-1.5910783045	 1.3107747239	 0.105234
H	 2.5680270615	-0.5107609091	 0.6871870951	 0.300657
H	-1.3854722163	-1.6106725222	-0.0121506783	 0.146421
H	-1.9321228892	-0.2025707084	 0.8904186731	 0.139562
H	-3.390734403	 0.5963478096	-2.9912183861	 0.204991
66.0568	109.4756	122.7745	170.4005	188.8245	231.2488	266.3836	320.8726	338.3285	359.9793	400.3416	422.4042	475.4951	582.9899	632.1207	655.6607	680.495	706.0376	877.9463	893.3803	956.5068	977.7807	995.0961	1094.0833	1134.2495	1161.0583	1183.226	1221.3248	1316.7092	1338.9785	1388.6118	1410.0848	1423.7407	1466.4844	1488.1494	1496.0329	1502.5879	2243.6021	2347.7603	2993.7604	3023.7977	3049.312	3061.1586	3079.4526	3127.3084	3153.1495	3504.5681	3791.9308
CC(CO)(CC#C)C#N	C[C@@](CO)(CC#C)C#N	
InChI=1S/C7H9NO/c1-3-4-7(2,5-8)6-9/h1,9H,4,6H2,2H3	InChI=1S/C7H9NO/c1-3-4-7(2,5-8)6-9/h1,9H,4,6H2,2H3/t7-/m1/s1
