21
gdb 57093	2.46478	1.27896	1.10857	1.4004	83.46	-0.2398	0.0549	0.2948	1233.299	0.182049	-387.069948	-387.060519	-387.059575	-387.104488	35.259	
C	-0.0097441606	 1.5621544834	 0.004082721	-0.393084
C	 0.0601411378	 0.0229728671	-0.0371966415	-0.169119
C	 0.7616062391	-0.438982113	-1.2348409439	 0.355495
C	 1.3353967332	-0.8086176651	-2.2251946999	-0.496142
C	 0.7017578745	-0.5348164478	 1.2555345965	 0.152094
C	 0.7834012022	-2.0710927256	 1.3363749725	-0.262509
C	 2.1295108281	-2.305095796	 2.0390874012	-0.21972
C	 2.9533689774	-1.1311581424	 1.5064464329	-0.064173
O	 2.0373174297	-0.0436499878	 1.3947529697	-0.273134
H	 0.9956872099	 1.9774456236	 0.0980775627	 0.146317
H	-0.4702005171	 1.9560698901	-0.9051832759	 0.120115
H	-0.6030661715	 1.8894991586	 0.8639687276	 0.11007
H	-0.9666745236	-0.3702128943	-0.0707015449	 0.100061
H	 1.8394188869	-1.1311877369	-3.10228036	 0.194583
H	 0.1136907842	-0.1381238281	 2.0969808078	 0.069408
H	-0.0670520183	-2.5000100268	 1.8715494591	 0.10079
H	 0.8032711198	-2.4984419802	 0.3290399437	 0.119109
H	 2.0194665012	-2.2281404556	 3.125985189	 0.105464
H	 2.5730199936	-3.2771081322	 1.809258833	 0.102344
H	 3.7644627816	-0.8233111378	 2.1737470684	 0.102269
H	 3.3834656216	-1.3665309433	 0.522039241	 0.099763
55.3484	82.7907	149.0322	184.2797	215.3468	240.082	271.7748	361.8193	379.7401	551.2291	575.457	615.2542	635.1439	656.4764	675.9497	772.0337	869.7197	885.0802	906.7008	936.453	938.313	992.9055	1023.0427	1046.1176	1064.9951	1104.7449	1137.6311	1157.7332	1208.1041	1210.7	1260.1354	1297.7292	1307.9	1322.8565	1341.2588	1362.0888	1384.5131	1399.3902	1408.3083	1485.6849	1491.6109	1497.5284	1503.1758	1526.5706	2229.8586	2980.9026	2999.0647	3001.6066	3044.4314	3048.3414	3058.6121	3076.1343	3103.0888	3114.6933	3116.2718	3140.1409	3504.1961
CC(C#C)C1CCCO1	C[C@@H](C#C)[C@H]1CCCO1	
InChI=1S/C8H12O/c1-3-7(2)8-5-4-6-9-8/h1,7-8H,4-6H2,2H3	InChI=1S/C8H12O/c1-3-7(2)8-5-4-6-9-8/h1,7-8H,4-6H2,2H3/t7-,8+/m0/s1
