13
gdb 8746	4.10927	1.31538	1.21766	2.657	58.67	-0.3009	-0.0097	0.2912	972.3298	0.095359	-394.78503	-394.776781	-394.775837	-394.81791	28.771	
N	 0.367920692	 1.5497806538	-0.0778751465	-0.528063
C	 0.1861969514	 0.093928031	-0.0571686554	-0.160665
C	 0.8853807693	-0.5110004332	-1.1960509115	 0.298389
N	 1.4079851826	-0.9887800113	-2.1079969886	-0.298345
C	 0.8115300741	-0.4252494985	 1.2779262852	 0.001906
O	 2.1205815781	 0.0341036383	 1.4210164051	-0.398497
C	-0.0628883528	 0.0194278652	 2.3917932933	 0.262289
N	-0.7575625288	 0.3990418383	 3.2334526387	-0.312114
H	 0.316546328	 1.9141698829	-1.0220307832	 0.265215
H	-0.3602141926	 1.9953887295	 0.4722428663	 0.266337
H	-0.8640587697	-0.2294282697	-0.1037057524	 0.141931
H	 0.8337026627	-1.5192121472	 1.2727901525	 0.157187
H	 2.1043156956	 0.958686811	 1.1212465766	 0.304431
73.2473	123.3047	172.0788	230.6298	249.4276	257.8305	322.506	412.4978	505.374	556.2735	580.8293	597.2452	739.1954	854.3396	895.1362	905.6227	973.8347	1076.8084	1118.8322	1207.8137	1263.7319	1305.6614	1344.8478	1395.0531	1442.8752	1649.7541	2353.656	2370.8612	3002.4329	3081.1439	3513.5296	3603.4246	3677.7539
NC(C#N)C(O)C#N	N[C@@H](C#N)[C@@H](O)C#N	
InChI=1S/C4H5N3O/c5-1-3(7)4(8)2-6/h3-4,8H,7H2	InChI=1S/C4H5N3O/c5-1-3(7)4(8)2-6/h3-4,8H,7H2/t3-,4-/m0/s1
