19
gdb 84869	2.4276	1.55131	1.07145	1.6518	84.08	-0.2367	-0.0098	0.2269	1148.4266	0.159912	-385.883389	-385.8751	-385.874156	-385.916051	32.621	
O	 0.7783190766	-0.3002426511	 0.9546211503	-0.436349
C	-0.1342665169	-0.2701865446	-0.1433324284	 0.038916
C	-1.4647358152	 0.3101307521	 0.3016924297	-0.077353
C	-2.513869359	 0.6648728372	-0.437216306	-0.066229
C	-2.6246919647	 0.6678747996	-1.950976584	-0.301494
C	-2.1179650192	-0.5566486941	-2.6812622409	-0.051229
C	-0.8439550635	-0.7602742273	-3.0380205266	-0.09819
C	 0.2572433179	 0.1129231267	-2.621086313	-0.113938
C	 0.5205899853	 0.3936166939	-1.3406916376	-0.068082
H	 0.8861463436	 0.6050638283	 1.2671875801	 0.275635
H	-0.2950467863	-1.3267964868	-0.3916760485	 0.116987
H	-1.5454730793	 0.379106908	 1.3850987125	 0.091154
H	-3.3944837573	 1.0241258725	 0.0906471093	 0.09055
H	-3.6762999283	 0.8166832892	-2.2153458817	 0.102734
H	-2.0861548893	 1.5473519017	-2.3282067264	 0.12691
H	-2.8699083736	-1.2802186011	-2.9873449495	 0.093756
H	-0.6013107555	-1.6043850433	-3.6820496079	 0.094381
H	 0.8942684021	 0.533982951	-3.3976129033	 0.094856
H	 1.3318536326	 1.0748788381	-1.0920512282	 0.086984
76.9575	169.6353	233.5264	270.2986	287.7395	311.5064	348.9027	419.3886	510.3454	547.6091	599.9622	632.5675	672.2225	766.9366	789.2998	801.3946	890.3529	915.9667	952.8898	977.7965	996.397	997.7444	1006.7953	1050.7247	1066.2616	1097.3372	1200.335	1216.2409	1244.881	1260.0843	1268.1744	1303.2497	1347.7399	1373.774	1397.3034	1413.3413	1433.87	1471.1231	1679.5912	1694.8801	1721.6317	3018.2086	3028.5626	3070.506	3125.1512	3131.8878	3133.797	3154.0707	3157.6924	3161.2997	3795.4681
OC1C=CCC=CC=C1	O[C@H]1C=CCC=CC=C1	
InChI=1S/C8H10O/c9-8-6-4-2-1-3-5-7-8/h1-2,4-9H,3H2/b2-1-,6-4-,7-5-	InChI=1S/C8H10O/c9-8-6-4-2-1-3-5-7-8/h1-2,4-9H,3H2/b2-1-,6-4-,7-5-/t8-/m1/s1
