22
gdb 58819	2.9183	1.27622	1.23806	1.4617	84.86	-0.2159	0.0737	0.2896	1178.3606	0.193404	-367.132708	-367.123803	-367.122859	-367.166053	35.167	
C	-0.1121633345	 1.5481357724	 0.0649527571	-0.395854
C	-0.0414278772	 0.0140921318	 0.0358779466	-0.063826
C	 0.8728622221	-0.5372574472	 1.1415263943	-0.391472
C	-1.4100647769	-0.6213665697	 0.1199390121	 0.353206
C	-1.8094610762	-1.8056357884	-0.6709525773	-0.306362
N	-2.4165575763	-0.4913861756	-0.9940790055	-0.194533
C	-3.4493787954	-0.123639601	 0.055091243	 0.009602
C	-3.6793316014	-1.0750168927	 1.194587098	-0.312251
C	-2.4534591931	-0.2011209896	 1.1869278668	-0.127127
H	 0.8775269358	 1.9819553042	-0.1099824657	 0.109454
H	-0.7912954682	 1.9168264584	-0.7088630631	 0.131098
H	-0.4647734521	 1.9184199523	 1.0338620929	 0.110559
H	 0.3763308006	-0.2797839308	-0.935910692	 0.078416
H	 0.9592522022	-1.6267655083	 1.0807999612	 0.114458
H	 1.8783005255	-0.1112497516	 1.0648035286	 0.111879
H	 0.4830698301	-0.2884464668	 2.1353469449	 0.115429
H	-1.119976616	-2.125460736	-1.4476429593	 0.117422
H	-2.4106499656	-2.6115281638	-0.2675053782	 0.115842
H	-4.1554743108	 0.6508344969	-0.2158236956	 0.10111
H	-4.4502385332	-0.7266875294	 1.8763532922	 0.11625
H	-3.6460998628	-2.155226355	 1.1108188738	 0.114166
H	-2.2433684467	 0.51740897	 1.9674500751	 0.092535
63.8506	135.4573	187.1587	225.7599	249.7365	293.9071	304.4977	449.6767	457.3166	491.0595	531.3372	608.5835	699.7424	750.5118	794.3727	818.0508	884.3842	903.2916	925.7119	933.0341	945.3082	964.0097	973.774	1024.2685	1038.7303	1056.318	1065.6356	1091.5746	1110.8155	1119.4963	1134.8333	1178.5197	1196.8593	1236.967	1282.2189	1311.4462	1334.8593	1354.3426	1394.6002	1403.3736	1418.0971	1475.2913	1487.8463	1491.3561	1502.0879	1512.4715	1524.7895	3020.2017	3028.0175	3034.9403	3093.2719	3099.6964	3104.1776	3115.9013	3121.8974	3133.7849	3188.0399	3197.7251	3206.293	3213.1261
CC(C)C12CN1C1CC21	CC(C)[C@]12CN1[C@H]1C[C@@H]21	
InChI=1S/C8H13N/c1-5(2)8-4-9(8)7-3-6(7)8/h5-7H,3-4H2,1-2H3	InChI=1S/C8H13N/c1-5(2)8-4-9(8)7-3-6(7)8/h5-7H,3-4H2,1-2H3/t6-,7+,8+,9?/m1/s1
