19
gdb 105401	2.90031	1.11515	0.91809	1.2236	72.3	-0.2336	-0.0262	0.2074	1288.1696	0.1557	-460.133845	-460.123925	-460.12298	-460.169149	35.647	
C	 0.3943827815	 0.4089866263	 1.1412402494	-0.27507
O	-0.0437930979	-0.0999761421	-0.1191856266	-0.297577
C	-1.2258670786	-0.8615063175	-0.0580903112	 0.369776
C	-2.4433992416	-0.1445532611	 0.4970838179	-0.370495
C	-2.7056141331	 1.1435501828	-0.2601847294	 0.176521
O	-2.7474610569	 2.2330321291	 0.2502181841	-0.242652
C	-1.3551011925	-1.8216370382	-1.2218455097	-0.391465
C	-0.9924077912	-2.3412761286	 0.1528017733	 0.084693
O	 0.299325395	-2.7863112192	 0.4225010183	-0.431541
H	 1.3884742509	 0.8289774488	 0.9733631883	 0.133547
H	-0.2663181464	 1.2049206319	 1.5038602548	 0.138985
H	 0.4581149182	-0.3861597276	 1.8942411564	 0.127761
H	-3.3145261078	-0.8015597285	 0.3808763724	 0.124404
H	-2.3399110983	 0.0908083202	 1.5602984942	 0.124677
H	-2.847218144	 1.0145633201	-1.3566204712	 0.084393
H	-2.3413682569	-2.0256834745	-1.624830469	 0.115988
H	-0.558006978	-1.7892444149	-1.9571031876	 0.128327
H	-1.7250621268	-2.9226017075	 0.7031477106	 0.108261
H	 0.8965042745	-2.0981518798	 0.1010797149	 0.291465
52.66	81.9649	126.0848	148.2746	195.2408	259.1118	276.8486	301.4863	319.1301	414.2181	456.0271	476.9174	502.3993	652.9647	720.5918	795.4329	852.7157	887.567	914.8825	968.9353	1029.5536	1041.7899	1080.6784	1085.3546	1093.6853	1149.3769	1181.4843	1187.9355	1211.6913	1260.5178	1300.5148	1314.3976	1344.5243	1423.158	1432.6794	1461.4807	1478.5673	1482.0179	1500.0633	1513.4378	1831.859	2883.5707	3015.2375	3037.8056	3083.4761	3098.8505	3126.6256	3130.7579	3166.6542	3223.2305	3769.9019
COC1(CC=O)CC1O	CO[C@@]1(CC=O)C[C@H]1O	
InChI=1S/C6H10O3/c1-9-6(2-3-7)4-5(6)8/h3,5,8H,2,4H2,1H3	InChI=1S/C6H10O3/c1-9-6(2-3-7)4-5(6)8/h3,5,8H,2,4H2,1H3/t5-,6+/m1/s1
