20
gdb 93412	2.85136	1.32786	0.93916	5.672	86.81	-0.205	-0.0223	0.1827	1260.5571	0.171592	-403.192877	-403.183889	-403.182945	-403.226451	33.768	
C	-0.0706588269	 1.419759203	-0.3279140023	-0.340899
N	 0.0451670421	 0.0928653544	 0.2524789823	-0.114239
C	-1.2163283785	-0.6402302914	 0.3677699193	-0.174692
C	-1.0922858973	-1.8212783073	 1.3231849517	-0.327733
C	 0.0929610769	-2.716187037	 0.9541360253	 0.367933
O	 0.0937859284	-3.9101600965	 1.2055880858	-0.3638
C	 1.2106535244	-2.0018077065	 0.3698785173	-0.298064
C	 1.1840418933	-0.6622886788	 0.0996414433	 0.380583
C	 2.4339185962	 0.037404313	-0.364807222	-0.492186
H	 0.8419701756	 1.9963557016	-0.177234516	 0.138795
H	-0.2914247716	 1.3948578008	-1.4073486996	 0.120879
H	-0.8863719293	 1.9529364488	 0.1680875874	 0.133429
H	-1.9869055267	 0.0575458837	 0.709298846	 0.109318
H	-1.5202481181	-1.0022347353	-0.6301503028	 0.105903
H	-0.9273876755	-1.4578429492	 2.3465561202	 0.122975
H	-2.0082934316	-2.4163746137	 1.3284611741	 0.122446
H	 2.1299249289	-2.554395154	 0.2210075562	 0.087378
H	 3.2582993573	-0.6741547098	-0.4133945634	 0.142697
H	 2.3088243016	 0.4880991101	-1.3555215416	 0.136963
H	 2.7195630206	 0.840285484	 0.3244234988	 0.142312
81.4977	146.1696	168.2218	176.8184	241.0387	256.4132	341.8241	375.5534	431.3982	459.9211	521.8495	561.1416	607.5926	669.7049	752.3338	794.1565	834.2393	908.2209	979.2402	1031.9731	1050.4194	1063.5908	1077.8493	1141.4651	1166.0311	1183.3063	1200.8401	1259.2659	1283.5798	1295.0522	1351.746	1390.4816	1410.1766	1448.9944	1458.6612	1470.1196	1478.807	1485.7714	1498.617	1501.1866	1532.5464	1632.4148	1756.4784	2954.4689	2975.8154	3027.0805	3034.0057	3071.7581	3085.2949	3086.7708	3111.1801	3142.735	3147.6475	3206.5957
CN1CCC(=O)C=C1C	CN1CCC(=O)C=C1C	
InChI=1S/C7H11NO/c1-6-5-7(9)3-4-8(6)2/h5H,3-4H2,1-2H3	InChI=1S/C7H11NO/c1-6-5-7(9)3-4-8(6)2/h5H,3-4H2,1-2H3
