18
gdb 124873	3.65918	1.23121	1.03142	3.715	78.33	-0.2253	0.0242	0.2495	1174.6867	0.149965	-398.125672	-398.117592	-398.116648	-398.158924	30.736	
C	-0.2617486614	 1.3721054463	-0.6419016313	-0.479811
C	-0.0209787024	 0.0045749204	-0.0278394089	 0.177888
C	 1.0204531359	-0.8724280799	-0.6504406047	-0.262085
N	 1.257634003	-0.248390817	 0.6589781584	-0.328893
C	-1.1852818262	-0.6232041598	 0.6479935237	 0.380141
C	-1.2647907212	-1.4078828389	 1.7827527558	-0.308618
C	-2.6334753328	-1.7229519253	 1.9085382569	-0.00777
N	-3.3635025044	-1.1834636709	 0.9362618499	-0.230676
N	-2.4606586762	-0.520981288	 0.1838403838	-0.278859
H	 0.6548044471	 1.7516467172	-1.1041557299	 0.11892
H	-1.0261464084	 1.3398146649	-1.4270337534	 0.119029
H	-0.5907697852	 2.0906157299	 0.1158885298	 0.138449
H	 0.8962081815	-1.9506820994	-0.6243528377	 0.127916
H	 1.549711049	-0.4901920059	-1.5203335807	 0.111499
H	 1.8670780071	 0.5598166152	 0.5595118782	 0.23136
H	-0.4407303451	-1.6875191957	 2.4167382036	 0.116959
H	-3.1176630486	-2.3166881318	 2.6702879482	 0.107966
H	-2.7824809319	-0.0279814715	-0.6310745319	 0.266585
36.1924	145.9478	192.976	229.0608	314.8922	354.2613	402.7777	474.3339	510.8411	550.5454	683.2543	713.8965	823.3405	829.4707	845.1103	899.1293	929.3953	939.6265	967.9966	990.8191	1023.7691	1053.0085	1054.778	1114.472	1129.5294	1146.6071	1201.6972	1258.8608	1282.2947	1302.5997	1357.6139	1376.9194	1417.5475	1444.079	1484.6338	1491.9962	1500.7496	1511.4924	1608.8592	3027.5053	3088.9036	3103.7741	3108.3505	3197.8249	3243.1909	3285.6172	3498.7269	3677.5504
CC1(CN1)C1=CC=NN1	C[C@]1(CN1)c1ccn[nH]1	
InChI=1S/C6H9N3/c1-6(4-7-6)5-2-3-8-9-5/h2-3,7H,4H2,1H3,(H,8,9)	InChI=1S/C6H9N3/c1-6(4-7-6)5-2-3-8-9-5/h2-3,7H,4H2,1H3,(H,8,9)/t6-/m0/s1
