21
gdb 47045	3.20268	1.29521	1.01034	3.0228	81.55	-0.2318	-0.0079	0.2238	1207.192	0.184631	-387.11894	-387.110928	-387.109984	-387.152048	31.552	
O	-0.0929614893	 0.2585858107	-1.011787656	-0.316394
C	-0.140855516	 1.1306297447	-0.1766670537	 0.396867
C	-1.369822605	 2.0281104952	-0.0115939994	-0.298479
C	-1.4124398049	 2.7341681383	 1.3519869338	-0.246774
C	-0.1496033135	 3.5810432533	 1.5456014606	 0.038778
C	 0.481256102	 3.701344514	 2.9634968716	-0.241419
C	 1.8672707313	 3.3233504528	 2.3674785137	-0.236245
C	 1.1744738703	 2.91782537	 1.0345308544	-0.008149
C	 1.0096645866	 1.4155826913	 0.7844937542	-0.321026
H	-1.3265908673	 2.7745743076	-0.8179940506	 0.127067
H	-2.2605311297	 1.4230738814	-0.2045550014	 0.124323
H	-2.3163046779	 3.3465770799	 1.4366782513	 0.101279
H	-1.4822095979	 1.9792111469	 2.1453953903	 0.098914
H	-0.2894967406	 4.5643051225	 1.0855706643	 0.070271
H	 0.4084561924	 4.6748626429	 3.4537502655	 0.10071
H	 0.0950080495	 2.9462865601	 3.6550361778	 0.098685
H	 2.5291764796	 4.1851471006	 2.2508937158	 0.102488
H	 2.4239075321	 2.5340787115	 2.8803666793	 0.098464
H	 1.5994758091	 3.3847824911	 0.1410241375	 0.073392
H	 0.765150259	 0.9090701263	 1.7304500802	 0.118267
H	 1.9181744599	 0.9453786191	 0.3993198806	 0.118983
47.6342	101.9895	198.9621	290.7614	340.55	389.9982	434.361	494.4358	553.6978	560.8359	663.7286	724.5467	758.1051	805.2944	861.5818	884.7153	914.4571	954.0746	966.8623	972.8689	1002.0694	1038.7577	1082.001	1092.9207	1117.5584	1137.9481	1195.5665	1216.5089	1238.2152	1243.4022	1262.5875	1264.7111	1274.9343	1294.714	1305.8353	1335.0553	1345.5708	1366.1348	1375.6072	1448.6343	1458.9283	1479.9339	1495.4419	1504.7383	1817.0111	3002.5177	3014.8692	3027.3149	3042.2451	3051.3191	3054.1232	3060.9754	3073.6352	3090.9094	3097.248	3098.9878	3115.3101
O=C1CCC2CCC2C1	O=C1CC[C@H]2CC[C@H]2C1	
InChI=1S/C8H12O/c9-8-4-3-6-1-2-7(6)5-8/h6-7H,1-5H2	InChI=1S/C8H12O/c9-8-4-3-6-1-2-7(6)5-8/h6-7H,1-5H2/t6-,7+/m1/s1
