14
gdb 28977	3.02609	1.53391	1.01816	4.5604	78.89	-0.2445	-0.0496	0.1949	1074.9234	0.103991	-395.812764	-395.805261	-395.804317	-395.84465	28.28	
N	-0.0065727336	 1.3783046309	 0.0965355951	-0.606316
C	-0.0011731046	 0.0204894528	 0.0321422936	 0.311636
C	-1.184849463	-0.7355185763	 0.0223314989	-0.193682
C	-1.1076473909	-2.1157834706	-0.0085564979	 0.021226
N	 0.0358967702	-2.8200594596	-0.0315082734	-0.294598
C	 1.1582412208	-2.1121433841	-0.0251393112	-0.044349
C	 1.2116008593	-0.7127441288	 0.0039864965	 0.060414
C	 2.4515836789	-0.0153021622	-0.0010020879	 0.20635
N	 3.4304155207	 0.6064141259	-0.0093962082	-0.353869
H	 0.8521003215	 1.8840494781	-0.0510309303	 0.280482
H	-0.8630449956	 1.8782871288	-0.0669745183	 0.266181
H	-2.1492404226	-0.2391627837	 0.041913836	 0.098412
H	-2.0240271029	-2.7010394885	-0.0161061135	 0.118112
H	 2.0917217217	-2.6688391627	-0.0464904592	 0.130002
132.6348	140.6775	228.588	271.7785	374.2218	380.498	462.997	468.8625	527.9146	579.7826	601.7188	615.1849	762.7136	786.9714	845.1248	878.9467	967.0225	1002.5806	1038.2385	1099.5696	1209.269	1224.8817	1313.0462	1333.7789	1376.6027	1449.0055	1529.0662	1591.7264	1630.1905	1662.247	2326.9314	3157.9918	3164.8472	3187.3482	3600.6715	3723.1418
NC1=CC=NC=C1C#N	Nc1ccncc1C#N	
InChI=1S/C6H5N3/c7-3-5-4-9-2-1-6(5)8/h1-2,4H,(H2,8,9)	InChI=1S/C6H5N3/c7-3-5-4-9-2-1-6(5)8/h1-2,4H,(H2,8,9)
