20
gdb 89923	2.87467	1.30307	1.06619	4.3616	83.72	-0.2807	0.0231	0.3038	1195.9844	0.171828	-366.012191	-366.003643	-366.002699	-366.045529	32.766	
C	 0.2465840101	 1.700508811	-0.0385605254	-0.417606
C	 0.044755853	 0.193923326	 0.0090305269	 0.049353
C	 0.8467057221	-0.713702017	-0.9716303026	-0.309838
C	 1.1536359598	-1.7145252315	 0.1944463543	 0.218691
C	 2.5628074487	-1.5478969198	 0.8274733619	-0.27963
C	 2.0336631723	-0.35813129	 1.6798324001	-0.237275
C	 0.5772811396	-0.6374371319	 1.205935193	-0.083993
C	 0.6121882743	-3.0451122187	 0.0643421191	 0.187535
N	 0.1732962169	-4.1121177046	-0.0300979694	-0.350962
H	 1.3035335218	 1.9753093772	 0.0412470842	 0.117114
H	-0.1263716333	 2.1099323082	-0.9836504585	 0.122335
H	-0.291727685	 2.199441612	 0.774704015	 0.120658
H	-1.0221651668	-0.027960262	-0.1026769133	 0.088617
H	 0.2794586447	-1.1296873606	-1.8052857366	 0.12552
H	 1.7585433023	-0.2551283113	-1.3657153982	 0.106119
H	 2.8421276615	-2.409332366	 1.4372530344	 0.125405
H	 3.370188387	-1.3436543396	 0.1195817541	 0.109481
H	 2.1828676267	-0.4777921882	 2.7541577181	 0.115477
H	 2.4246297246	 0.6210778625	 1.3950831565	 0.108761
H	-0.1331252904	-0.9039312056	 1.9885198463	 0.084237
56.9277	145.6971	167.6754	208.432	249.6416	319.4198	350.0355	431.1686	537.6208	554.0514	565.1074	607.0451	747.9579	764.3213	838.8275	866.1797	896.4579	914.5419	952.3371	965.2929	997.7735	1031.9032	1044.3536	1112.67	1130.4359	1155.6555	1167.8651	1189.1596	1227.5691	1248.1787	1260.0949	1268.2534	1288.1131	1313.4562	1329.7751	1371.0343	1411.3993	1476.2802	1480.8413	1490.7405	1496.6092	1504.1429	2340.8677	3029.9176	3041.3881	3060.4833	3064.0089	3075.8999	3096.1538	3099.4999	3106.3768	3115.3397	3126.3525	3132.413
CC1CC2(CCC12)C#N	C[C@H]1C[C@]2(CC[C@@H]12)C#N	
InChI=1S/C8H11N/c1-6-4-8(5-9)3-2-7(6)8/h6-7H,2-4H2,1H3	InChI=1S/C8H11N/c1-6-4-8(5-9)3-2-7(6)8/h6-7H,2-4H2,1H3/t6-,7-,8+/m0/s1
