22
gdb 60620	2.37599	1.27239	1.03205	3.6722	83.19	-0.2297	0.0344	0.2641	1280.5361	0.192278	-404.36814	-404.357614	-404.35667	-404.403936	37.919	
C	-0.6031364374	 1.2280102045	 0.2033132588	-0.414508
C	-0.0255311285	-0.1648411153	 0.0907233052	 0.006799
C	 1.4018049481	-0.3442821926	-0.3561014948	-0.328226
C	 1.0259106524	-0.6747949122	 1.0656433898	 0.012291
N	 1.5169884502	 0.1360502176	 2.1473849097	-0.077828
C	 2.8692562076	 0.679595789	 2.0744709483	-0.345407
C	 0.8442173093	 0.2264856733	 3.3503550575	 0.396719
C	-0.479617984	-0.5164776997	 3.4445872387	-0.498065
O	 1.2894784231	 0.849163996	 4.2993691176	-0.372097
H	 0.1229232814	 1.9264249957	 0.6285751829	 0.129569
H	-0.8957336451	 1.6053937245	-0.782230397	 0.121293
H	-1.4930402086	 1.2476864169	 0.8412744086	 0.122085
H	-0.7291450839	-0.9213265437	-0.247310317	 0.08737
H	 1.6604943723	-1.1666930309	-1.0134635282	 0.118276
H	 1.9769867463	 0.5583007085	-0.5301629811	 0.12192
H	 0.9742592494	-1.7390008943	 1.292195353	 0.095926
H	 2.9303515579	 1.5309470572	 1.3869956815	 0.118429
H	 3.1425225671	 1.018737932	 3.0725834892	 0.166742
H	 3.5724694288	-0.0883463078	 1.7357874329	 0.120915
H	-1.1829644732	-0.2098728351	 2.6674587727	 0.142483
H	-0.3311624888	-1.5966934059	 3.339528926	 0.133411
H	-0.9036229443	-0.3097756679	 4.4265013657	 0.141903
61.081	85.1793	116.9874	131.4585	160.9845	185.5082	225.0853	268.6992	322.3	365.377	423.4666	456.1812	544.0714	595.8947	624.493	708.3394	790.3283	836.7655	887.192	934.8277	968.1145	990.7618	1051.7291	1054.5185	1080.4531	1088.1161	1127.0082	1146.7299	1152.6206	1174.824	1196.2442	1214.4753	1322.5123	1372.3034	1383.7534	1397.2113	1409.9411	1424.8976	1441.1127	1467.1556	1483.4298	1488.4632	1492.0701	1503.6613	1507.1197	1517.8939	1765.7345	3026.8942	3036.3096	3050.3326	3080.2321	3094.4692	3096.4354	3112.6206	3121.6379	3138.0029	3142.5439	3165.0551	3165.8715	3222.6092
CC1CC1N(C)C(C)=O	C[C@H]1C[C@H]1N(C)C(=O)C	
InChI=1S/C7H13NO/c1-5-4-7(5)8(3)6(2)9/h5,7H,4H2,1-3H3	InChI=1S/C7H13NO/c1-5-4-7(5)8(3)6(2)9/h5,7H,4H2,1-3H3/t5-,7+/m0/s1
