16
gdb 47458	3.292	1.1399	0.90707	1.7209	71.77	-0.2627	0.0087	0.2714	1244.3592	0.123615	-437.860558	-437.852037	-437.851093	-437.894558	30.697	
N	 0.0053798404	 1.3158468176	 0.113729809	-0.534419
C	-0.0138507332	 0.073020795	-0.0875688852	 0.38108
O	 1.0618657559	-0.7342627209	-0.3082759453	-0.232116
C	 0.6040133787	-2.0867343292	-0.3421561134	 0.015407
O	-0.7753511684	-2.0497684961	-0.5876100057	-0.245726
C	-1.2570731321	-0.7980590315	-0.1126239682	 0.017526
C	-1.9181900447	-0.8829646276	 1.2803250396	-0.371211
C	-3.1229382135	-1.6997707026	 1.283106247	 0.300124
C	-4.1198858287	-2.369806358	 1.2669220536	-0.432798
H	 0.9591807728	 1.6793282696	 0.1076315144	 0.231434
H	 1.105022105	-2.614784272	-1.158032418	 0.13422
H	 0.841639728	-2.5609330037	 0.6229014018	 0.110053
H	-1.9840411745	-0.4205402136	-0.8354708074	 0.13328
H	-1.1923528635	-1.2755227324	 2.0037185097	 0.1318
H	-2.1442463534	 0.1435423072	 1.5921186324	 0.162531
H	-5.0008219487	-2.9624882318	 1.2606642658	 0.198816
56.4142	99.0584	123.0419	167.6947	227.2294	339.645	369.438	422.6904	542.8339	622.6342	636.8086	649.6259	675.1955	753.6233	847.7177	888.6569	914.8048	983.0092	990.2272	1023.1457	1047.941	1071.4975	1133.6239	1177.1603	1216.536	1235.0429	1261.5794	1302.9453	1350.3555	1376.7815	1445.3884	1461.0966	1548.729	1794.8586	2243.9231	2983.0711	3028.8279	3069.835	3091.2925	3095.4552	3484.3004	3506.9385
N=C1OCOC1CC#C	[NH][C]1OCO[C@H]1CC#C	
InChI=1S/C6H7NO2/c1-2-3-5-6(7)9-4-8-5/h1,5,7H,3-4H2	InChI=1S/C6H7NO2/c1-2-3-5-6(7)9-4-8-5/h1,5,7H,3-4H2/t5-/m0/s1
