18
gdb 18021	4.27529	1.47903	1.32315	0.4565	67.17	-0.2419	0.0725	0.3143	970.7731	0.154413	-384.89425	-384.886644	-384.8857	-384.926566	28.301	
O	 0.0201951437	 1.2767170747	-0.3548021293	-0.426008
C	 0.0250166504	-0.1119640906	-0.0443842974	-0.092907
C	-1.4175635729	-0.5622467789	 0.0538283806	 0.023484
C	-2.2931985787	-0.5370536882	-1.2401675675	-0.247675
C	-2.6744012454	-2.0288532177	-1.0168902437	-0.075973
C	-1.7070503054	-3.0273756234	-1.6668928513	-0.074712
O	-0.767190489	-2.9015752266	-0.5714665254	-0.29438
C	-1.6871780998	-2.0803007439	 0.1850559676	 0.088238
H	 0.9285283095	 1.5499503461	-0.5120813415	 0.285966
H	 0.5367783717	-0.6989740745	-0.8194788699	 0.098215
H	 0.5420886271	-0.3072073605	 0.9097282809	 0.083816
H	-1.9119077808	-0.0179027411	 0.8657352035	 0.078173
H	-3.1324545354	 0.1590180377	-1.1973452322	 0.106104
H	-1.7391229325	-0.3461798851	-2.1637896627	 0.10256
H	-3.7303106933	-2.2892951823	-0.9641547016	 0.07583
H	-2.0877414115	-4.0547134148	-1.7409252659	 0.099054
H	-1.2683457368	-2.7371543918	-2.6300329899	 0.099665
H	-1.8903621109	-2.5004952991	 1.1744859656	 0.070551
76.8568	101.8628	175.3552	258.0832	291.6529	364.6762	428.3179	501.6842	689.5864	767.0546	805.5501	844.0058	888.8985	910.0145	926.5073	981.2657	1001.7354	1021.1352	1059.6566	1072.8877	1084.6482	1137.0201	1149.4605	1166.2697	1186.7124	1217.4096	1234.9686	1256.9865	1269.1425	1290.3754	1302.5797	1319.0607	1360.5448	1362.0582	1456.7458	1481.6696	1522.2766	1526.0196	2965.2359	3003.9359	3021.6254	3049.3024	3050.065	3061.545	3065.8738	3114.2304	3126.6756	3830.1219
OCC1CC2COC12	OC[C@H]1C[C@H]2CO[C@@H]12	
InChI=1S/C6H10O2/c7-2-4-1-5-3-8-6(4)5/h4-7H,1-3H2	InChI=1S/C6H10O2/c7-2-4-1-5-3-8-6(4)5/h4-7H,1-3H2/t4-,5+,6+/m1/s1
