18
gdb 91246	3.31474	1.25013	1.06826	2.6056	71.37	-0.2266	-0.0279	0.1986	1138.0708	0.148086	-439.07893	-439.070956	-439.070012	-439.111735	30.593	
O	 0.1898794307	 1.0953200142	 0.5994441803	-0.427606
C	-0.1595451922	-0.1272844795	-0.0216968171	 0.107451
C	-1.6293631303	-0.0773881621	-0.4646757194	-0.241975
C	-1.6930388503	-1.0508023776	-1.6540181314	-0.118306
N	-0.2848764885	-1.2625349575	-2.1588620351	-0.097616
C	-0.3011477479	-2.7092310926	-1.7922084741	-0.302821
C	-1.756323505	-2.5509804811	-1.3243779209	 0.392947
O	-2.5847465985	-3.2787470557	-0.8652596005	-0.287323
C	 0.5872185702	-0.4068646156	-1.3502160962	-0.213939
H	 1.0841242548	 1.0151888424	 0.945272491	 0.286285
H	-0.0115974474	-0.9670590642	 0.6754963257	 0.074194
H	-2.3297499552	-0.3439038665	 0.3298779022	 0.127091
H	-1.8559217607	 0.9431400168	-0.7892176821	 0.124435
H	-2.4041913423	-0.7344401839	-2.4237638164	 0.108369
H	-0.1519551812	-3.3810488836	-2.644892812	 0.134503
H	 0.3906174164	-3.0065711205	-0.9916264621	 0.121918
H	 0.7424939688	 0.5538975568	-1.8573429148	 0.112409
H	 1.5668750389	-0.8759298397	-1.2140923171	 0.099986
67.4587	126.6448	190.0508	267.176	319.2795	368.2151	418.0766	463.2769	529.9953	566.5998	605.4801	707.0131	750.3929	849.1898	874.1918	883.2976	943.41	977.8855	1015.1466	1048.0446	1057.6015	1086.4313	1099.1311	1126.3502	1167.4686	1192.2391	1217.0001	1248.1221	1263.3738	1280.834	1291.3127	1305.7622	1328.6323	1358.0487	1437.392	1463.9612	1482.3297	1500.27	1906.1805	2973.433	3009.8705	3026.9493	3053.03	3064.5547	3065.993	3083.347	3117.4663	3824.261
OC1CC2N(CC2=O)C1	O[C@H]1C[C@H]2N(CC2=O)C1	
InChI=1S/C6H9NO2/c8-4-1-5-6(9)3-7(5)2-4/h4-5,8H,1-3H2	InChI=1S/C6H9NO2/c8-4-1-5-6(9)3-7(5)2-4/h4-5,8H,1-3H2/t4-,5+/m0/s1
