16
gdb 27480	2.0118	1.82904	0.96379	3.3677	76.73	-0.2236	-0.0277	0.196	1167.5877	0.126479	-434.152214	-434.144125	-434.143181	-434.184924	30.645	
C	 0.0842951254	 1.5001677104	 0.0682124448	-0.493496
C	-0.0445353168	 0.011088915	-0.0565801331	 0.409908
C	 0.1010540007	-0.6682897584	-1.2174928008	-0.348276
C	-0.0386287144	-2.11388369	-1.2525306353	 0.442213
O	 0.0687198052	-2.8269012558	-2.230903357	-0.381727
N	-0.3292878239	-2.6864504261	 0.0022811788	-0.427955
C	-0.4873040008	-2.0346955929	 1.2141906692	 0.460555
N	-0.7499251991	-2.5335027109	 2.3594184327	-0.575419
N	-0.3276451465	-0.6571076718	 1.1074045386	-0.390624
H	 0.8884131942	 1.7634985334	 0.764927516	 0.148137
H	 0.3038729742	 1.9499599942	-0.9001875194	 0.151883
H	-0.8426394031	 1.9395371924	 0.4542843959	 0.147852
H	 0.3235895189	-0.1626632438	-2.1452396917	 0.115673
H	-0.4294538061	-3.6911913376	-0.0090866269	 0.257839
H	-0.8452674709	-3.5450239734	 2.3187807907	 0.214193
H	-0.4382109072	-0.1605257147	 1.9775379776	 0.269244
123.5464	129.6671	163.1434	195.2103	294.02	372.5539	500.7886	518.6664	528.6372	554.9696	566.9744	631.3059	633.6736	719.0266	744.6085	766.5976	823.7769	943.4743	967.3965	1042.1413	1059.9421	1064.7488	1129.54	1183.9035	1244.8315	1343.5094	1394.1583	1413.4732	1452.0855	1476.8915	1478.44	1520.511	1681.2729	1747.2279	1793.8521	3035.144	3089.3542	3150.7016	3247.224	3525.2689	3620.6261	3644.9019
CC1=CC(=O)NC(=N)N1	CC1=CC(=O)N[C]([NH])N1	
InChI=1S/C5H7N3O/c1-3-2-4(9)8-5(6)7-3/h2H,1H3,(H3,6,7,8,9)	InChI=1S/C5H7N3O/c1-3-2-4(9)8-5(6)7-3/h2H,1H3,(H3,6,7,8,9)
