14
gdb 129707	3.45635	1.29756	0.94759	2.2113	74.66	-0.2123	-0.0055	0.2067	1152.888	0.101121	-432.844266	-432.83555	-432.834605	-432.877836	31.802	
N	 0.1852625892	 1.4241340388	-0.0898154827	-0.624856
C	 0.0069423863	 0.0300083589	-0.0418162924	 0.254903
C	-1.0990287339	-0.796469254	-0.0524464209	 0.123637
O	-2.3917895897	-0.3868637379	-0.0847244849	-0.449391
C	-0.5873694324	-2.1192166439	-0.0221232315	 0.134665
N	 0.7578181865	-2.114020015	 0.0113962041	-0.300766
N	 1.0778421394	-0.8195254015	-0.0116314086	-0.219986
C	-1.3808449568	-3.2892868092	-0.0196222503	 0.234507
C	-2.1448786542	-4.2216488353	-0.0219094573	-0.437814
H	 0.1054896467	 1.850722383	 0.8291029371	 0.25251
H	-0.5197329606	 1.8520982776	-0.6803853328	 0.25734
H	-2.9479211297	-1.1750154693	-0.1209346162	 0.301949
H	 2.0458114123	-0.5420094534	-0.0192885232	 0.278081
H	-2.7897731031	-5.0652148986	-0.0225857004	 0.195221
62.8741	117.1866	123.5232	253.3745	277.3504	333.7493	346.2853	407.5536	473.1821	530.7748	534.8675	557.7982	597.9046	672.6681	681.7983	740.1479	749.352	785.0592	829.8002	1035.2867	1185.289	1195.9039	1263.0511	1311.0863	1321.9627	1418.2753	1470.806	1536.9268	1652.2963	1680.5262	2225.6693	3493.9043	3500.6325	3572.8316	3662.2144	3785.0415	62.871	117.1866	123.5233	253.3743	277.3502	333.7482	346.2837	407.5536	473.1815	530.7748	534.8667	557.7983	597.9045	672.6681	681.7977	740.1478	749.3519	785.0592	829.8001	1035.2867	1185.2889	1195.9039	1263.0509	1311.0863	1321.9631	1418.2752	1470.8061	1536.9268	1652.2964	1680.5262	2225.6693	3493.9043	3500.6323	3572.8316	3662.2145	3785.0403
NC1=C(O)C(=NN1)C#C	Nc1c(O)c(n[nH]1)C#C	
InChI=1S/C5H5N3O/c1-2-3-4(9)5(6)8-7-3/h1,9H,(H3,6,7,8)	InChI=1S/C5H5N3O/c1-2-3-4(9)5(6)8-7-3/h1,9H,(H3,6,7,8)
