20
gdb 7828	3.01672	1.82946	1.22791	0.32	71.88	-0.231	0.0932	0.3242	1032.9658	0.17724	-386.151577	-386.143361	-386.142417	-386.183738	31.37	
C	-0.0109256188	 1.5105513148	 0.063873969	-0.407729
C	 0.0315828329	-0.0074179746	-0.0003712143	 0.129248
C	 0.7335474459	-0.5316926579	-1.2540683449	-0.081768
O	 0.8352644406	-1.9450029726	-1.2283105508	-0.254016
C	 1.5198766086	-2.3874395802	-0.068996507	-0.081767
C	 0.8291793206	-1.8897685716	 1.201685543	 0.129247
C	 1.5847982651	-2.2553913078	 2.4687795106	-0.407729
O	 0.7205915886	-0.4695944152	 1.158179665	-0.278854
H	 1.0019936544	 1.9246470733	 0.0472154917	 0.124256
H	-0.5694247497	 1.9184459235	-0.7842402514	 0.115871
H	-0.4961418815	 1.8353503501	 0.987832318	 0.127446
H	-0.994237804	-0.4152883615	 0.0076428248	 0.068268
H	 0.168079073	-0.2744461415	-2.1549778771	 0.104809
H	 1.7360153302	-0.0753424547	-1.3237207134	 0.086035
H	 1.5268134497	-3.4810836838	-0.1072332967	 0.104808
H	 2.5629519191	-2.026922607	-0.0774514906	 0.086035
H	-0.1850690447	-2.3249498697	 1.227147938	 0.068269
H	 2.5953407828	-1.8356868335	 2.4485200846	 0.124255
H	 1.0677524026	-1.8554333072	 3.3447505818	 0.127446
H	 1.6595386445	-3.3419988829	 2.5750551397	 0.115871
153.0188	154.663	204.7657	215.6542	244.5013	321.1104	351.4158	445.4966	455.2857	480.3001	491.0707	602.0192	839.4714	862.0603	896.7707	927.5075	969.6074	975.2978	979.3967	1108.6265	1134.743	1135.5803	1144.8593	1166.3949	1169.2834	1200.0091	1261.2589	1325.7255	1326.7407	1343.5332	1354.1979	1396.845	1403.6822	1406.6386	1420.7552	1431.3267	1476.2474	1481.5846	1484.6237	1490.8233	1499.4197	1502.3828	2947.8144	2954.6731	2963.4704	2969.8055	3042.4766	3042.8633	3082.5018	3084.4668	3115.0321	3115.3853	3123.0323	3123.274
CC1COCC(C)O1	C[C@H]1COC[C@@H](C)O1	
InChI=1S/C6H12O2/c1-5-3-7-4-6(2)8-5/h5-6H,3-4H2,1-2H3	InChI=1S/C6H12O2/c1-5-3-7-4-6(2)8-5/h5-6H,3-4H2,1-2H3/t5-,6+
