15
gdb 10452	3.35951	1.49868	1.22264	4.0655	65.83	-0.2668	-0.0407	0.2262	985.5978	0.117538	-362.676483	-362.668426	-362.667482	-362.709606	28.387	
O	-0.4140100812	 0.5506014464	-1.0613587525	-0.262978
C	-0.0478506743	 1.0782904852	-0.039772436	 0.10073
C	 1.2083515892	 1.875289885	 0.0813192668	 0.253206
C	 1.4813112373	 2.5030202139	 1.4426948633	-0.450272
C	 1.7170554998	 1.5080839434	 2.4924638913	 0.267335
N	 1.8974277362	 0.7116337209	 3.3098008121	-0.298671
C	 2.3775851939	 1.4007859903	-0.7729161189	-0.274442
C	 1.6356107419	 2.6286556486	-1.1733544814	-0.301029
H	-0.6467648848	 0.9980932995	 0.8943101011	 0.090722
H	 2.3581103168	 3.1560106345	 1.3841742393	 0.15815
H	 0.6417690563	 3.1385465402	 1.7507288047	 0.16001
H	 3.368722644	 1.5008032625	-0.3442316221	 0.131542
H	 2.203109325	 0.496575408	-1.3439975645	 0.150909
H	 0.9561596179	 2.5557129661	-2.014556564	 0.149981
H	 2.1045358518	 3.5961851155	-1.0309417993	 0.124805
55.4006	100.1191	131.7249	248.7811	295.7174	315.893	361.5012	384.286	483.6015	658.0599	745.2708	792.772	834.305	894.5278	911.5215	962.2184	991.1071	1031.964	1057.0298	1072.8984	1105.0497	1203.1479	1206.6701	1283.8336	1324.4623	1358.9281	1437.0422	1452.9331	1461.6362	1487.4055	1814.3199	2362.776	2889.7187	3039.2838	3084.1424	3138.903	3142.7311	3228.9886	3242.548
O=CC1(CC#N)CC1	O=CC1(CC#N)CC1	
InChI=1S/C6H7NO/c7-4-3-6(5-8)1-2-6/h5H,1-3H2	InChI=1S/C6H7NO/c7-4-3-6(5-8)1-2-6/h5H,1-3H2
