19
gdb 98853	3.09744	1.11878	0.98648	2.7894	72.02	-0.2487	0.0027	0.2514	1271.8461	0.15769	-460.178421	-460.168745	-460.167801	-460.214578	33.517	
C	 0.8712538454	 1.487547704	-0.5990803858	-0.242082
O	 1.0937943488	 0.0707770353	-0.615359496	-0.235724
C	 0.104671736	-0.662912393	-1.1652781738	 0.449387
O	-0.9120744276	-0.1876908068	-1.6078054041	-0.359939
C	 0.4739362399	-2.1242539779	-1.1792344822	-0.209995
C	-0.6443271121	-3.0991241563	-1.5841371191	-0.081273
O	 0.053277494	-3.4941414962	-2.7831138597	-0.28659
C	 1.17390787	-2.6352392451	-2.4860469249	 0.161184
C	 1.4684933033	-1.6514563365	-3.6000790626	-0.415487
H	 0.7499456959	 1.8704507136	-1.6154545244	 0.142168
H	-0.0263036854	 1.7291841733	-0.0244805583	 0.143112
H	 1.7541356557	 1.9211282611	-0.1295558703	 0.134641
H	 1.0231314146	-2.3717835131	-0.2711505334	 0.102975
H	-0.7958314309	-3.9418556013	-0.8997013086	 0.099661
H	-1.6020189573	-2.6175825484	-1.8038555587	 0.127398
H	 2.0686324035	-3.2306168497	-2.2590389609	 0.081612
H	 0.5936382531	-1.0316320282	-3.8142265536	 0.14085
H	 2.3081169821	-1.003313817	-3.3268339208	 0.11963
H	 1.7369289611	-2.1966768877	-4.5099298528	 0.128472
22.7325	72.5347	107.815	128.2906	198.5722	213.8088	248.0352	330.3282	353.4806	397.5174	466.2516	642.2012	741.2978	774.4454	842.9799	888.5221	904.6219	962.6215	1001.9023	1028.2117	1086.3253	1103.1534	1109.6559	1148.524	1177.5384	1179.1998	1199.7587	1218.559	1225.8341	1285.8199	1362.1516	1370.0113	1391.1417	1408.5843	1473.8779	1482.3411	1484.7245	1496.8332	1497.912	1520.7138	1812.8646	3006.7002	3029.2366	3038.1596	3053.1303	3088.3321	3110.5348	3116.3031	3125.007	3128.1773	3160.6161
COC(=O)C1COC1C	COC(=O)[C@H]1CO[C@H]1C	
InChI=1S/C6H10O3/c1-4-5(3-9-4)6(7)8-2/h4-5H,3H2,1-2H3	InChI=1S/C6H10O3/c1-4-5(3-9-4)6(7)8-2/h4-5H,3H2,1-2H3/t4-,5-/m0/s1
