18
gdb 54033	2.26899	1.54838	0.96334	1.0546	75.02	-0.246	-0.0109	0.235	1198.5486	0.148526	-435.27774	-435.268855	-435.267911	-435.311831	33.177	
N	-0.0866337115	 1.361186323	 0.3208064482	-0.543509
C	 0.0562170344	-0.0020400331	 0.0690154497	 0.416027
N	 1.2221446067	-0.5063364037	-0.0106042137	-0.539037
N	-1.1683067723	-0.7066162767	-0.0995664884	-0.136514
C	-2.3811451975	-0.0401000349	-0.2428197844	 0.135502
O	-3.4709292176	-0.5603934342	-0.2042046387	-0.316767
C	-1.1225393035	-2.1484977615	-0.015841617	 0.018113
C	-2.0269068514	-2.9904455029	-0.8658805403	-0.273596
C	-0.5571957206	-2.9549202711	-1.1724074858	-0.273234
H	 0.8233635733	 1.7669442501	 0.496328447	 0.264247
H	-0.7544097326	 1.6064994195	 1.0394880552	 0.254853
H	 1.1921957896	-1.4752863947	-0.3122279461	 0.230563
H	-2.2360246966	 1.0349056366	-0.4266105248	 0.117123
H	-0.9002095795	-2.5115197201	 0.983587803	 0.114997
H	-2.4435497245	-3.8758185823	-0.4000480492	 0.125948
H	-2.70323911	-2.4834304786	-1.5390029495	 0.148136
H	-0.2470415182	-2.4040368289	-2.053227296	 0.133288
H	 0.0597847419	-3.8145337965	-0.934198839	 0.123862
48.8734	93.5155	159.1233	215.9019	242.3951	280.5526	396.3154	411.3067	433.8637	482.0101	531.1783	632.6209	656.637	742.8567	782.5549	801.3697	828.337	858.908	933.8969	948.4195	1052.2005	1060.4192	1073.8496	1086.1744	1118.5181	1130.6102	1158.3467	1188.3329	1197.0864	1233.0252	1323.2068	1390.4092	1433.4562	1446.851	1468.2123	1503.908	1622.0352	1730.725	1801.0912	3026.4337	3136.8071	3143.1214	3161.3699	3224.0834	3257.4009	3545.8249	3553.7109	3647.7208
NC(=N)N(C=O)C1CC1	NC(=N)N(C=O)C1CC1	
InChI=1S/C5H9N3O/c6-5(7)8(3-9)4-1-2-4/h3-4H,1-2H2,(H3,6,7)	InChI=1S/C5H9N3O/c6-5(7)8(3-9)4-1-2-4/h3-4H,1-2H2,(H3,6,7)
