19
gdb 50764	3.19	1.15469	0.90867	2.642	71.96	-0.2559	-0.0302	0.2257	1268.1272	0.159336	-460.166786	-460.158202	-460.157258	-460.200652	31.444	
O	-0.8584291036	 0.9121441948	 0.6876338261	-0.24745
C	 0.261094868	 0.6354300652	 0.3462146986	 0.141573
C	 1.3125090296	 1.6688637966	-0.0448687877	 0.027416
C	 1.258982294	 2.9121207945	 0.8538519383	-0.196442
C	 2.1060503145	 4.0711526486	 0.3119561047	-0.254518
C	 3.617381863	 3.925141682	 0.5628822068	-0.066144
O	 4.1133730191	 2.5891073296	 0.5734154063	-0.231037
C	 3.670959302	 1.7248647588	-0.428893308	 0.01466
O	 2.5443421701	 0.9733441962	-0.0474704836	-0.249776
H	 0.6226582235	-0.4127926752	 0.2732442137	 0.099025
H	 1.0639114087	 1.9829233162	-1.0780406323	 0.093382
H	 0.2067451495	 3.2079176807	 0.9085257708	 0.12634
H	 1.5729583489	 2.6362421129	 1.8665435764	 0.117693
H	 1.9079485896	 4.180969348	-0.7614643627	 0.103619
H	 1.7873915656	 5.0140826873	 0.7707785585	 0.109457
H	 4.1740978144	 4.5267924189	-0.1713491903	 0.097049
H	 3.8695888815	 4.3097130201	 1.5558236671	 0.117659
H	 3.4712382874	 2.2668267189	-1.3698273684	 0.078684
H	 4.4642445142	 0.9899303261	-0.5860847243	 0.118811
71.8481	89.0232	132.2805	196.029	258.1808	326.6046	345.6243	382.6227	449.1092	545.5941	614.4296	628.2975	757.3064	838.6814	880.8076	894.9277	954.3755	987.0472	1024.1805	1072.894	1094.6111	1109.6564	1127.1321	1145.598	1200.4314	1240.8178	1249.9785	1285.735	1312.1945	1330.6085	1357.7444	1371.7254	1389.0737	1403.0504	1415.6009	1446.0232	1476.9988	1488.9787	1501.1442	1513.5432	1839.0121	2909.6343	2914.0182	2952.1439	2991.4952	3029.2884	3047.8388	3061.8867	3084.1722	3099.9656	3100.4128
O=CC1CCCOCO1	O=C[C@H]1CCCOCO1	
InChI=1S/C6H10O3/c7-4-6-2-1-3-8-5-9-6/h4,6H,1-3,5H2	InChI=1S/C6H10O3/c7-4-6-2-1-3-8-5-9-6/h4,6H,1-3,5H2/t6-/m1/s1
