16
gdb 11427	3.68829	1.64988	1.30527	3.5891	60.99	-0.2658	0.0123	0.2781	949.8375	0.130808	-420.925176	-420.917568	-420.916624	-420.957586	27.285	
C	 0.047005784	 1.192010437	 0.3934639856	-0.248312
O	-0.1230032164	-0.2098030871	 0.2363653205	-0.236508
C	-1.3955483947	-0.5849985037	-0.1741409543	 0.213024
C	-1.4358925405	-2.1100125336	-0.3216817961	-0.253411
C	-1.8596153723	-2.5624518903	 1.0779125652	-0.359699
C	-2.6193559003	-1.3611834147	 1.6302708049	 0.431124
O	-3.3333740063	-1.3002012522	 2.5854605265	-0.329868
O	-2.3747935975	-0.2742471244	 0.8324443963	-0.227919
H	 1.0937808748	 1.3548066241	 0.6558573597	 0.13391
H	-0.1767342095	 1.7233997867	-0.5430361211	 0.112218
H	-0.5959416923	 1.5867792299	 1.1874311122	 0.139262
H	-1.7017939332	-0.025698973	-1.0677293165	 0.084119
H	-2.1870667198	-2.3857420833	-1.0664249647	 0.120684
H	-0.4661220858	-2.4884744689	-0.6446989889	 0.12922
H	-2.4928475071	-3.4498024403	 1.1059711487	 0.140008
H	-0.9991769332	-2.7450727661	 1.7291430521	 0.152148
87.4496	122.9456	133.7541	198.3181	278.4202	413.1557	478.542	518.6665	562.5572	673.663	769.3899	798.101	866.5402	915.8282	965.3051	996.4776	1044.5496	1070.949	1138.1128	1153.2338	1174.7533	1182.2603	1226.0267	1244.4304	1299.5896	1335.6547	1380.4305	1402.0068	1460.3288	1481.4568	1485.5647	1488.7595	1511.8178	1893.164	3000.6919	3027.0159	3072.3685	3077.5056	3078.2846	3131.7125	3135.7258	3142.6281
COC1CCC(=O)O1	CO[C@H]1CCC(=O)O1	
InChI=1S/C5H8O3/c1-7-5-3-2-4(6)8-5/h5H,2-3H2,1H3	InChI=1S/C5H8O3/c1-7-5-3-2-4(6)8-5/h5H,2-3H2,1H3/t5-/m1/s1
