14
gdb 54654	4.10474	1.12038	0.88496	3.4777	64.6	-0.2573	-0.0574	0.1999	1208.7322	0.102178	-470.094536	-470.086573	-470.085629	-470.127415	29.203	
N	-0.0614552925	 1.308528706	 0.0063761791	-0.526624
C	 0.0359195449	-0.0369132761	 0.001619582	 0.361444
O	 1.0668743295	-0.6858095151	-0.0085828367	-0.370162
C	-1.2984046582	-0.7304063132	 0.0102738812	 0.310413
N	-2.4407445396	-0.1495998815	 0.0212205761	-0.318868
C	-3.4292704681	-1.231159158	 0.0260076082	-0.309293
C	-2.6357227115	-2.5514747962	 0.0155343756	 0.41079
O	-3.0236200162	-3.6902320049	 0.0154255118	-0.350362
N	-1.3138599451	-2.11062144	 0.0063158149	-0.369341
H	 0.7744446636	 1.8676954058	 0.0014157692	 0.273236
H	-0.9733352821	 1.7375859335	 0.0150537903	 0.285092
H	-4.0709456958	-1.1734163659	 0.911993691	 0.158358
H	-4.0852864717	-1.1680997421	-0.8490446635	 0.158343
H	-0.4818226772	-2.6801922323	-0.0020292992	 0.286974
78.1242	124.1219	174.2544	225.4201	310.2417	360.6295	441.5749	488.6457	544.1392	581.5437	593.7787	641.3961	656.2964	696.8816	823.298	870.1764	970.3926	971.194	1034.5991	1100.348	1140.9742	1175.1782	1223.6844	1280.6261	1358.8317	1433.048	1478.4295	1604.7329	1681.2188	1800.9387	1863.4354	3054.5939	3090.2928	3591.9671	3650.1169	3735.9747
NC(=O)C1=NCC(=O)N1	NC(=O)C1=NCC(=O)N1	
InChI=1S/C4H5N3O2/c5-3(9)4-6-1-2(8)7-4/h1H2,(H2,5,9)(H,6,7,8)	InChI=1S/C4H5N3O2/c5-3(9)4-6-1-2(8)7-4/h1H2,(H2,5,9)(H,6,7,8)
