16
gdb 30449	2.7207	1.47213	0.96097	1.986	80.65	-0.1967	-0.0315	0.1652	1176.3842	0.124037	-437.923466	-437.915189	-437.914245	-437.956521	30.758	
C	-0.0905820407	 1.4586509499	 0.0086529659	-0.318414
N	 0.0066757169	 0.0123380664	 0.0035715494	-0.314073
C	-1.0461890135	-0.6883709692	 0.0087267813	 0.405176
O	-2.3162608935	-0.0359399529	 0.0196583084	-0.29432
C	-3.470912799	-0.718921201	 0.0254226211	 0.489661
O	-4.5396903855	 0.0868674824	 0.0353193107	-0.400113
C	-3.5389600125	-2.0679881985	 0.0216392388	-0.319515
C	-2.296116039	-2.7773889031	 0.0108465546	-0.04434
C	-1.1079083166	-2.1280006754	 0.0046754682	-0.208025
H	 0.9156799696	 1.88425385	 0.0012702045	 0.120935
H	-0.6306113161	 1.8427033915	-0.8688019039	 0.111917
H	-0.615234738	 1.8373064613	 0.8977172142	 0.111988
H	-4.2228540958	 0.9996802401	 0.0360348335	 0.311443
H	-4.4999726027	-2.559669112	 0.0267166463	 0.115491
H	-2.3170397875	-3.8621373958	 0.0075877143	 0.113277
H	-0.1568857062	-2.6424175935	-0.0035393374	 0.118911
86.8654	123.982	187.8742	188.0828	241.7294	386.6981	388.9057	456.8579	475.2089	532.2562	589.9959	675.1102	723.4408	729.0974	779.729	826.5899	871.0515	991.1635	998.2679	1025.1106	1064.6273	1109.7121	1113.813	1175.3777	1192.2708	1232.0717	1321.6016	1411.774	1437.2079	1458.7765	1486.5978	1499.6918	1607.9762	1707.7784	1763.1195	2987.4676	3032.9144	3103.7726	3187.8363	3233.506	3246.7818	3793.059
CN=C1OC(O)=CC=C1	C[N]C1=CCC=C(O1)O	
InChI=1S/C6H7NO2/c1-7-5-3-2-4-6(8)9-5/h2-4,8H,1H3	InChI=1S/C6H8NO2/c1-7-5-3-2-4-6(8)9-5/h3-4,8H,2H2,1H3
