15
gdb 30542	5.53029	0.97316	0.82757	4.2401	85.49	-0.217	-0.0413	0.1757	1314.9706	0.114825	-413.049239	-413.041102	-413.040158	-413.083413	28.614	
N	-0.0463750181	 1.3674129005	 0.0352164026	-0.491832
C	-0.0485749465	 0.0190838584	 0.005522536	 0.135859
N	-1.1453890265	-0.6519453378	 0.0235174178	-0.360816
C	-1.065043641	-2.0407166982	 0.0090938144	 0.380499
C	-2.2738975158	-2.7644578001	 0.0020985532	-0.056595
N	-2.3165470983	-4.0900039274	-0.0114155001	-0.234828
C	-1.1371322184	-4.7232927371	-0.0180967913	-0.027992
C	 0.0621361908	-4.0203649088	-0.0109590774	-0.020327
N	 0.1086530434	-2.6886364173	 0.00310336	-0.320695
H	 0.8072770367	 1.8890461784	-0.0379458147	 0.270113
H	-0.9239321604	 1.8615687394	 0.0312466872	 0.269803
H	 0.9394367301	-0.447339167	-0.0257711973	 0.130448
H	-3.2144849656	-2.220949655	 0.0078856308	 0.112708
H	-1.1526888889	-5.8093057878	-0.0285908382	 0.107518
H	 1.0148432986	-4.5461327001	-0.0157781827	 0.106136
29.5088	82.9669	136.0793	167.9651	267.4601	409.0564	429.1749	453.6355	567.9524	625.7284	629.8783	706.6242	791.2194	874.2116	875.111	970.7912	977.6825	1025.434	1050.9704	1068.3394	1099.1458	1191.4079	1242.4927	1291.5586	1314.6551	1328.4703	1380.2372	1451.5575	1500.6886	1558.8856	1614.1656	1623.0721	1709.2457	3103.892	3142.973	3169.6339	3175.1814	3611.3802	3753.9452
NC=NC1=CN=CC=N1	NC=Nc1cnccn1	
InChI=1S/C5H6N4/c6-4-9-5-3-7-1-2-8-5/h1-4H,(H2,6,8,9)	InChI=1S/C5H6N4/c6-4-9-5-3-7-1-2-8-5/h1-4H,(H2,6,8,9)
