20
gdb 98426	2.59566	1.24754	0.99031	2.8727	77.27	-0.2492	0.0093	0.2586	1286.9094	0.16882	-440.29856	-440.288445	-440.2875	-440.333767	36.4	
C	 0.2968007029	 1.371005498	 0.1191539013	-0.240777
O	 0.5865286051	-0.0258601595	-0.0074481335	-0.239124
C	 0.0870543604	-0.6171772598	-1.1165974028	 0.451264
O	-0.5569855868	-0.0223747212	-1.9428380987	-0.36316
C	 0.4705583587	-2.0746582001	-1.1655317124	 0.129912
C	 1.030997287	-2.6776210538	 0.1087130414	-0.468938
N	-0.4377505952	-2.8916386928	-1.9983031521	-0.338277
C	 0.9218239287	-2.6577420535	-2.4812638422	-0.011867
C	 1.0876997952	-1.8868118914	-3.767391376	-0.41483
H	 0.7110263631	 1.928909568	-0.7245208728	 0.14031
H	-0.7825155814	 1.5392654353	 0.1516889283	 0.142898
H	 0.7621489964	 1.6872844717	 1.052884222	 0.131016
H	 0.3042405644	-2.6225461562	 0.9254600227	 0.128832
H	 1.2831344837	-3.7302376956	-0.0557745347	 0.108086
H	 1.9333686417	-2.1560050089	 0.4365312936	 0.136481
H	-0.523461452	-3.8154928404	-1.5807879157	 0.230465
H	 1.6350040271	-3.4733911847	-2.3533257247	 0.083508
H	 0.3550035809	-1.082938178	-3.8327222389	 0.165843
H	 2.0951969382	-1.462200895	-3.8364024513	 0.110894
H	 0.9480651518	-2.5593949222	-4.6206698133	 0.117462
44.4729	124.629	149.5071	187.1144	192.4879	202.456	241.882	262.8619	340.9005	345.4692	419.2704	447.5235	474.4675	568.8588	740.3374	785.3752	814.4252	870.2679	930.9346	974.2592	1017.4275	1042.7164	1046.607	1104.0045	1126.0616	1142.4082	1179.7522	1199.8189	1219.482	1242.2218	1292.6586	1370.4677	1405.0221	1418.9448	1451.9888	1471.4653	1481.0937	1483.0874	1494.5534	1497.0945	1501.2153	1504.5292	1817.3783	3037.1186	3037.6195	3051.8889	3090.939	3094.7733	3103.4541	3121.0293	3126.483	3157.6242	3162.1156	3492.7509
COC(=O)C1(C)NC1C	COC(=O)[C@@]1(C)N[C@H]1C	
InChI=1S/C6H11NO2/c1-4-6(2,7-4)5(8)9-3/h4,7H,1-3H3	InChI=1S/C6H11NO2/c1-4-6(2,7-4)5(8)9-3/h4,7H,1-3H3/t4-,6-/m0/s1
