17
gdb 49760	2.89587	1.58227	1.16921	2.9986	72.49	-0.2459	-0.0324	0.2135	1035.6067	0.136525	-421.818488	-421.81101	-421.810066	-421.850781	28.235	
O	-0.6420178181	 0.8102045029	 0.651854704	-0.240243
C	 0.091493381	 1.0779091722	-0.2646528915	 0.152316
C	 1.3249254365	 1.9549872655	-0.1640591515	-0.152879
C	 1.4188996161	 3.0197879905	-1.2472011871	-0.091873
C	 1.7729419422	 4.2101979771	-0.764221701	-0.087495
C	 1.9549023785	 4.180694787	 0.7324859286	 0.083631
O	 0.8695125878	 4.8024508965	 1.4591728073	-0.295334
C	 0.2606384711	 3.5115486506	 1.7088058874	-0.080757
C	 1.4873620551	 2.7592111434	 1.1361180121	-0.089334
H	-0.0852685985	 0.6556207818	-1.2813834488	 0.081571
H	 2.1615187309	 1.244175451	-0.2911045102	 0.112366
H	 1.2214529486	 2.7966870249	-2.2907638094	 0.106522
H	 1.902893688	 5.1118955379	-1.351608213	 0.109225
H	 2.9257438145	 4.5588377527	 1.0723865256	 0.080896
H	 0.0624296783	 3.3593734314	 2.774020744	 0.111395
H	-0.6711242731	 3.381717374	 1.1504463648	 0.111684
H	 2.0783525711	 2.2473666306	 1.8939625987	 0.088308
99.8475	124.5591	165.9714	241.353	302.3788	374.2824	502.9299	616.7922	679.3082	739.3431	752.4824	776.1203	867.8062	902.2553	909.2889	969.0341	980.1532	999.124	1006.5388	1028.4275	1039.2172	1070.443	1105.6705	1144.3698	1166.3598	1214.9217	1244.311	1267.877	1310.4033	1312.4803	1330.5686	1353.3031	1379.432	1424.9979	1521.3063	1673.2547	1827.0573	2860.137	2947.3296	3040.7067	3048.441	3092.8846	3123.6871	3180.638	3209.9031
O=CC1C=CC2OCC12	O=C[C@H]1C=C[C@H]2OC[C@@H]12	
InChI=1S/C7H8O2/c8-3-5-1-2-7-6(5)4-9-7/h1-3,5-7H,4H2	InChI=1S/C7H8O2/c8-3-5-1-2-7-6(5)4-9-7/h1-3,5-7H,4H2/t5-,6+,7-/m1/s1
