19
gdb 80002	2.77413	1.74464	1.55713	1.5377	79.54	-0.228	-0.001	0.227	950.8469	0.161181	-385.809456	-385.802594	-385.801649	-385.840069	29.782	
O	 0.0257442068	 1.5030166821	-0.0799800392	-0.448533
C	-0.0153675377	 0.116382554	-0.0142951225	 0.16006
C	 0.1276493433	-0.6381703372	 1.3471160461	-0.173873
C	-1.0975472078	-0.0142975093	 2.0764602109	-0.101236
C	-2.0940461353	-0.014741412	 1.168736965	-0.236112
C	-1.413746649	-0.6717008283	-0.022931341	 0.276204
C	-1.6790665183	-1.5301340535	-1.2689653198	-0.339905
C	-0.4799130064	-2.4456691886	-0.7922796847	-0.281478
C	-0.6287734621	-1.8234508285	 0.6442324602	 0.017177
H	-0.5748871552	 1.8303525591	 0.6041476086	 0.271224
H	 0.6721420984	-0.2350359886	-0.7837335882	 0.084958
H	 1.0629721938	-0.7094256668	 1.9057210571	 0.057137
H	-1.1012114908	 0.3629121255	 3.0897619183	 0.103082
H	-3.1083778147	 0.346934546	 1.26520035	 0.10728
H	-2.6323701372	-2.0660449602	-1.2320719897	 0.106516
H	-1.5836833992	-1.0441340306	-2.2440047106	 0.103892
H	-0.6674121161	-3.5204973219	-0.8273066644	 0.10209
H	 0.4556552207	-2.248131023	-1.3176325181	 0.115831
H	-1.1814636931	-2.4766144081	 1.3216007722	 0.075685
225.5859	259.6693	301.8888	336.3936	403.4855	499.0992	540.7586	579.197	594.9271	675.9739	686.0528	755.5695	805.3789	817.0403	828.883	852.0674	888.9091	897.1713	902.5958	929.0398	1011.9213	1025.938	1052.3439	1082.1249	1094.2358	1142.5783	1173.5013	1188.9593	1198.2495	1217.8415	1219.7081	1233.4709	1242.7987	1266.86	1303.0249	1328.4274	1342.6735	1454.781	1480.3941	1494.8459	1569.8722	3049.1365	3075.1355	3088.6805	3094.6643	3099.9417	3116.3503	3133.5931	3214.6686	3239.8294	3733.9355
OC1C2C=CC11CCC21	O[C@H]1[C@H]2C=C[C@]31CC[C@@H]23	
InChI=1S/C8H10O/c9-7-5-1-3-8(7)4-2-6(5)8/h1,3,5-7,9H,2,4H2	InChI=1S/C8H10O/c9-7-5-1-3-8(7)4-2-6(5)8/h1,3,5-7,9H,2,4H2/t5-,6-,7-,8-/m0/s1
