18
gdb 17669	3.86537	1.48573	1.28898	1.2213	67.85	-0.2549	0.0783	0.3332	992.7335	0.152037	-384.898957	-384.890535	-384.88959	-384.931534	31.445	
C	-0.0821968581	 1.7468863962	 0.3080937733	-0.463523
C	-0.0649862213	 0.2593201385	 0.0159036411	 0.287368
C	 1.2256021202	-0.3913653883	-0.4454762011	-0.377308
C	 0.6902393136	-0.6590533417	 0.9410654048	 0.077345
O	 1.3054334303	-0.0806617687	 2.0558743597	-0.426598
C	-1.354429478	-0.2645129786	-0.5484333892	 0.00809
C	-1.5717813932	-0.4548201297	-1.9888091077	-0.175662
O	-1.3428356988	-1.5722447269	-1.1238171832	-0.238489
H	 0.8223878755	 2.04570823	 0.8395729776	 0.135242
H	-0.1574622601	 2.3281791352	-0.6173870477	 0.113095
H	-0.9378476235	 2.0113264572	 0.9405239425	 0.117449
H	 1.1644737113	-1.195113369	-1.1705922553	 0.125927
H	 2.0956814276	 0.2522847527	-0.5230698168	 0.107432
H	 0.2537479026	-1.6420984031	 1.115298158	 0.099016
H	 2.1428743653	-0.533635676	 2.1984618148	 0.288665
H	-2.2331072617	-0.0649662051	 0.0693252407	 0.092073
H	-2.576350218	-0.3864470313	-2.4029508624	 0.115341
H	-0.7616828637	-0.2329565016	-2.6816146091	 0.114537
89.436	165.284	186.3098	215.8858	248.7626	284.5319	316.711	357.8347	468.0651	491.9594	582.0294	674.8977	821.5495	850.4326	877.3891	906.2309	933.1563	973.2969	1020.5669	1043.5901	1058.4854	1096.7329	1121.1502	1123.9123	1155.1298	1172.2981	1186.3683	1257.4869	1279.5691	1311.1557	1329.2566	1409.4337	1416.2072	1432.6651	1479.477	1494.5997	1505.6826	1523.5146	3030.4901	3080.8909	3086.202	3088.1363	3108.0443	3131.5444	3139.4793	3175.7541	3226.5698	3808.231
CC1(CC1O)C1CO1	C[C@]1(C[C@H]1O)[C@H]1CO1	
InChI=1S/C6H10O2/c1-6(2-4(6)7)5-3-8-5/h4-5,7H,2-3H2,1H3	InChI=1S/C6H10O2/c1-6(2-4(6)7)5-3-8-5/h4-5,7H,2-3H2,1H3/t4-,5-,6-/m1/s1
