13
gdb 28998	3.10521	1.58148	1.04782	1.4647	79.23	-0.2384	-0.0627	0.1756	1046.3452	0.090229	-415.630878	-415.623686	-415.622741	-415.662553	27.461	
O	 0.1137715222	 1.3364460389	 0.0582828573	-0.400095
C	 0.0764119626	-0.0034299143	 0.0246117673	 0.376587
N	 0.0898801546	-0.6031532561	-1.1539163079	-0.33535
C	 0.0517246008	-1.9398194534	-1.1514003969	-0.015328
C	 0.0003912661	-2.6639086587	 0.032460591	-0.045183
N	-0.0133098692	-2.0614410921	 1.2231649463	-0.294889
C	 0.0241936849	-0.7261706553	 1.2442765974	 0.057534
C	 0.0111550769	-0.046681872	 2.4955209491	 0.277108
C	 0.0006998321	 0.5410896764	 3.545333858	-0.364902
H	 0.1460914045	 1.6320856072	-0.8631224701	 0.303405
H	 0.0626963296	-2.4341317594	-2.1185253566	 0.123981
H	-0.0304125664	-3.7490029114	 0.0274112591	 0.116985
H	-0.0087280887	 1.0563404304	 4.4739711159	 0.200149
111.9749	143.4717	232.1362	378.6836	393.7416	491.8078	495.8716	572.5584	572.9676	598.2787	605.4784	622.5547	659.0848	739.1999	831.9421	878.81	912.2843	975.776	1093.4385	1135.4973	1227.8594	1283.5348	1291.848	1346.1814	1478.0729	1488.5651	1583.0067	1617.1462	2231.8208	3167.4256	3186.5322	3501.902	3756.6407
OC1=NC=CN=C1C#C	Oc1nccnc1C#C	
InChI=1S/C6H4N2O/c1-2-5-6(9)8-4-3-7-5/h1,3-4H,(H,8,9)	InChI=1S/C6H4N2O/c1-2-5-6(9)8-4-3-7-5/h1,3-4H,(H,8,9)
