27
gdb 100295	1.78556	1.39062	1.06409	1.0069	91.76	-0.2449	0.0745	0.3195	1380.8121	0.2485	-390.695049	-390.682997	-390.682053	-390.731635	44.863	
C	-0.0657120199	 1.5145826741	 0.1959521294	-0.394763
C	-0.0204036499	-0.0110190719	 0.0679629625	-0.209076
C	 0.6854719698	-0.549408093	-1.2007282772	 0.373632
C	 0.6063728152	-2.084750112	-1.2079989057	-0.444229
O	 0.0637777605	 0.0096652432	-2.3758115652	-0.281641
C	-1.2458698826	-0.3962482353	-2.6988528804	-0.245111
C	 2.1522027591	-0.0374486105	-1.3203768992	 0.033968
C	 3.0142508822	-0.2964250232	-0.0761538438	-0.412532
C	 2.8568001807	-0.5733189331	-2.5771016446	-0.405352
H	 0.9266854251	 1.9440882266	 0.3628778237	 0.117784
H	-0.473806493	 1.9674303982	-0.7117408504	 0.128534
H	-0.6966557904	 1.8108449979	 1.0397039422	 0.105997
H	 0.4583814127	-0.4519662454	 0.9491807188	 0.097182
H	-1.0454590269	-0.4005557282	 0.0756773429	 0.089923
H	-0.413191163	-2.4322178503	-1.0179779305	 0.111395
H	 0.9320443968	-2.494697927	-2.1671337951	 0.123241
H	 1.2409188322	-2.5061974919	-0.4235629491	 0.117924
H	-1.9699207149	-0.1939388031	-1.8966918446	 0.103785
H	-1.5401719131	 0.1868232922	-3.5759861091	 0.123843
H	-1.3091243658	-1.4619967179	-2.9584546277	 0.105732
H	 2.0599829506	 1.0475469574	-1.4455487402	 0.082592
H	 3.1239801839	-1.3671929327	 0.1287852081	 0.112787
H	 4.020999789	 0.1038943083	-0.2344331122	 0.112092
H	 2.6131767114	 0.1780780178	 0.8233279003	 0.115169
H	 3.7997479099	-0.0400140052	-2.7364485615	 0.1035
H	 3.0986533827	-1.6378511275	-2.4833666141	 0.10613
H	 2.2313257482	-0.4373945676	-3.4611169474	 0.127493
58.5926	85.3592	122.9707	172.7004	196.9647	207.5042	228.0975	251.6082	254.0078	279.7941	308.6487	342.9119	357.433	377.0157	413.6281	455.1233	510.5278	559.2683	677.0865	762.8703	847.2045	879.4135	919.4611	931.8702	967.4143	983.1489	1011.0201	1047.874	1081.7467	1097.8594	1139.7526	1175.6711	1179.4221	1190.229	1202.716	1209.5024	1263.0098	1309.1162	1348.1157	1362.9548	1375.5346	1394.2112	1399.3497	1407.0273	1419.5368	1469.9693	1478.0685	1485.6936	1490.587	1493.5517	1498.0874	1504.4461	1508.4705	1509.6964	1512.2678	1514.3982	1520.7263	2990.5611	3030.0952	3032.8321	3034.0166	3038.7626	3042.1029	3043.3263	3049.6982	3063.8627	3090.65	3097.7966	3101.72	3105.8478	3111.404	3113.4389	3119.5515	3126.917	3135.2801
CCC(C)(OC)C(C)C	CC[C@@](C)(OC)C(C)C	
InChI=1S/C8H18O/c1-6-8(4,9-5)7(2)3/h7H,6H2,1-5H3	InChI=1S/C8H18O/c1-6-8(4,9-5)7(2)3/h7H,6H2,1-5H3/t8-/m1/s1
