15
gdb 6006	2.71898	1.80287	1.51907	4.9407	62.84	-0.2547	0.0116	0.2664	898.8324	0.116895	-399.796268	-399.787654	-399.786709	-399.829214	31.582	
C	 0.0764523605	 1.532403297	-0.0921724791	-0.413277
C	-0.0572909748	 0.0026218851	 0.0654595371	-0.093303
N	 0.6982329518	-0.4306905671	 1.2658159313	-0.554109
H	 0.2868795086	-1.2780035547	 1.6462604251	 0.254182
H	 1.9739673343	-0.9802831078	 0.0260589804	 0.309295
H	 0.6456668196	 0.2763029414	 1.9921621419	 0.248347
C	-1.4645603135	-0.392504362	 0.1234168015	 0.353956
C	-2.6127166937	-0.7306399488	 0.2285977002	-0.473165
C	 0.6255714645	-0.6297958193	-1.1946293306	 0.448441
O	 1.8471245613	-1.1066335062	-0.9421502538	-0.372776
O	 0.1164499431	-0.6282997433	-2.279413284	-0.339761
H	 1.1331574257	 1.816416899	-0.0890660791	 0.133368
H	-0.3728816759	 1.8437613462	-1.0357532613	 0.165238
H	-0.436452661	 2.0420230532	 0.7286708436	 0.127328
H	-3.6293177306	-1.0313969326	 0.2957714867	 0.206238
59.6317	143.0715	183.212	242.6379	261.0258	292.3899	339.3942	375.1799	438.936	498.0997	559.5895	619.9872	642.9669	659.1599	739.2029	763.7244	852.2742	883.1858	945.5987	990.2202	1023.1065	1157.7045	1182.9144	1229.8933	1305.975	1397.9717	1428.0967	1488.8455	1494.1818	1654.0393	1878.1008	2236.6321	3044.6697	3118.5447	3153.8844	3441.9712	3500.3194	3502.7013	3581.9491
CC([NH3+])(C#C)C([O-])=O	C[C@@](N)(C#C)C(=O)O	
InChI=1S/C5H7NO2/c1-3-5(2,6)4(7)8/h1H,6H2,2H3,(H,7,8)	InChI=1S/C5H7NO2/c1-3-5(2,6)4(7)8/h1H,6H2,2H3,(H,7,8)/t5-/m1/s1
