22
gdb 59569	3.07493	1.18676	1.16274	3.0215	81.	-0.2152	0.0604	0.2756	1205.7163	0.195406	-404.329877	-404.320924	-404.319979	-404.363444	34.638	
C	-0.0325403351	 1.4399385564	-0.2173199435	-0.410277
C	 0.1819216909	-0.0677287736	-0.0688882269	 0.104728
O	 1.0965874758	-0.5559411068	-1.0503416437	-0.422011
C	 0.7189223649	-0.4686799476	 1.3122892789	 0.023296
C	 0.790958737	-2.0091327056	 1.531376616	-0.265027
C	 2.2419994937	-2.3117955093	 1.8753335641	-0.015117
C	 3.2690449371	-1.9906056624	 0.8531479966	-0.253601
N	 3.0332310113	-1.0732382397	 1.9799699365	-0.097244
C	 2.1518535581	 0.0593406052	 1.6431567672	-0.182848
H	 0.9047700368	 1.987799465	-0.0837630074	 0.1308
H	-0.4235597841	 1.6776598519	-1.2136821845	 0.104066
H	-0.7576176539	 1.8063905668	 0.5167163459	 0.11818
H	-0.7925108935	-0.5679538771	-0.1994357632	 0.066617
H	 0.771167048	-0.3042992621	-1.9198315766	 0.283713
H	 0.0137415688	-0.0444552092	 2.0343625224	 0.074625
H	 0.1374856503	-2.3150760855	 2.3537921549	 0.096807
H	 0.4667089579	-2.5520379223	 0.6385315886	 0.112707
H	 2.4417844568	-3.0725783284	 2.6255292495	 0.081496
H	 4.2345296794	-2.4892346023	 0.8734401669	 0.102745
H	 2.9167910772	-1.6928237427	-0.1303966357	 0.137469
H	 2.5813775107	 0.6234846667	 0.8100566011	 0.111084
H	 2.1217561421	 0.7244120029	 2.5118448429	 0.097793
82.3267	88.5197	208.5392	226.6247	251.6207	266.0509	305.6365	354.7544	412.2261	481.6868	586.8578	664.8712	684.2554	746.0099	784.8427	849.4291	885.3633	902.8095	934.4377	972.4334	995.3682	1026.5333	1027.4247	1054.835	1074.4594	1110.408	1122.7343	1137.7793	1151.9719	1177.9781	1219.6369	1230.5838	1261.7001	1280.5137	1290.1628	1326.2006	1339.2922	1363.2201	1389.6115	1398.126	1410.4325	1413.308	1489.1019	1493.6388	1496.734	1499.6515	1516.3196	2953.4125	3028.9102	3037.7455	3046.7639	3056.7041	3088.3149	3091.3271	3093.7143	3107.3244	3117.7842	3136.4611	3201.1809	3826.4878
CC(O)C1CC2CN2C1	C[C@@H](O)[C@H]1C[C@H]2CN2C1	
InChI=1S/C7H13NO/c1-5(9)6-2-7-4-8(7)3-6/h5-7,9H,2-4H2,1H3	InChI=1S/C7H13NO/c1-5(9)6-2-7-4-8(7)3-6/h5-7,9H,2-4H2,1H3/t5-,6+,7+,8?/m1/s1
