13
gdb 11687	5.42944	1.4295	1.30731	3.2878	67.26	-0.2403	-0.0312	0.2092	907.9661	0.094124	-361.394994	-361.388008	-361.387064	-361.426164	26.511	
O	 0.0561786137	 0.0239705518	-0.0741640381	-0.300906
C	 0.0239985403	 1.2116500298	 0.0437640763	 0.463852
C	-1.1332388747	 2.2455153841	 0.1618554886	-0.396654
C	-0.0660831349	 3.3357133027	-0.0666404792	 0.191284
N	 0.8610088981	 3.2026756612	 1.0765266466	-0.355892
C	 1.0574268081	 2.3091160797	-0.1046008157	-0.238677
C	-0.1938642442	 4.5286466538	-0.8246475675	 0.160097
C	-0.325443968	 5.5446423911	-1.4558163148	-0.381292
H	-1.8335562439	 2.1286846597	-0.6687679499	 0.145303
H	-1.6674035938	 2.30199427	 1.1115752703	 0.138887
H	 1.5623552176	 3.939897953	 0.9907282908	 0.248748
H	 1.9879331912	 2.3101770979	-0.658226329	 0.127311
H	-0.4375406795	 6.4397303352	-2.0163751783	 0.197937
92.0732	156.8617	231.0707	391.3863	435.8578	496.212	521.8218	559.161	576.2198	599.5773	660.7468	671.2643	756.7319	822.2234	949.3374	952.6217	987.9721	1019.7515	1062.2755	1111.948	1127.8713	1198.4002	1248.3517	1324.3718	1381.4824	1443.6778	1903.0692	2237.5452	3078.5068	3143.7126	3206.4425	3465.9337	3500.9933
O=C1CC2(NC12)C#C	O=C1C[C@]2(N[C@@H]12)C#C	
InChI=1S/C6H5NO/c1-2-6-3-4(8)5(6)7-6/h1,5,7H,3H2	InChI=1S/C6H5NO/c1-2-6-3-4(8)5(6)7-6/h1,5,7H,3H2/t5-,6+/m0/s1
