14
gdb 66679	4.70512	1.19796	1.18128	3.8268	66.65	-0.2278	-0.0426	0.1853	1031.8243	0.098742	-436.553942	-436.546616	-436.545672	-436.585896	27.705	
O	-0.1430148976	 1.395310234	 0.0582605096	-0.441424
C	 0.0016170642	 0.0429113954	 0.0078200751	 0.373769
C	 0.0577284322	-1.0329527966	 1.0674111557	-0.104935
C	-1.1132847152	-0.9926268052	 0.1021250465	-0.248647
C	-0.3056776757	-1.9302150044	-0.8238479205	 0.289772
C	-0.6125745783	-3.0527647101	-1.7271901973	 0.022046
O	 0.232760793	-3.6859408029	-2.3117150366	-0.253254
C	 0.8153618676	-0.9292193811	-0.9113470053	-0.186238
N	 0.867015913	-1.958422088	 0.1554815031	-0.180503
H	 0.6427048923	 1.7795749384	 0.4660233982	 0.29955
H	 0.1123448766	-1.0332648356	 2.1480473911	 0.116063
H	-2.1685603884	-0.8427168648	 0.2775182139	 0.114455
H	-1.6973051002	-3.2688842192	-1.850932961	 0.076769
H	 1.5812275064	-0.8366563099	-1.6727831725	 0.122578
85.9649	160.526	176.4195	306.1101	344.9933	394.3119	446.1261	613.0227	660.0291	697.4334	750.7683	769.3719	816.3219	855.3719	886.6477	903.9715	929.2467	980.3871	1010.6587	1027.3551	1036.7402	1065.1587	1124.9222	1169.8393	1219.208	1269.5468	1303.4486	1351.6192	1432.6494	1478.6883	1802.371	2880.0256	3187.1065	3202.5617	3230.0487	3773.8218
OC12C3C1C1(C=O)C2N31	O[C@@]12[C@H]3[C@@H]1[C@@]1(C=O)[C@@H]2N31	
InChI=1S/C6H5NO2/c8-1-5-2-3-6(2,9)4(5)7(3)5/h1-4,9H	InChI=1S/C6H5NO2/c8-1-5-2-3-6(2,9)4(5)7(3)5/h1-4,9H/t2-,3-,4+,5+,6-,7?/m1/s1
