21
gdb 119250	1.68493	1.33087	0.84197	2.7587	80.17	-0.2437	-0.0199	0.2238	1436.0842	0.179423	-424.209794	-424.199464	-424.198519	-424.246486	36.255	
C	 0.2991232391	 1.4644773336	 0.4445456556	-0.225773
O	 0.1919583884	 0.0612234854	 0.489574058	-0.234927
C	-1.0364748027	-0.4151104434	-0.0177821234	-0.125659
C	-0.9968975399	-1.9266424544	-0.0409044271	 0.338154
C	 0.0510335507	-2.5132433466	-0.9768658995	-0.352866
C	-0.2777028009	-2.2722268825	-2.436876367	 0.161261
O	 0.4883703651	-1.8342538655	-3.2560515835	-0.241904
C	-1.2954725493	-2.6416936346	 1.2533529527	-0.303769
C	-2.3096092646	-2.6583881469	 0.1383785897	-0.318579
H	 1.279358503	 1.7303520992	 0.8470642686	 0.129504
H	 0.2210087192	 1.8474210112	-0.5850155261	 0.110106
H	-0.4790036092	 1.95351437	 1.0523070183	 0.102191
H	-1.8751831879	-0.0659538908	 0.6084581754	 0.081962
H	-1.2057441976	-0.0163440884	-1.034107505	 0.092686
H	 1.0408042752	-2.1014120598	-0.7648888712	 0.13738
H	 0.0944480347	-3.6023461287	-0.8353588458	 0.113302
H	-1.3224464041	-2.5433140457	-2.7194951179	 0.071406
H	-0.752383921	-3.555474366	 1.4680469631	 0.114733
H	-1.5028989464	-2.0333728415	 2.1266125458	 0.120446
H	-3.2147693972	-2.0719994594	 0.2555370579	 0.116307
H	-2.4539023848	-3.5844950853	-0.4078108586	 0.114039
41.4229	58.6559	94.0757	109.9725	170.1664	203.5584	232.5789	287.7155	337.845	380.9199	400.65	484.2031	532.0281	743.0863	781.719	809.8808	892.8541	929.531	955.6143	975.9914	996.3454	1026.958	1053.6004	1075.5862	1083.9634	1091.5099	1154.4248	1183.796	1186.7244	1205.2309	1227.4158	1250.5798	1291.0095	1338.8418	1365.1925	1426.6734	1427.5599	1450.9998	1471.9781	1481.733	1486.0613	1500.1695	1507.9708	1523.2045	1833.1435	2853.0965	2940.1396	2970.0277	2972.7572	3015.2482	3018.0744	3110.4666	3116.1767	3130.3232	3136.5724	3208.2708	3223.4212
COCC1(CC=O)CC1	COCC1(CC=O)CC1	
InChI=1S/C7H12O2/c1-9-6-7(2-3-7)4-5-8/h5H,2-4,6H2,1H3	InChI=1S/C7H12O2/c1-9-6-7(2-3-7)4-5-8/h5H,2-4,6H2,1H3
