21
gdb 26088	3.0885	1.2028	1.0709	3.7068	84.06	-0.2144	0.0361	0.2505	1233.2086	0.183093	-383.322322	-383.313053	-383.312109	-383.356112	35.572	
C	-0.0111815515	 1.5415224726	 0.007726969	-0.398254
C	-0.0066310902	-0.0042637433	 0.006996513	 0.120182
C	 0.7561234294	-0.5153660661	 1.2505668257	-0.398238
C	-1.4586381174	-0.5109251624	 0.0649097576	-0.404793
C	 0.6501711228	-0.5188839621	-1.250137062	 0.339595
C	 0.2109394787	-1.3084009056	-2.2849062391	-0.195173
N	 1.2001498608	-1.506447832	-3.2238740529	-0.260118
C	 2.2369546634	-0.8455698015	-2.7703958639	 0.007481
N	 1.9629037283	-0.2303181056	-1.5835780895	-0.319951
H	 1.0045801316	 1.9509036634	-0.0202499994	 0.097202
H	-0.5514443128	 1.9310133169	-0.8601206731	 0.124195
H	-0.4941257306	 1.9237106696	 0.9135120018	 0.113102
H	 0.2807037362	-0.1531028706	 2.1684397825	 0.113095
H	 0.7689920245	-1.6088849172	 1.2788396491	 0.124192
H	 1.7954081775	-0.1690563433	 1.260562182	 0.097206
H	-2.0355525368	-0.1596693294	-0.7958041804	 0.121486
H	-1.496656643	-1.6042901467	 0.077147585	 0.121486
H	-1.9485967107	-0.145138722	 0.9727291809	 0.108866
H	-0.7663441348	-1.7482207222	-2.4089707301	 0.103197
H	 3.2038429519	-0.7722403072	-3.2462160743	 0.125024
H	 2.600616453	 0.3324021447	-1.0463811119	 0.260219
52.0799	144.6581	200.4518	219.0198	267.6018	284.5793	326.6463	334.9348	336.3471	430.3182	466.4445	530.1371	585.9706	682.9451	711.4549	805.472	826.6805	854.123	926.1477	929.16	941.5737	959.0572	1003.149	1041.9536	1047.9423	1114.5464	1147.3206	1179.2892	1226.0661	1226.1721	1278.1513	1305.5764	1371.7475	1396.6204	1397.7016	1422.3752	1432.5142	1477.3996	1481.9977	1486.4048	1501.6129	1502.6445	1503.4181	1519.7735	1604.9172	3025.6466	3029.4536	3037.7541	3089.2078	3094.9962	3106.0322	3107.3995	3112.32	3112.4728	3246.7648	3254.5212	3666.8713
CC(C)(C)C1=CN=CN1	CC(C)(C)c1cnc[nH]1	
InChI=1S/C7H12N2/c1-7(2,3)6-4-8-5-9-6/h4-5H,1-3H3,(H,8,9)	InChI=1S/C7H12N2/c1-7(2,3)6-4-8-5-9-6/h4-5H,1-3H3,(H,8,9)
