20
gdb 78690	4.06423	1.21882	1.12035	2.1968	79.43	-0.2366	0.08	0.3167	1168.582	0.170009	-403.057817	-403.049539	-403.048595	-403.090003	33.204	
C	-0.1545804349	 1.6183747859	 0.1154731477	-0.419701
C	-0.0145917964	 0.1134422673	 0.0101494092	 0.061458
C	 0.8305353297	-0.5445868189	-1.0844388872	-0.097319
C	 2.1267045971	-0.2143638836	-0.2854075695	-0.087334
N	 1.0960959784	-0.5254230191	 0.8486547036	-0.212556
C	 1.0873329714	-1.7427523474	-0.1253485796	-0.077104
C	 2.6220700314	-1.6746053406	-0.24999485	 0.449329
C	 3.3062558672	-2.2671966709	-1.4625076192	-0.456846
O	 3.3492058077	-2.0470913608	 0.8927889823	-0.493389
H	 0.7865846429	 2.1365904939	-0.0908956508	 0.118157
H	-0.9029826977	 1.983052501	-0.5964408702	 0.119374
H	-0.4833380069	 1.8998367988	 1.1213045083	 0.128718
H	-0.9775120078	-0.3751322707	 0.2087818921	 0.071715
H	 0.6921298854	-0.5655471084	-2.1700911331	 0.06674
H	 2.7042885719	 0.7112918083	-0.2743019531	 0.082573
H	 0.4280861385	-2.5913709368	 0.0725342454	 0.079497
H	 2.781237193	-2.0116892224	-2.3863597419	 0.117062
H	 4.3340525702	-1.8982343289	-1.5301540861	 0.12843
H	 3.3475639195	-3.3568865083	-1.3733235509	 0.128787
H	 2.8860105296	-1.6570077984	 1.6466009429	 0.292409
164.9196	184.0296	200.9854	214.9998	250.6433	329.7625	358.157	419.2445	516.0458	545.9846	580.1685	638.6716	740.252	773.5126	826.4544	838.6329	847.2129	870.0036	894.3807	964.3054	1025.4447	1043.2836	1047.9975	1080.2508	1093.2442	1115.6671	1135.2984	1142.501	1165.5585	1181.2314	1191.8419	1201.7369	1259.3655	1284.487	1313.215	1399.1154	1403.4712	1418.1532	1442.7519	1480.363	1492.2798	1493.1531	1502.413	3020.3779	3035.1609	3045.0188	3051.0844	3089.6183	3100.849	3104.0991	3113.1303	3113.2866	3125.9633	3755.652
CC1C2C3N1C2C3(C)O	C[C@H]1[C@H]2[C@H]3N1[C@@H]2[C@]3(C)O	
InChI=1S/C7H11NO/c1-3-4-5-7(2,9)6(4)8(3)5/h3-6,9H,1-2H3	InChI=1S/C7H11NO/c1-3-4-5-7(2,9)6(4)8(3)5/h3-6,9H,1-2H3/t3-,4-,5+,6-,7+/m0/s1
