14
gdb 128435	4.66042	1.12543	0.92999	4.4599	65.47	-0.2937	-0.0535	0.2402	1189.2303	0.101416	-466.158091	-466.150196	-466.149252	-466.191597	27.356	
C	 0.0735157451	 1.2988072319	-0.0855906709	-0.230918
O	-0.098025071	-0.1249309691	-0.1487281142	-0.209195
C	-1.3258633086	-0.5674482664	 0.0740584851	 0.534561
N	-2.3365161015	 0.1677071599	 0.2584956035	-0.555448
N	-1.3298359221	-1.9956041701	 0.0516263834	-0.082776
C	-2.3419144187	-2.8424954041	-0.250181286	 0.071079
N	-1.9219156389	-4.0750683844	-0.1305359425	-0.221577
N	-0.6144673721	-3.9784167079	 0.2626511739	-0.074962
N	-0.2432584622	-2.7550669627	 0.3698109112	-0.100467
H	 1.1374531326	 1.4652266204	-0.2485471509	 0.149109
H	-0.521246359	 1.7874425213	-0.8606933561	 0.151157
H	-0.2361136191	 1.6754320667	 0.8919719943	 0.152041
H	-3.1786571891	-0.3580969993	 0.470621888	 0.241284
H	-3.3233605754	-2.5280563062	-0.5638207489	 0.176111
49.3329	110.2995	156.0115	165.5849	232.5583	325.9871	413.6612	487.3845	655.3348	727.2395	735.9238	798.94	811.5724	872.2821	966.1306	970.058	1015.3163	1093.7374	1105.408	1160.1629	1181.0093	1208.2171	1220.247	1316.3887	1366.1305	1441.0617	1477.8148	1482.2023	1496.1307	1507.0837	1754.1183	3057.9915	3136.706	3172.5171	3290.277	3555.8613
COC(=N)N1C=NN=N1	CO[C]([NH])n1cnnn1	
InChI=1S/C3H5N5O/c1-9-3(4)8-2-5-6-7-8/h2,4H,1H3	InChI=1S/C3H5N5O/c1-9-3(4)8-2-5-6-7-8/h2,4H,1H3
