15
gdb 9219	6.63533	0.99759	0.89816	4.5739	60.82	-0.2616	-0.0033	0.2583	1243.8385	0.116869	-436.955535	-436.946649	-436.945705	-436.990317	29.259	
C	 0.2928608911	 1.2048912908	-0.1108592048	-0.242266
O	-0.1141483404	-0.1718749369	-0.1676675492	-0.228284
C	 0.4686836183	-0.9065634248	-1.1280884315	 0.435377
O	 1.2698901123	-0.4934752391	-1.9233526049	-0.340579
C	-0.0073966361	-2.3537256652	-1.0324080574	-0.220009
O	 0.2432019797	-3.0831968786	-2.208826777	-0.165309
C	 1.5330947995	-3.4160752751	-2.4592816206	 0.151954
N	 1.8150042652	-4.0436589233	-3.5138913209	-0.441238
H	 1.368662738	 1.2792326783	 0.0652964799	 0.145097
H	 0.0516438849	 1.7125401361	-1.0475834923	 0.150005
H	-0.2629313128	 1.6432938073	 0.7173314597	 0.140414
H	 0.4682679909	-2.8120682657	-0.15285479	 0.13679
H	-1.0861799659	-2.3744253886	-0.8678874776	 0.156214
H	 2.2287245446	-3.1026560676	-1.671606709	 0.090644
H	 2.8143479508	-4.2325437777	-3.5490051444	 0.231189
41.8481	78.3843	108.2314	139.6672	165.319	225.065	302.3386	344.3667	401.2695	574.477	641.3023	733.603	814.7753	902.535	962.1249	1021.9754	1033.1261	1041.7896	1174.1948	1179.1465	1208.1537	1226.3125	1257.7807	1322.9147	1396.3397	1423.6759	1471.8884	1476.7337	1482.6277	1496.7389	1752.1045	1839.3207	3009.1685	3047.6572	3056.5769	3122.9544	3133.6731	3166.6141	3522.6333
COC(=O)COC=N	COC(=O)CO[CH][NH]	
InChI=1S/C4H7NO3/c1-7-4(6)2-8-3-5/h3,5H,2H2,1H3	InChI=1S/C4H7NO3/c1-7-4(6)2-8-3-5/h3,5H,2H2,1H3
