13
gdb 132386	2.05304	1.83613	0.96955	2.8715	64.25	-0.2373	-0.0077	0.2296	1088.6326	0.090975	-494.117863	-494.110658	-494.109714	-494.149435	27.832	
N	-0.0135009247	 1.369406333	-0.0560605302	-0.565661
C	-0.0222814666	 0.0089437426	-0.0323887332	 0.431807
C	-1.221405305	-0.72573054	-0.001939941	-0.376178
C	-1.0597732803	-2.0951133049	-0.0201961398	 0.353857
F	-2.1352834778	-2.8688066558	 0.0070970643	-0.063256
N	 0.0990592588	-2.7249732646	-0.0628354401	-0.425004
C	 1.1624677017	-1.9122077779	-0.0873140152	 0.455245
O	 2.3629877005	-2.5045986472	-0.1287546479	-0.39096
N	 1.1787046488	-0.5895349613	-0.0716435379	-0.364649
H	 0.876694915	 1.8145337384	 0.0968893356	 0.268459
H	-0.8396059632	 1.8783469232	 0.2057717629	 0.262898
H	-2.1995600892	-0.2669948861	 0.0273929936	 0.106096
H	 2.1931527021	-3.4562908294	-0.133040601	 0.307346
187.5242	216.9469	235.9587	319.129	335.0798	359.9511	496.4297	530.6902	566.8899	569.4851	601.4473	652.2681	709.0936	722.5146	798.6768	824.8024	988.492	1033.6325	1041.4551	1150.684	1214.4528	1263.5479	1346.1225	1462.83	1488.6916	1534.5932	1611.8092	1642.9492	1671.2328	3227.4539	3607.8169	3735.4167	3785.1492
NC1=CC(F)=NC(O)=N1	Nc1cc(F)nc(O)n1	
InChI=1S/C4H4FN3O/c5-2-1-3(6)8-4(9)7-2/h1H,(H3,6,7,8,9)	InChI=1S/C4H4FN3O/c5-2-1-3(6)8-4(9)7-2/h1H,(H3,6,7,8,9)
