13
gdb 25171	3.13338	1.52632	1.02636	1.2293	79.25	-0.2331	-0.0741	0.159	1062.1463	0.089723	-415.605376	-415.597993	-415.597048	-415.637389	27.684	
N	-0.0163217468	 1.2815559429	 0.3501389794	-0.525815
C	-0.0393298812	 0.0676126574	 0.0075355821	 0.347435
O	 1.1331731201	-0.5730381137	-0.435852386	-0.214038
C	 1.1167032549	-1.865418532	-0.8023819679	 0.142395
N	 0.1073861699	-2.6477793105	-0.8027516265	-0.275971
C	-1.0861267636	-2.0915311847	-0.3788995926	-0.078092
C	-1.2213698445	-0.7978543298	 0.0216157995	-0.012284
C	-2.4622306639	-0.2653270889	 0.4491629253	 0.269782
C	-3.5291516098	 0.1610343231	 0.807753684	-0.37082
H	 0.9199033836	 1.6749172956	 0.255303629	 0.230667
H	 2.1014680086	-2.1978748877	-1.1158507884	 0.152355
H	-1.9420635249	-2.7568367252	-0.3797534799	 0.133911
H	-4.4631628423	 0.5526667635	 1.126947012	 0.200476
98.1075	145.4634	179.7844	314.5988	385.6134	466.6717	469.0441	552.7953	570.1889	589.1138	608.9481	658.5063	732.5063	770.9399	862.6761	893.385	938.7979	970.1616	977.1296	1085.3397	1169.7608	1224.6107	1287.8507	1390.7926	1409.7332	1588.1841	1655.5077	1754.0008	2230.5616	3197.5575	3202.9357	3499.1512	3503.6057
N=C1OC=NC=C1C#C	[NH]C1=C(CN=CO1)C#C	
InChI=1S/C6H4N2O/c1-2-5-3-8-4-9-6(5)7/h1,3-4,7H	InChI=1S/C6H5N2O/c1-2-5-3-8-4-9-6(5)7/h1,4,7H,3H2
