20
gdb 54421	2.47487	1.49901	1.16087	3.1567	80.67	-0.2379	0.0258	0.2637	1138.8188	0.170925	-403.170163	-403.161055	-403.160111	-403.203667	34.986	
C	 0.2348159803	 1.526371432	 0.0647790289	-0.496805
C	 0.0885886462	 0.0342516987	 0.0003795761	 0.316008
C	-0.907967064	-0.7222324622	 0.8108906397	-0.361038
C	 0.558456004	-1.0253640707	 1.0400510288	 0.228117
C	 1.0857439318	-1.9227197742	-0.0869429367	-0.325925
C	 0.6088959812	-0.8635345832	-1.1340220193	-0.276719
C	 1.1643277237	-0.7187203133	 2.359626945	 0.297267
N	 2.2549428226	-1.4779056252	 2.6984662767	-0.539233
O	 0.7529486302	 0.1792410685	 3.0782697296	-0.380955
H	 1.2243965856	 1.8436467898	-0.2828599698	 0.112158
H	-0.5141810639	 2.0230541038	-0.563945771	 0.115881
H	 0.109931806	 1.8744188422	 1.0935768168	 0.153694
H	-1.3643941615	-0.1674293181	 1.6231376022	 0.139155
H	-1.5355886556	-1.4866952232	 0.3567330604	 0.100434
H	 2.1739423803	-2.026958353	-0.0863994636	 0.103086
H	 0.6377726756	-2.9201871883	-0.1555645751	 0.096712
H	-0.1408434427	-1.1952235526	-1.8599605417	 0.098428
H	 1.4447009863	-0.4163786434	-1.6773160378	 0.105415
H	 2.4522548151	-2.3411276813	 2.2219470485	 0.256713
H	 2.6084034186	-1.3682191265	 3.6356598323	 0.257604
73.3539	135.5377	176.8624	209.6826	239.3607	307.0301	328.6705	374.6754	391.9235	442.7039	502.2808	565.2187	630.5562	673.0498	726.4521	781.2664	793.2367	837.7343	938.2199	939.4846	974.8996	980.9097	1016.4399	1064.8043	1088.1702	1094.599	1134.4754	1170.726	1210.9562	1232.2035	1243.4928	1265.7545	1308.2488	1364.2845	1404.2964	1427.2341	1477.6831	1481.9691	1492.3503	1497.5103	1511.6152	1614.0897	1763.726	3023.094	3035.8471	3047.312	3080.0654	3087.5825	3101.9559	3108.9664	3119.6183	3214.4205	3594.3506	3726.5796
CC12CC1(CC2)C(N)=O	C[C@]12C[C@]1(CC2)C(=O)N	
InChI=1S/C7H11NO/c1-6-2-3-7(6,4-6)5(8)9/h2-4H2,1H3,(H2,8,9)	InChI=1S/C7H11NO/c1-6-2-3-7(6,4-6)5(8)9/h2-4H2,1H3,(H2,8,9)/t6-,7+/m0/s1
