23
gdb 104013	2.90905	1.39795	1.25212	1.4327	84.8	-0.2343	0.0878	0.3221	1151.0881	0.20639	-388.278669	-388.269915	-388.268971	-388.311846	35.061	
C	 0.1772230997	 1.508755728	 0.1443422903	-0.386379
C	-0.0960618354	 0.0199905295	-0.0996502685	-0.221987
C	 0.6397591013	-0.5660064957	-1.3209620114	 0.429516
C	 0.1114459841	 0.0773218182	-2.6075435339	-0.445112
O	 2.0792131054	-0.3227971358	-1.2054370639	-0.331151
C	 2.6265513221	-1.6520912923	-1.194994747	 0.120529
C	 1.8685621825	-2.3736096659	-2.3336039309	-0.248398
C	 0.6758720045	-2.1172659071	-1.3516557041	-0.100246
C	 1.7110260452	-2.4243676134	-0.2172576435	-0.246837
H	 1.2532706607	 1.6887782005	 0.2133439928	 0.135256
H	-0.2211767428	 2.1398477728	-0.6555273968	 0.113219
H	-0.2870157059	 1.8348508171	 1.080094352	 0.106525
H	 0.1850667204	-0.5359072034	 0.7982111103	 0.093596
H	-1.1722507503	-0.1460801866	-0.2393378941	 0.089361
H	 0.3572871689	 1.1419026082	-2.6268059796	 0.128573
H	 0.5407693316	-0.3734277686	-3.5029748747	 0.114373
H	-0.9780427436	-0.0208824733	-2.6644492098	 0.109172
H	 3.7113975619	-1.5996480294	-1.1128306703	 0.075499
H	 1.8684286836	-1.907091182	-3.3188733816	 0.099217
H	 2.1185559925	-3.4328879489	-2.4125974534	 0.098715
H	-0.2790459763	-2.6360209598	-1.435503017	 0.067911
H	 1.9496821264	-3.4873313442	-0.1542540463	 0.098369
H	 1.5649591335	-2.0070114578	 0.7790803014	 0.10028
60.2774	161.5794	173.7594	222.593	255.3673	318.7485	384.8236	405.2749	486.0044	515.5324	553.3861	601.5687	732.0661	776.426	831.8893	838.7761	839.7192	873.9028	901.5483	927.0147	961.9967	978.4018	1000.9448	1012.4492	1041.1516	1048.3964	1062.7942	1083.1905	1100.1711	1128.033	1177.824	1202.8322	1208.4136	1219.616	1247.7607	1255.659	1288.7904	1311.1822	1334.2631	1373.3492	1404.8259	1409.3149	1470.0553	1484.5494	1491.932	1497.2213	1508.1668	1512.2495	1524.8749	3026.5913	3042.9405	3047.8031	3076.2704	3082.8925	3088.3816	3107.8417	3116.5041	3119.1482	3124.5559	3132.6841	3136.5284	3143.3169	3148.7085
CCC1(C)OC2CC1C2	CC[C@@]1(C)O[C@@H]2C[C@H]1C2	
InChI=1S/C8H14O/c1-3-8(2)6-4-7(5-6)9-8/h6-7H,3-5H2,1-2H3	InChI=1S/C8H14O/c1-3-8(2)6-4-7(5-6)9-8/h6-7H,3-5H2,1-2H3/t6-,7+,8-/m1/s1
