13
gdb 27593	3.62493	1.27947	0.94582	4.1605	75.46	-0.248	-0.0746	0.1734	1133.3661	0.091983	-411.8678	-411.860402	-411.859458	-411.899743	27.385	
N	-0.0227985204	 1.3352666332	 0.0891594908	-0.557602
C	 0.001207226	-0.0177775257	 0.0321330934	 0.449531
N	-1.1870427254	-0.6456331828	 0.0261322456	-0.362229
C	-1.1342647086	-1.9780358083	 0.0043088305	 0.223025
C	 0.0584944045	-2.6990249044	-0.0139012676	-0.197057
C	 1.2206068282	-1.9301074475	-0.0155205483	 0.019074
N	 1.2164306351	-0.603923302	 0.0055373651	-0.302571
C	-2.3963831079	-2.6775200116	-0.0035145077	 0.243446
N	-3.3898214712	-3.268819063	-0.0108234237	-0.318524
H	 0.8371399381	 1.8345481219	-0.0544365987	 0.271996
H	-0.9014662927	 1.8060154702	-0.0374357876	 0.273911
H	 0.0748155426	-3.7795344161	-0.0322577309	 0.128505
H	 2.1977012418	-2.4076212439	-0.0369381108	 0.128495
137.8861	154.0386	181.6303	241.5933	394.5153	397.1526	475.4413	486.6815	540.4247	590.809	602.2493	724.552	755.5612	820.3069	846.969	961.2456	1007.3251	1007.7163	1061.458	1140.2297	1247.5643	1283.2031	1372.5261	1470.1814	1493.5045	1586.3426	1612.4747	1646.7441	2357.1031	3158.1414	3235.2195	3624.8732	3760.4181
NC1=NC(=CC=N1)C#N	Nc1nc(ccn1)C#N	
InChI=1S/C5H4N4/c6-3-4-1-2-8-5(7)9-4/h1-2H,(H2,7,8,9)	InChI=1S/C5H4N4/c6-3-4-1-2-8-5(7)9-4/h1-2H,(H2,7,8,9)
