17
gdb 84701	3.00825	1.68519	1.45236	0.7561	67.2	-0.2552	-0.0074	0.2478	933.0429	0.138545	-458.964007	-458.957036	-458.956092	-458.995237	27.979	
O	 0.0758444725	 1.4281857021	-0.045866815	-0.439718
C	 0.0513250788	 0.0063364861	-0.0281706114	 0.112353
C	 0.8124387806	-0.5369039345	 1.1644814161	-0.136268
C	 0.1696346661	-1.1656889366	 2.1477544125	-0.050138
C	-1.3291224076	-1.3797900251	 2.0291734832	 0.132392
O	-1.6030567123	-2.5283080804	 1.2353705635	-0.257722
C	-1.4693412388	-2.078524782	-0.1154564124	-0.108064
C	-1.3882848108	-0.532667739	 0.0035140312	-0.004105
O	-1.9125569095	-0.3048409018	 1.3189109925	-0.258248
H	-0.3613794541	 1.7129493832	 0.7660509994	 0.28578
H	 0.5331748837	-0.3023580854	-0.9634600676	 0.094299
H	 1.8809448464	-0.3465815804	 1.2020597484	 0.105267
H	 0.6813576257	-1.5725529958	 3.0141017821	 0.104212
H	-1.8345490632	-1.4912467346	 2.9901426428	 0.097235
H	-0.5729174828	-2.5025692577	-0.5835979744	 0.107367
H	-2.3515431496	-2.4033780618	-0.6737938523	 0.118335
H	-2.0125622152	 0.0020557937	-0.7137184287	 0.097022
124.0492	208.6258	247.876	360.3598	391.2551	420.4181	499.0858	539.7844	627.3014	721.9111	752.7286	808.8316	822.9139	871.9701	924.3037	943.5295	967.6297	985.7889	996.8375	1013.9812	1029.9491	1070.9322	1109.4832	1122.48	1187.8482	1211.3607	1254.153	1289.9778	1315.4767	1324.2632	1337.688	1365.459	1387.9826	1401.405	1425.727	1517.6306	1701.2723	3030.7281	3046.4351	3087.2287	3107.3927	3113.0221	3167.6567	3191.0034	3788.5978
OC1C=CC2OCC1O2	O[C@H]1C=C[C@@H]2OC[C@H]1O2	
InChI=1S/C6H8O3/c7-4-1-2-6-8-3-5(4)9-6/h1-2,4-7H,3H2	InChI=1S/C6H8O3/c7-4-1-2-6-8-3-5(4)9-6/h1-2,4-7H,3H2/t4-,5+,6+/m0/s1
