14
gdb 129521	5.20297	1.01325	0.85487	2.8889	65.48	-0.2283	0.0088	0.2372	1257.7277	0.103993	-466.246039	-466.238174	-466.23723	-466.279508	28.552	
N	-0.1736647367	 1.3698460858	 0.0138992457	-0.570637
C	 0.151844139	 0.0167459029	 0.0355212543	 0.449705
O	 1.2778349494	-0.3953197997	 0.1811257713	-0.34734
N	-0.9780110295	-0.7889219557	-0.0846257043	-0.448588
C	-1.0174926665	-2.1727074887	-0.0506890728	 0.46939
N	 0.0123808439	-2.9834905944	-0.2307906367	-0.270681
N	-0.5922839261	-4.2009718615	-0.1253117841	-0.174687
C	-1.9080960744	-4.0623426805	 0.0981388856	 0.024523
N	-2.2246077233	-2.7824774502	 0.1520675193	-0.341273
H	 0.6442397548	 1.9528637187	-0.0814627333	 0.263915
H	-0.9491707541	 1.6592710388	-0.5636645256	 0.249996
H	-1.8835811048	-0.3697696451	 0.0590337805	 0.261024
H	-0.0363073138	-5.0353932662	-0.2087084717	 0.285188
H	-2.5861233979	-4.8941130542	 0.2141824219	 0.149466
40.8817	82.7876	151.6839	334.7415	377.4402	381.8331	395.9301	510.8797	516.0113	559.1801	631.9579	668.7674	761.8757	775.7145	845.4221	851.4727	974.0209	995.8692	1049.066	1092.2447	1106.6976	1188.5673	1261.5034	1304.5469	1358.6868	1470.974	1479.6317	1581.1291	1603.4995	1627.3905	1836.51	3262.2606	3571.9787	3635.804	3674.5024	3686.2763
NC(=O)NC1=NNC=N1	NC(=O)Nc1n[nH]cn1	
InChI=1S/C3H5N5O/c4-2(9)7-3-5-1-6-8-3/h1H,(H4,4,5,6,7,8,9)	InChI=1S/C3H5N5O/c4-2(9)7-3-5-1-6-8-3/h1H,(H4,4,5,6,7,8,9)
