17
gdb 16236	3.10821	2.25876	1.55387	1.6343	68.85	-0.2282	0.0238	0.252	851.3432	0.142952	-363.869661	-363.862421	-363.861477	-363.901366	27.716	
C	-0.2516604153	 1.5065557161	 0.0220317892	-0.396846
C	 0.059697468	 0.0192116141	-0.0282336117	 0.029675
O	 1.0441340657	-0.2232362211	-1.0773970977	-0.237308
C	 2.0904325411	-0.8300382006	-0.4688807683	 0.099094
N	 2.0414422943	-1.0744204234	 0.7743786066	-0.3026
C	 0.7474682786	-0.5880527437	 1.2119218634	 0.340839
C	 0.6317879829	-0.0387659444	 2.6098636344	-0.315925
C	 0.0144863068	-1.3732350401	 2.2651084513	-0.309279
H	 0.6319193934	 2.0787752018	 0.3185499022	 0.13053
H	-0.5854694923	 1.8569016396	-0.9584403422	 0.128864
H	-1.0506835343	 1.7045278411	 0.7432891417	 0.1212
H	-0.8375364484	-0.5456199797	-0.306429517	 0.094811
H	 2.9202471483	-1.064477327	-1.1257261782	 0.138388
H	 1.5386458877	-0.0359744064	 3.2031163289	 0.128371
H	-0.0282503153	 0.8042022414	 2.782179026	 0.11321
H	-1.0672955001	-1.4317797561	 2.188421526	 0.110442
H	 0.4968695488	-2.2715054418	 2.6323631554	 0.126534
49.4844	227.4673	255.0912	280.6805	301.7278	376.6729	495.9841	538.6347	605.2016	750.5045	774.0309	840.5052	848.6852	905.97	932.6049	939.8618	968.2072	983.7644	1053.4936	1061.8169	1076.4954	1089.2274	1129.8793	1138.5021	1192.6064	1246.2529	1302.7788	1338.6678	1369.0562	1379.7863	1409.4181	1454.9062	1487.4629	1488.7698	1500.7015	1698.2844	3035.2628	3043.2151	3115.8105	3125.6027	3126.1281	3140.1775	3217.0493	3218.9857	3233.1712
CC1OC=NC11CC1	C[C@H]1OC=NC21CC2	
InChI=1S/C6H9NO/c1-5-6(2-3-6)7-4-8-5/h4-5H,2-3H2,1H3	InChI=1S/C6H9NO/c1-5-6(2-3-6)7-4-8-5/h4-5H,2-3H2,1H3/t5-/m1/s1
