20
gdb 105794	2.40356	1.43167	1.19593	1.3842	78.8	-0.2072	0.0641	0.2713	1142.1032	0.17022	-403.047426	-403.038462	-403.037517	-403.081519	33.965	
C	-0.1127572938	 1.6162516701	 0.0624168889	-0.39552
C	 0.130279857	 0.1101204994	 0.1196343443	-0.073581
C	 1.3770035235	-0.6974967782	-0.1786100986	-0.149722
C	 2.6882654364	-0.178166101	 0.4667884289	-0.05298
N	 2.4205565701	 1.1060251062	 1.1603303288	-0.340376
C	 2.0689057369	-0.1873316407	 1.8046973188	-0.117641
C	 0.7362204464	-0.7425099551	 1.2163705583	 0.293702
C	 0.0234173476	-1.87581967	 1.8880655903	-0.164104
O	-0.6450369617	-1.4730877702	 3.0791857014	-0.416425
H	 0.4812417729	 2.0865379717	-0.7252533029	 0.123257
H	-1.1699174461	 1.8057223028	-0.1565107003	 0.092443
H	 0.1443223658	 2.1123557383	 0.9962529848	 0.135664
H	-0.7113426728	-0.442588228	-0.3020333405	 0.08647
H	 1.3769339698	-1.4841979994	-0.9240583157	 0.088268
H	 3.687222398	-0.4510153201	 0.1530286612	 0.094179
H	 3.3034892186	 1.4046238749	 1.5758909995	 0.228298
H	 2.4703410988	-0.465060936	 2.7704137655	 0.09849
H	-0.6700536804	-2.3487846834	 1.1736368787	 0.083617
H	 0.7350285886	-2.6471114127	 2.2073440132	 0.10459
H	-1.2147334152	-0.7320700287	 2.8467534155	 0.281372
54.7338	82.7674	130.276	208.7329	275.6648	285.1315	336.2818	395.3611	418.704	486.586	616.0891	705.4561	716.8268	753.1206	815.2491	841.6892	872.2272	895.6055	917.2035	939.0816	982.9782	986.6123	1035.2459	1049.5958	1076.649	1087.2567	1111.7728	1118.7561	1133.4431	1203.6552	1223.7252	1247.2604	1278.2833	1313.1398	1347.6687	1365.2391	1371.4242	1418.1552	1424.1073	1460.4843	1486.7053	1494.1715	1501.5818	2970.1988	3035.1188	3048.6698	3086.0002	3106.9228	3160.026	3176.3614	3193.7487	3206.4885	3460.8097	3808.8648
CC1C2C3NC3C12CO	C[C@H]1[C@H]2[C@H]3N[C@H]3[C@@]12CO	
InChI=1S/C7H11NO/c1-3-4-5-6(8-5)7(3,4)2-9/h3-6,8-9H,2H2,1H3	InChI=1S/C7H11NO/c1-3-4-5-6(8-5)7(3,4)2-9/h3-6,8-9H,2H2,1H3/t3-,4-,5+,6+,7-/m0/s1
