16
gdb 21068	3.49515	2.00252	1.2939	2.7101	67.98	-0.207	0.0414	0.2485	929.1211	0.130397	-379.945764	-379.937171	-379.936226	-379.979517	29.593	
C	 0.0471691793	 1.4331775704	-0.0418675813	-0.323874
N	-0.0278495507	-0.0089960466	 0.0097306992	-0.013831
N	-0.1777132165	-0.7413094634	-1.1270229763	-0.289673
C	-0.144502038	-2.0023260043	-0.7134840506	-0.058498
C	 0.0348451067	-2.1236617962	 0.6841441991	 0.052802
C	 0.1129510153	-3.3531792776	 1.5359167075	-0.527512
C	 0.1069164759	-0.8040304119	 1.0947806875	 0.367922
O	 0.2853398606	-0.2273053491	 2.3079761592	-0.434662
H	 1.0834532164	 1.7802489041	-0.1229806769	 0.137438
H	-0.5096112573	 1.7649178964	-0.9184415686	 0.154775
H	-0.3962631056	 1.8555558079	 0.8620852878	 0.146408
H	-0.2518392252	-2.8022346438	-1.4333509016	 0.104203
H	 0.8127618694	-3.2281768962	 2.3725070116	 0.109244
H	-0.8564267592	-3.640465417	 1.9635215289	 0.128324
H	 0.4722394241	-4.2067566813	 0.9536614165	 0.136966
H	 0.2811992847	-0.9192935213	 2.9770260181	 0.309968
56.0951	62.7954	135.3395	221.1165	237.6744	273.4085	280.6363	317.0468	510.9277	583.6752	654.3704	691.918	744.5938	780.182	869.7923	994.2144	1004.2484	1059.6832	1069.5652	1150.7931	1223.9002	1233.2221	1289.023	1320.9126	1391.3632	1425.535	1438.5939	1463.3124	1487.9421	1490.2821	1500.1398	1507.4996	1593.2592	1637.2378	3009.2345	3038.4926	3052.7956	3099.2887	3113.9316	3160.1119	3229.4782	3833.9833
CN1N=CC(C)=C1O	Cn1ncc(C)c1O	
InChI=1S/C5H8N2O/c1-4-3-6-7(2)5(4)8/h3,8H,1-2H3	InChI=1S/C5H8N2O/c1-4-3-6-7(2)5(4)8/h3,8H,1-2H3
