21
gdb 121891	3.23138	0.73526	0.64767	3.4959	76.4	-0.2302	0.059	0.2892	1751.3114	0.181687	-457.573664	-457.562609	-457.561665	-457.611187	38.46	
C	-0.1319376165	 1.4758538122	 0.0197614518	-0.355649
N	-0.054705168	 0.0278207681	-0.0287837144	-0.083558
C	-0.0028373004	-0.7120168647	 1.227797558	-0.177146
C	-1.3885567218	-1.0291110815	 1.804930108	-0.201736
C	-1.31002253	-1.803223093	 3.1209497007	-0.055155
O	-2.5863921607	-2.0666087363	 3.6819862446	-0.419828
C	-0.123854754	-0.6997878636	-1.1921942106	 0.441054
N	-0.1086644985	 0.0454417391	-2.3712520138	-0.571059
O	-0.2325187098	-1.9166376533	-1.2042212796	-0.415802
H	 0.8575705453	 1.9573082027	-0.0038757696	 0.117849
H	-0.728313742	 1.8561469519	-0.8128798451	 0.146046
H	-0.6279461406	 1.7841176014	 0.9444726501	 0.136873
H	 0.5347018518	-1.6436453215	 1.0382008046	 0.13746
H	 0.5849475303	-0.1237224603	 1.9431166726	 0.096109
H	-1.9579056707	-0.1066246685	 1.9718026037	 0.099436
H	-1.9345204487	-1.6214394318	 1.0607471195	 0.116502
H	-0.7377568846	-2.7337076274	 2.9738700987	 0.092742
H	-0.7743849309	-1.2154819452	 3.8758263936	 0.106047
H	-3.071059713	-2.614024739	 3.0558062343	 0.281914
H	 0.471798913	 0.8700769515	-2.402117188	 0.249302
H	 0.0079720697	-0.5568801807	-3.1726723891	 0.258598
41.888	74.3417	83.0928	94.3917	132.9916	142.8187	210.6019	290.5608	315.5777	347.9105	395.3215	442.199	465.4058	553.3912	580.5726	604.6236	755.2736	783.1491	790.9424	860.3471	1009.147	1048.4687	1051.6971	1080.7229	1097.7514	1104.7463	1147.045	1154.1569	1260.1079	1276.5011	1287.3329	1318.4375	1355.4369	1396.3078	1413.6632	1425.9281	1432.7892	1465.6237	1489.4449	1493.5095	1502.947	1516.0042	1526.5692	1624.2173	1773.6369	2973.3931	2987.2065	3026.5179	3034.6281	3051.9781	3076.8221	3079.5618	3112.8895	3120.7	3572.5329	3682.8983	3814.558
CN(CCCO)C(N)=O	CN(CCCO)C(=O)N	
InChI=1S/C5H12N2O2/c1-7(5(6)9)3-2-4-8/h8H,2-4H2,1H3,(H2,6,9)	InChI=1S/C5H12N2O2/c1-7(5(6)9)3-2-4-8/h8H,2-4H2,1H3,(H2,6,9)
