15
gdb 8542	4.17409	1.94238	1.58627	2.5266	60.93	-0.2537	0.0609	0.3146	801.8492	0.118957	-399.693045	-399.686456	-399.685512	-399.723415	26.268	
O	 0.1867684962	 1.4169917721	-0.113157486	-0.452361
C	 0.1247890814	 0.0228563962	-0.0642475885	 0.164306
C	 0.0565683299	-0.6736482635	 1.3049673103	-0.135988
N	-1.4313143107	-0.2639724556	 1.4695816898	-0.184906
C	-1.8073137812	-1.7029577486	 1.8069547645	-0.242363
C	-0.7331725519	-1.9034009146	 0.736440652	 0.345122
O	-0.260529531	-3.046328724	 0.1213320814	-0.463532
C	-1.2525578443	-0.6622265929	-0.026038686	-0.095821
H	-0.4579240966	 1.7468793984	 0.5257238403	 0.294958
H	 0.8463216629	-0.374492292	-0.7800626644	 0.101827
H	 0.7322386009	-0.6346032998	 2.1617605096	 0.083252
H	-1.5769409583	-1.9810669212	 2.8409542768	 0.100482
H	-2.8423636393	-1.9550390398	 1.5556509647	 0.109285
H	 0.1697455903	-3.6001445897	 0.7823616239	 0.286215
H	-2.0992526082	-0.606060155	-0.7119211785	 0.089524
172.1473	249.9562	296.6261	338.7314	357.5712	469.525	505.1685	561.4615	651.1957	732.0949	812.5252	854.6207	887.1701	897.262	920.1032	943.7097	1024.7511	1070.0846	1074.2433	1082.1501	1106.2846	1122.2925	1181.0914	1194.4027	1207.9101	1234.3427	1276.1915	1282.2167	1320.9354	1376.9214	1449.5578	1520.4714	3038.3011	3098.3729	3101.5744	3106.5514	3115.0374	3779.2978	3803.0942
OC1C2N3CC2(O)C13	O[C@H]1[C@H]2N3C[C@@]2(O)[C@H]13	
InChI=1S/C5H7NO2/c7-2-3-5(8)1-6(3)4(2)5/h2-4,7-8H,1H2	InChI=1S/C5H7NO2/c7-2-3-5(8)1-6(3)4(2)5/h2-4,7-8H,1H2/t2-,3+,4-,5-
