15
gdb 50406	3.36322	1.21986	0.9178	3.2475	68.31	-0.2673	-0.0576	0.2097	1185.0554	0.111936	-457.812119	-457.804222	-457.803278	-457.845331	28.471	
O	-0.8218671218	 0.9209238391	 0.5896754786	-0.238595
C	 0.1919632578	 0.8490395192	-0.0522552756	 0.137694
C	 1.3291876213	 1.8536755358	 0.0704887797	 0.026676
C	 1.4638570123	 2.4599357117	 1.4629455475	-0.27647
C	 2.7495979878	 3.229705706	 1.5369521558	-0.072941
C	 3.7654561143	 2.9437158798	 0.7187372772	-0.18164
C	 3.720038905	 1.7954216732	-0.2140703519	 0.414668
O	 4.680470326	 1.3578200797	-0.7876646054	-0.325269
O	 2.5114000623	 1.1697437521	-0.3605589827	-0.257436
H	 0.377570086	 0.0490380739	-0.799359289	 0.113373
H	 1.1191073114	 2.6624801351	-0.6497135122	 0.120984
H	 0.5977477039	 3.0981733961	 1.6582588991	 0.143634
H	 1.4422279486	 1.6748087829	 2.2310225249	 0.143086
H	 2.8441554647	 4.011295849	 2.2857038813	 0.123346
H	 4.7142302004	 3.4652621864	 0.7493004026	 0.12889
62.1561	123.907	144.6361	187.3714	321.8518	363.1489	438.6115	473.4774	530.4957	617.2084	664.1212	744.4719	832.9409	863.1629	872.0004	932.4265	974.4498	1013.8888	1069.831	1087.3202	1112.1564	1171.3108	1211.629	1250.4238	1305.4999	1348.6944	1373.3236	1399.7419	1405.9699	1461.836	1691.3237	1835.7346	1840.3154	2924.9384	2970.466	3027.8959	3096.69	3171.0675	3217.8468
O=CC1CC=CC(=O)O1	O=C[C@H]1CC=CC(=O)O1	
InChI=1S/C6H6O3/c7-4-5-2-1-3-6(8)9-5/h1,3-5H,2H2	InChI=1S/C6H6O3/c7-4-5-2-1-3-6(8)9-5/h1,3-5H,2H2/t5-/m1/s1
