21
gdb 82447	2.32535	1.71099	1.34567	1.1138	82.2	-0.2306	0.0703	0.301	1076.681	0.181556	-387.04629	-387.037437	-387.036492	-387.078969	35.036	
C	-0.0241849485	 1.6066513974	-0.0355525682	-0.434469
C	 0.0950805443	 0.0891096456	 0.0343942611	-0.025231
C	 1.124958182	-0.6972965089	-0.8422063015	-0.087558
C	 2.5206413732	-0.1247626626	-0.4750730831	-0.289893
C	 2.294917759	-0.7350614817	 0.9080250646	 0.272769
C	 3.2946248971	-0.9307761999	 2.0078780006	-0.515523
C	 1.2856024525	-1.727942745	 0.3470139704	-0.18243
C	 0.7766113535	-0.6098987393	 1.2097997503	 0.335049
O	 0.2861222232	-0.7542652923	 2.4950360709	-0.465919
H	 0.9338424568	 2.1063283831	 0.1359766144	 0.113794
H	-0.4013045175	 1.9296223301	-1.0124110418	 0.114876
H	-0.7271581391	 1.9714813963	 0.7220539669	 0.113968
H	-0.8910897641	-0.3701214696	-0.1057417019	 0.073469
H	 0.8778187174	-0.9520663544	-1.8704929805	 0.067368
H	 3.3177203128	-0.6541924655	-1.0077180426	 0.093702
H	 2.6841244819	 0.9553380328	-0.569679894	 0.082001
H	 3.6751430705	 0.0307004161	 2.3760487323	 0.111009
H	 2.8432719425	-1.457191177	 2.8546616204	 0.127716
H	 4.1571541324	-1.5147705608	 1.6676727162	 0.1183
H	 1.1945952362	-2.8014851256	 0.4263249409	 0.09147
H	 0.5450662639	 0.0184438213	 3.0096107947	 0.285531
151.3304	177.4144	187.0136	213.7959	233.5391	280.0371	295.5941	357.521	428.2938	476.7665	566.6929	596.3552	636.566	684.7541	767.7244	789.2502	853.6437	888.6682	907.14	924.0602	947.0192	994.6987	1029.3976	1055.9995	1078.0649	1102.0641	1125.5198	1134.0317	1152.0661	1171.1119	1204.4909	1246.1384	1257.3385	1262.5356	1308.7616	1362.3556	1394.3342	1405.88	1420.125	1433.9491	1490.8763	1493.7031	1494.8355	1501.5171	1512.5499	3017.1654	3023.9995	3029.3559	3035.1795	3073.0244	3075.555	3088.247	3102.4062	3106.1971	3135.9501	3223.261	3788.2075
CC1C2CC3(C)C2C13O	C[C@H]1[C@H]2C[C@]3(C)[C@H]2[C@]13O	
InChI=1S/C8H12O/c1-4-5-3-7(2)6(5)8(4,7)9/h4-6,9H,3H2,1-2H3	InChI=1S/C8H12O/c1-4-5-3-7(2)6(5)8(4,7)9/h4-6,9H,3H2,1-2H3/t4-,5+,6-,7+,8+/m0/s1
