18
gdb 83184	2.80579	1.49619	1.2566	2.6031	72.56	-0.2518	0.0227	0.2744	1047.2451	0.149392	-439.081217	-439.073464	-439.07252	-439.113562	30.46	
O	 0.2448150489	 1.2035484781	 0.3729181216	-0.42093
C	 0.0409507288	-0.1503057233	 0.1294114591	 0.090608
C	-1.3810943257	-0.6789398988	 0.0329624402	-0.109452
C	-2.5615860443	 0.2741231127	 0.1031553442	-0.249114
C	-3.1186745571	 0.4817709837	-1.3156671859	-0.278833
C	-2.0612095936	 1.0105639608	-2.2490181009	 0.399612
N	-2.3037691842	 1.885693288	-3.1273555072	-0.506265
O	-0.7783173897	 0.5253862298	-2.0817308196	-0.264822
C	-0.526308387	-0.5535647625	-1.2062157278	 0.014686
H	 0.2949083182	 1.644303944	-0.4850675569	 0.300024
H	 0.7915621282	-0.7911038778	 0.5849232457	 0.101476
H	-1.5453215957	-1.6905857426	 0.3900714462	 0.097385
H	-3.3387265682	-0.1267615665	 0.7580850185	 0.109441
H	-2.2405098788	 1.2318876695	 0.5248365249	 0.130514
H	-3.4820651303	-0.4793574415	-1.7025190793	 0.123904
H	-3.9543051713	 1.1823693137	-1.3462817773	 0.136334
H	-1.4561609161	 2.1002354285	-3.6577528415	 0.217836
H	-0.1567929822	-1.4275952757	-1.7326214239	 0.107596
72.9714	150.4754	218.4157	287.2356	340.0076	398.8262	434.6791	487.4404	560.2449	619.5624	637.4004	714.8917	763.9126	784.7471	793.1682	911.2139	918.5188	936.3555	969.2606	1004.8049	1061.9857	1066.3618	1088.4533	1115.5413	1124.8786	1163.5899	1209.3412	1232.7056	1243.6031	1290.9464	1342.8687	1347.3081	1360.4303	1373.5774	1387.8694	1430.523	1473.6745	1499.1841	1760.2965	3029.7761	3059.0032	3104.2769	3125.63	3137.0946	3153.1087	3164.6464	3457.5102	3767.4012
OC1C2CCC(=N)OC12	O[C@H]1[C@H]2CC[C]([NH])O[C@@H]12	
InChI=1S/C6H9NO2/c7-4-2-1-3-5(8)6(3)9-4/h3,5-8H,1-2H2	InChI=1S/C6H9NO2/c7-4-2-1-3-5(8)6(3)9-4/h3,5-8H,1-2H2/t3-,5+,6-/m1/s1
