21
gdb 75613	1.81144	1.7756	1.16463	2.3558	78.57	-0.2447	-0.0212	0.2235	1167.1273	0.179198	-424.242973	-424.232609	-424.231665	-424.277579	38.281	
C	-0.8586443037	 1.1361763551	-0.1132531448	-0.414505
C	 0.0388885913	-0.0907383744	-0.1200392985	-0.11776
C	 1.4339001696	 0.0172504539	-0.7321482653	 0.317864
O	 1.980769667	 0.8400660395	-1.4186790036	-0.323187
C	 2.0256607316	-0.981963969	 0.2530900107	 0.039197
O	 3.3388948634	-0.7711202981	 0.6725964429	-0.432809
C	 0.7915853262	-0.6043972878	 1.1779305349	 0.230843
C	 1.1607052282	 0.5214894222	 2.143028907	-0.436511
C	 0.1334749262	-1.7763188453	 1.8979163249	-0.45953
H	-0.336473645	 2.0142255161	 0.2752987855	 0.129682
H	-1.1869290716	 1.3724938035	-1.1298130316	 0.132545
H	-1.7514970699	 0.9689646921	 0.4976461074	 0.120215
H	-0.4852029431	-0.9453346982	-0.5662642538	 0.097198
H	 1.9051820668	-2.0178311551	-0.092270722	 0.098083
H	 3.6525788629	 0.0221581519	 0.2189447326	 0.296794
H	 1.6172066495	 1.3741493419	 1.6299477309	 0.119771
H	 0.2775277001	 0.8859876277	 2.6770971471	 0.115696
H	 1.8841394935	 0.1617055108	 2.8799610774	 0.130853
H	 0.7876302882	-2.1704456694	 2.6834398846	 0.126135
H	-0.8069879447	-1.4715434863	 2.371253392	 0.117706
H	-0.0906069065	-2.5941737012	 1.2045956516	 0.111719
85.3783	150.5531	168.8288	182.5645	214.5318	226.4225	237.1239	243.5372	276.525	320.2587	338.197	417.9795	511.7935	540.0715	625.1315	664.2218	738.9565	805.4293	846.208	953.1358	961.0117	968.3895	1006.5205	1017.6066	1068.8211	1117.5279	1129.3762	1158.0379	1192.6781	1233.8907	1262.4658	1280.9391	1328.3268	1370.211	1404.8346	1406.9188	1411.3422	1427.0064	1481.2114	1484.7162	1493.3171	1494.8814	1504.205	1506.2233	1857.0034	3015.5861	3022.511	3031.9036	3037.0104	3042.9162	3089.5291	3095.2523	3102.3835	3107.8971	3114.0614	3122.0568	3763.4774
CC1C(=O)C(O)C1(C)C	C[C@H]1C(=O)[C@@H](O)C1(C)C	
InChI=1S/C7H12O2/c1-4-5(8)6(9)7(4,2)3/h4,6,9H,1-3H3	InChI=1S/C7H12O2/c1-4-5(8)6(9)7(4,2)3/h4,6,9H,1-3H3/t4-,6+/m0/s1
