18
gdb 105021	1.97938	1.726	1.06863	1.3876	73.26	-0.2624	0.0272	0.2896	1137.8805	0.146114	-439.010337	-439.001036	-439.000091	-439.044308	35.14	
O	 0.419112849	 1.0134760775	 0.5836540611	-0.41546
C	 0.0586769171	-0.0685297829	-0.2554443885	-0.17765
C	-1.3920441094	-0.4945340026	-0.0800038203	 0.276601
C	-1.6953338969	-1.8872593072	 0.3373040558	-0.278894
N	-1.8642944451	-0.7686293837	 1.2817709841	-0.357384
C	-2.4445886677	 0.261188818	-0.9135979058	-0.100016
O	-3.7492595005	-0.0661638773	-0.4909999776	-0.415434
C	-2.2125178193	 1.7193322038	-0.8695461589	 0.306087
C	-2.0307885648	 2.9089471168	-0.8345047193	-0.46147
H	-0.1382694374	 1.7622320638	 0.3348621759	 0.289785
H	 0.2483356043	 0.1578568933	-1.3166868357	 0.100089
H	 0.7217757951	-0.8938458798	 0.022887648	 0.108007
H	-2.6248616155	-2.3523943491	 0.0255838185	 0.134504
H	-0.858372992	-2.5659460466	 0.4769152727	 0.117841
H	-1.0930551297	-0.6910713658	 1.9393983676	 0.247595
H	-2.3606459807	-0.0636383198	-1.958929323	 0.121184
H	-3.6909295704	-0.1053053118	 0.4786289548	 0.297304
H	-1.8999244762	 3.9635927333	-0.8200018795	 0.207312
66.3665	109.953	149.0286	216.2945	255.9301	279.5187	333.2624	336.667	420.3085	466.9096	526.3294	556.8808	568.6905	625.8057	636.174	669.4168	771.133	862.2475	917.1347	924.8658	969.6845	975.0865	1014.6326	1070.8722	1080.7268	1089.3707	1155.3616	1202.0849	1243.3611	1263.5976	1322.5149	1326.2328	1383.537	1390.7747	1440.2641	1447.1552	1493.7983	1507.0326	2217.0988	2982.9039	3028.4758	3073.9413	3117.2176	3209.2485	3494.5601	3516.0041	3669.472	3758.9159
OCC1(CN1)C(O)C#C	OC[C@]1(CN1)[C@@H](O)C#C	
InChI=1S/C6H9NO2/c1-2-5(9)6(4-8)3-7-6/h1,5,7-9H,3-4H2	InChI=1S/C6H9NO2/c1-2-5(9)6(4-8)3-7-6/h1,5,7-9H,3-4H2/t5-,6+/m0/s1
