21
gdb 107752	2.69311	1.47345	1.29421	0.561	82.71	-0.2257	0.0887	0.3143	1113.434	0.181938	-387.037707	-387.028946	-387.028002	-387.070914	33.714	
C	-0.0038180378	 1.3971999198	 0.0097688431	-0.266326
O	 0.016629016	-0.0166451026	-0.0367372865	-0.296266
C	-1.2371937601	-0.5949870908	-0.0055243574	 0.384423
C	-2.1428753896	-0.5458956837	 1.2633963089	-0.298828
C	-2.6647976039	-1.8981912287	 0.7821172536	-0.114744
C	-2.7251561581	-1.8500740301	-0.7587994104	-0.114686
C	-2.2395213851	-0.4689558707	-1.1939398372	-0.298839
C	-1.4315581393	-2.1688066034	-0.0470234748	 0.279378
C	-0.4625412634	-3.3009254788	-0.120352956	-0.526099
H	 1.0346483775	 1.7340528207	-0.0203282069	 0.127527
H	-0.5417953636	 1.8248489286	-0.8484057738	 0.113307
H	-0.4714811268	 1.7672214565	 0.9334176821	 0.113326
H	-1.543850487	-0.6508413696	 2.1725911389	 0.09985
H	-2.8450776006	 0.2895175633	 1.3681670963	 0.083231
H	-3.2541106521	-2.617680468	 1.3366081398	 0.081992
H	-3.3576962024	-2.5350727406	-1.3093262368	 0.081994
H	-2.9458521292	 0.3695479793	-1.1908981095	 0.083245
H	-1.713863525	-0.5152886836	-2.1520629309	 0.099842
H	 0.1487826955	-3.2498662456	-1.0284407156	 0.124406
H	 0.2199023099	-3.3032134767	 0.7370879386	 0.124436
H	-0.991201735	-4.2605058455	-0.1280494254	 0.118831
80.4427	145.9042	181.2147	194.8758	206.3134	263.3977	380.7302	388.6641	472.3744	478.6436	583.1202	679.3179	707.4332	743.7441	854.0632	867.7728	896.4115	931.2091	964.823	965.1049	1007.3726	1011.0616	1058.0234	1073.7204	1097.4991	1127.2613	1133.3021	1161.3736	1170.5696	1181.3336	1204.676	1221.5039	1238.0463	1259.3068	1289.4426	1333.8042	1410.8206	1460.7779	1482.0201	1483.8999	1486.7012	1489.8084	1499.0904	1506.3353	1512.2366	2989.2429	3022.24	3023.6562	3032.1593	3041.168	3082.3138	3090.8579	3094.1083	3096.7387	3120.5624	3186.4937	3196.4004
COC12CC3C(C1)C23C	CO[C@@]12C[C@H]3[C@@H](C1)[C@@]23C	
InChI=1S/C8H12O/c1-7-5-3-8(7,9-2)4-6(5)7/h5-6H,3-4H2,1-2H3	InChI=1S/C8H12O/c1-7-5-3-8(7,9-2)4-6(5)7/h5-6H,3-4H2,1-2H3/t5-,6+,7-,8-
