14
gdb 43239	4.23387	1.73713	1.54599	3.8157	73.31	-0.2372	-0.0872	0.1501	830.6004	0.101817	-399.421456	-399.415613	-399.414669	-399.451451	24.34	
O	-0.054836148	-0.0294948631	-0.2197456474	-0.311312
C	-0.0511569305	 1.1404246952	 0.0568785427	 0.386829
C	-1.2246147679	 2.0974247371	 0.1286993818	-0.272177
C	-0.6175519326	 3.295342706	 0.2992384025	 0.134938
C	 0.0605997064	 4.1926033076	-0.6836864999	-0.089423
C	 1.3017397572	 4.2734793431	 0.109880841	-0.047439
C	 0.7218729252	 3.2042680707	 1.0655203415	-0.130205
C	 1.175211663	 2.09705706	 0.1058380094	-0.078753
N	 1.2826720421	 3.2428538267	-0.9727405793	-0.163613
H	-2.1041001639	 1.8913462662	-0.470126169	 0.129156
H	-0.2871628564	 4.7453385774	-1.5454433425	 0.125888
H	 2.0714417133	 5.0266910152	 0.2054713872	 0.11323
H	 0.7491850956	 3.1492923828	 2.1510427304	 0.10039
H	 2.1527337665	 1.6195844751	 0.1731330815	 0.102491
144.5799	347.2479	403.4776	501.967	575.18	594.1385	615.0972	716.1716	749.6833	781.4651	799.15	815.7873	834.0562	862.2439	905.2755	936.8189	948.8222	1005.6131	1034.5901	1047.1687	1078.7627	1124.3475	1126.3867	1182.5504	1206.4155	1225.8921	1245.1439	1270.0717	1321.1793	1561.3914	1815.3726	3127.1328	3147.4314	3203.6632	3211.6438	3226.3795
O=C1C=C2C3C4C2C1N34	O=C1[CH][C]2[C@H]3[C@H]4[C@@H]2[C@@H]1N34	
InChI=1S/C7H5NO/c9-3-1-2-4-6(3)8-5(2)7(4)8/h1,4-7H	InChI=1S/C7H5NO/c9-3-1-2-4-6(3)8-5(2)7(4)8/h1,4-7H/t4-,5-,6+,7+,8?/m0/s1
