23
gdb 120304	3.09876	1.01349	0.91342	0.9146	87.17	-0.234	0.0882	0.3222	1441.0072	0.204508	-388.263069	-388.253219	-388.252274	-388.298053	36.676	
C	 0.0483769682	 1.5087966165	-0.2362837826	-0.387355
C	-0.1447233091	 0.0171105377	-0.4473812378	-0.032201
O	 1.0930608282	-0.5420821253	-0.8588439664	-0.253748
C	 1.0222527099	-1.9119809203	-1.1060148996	 0.096494
C	 0.5081919162	-2.4816817025	-2.4016370673	-0.160825
C	 0.8616467464	-1.5477029618	-3.5642449358	-0.220138
C	 2.3661326437	-1.6221386176	-3.1608355545	-0.269951
C	 2.0113342477	-2.5714034939	-2.0035485708	 0.282906
C	 2.8527362791	-3.7430770019	-1.5827711913	-0.496464
H	 0.8100608105	 1.6934410091	 0.5266649068	 0.126246
H	 0.3713752713	 1.9891245608	-1.1644184091	 0.125754
H	-0.8879701597	 1.9731049469	 0.0876123733	 0.113307
H	-0.4823836489	-0.4648662277	 0.4852727431	 0.084703
H	-0.917446535	-0.1755704248	-1.2076801486	 0.092725
H	 0.7525863245	-2.501024373	-0.2254623831	 0.074342
H	-0.2463317806	-3.2610938528	-2.4236087611	 0.076455
H	 0.6703465866	-1.9986468158	-4.5401821705	 0.098061
H	 0.3996006093	-0.5564808687	-3.5394160808	 0.097998
H	 2.9757035955	-2.1136835862	-3.9233018829	 0.094664
H	 2.8440801567	-0.6831521107	-2.8713590411	 0.105486
H	 3.7891398789	-3.4091425768	-1.1185928716	 0.122091
H	 2.3289586596	-4.3712727982	-0.8547211361	 0.114852
H	 3.1155504412	-4.3731847632	-2.4404017122	 0.114598
59.7313	88.1175	124.3542	200.5969	207.3028	223.5755	262.9882	275.8304	312.7011	385.0313	492.4905	587.4772	622.5932	766.7492	790.9747	812.9981	819.7633	882.6879	910.8041	954.257	959.8262	972.3875	1006.2096	1015.702	1066.9635	1084.9523	1119.9238	1140.5692	1157.6403	1178.4536	1187.9531	1223.7577	1241.751	1252.0747	1264.1001	1292.2366	1306.5532	1341.0121	1395.741	1413.289	1419.6519	1467.595	1473.8687	1483.0089	1486.7265	1497.3011	1499.7793	1509.4192	1529.3014	2964.7188	2998.3713	3017.9689	3043.8333	3053.6063	3061.3543	3070.2996	3076.1351	3094.4577	3100.0987	3117.8567	3118.4088	3120.055	3162.73
CCOC1C2CCC12C	CCO[C@H]1[C@H]2CC[C@@]12C	
InChI=1S/C8H14O/c1-3-9-7-6-4-5-8(6,7)2/h6-7H,3-5H2,1-2H3	InChI=1S/C8H14O/c1-3-9-7-6-4-5-8(6,7)2/h6-7H,3-5H2,1-2H3/t6-,7+,8-/m1/s1
