18
gdb 17406	4.46083	1.50856	1.48519	1.6575	71.93	-0.2482	0.0867	0.3349	943.2344	0.153248	-347.758708	-347.751299	-347.750355	-347.790135	28.833	
C	-0.0594335435	 1.5221847061	-0.0718858477	-0.415586
C	-0.0417570336	 0.0233347098	 0.0781163859	-0.029506
O	 1.2471486589	-0.6194437226	-0.0266320462	-0.30473
C	 0.5737451111	-0.6591925577	 1.2199259667	 0.4545
C	 1.244501986	-0.1245449221	 2.5033504392	-0.327151
C	 0.8747675697	-1.451548341	 3.1904898885	-0.04415
C	-0.607246797	-1.6755456567	 3.124588017	-0.279071
C	 0.2246821443	-1.9666115482	 1.8997648976	-0.142147
H	 0.7338091783	 1.9836944736	 0.5219259699	 0.126454
H	 0.086857973	 1.8082260634	-1.1189198723	 0.128418
H	-1.0228288777	 1.928601763	 0.2553279953	 0.11949
H	-0.8325570225	-0.5085403498	-0.4552181015	 0.085541
H	 2.319054523	-0.0084149814	 2.3429525377	 0.121091
H	 0.8439875403	 0.7902850395	 2.9531485652	 0.097412
H	 1.5075523966	-1.9883725719	 3.8854576928	 0.091357
H	-0.975001018	-2.5517801175	 3.6490625605	 0.114513
H	-1.2938806706	-0.8317119307	 3.1343767659	 0.106587
H	 0.2722942217	-2.944463036	 1.4372428552	 0.096978
115.7166	173.3763	187.5035	237.3012	376.8857	415.1274	449.1858	495.9848	560.2842	752.9684	784.3724	790.3437	832.1636	904.5694	925.569	936.3606	961.03	984.7071	1021.5067	1038.7757	1061.0428	1085.1288	1095.9832	1116.0629	1133.5206	1162.9209	1195.9281	1200.3195	1242.5503	1290.6883	1329.5316	1360.7145	1408.7725	1468.239	1477.8907	1489.4862	1493.7244	1526.0389	3034.3788	3043.1095	3084.2595	3097.438	3105.5998	3110.4954	3123.4872	3189.4699	3192.3541	3205.1458
CC1OC11CC2CC12	C[C@H]1O[C@]21C[C@H]1C[C@@H]21	
InChI=1S/C7H10O/c1-4-7(8-4)3-5-2-6(5)7/h4-6H,2-3H2,1H3	InChI=1S/C7H10O/c1-4-7(8-4)3-5-2-6(5)7/h4-6H,2-3H2,1H3/t4-,5-,6-,7+/m1/s1
