16
gdb 47153	3.32179	1.12758	0.85059	3.6925	76.87	-0.2465	-0.0228	0.2237	1290.3089	0.123786	-400.76739	-400.75876	-400.757816	-400.801452	31.437	
O	-0.1989135543	 0.1308380015	-1.0245109773	-0.391396
C	-0.1269099812	 1.2099555524	-0.4711269219	 0.376234
N	-1.072075192	 2.2079254731	-0.467312762	-0.344362
C	-0.666885544	 3.3679232218	 0.2931457231	-0.208989
C	 0.6988783913	 2.9646643638	 0.7853709439	-0.188051
C	 1.0067217754	 1.740715143	 0.3526273578	 0.206085
C	 2.2313429944	 0.899384211	 0.5637767099	-0.463866
C	 3.2574829304	 1.5305204269	 1.3832192154	 0.294346
C	 4.0919384841	 2.0674369138	 2.0609473071	-0.434413
H	-1.9488715783	 2.1155721093	-0.9505350502	 0.255436
H	-0.6218999177	 4.2764416771	-0.3250987466	 0.128135
H	-1.3514477915	 3.5788574303	 1.1277387491	 0.128135
H	 1.3130015752	 3.6070523056	 1.4019577313	 0.12667
H	 1.9259636998	-0.058463077	 1.006664648	 0.159662
H	 2.6423095801	 0.626631182	-0.4178591911	 0.159636
H	 4.8426180984	 2.5233020153	 2.6576541735	 0.196737
44.0791	110.5681	113.3523	228.1341	240.0982	331.3958	406.6992	411.306	418.5974	567.1498	620.0377	636.2181	654.0611	746.7746	783.577	829.4305	845.7391	947.285	958.3201	966.8143	1015.056	1069.8931	1133.0756	1185.8184	1219.333	1225.0093	1272.3226	1340.9481	1382.7261	1424.6977	1449.8421	1499.3011	1712.0752	1814.5492	2243.3362	2998.026	3019.2566	3020.2575	3039.3337	3230.7689	3506.1094	3674.3842
O=C1NCC=C1CC#C	O=C1NCC=C1CC#C	
InChI=1S/C7H7NO/c1-2-3-6-4-5-8-7(6)9/h1,4H,3,5H2,(H,8,9)	InChI=1S/C7H7NO/c1-2-3-6-4-5-8-7(6)9/h1,4H,3,5H2,(H,8,9)
