19
gdb 110411	4.75074	1.06674	0.98949	2.9258	75.24	-0.2241	0.0729	0.297	1241.0006	0.158159	-422.95469	-422.946259	-422.945315	-422.9876	32.344	
C	-0.118925293	 1.3934540326	 0.0047549686	-0.505791
C	 0.0188819737	-0.0901728644	 0.0055665394	 0.463955
O	-1.1057916802	-0.8966640785	-0.3637637744	-0.326838
C	-0.361781515	-2.0312600184	 0.1603986922	 0.071679
C	 0.5772710057	-1.0700866186	 0.9804394613	-0.204987
C	 1.2903946739	-0.8856226326	-0.3639694477	-0.178578
C	 0.773686028	-2.2291531723	-0.8828448564	-9.*^-6
C	 1.6848705235	-3.4023446287	-0.5782812758	-0.097952
O	 0.9288512568	-4.5927496416	-0.7671559078	-0.424771
H	 0.803845662	 1.8599875491	 0.3623924649	 0.124834
H	-0.3189026437	 1.7637930551	-1.0063395452	 0.13371
H	-0.9407722336	 1.7087600395	 0.6550966927	 0.132219
H	-0.9836602667	-2.849839496	 0.5126003851	 0.095531
H	 0.9021851276	-1.0042487988	 2.0096252181	 0.094622
H	 2.2400564593	-0.4007190277	-0.5572112509	 0.084938
H	 0.4260249981	-2.2767770924	-1.9205504777	 0.079092
H	 2.5597602055	-3.3771444397	-1.24720211	 0.086664
H	 2.05965942	-3.3254254543	 0.4551577784	 0.084886
H	 1.507702908	-5.3451768223	-0.6147309247	 0.286793
92.3829	144.1386	189.1396	201.5014	251.0281	279.487	314.0246	418.4742	531.852	563.1687	638.4158	767.6518	792.1184	793.6193	814.7375	874.8786	902.5957	926.2122	951.1322	973.5342	1013.8854	1034.6877	1066.5714	1083.8952	1098.0336	1113.3037	1138.6522	1153.2972	1183.9043	1209.3153	1241.7945	1259.5463	1282.5542	1294.3044	1367.5367	1399.9459	1454.8852	1459.9223	1473.7658	1501.1381	1519.1894	2966.0407	2993.5349	3035.873	3056.7308	3102.1293	3114.2085	3162.6718	3184.082	3207.1081	3831.31
CC12OC3C1C2C3CO	C[C@]12O[C@@H]3[C@H]1[C@H]2[C@H]3CO	
InChI=1S/C7H10O2/c1-7-4-3(2-8)6(9-7)5(4)7/h3-6,8H,2H2,1H3	InChI=1S/C7H10O2/c1-7-4-3(2-8)6(9-7)5(4)7/h3-6,8H,2H2,1H3/t3-,4-,5-,6+,7-/m1/s1
