19
gdb 87096	2.91031	1.14691	0.96649	2.8246	84.66	-0.2576	-0.0549	0.2027	1286.8333	0.155785	-385.867273	-385.857291	-385.856347	-385.902227	36.588	
C	-0.1864436272	 1.5623819179	 0.2422167541	-0.422348
C	-0.066657768	 0.0585629696	 0.1546524873	 0.003526
C	 1.1414670467	-0.6190652173	-0.3949449207	-0.308201
C	 0.8438873043	-0.7470742484	 1.0997091639	 0.193759
C	 1.7406070378	-0.0510065714	 2.1045935201	-0.489443
C	 0.2571917729	-2.0688954893	 1.4860053636	 0.194848
O	-0.4223773778	-2.7381376868	 0.7284749968	-0.32345
C	 0.52049943	-2.5435185131	 2.8367796188	 0.244364
C	 0.7223468781	-2.9596275787	 3.948425339	-0.405521
H	 0.7814679785	 2.0500880477	 0.3842249329	 0.118856
H	-0.6159439675	 1.9559845325	-0.6855830391	 0.126953
H	-0.84204304	 1.8663153316	 1.0652161152	 0.123843
H	-0.9984923993	-0.4603604708	-0.0516704782	 0.112563
H	 1.0000717406	-1.5128423026	-0.9915756901	 0.135605
H	 2.0012350232	-0.0093811883	-0.6547456363	 0.11111
H	 2.1449573561	 0.8765041144	 1.6941137933	 0.115968
H	 1.2037003623	 0.1964194771	 3.0258735932	 0.127641
H	 2.589088435	-0.6857836962	 2.3786423707	 0.128928
H	 0.8936133742	-3.3366945279	 4.9273938255	 0.210999
40.6205	138.9156	155.7549	172.1219	177.2669	245.2221	252.031	292.5299	340.2227	402.579	434.0896	473.2168	575.8303	640.4165	682.0161	697.8822	719.0205	801.8703	829.1022	899.3205	927.9401	967.4288	1027.576	1052.1741	1090.6515	1107.0048	1132.9161	1152.2069	1200.0519	1287.8963	1317.6458	1398.042	1416.8822	1426.2165	1471.2279	1485.3019	1490.5209	1499.1364	1507.4123	1730.4603	2209.0445	3034.0642	3042.724	3093.2494	3101.7463	3109.5797	3126.0029	3130.3066	3155.6509	3226.7624	3493.9147
CC1CC1(C)C(=O)C#C	C[C@H]1C[C@]1(C)C(=O)C#C	
InChI=1S/C8H10O/c1-4-7(9)8(3)5-6(8)2/h1,6H,5H2,2-3H3	InChI=1S/C8H10O/c1-4-7(9)8(3)5-6(8)2/h1,6H,5H2,2-3H3/t6-,8-/m0/s1
