25
gdb 112553	2.37467	1.11798	0.97182	1.3277	88.67	-0.2589	0.074	0.3329	1399.6618	0.227071	-389.485682	-389.474892	-389.473948	-389.520807	40.978	
C	-0.7300504777	 1.1775333533	-0.1152645392	-0.417
C	-0.0860207115	-0.2052826426	-0.1089082861	-0.023923
C	 1.0995269409	-0.5332593989	-1.074178466	 0.015723
C	 1.8584479882	 0.6415603532	-1.6692405743	-0.095391
O	 2.9716513417	 0.108066579	-2.3758281087	-0.422971
C	 1.8265591488	-1.2500866658	 0.0970484454	-0.271648
C	 0.7868852225	-0.677664245	 1.1150462368	 0.342756
C	 1.3596321659	 0.4521565244	 1.9749766737	-0.445947
C	 0.1086015491	-1.7173321681	 2.0062461478	-0.447157
H	-0.0032839374	 1.9824735867	 0.0276869392	 0.112683
H	-1.2472582262	 1.3633383085	-1.0632022349	 0.112778
H	-1.4753712658	 1.2633685077	 0.6834686243	 0.112266
H	-0.8774878366	-0.9459121988	-0.2699272668	 0.065664
H	 0.8270494582	-1.1918870549	-1.9043311337	 0.071257
H	 1.1989711736	 1.2130371084	-2.342463716	 0.08266
H	 2.1942604558	 1.3326635809	-0.8800042843	 0.082601
H	 3.4828389261	 0.842136287	-2.7285940541	 0.284082
H	 1.7945584531	-2.3402165095	 0.0217422793	 0.090595
H	 2.8669694775	-0.9506492794	 0.2517209186	 0.098194
H	 1.8672882718	 1.2155405311	 1.3779926375	 0.110724
H	 0.5767835758	 0.9514384333	 2.5574034852	 0.108709
H	 2.0944183926	 0.0510549472	 2.6827459623	 0.11045
H	 0.8123074379	-2.1334077744	 2.7372880873	 0.108997
H	-0.7267580942	-1.2781998061	 2.565505273	 0.107348
H	-0.2874411303	-2.549908047	 1.4148132037	 0.106552
73.8104	111.7084	172.4523	201.6032	223.0568	234.9589	244.7066	265.2272	274.3512	323.0162	346.8986	362.22	412.4637	479.5166	515.3147	649.6426	723.8765	828.5775	843.5351	878.6128	929.1514	947.4661	958.1332	977.1486	1005.7027	1018.8651	1067.9612	1072.4918	1101.7557	1133.08	1176.4999	1193.7277	1213.8754	1230.1086	1253.0958	1267.8135	1284.2264	1289.4267	1322.4248	1370.489	1372.8203	1400.0436	1409.2713	1420.2883	1459.838	1482.142	1483.8282	1488.485	1495.684	1497.4414	1505.9244	1510.3524	1520.8777	2962.8038	2989.2959	3014.064	3024.3253	3027.8117	3032.8119	3051.4328	3061.5183	3077.1771	3085.1335	3088.0099	3088.3528	3100.2167	3104.5588	3110.6443	3828.5428
CC1C(CO)CC1(C)C	C[C@H]1[C@@H](CO)CC1(C)C	
InChI=1S/C8H16O/c1-6-7(5-9)4-8(6,2)3/h6-7,9H,4-5H2,1-3H3	InChI=1S/C8H16O/c1-6-7(5-9)4-8(6,2)3/h6-7,9H,4-5H2,1-3H3/t6-,7+/m0/s1
