19
gdb 87662	3.41044	1.13046	0.97462	4.0018	85.14	-0.2326	-0.041	0.1917	1256.5224	0.159342	-385.92183	-385.913523	-385.912578	-385.954805	32.147	
C	-0.0792642352	 1.522863538	-0.073291819	-0.411662
C	 0.0200381483	 0.0166495164	 0.0095837953	-0.039728
C	 1.3243246721	-0.6901136667	-0.2126239081	-0.339094
C	 0.7171633573	-0.6654644803	 1.1826634292	 0.313542
C	 1.3434435039	 0.0805368786	 2.3560955411	-0.435564
C	 1.0812950234	-0.8252653189	 3.5783588206	 0.371636
O	 1.4288705469	-0.5931028418	 4.7132608616	-0.332944
C	 0.3356849198	-2.0029872822	 3.085279633	-0.213603
C	 0.1451507272	-1.9021602816	 1.7606129554	-0.098335
H	 0.8416975149	 2.0062241962	 0.2660520037	 0.123014
H	-0.2563183173	 1.8399685185	-1.1066980599	 0.123307
H	-0.9037285205	 1.9050876212	 0.5384533616	 0.12435
H	-0.8622279063	-0.5059434069	-0.3532361168	 0.088
H	 1.3322555471	-1.6314631758	-0.7522336293	 0.115133
H	 2.210169014	-0.0808366413	-0.3642639922	 0.118866
H	 2.4209903187	 0.2360118587	 2.2469901366	 0.131876
H	 0.8938819736	 1.061358017	 2.5395720153	 0.133611
H	 0.0134218396	-2.8066714713	 3.7339185856	 0.113856
H	-0.3700485776	-2.6300311778	 1.1408504662	 0.113738
68.0459	154.3364	183.3854	219.0128	284.0945	348.7927	427.4982	432.6521	456.0332	514.176	610.7596	689.5117	767.466	818.713	823.6159	832.624	871.6912	910.5852	942.8992	981.2026	995.7027	1025.2508	1059.7059	1079.3822	1105.9701	1134.1338	1168.9981	1174.7097	1193.3246	1226.1609	1273.8504	1322.8802	1373.9906	1409.828	1426.9805	1451.2318	1486.427	1494.8809	1503.5315	1628.2189	1811.3039	3031.9637	3057.0999	3093.0197	3097.2165	3104.9269	3123.1463	3132.9297	3178.6182	3209.9172	3230.6291
CC1CC11CC(=O)C=C1	C[C@H]1C[C@]21CC(=O)C=C2	
InChI=1S/C8H10O/c1-6-4-8(6)3-2-7(9)5-8/h2-3,6H,4-5H2,1H3	InChI=1S/C8H10O/c1-6-4-8(6)3-2-7(9)5-8/h2-3,6H,4-5H2,1H3/t6-,8-/m0/s1
