20
gdb 113334	2.10818	1.22714	1.01748	5.203	81.58	-0.2235	0.0314	0.2549	1308.8341	0.170596	-399.304786	-399.294801	-399.293857	-399.339754	36.229	
C	-0.4182774364	 1.0199575131	-0.1160759564	-0.326388
N	 0.4435310323	-0.1424672353	 0.0989338527	-0.290135
C	 1.0409926967	-0.6441666387	-1.1014365193	-0.044383
C	 1.7149933128	-1.983336141	-1.0622253152	-0.359518
C	 0.3494451151	-1.8435288961	-1.7530564391	 0.186862
N	-0.8484245569	-2.3357802929	-1.1424552295	-0.341483
C	-0.9638826334	-3.7891998379	-1.0958548174	-0.32869
C	 0.3498084209	-1.8885131757	-3.1985805749	 0.28203
N	 0.3686041441	-1.9315978202	-4.3545294964	-0.353523
H	 0.0907234844	 1.8598542866	-0.6164402693	 0.110075
H	-1.2706176308	 0.7249402052	-0.7352269192	 0.147873
H	-0.8012361355	 1.3701382695	 0.8460112495	 0.124645
H	 1.1615138002	 0.064495293	 0.7843217149	 0.231428
H	 1.4494990961	 0.0872464599	-1.8023462906	 0.101364
H	 2.6016501612	-2.132886123	-1.6669764341	 0.136208
H	 1.6955242807	-2.5200043508	-0.1198976128	 0.127134
H	-0.9094314663	-1.9222233253	-0.2169217073	 0.234253
H	-1.0220745365	-4.1863169364	-2.1143696977	 0.14148
H	-0.1240944299	-4.291036289	-0.5858661802	 0.09778
H	-1.8908341091	-4.0550041248	-0.5808537279	 0.122989
79.6272	101.5772	119.9898	167.5408	192.6127	215.9064	232.7531	271.8399	351.8411	387.1838	474.4382	505.5293	578.4516	614.2306	669.4398	759.6055	794.0829	815.4901	898.3342	933.5149	1007.2235	1021.5436	1058.6979	1094.8912	1128.9825	1139.4135	1161.0221	1174.8054	1183.4865	1232.4468	1257.6853	1320.0181	1406.0439	1452.683	1460.106	1462.6582	1477.5462	1483.8195	1494.6804	1497.6425	1517.2906	1519.4166	2349.3197	2961.5894	2975.0346	3070.8889	3073.1945	3078.9763	3115.458	3121.6653	3140.259	3235.4	3516.0641	3528.9994
CNC1CC1(NC)C#N	CN[C@H]1C[C@]1(NC)C#N	
InChI=1S/C6H11N3/c1-8-5-3-6(5,4-7)9-2/h5,8-9H,3H2,1-2H3	InChI=1S/C6H11N3/c1-8-5-3-6(5,4-7)9-2/h5,8-9H,3H2,1-2H3/t5-,6-/m0/s1
