19
gdb 33406	2.46772	1.30107	0.95168	1.6628	81.84	-0.2396	0.0339	0.2736	1267.1371	0.158363	-381.963529	-381.954458	-381.953514	-381.997827	33.744	
C	-0.2956332287	-1.0144695861	 0.6653985526	-0.472375
C	-0.1853239914	 0.1426653715	 0.3553939639	 0.33079
C	-0.0643705023	 1.5513250185	-0.0533822303	-0.176521
C	 1.3874480711	 1.905736119	-0.3474487474	 0.049686
C	 1.8814178313	 3.2641911785	-0.0335994845	-0.241859
N	 2.3397776302	 2.1017652716	 0.751451854	-0.320334
N	-0.8905496118	 1.9524753405	-1.2043018549	-0.074456
C	-1.0970738256	 1.0008599617	-2.2936467904	-0.225627
C	-2.2118150644	 1.3556926073	-1.3727830447	-0.228737
H	-0.3797312156	-2.0328445416	 0.956047013	 0.202703
H	-0.3971519397	 2.1762029806	 0.787953843	 0.103743
H	 1.8035484949	 1.3739190333	-1.1999221472	 0.101267
H	 2.6430512769	 3.7256201015	-0.6550634146	 0.120694
H	 1.181208763	 3.9625444327	 0.4178211439	 0.114728
H	 1.8534287032	 2.0674075235	 1.6450128255	 0.231266
H	-1.0437563195	 1.4245110084	-3.292156705	 0.117789
H	-0.6824359997	 0.0008257267	-2.1898204113	 0.125672
H	-2.5226265903	 0.5874959589	-0.6685977839	 0.124462
H	-2.9914347517	 2.0453396433	-1.6830780715	 0.11711
66.5363	82.7159	138.3914	163.4569	187.899	310.2516	353.8941	365.7918	443.1252	523.1853	584.2406	635.0441	665.762	789.7668	813.1773	828.7601	874.6279	905.466	914.5658	957.5961	1003.5366	1023.7069	1045.4788	1061.5026	1116.4496	1126.4216	1128.2842	1155.4495	1172.8957	1186.2386	1217.4775	1247.4987	1278.1991	1308.3932	1313.6786	1334.6785	1421.103	1483.0258	1511.0554	1514.4456	2220.9769	3001.7673	3106.2625	3108.3772	3110.5167	3137.1813	3188.1249	3196.0274	3201.3745	3489.2296	3499.7605
C#CC(C1CN1)N1CC1	C#C[C@@H]([C@H]1CN1)N1CC1	
InChI=1S/C7H10N2/c1-2-7(6-5-8-6)9-3-4-9/h1,6-8H,3-5H2	InChI=1S/C7H10N2/c1-2-7(6-5-8-6)9-3-4-9/h1,6-8H,3-5H2/t6-,7+/m1/s1
