18
gdb 11796	4.08431	1.66071	1.52935	2.8714	67.18	-0.2332	0.0664	0.2996	889.4046	0.155051	-384.909563	-384.902373	-384.901429	-384.940916	28.075	
O	-0.0853951317	 1.4224296107	-0.1487008805	-0.423468
C	-0.0013210681	 0.0098314053	-0.0065809918	-0.205199
C	-1.4003445298	-0.5433825294	-0.0168142745	 0.311214
C	-2.336762563	-0.5159420897	-1.2715755953	-0.260186
C	-3.0910647557	-1.5666710982	-0.4221541739	 0.105488
C	-1.7050326741	-2.0763090683	 0.0459612699	-0.288208
O	-3.5650113881	-0.8101667669	 0.702470896	-0.281809
C	-2.3902747068	-0.0401341325	 1.0480246749	-0.102564
H	 0.8068492646	 1.7806328622	-0.1385921229	 0.290201
H	 0.5812494224	-0.4400696974	-0.826356865	 0.086819
H	 0.4957935752	-0.2670699772	 0.9387243465	 0.087026
H	-2.8619751987	 0.4122768597	-1.5047298979	 0.106247
H	-1.8574628206	-0.9322380125	-2.1599603539	 0.094837
H	-3.8859766872	-2.2093392486	-0.796544055	 0.077319
H	-1.168613148	-2.6451690641	-0.7163115249	 0.097661
H	-1.657427948	-2.5762660888	 1.0168596016	 0.098084
H	-2.0743925098	-0.2715324043	 2.073090061	 0.092003
H	-2.5965502926	 1.0311451702	 0.9678111556	 0.114534
91.8699	174.7195	237.8296	300.4872	348.5224	422.1783	480.7692	518.4965	616.2854	691.799	821.8161	855.1236	887.6737	913.8837	948.8147	950.513	975.7762	995.0797	1022.4927	1045.1162	1067.9183	1120.6084	1127.0462	1163.876	1189.2655	1199.7374	1220.9305	1227.5683	1253.6353	1281.1471	1297.1935	1320.7388	1379.4734	1464.3823	1473.7061	1506.6517	1514.6041	1534.0392	2955.2017	2986.7925	3022.5977	3061.0219	3072.281	3082.889	3127.7205	3137.5041	3139.8595	3832.001
OCC12CC(C1)OC2	OC[C@@]12C[C@@H](C1)OC2	
InChI=1S/C6H10O2/c7-3-6-1-5(2-6)8-4-6/h5,7H,1-4H2	InChI=1S/C6H10O2/c7-3-6-1-5(2-6)8-4-6/h5,7H,1-4H2/t5-,6+
