18
gdb 29788	2.42522	1.54218	0.95566	1.8066	76.85	-0.1665	0.0617	0.2281	1204.8531	0.148163	-435.280079	-435.270229	-435.269285	-435.314184	36.109	
C	-0.0225374958	 1.4462539763	-0.0119395043	-0.345463
N	 0.0169617072	 0.0033210004	 0.0029803342	-0.028545
C	 0.061978298	-0.8174976757	-1.1227495899	-0.275658
C	 0.0686185001	-2.1182473624	-0.6810108516	 0.240766
O	 0.0967178969	-3.2822494646	-1.3988759279	-0.454332
C	 0.0498282922	-2.1075059984	 0.7450063955	 0.046821
N	 0.0407464676	-3.192759988	 1.6704540178	-0.626443
C	 0.0235037816	-0.778337762	 1.1249773105	 0.290739
N	-0.0850015704	-0.2322779556	 2.414478681	-0.610843
H	 0.9779025552	 1.8928918539	-0.090104276	 0.122415
H	-0.6196161115	 1.7907671592	-0.8609206391	 0.132995
H	-0.4910056156	 1.7951824367	 0.9112244144	 0.153551
H	 0.0899987115	-0.3959772202	-2.1143055755	 0.09877
H	 0.0946224399	-3.0661258669	-2.3360308475	 0.291886
H	 0.8646117507	-3.7766898437	 1.5526801964	 0.234757
H	-0.7544169089	-3.8034202503	 1.5027544727	 0.236584
H	-0.199112823	-1.0077406058	 3.0614551164	 0.253787
H	 0.7491445244	 0.2776978971	 2.6928330928	 0.238213
112.0393	129.676	151.8536	195.5463	242.9015	255.0044	286.3208	290.7895	294.1535	315.0715	345.0368	557.2252	571.5823	598.8732	611.6704	633.7806	701.3398	754.9559	854.2607	881.2271	954.6648	1072.2873	1125.3367	1150.4036	1180.1712	1208.1785	1220.6434	1260.354	1295.5117	1394.0166	1441.7608	1472.0072	1496.537	1510.5421	1548.0021	1597.3384	1623.0323	1656.4838	1685.9976	3008.9279	3083.2181	3130.3387	3256.1922	3475.7644	3476.9241	3532.1403	3560.6247	3835.5389
CN1C=C(O)C(N)=C1N	Cn1cc(O)c(N)c1N	
InChI=1S/C5H9N3O/c1-8-2-3(9)4(6)5(8)7/h2,9H,6-7H2,1H3	InChI=1S/C5H9N3O/c1-8-2-3(9)4(6)5(8)7/h2,9H,6-7H2,1H3
