18
gdb 57980	3.2716	0.90546	0.82926	3.8632	73.15	-0.2893	-0.0071	0.2822	1447.0911	0.145156	-439.13549	-439.125301	-439.124357	-439.172931	34.819	
C	-0.1094950175	 1.50659262	 0.2253717471	-0.386743
C	-0.1166260098	-0.0011600331	-0.0368766376	-0.092209
C	 0.7027360979	-0.7787851735	 1.0151798041	-0.394147
C	-1.5350469244	-0.5363291063	-0.0464440892	 0.465587
O	-2.5004501227	-0.0243013835	 0.4530782042	-0.34672
O	-1.5855614632	-1.7376418677	-0.7029966797	-0.24465
C	-2.8586008738	-2.3843219323	-0.7124255184	-0.201762
C	-2.9985358474	-3.3017187813	 0.4241350378	 0.265104
N	-3.1111615287	-4.035042419	 1.3089863845	-0.293388
H	 0.9181294182	 1.8809888408	 0.2330423951	 0.11574
H	-0.6670569639	 2.0495621319	-0.542658032	 0.123862
H	-0.5694536667	 1.7318577021	 1.1909900676	 0.13908
H	 0.3113130559	-0.2156324431	-1.0227060901	 0.1055
H	 0.6935392612	-1.852436314	 0.8125897959	 0.136987
H	 1.740500294	-0.4340881966	 1.0051129598	 0.125257
H	 0.2996252558	-0.6132501101	 2.0193581648	 0.136171
H	-3.6599780843	-1.6417574805	-0.6773408974	 0.18171
H	-2.9134583805	-2.9495121739	-1.6455096266	 0.164621
18.4862	37.8238	61.5423	200.7657	203.7944	215.6204	254.1855	297.7636	326.124	348.0221	374.5474	448.7965	606.9607	643.8741	755.6815	815.1145	897.5102	928.7649	937.5001	973.3688	1028.2468	1047.925	1118.8454	1124.8505	1153.1739	1202.8221	1297.967	1324.8517	1368.0411	1394.1278	1405.2763	1422.7107	1457.7968	1486.9386	1487.933	1500.5662	1511.8659	1833.9445	2368.2427	3042.5925	3048.1598	3048.633	3075.2522	3115.3073	3118.6578	3127.9722	3128.6083	3128.7176
CC(C)C(=O)OCC#N	CC(C)C(=O)OCC#N	
InChI=1S/C6H9NO2/c1-5(2)6(8)9-4-3-7/h5H,4H2,1-2H3	InChI=1S/C6H9NO2/c1-5(2)6(8)9-4-3-7/h5H,4H2,1-2H3
