18
gdb 93174	2.78359	1.3998	0.9697	5.2985	74.95	-0.2524	-0.0621	0.1903	1200.9045	0.14746	-439.12089	-439.112314	-439.11137	-439.155036	31.873	
C	-0.0838223472	 1.5106130952	 0.0865887787	-0.403015
C	-0.058967796	 0.0020265765	-0.0972399555	 0.139478
C	 0.8211225331	-0.4709147865	-1.2464194544	-0.232705
C	 0.7660210162	-1.9960952074	-1.3333969604	-0.32778
C	 1.0606700118	-2.6641365683	-0.0003294974	 0.337023
O	 1.4552274681	-3.7981092761	 0.0785507867	-0.267864
C	 0.8280208716	-1.8346587667	 1.2693470728	 0.276561
N	 1.0771863045	-2.3559130377	 2.3957112548	-0.461415
O	 0.4070670239	-0.5440432503	 1.1569301858	-0.268558
H	 0.9287951224	 1.8959659196	 0.2387347832	 0.130541
H	-0.5127275913	 1.9920594689	-0.7970174392	 0.122592
H	-0.6885673672	 1.7787290433	 0.9564068019	 0.133974
H	-1.0849182226	-0.3632400044	-0.257673751	 0.088126
H	 0.4802253303	-0.0172202181	-2.1825616301	 0.114265
H	 1.8486261014	-0.1273838219	-1.0741000619	 0.118681
H	-0.2463391458	-2.3114895025	-1.6252223004	 0.136459
H	 1.4484246511	-2.4123767352	-2.0786971144	 0.136644
H	 0.8877085058	-1.6786708086	 3.139017771	 0.226992
31.0732	82.2426	205.8127	228.6768	276.8035	360.3055	389.2982	408.2015	432.3828	498.8042	550.493	597.6675	672.5952	715.2728	830.9017	894.7236	915.9856	919.6717	961.3013	1018.653	1058.5925	1102.6545	1135.9893	1151.1213	1166.9311	1217.9407	1251.7331	1321.0194	1337.0769	1346.7862	1382.4124	1406.822	1414.198	1452.8593	1482.1016	1487.1431	1499.4399	1713.1371	1826.3702	2987.5243	3016.304	3036.9199	3046.8532	3085.7408	3102.6629	3121.2987	3128.4475	3456.3688
CC1CCC(=O)C(=N)O1	C[C@H]1CCC(=O)[C]([NH])O1	
InChI=1S/C6H9NO2/c1-4-2-3-5(8)6(7)9-4/h4,7H,2-3H2,1H3	InChI=1S/C6H9NO2/c1-4-2-3-5(8)6(7)9-4/h4,7H,2-3H2,1H3/t4-/m0/s1
