17
gdb 47686	2.18003	1.68673	0.99955	1.0597	72.53	-0.2555	-0.0275	0.2281	1144.0832	0.138217	-455.179243	-455.171276	-455.170332	-455.21237	29.785	
N	-0.1310974664	 1.1635759709	-0.7984269346	-0.482668
C	-0.0407071754	 0.1037897188	-0.0969662859	 0.360551
C	-1.3370180183	-0.6307549449	 0.2069606148	-0.134223
O	-1.5371867382	-1.0494320261	 1.5346233492	-0.230311
C	-0.7984919367	-2.1937463785	 1.9072147769	-0.100547
C	 0.6373471239	-1.8591195876	 2.3036971137	-0.299461
C	 1.5983326441	-1.4003952128	 1.221647846	 0.377086
O	 2.7597322122	-1.7516362739	 1.2164000699	-0.34202
N	 1.1841547801	-0.4749110008	 0.2648464535	-0.37332
H	 0.7870336196	 1.5538218796	-1.0252926303	 0.211204
H	-2.1414830549	 0.0616941502	-0.0406575898	 0.146691
H	-1.3962350723	-1.4937580105	-0.4787139217	 0.110091
H	-1.3109884052	-2.617621692	 2.7760128425	 0.121447
H	-0.8214876939	-2.9476827122	 1.1043608446	 0.101708
H	 0.5995938209	-1.0594123443	 3.0549744696	 0.144752
H	 1.1133780065	-2.7242302943	 2.7715099985	 0.13722
H	 1.9859137039	-0.1243524519	-0.2464720169	 0.2518
64.8823	104.9197	153.3527	287.2901	347.2669	357.2797	442.5235	475.8853	526.1005	554.3637	624.4749	631.5757	717.489	813.1848	876.0269	903.1053	917.344	977.1001	1023.5033	1047.316	1092.8793	1146.4671	1168.5239	1224.1293	1282.3506	1322.9043	1330.7984	1369.1953	1390.6104	1396.7565	1418.9688	1442.3753	1451.6878	1472.5305	1500.2924	1712.5244	1787.0991	2961.7362	2984.2911	3037.966	3082.8453	3113.2204	3137.4001	3435.7168	3561.8306
N=C1COCCC(=O)N1	[NH][C]1COCCC(=O)N1	
InChI=1S/C5H8N2O2/c6-4-3-9-2-1-5(8)7-4/h1-3H2,(H2,6,7,8)	InChI=1S/C5H8N2O2/c6-4-3-9-2-1-5(8)7-4/h1-3H2,(H2,6,7,8)
