15
gdb 25978	4.37973	1.01318	0.89552	2.8922	67.58	-0.2386	-0.0113	0.2272	1244.3108	0.113724	-454.010837	-454.002676	-454.001732	-454.04505	29.168	
N	 0.2536038108	 0.1417167404	-0.912982672	-0.513372
C	-0.2105990641	 0.2060602067	 0.3638512263	 0.394343
O	 0.0894185058	 1.0872027965	 1.1416578939	-0.351175
C	-1.2076655041	-0.9049221374	 0.7596096169	-0.422109
C	-0.8894856854	-2.2805881304	 0.298343911	 0.321282
C	-0.4895535621	-3.4259869027	 0.9023252693	-0.18476
N	-0.3364846318	-4.4319583835	-0.0470279508	-0.248702
C	-0.6410391058	-3.8620262666	-1.161851465	 0.069718
O	-0.993500341	-2.5547659048	-1.0494004589	-0.190411
H	 0.893147913	 0.8549247362	-1.2218657617	 0.263722
H	 0.0027120322	-0.605049906	-1.5374363717	 0.270111
H	-1.2565918273	-0.892756505	 1.8489490665	 0.154787
H	-2.1944528161	-0.6025176354	 0.3852077581	 0.146975
H	-0.303384532	-3.6014446363	 1.9498134211	 0.134674
H	-0.6572890521	-4.2835675517	-2.1545242131	 0.154917
32.4524	67.6939	128.9154	259.5364	293.5214	316.8402	390.0482	505.3104	568.1421	649.5286	665.2231	679.9333	786.2363	829.4246	851.9331	871.4796	924.5272	937.8836	986.571	1093.5755	1119.8861	1124.6479	1178.1356	1233.6485	1268.4527	1311.7377	1348.9731	1358.1597	1451.7972	1554.6784	1621.9032	1640.4836	1810.734	3033.6926	3136.2533	3268.4389	3278.8146	3601.5884	3738.3335
NC(=O)CC1=CN=CO1	NC(=O)Cc1cnco1	
InChI=1S/C5H6N2O2/c6-5(8)1-4-2-7-3-9-4/h2-3H,1H2,(H2,6,8)	InChI=1S/C5H6N2O2/c6-5(8)1-4-2-7-3-9-4/h2-3H,1H2,(H2,6,8)
