18
gdb 62202	5.42766	0.56907	0.53005	4.9115	79.43	-0.2773	0.0196	0.2969	1967.2429	0.145005	-401.927683	-401.917386	-401.916442	-401.963989	36.109	
O	-0.0843569776	 1.4305437817	 0.0108751877	-0.414336
C	 0.0196279798	 0.0090132686	 0.0306938868	-0.061797
C	 0.6713337264	-0.5361679106	-1.25671176	-0.201321
C	-0.0882339309	-0.1047863358	-2.5131506937	-0.181901
C	 0.6068678091	-0.5952973255	-3.7980972387	-0.348832
C	-0.1071188983	-0.199831833	-5.0104377506	 0.25847
N	-0.6836584664	 0.11887229	-5.9597891559	-0.302914
C	 0.7290483683	-0.4650352899	 1.2214194209	 0.286284
C	 1.3546040108	-0.8269100766	 2.1820694895	-0.430336
H	 0.7812048665	 1.7891613494	 0.2369989052	 0.28822
H	-1.0190167748	-0.3439231557	 0.0700971706	 0.12293
H	 1.7093827551	-0.1804749503	-1.2966638674	 0.102875
H	 0.7173385393	-1.6298187995	-1.1885769599	 0.114189
H	-1.1107663172	-0.4985617481	-2.4867027273	 0.121146
H	-0.1723305036	 0.9848941679	-2.5313341192	 0.139657
H	 1.6277600543	-0.1988560192	-3.8529367522	 0.151652
H	 0.6969454659	-1.6881482941	-3.7913725603	 0.151568
H	 1.8868990434	-1.1513911792	 3.0422965545	 0.204447
47.0345	76.5858	88.2177	132.4862	148.6027	220.1818	272.2621	300.529	303.3508	399.5388	424.0644	533.2319	570.3555	578.5611	639.1784	678.465	745.0548	826.1582	889.6527	947.6612	986.4866	1032.6679	1056.7393	1088.0106	1104.361	1167.8193	1245.5187	1266.5175	1298.6757	1324.5154	1333.588	1367.5248	1391.5971	1419.5276	1468.5527	1478.0041	1505.3977	2233.9294	2363.331	3019.737	3032.3057	3035.8368	3049.8052	3067.2579	3072.2687	3112.1782	3501.3221	3805.3402
OC(CCCC#N)C#C	O[C@@H](CCCC#N)C#C	
InChI=1S/C7H9NO/c1-2-7(9)5-3-4-6-8/h1,7,9H,3-5H2	InChI=1S/C7H9NO/c1-2-7(9)5-3-4-6-8/h1,7,9H,3-5H2/t7-/m1/s1
