17
gdb 27247	3.27411	1.50018	1.05203	2.2212	75.73	-0.1979	0.0236	0.2215	1112.6558	0.137462	-421.853279	-421.84554	-421.844595	-421.885813	29.031	
C	 0.1261941933	 1.5047695217	 0.0225924794	-0.488868
C	-0.0662052605	 0.0310359517	 0.0455222285	 0.213534
C	-1.1448828344	-0.7896051883	-0.0307365134	 0.100266
C	-2.6409750486	-0.860690741	-0.122840423	-0.392062
C	-2.8343024153	-2.3910691284	-0.3747270328	-0.09074
O	-1.6121350593	-3.0735582343	 0.0117542331	-0.284131
C	-0.6488698517	-2.1191862556	 0.0565355721	 0.312331
C	 0.6978481217	-2.066357549	 0.1766904718	-0.19062
O	 1.0625791152	-0.732667993	 0.1708544327	-0.199892
H	 0.7848382055	 1.8104330974	-0.7982451382	 0.139559
H	-0.8366441085	 2.0042774621	-0.1068497565	 0.129599
H	 0.5766180375	 1.8664425225	 0.9541320281	 0.139609
H	-3.1266653763	-0.5478431922	 0.8088659237	 0.123103
H	-3.0786050231	-0.2723795855	-0.9343335024	 0.120354
H	-3.6508803613	-2.8274190952	 0.204258019	 0.119518
H	-3.0109158525	-2.5890761213	-1.4386411484	 0.115424
H	 1.4960500184	-2.7800165515	 0.2681875764	 0.133016
96.4399	109.7435	177.9722	249.2721	254.0025	363.7214	514.5131	583.7523	600.2241	638.9927	659.1703	693.0106	756.2693	784.9488	850.9431	939.2801	944.7762	999.9453	1056.7172	1066.7956	1082.4464	1117.3493	1143.3267	1204.4133	1240.4722	1256.0418	1291.2935	1301.1736	1381.7231	1415.6353	1435.6164	1472.7139	1489.3792	1492.9448	1514.9027	1645.4159	1716.1882	3029.644	3032.9571	3034.2838	3080.1342	3082.7755	3111.134	3126.3196	3299.9247
CC1=C2CCOC2=CO1	Cc1c2CCOc2co1	
InChI=1S/C7H8O2/c1-5-6-2-3-8-7(6)4-9-5/h4H,2-3H2,1H3	InChI=1S/C7H8O2/c1-5-6-2-3-8-7(6)4-9-5/h4H,2-3H2,1H3
