15
gdb 21114	3.72273	2.09622	1.36415	1.4062	65.25	-0.2101	-0.0093	0.2008	878.1571	0.119045	-392.135728	-392.127485	-392.12654	-392.16925	27.835	
C	 0.0517466735	 1.4148343881	-0.0514333009	-0.343308
N	 0.0386183923	-0.0232107116	 0.0222344321	-0.068816
N	 0.0224865093	-0.8005312127	-1.1036812139	-0.119655
N	 0.0137435305	-2.0161060876	-0.7444881702	-0.108117
N	 0.0238089691	-2.0686561222	 0.613068817	-0.040899
C	 0.0176785933	-3.3135507024	 1.3411907352	-0.319298
C	 0.0401514327	-0.8025091519	 1.1689159808	 0.474002
N	 0.0522927864	-0.5459004948	 2.4220124557	-0.613346
H	 0.9507562545	 1.8209802159	 0.4249364353	 0.146959
H	 0.0459632981	 1.6927425645	-1.10533706	 0.168193
H	-0.8316294967	 1.8379520447	 0.4391958136	 0.14696
H	 0.0043023407	-4.1245660427	 0.6132929404	 0.156318
H	 0.908999751	-3.3876701238	 1.9707721771	 0.154153
H	-0.8649791008	-3.3708144678	 1.984580222	 0.154154
H	 0.0631790161	 0.4544656243	 2.6006595357	 0.2127
53.6939	83.1938	104.6114	202.3897	232.0908	266.1653	276.6061	530.3387	601.5621	658.9294	687.3823	717.7052	790.9815	816.4179	975.4235	1030.3854	1048.4787	1155.8286	1159.6309	1203.914	1260.4213	1321.4202	1382.0321	1438.364	1441.092	1471.6818	1472.5487	1477.6708	1485.3113	1513.7805	1516.4494	1743.5577	3031.1713	3049.2461	3087.8885	3110.836	3159.6382	3164.4336	3531.5313
CN1N=NN(C)C1=N	CN1N=NN(C)[C@@H]1[NH]	
InChI=1S/C3H7N5/c1-7-3(4)8(2)6-5-7/h4H,1-2H3	InChI=1S/C3H8N5/c1-7-3(4)8(2)6-5-7/h3-4H,1-2H3
