18
gdb 33405	2.45834	1.27178	0.9274	2.7661	77.34	-0.2455	0.0348	0.2802	1269.0805	0.146339	-401.854743	-401.845778	-401.844834	-401.889047	32.873	
C	 0.1334231661	-1.3601729819	 0.1422472005	-0.446702
C	 0.0175433627	-0.1634016149	 0.1164306526	 0.297767
C	-0.1031757255	 1.2903509729	 0.0376099099	-0.231351
C	 1.2412086067	 2.0096848454	 0.1851823014	 0.02012
C	 2.3041839285	 1.5099218287	 1.0849570783	-0.259129
N	 2.4769272005	 1.4534095791	-0.3803809309	-0.320692
C	-0.7648990048	 1.6928691511	-1.2785901507	 0.093704
C	-2.2132090828	 1.8816186715	-1.3865829965	-0.178664
O	-1.3252066239	 3.0024394233	-1.3032771566	-0.236511
H	 0.2166417833	-2.4185606672	 0.1810692987	 0.205036
H	-0.760463102	 1.6428600319	 0.8445258277	 0.11803
H	 1.1390345835	 3.0830069061	 0.0432734968	 0.114789
H	 2.9525842879	 2.2137950329	 1.5985012646	 0.119338
H	 2.1220523706	 0.5790597334	 1.6146897642	 0.120737
H	 2.3043205205	 0.4975467752	-0.6891881581	 0.232363
H	-0.2031013588	 1.4217673284	-2.172704235	 0.111151
H	-2.7075165273	 1.7479259733	-2.3470083168	 0.121816
H	-2.8416012153	 1.7181211808	-0.5121437903	 0.118196
72.2608	80.0291	137.0205	156.7167	178.9046	316.4612	349.1488	376.3587	469.9678	507.3798	629.2422	644.5193	658.3072	777.0574	847.4604	855.7085	868.6983	923.9444	959.8666	975.4016	993.0449	1045.4524	1102.404	1122.28	1133.6576	1154.2897	1160.0769	1173.5606	1192.3795	1256.3097	1273.8586	1292.5614	1307.5761	1318.03	1402.872	1433.2238	1505.8445	1530.4551	2231.3501	3015.5958	3087.8027	3113.2185	3114.3632	3139.3036	3176.4348	3200.6311	3474.0339	3500.1727
C#CC(C1CN1)C1CO1	C#C[C@@H]([C@H]1CN1)[C@H]1CO1	
InChI=1S/C7H9NO/c1-2-5(6-3-8-6)7-4-9-7/h1,5-8H,3-4H2	InChI=1S/C7H9NO/c1-2-5(6-3-8-6)7-4-9-7/h1,5-8H,3-4H2/t5-,6+,7+/m0/s1
