18
gdb 62742	2.52006	1.54291	1.27772	3.1302	74.85	-0.217	0.0103	0.2273	1057.5246	0.146671	-435.218113	-435.208922	-435.207978	-435.251304	35.17	
C	 0.0487303497	 1.5536675546	 0.0015131867	-0.435057
C	 0.0899132312	 0.0404036056	 0.0430896928	 0.266013
N	-1.1413047858	-0.5506219494	-0.4284188909	-0.570759
C	 1.3664972469	-0.7589636546	-0.2016598382	-0.17907
N	 2.55888093	-0.1560816532	 0.4087912143	-0.343167
C	 1.9503044409	-0.1220961622	 1.6996561007	 0.276122
N	 2.3275418558	 0.2040916778	 2.8591587872	-0.545238
C	 0.6913172944	-0.7602109788	 1.19115209	 0.29153
O	-0.084686463	-1.6770921447	 1.8553677701	-0.454021
H	 0.9798527012	 2.0092414663	 0.3465987522	 0.109773
H	-0.1363002411	 1.8952084626	-1.0237273558	 0.11181
H	-0.7680585031	 1.9201056805	 0.6285740564	 0.140867
H	-1.1755036939	-0.552264111	-1.4429714639	 0.229393
H	-1.2455667463	-1.5031602732	-0.0979871302	 0.246003
H	 1.4525001546	-1.5555318362	-0.9309778297	 0.103304
H	 2.9366795449	 0.7052746446	 0.0254174212	 0.232841
H	 3.2764061622	 0.5839061014	 2.8492803778	 0.217943
H	 0.4979234112	-2.25187714	 2.3650973192	 0.30171
111.1101	176.3682	188.9301	195.2062	229.6235	277.8043	283.3359	329.3638	401.9536	406.3542	510.6748	551.5124	616.7375	652.8857	702.494	738.7635	779.3062	822.9252	870.4705	904.2832	929.4407	960.2363	1017.2796	1026.5011	1066.752	1091.836	1177.3263	1216.5307	1246.8452	1298.1656	1319.4431	1324.8971	1349.891	1412.869	1457.9763	1480.8208	1497.7891	1643.5607	1792.3512	3035.7253	3102.947	3127.5875	3188.0263	3457.3708	3502.4028	3510.2888	3597.37	3798.731
CC1(N)C2NC(=N)C12O	C[C@@]1(N)[C@H]2N[C]([NH])[C@@]12O	
InChI=1S/C5H9N3O/c1-4(7)2-5(4,9)3(6)8-2/h2,9H,7H2,1H3,(H2,6,8)	InChI=1S/C5H9N3O/c1-4(7)2-5(4,9)3(6)8-2/h2,9H,7H2,1H3,(H2,6,8)/t2-,4-,5-/m1/s1
