25
gdb 86614	3.40977	0.96076	0.83459	0.0822	93.3	-0.2598	0.0808	0.3406	1514.2982	0.228997	-352.34066	-352.33084	-352.329895	-352.375276	38.016	
C	-0.1166649964	 1.6081511525	 0.0123259934	-0.413746
C	 0.0907885549	 0.1006576576	-0.0082248127	 0.050721
C	 1.1626144361	-0.5071878967	-0.9520186093	-0.261271
C	 1.4689720864	-1.5715298254	 0.1381483841	 0.032868
C	 2.8830399689	-2.0471241018	 0.3306069635	 0.018659
C	 3.1667383437	-3.3311099819	 1.0739399395	-0.271684
C	 3.3811946005	-3.2609042301	-0.4173570236	-0.276786
C	 0.7868672152	-0.6299560326	 1.1919571607	-0.022614
C	 1.7464700154	 0.2258079777	 2.0161794343	-0.397686
H	 0.8183637176	 2.1439080471	 0.2055052146	 0.111801
H	-0.5034951833	 1.9586625105	-0.9513687201	 0.111153
H	-0.8364299317	 1.9057687222	 0.78358773	 0.110565
H	-0.8710408533	-0.3895316852	-0.1998956327	 0.066479
H	 0.8428981124	-0.8587040759	-1.9367035998	 0.089738
H	 2.0083260795	 0.1759337071	-1.0908430308	 0.091242
H	 0.8242848203	-2.4450906299	-0.0192868879	 0.058735
H	 3.6146448536	-1.2552825252	 0.4687077364	 0.075371
H	 4.0380702402	-3.3752075786	 1.7182479963	 0.107639
H	 2.3188552601	-3.9028893999	 1.4374893729	 0.107827
H	 2.6764181287	-3.7838155149	-1.0558818852	 0.108108
H	 4.3989561264	-3.2569474461	-0.7918480784	 0.107696
H	 0.0980421722	-1.1389073572	 1.874413532	 0.05699
H	 2.4622059947	 0.7717325656	 1.3923335954	 0.111818
H	 1.1992857269	 0.9660927083	 2.6093436918	 0.110015
H	 2.3229490012	-0.3956531072	 2.7090929254	 0.116361
70.5342	79.9274	151.5968	212.7996	235.4371	244.8597	279.9732	293.0321	336.5003	403.265	478.9165	499.9879	637.3271	736.5687	777.4392	798.4267	828.4021	881.9352	895.5517	902.3879	921.7993	955.2076	991.1105	1004.3934	1033.4518	1041.8025	1055.2061	1074.5344	1085.5026	1136.6724	1139.945	1164.3169	1176.8685	1198.754	1211.9892	1230.9006	1249.8529	1260.8361	1280.3335	1294.2311	1320.2315	1369.6432	1375.4248	1406.2613	1412.2018	1439.7483	1469.8524	1490.8217	1491.1189	1492.757	1504.5677	1505.7513	1506.6884	3019.9116	3023.5991	3026.3842	3031.0611	3041.7352	3045.1205	3085.819	3093.2737	3094.6543	3097.4644	3102.2303	3126.1546	3130.6258	3139.8202	3203.6184	3219.1112
CC1CC(C2CC2)C1C	C[C@H]1C[C@@H](C2CC2)[C@H]1C	
InChI=1S/C9H16/c1-6-5-9(7(6)2)8-3-4-8/h6-9H,3-5H2,1-2H3	InChI=1S/C9H16/c1-6-5-9(7(6)2)8-3-4-8/h6-9H,3-5H2,1-2H3/t6-,7-,9+/m0/s1
