18
gdb 11548	5.99671	0.9801	0.93061	1.5127	68.77	-0.2655	0.0191	0.2846	1293.7007	0.152526	-384.96239	-384.953498	-384.952554	-384.997337	30.837	
C	 0.2146758065	 1.2862504067	 0.234095917	-0.239225
O	 0.1212883741	-0.1193067182	-0.0277689536	-0.233857
C	 0.6459433615	-0.5226156911	-1.2046282152	 0.453026
O	 1.1760996425	 0.2243063144	-1.987573753	-0.356157
C	 0.4410273641	-2.013424793	-1.4019400492	-0.357323
C	 1.3569880151	-2.5951560237	-2.4528639274	 0.053809
C	 2.6983436168	-3.1594288195	-2.0621164963	-0.251993
C	 1.5894744217	-4.0822967256	-2.5081872551	-0.284674
H	 1.2597020841	 1.6053708611	 0.2608510255	 0.140276
H	-0.3052515494	 1.8592971384	-0.537996841	 0.139143
H	-0.2559854621	 1.4398286094	 1.2053405561	 0.131414
H	 0.56252345	-2.5179144871	-0.4378661036	 0.123158
H	-0.6130560008	-2.1534902795	-1.6808758146	 0.132977
H	 1.321365656	-2.0705384495	-3.4015410648	 0.102392
H	 3.5379420867	-2.9980752184	-2.7285290566	 0.11623
H	 2.9628937022	-3.1600952497	-1.0093880083	 0.108814
H	 1.1127403528	-4.7012708044	-1.7547349078	 0.108659
H	 1.669643228	-4.5546383003	-3.4809221822	 0.11333
30.25	63.6555	122.7433	137.3999	177.6496	288.6185	322.5442	362.8122	431.1324	590.9499	703.0771	773.9133	812.6976	844.2043	884.9636	905.5969	967.427	1007.646	1035.8543	1059.2655	1079.9861	1135.7837	1148.4858	1179.7175	1196.6298	1201.1624	1217.0013	1233.7982	1258.8833	1344.4696	1423.908	1457.5152	1471.9518	1473.7035	1481.9836	1498.2607	1508.95	1822.0505	3019.4393	3050.8902	3079.0416	3124.7112	3128.7383	3133.9662	3157.1313	3170.5787	3207.2887	3222.916
COC(=O)CC1CC1	COC(=O)CC1CC1	
InChI=1S/C6H10O2/c1-8-6(7)4-5-2-3-5/h5H,2-4H2,1H3	InChI=1S/C6H10O2/c1-8-6(7)4-5-2-3-5/h5H,2-4H2,1H3
