12
gdb 23861	3.72234	1.39259	1.25522	2.4865	44.	-0.2621	0.0136	0.2757	920.1627	0.079913	-546.206985	-546.199222	-546.198278	-546.240045	27.412	
N	 0.2018749612	 0.7875217178	-0.5257603507	-0.511592
C	-0.1558781264	 0.2439262455	 0.670532351	 0.384129
O	 0.3278179117	 0.5810619293	 1.7297225263	-0.346014
C	-1.2881573329	-0.7938181334	 0.6116234009	-0.425811
C	-1.081059844	-1.928868272	-0.3707961024	 0.273264
F	 0.0895554625	-2.5476850184	-0.1829258055	-0.06637
F	-2.0516818112	-2.8431305239	-0.2610513713	-0.065791
F	-1.0977581877	-1.4939579818	-1.6549344859	-0.093923
H	 0.9839919323	 1.4222432168	-0.5299304318	 0.266757
H	-0.1116736233	 0.396062238	-1.3972022634	 0.267384
H	-1.3807449033	-1.2206528667	 1.6102884418	 0.164394
H	-2.2315068589	-0.3021087513	 0.3549536311	 0.153572
47.9895	87.7506	183.9326	318.0283	341.6992	353.1375	401.2739	507.5821	531.0351	539.325	587.195	644.3687	721.0347	856.6465	893.0204	936.1596	1061.8028	1141.5696	1188.0711	1255.3962	1288.0027	1357.3096	1371.6176	1460.0828	1626.3615	1815.3958	3076.4881	3151.1425	3599.8077	3734.347
NC(=O)CC(F)(F)F	NC(=O)CC(F)(F)F	
InChI=1S/C3H4F3NO/c4-3(5,6)1-2(7)8/h1H2,(H2,7,8)	InChI=1S/C3H4F3NO/c4-3(5,6)1-2(7)8/h1H2,(H2,7,8)
