17
gdb 56924	2.21264	1.25353	0.95456	4.6593	78.77	-0.27	0.0121	0.2821	1267.8964	0.134495	-380.822577	-380.81326	-380.812316	-380.857167	33.858	
C	 0.1819841036	 1.372208542	 0.1802999093	-0.397966
C	-0.2158937238	-0.1032845779	-0.0278052969	-0.168558
C	-1.6663989117	-0.2675132427	-0.1100234753	 0.325435
C	-2.8589287312	-0.3840987046	-0.2017120009	-0.463673
C	 0.4449415957	-0.6586172784	-1.2826858918	-0.000654
N	 1.8704544763	-0.9547612209	-1.1908650138	-0.31973
C	 0.9228725346	-2.0726286493	-1.3907721161	-0.197738
C	 0.7948144895	-3.0101034915	-0.3005908759	 0.337799
N	 0.6745690616	-3.7722618909	 0.5601954968	-0.33504
H	 1.2697887314	 1.4529763355	 0.2522167698	 0.13432
H	-0.1655382505	 1.990930578	-0.6528003601	 0.122994
H	-0.2630643427	 1.7615879007	 1.0987576736	 0.133737
H	 0.1578505123	-0.6829903163	 0.8251555564	 0.135029
H	-3.9125914682	-0.501198471	-0.2644432854	 0.201065
H	 0.0686721252	-0.2324995924	-2.2116513448	 0.109525
H	 2.3541600019	-0.7546119813	-2.0619831545	 0.248289
H	 0.8682181061	-2.5370473689	-2.3716029904	 0.135165
47.7205	98.964	138.1135	203.0994	225.5297	246.9705	259.7377	357.0191	420.3449	499.9805	531.2674	580.4956	635.5777	639.2645	653.4857	783.0783	840.7814	866.2353	918.6157	962.1137	975.5049	1030.8134	1083.4994	1110.2798	1138.4731	1196.6724	1222.9158	1250.4371	1307.6457	1324.1157	1397.2148	1406.0933	1457.0323	1497.2661	1498.3688	2238.7797	2361.6135	3038.694	3046.0164	3119.5666	3123.7664	3132.8926	3150.9679	3504.2555	3515.3048
CC(C#C)C1NC1C#N	C[C@@H](C#C)[C@H]1N[C@H]1C#N	
InChI=1S/C7H8N2/c1-3-5(2)7-6(4-8)9-7/h1,5-7,9H,2H3	InChI=1S/C7H8N2/c1-3-5(2)7-6(4-8)9-7/h1,5-7,9H,2H3/t5-,6-,7+/m0/s1
