16
gdb 33921	3.53558	1.36979	1.16386	1.4686	76.49	-0.2322	0.0046	0.2368	1051.8229	0.124964	-400.710057	-400.702387	-400.701442	-400.742109	29.627	
C	-0.0593284404	-1.1977462373	-0.2450933376	-0.400462
C	-0.020994227	-0.0026968809	-0.1093445729	 0.218792
C	 0.0078588306	 1.4187995199	 0.0716964491	 0.083941
C	 0.4512206658	 2.3011121105	-1.0798527563	-0.321864
C	 1.3508450848	 2.1499522019	 0.1232234616	-0.019208
N	 1.5089067699	 3.2564064749	 1.0120313985	-0.253674
C	 0.4712955258	 3.7376799792	 1.5523531417	 0.117431
O	-0.8122000976	 3.3159903383	 1.4363585112	-0.233336
C	-1.0258577617	 1.9477718703	 1.0574051759	-0.152899
H	-0.0860527195	-2.2517852138	-0.3705502793	 0.194019
H	 0.7372812009	 1.8062774875	-2.0001055201	 0.131767
H	-0.051132116	 3.2548476727	-1.2010649038	 0.134132
H	 2.2470077325	 1.5527047091	 0.0036892199	 0.113163
H	 0.5265674578	 4.621390472	 2.1838646227	 0.129457
H	-2.0362739926	 1.9119322226	 0.6420287409	 0.131551
H	-1.0001397031	 1.3297370533	 1.9628154986	 0.127189
121.7592	139.1193	159.576	276.1504	356.0513	438.815	497.8531	518.1599	540.7157	576.4865	587.9772	660.6269	698.0412	805.6979	864.7829	878.3952	935.6419	938.0872	967.6907	1030.5762	1051.329	1078.8963	1089.232	1145.9309	1169.8663	1246.7812	1282.5404	1296.4469	1364.3562	1410.1593	1421.3695	1477.1491	1511.8544	1722.9811	2232.5449	3034.8832	3094.8414	3139.7358	3169.6694	3181.3545	3236.1352	3502.7451
C#CC12CC1N=COC2	C#C[C@]12C[C@H]1N=COC2	
InChI=1S/C7H7NO/c1-2-7-3-6(7)8-5-9-4-7/h1,5-6H,3-4H2	InChI=1S/C7H7NO/c1-2-7-3-6(7)8-5-9-4-7/h1,5-6H,3-4H2/t6-,7-/m1/s1
