18
gdb 5974	3.62081	1.22614	1.13453	2.5076	70.74	-0.257	0.0389	0.2959	1137.5313	0.149812	-384.891978	-384.882278	-384.881333	-384.926066	35.039	
C	-0.1734085554	 1.3686206243	-0.1073771902	-0.231565
O	-0.0746742399	-0.0380130041	-0.0839559837	-0.255229
C	 0.7599746357	-0.5622142967	-1.0980354289	-0.089485
C	 0.636775715	-2.0997054471	-1.0228507948	 0.143119
C	 1.2239470274	-2.6376278619	 0.296783702	-0.414327
O	-0.7419660477	-2.4481175916	-1.1286234827	-0.462056
C	 1.3423527396	-2.6806474027	-2.169267626	 0.35505
C	 1.9595171702	-3.1321859832	-3.0955040435	-0.471207
H	 0.8052698651	 1.8441522909	 0.0551510474	 0.112861
H	-0.5795983832	 1.7302809037	-1.063964667	 0.11373
H	-0.8482437894	 1.6614850644	 0.7002472242	 0.132526
H	 0.4251831226	-0.2208865496	-2.0884034521	 0.106108
H	 1.804450588	-0.2476557624	-0.954388741	 0.100551
H	 0.7371949882	-2.1415472816	 1.140192747	 0.125534
H	 1.0454636887	-3.7127656331	 0.360097513	 0.132266
H	 2.3009182658	-2.4538479552	 0.3529957815	 0.11744
H	-1.2029217593	-1.8108869356	-0.5666975262	 0.287429
H	 2.4915166687	-3.5436387785	-3.917467339	 0.197254
80.027	118.2463	122.3185	190.583	225.5651	229.7371	260.6262	333.1521	378.5106	405.6603	419.8002	465.9468	565.2816	577.1142	630.114	669.0972	771.1529	918.9988	941.7822	975.9157	997.161	1140.2704	1147.88	1159.5947	1192.5332	1197.0335	1228.2965	1277.8979	1373.6418	1399.8217	1422.3459	1478.3895	1486.2316	1488.3497	1492.5841	1499.7429	1520.9745	2242.6707	2979.3486	2990.4032	3029.8422	3033.4734	3048.4555	3119.4837	3124.5618	3141.699	3502.4369	3764.9898
COCC(C)(O)C#C	COC[C@@](C)(O)C#C	
InChI=1S/C6H10O2/c1-4-6(2,7)5-8-3/h1,7H,5H2,2-3H3	InChI=1S/C6H10O2/c1-4-6(2,7)5-8-3/h1,7H,5H2,2-3H3/t6-/m0/s1
