19
gdb 72496	2.58127	1.86836	1.52001	1.3868	69.93	-0.2408	0.0846	0.3254	953.138	0.161019	-460.171794	-460.164341	-460.163397	-460.203228	29.897	
C	-0.0467902044	 1.4887978616	 0.0291897	-0.471506
C	 0.0478650373	-0.0224498194	-0.0186365295	 0.311079
C	 0.6833538605	-0.6078179362	-1.3041082366	-0.108543
O	-0.0579989652	-1.8043855509	-1.5501128009	-0.266685
C	-0.9960516047	-1.9119298243	-0.4932281779	 0.176317
C	-0.3878548764	-2.6635851765	 0.6955768946	-0.099806
O	 0.8182881176	-2.0389485127	 1.1103703725	-0.258406
C	 0.7007096214	-0.6289686115	 1.2322549249	-0.102822
O	-1.2787831074	-0.5862962789	-0.0957757798	-0.286884
H	 0.9485487873	 1.9401635131	-0.0297290364	 0.123947
H	-0.6458430496	 1.8522190622	-0.8098289209	 0.134905
H	-0.5196284091	 1.820718014	 0.9581520432	 0.129724
H	 0.5622952991	 0.0723024736	-2.1554281384	 0.099997
H	 1.7448856137	-0.8417520861	-1.1739645294	 0.112287
H	-1.9116426363	-2.3837193338	-0.8622950849	 0.091213
H	-1.127050654	-2.6911246007	 1.5123358917	 0.093362
H	-0.125667974	-3.6871543721	 0.4150496096	 0.11742
H	 1.7173249356	-0.2503721916	 1.3789476159	 0.108107
H	 0.0909225486	-0.3569171096	 2.1084716722	 0.096293
180.5871	196.8646	256.9536	268.0151	304.533	383.6389	398.1318	464.2261	534.9774	603.2911	673.5821	827.6193	831.912	853.9249	878.7633	920.4473	925.0144	974.0808	997.0503	1022.5378	1033.0931	1056.4003	1126.6677	1151.0791	1178.4754	1196.3109	1235.596	1258.0258	1271.5462	1303.8745	1337.2852	1360.9399	1370.1145	1391.9555	1411.4996	1421.4975	1478.5881	1484.3596	1491.4712	1497.2312	1518.1014	2979.7589	2985.2064	3027.9511	3043.2358	3076.6728	3077.2048	3081.8572	3098.7204	3114.4755	3123.8667
CC12COC(COC1)O2	C[C@@]12CO[C@@H](COC1)O2	
InChI=1S/C6H10O3/c1-6-3-7-2-5(9-6)8-4-6/h5H,2-4H2,1H3	InChI=1S/C6H10O3/c1-6-3-7-2-5(9-6)8-4-6/h5H,2-4H2,1H3/t5-,6+/m1/s1
