17
gdb 84456	2.84141	1.62345	1.27836	2.4798	68.59	-0.2499	-0.007	0.2428	996.8672	0.136568	-458.943288	-458.935652	-458.934708	-458.975136	30.275	
O	-0.054783318	 1.4403237923	 0.1471325025	-0.433739
C	 0.0681737072	 0.0421670931	-0.0196545594	 0.078502
C	 0.7697274907	-0.6450968635	 1.1435757332	-0.097462
C	 0.0469719017	-1.6177530227	 1.6976949859	-0.183979
C	-1.2877396481	-1.8038351299	 1.0199864604	 0.325959
O	-1.6108530926	-3.125620693	 0.6779810834	-0.473273
C	-2.4682265651	-1.0462000232	 1.6556752413	-0.105115
O	-2.271175601	 0.0753555971	 0.7588907414	-0.308274
C	-1.3078794181	-0.6620113984	-0.0389833606	 0.011093
H	-0.833188572	 1.5593427367	 0.7113930562	 0.290497
H	 0.6174705717	-0.106975331	-0.957666691	 0.086038
H	 1.7485266157	-0.3175695714	 1.4770220981	 0.111532
H	 0.3350840927	-2.2229210963	 2.5516313251	 0.106154
H	-0.8137953584	-3.5549041719	 0.3483116359	 0.281424
H	-3.4292112614	-1.5407895047	 1.4731189749	 0.116471
H	-2.3828408011	-0.7571579448	 2.707779903	 0.110294
H	-1.7009941638	-0.8976023384	-1.0317055003	 0.083879
106.2331	190.9589	272.5416	304.3668	315.7241	354.8925	398.8282	507.7505	524.3544	542.9706	651.6772	685.8685	761.6325	842.1829	855.7953	867.2968	942.7837	964.1396	997.1205	1000.3143	1036.1937	1062.0922	1082.744	1114.1395	1149.812	1178.3075	1202.0054	1262.047	1266.3322	1306.0944	1318.4198	1343.7489	1379.4161	1387.0677	1446.1067	1510.6667	1674.8906	3028.1103	3031.6706	3076.0415	3091.5894	3176.9818	3205.128	3724.421	3805.0345
OC1C=CC2(O)COC12	O[C@H]1C=C[C@@]2(O)CO[C@@H]12	
InChI=1S/C6H8O3/c7-4-1-2-6(8)3-9-5(4)6/h1-2,4-5,7-8H,3H2	InChI=1S/C6H8O3/c7-4-1-2-6(8)3-9-5(4)6/h1-2,4-5,7-8H,3H2/t4-,5-,6+/m0/s1
