17
gdb 126235	2.01613	1.6967	0.98372	2.7173	71.77	-0.2099	0.026	0.236	1187.6505	0.135853	-455.152237	-455.143184	-455.14224	-455.186383	33.299	
C	 0.0414953342	 1.5920117383	 0.1881233477	-0.36835
C	-0.0810145769	 0.0705509205	-0.0066224428	-0.319316
C	 0.6190760195	-0.439346655	-1.229065902	-0.013243
C	 0.1116559803	-0.8858650143	-2.4191094346	 0.405991
N	-1.1748154654	-1.0760908098	-2.869584319	-0.595022
O	 1.0852795763	-1.2605476834	-3.2622403484	-0.225083
N	 2.337137511	-1.0662115819	-2.6255910955	-0.285639
C	 2.0167198632	-0.5862895159	-1.4489160449	 0.415693
O	 2.9562238823	-0.2715761954	-0.5393259844	-0.424065
H	 1.0925828709	 1.8850618171	 0.2640961839	 0.135268
H	-0.3955503129	 2.1354214421	-0.6559887618	 0.109399
H	-0.4685921046	 1.9128758608	 1.102115389	 0.110627
H	 0.3245544261	-0.4342550646	 0.878618311	 0.120149
H	-1.1395556979	-0.2142039325	-0.0507465146	 0.094265
H	-1.8522765988	-0.4329270545	-2.4875061708	 0.26405
H	-1.2428985517	-1.1540531389	-3.8749075444	 0.266073
H	 3.8171692545	-0.4763055727	-0.9282195686	 0.309202
42.9236	130.6275	184.0088	190.9113	238.1942	280.3802	301.6949	389.9571	408.77	471.0643	536.6264	573.0957	612.6171	677.8417	696.4418	759.4984	778.3763	807.4472	943.1658	972.8258	1015.889	1068.4894	1087.4179	1180.1857	1226.74	1272.8322	1309.7294	1362.284	1395.7445	1409.5945	1481.8499	1496.6928	1508.2013	1545.2716	1572.2848	1640.8537	1711.8438	3023.7006	3035.2396	3055.3726	3104.2726	3116.2793	3566.8598	3669.4663	3779.0619
CCC1=C(N)ON=C1O	CCc1c(N)onc1O	
InChI=1S/C5H8N2O2/c1-2-3-4(6)9-7-5(3)8/h2,6H2,1H3,(H,7,8)	InChI=1S/C5H8N2O2/c1-2-3-4(6)9-7-5(3)8/h2,6H2,1H3,(H,7,8)
