22
gdb 10604	2.52084	1.66908	1.20541	1.2794	78.1	-0.249	0.0777	0.3267	1113.182	0.198468	-350.196618	-350.186825	-350.185881	-350.230935	36.37	
C	 0.8738094277	-0.0286418242	-1.2477968754	-0.386121
C	-0.0548449554	-0.1227648783	-0.0302650932	-0.242859
C	 0.6212028343	-0.6699204431	 1.2213879294	 0.355499
C	 1.7650652189	 0.1514185725	 1.8054760262	-0.252481
C	 1.3408811865	 1.5259998408	 2.337335803	-0.379155
C	-0.2584708075	-1.4169237163	 2.2144651234	-0.383344
C	 0.7296820167	-2.165864017	 1.3516258755	 0.059126
O	 0.2719793041	-2.9476020062	 0.2835765638	-0.42321
H	 1.2799703539	-1.0133551003	-1.4970057018	 0.133376
H	 0.3285886593	 0.3432577262	-2.1211938436	 0.106132
H	 1.7139673736	 0.6515939236	-1.0741662458	 0.110589
H	-0.4811426797	 0.8638540661	 0.1906794657	 0.090229
H	-0.8962274314	-0.773502841	-0.2831951459	 0.102765
H	 2.2240696755	-0.4186803055	 2.6228455439	 0.089151
H	 2.5515388529	 0.2767221781	 1.0508864315	 0.100076
H	 2.1883403369	 2.0442764561	 2.7968063263	 0.109393
H	 0.9560352378	 2.1688645779	 1.5396895957	 0.119323
H	 0.5547963898	 1.4297231139	 3.0938624392	 0.115858
H	-0.0544950023	-1.3211583291	 3.2765298263	 0.103963
H	-1.3085701737	-1.5269215464	 1.9626546106	 0.106759
H	 1.6243989052	-2.5559185203	 1.8388609249	 0.078093
H	-0.1767911231	-3.7166103974	 0.6494776801	 0.286839
55.0749	100.5148	166.7558	188.8057	223.2709	261.4841	278.1209	298.0258	307.8578	374.9038	422.1915	474.7786	578.0307	682.6543	767.2523	790.5428	824.9576	889.568	909.0186	957.7213	984.0843	1023.555	1038.8957	1050.3036	1073.0549	1094.5964	1127.918	1131.8503	1179.7206	1260.0931	1265.586	1294.7981	1320.3438	1342.1831	1364.7817	1394.2962	1405.2396	1408.6207	1429.2833	1477.5852	1483.8672	1491.4315	1500.353	1501.5603	1505.5692	1511.8386	3020.6537	3027.87	3035.38	3036.8964	3052.1552	3082.7168	3085.7793	3101.9122	3103.1021	3105.317	3116.5949	3120.4139	3207.9238	3807.581
CCC1(CC)CC1O	CCC1(CC)C[C@H]1O	
InChI=1S/C7H14O/c1-3-7(4-2)5-6(7)8/h6,8H,3-5H2,1-2H3	InChI=1S/C7H14O/c1-3-7(4-2)5-6(7)8/h6,8H,3-5H2,1-2H3/t6-/m1/s1
