16
gdb 123720	3.68989	1.63528	1.14903	5.058	75.17	-0.2448	0.0017	0.2465	1006.2528	0.128354	-396.948074	-396.94141	-396.940466	-396.979444	25.787	
C	 0.008316172	 1.4294479893	-0.1293916617	-0.186906
C	 1.3546833807	 2.0485774037	 0.1073627311	-0.071024
C	 2.4601882223	 1.3592765564	 0.3760298102	-0.054211
C	 2.5135373521	-0.1415025414	 0.4799544543	-0.387149
C	 1.1757386483	-0.7653991001	 0.2463684079	 0.339927
C	 0.6921560783	-2.0559012555	 0.228854827	-0.178053
N	-0.6393037178	-2.0251871574	-0.044281037	-0.191733
N	-1.0139517686	-0.7854634058	-0.1988055937	-0.163869
N	 0.0799069071	-0.0157534129	-0.0241593846	-0.012265
H	-0.7269100955	 1.8006664353	 0.5955790928	 0.147477
H	-0.3751079556	 1.6930394932	-1.1231122447	 0.147459
H	 1.3826071278	 3.1320196945	 0.0457991046	 0.107087
H	 3.3966756298	 1.8858571166	 0.5346856888	 0.103869
H	 3.2456027858	-0.5371802147	-0.2380605115	 0.139813
H	 2.8984484635	-0.4315189494	 1.4677405702	 0.139798
H	 1.2166017297	-2.9833813118	 0.3940655162	 0.11978
76.5428	189.8626	268.8279	390.8658	391.7815	484.6185	602.2702	658.2582	684.1336	714.4939	731.1178	834.8267	900.4351	928.3384	972.5651	987.299	1004.3952	1006.9403	1024.381	1136.2576	1163.5932	1190.7677	1209.9985	1238.4673	1243.7275	1296.7808	1300.8246	1367.9143	1387.1193	1416.7597	1466.9451	1488.6129	1519.9966	1589.0301	1739.2605	3008.9617	3024.4425	3026.5133	3051.4266	3166.8448	3188.4645	3266.4108
C1C=CCC2=CN=NN12	C1C=CCc2cnnn12	
InChI=1S/C6H7N3/c1-2-4-9-6(3-1)5-7-8-9/h1-2,5H,3-4H2	InChI=1S/C6H7N3/c1-2-4-9-6(3-1)5-7-8-9/h1-2,5H,3-4H2
