19
gdb 53337	3.38787	0.99076	0.95614	1.4612	83.02	-0.2295	0.0448	0.2743	1353.2579	0.159155	-385.852068	-385.843248	-385.842304	-385.886857	32.358	
C	-0.4734758669	 1.1442276345	 0.4686173782	-0.497634
C	-0.174455506	-0.2631519116	 0.246328721	-0.008622
C	 0.0671741643	-1.4280209439	 0.056698967	 0.170092
C	 0.3904714459	-2.8341933763	-0.1961890777	-0.103834
C	 0.9947368216	-3.5607461901	 1.0475467995	-0.249406
C	-0.1644131462	-4.3790417465	 1.5888070881	-0.066646
C	-1.4833181337	-3.6592086737	 1.8242085506	-0.327113
C	-1.2095762228	-4.3506797932	 0.5143493421	 0.12106
O	-0.7714682216	-3.5887644821	-0.5818971729	-0.249324
H	 0.1759376944	 1.7882954835	-0.1345010121	 0.149345
H	-1.5098866165	 1.3733092611	 0.1973097367	 0.152758
H	-0.3358874615	 1.4231181062	 1.5191300001	 0.14744
H	 1.0799155609	-2.8817319444	-1.0468198788	 0.11033
H	 1.8009741825	-4.2301690384	 0.7320327133	 0.106851
H	 1.407402651	-2.8414790329	 1.7584871385	 0.116471
H	 0.0572357258	-5.2786227458	 2.1506884178	 0.08877
H	-2.1881048866	-4.1375857032	 2.4965327408	 0.109214
H	-1.4954003801	-2.575509868	 1.8471228326	 0.131505
H	-1.7868898843	-5.211459165	 0.1982258551	 0.098744
32.332	78.1195	101.3473	177.1441	269.0171	313.8953	337.6603	429.831	448.471	544.6014	675.5679	719.5067	750.434	775.2524	812.0772	898.1734	913.6773	949.9969	979.6599	1007.0879	1037.0728	1051.7478	1054.617	1065.8565	1088.0472	1101.7197	1153.9532	1160.845	1203.3945	1218.8324	1270.9327	1310.5595	1342.2351	1360.6076	1393.8498	1414.1962	1477.2646	1477.4453	1478.8586	1494.1756	2365.2615	3027.5671	3035.3539	3057.5178	3088.1518	3089.9176	3107.8825	3132.9848	3174.8426	3185.826	3225.4809
CC#CC1CC2CC2O1	CC#C[C@H]1C[C@H]2C[C@H]2O1	
InChI=1S/C8H10O/c1-2-3-7-4-6-5-8(6)9-7/h6-8H,4-5H2,1H3	InChI=1S/C8H10O/c1-2-3-7-4-6-5-8(6)9-7/h6-8H,4-5H2,1H3/t6-,7-,8+/m0/s1
