19
gdb 118807	2.4095	1.09282	0.84039	2.3271	79.58	-0.2565	0.0197	0.2761	1417.7582	0.154884	-422.960742	-422.950484	-422.94954	-422.996281	36.576	
C	-0.1908987364	 1.3919794602	-0.0598707343	-0.2235
O	-0.201267375	-0.0141829318	-0.1234463201	-0.236663
C	 0.8048960814	-0.5301525865	-0.9666024662	-0.124523
C	 0.7005396873	-2.0399097292	-0.9700477874	 0.385182
C	 0.6386954797	-2.7046502066	 0.3857179643	-0.463428
O	-0.1717228961	-2.5905364393	-1.9639844206	-0.275526
C	 1.2415938255	-2.7907798277	-2.129009657	-0.232685
C	 1.8872738601	-2.1639729886	-3.2526782121	 0.339607
C	 2.4571586118	-1.6760102884	-4.1922435628	-0.420857
H	 0.763946513	 1.7757961058	 0.3338724135	 0.103547
H	-0.360986973	 1.8461285326	-1.0484306531	 0.109233
H	-0.9977216614	 1.6942216627	 0.6118607939	 0.129449
H	 0.6955700681	-0.1519994274	-1.9923146993	 0.108494
H	 1.8044698822	-0.2314526691	-0.6030321188	 0.089969
H	-0.2319626466	-2.3396121324	 0.93523144	 0.151276
H	 0.5626832579	-3.7891872712	 0.2791206996	 0.12474
H	 1.5321012901	-2.4681014065	 0.9731996656	 0.121919
H	 1.5674009855	-3.8138767233	-1.9383074921	 0.111689
H	 2.9526601858	-1.2404508733	-5.0246868632	 0.202077
75.1586	86.2103	103.5112	144.6166	196.6793	203.0932	228.4674	307.9237	341.6488	361.4619	394.1739	468.7514	568.1222	585.2423	626.2573	669.0383	750.561	824.7236	917.3291	959.9253	984.1433	1007.1109	1062.8009	1105.4779	1116.3225	1159.7948	1185.3925	1226.9387	1250.2151	1289.6463	1327.7433	1409.7071	1414.2767	1448.054	1476.7003	1480.7575	1484.8119	1497.2472	1502.258	1519.198	2237.5416	2948.9249	2971.3157	3016.04	3029.9044	3046.0533	3101.7501	3116.9974	3117.3569	3137.3294	3501.5801
COCC1(C)OC1C#C	COC[C@@]1(C)O[C@H]1C#C	
InChI=1S/C7H10O2/c1-4-6-7(2,9-6)5-8-3/h1,6H,5H2,2-3H3	InChI=1S/C7H10O2/c1-4-6-7(2,9-6)5-8-3/h1,6H,5H2,2-3H3/t6-,7+/m0/s1
