16
gdb 29560	2.35782	1.85548	1.04114	5.4428	79.27	-0.1743	-0.0067	0.1676	1084.3335	0.127431	-434.126888	-434.11884	-434.117896	-434.158828	31.974	
N	 0.0371984286	 1.3817763899	 0.1339250357	-0.587596
C	-0.0374551581	-0.0069917024	 0.0609363988	 0.151549
C	-1.2051511153	-0.7185897362	 0.0261599546	-0.078544
N	-1.1851523533	-2.084524016	-0.0096249489	-0.316225
C	-0.0188212492	-2.7964068413	 0.0089235354	-0.078533
C	 1.18778975	-2.1529671521	 0.0431266396	 0.151534
N	 2.4221695149	-2.7954373445	 0.0992662017	-0.587598
C	 1.2417325228	-0.6994373943	 0.0555989677	 0.313972
O	 2.322317883	-0.0823761336	 0.0436899039	-0.457839
H	 0.9908403248	 1.6742240877	-0.0544249976	 0.258401
H	-0.6413175072	 1.8880869157	-0.4161102242	 0.238036
H	-2.1835191226	-0.2548969979	 0.0234939468	 0.11552
H	-2.0577910139	-2.582573342	-0.0316911321	 0.265367
H	-0.1168815823	-3.8745382465	-0.0065286329	 0.115522
H	 2.5093201652	-3.6300939263	-0.4620116874	 0.238035
H	 3.1574280227	-2.1204886303	-0.085881651	 0.258399
127.4455	238.7663	294.2674	314.8786	323.8847	339.2189	346.1924	420.2495	488.2407	514.6812	524.9059	549.0487	582.8991	703.0373	711.5918	721.5752	797.3601	803.6741	833.9597	884.605	1034.8509	1070.7933	1161.3608	1181.5424	1260.8656	1294.6826	1356.8678	1436.5413	1441.9394	1571.5035	1591.1695	1622.605	1652.1468	1669.8837	1680.0114	3204.7892	3207.3255	3513.3835	3514.8373	3636.36	3636.9037	3675.1165
NC1=CNC=C(N)C1=O	Nc1c[nH]cc(N)c1=O	
InChI=1S/C5H7N3O/c6-3-1-8-2-4(7)5(3)9/h1-2H,6-7H2,(H,8,9)	InChI=1S/C5H7N3O/c6-3-1-8-2-4(7)5(3)9/h1-2H,6-7H2,(H,8,9)
