17
gdb 15610	3.08277	1.96238	1.22643	2.5989	75.31	-0.2299	-0.0189	0.211	991.8052	0.141599	-363.893247	-363.884835	-363.883891	-363.927494	29.309	
C	-0.0045526726	 1.4012364599	 0.0328210701	-0.320537
N	-0.0030868298	-0.0531443752	-0.0111142015	-0.332698
C	 0.5621973955	-0.6754646262	 0.9323814012	 0.381102
O	 1.1823860398	-0.0817085848	 2.0083027711	-0.260704
C	 1.705935864	-1.0982006603	 2.8673980189	-0.136449
C	 1.3395113761	-2.3910781636	 2.2012204925	-0.212383
C	 0.6716898531	-2.1393080655	 1.0717221055	 0.243044
C	 0.0943853176	-3.0695808127	 0.0590635208	-0.490237
H	 1.0139790318	 1.8123925538	 0.0345319899	 0.119702
H	-0.5301840572	 1.7873644647	-0.8439422626	 0.114622
H	-0.5044417753	 1.7841815623	 0.9327605275	 0.119678
H	 2.7908612193	-0.9573775945	 2.9685600882	 0.125296
H	 1.2617839456	-0.9864915132	 3.8660905877	 0.125284
H	 1.5969429489	-3.3602065109	 2.6081956469	 0.113258
H	 0.2785925406	-4.1139797274	 0.3213941345	 0.118657
H	-0.9848328412	-2.9103849066	-0.03416528	 0.146046
H	 0.519902554	-2.8690608999	-0.9294974106	 0.146318
18.7297	108.9932	160.8204	184.6261	211.5958	268.5168	286.8574	462.9991	543.2683	595.7939	734.6045	755.5601	802.5585	824.2912	947.5386	1010.4852	1029.1969	1041.2407	1068.8022	1076.423	1103.9917	1109.3829	1173.3091	1197.091	1235.8069	1356.0631	1378.387	1415.5546	1437.7835	1469.9428	1482.1098	1487.3704	1498.7187	1502.671	1711.6949	1773.5623	3000.8365	3007.3826	3033.9245	3042.4498	3050.5785	3098.9167	3103.753	3127.439	3223.1398
CN=C1OCC=C1C	C[N]C1=C([CH]CO1)C	
InChI=1S/C6H9NO/c1-5-3-4-8-6(5)7-2/h3H,4H2,1-2H3	InChI=1S/C6H9NO/c1-5-3-4-8-6(5)7-2/h3H,4H2,1-2H3
