25
gdb 102408	1.643	1.44437	0.96116	0.3127	83.95	-0.2581	0.0498	0.3079	1386.3336	0.226573	-426.620397	-426.608693	-426.607749	-426.656821	43.069	
C	-0.2836837488	 1.5155609072	 0.0974587544	-0.412064
C	 0.0390111289	 0.019578446	-0.017207323	-0.209304
C	 0.7499668138	-0.4502199471	-1.3138991405	 0.21951
C	 0.7360032969	-2.0017916851	-1.3095824389	-0.209315
C	 1.587261761	-2.709073284	-2.3727656744	-0.412063
C	 0.0257601892	 0.0775528701	-2.5709148651	-0.096226
O	-1.3337421217	-0.3255093238	-2.6620910482	-0.428084
C	 2.1935850749	 0.0955856929	-1.3480548275	-0.096214
O	 2.995608908	-0.3332454711	-0.2563230718	-0.428088
H	 0.6108890472	 2.1388845931	 0.0058583302	 0.12709
H	-0.9973073944	 1.8565293872	-0.6615274133	 0.104234
H	-0.7284024889	 1.7302566786	 1.0740857283	 0.118475
H	 0.6816982083	-0.2660640421	 0.8217964706	 0.11483
H	-0.8874278668	-0.5567612768	 0.1000659798	 0.087937
H	 1.0429746834	-2.3498087948	-0.3151655252	 0.087932
H	-0.3066097062	-2.3129384986	-1.4308687379	 0.114839
H	 1.3097601801	-2.4116339499	-3.3884951111	 0.127088
H	 2.6598730262	-2.5143754823	-2.2579826144	 0.104241
H	 1.4496962766	-3.7926241616	-2.3044876757	 0.118475
H	 0.1156581359	 1.1730848539	-2.6221783135	 0.089244
H	 0.504303467	-0.3165483937	-3.4731847898	 0.106775
H	-1.8218932254	 0.11142675	-1.9575138886	 0.287338
H	 2.6671948196	-0.1590466271	-2.3081378966	 0.089241
H	 2.1833268125	 1.1885113569	-1.2862650626	 0.106773
H	 3.1421530026	-1.2796883975	-0.3480138651	 0.287336
78.5716	81.9844	121.9291	145.2633	157.0852	214.6163	248.6509	272.2225	282.3839	295.5777	318.2082	341.543	342.0184	395.0765	405.4485	505.2165	590.2329	724.3615	767.2374	785.7411	834.0339	939.4366	946.5419	990.1787	996.8827	1048.1204	1052.1066	1073.0157	1082.1528	1099.5497	1110.3112	1203.5818	1204.9187	1236.0695	1265.6052	1304.0211	1332.0662	1369.1797	1372.0191	1388.5193	1397.9607	1409.6291	1415.0616	1422.109	1425.2154	1482.2551	1489.3154	1492.079	1502.955	1503.1271	1504.0813	1516.2376	1516.6114	2987.5398	2991.9336	3022.8486	3029.2259	3033.2702	3034.2953	3069.9053	3072.1708	3073.721	3076.2346	3096.3146	3097.2902	3110.5844	3110.9799	3824.622	3824.9592
CCC(CC)(CO)CO	CCC(CC)(CO)CO	
InChI=1S/C7H16O2/c1-3-7(4-2,5-8)6-9/h8-9H,3-6H2,1-2H3	InChI=1S/C7H16O2/c1-3-7(4-2,5-8)6-9/h8-9H,3-6H2,1-2H3
