15
gdb 21103	3.41368	2.07274	1.31092	3.4295	64.29	-0.2169	0.0049	0.2217	897.7236	0.118948	-395.989688	-395.98166	-395.980716	-396.022155	28.26	
C	-0.0309502793	 1.4298956167	-0.0212292349	-0.332245
N	 0.010855447	-0.0125605941	 0.0759128815	 0.012471
N	 0.01188373	-0.7558558781	-1.0409561215	-0.165709
N	 0.0539349265	-2.0140979261	-0.6718801996	-0.287612
C	 0.0780092241	-2.0632006266	 0.6765393476	 0.295131
O	 0.1220756181	-3.2229209368	 1.3660900417	-0.434784
C	 0.0513878155	-0.787732003	 1.1997552404	 0.230249
C	 0.0609676319	-0.2790385252	 2.5987853528	-0.512597
H	 0.8545974094	 1.8770998035	 0.4403777458	 0.144398
H	-0.0537917194	 1.6790106037	-1.0819305039	 0.170726
H	-0.9259131371	 1.8273783869	 0.4669839641	 0.144398
H	 0.1311081336	-3.9328320604	 0.7119955415	 0.305893
H	 0.9303682093	 0.3571707847	 2.803221815	 0.135768
H	-0.8371344177	 0.3042403291	 2.8346652123	 0.135829
H	 0.0985464581	-1.1261346743	 3.2869526773	 0.158084
101.4546	110.328	161.6608	232.005	248.8806	294.8374	357.5881	379.6312	517.6016	599.1152	671.0762	719.5756	733.3653	813.9474	975.6819	1046.6091	1065.3862	1151.1317	1151.8796	1180.6306	1260.4581	1295.4343	1352.4672	1410.1443	1426.1693	1450.8613	1478.996	1486.2756	1488.1608	1501.2245	1535.0793	1680.2525	3023.3818	3043.504	3070.6252	3104.982	3130.3765	3163.9416	3797.4446
CN1N=NC(O)=C1C	Cn1nnc(O)c1C	
InChI=1S/C4H7N3O/c1-3-4(8)5-6-7(3)2/h8H,1-2H3	InChI=1S/C4H7N3O/c1-3-4(8)5-6-7(3)2/h8H,1-2H3
