21
gdb 100837	3.86915	0.72845	0.64582	2.9206	76.49	-0.249	-0.0187	0.2302	1739.8259	0.178324	-461.370756	-461.359619	-461.358675	-461.407818	39.147	
C	 0.0177935428	 1.60104389	 0.0754556946	-0.385059
C	 0.0070890621	 0.0720262487	 0.0118025358	-0.195731
C	 0.7015880794	-0.4828256186	-1.2338144715	 0.110669
O	 2.0764813791	-0.1091009123	-1.2930878992	-0.427285
C	 0.5555755089	-2.0157718379	-1.3504879906	 0.08796
O	-0.8082700812	-2.4196962678	-1.3088385507	-0.424124
C	 1.2612232832	-2.5653427429	-2.5958881982	-0.301486
C	 1.1986480753	-4.0737845467	-2.6525381556	 0.166126
O	 0.8056058681	-4.7119548364	-3.5940095996	-0.241532
H	 1.0387717862	 1.9888222892	 0.0183215716	 0.123546
H	-0.5458633409	 2.0329300139	-0.7587870776	 0.116621
H	-0.4345438171	 1.9601105083	 1.0044238459	 0.114104
H	 0.5069693211	-0.3458412851	 0.8996144645	 0.083549
H	-1.0165072763	-0.313212794	 0.0342674877	 0.120516
H	 0.2516956488	-0.0307393676	-2.1299682463	 0.080006
H	 2.4705505634	-0.3081663685	-0.43590037	 0.281654
H	 1.0058219428	-2.46813216	-0.4544312548	 0.08311
H	-1.2110725453	-2.2035112659	-2.1577500795	 0.287708
H	 0.8173730574	-2.1578948117	-3.5121837097	 0.110104
H	 2.311412675	-2.2500037736	-2.5641155836	 0.138803
H	 1.5602814271	-4.5804710213	-1.7268046333	 0.070741
51.5803	72.9232	80.7623	111.9356	148.2721	212.2506	243.8175	262.73	300.7788	310.6119	317.9163	405.6677	432.314	495.2045	541.23	576.6182	779.5961	784.3688	880.1166	934.0738	987.8209	1006.6095	1044.8865	1068.5382	1077.2372	1103.4969	1124.1629	1160.518	1182.3098	1219.2146	1256.9061	1281.3087	1326.3109	1340.8569	1376.4725	1394.7369	1405.3287	1412.2965	1417.4408	1429.9738	1459.369	1488.0814	1496.1479	1509.4304	1837.8931	2855.093	2991.2094	2999.7618	3017.7044	3034.4119	3038.2542	3086.6334	3087.4468	3104.5132	3119.0987	3793.3937	3797.5075
CCC(O)C(O)CC=O	CC[C@@H](O)[C@@H](O)CC=O	
InChI=1S/C6H12O3/c1-2-5(8)6(9)3-4-7/h4-6,8-9H,2-3H2,1H3	InChI=1S/C6H12O3/c1-2-5(8)6(9)3-4-7/h4-6,8-9H,2-3H2,1H3/t5-,6+/m1/s1
