15
gdb 23966	3.46604	1.36063	0.98937	6.6091	80.89	-0.227	0.0006	0.2276	1128.0097	0.115524	-379.695711	-379.688497	-379.687553	-379.727846	26.94	
N	-0.0269502934	-1.1569748117	-0.0253917732	-0.36184
C	-0.0132366832	 0.0020898022	-0.0167901893	 0.184367
C	 0.0015885912	 1.4155228947	-0.0059746913	 0.001914
C	-1.0720823497	 2.2833327954	 0.1212441304	 0.26836
C	-2.5169846013	 2.7139139577	 0.2865644822	-0.384743
C	-1.9346827286	 4.1807668079	 0.2348655981	-0.169767
N	-0.609019138	 3.5506583035	 0.0808601618	 0.0105
C	 0.7531934397	 3.5911860585	-0.070372936	-0.135625
C	 1.156003761	 2.2721461412	-0.1270640796	-0.23448
H	-3.189308699	 2.4616788451	-0.5364847802	 0.141245
H	-2.9916203431	 2.4455903036	 1.2330171261	 0.141254
H	-2.2380505461	 4.7800866225	-0.6268495507	 0.13916
H	-2.0390188568	 4.7636974872	 1.1530573784	 0.139174
H	 1.3174300945	 4.5069074248	-0.1251443137	 0.137797
H	 2.1712539728	 1.9262601372	-0.2433814729	 0.122684
85.3406	139.5595	164.6108	244.8041	420.5184	522.8079	548.5142	585.1513	617.0873	673.4219	716.5223	725.1869	807.4643	818.1157	840.5801	904.106	1044.3444	1058.3368	1079.569	1123.0588	1139.4093	1177.7918	1223.4684	1235.3755	1280.5861	1326.6349	1423.5533	1430.4163	1481.2985	1485.1547	1526.2073	1592.3323	2341.3437	3066.1913	3074.6513	3115.9495	3129.5103	3258.556	3281.7226
N#CC1=C2CCN2C=C1	N#Cc1c2CCn2cc1	
InChI=1S/C7H6N2/c8-5-6-1-3-9-4-2-7(6)9/h1,3H,2,4H2	InChI=1S/C7H6N2/c8-5-6-1-3-9-4-2-7(6)9/h1,3H,2,4H2
