13
gdb 10792	5.17616	1.64471	1.30899	1.7445	56.02	-0.2576	-0.0491	0.2085	864.6132	0.095775	-435.755845	-435.749073	-435.748129	-435.787381	24.545	
N	-0.0812514	 1.3249594685	 0.2929762965	-0.542131
C	-0.0010708714	 0.1371371721	-0.1118565577	 0.456656
O	 1.0527246127	-0.3708392031	-0.8166523779	-0.251119
C	 1.2777823272	-1.7806231673	-0.7194291451	-0.196222
C	 0.0266155997	-2.5511277284	-1.1139541102	 0.36606
O	 0.0330711474	-3.6640718003	-1.5689045457	-0.279788
C	-1.2333455354	-1.7376698445	-0.8579565694	-0.191168
O	-1.0010568215	-0.7408642738	 0.1378975154	-0.221966
H	 0.7936539334	 1.8125812485	 0.1099090584	 0.233952
H	 2.1007662	-2.0179170764	-1.3947330051	 0.159575
H	 1.570013147	-2.0595725514	 0.3026128623	 0.150989
H	-1.5731158095	-1.2813400594	-1.7982928162	 0.152108
H	-2.0288209396	-2.3810466545	-0.4794066254	 0.163054
58.2144	153.5542	226.5398	372.5623	408.6871	462.189	495.6842	583.4349	700.7946	747.7085	764.9674	835.9697	854.257	937.4177	992.8984	1052.6396	1105.2308	1140.5538	1212.986	1242.4859	1245.6815	1296.7356	1358.7946	1384.9599	1464.8348	1472.221	1782.1923	1853.0872	3019.2545	3019.6155	3133.5589	3135.3451	3525.3605
N=C1OCC(=O)CO1	[NH][C]1OCC(=O)CO1	
InChI=1S/C4H5NO3/c5-4-7-1-3(6)2-8-4/h5H,1-2H2	InChI=1S/C4H5NO3/c5-4-7-1-3(6)2-8-4/h5H,1-2H2
