20
gdb 11123	6.08712	0.93088	0.87938	3.1354	76.41	-0.244	-0.0176	0.2264	1348.8174	0.175835	-349.010843	-349.001948	-349.001004	-349.045093	31.91	
C	 0.1755750936	 1.5025829432	-0.1332756412	-0.380445
C	 0.0709097596	-0.0168102845	 0.032380905	-0.197926
C	-1.3666007503	-0.5165875741	 0.1008133066	 0.072273
C	-2.2414069726	-0.447206334	-1.1840062883	-0.253502
C	-2.7687205245	-1.892993324	-0.8982451091	-0.084627
C	-1.6144373159	-2.0494364223	 0.1474229064	-0.270884
C	-4.1304561253	-1.8988048776	-0.2631059311	 0.172399
O	-5.065006488	-2.5653326091	-0.6287893866	-0.258821
H	 1.2193167551	 1.8254894802	-0.1924875717	 0.115363
H	-0.3278984822	 1.8386644774	-1.0462988277	 0.119516
H	-0.2878292565	 2.0252987576	 0.7108636107	 0.115749
H	 0.5813628248	-0.5156245373	-0.8029426778	 0.091919
H	 0.6018569342	-0.3263406033	 0.9425027157	 0.09789
H	-1.8823406852	-0.0238057462	 0.9337169651	 0.072791
H	-2.9894959926	 0.3475832009	-1.2481359679	 0.107361
H	-1.6377670191	-0.4259201615	-2.0960150164	 0.109689
H	-2.7726368261	-2.5910705908	-1.7367708137	 0.089379
H	-0.7805726921	-2.6180937728	-0.2737637156	 0.109934
H	-1.8773336317	-2.4891871481	 1.113598067	 0.106752
H	-4.2300457352	-1.2127491137	 0.6136456206	 0.06519
53.9333	70.2228	111.7732	178.7019	227.8816	276.6026	309.6281	385.8236	405.8227	477.1657	674.5858	778.2764	812.6439	859.5633	879.8741	894.5325	944.9091	965.8814	989.7661	1007.9429	1027.5592	1092.8865	1109.6893	1144.0225	1187.9627	1214.9563	1226.9158	1260.3753	1274.1519	1279.4287	1298.3544	1322.6776	1346.4597	1390.5187	1411.9176	1436.527	1472.7001	1484.2107	1495.4638	1499.0189	1506.9892	1829.5537	2831.4595	3008.5148	3026.4218	3031.5287	3046.0124	3051.7299	3054.7251	3096.6357	3098.0708	3104.2791	3104.8849	3110.5759
CCC1CC(C1)C=O	CC[C@H]1C[C@@H](C1)C=O	
InChI=1S/C7H12O/c1-2-6-3-7(4-6)5-8/h5-7H,2-4H2,1H3	InChI=1S/C7H12O/c1-2-6-3-7(4-6)5-8/h5-7H,2-4H2,1H3/t6-,7-
