20
gdb 54790	3.46099	1.22751	1.11712	3.3161	78.94	-0.2403	0.0284	0.2687	1163.5546	0.173574	-403.175942	-403.167794	-403.16685	-403.209293	31.832	
N	-0.1073447548	 1.3581241451	 0.2083463539	-0.528202
C	 0.0693683612	 0.0317046438	-0.0845452264	 0.380801
O	 1.1755101237	-0.4301712106	-0.3012834571	-0.363146
C	-1.2202524408	-0.769985622	-0.0847016295	-0.09097
C	-1.8487045312	-1.0685860319	-1.4971839795	-0.02406
C	-0.8345404353	-2.2419004321	-1.601019051	-0.228368
C	-1.0771661683	-2.3225422439	-0.0653940346	-0.009839
C	-2.5535652855	-2.7596853292	-0.000179332	-0.222929
C	-3.1442468829	-1.7989786871	-1.0908541812	-0.218214
H	 0.6909731159	 1.9659750359	 0.1216776679	 0.257534
H	-1.0206059481	 1.7732364238	 0.2671167108	 0.255529
H	-1.9164222846	-0.341267318	 0.6463083134	 0.061624
H	-1.9243060601	-0.2928080993	-2.2605628494	 0.060013
H	-1.1280188501	-3.1051817911	-2.2063859813	 0.079736
H	 0.1759698779	-1.9199960405	-1.8405391513	 0.136866
H	-0.3649713506	-2.8067363399	 0.6011133474	 0.072083
H	-2.6792054267	-3.8151439212	-0.2574599691	 0.098379
H	-2.998580005	-2.5997244457	 0.9864100784	 0.093783
H	-3.9030939188	-1.1202567456	-0.6898506388	 0.090781
H	-3.5884242058	-2.3378358808	-1.9328444906	 0.098598
30.9114	165.3544	200.3847	212.6281	306.9562	340.8882	404.5016	476.2107	561.8766	635.9072	650.8643	724.6133	822.527	840.4481	844.6702	894.1069	903.846	908.9534	940.6329	946.5958	975.8444	1021.7019	1039.9225	1062.113	1083.6798	1096.6817	1133.006	1146.8206	1202.3713	1216.3788	1240.4946	1258.2795	1266.8252	1275.2437	1286.0269	1312.0102	1334.9614	1408.0237	1492.7598	1496.7982	1519.1939	1614.675	1782.4088	3026.1569	3046.3814	3054.6654	3057.9118	3083.8923	3102.9528	3103.2721	3130.4104	3171.5734	3598.7379	3734.9774
NC(=O)C1C2CC1CC2	NC(=O)[C@H]1[C@H]2C[C@@H]1CC2	
InChI=1S/C7H11NO/c8-7(9)6-4-1-2-5(6)3-4/h4-6H,1-3H2,(H2,8,9)	InChI=1S/C7H11NO/c8-7(9)6-4-1-2-5(6)3-4/h4-6H,1-3H2,(H2,8,9)/t4-,5+,6+
