18
gdb 71428	3.42195	1.28728	1.24293	1.5402	75.45	-0.2384	-0.0291	0.2092	1083.8487	0.14727	-401.902355	-401.894415	-401.893471	-401.934966	30.154	
C	-0.1284623734	 1.4424638627	-0.1396329678	-0.49815
C	 0.1087195926	-0.0348509262	-0.0799182357	 0.339587
C	 0.1825602124	-1.012316062	-1.2455248198	-0.290698
C	-0.1488325524	-2.0739284309	-0.1818593605	-0.028152
C	 1.0563197444	-2.1471500848	 0.7746043512	-0.079867
C	 2.4503514719	-2.4486398601	 0.290876505	 0.131307
O	 2.7296369415	-2.8535300875	-0.8099841985	-0.245677
C	 0.6538670354	-0.7191444314	 1.1377932612	-0.122579
N	-0.7742597442	-0.9584690643	 0.7223915936	-0.195801
H	 0.7623234653	 1.9660293398	-0.5045337572	 0.125588
H	-0.9602597947	 1.6762853393	-0.8119665554	 0.128285
H	-0.3738821862	 1.8378423951	 0.8507941416	 0.129942
H	-0.6692456844	-0.8586860206	-1.9142626473	 0.1094
H	 1.1018495123	-1.1170169915	-1.8245299792	 0.122098
H	-0.7330304182	-2.9600247338	-0.4166788105	 0.090731
H	 0.8347211038	-2.7964808007	 1.6322301556	 0.109892
H	 3.2467409043	-2.2644721696	 1.0505740302	 0.076643
H	 0.8899204096	-0.1793208735	 2.0481902134	 0.097453
76.1213	164.8896	176.2026	195.9096	296.2426	311.4896	403.6126	486.4001	598.5806	686.7929	698.2106	765.2563	792.8092	796.4773	877.6525	921.9385	938.2593	994.5239	1003.0838	1020.245	1031.6717	1060.4969	1083.116	1096.2214	1138.6458	1174.8228	1194.5078	1237.7028	1250.6381	1291.9249	1331.1565	1358.007	1399.5076	1422.6571	1428.5165	1483.3193	1493.605	1505.3074	1823.0761	2850.6785	3028.8303	3031.8313	3064.4369	3097.4476	3109.2167	3123.8613	3151.7163	3176.4283
CC12CC3C(C=O)C1N23	C[C@@]12C[C@H]3[C@@H](C=O)[C@@H]1N23	
InChI=1S/C7H9NO/c1-7-2-5-4(3-9)6(7)8(5)7/h3-6H,2H2,1H3	InChI=1S/C7H9NO/c1-7-2-5-4(3-9)6(7)8(5)7/h3-6H,2H2,1H3/t4-,5+,6+,7-,8?/m1/s1
