18
gdb 55828	3.68458	1.07424	0.99244	2.3315	72.16	-0.2562	0.0564	0.3126	1244.4485	0.148232	-439.096973	-439.088507	-439.087563	-439.131226	31.648	
N	-0.2945177376	 1.2427722839	 0.0298744676	-0.566677
C	-0.0913067914	-0.1044028775	 0.1477064265	 0.494262
O	 0.8582985436	-0.6254589603	 0.680627724	-0.394941
O	-1.1374020285	-0.7721342964	-0.4114574283	-0.271134
C	-1.1012232304	-2.1823511562	-0.2718524127	 0.160468
C	-1.88902673	-2.8907990315	 0.7770193755	-0.095477
C	-3.1998818701	-2.1514469891	 1.0689180102	-0.225156
C	-3.5830582656	-2.2384894187	-0.4423735178	-0.221211
C	-2.2688684928	-2.9757861222	-0.7308435861	-0.1283
H	 0.5071415834	 1.8259769832	 0.1979191492	 0.267945
H	-0.9875038163	 1.5708219673	-0.6212537825	 0.263639
H	-0.1193569645	-2.594255755	-0.4740108572	 0.119666
H	-1.4250866814	-3.6290289134	 1.4205954333	 0.091685
H	-3.8763585774	-2.7321111292	 1.6986936824	 0.104767
H	-3.0951069976	-1.1499868193	 1.4953999181	 0.105202
H	-4.4582078222	-2.8695144127	-0.6082612004	 0.104027
H	-3.7227398819	-1.2930287083	-0.9727948702	 0.102733
H	-2.1527985295	-3.7940172447	-1.4325033817	 0.088501
29.8126	82.3521	144.4113	232.463	246.7868	355.8224	415.8755	453.2539	508.5937	593.8826	652.1249	734.2264	760.2255	781.7237	793.9435	818.1475	908.7823	956.0263	958.7434	977.046	1020.9323	1032.136	1044.3453	1078.1113	1113.474	1135.4192	1156.2927	1199.7072	1229.0905	1249.9809	1268.8098	1300.2851	1333.059	1367.361	1448.2807	1478.0926	1502.383	1611.1537	1839.5426	3059.84	3067.0427	3106.8766	3124.9897	3170.1592	3178.1308	3191.8986	3612.8563	3742.0175
NC(=O)OC1C2CCC12	NC(=O)O[C@H]1[C@H]2CC[C@@H]12	
InChI=1S/C6H9NO2/c7-6(8)9-5-3-1-2-4(3)5/h3-5H,1-2H2,(H2,7,8)	InChI=1S/C6H9NO2/c7-6(8)9-5-3-1-2-4(3)5/h3-5H,1-2H2,(H2,7,8)/t3-,4+,5-
