15
gdb 34738	3.36566	1.61402	1.39853	3.7979	75.67	-0.2341	-0.0637	0.1704	925.1969	0.113498	-379.553942	-379.547205	-379.546261	-379.585022	26.605	
N	 0.5106762223	-1.0486481607	-0.0826049947	-0.321798
C	 0.289167233	 0.0856309656	-0.079643455	 0.303495
C	 0.0091284861	 1.517251467	-0.074350097	-0.114768
N	-0.3046154906	 2.1802913739	 1.2840945136	-0.160497
C	 0.917733735	 2.7737815625	 2.059919428	-0.01274
C	 2.3974956989	 2.4065309754	 1.8362923168	-0.269892
C	 2.3391138096	 2.0538274063	 0.3584589324	-0.108674
C	 1.1769801943	 2.5102106005	-0.1606853331	-0.00427
C	 0.4256192453	 3.4001563659	 0.8333049356	-0.072153
H	-0.865659306	 1.7240429364	-0.6988223647	 0.140559
H	 0.5591007461	 3.0686852035	 3.0415772012	 0.11559
H	 3.0227778972	 3.2516226376	 2.1563410156	 0.128968
H	 2.7418570444	 1.5251044126	 2.3877883616	 0.137233
H	 2.7847730774	 1.1263024622	 0.0127720359	 0.130391
H	-0.0613363932	 4.3538959213	 0.6679871438	 0.108555
117.1865	161.7618	286.2611	390.6324	402.7727	505.5738	539.3437	582.3199	696.2524	755.2509	771.8626	808.6557	848.3869	868.4984	899.6924	911.0415	942.4161	980.6826	1015.316	1040.1883	1057.5946	1076.0862	1145.4753	1175.4486	1209.2996	1243.2301	1273.5107	1314.237	1357.5809	1362.7899	1464.2079	1572.3453	2356.6124	3013.4552	3063.5409	3076.0929	3169.3871	3179.0997	3185.5642
N#CC1N2C3CC=C1C23	N#C[C@H]1N2[C@H]3C[CH][C]1[C@@H]23	
InChI=1S/C7H6N2/c8-3-6-4-1-2-5-7(4)9(5)6/h1,5-7H,2H2	InChI=1S/C7H6N2/c8-3-6-4-1-2-5-7(4)9(5)6/h1,5-7H,2H2/t5-,6+,7+,9?/m0/s1
