17
gdb 117751	2.23734	1.23152	1.09045	3.3823	65.64	-0.2482	-0.0625	0.1857	1186.6606	0.131781	-496.104231	-496.094309	-496.093365	-496.139756	34.83	
O	-2.2827150222	 0.2599417955	 1.9406907676	-0.416916
C	-2.7545074345	 0.1207183456	 0.590380489	-0.113202
C	-1.7097851897	-0.4961748459	-0.340700527	-0.248253
C	-1.2241573821	-1.8842698115	 0.1163372775	 0.171607
O	-0.6471322832	-1.9040196693	 1.4069833839	-0.478033
C	-2.3684498843	-2.9166993777	 0.0660451939	 0.121144
O	-3.3232110489	-2.8467350491	-0.6605266703	-0.237404
C	-0.1210071043	-2.3771226481	-0.8384540655	 0.130254
O	-0.1852141111	-2.3130034634	-2.0351228051	-0.239154
H	-1.6364552201	 0.9743525508	 1.9588064307	 0.295675
H	-3.6374721211	-0.5194453824	 0.6545437985	 0.145792
H	-3.0794600556	 1.0924758258	 0.1981017324	 0.111854
H	-2.1320794143	-0.6059667932	-1.3432020729	 0.150889
H	-0.8422198163	 0.170023806	-0.4207968391	 0.103587
H	-1.1623634751	-1.2835713282	 1.9491275912	 0.293571
H	-2.2267998093	-3.7412558257	 0.7979291356	 0.102197
H	 0.7556591521	-2.7906830492	-0.2954088004	 0.106392
59.8919	66.2488	92.289	180.6493	192.5128	242.4651	268.1522	307.8549	348.9533	386.209	397.7807	487.1171	581.3293	622.4423	678.5192	744.0766	864.965	882.0244	955.7551	967.676	1005.3957	1063.0157	1089.8875	1115.3083	1187.6503	1211.9186	1273.3079	1360.0068	1368.5882	1385.6657	1404.044	1409.6518	1441.2596	1457.7454	1512.4785	1804.9011	1853.1109	2903.0999	2914.2445	3029.3153	3041.0849	3108.9948	3118.0632	3649.0153	3810.3107
OCCC(O)(C=O)C=O	OCCC(O)(C=O)C=O	
InChI=1S/C5H8O4/c6-2-1-5(9,3-7)4-8/h3-4,6,9H,1-2H2	InChI=1S/C5H8O4/c6-2-1-5(9,3-7)4-8/h3-4,6,9H,1-2H2
