18
gdb 103820	3.69731	0.95905	0.87124	6.6325	69.37	-0.2468	0.0244	0.2713	1331.8625	0.147463	-476.238816	-476.229669	-476.228724	-476.272789	33.948	
N	 0.1332820231	 1.253056576	-0.0136972399	-0.576921
H	-0.461186394	 1.1947536584	-0.8357415164	 0.258112
H	 1.1358178598	 0.0045139697	 0.7586728691	 0.313915
H	 0.7790254737	 2.0237552105	-0.1722233712	 0.245406
C	-0.6934192865	 1.5182700758	 1.1520458606	 0.30209
C	-1.4100237702	 2.8488715715	 1.1631587349	-0.141909
O	-2.2343427858	 2.890888803	 0.0063057937	-0.424404
C	-1.3776460997	 0.3221793025	 1.7377235363	-0.308288
C	-0.2091909207	 0.9563105072	 2.4806361747	-0.210033
C	 1.0815883014	 0.1961725616	 2.6535502812	 0.416348
O	 1.5957737449	 0.0770521051	 3.7360084097	-0.347805
O	 1.6036677273	-0.3617576352	 1.551679406	-0.390413
H	-1.99912452	 2.9486780431	 2.0869829221	 0.096923
H	-0.6693102969	 3.6656157878	 1.1526705007	 0.091883
H	-2.6159871273	 3.7705882066	-0.065986925	 0.294871
H	-2.3690084247	 0.4459137937	 2.1572977472	 0.131166
H	-1.1954747406	-0.6367908488	 1.2663856521	 0.136167
H	-0.4536601137	 1.5255581114	 3.3696059742	 0.112892
87.5423	107.677	130.8387	216.8013	244.9779	296.9675	315.3069	340.3266	383.3508	416.4412	445.1061	595.8132	652.547	720.2632	773.206	827.3175	889.3794	915.7843	939.6794	962.9829	987.7259	1012.0243	1064.1355	1073.5024	1075.0311	1118.2625	1208.688	1224.0877	1233.6789	1278.4806	1301.8112	1349.1054	1401.4094	1460.3841	1483.135	1483.6975	1517.4942	1658.0053	1848.4978	2965.529	3009.0521	3144.0449	3187.8682	3234.8751	3274.4186	3479.7396	3557.7601	3833.8838
[NH3+]C1(CO)CC1C([O-])=O	N[C@@]1(CO)C[C@H]1C(=O)O	
InChI=1S/C5H9NO3/c6-5(2-7)1-3(5)4(8)9/h3,7H,1-2,6H2,(H,8,9)	InChI=1S/C5H9NO3/c6-5(2-7)1-3(5)4(8)9/h3,7H,1-2,6H2,(H,8,9)/t3-,5+/m0/s1
