22
gdb 87679	3.45339	1.00463	0.93413	2.0233	83.25	-0.2351	0.0714	0.3065	1377.0194	0.192162	-404.320835	-404.311068	-404.310124	-404.355183	37.695	
C	 0.4287251954	 1.4072391377	-0.4885386814	-0.391751
C	 0.2529891685	-0.0423438712	-0.1074257531	-0.078203
N	 1.4614564854	-0.7545278834	 0.3741430982	-0.384717
C	 0.3375115598	-0.5171390962	 1.2881878354	 0.364089
C	 0.5179790999	 0.2514232596	 2.6016370499	-0.322934
C	 0.0348648452	-1.0144473586	 3.3631391999	 0.420367
C	 1.16203151	-1.8159689753	 4.003815852	-0.450638
O	-0.9719729992	-0.6918730854	 4.303565515	-0.478781
C	-0.4628650556	-1.6130431876	 2.0008937587	-0.37474
H	 1.1105886729	 1.9067715696	 0.2045065948	 0.127003
H	 0.8464832163	 1.4990589057	-1.4969375396	 0.11819
H	-0.5315106744	 1.9347129779	-0.4711224104	 0.114085
H	-0.4149498961	-0.6078927143	-0.7577844502	 0.076796
H	 1.4460815979	-1.7192353901	 0.0493985958	 0.222218
H	 1.5245925592	 0.6102653706	 2.8267471374	 0.105347
H	-0.2016116341	 1.0662534187	 2.7188284213	 0.11033
H	 1.5817498864	-1.2671888001	 4.8526508999	 0.124564
H	 0.7950700658	-2.7855447806	 4.3650921861	 0.10209
H	 1.9648630402	-2.0106693559	 3.2862103167	 0.1298
H	-1.2186088985	-1.4990645795	 4.7682491891	 0.272706
H	-1.5442489532	-1.4873777783	 1.8940146022	 0.105408
H	-0.1930237418	-2.6520039435	 1.7826200624	 0.088772
48.1992	141.8242	181.3825	190.2927	269.3291	276.2764	297.436	335.6535	357.6921	380.9659	442.6575	452.0502	484.9627	546.9284	701.6637	763.7075	841.417	858.9315	874.5382	905.4619	942.3875	948.3617	971.9032	1022.5625	1028.8943	1056.023	1076.179	1109.1043	1130.0336	1167.0938	1173.4933	1216.7745	1237.0912	1244.4979	1281.5626	1291.0702	1354.2565	1377.7475	1406.6955	1410.9243	1456.6959	1467.331	1480.8807	1490.0886	1491.8908	1496.726	1508.5604	3017.9385	3031.9547	3035.9428	3061.474	3088.0708	3093.3497	3095.5073	3096.9598	3113.6053	3121.3156	3123.2687	3481.3225	3798.5632
CC1NC11CC(C)(O)C1	C[C@H]1N[C@]21C[C@@](C)(O)C2	
InChI=1S/C7H13NO/c1-5-7(8-5)3-6(2,9)4-7/h5,8-9H,3-4H2,1-2H3	InChI=1S/C7H13NO/c1-5-7(8-5)3-6(2,9)4-7/h5,8-9H,3-4H2,1-2H3/t5-,6-,7-/m1/s1
