23
gdb 111640	2.42108	1.31302	1.21468	0.1909	89.93	-0.2325	0.0357	0.2681	1219.0996	0.207793	-351.163855	-351.155053	-351.154109	-351.197348	34.344	
C	 0.1361124275	 1.3854036976	 0.2972330779	-0.375362
C	-0.1089190671	-0.1032098012	 0.0167813533	-0.203058
C	 0.6108233275	-0.5805390538	-1.229851217	 0.00275
C	 2.0198828237	-1.1392828947	-1.2243419355	-0.053488
C	 2.8045445854	-1.3575185595	 0.0611832226	-0.278154
C	 2.2731244392	-2.4436946479	 0.9560361803	-0.047098
C	 1.2394238252	-3.2294461843	 0.6636213504	-0.046269
C	 0.4414843082	-3.1570331544	-0.6090777058	-0.273282
C	 0.8456248573	-2.0392757428	-1.5587949376	-0.07661
H	 1.2003299049	 1.5897678567	 0.4550152903	 0.117068
H	-0.1952340064	 2.0055741777	-0.5434128378	 0.110664
H	-0.4056943118	 1.716876794	 1.1888326283	 0.10758
H	 0.1929382777	-0.6952796543	 0.8856751577	 0.109492
H	-1.1875834519	-0.2713740779	-0.1062290685	 0.091841
H	 0.3854792258	 0.0361177324	-2.0988398615	 0.072185
H	 2.6404894523	-0.8347432194	-2.0619305762	 0.076319
H	 3.8426681731	-1.6067811454	-0.2011808595	 0.108287
H	 2.8795605226	-0.4206482898	 0.6332863516	 0.106805
H	 2.7974552829	-2.5795031307	 1.899482916	 0.080494
H	 0.9335688415	-3.9959416176	 1.3723997154	 0.080522
H	 0.5449554339	-4.1173687232	-1.1340148487	 0.107262
H	-0.6288663127	-3.0864158691	-0.364028861	 0.105364
H	 0.7270891013	-2.2991054025	-2.6066803345	 0.076691
82.4998	115.5566	131.627	187.2528	251.1387	284.7854	384.7198	453.5049	475.2899	551.6096	559.9245	681.6703	736.6393	762.4878	797.6473	812.8908	888.792	908.8012	942.9517	954.6237	967.1143	989.9905	1011.3559	1017.5032	1062.4347	1073.4102	1117.0491	1121.6371	1152.0995	1161.2612	1204.8262	1234.0577	1242.5446	1259.3219	1296.8896	1337.9739	1354.9125	1364.1325	1372.6327	1401.2856	1411.9718	1424.1195	1454.7348	1475.0654	1479.8766	1493.5928	1498.268	1508.6754	1735.9981	2992.8849	2993.7045	3012.6923	3013.2187	3015.3878	3029.2456	3075.6975	3097.3443	3102.0659	3110.9068	3133.823	3136.4141	3147.3316	3160.5001
CCC1C2CC=CCC12	CC[C@H]1[C@H]2CC=CC[C@@H]12	
InChI=1S/C9H14/c1-2-7-8-5-3-4-6-9(7)8/h3-4,7-9H,2,5-6H2,1H3	InChI=1S/C9H14/c1-2-7-8-5-3-4-6-9(7)8/h3-4,7-9H,2,5-6H2,1H3/t7-,8+,9-
