12
gdb 21532	3.71418	1.97146	1.29017	5.604	66.12	-0.2167	0.0028	0.2195	860.6454	0.084703	-373.666417	-373.659338	-373.658393	-373.697488	26.42	
N	 0.0708611604	 1.394555347	 0.1618466847	-0.61925
C	 0.0000467269	 0.0227327743	 0.0384939874	 0.24854
C	-1.0903433172	-0.8390537704	 0.0014840786	 0.178654
N	-0.6117092654	-2.1288507631	-0.043267585	-0.263083
N	 0.6765293609	-2.1165533522	-0.0431785397	-0.129134
N	 1.0657554544	-0.8041355456	 0.0116955524	-0.228988
C	-2.4515325367	-0.4737338108	 0.0046051402	 0.235868
C	-3.6003274697	-0.1097110529	 0.0032580633	-0.426902
H	 0.7701587023	 1.8466008642	-0.4122713742	 0.260209
H	-0.8347554323	 1.8303803832	 0.0426297351	 0.271028
H	 2.0461294914	-0.5789006096	 0.0608162194	 0.279845
H	-4.6193865548	 0.1881700858	 0.0086042377	 0.193214
132.519	170.7522	249.9422	297.1091	348.9243	491.4191	505.2555	534.0779	535.6144	613.6598	658.8483	690.4022	710.3476	748.5524	773.3298	1000.3709	1007.4483	1099.4643	1211.1451	1298.7192	1307.9707	1417.2525	1523.418	1619.5042	1662.9912	2230.193	3502.57	3542.3418	3635.5613	3660.5391
NC1=C(N=NN1)C#C	Nc1c(nn[nH]1)C#C	
InChI=1S/C4H4N4/c1-2-3-4(5)7-8-6-3/h1H,(H3,5,6,7,8)	InChI=1S/C4H4N4/c1-2-3-4(5)7-8-6-3/h1H,(H3,5,6,7,8)
