25
gdb 99961	2.25397	1.19386	1.15769	2.2494	84.17	-0.2527	0.0615	0.3142	1294.674	0.225261	-426.631141	-426.619569	-426.618624	-426.666623	44.504	
C	-0.0980165582	 1.5704516348	 0.0980832052	-0.425795
C	-0.0201560765	 0.0327778603	 0.0249822934	 0.244645
C	 0.7374945432	-0.4891025859	 1.2647026666	-0.41885
C	-1.4552093188	-0.5367226607	 0.0759836807	-0.415728
C	 0.7160571838	-0.452993467	-1.2736130648	 0.386721
C	 2.2042499659	-0.0529858936	-1.3218757512	-0.443732
O	 0.6280310307	-1.8799271715	-1.272827053	-0.486029
C	 0.0321053544	 0.0510475775	-2.5627019	-0.135362
O	 0.620236364	-0.6768129792	-3.6453996461	-0.434525
H	 0.8908233396	 2.0380792337	 0.0936945564	 0.113256
H	-0.678506462	 1.9960402944	-0.7269611727	 0.107572
H	-0.5942857153	 1.8685047352	 1.0278541086	 0.111165
H	 0.1638978585	-0.2701687357	 2.1714179317	 0.101393
H	 0.8835688901	-1.5701237504	 1.2039098677	 0.133814
H	 1.716789287	-0.0153641968	 1.3764993668	 0.107313
H	-2.1019093363	-0.1084116198	-0.6962987178	 0.09907
H	-1.4480329649	-1.6207985809	-0.0470048283	 0.133592
H	-1.9123082355	-0.2980094134	 1.0420192753	 0.101801
H	 2.7623823116	-0.5601735919	-0.5337947642	 0.122239
H	 2.6256159819	-0.3543865272	-2.284389221	 0.126466
H	 2.349461421	 1.0264589188	-1.2193430754	 0.106447
H	 0.8048575238	-2.146612018	-2.1843124132	 0.281771
H	-1.0452665545	-0.1412059126	-2.5218778544	 0.094259
H	 0.1929723092	 1.1290560205	-2.6941035878	 0.094202
H	 0.0487969575	-0.5964589807	-4.4132056127	 0.294296
54.9095	132.8406	200.0754	210.46	220.9345	239.9183	249.3924	272.8945	292.5137	328.3974	336.7056	363.695	377.7271	381.4113	412.9298	455.6798	491.3893	501.0332	557.2186	715.918	813.9272	901.0029	927.9554	934.8248	938.5263	960.1741	960.9252	1028.8047	1040.5393	1059.4225	1122.4601	1146.5161	1184.0859	1225.8504	1244.5175	1256.4662	1275.777	1293.8004	1386.5632	1394.796	1398.0475	1401.5982	1430.6615	1440.7151	1480.4309	1488.5493	1491.3168	1495.1832	1503.4938	1509.7748	1510.396	1516.728	1528.5206	3011.6422	3031.7266	3037.3687	3043.5886	3050.9517	3067.1729	3092.7385	3096.7725	3102.7909	3107.9121	3118.4709	3127.9092	3140.4717	3143.4399	3766.1836	3850.4179
CC(C)(C)C(C)(O)CO	CC(C)(C)[C@@](C)(O)CO	
InChI=1S/C7H16O2/c1-6(2,3)7(4,9)5-8/h8-9H,5H2,1-4H3	InChI=1S/C7H16O2/c1-6(2,3)7(4,9)5-8/h8-9H,5H2,1-4H3/t7-/m0/s1
