15
gdb 48075	2.77902	1.45759	1.05197	0.6531	68.23	-0.2499	-0.0984	0.1514	1088.6115	0.110623	-457.731272	-457.723225	-457.722281	-457.764616	28.988	
O	-0.6807168627	 1.3140154315	 0.8060454053	-0.22979
C	 0.2235599461	 0.9956972159	 0.0789460896	 0.086484
C	 1.2281020699	 1.9742410081	-0.5443169119	 0.181141
O	 1.9975205883	 1.5221182941	-1.3720966707	-0.311687
C	 1.1873446359	 3.3796816018	-0.1391873022	 0.155498
C	 1.7847201683	 4.4642775009	-1.041159652	-0.33357
C	 2.3921170291	 4.2637940024	 0.2853270124	 0.088775
O	 1.6563079295	 4.8844260993	 1.3191305646	-0.273842
C	 0.4911770206	 4.0492154648	 1.0446375724	-0.149106
H	 0.4048827099	-0.0483255644	-0.2521623828	 0.115527
H	 2.3304693099	 4.0493147509	-1.8816833922	 0.151792
H	 1.1976321717	 5.3581379544	-1.2305281172	 0.130814
H	 3.4193047387	 3.9743489957	 0.4775521125	 0.131131
H	-0.4035364882	 4.6414639509	 0.8277068193	 0.119334
H	 0.3035313229	 3.3795870637	 1.884725353	 0.137499
55.2914	124.2725	158.5934	179.9783	264.3889	328.1452	433.8478	474.6924	549.2962	604.6782	650.4797	741.7091	776.2188	874.1244	929.3853	965.3937	981.1817	1013.1513	1027.1595	1062.5977	1093.8854	1096.3661	1147.5968	1164.9164	1229.7986	1304.6655	1337.8513	1367.1956	1407.2342	1463.3922	1517.7223	1754.838	1821.4677	2929.8148	3054.8935	3124.5823	3130.8981	3185.6611	3230.3136
O=CC(=O)C12CC1OC2	O=CC(=O)[C@]12C[C@H]1OC2	
InChI=1S/C6H6O3/c7-2-4(8)6-1-5(6)9-3-6/h2,5H,1,3H2	InChI=1S/C6H6O3/c7-2-4(8)6-1-5(6)9-3-6/h2,5H,1,3H2/t5-,6-/m1/s1
