14
gdb 129254	3.36052	1.80963	1.18504	4.5309	71.17	-0.2586	-0.0222	0.2364	955.2363	0.104767	-432.896034	-432.889654	-432.88871	-432.926943	24.581	
N	-0.1302335506	 1.2977192087	 0.0098287046	-0.544415
C	-0.0540779416	 0.0461269167	 0.0029548526	 0.501475
O	 1.0746330118	-0.731028649	-0.0062618812	-0.265638
C	 0.7524510849	-2.1427150452	-0.0121501861	-0.209551
C	-0.739990909	-2.1509910873	-0.0053669346	 0.385978
C	-1.8849921027	-2.906300543	-0.0040829361	-0.401832
C	-2.9232310694	-1.9302122362	 0.0057442203	 0.031307
N	-2.4677128011	-0.6805085021	 0.0101927742	-0.255225
N	-1.1324885522	-0.8507702894	 0.0032117861	-0.029296
H	 0.7986368459	 1.714898003	 0.0077525238	 0.240137
H	 1.1929157597	-2.5960461504	-0.9064595812	 0.149457
H	 1.2010579358	-2.6053254399	 0.8733164758	 0.149457
H	-1.983708413	-3.9788830025	-0.0092258855	 0.120546
H	-3.9897993385	-2.1040550235	 0.0097025773	 0.1276
147.1543	178.1119	244.1675	318.0871	554.8402	630.2438	649.5231	653.7604	672.3836	717.7648	787.0391	798.8375	831.3727	904.0518	952.4136	963.8973	1033.3145	1046.7407	1057.1649	1125.6034	1191.0041	1198.757	1237.8425	1332.1	1342.5612	1395.2671	1441.9917	1472.6193	1510.0568	1609.5391	1813.0281	3043.4789	3080.8868	3245.3643	3279.3738	3526.9561
N=C1OCC2=CC=NN12	[NH][C]1OCc2ccnn12	
InChI=1S/C5H5N3O/c6-5-8-4(3-9-5)1-2-7-8/h1-2,6H,3H2	InChI=1S/C5H5N3O/c6-5-8-4(3-9-5)1-2-7-8/h1-2,6H,3H2
