23
gdb 57356	2.31464	1.43123	1.32218	1.5325	80.56	-0.2488	0.0714	0.3203	1153.3137	0.203429	-425.424304	-425.4142	-425.413256	-425.458401	39.267	
C	-0.1639382683	 1.4831569069	-0.0269427401	-0.435864
C	 0.0540917323	-0.0391631552	 0.0123424189	 0.309836
C	 0.6971953585	-0.4713701549	 1.3305408682	-0.413278
O	-1.2186397543	-0.6871432242	-0.0348785916	-0.475857
C	 0.8714621479	-0.5178026381	-1.2160900549	 0.429042
C	 2.2134210879	 0.175379747	-1.4097171169	-0.460285
C	 0.9025161818	-2.0544461431	-1.4371806254	-0.324796
C	 0.1583080136	-1.7514188117	-2.747245425	-0.081256
O	 0.0372798405	-0.3492955379	-2.414207108	-0.348541
H	 0.7561553643	 2.0414979479	 0.1673991943	 0.110742
H	-0.551532775	 1.7896194854	-1.0036490933	 0.126683
H	-0.8982394483	 1.7542940534	 0.7361309887	 0.119695
H	 0.0262572149	-0.2217228915	 2.1571694213	 0.126521
H	 0.8674950489	-1.5513380051	 1.3523753307	 0.119973
H	 1.6500916118	 0.0371394009	 1.4975810215	 0.113944
H	-1.5580985385	-0.5063078711	-0.9216027782	 0.281111
H	 2.8679705202	 0.0185052004	-0.5464021323	 0.119829
H	 2.718195986	-0.2265017227	-2.2930518057	 0.117589
H	 2.0844025411	 1.2502680047	-1.5576584631	 0.129599
H	 1.8945181317	-2.4985718302	-1.5326815028	 0.101498
H	 0.308099539	-2.6109428682	-0.7140296274	 0.125877
H	 0.7416972067	-1.8957493371	-3.6648732386	 0.102918
H	-0.8208902828	-2.2267718556	-2.8718890802	 0.105019
93.0709	101.9386	195.6728	224.4199	241.4712	266.6702	279.964	323.6797	343.7337	356.9868	394.4796	419.2952	506.6757	515.328	541.6611	612.3496	779.5455	815.6704	870.4345	883.8961	920.2532	933.511	962.2393	971.2829	998.3397	1011.0165	1021.076	1108.6182	1151.0628	1166.5597	1180.9436	1194.5565	1219.4284	1248.2972	1273.8499	1299.1205	1349.513	1383.8805	1396.3549	1406.9905	1421.1673	1477.2487	1479.274	1485.8934	1490.5181	1498.324	1506.3179	1511.4496	1528.0377	3019.7134	3040.0798	3042.7473	3049.3708	3063.7676	3087.0037	3109.5708	3113.2659	3117.4796	3120.451	3127.1593	3127.9145	3154.0675	3760.3947
CC(C)(O)C1(C)CCO1	CC(C)(O)[C@@]1(C)CCO1	
InChI=1S/C7H14O2/c1-6(2,8)7(3)4-5-9-7/h8H,4-5H2,1-3H3	InChI=1S/C7H14O2/c1-6(2,8)7(3)4-5-9-7/h8H,4-5H2,1-3H3/t7-/m1/s1
