21
gdb 108757	2.59984	1.15887	0.89634	4.2423	87.2	-0.2289	-0.0364	0.1925	1368.4535	0.182124	-387.14532	-387.135832	-387.134888	-387.180298	35.055	
C	-0.3264760539	 1.4441631655	-0.0898702319	-0.379771
C	 0.1562349472	-0.0130676934	 0.0358232686	-0.291989
C	 0.8428421401	-0.5222784608	-1.1970880843	 0.353444
C	 2.1227384088	-0.9208778423	-1.2771857819	-0.314813
C	 2.4742941395	-1.3394958597	-2.646294527	 0.391139
O	 3.5496884645	-1.726451779	-3.0450389679	-0.339644
C	 1.2009171895	-1.1907380822	-3.4923535659	-0.354471
C	 0.1251991742	-0.6252841235	-2.5396128199	-0.080997
C	-1.1527155112	-1.4781146265	-2.4789481293	-0.403555
H	 0.5099667436	 2.1164215354	-0.3037395918	 0.128225
H	-1.0632501669	 1.5584070202	-0.8904808384	 0.124876
H	-0.7949172825	 1.7712019483	 0.8426945301	 0.122307
H	 0.8366825498	-0.1011577641	 0.8888756834	 0.1122
H	-0.7082632122	-0.6524213487	 0.2588213147	 0.117339
H	 2.8390146042	-0.9387464831	-0.4642986962	 0.104494
H	 1.4025506352	-0.5451267332	-4.3518948376	 0.128125
H	 0.924087334	-2.1713896921	-3.8937744294	 0.127807
H	-0.1643132948	 0.3850361339	-2.8582922794	 0.090987
H	-0.9257952788	-2.4963372683	-2.1444655811	 0.123258
H	-1.8945177401	-1.0547513653	-1.7946935525	 0.117861
H	-1.6143962703	-1.5435088013	-3.4688174923	 0.123177
54.88	57.2735	132.561	204.1238	230.7875	248.0885	279.5687	326.8708	379.5077	513.1674	537.416	561.0528	607.6124	659.1203	768.1209	800.9962	854.0346	886.8826	918.5976	926.4209	958.1264	1036.2826	1054.9813	1072.7548	1089.3448	1126.8666	1167.3972	1187.81	1210.9055	1256.751	1272.1122	1299.4637	1337.5551	1346.8201	1357.1058	1407.8653	1408.1685	1454.7602	1479.406	1497.1464	1498.7141	1500.7691	1508.3986	1670.6325	1809.5101	3011.4721	3022.4807	3033.054	3042.0546	3056.6679	3072.4914	3098.6077	3104.2051	3107.4791	3115.2345	3115.7341	3206.9403
CCC1=CC(=O)CC1C	CCC1=CC(=O)C[C@H]1C	
InChI=1S/C8H12O/c1-3-7-5-8(9)4-6(7)2/h5-6H,3-4H2,1-2H3	InChI=1S/C8H12O/c1-3-7-5-8(9)4-6(7)2/h5-6H,3-4H2,1-2H3/t6-/m1/s1
