20
gdb 82224	2.41533	2.00628	1.47127	1.489	76.65	-0.235	0.0683	0.3033	970.5039	0.174033	-403.112704	-403.105482	-403.104538	-403.143912	29.998	
C	-0.0667693733	 1.5665320685	-0.0239525744	-0.406011
C	 0.0515301933	 0.0403862062	 0.0197359917	 0.00859
C	 0.7223515319	-0.5531105634	-1.2217427969	-0.026521
N	 2.0921968836	-0.1050020402	-1.548107453	-0.337725
C	 1.8779000474	-1.4588002895	-0.9955303787	-0.050547
C	 2.2042793922	-1.6532102398	 0.4816171874	 0.088401
C	 2.3101741469	-0.3095351156	 1.2245858614	-0.256476
C	 0.7759120189	-0.4733406992	 1.2808487083	 0.079004
O	 0.9383745291	-1.9180643955	 1.1668400733	-0.304799
H	 0.9175115079	 2.0311310002	-0.1281145876	 0.134808
H	-0.6770043091	 1.8874575881	-0.8745264585	 0.111886
H	-0.5373884527	 1.9523713543	 0.887035136	 0.109815
H	-0.9559122101	-0.3940719685	 0.0615380003	 0.080431
H	 0.0620580299	-0.7627547474	-2.0596450484	 0.084519
H	 2.2414893957	-0.1613378383	-2.5522531596	 0.23021
H	 2.0171877155	-2.3143432187	-1.650253287	 0.08391
H	 2.9429816026	-2.4361834424	 0.6677899899	 0.070484
H	 2.7591808214	-0.4377883435	 2.2105161199	 0.101624
H	 2.7408013819	 0.5387204119	 0.6969166562	 0.128151
H	 0.2457332473	-0.1896284272	 2.1950355996	 0.070244
162.4866	205.0434	225.404	334.8394	368.3039	427.5118	466.6754	513.9489	616.6368	651.2086	735.9751	795.9995	846.7606	881.5997	894.7004	911.2232	923.2642	945.6409	951.6987	960.9537	1013.5827	1047.8946	1064.0721	1095.7103	1104.2518	1129.0707	1146.0366	1167.7734	1188.9817	1234.3092	1257.1741	1259.544	1301.0887	1315.7088	1338.0867	1347.5891	1375.7608	1396.2588	1409.8548	1444.8163	1482.8764	1493.9273	1503.5137	3021.5748	3033.4167	3061.7674	3080.3469	3094.9651	3095.8173	3117.1547	3131.5106	3149.7083	3166.4683	3501.1354
CC1C2NC2C2CC1O2	C[C@H]1[C@H]2N[C@H]2[C@H]2C[C@@H]1O2	
InChI=1S/C7H11NO/c1-3-4-2-5(9-4)7-6(3)8-7/h3-8H,2H2,1H3	InChI=1S/C7H11NO/c1-3-4-2-5(9-4)7-6(3)8-7/h3-8H,2H2,1H3/t3-,4+,5-,6-,7+/m1/s1
