15
gdb 20367	6.09551	1.39901	1.25037	2.9905	67.12	-0.2564	-0.0052	0.2512	958.1348	0.120382	-362.645686	-362.639118	-362.638174	-362.676846	24.826	
C	-0.1906627537	 1.3585794323	-0.2705279295	-0.267936
C	 1.216611098	 1.0844623792	 0.1719894984	-0.267941
C	 0.222272398	-0.0565753909	 0.0835055639	-0.090132
C	-0.2877341032	-0.6996396366	 1.3070207008	 0.412944
N	-0.5389793366	-1.9906122808	 1.3061609734	-0.21834
O	-1.0006835248	-2.2931463149	 2.5870352511	-0.165815
C	-1.0114637116	-1.1708133149	 3.3162994042	 0.086082
C	-0.5754661142	-0.1189476669	 2.5821559841	-0.352839
H	-0.8543787001	 1.8728773095	 0.4158020323	 0.120278
H	-0.373871763	 1.5769430341	-1.3163716744	 0.12348
H	 2.0091189689	 1.1127724509	-0.5670420226	 0.12348
H	 1.517131211	 1.410946784	 1.1615178527	 0.120278
H	 0.3459847344	-0.7505543719	-0.7398042682	 0.107463
H	-1.3520227162	-1.2739453969	 4.3351870484	 0.149513
H	-0.4734348767	 0.9070738539	 2.8936655554	 0.119484
74.2931	178.259	183.4063	406.5042	411.6471	610.915	619.3768	722.3684	787.2978	795.2751	832.2934	869.2441	897.7037	914.0113	916.7267	947.7725	999.3376	1048.9684	1064.079	1080.2086	1102.7734	1134.7303	1163.4162	1201.2854	1219.1854	1299.248	1373.3169	1447.9671	1472.6164	1497.4919	1506.5122	1612.8712	3136.9112	3140.7203	3181.0038	3216.7611	3232.3653	3258.6962	3284.0883
C1CC1C1=NOC=C1	C1CC1c1nocc1	
InChI=1S/C6H7NO/c1-2-5(1)6-3-4-8-7-6/h3-5H,1-2H2	InChI=1S/C6H7NO/c1-2-5(1)6-3-4-8-7-6/h3-5H,1-2H2
