19
gdb 106346	4.70379	0.94673	0.91535	2.756	77.41	-0.2472	-0.0391	0.2082	1336.6604	0.156466	-422.974715	-422.965574	-422.96463	-423.009537	33.309	
C	-0.1700205078	 1.5652155146	 0.0114295291	-0.383492
C	-0.0965593513	 0.0345975029	 0.0182584077	-0.314826
C	-1.4437470199	-0.6178613731	-0.0684328152	 0.420407
C	-2.5928239662	-0.4180200532	-1.0980392914	-0.291269
C	-3.1132582181	-1.2576067481	 0.1047118214	 0.315838
C	-1.8285217484	-2.1182419505	 0.0440078502	-0.301361
O	-2.4318520798	-0.3226276304	 1.0207653487	-0.376701
C	-4.5219704616	-1.6442749011	 0.4182826053	 0.035893
O	-5.0849435191	-2.5776582304	-0.0938949359	-0.249243
H	 0.8260400805	 2.0021722747	 0.1235851933	 0.11674
H	-0.5962654948	 1.9377782591	-0.9255289004	 0.119398
H	-0.7976140334	 1.9234044954	 0.8318205258	 0.141134
H	 0.510737935	-0.3271915178	-0.8209037212	 0.109688
H	 0.3920012879	-0.3179507951	 0.9347165798	 0.116412
H	-2.9995509164	 0.5917404205	-1.1578267467	 0.114559
H	-2.5153519575	-0.9148847177	-2.0674325365	 0.109203
H	-1.6832090246	-2.7575262874	-0.8288056366	 0.108633
H	-1.5563114564	-2.5993405702	 0.9841427541	 0.112491
H	-5.0170193081	-0.9816092322	 1.1622655584	 0.096497
35.592	82.2337	126.4888	162.602	207.0303	243.3784	337.8311	405.9113	451.7486	523.9167	594.7701	630.3296	679.6776	725.3266	794.0348	799.5069	924.8863	941.8763	975.4605	979.6166	996.0848	1040.1183	1076.1352	1097.2888	1110.3946	1134.1365	1158.4107	1164.4241	1181.6386	1250.6946	1300.3957	1332.9395	1394.5158	1405.0476	1411.9526	1465.0874	1470.0446	1497.3102	1507.0961	1518.2618	1824.4355	2892.6616	3029.2115	3043.0835	3065.2104	3068.5538	3076.78	3111.2729	3124.372	3152.9086	3158.0927
CCC12CC(C1)(O2)C=O	CC[C@@]12C[C@@](C1)(O2)C=O	
InChI=1S/C7H10O2/c1-2-6-3-7(4-6,5-8)9-6/h5H,2-4H2,1H3	InChI=1S/C7H10O2/c1-2-6-3-7(4-6,5-8)9-6/h5H,2-4H2,1H3/t6-,7+
