18
gdb 87369	2.0779	1.58512	1.11036	3.3598	73.76	-0.2422	0.031	0.2732	1142.3892	0.146339	-439.089855	-439.080747	-439.079803	-439.123623	33.776	
C	-0.0864534044	 1.5665960322	 0.0066085249	-0.400918
C	 0.0416172047	 0.0533160999	 0.0411181909	 0.001715
N	 1.1459861399	-0.5076045239	-0.7701224454	-0.370923
C	 1.7700572945	-1.1592652703	 0.2736555037	 0.404039
O	 2.7220076019	-1.8918995748	 0.3407808105	-0.378213
C	 0.7521414463	-0.5928253465	 1.2471525722	 0.144887
C	 0.969369899	-0.0779967963	 2.6464883892	-0.39013
C	 0.1330961301	-1.3072608728	 2.404155241	 0.038929
O	-1.2591469853	-1.2170407138	 2.4826819183	-0.421962
H	 0.869557507	 2.0437263644	 0.2405227039	 0.124538
H	-0.411118174	 1.9089675931	-0.9816781814	 0.117681
H	-0.8340023301	 1.8984171291	 0.7345375496	 0.125939
H	-0.9214239779	-0.4239513965	-0.1717054809	 0.102138
H	 1.2232004861	-0.6528817495	-1.7659640087	 0.246613
H	 1.9590840613	-0.1940217773	 3.076107411	 0.133447
H	 0.4395812063	 0.8282812005	 2.9226158908	 0.120658
H	 0.5594799799	-2.2750872489	 2.6675612656	 0.108632
H	-1.5061555552	-1.2166905085	 3.4136362147	 0.292928
93.7394	114.3877	149.0324	182.8288	241.2335	266.5097	297.6771	358.2	404.9654	431.8156	528.1442	578.0258	624.4845	721.3409	741.0153	839.2855	853.0049	890.7635	940.6681	1004.1004	1041.1132	1065.8677	1072.0695	1100.5957	1127.9386	1154.7501	1174.6985	1194.9998	1265.0871	1297.9939	1333.1061	1379.3622	1393.8674	1409.83	1423.1654	1486.8382	1492.8968	1498.1578	1888.2431	3035.0319	3047.2533	3102.4365	3107.8939	3119.39	3125.8297	3219.3551	3611.7611	3804.7526
CC1NC(=O)C11CC1O	C[C@H]1NC(=O)[C@]21C[C@H]2O	
InChI=1S/C6H9NO2/c1-3-6(2-4(6)8)5(9)7-3/h3-4,8H,2H2,1H3,(H,7,9)	InChI=1S/C6H9NO2/c1-3-6(2-4(6)8)5(9)7-3/h3-4,8H,2H2,1H3,(H,7,9)/t3-,4-,6+/m1/s1
