18
gdb 87505	2.99495	1.39234	1.13599	0.822	72.63	-0.2443	0.0695	0.3138	1093.7244	0.147541	-438.974768	-438.966775	-438.965831	-439.007048	31.698	
O	-0.0358447649	 1.4068870943	 0.158339196	-0.425181
C	-0.0161569353	 0.0109020158	 0.0912748789	-0.017108
C	-0.4354995292	-0.732323817	 1.3474672721	-0.439704
C	-1.2957746033	-0.7317028254	 0.113975946	 0.4488
C	-2.7273845838	-0.2510955918	-0.1645249968	-0.181936
N	-2.4477133565	-0.602125582	-1.6191809498	-0.327601
C	-1.9155193941	-1.7844928881	-0.8196372568	-0.19168
C	-3.2070946303	-1.7258137701	 0.0670061638	 0.170659
O	-3.2770106374	-2.3042935668	 1.3306663682	-0.43748
H	-0.3981541333	 1.7227583835	-0.6772413378	 0.295279
H	 0.8143405282	-0.4155587224	-0.4724061133	 0.090678
H	 0.124661244	-1.6216238899	 1.6204067874	 0.121678
H	-0.7469161795	-0.1114160606	 2.1821455191	 0.133223
H	-3.1958797859	 0.6895017954	 0.1272801159	 0.08897
H	-3.3284820582	-0.8768622901	-2.0706998121	 0.209187
H	-1.4345960801	-2.6384274663	-1.2988883624	 0.084875
H	-4.1298523381	-1.9875376457	-0.4606235156	 0.082158
H	-2.4751099423	-2.066752963	 1.810530597	 0.295184
122.0991	137.1348	198.093	288.2249	348.9035	355.3482	414.6609	432.2085	473.4222	521.2741	622.5819	691.5725	783.9158	821.7841	845.7526	861.4014	884.839	892.2526	975.6746	989.8966	1029.2488	1059.2202	1088.0627	1114.3029	1117.9388	1136.4244	1154.3111	1171.4967	1180.9599	1190.3348	1246.2375	1270.0118	1298.0173	1304.0824	1312.4498	1375.4075	1428.7903	1446.0953	1508.4572	3069.3524	3093.6234	3108.8183	3115.5126	3119.3996	3208.8923	3359.3383	3796.7657	3798.3428
OC1CC11C2NC1C2O	O[C@H]1C[C@]21[C@H]1N[C@@H]2[C@H]1O	
InChI=1S/C6H9NO2/c8-2-1-6(2)4-3(9)5(6)7-4/h2-5,7-9H,1H2	InChI=1S/C6H9NO2/c8-2-1-6(2)4-3(9)5(6)7-4/h2-5,7-9H,1H2/t2-,3-,4-,5+,6-/m0/s1
