13
gdb 131221	5.42602	1.26496	1.02581	4.9127	67.27	-0.2005	0.0002	0.2007	1047.1295	0.091336	-452.742578	-452.735695	-452.73475	-452.77367	26.488	
O	 0.0796788854	 1.3243898717	 0.1721253077	-0.423721
C	 0.0681502828	-0.0136602201	 0.0004042009	 0.426077
C	 0.0821746099	-0.7973050233	-1.1429658156	-0.496925
C	 0.0573855036	-2.1222289848	-0.6346120039	 0.438871
C	 0.0301407856	-2.1046794511	 0.743727801	 0.183136
N	 0.0367187297	-0.7778061021	 1.1402754555	-0.457265
C	 0.0078112711	-3.4615021896	 1.1135239309	-0.096977
N	 0.020197803	-4.2392071138	 0.0459964087	-0.16096
O	 0.0522664564	-3.3838085515	-1.0834625755	-0.244135
H	 0.1020228723	 1.7488960705	-0.6913161206	 0.316133
H	 0.1062840829	-0.4495237487	-2.1620673303	 0.114409
H	 0.0226166907	-0.3995668481	 2.0706097497	 0.274448
H	-0.0167628971	-3.9292322991	 2.0869702215	 0.126909
155.4217	215.6087	275.2926	319.6289	330.3306	407.2154	523.4491	563.3189	602.4861	664.2456	705.1739	743.4458	770.3648	832.9345	858.2177	879.644	965.8351	1017.9331	1157.623	1185.3987	1190.3725	1216.4361	1299.6609	1416.1193	1460.1315	1511.8842	1551.7638	1603.3112	1615.7019	3247.4	3267.734	3693.4144	3844.4815
OC1=CC2=C(N1)C=NO2	Oc1cc2c([nH]1)cno2	
InChI=1S/C5H4N2O2/c8-5-1-4-3(7-5)2-6-9-4/h1-2,7-8H	InChI=1S/C5H4N2O2/c8-5-1-4-3(7-5)2-6-9-4/h1-2,7-8H
