19
gdb 47160	2.28185	1.86001	1.09825	2.5735	81.9	-0.2268	-0.0121	0.2147	1107.6761	0.160329	-385.909996	-385.902122	-385.901177	-385.943223	30.485	
O	 0.0419215522	 0.0130802574	-0.4264348339	-0.317102
C	-0.0290836408	 1.1597730289	-0.05265893	 0.37338
C	-1.3544507498	 1.7765186269	 0.4205464486	-0.297496
C	-1.3138318113	 3.2671346633	 0.8321420925	-0.269442
C	-0.0613448105	 3.5862737577	 1.6264457925	-0.254298
C	 1.0727220692	 3.0543970792	 1.1937959548	 0.36465
C	 2.5067829574	 2.8130168963	 1.6210804351	-0.332442
C	 2.5227890642	 1.5729198186	 0.6586290652	-0.232437
C	 1.1785588684	 2.0758482198	 0.045826541	-0.179586
H	-2.104681315	 1.592385373	-0.3557473866	 0.127302
H	-1.6604145972	 1.170058548	 1.2820764116	 0.137608
H	-1.3634868749	 3.9013824066	-0.0640186977	 0.114413
H	-2.2123654511	 3.5012231096	 1.4110741252	 0.108248
H	-0.1268569269	 4.1978061493	 2.5214261905	 0.090468
H	 3.1926016329	 3.6007420127	 1.2898067671	 0.115248
H	 2.6873793602	 2.6280638747	 2.6836454129	 0.11493
H	 3.3717181524	 1.493532989	-0.0216282968	 0.107584
H	 2.398744165	 0.6227394743	 1.1817630869	 0.122312
H	 1.3157007956	 2.5613615948	-0.931028439	 0.10666
30.0778	128.6415	217.7602	248.1265	330.9489	418.2247	456.2054	496.1175	574.8209	613.3737	673.5224	706.2974	747.3281	847.416	872.7276	903.0695	906.0867	957.4371	972.4288	981.9604	1049.7157	1064.6698	1085.8369	1109.1987	1162.3734	1174.5161	1199.1243	1205.1652	1228.4516	1245.195	1265.1747	1292.2335	1317.5835	1334.7424	1357.2213	1440.6974	1470.5371	1488.6723	1492.3105	1767.6182	1808.6365	3005.4873	3008.8817	3038.3177	3041.177	3075.6771	3080.6168	3084.0728	3091.319	3137.4914	3170.9983
O=C1CCC=C2CCC12	O=C1CCC=C2CC[C@@H]12	
InChI=1S/C8H10O/c9-8-3-1-2-6-4-5-7(6)8/h2,7H,1,3-5H2	InChI=1S/C8H10O/c9-8-3-1-2-6-4-5-7(6)8/h2,7H,1,3-5H2/t7-/m1/s1
