25
gdb 60486	5.46249	0.44349	0.42509	2.866	91.74	-0.2474	-0.0185	0.2289	2590.3881	0.225942	-389.517425	-389.505789	-389.504845	-389.555842	40.809	
C	 0.1621232238	 1.5544133456	 0.1474480444	-0.381093
C	 0.0651322164	 0.0274322851	 0.0172758045	 0.041419
C	 0.8355308986	-0.658949356	 1.1535746794	-0.388519
C	-1.3914312077	-0.4710997106	-0.0208269702	-0.168077
C	-2.2093271078	-0.0074457118	-1.2318923546	-0.18673
C	-3.6158768637	-0.6164374156	-1.2671875355	-0.191609
C	-4.4375600795	-0.1603462939	-2.4859899165	-0.273669
C	-5.8486104964	-0.6982226016	-2.4474445175	 0.159771
O	-6.3634643006	-1.3621404965	-3.3098188027	-0.237886
H	 1.207668742	 1.8774692615	 0.1864453598	 0.111083
H	-0.3097366345	 2.0723887378	-0.6925837118	 0.112775
H	-0.3242719532	 1.8984649035	 1.0686185789	 0.110025
H	 0.539752913	-0.2614356842	-0.9322079157	 0.070735
H	 0.4015772834	-0.406933304	 2.1287759399	 0.11115
H	 0.8111918455	-1.7490605364	 1.0515086233	 0.109362
H	 1.8847880642	-0.3461556678	 1.1681619088	 0.1094
H	-1.3835937173	-1.5694551959	-0.0042282686	 0.090393
H	-1.8999383082	-0.1595727611	 0.90345077	 0.089389
H	-2.2962495368	 1.0862553055	-1.2351086494	 0.098616
H	-1.677151434	-0.2743037521	-2.1552835564	 0.097827
H	-3.5419339386	-1.7115078871	-1.2722578527	 0.110539
H	-4.1522928698	-0.3503221725	-0.3461963703	 0.101224
H	-4.5024263504	 0.9379881874	-2.4830581498	 0.116071
H	-3.9707281469	-0.4695881183	-3.4259484683	 0.120457
H	-6.4098725216	-0.4357488509	-1.518369609	 0.067346
46.7825	47.2921	74.4789	100.9143	126.1188	147.843	222.0016	232.3299	246.2668	270.3437	354.8601	396.6462	438.037	475.099	527.4265	736.7545	775.0339	810.8114	850.2348	923.8051	926.7445	957.7115	966.2582	986.8153	1027.1656	1046.4198	1063.59	1085.4308	1150.5278	1168.3071	1194.3086	1215.0027	1246.3759	1276.5028	1304.351	1327.449	1334.6745	1351.224	1371.3774	1385.857	1398.78	1401.5719	1422.7492	1431.1037	1464.3125	1478.4695	1488.3696	1489.4212	1496.2184	1505.5582	1508.4684	1512.4447	1836.8127	2843.1901	2991.8211	3000.6896	3007.6856	3010.7554	3021.0542	3023.3589	3028.1587	3031.4467	3044.8193	3067.7905	3087.395	3093.1008	3096.9001	3098.9736	3106.3033
CC(C)CCCCC=O	CC(C)CCCCC=O	
InChI=1S/C8H16O/c1-8(2)6-4-3-5-7-9/h7-8H,3-6H2,1-2H3	InChI=1S/C8H16O/c1-8(2)6-4-3-5-7-9/h7-8H,3-6H2,1-2H3
