19
gdb 104290	2.13694	1.4075	1.124	1.5107	72.06	-0.2437	-0.0232	0.2205	1167.1815	0.157125	-460.154037	-460.144535	-460.14359	-460.188606	34.896	
O	-0.0869920688	 1.3739926025	 0.068526954	-0.439766
C	-0.0087636888	-0.0432691713	 0.2511231374	-0.155823
C	-1.4346303531	-0.5466028749	 0.0411621026	 0.425096
O	-2.2921683997	 0.0764818862	 0.9666084022	-0.491455
C	-1.8765729637	-0.5060777419	-1.4586120469	-0.272206
C	-1.6230739881	-2.0330626715	-1.560099487	-0.256595
C	-1.6278927325	-2.0844026622	 0.0067090469	-0.127002
C	-0.6898679916	-3.0570054679	 0.6574727905	 0.13704
O	 0.2890815651	-2.782571682	 1.3079813907	-0.254064
H	 0.7040862697	 1.7702831459	 0.4432221737	 0.295353
H	 0.6844979359	-0.4992925067	-0.4692971035	 0.091526
H	 0.3277859849	-0.2990265139	 1.2594737548	 0.124631
H	-1.9995678831	 0.9969869684	 1.0107755443	 0.283563
H	-2.9398198164	-0.2651948019	-1.522647431	 0.110994
H	-1.3132763665	 0.1479149951	-2.1263362228	 0.111604
H	-2.3710109042	-2.6379455539	-2.0743001208	 0.11154
H	-0.6382129575	-2.2682814209	-1.9727297589	 0.113735
H	-2.6445415836	-2.3066312685	 0.352507693	 0.113349
H	-0.956951538	-4.1235344003	 0.4651363209	 0.07848
56.4544	113.5172	133.1022	170.0915	207.9651	267.7382	281.8501	352.8876	359.0898	433.5099	471.8703	507.2716	617.504	717.0073	735.347	808.846	881.2618	909.8842	923.0011	952.9508	996.6768	1030.0236	1055.8992	1071.4616	1119.2478	1154.0452	1182.3607	1214.2566	1232.4091	1245.406	1248.0778	1267.2594	1299.799	1364.7512	1396.4008	1431.3989	1447.2368	1483.6698	1497.7153	1507.3105	1819.4056	2848.8983	3008.8848	3048.5367	3066.4913	3075.1032	3092.9368	3121.4644	3138.6316	3757.807	3845.197
OCC1(O)CCC1C=O	OC[C@@]1(O)CC[C@H]1C=O	
InChI=1S/C6H10O3/c7-3-5-1-2-6(5,9)4-8/h3,5,8-9H,1-2,4H2	InChI=1S/C6H10O3/c7-3-5-1-2-6(5,9)4-8/h3,5,8-9H,1-2,4H2/t5-,6-/m0/s1
