23
gdb 105252	1.83155	1.44995	1.03027	1.2541	85.62	-0.2456	0.0819	0.3275	1310.518	0.204447	-388.260526	-388.250461	-388.249517	-388.295869	38.108	
C	-1.6370457225	 1.0130608069	-0.7168218982	-0.383373
C	-0.2144053007	 0.6773326876	-0.2535746411	-0.235502
C	 0.5189531462	-0.3024762315	-1.165174598	 0.313742
C	 1.093907636	 0.2569653269	-2.4607737768	-0.368225
C	 2.0071650991	-0.1237299078	-1.3223910154	 0.042615
O	 2.6245322941	 0.8725232217	-0.5551049812	-0.424197
C	-0.0747506653	-1.6874508875	-1.188624512	-0.047236
C	 0.7083740373	-2.9514297354	-1.4423248951	-0.289999
C	 0.1724111239	-2.6624084404	-0.0622486223	-0.262991
H	-1.6345576073	 1.4372438835	-1.7268237961	 0.112304
H	-2.2835018167	 0.1297399836	-0.7293071478	 0.11408
H	-2.0984861022	 1.7460832255	-0.047530214	 0.109107
H	 0.3751753653	 1.5944175617	-0.1774089675	 0.108755
H	-0.2505308856	 0.2524467188	 0.7575858215	 0.09604
H	 1.0880774104	-0.3678036355	-3.347881244	 0.10752
H	 0.9561147787	 1.3179362948	-2.6457978275	 0.10755
H	 2.6169681036	-1.0164188747	-1.4523068307	 0.081184
H	 3.2867973821	 1.2994878219	-1.1079971428	 0.286753
H	-1.0834836219	-1.706115029	-1.5941228671	 0.084332
H	 0.2294492427	-3.7275978371	-2.0295125984	 0.108247
H	 1.7811340159	-2.8956989251	-1.5877015071	 0.113595
H	 0.8922338435	-2.3696885886	 0.6952070313	 0.11696
H	-0.6555896265	-3.2538058504	 0.3128171805	 0.108739
36.7738	86.9557	149.4547	190.2233	209.5855	230.26	275.6727	293.0493	315.9845	428.8798	469.8275	479.5102	564.5932	643.5455	775.5768	784.0152	812.3847	835.8675	864.4288	913.3605	929.0186	943.1472	988.2054	1016.7314	1032.1751	1043.6698	1058.3052	1081.4858	1086.7539	1121.3432	1140.0625	1146.6418	1189.9467	1199.229	1221.8643	1260.0774	1271.9487	1304.8508	1334.3044	1372.4159	1404.1847	1408.8297	1429.1341	1468.1991	1485.2311	1490.7864	1499.142	1506.8704	1509.8365	3029.5291	3032.8557	3086.7024	3099.981	3107.2612	3109.1151	3122.0535	3130.0108	3130.8178	3137.5119	3207.9824	3211.3423	3222.9965	3809.3655
CCC1(CC1O)C1CC1	CC[C@]1(C[C@H]1O)C1CC1	
InChI=1S/C8H14O/c1-2-8(5-7(8)9)6-3-4-6/h6-7,9H,2-5H2,1H3	InChI=1S/C8H14O/c1-2-8(5-7(8)9)6-3-4-6/h6-7,9H,2-5H2,1H3/t7-,8+/m1/s1
