22
gdb 112120	2.7005	1.26321	1.01533	1.9765	82.76	-0.2442	0.0243	0.2684	1277.3094	0.195191	-404.373087	-404.363824	-404.362879	-404.40696	34.91	
C	-0.0816078882	 1.6181536617	-0.0611207618	-0.385463
C	-0.0003136593	 0.0920575293	 0.0176808136	-0.182979
C	 0.7677745191	-0.5204030711	-1.1620695623	 0.060358
N	 2.1648549046	-0.0697962045	-1.1147120803	-0.274921
C	 3.0632732077	-0.8289789101	-1.5755480177	 0.125823
O	 2.9447475087	-2.041695069	-2.1675103748	-0.228789
C	 1.5965030979	-2.4895563593	-2.3926371315	-0.080223
C	 0.663726071	-2.0604958013	-1.2592594416	-0.04564
C	 0.9922521637	-2.7976902727	 0.0472516283	-0.393136
H	 0.9214803325	 2.0485164134	-0.1133442563	 0.140565
H	-0.632765367	 1.9392403809	-0.9526432151	 0.105407
H	-0.5926730711	 2.032446547	 0.8133516687	 0.105139
H	 0.4903126814	-0.2008933025	 0.9525215325	 0.10247
H	-1.0103800871	-0.3382040177	 0.0397156674	 0.085118
H	 0.3263514027	-0.1040152553	-2.0808842145	 0.079054
H	 4.1144848599	-0.5492940424	-1.5216422083	 0.122356
H	 1.2561721447	-2.0807522046	-3.3524517346	 0.108976
H	 1.6611743892	-3.5770408993	-2.4842963791	 0.113455
H	-0.3579649007	-2.3242641265	-1.5612530767	 0.076474
H	 1.9857900196	-2.5345628788	 0.4215590113	 0.134057
H	 0.2670645356	-2.5619217745	 0.829856842	 0.12204
H	 0.9711576549	-3.8812740229	-0.1095680991	 0.109859
98.2732	111.2553	179.4726	182.4497	200.9311	228.2376	301.5131	347.9968	381.9292	413.6581	517.7267	581.2813	661.8271	760.47	806.9253	851.284	879.2835	913.5433	937.1416	967.719	977.0031	993.7452	1038.9249	1060.4873	1098.0041	1121.524	1163.064	1167.7054	1194.5274	1268.9063	1289.4484	1304.2562	1313.1799	1354.3135	1375.2364	1383.8304	1394.837	1405.9374	1412.9314	1424.3095	1479.9795	1495.5855	1497.0049	1500.9192	1509.6858	1510.5542	1730.6107	2975.3966	3018.3467	3021.663	3032.5221	3033.5317	3042.1955	3066.8936	3093.4301	3098.1321	3106.8693	3123.186	3126.7557	3150.5728
CCC1N=COCC1C	CC[C@H]1N=COC[C@H]1C	
InChI=1S/C7H13NO/c1-3-7-6(2)4-9-5-8-7/h5-7H,3-4H2,1-2H3	InChI=1S/C7H13NO/c1-3-7-6(2)4-9-5-8-7/h5-7H,3-4H2,1-2H3/t6-,7-/m1/s1
