20
gdb 59925	2.2589	0.98551	0.8165	3.6916	85.49	-0.2825	0.0147	0.2972	1505.5893	0.168108	-365.99911	-365.988564	-365.98762	-366.03516	37.979	
C	-0.0594470601	 1.5613364297	 0.018737873	-0.397379
C	 0.0219877325	 0.0283903393	 0.0383418237	 0.021726
C	 0.8584498938	-0.456077603	 1.2312720685	-0.392481
C	-1.3986228478	-0.5608679369	 0.0348026686	-0.178734
C	-1.4707232593	-2.1110255943	-0.094183607	-0.346106
C	-2.8527952773	-2.5890576653	-0.0354648687	 0.317323
C	-3.9952797525	-2.95058337	 0.031250997	-0.408805
C	-0.8120284299	-2.5703561923	-1.329350423	 0.301182
N	-0.2753700627	-2.9109251352	-2.2939483549	-0.330211
H	 0.9404538799	 2.0044565667	-0.0195975707	 0.117806
H	-0.6198981802	 1.921209363	-0.8500846993	 0.117657
H	-0.5568685537	 1.9412497842	 0.9191747944	 0.114593
H	 0.5223890022	-0.2941512683	-0.8841862668	 0.104665
H	 0.3772927281	-0.194012589	 2.1815041912	 0.114697
H	 1.0159348785	-1.5393188479	 1.2205025065	 0.118426
H	 1.8482022976	 0.0106212616	 1.2217068954	 0.121395
H	-1.9181807294	-0.2964784239	 0.9628822593	 0.115694
H	-1.9786921379	-0.1305658898	-0.7876347235	 0.123529
H	-0.9159185675	-2.5564445995	 0.7416526602	 0.157177
H	-5.003074754	-3.2821649992	 0.085028666	 0.207848
41.6478	91.0259	116.8774	128.5058	202.8547	227.4977	254.1594	264.3535	338.1582	364.2395	404.3375	426.9428	489.2258	575.7478	588.8652	645.0506	667.1616	800.8086	829.7304	924.3819	932.8441	959.3882	971.0242	1021.1318	1036.4157	1124.3299	1158.3308	1193.5032	1232.309	1281.2123	1331.2187	1337.1028	1372.4965	1386.8287	1403.656	1424.9223	1479.303	1488.4631	1495.9629	1505.6929	1512.6023	2248.4149	2362.1395	3023.1307	3025.5181	3029.2198	3032.4207	3045.7605	3090.3127	3092.3212	3098.6354	3102.8934	3106.6346	3503.0174
CC(C)CC(C#C)C#N	CC(C)C[C@@H](C#C)C#N	
InChI=1S/C8H11N/c1-4-8(6-9)5-7(2)3/h1,7-8H,5H2,2-3H3	InChI=1S/C8H11N/c1-4-8(6-9)5-7(2)3/h1,7-8H,5H2,2-3H3/t8-/m1/s1
