16
gdb 67361	2.90477	1.93629	1.3461	3.4095	69.05	-0.2427	-0.0301	0.2126	920.4338	0.125605	-437.839825	-437.833041	-437.832097	-437.870766	27.662	
O	 0.0582401954	 1.3962977604	-0.0159024357	-0.483479
C	 0.0004192053	 0.0311515633	 0.0051348941	 0.400325
C	 0.0076859516	-0.8192385399	 1.3335128203	-0.10352
N	-1.4292251082	-0.4220262068	 1.5678212732	-0.325905
C	-1.348189176	-0.7812447893	 0.1043499839	-0.103606
C	-0.4067310944	-1.9947950125	 0.3912826938	-0.047263
C	 0.6108669842	-2.1648408184	-0.7363881258	-0.373586
C	 0.8789860039	-0.682852528	-0.9870082538	 0.337132
O	 1.6079605225	-0.130401797	-1.7741517851	-0.343429
H	 0.6948632189	 1.6190131073	-0.7138705873	 0.295557
H	 0.761202311	-0.8047492399	 2.1228219737	 0.093015
H	-1.9066535782	-1.1781931778	 2.0710530512	 0.205613
H	-2.2062089841	-0.7215062448	-0.5673901362	 0.093012
H	-0.853908966	-2.8719211504	 0.8575344326	 0.084075
H	 1.52433883	-2.6914587985	-0.4411297241	 0.136047
H	 0.2123595442	-2.6551928277	-1.6306291849	 0.136011
123.1862	277.4084	301.0988	363.4884	376.6151	443.0132	544.7241	604.3648	611.5625	663.8317	709.0415	711.7291	842.108	891.604	896.0437	905.0432	973.715	990.5068	994.3171	1036.1833	1077.8307	1117.4053	1138.4387	1144.6708	1149.1564	1195.1644	1212.5015	1263.6464	1286.5072	1289.6426	1328.3169	1388.4007	1428.0701	1454.9461	1846.8846	3051.9882	3096.1787	3102.6332	3105.9392	3132.4474	3367.6909	3696.1805
OC12C3NC1C3CC2=O	O[C@@]12[C@H]3N[C@@H]1[C@H]3CC2=O	
InChI=1S/C6H7NO2/c8-3-1-2-4-6(3,9)5(2)7-4/h2,4-5,7,9H,1H2	InChI=1S/C6H7NO2/c8-3-1-2-4-6(3,9)5(2)7-4/h2,4-5,7,9H,1H2/t2-,4-,5+,6-
