18
gdb 102876	2.89341	0.90319	0.77088	3.5189	74.13	-0.2504	-0.0396	0.2107	1522.8506	0.143767	-476.212026	-476.20177	-476.200826	-476.248146	35.041	
C	 0.0949343826	 1.2644337259	-0.1392561115	-0.315255
N	-0.1700128441	-0.1393619293	 0.0976494145	-0.210003
C	 0.5754823582	-0.7409589941	 0.9062543001	 0.150642
O	 0.3510005954	-2.0520097104	 1.1847682352	-0.223346
C	 1.2615640579	-2.7091951696	 2.0451404399	-0.021047
C	 0.6530884551	-4.0846461303	 2.3302777551	-0.081127
O	 0.5376698106	-4.8401359624	 1.1461554469	-0.41457
C	 2.6467204939	-2.8589060117	 1.4192776747	 0.166045
O	 2.9974479928	-2.310148629	 0.4112620344	-0.230741
H	 0.9401972627	 1.666138963	 0.4426151913	 0.09867
H	 0.3050201114	 1.421682446	-1.2029675	 0.133343
H	-0.7989131196	 1.8515404783	 0.099814366	 0.12816
H	 1.413816669	-0.2960050717	 1.4591095573	 0.083553
H	 1.3841620099	-2.1619673242	 2.9962562489	 0.104531
H	 1.3069580974	-4.6438830892	 3.0074063581	 0.119786
H	-0.3144597509	-3.9413778156	 2.8320488736	 0.114349
H	 0.0286347872	-4.3076133957	 0.5227336689	 0.30489
H	 3.3284945705	-3.5188244101	 2.0014601564	 0.092121
64.0103	83.4659	95.73	124.2909	159.0396	202.6757	238.706	254.6891	310.1242	333.0454	420.4282	441.642	532.109	655.2044	701.5357	833.9377	911.3959	951.0305	968.3896	1051.3293	1062.3419	1099.8402	1127.6057	1141.5438	1163.2551	1232.7451	1239.0712	1277.312	1344.4537	1389.4621	1407.9024	1413.4789	1429.3863	1450.8015	1481.054	1496.8124	1504.5807	1784.501	1847.8576	2884.6412	2964.5202	2972.1307	3009.9889	3025.6677	3062.387	3082.3174	3083.9935	3793.8329
CN=COC(CO)C=O	CN=CO[C@@H](CO)C=O	
InChI=1S/C5H9NO3/c1-6-4-9-5(2-7)3-8/h2,4-5,8H,3H2,1H3	InChI=1S/C5H9NO3/c1-6-4-9-5(2-7)3-8/h2,4-5,8H,3H2,1H3/t5-/m1/s1
