17
gdb 23600	3.86019	1.21573	1.15315	2.2934	75.9	-0.2303	0.0108	0.2412	1097.5697	0.136426	-417.888469	-417.881068	-417.880123	-417.920328	29.525	
O	-0.1423617495	 1.342172971	-0.0233174762	-0.392322
N	 0.026204626	-0.0565172936	-0.0008020201	-0.258677
C	-1.0911317055	-0.6473502568	-0.0591753427	 0.461742
C	-2.5552103161	-0.2296338055	-0.0664810734	-0.34031
C	-2.9312066086	-1.74368196	 0.0315997696	-0.034687
C	-3.1058772078	-2.5289842323	-1.2904875653	-0.056382
N	-2.2068302154	-1.9093569778	-2.2915165652	-0.331627
C	-1.6588559781	-2.8823223524	-1.319496345	-0.046822
C	-1.4060341764	-2.1300311251	 0.01442953	-0.144809
H	 0.7669529849	 1.6547997745	 0.0306604535	 0.303929
H	-2.8350560475	 0.3610089364	 0.8112823766	 0.118908
H	-2.8815818495	 0.2894579683	-0.9693891094	 0.137012
H	-3.5731654998	-2.0586417131	 0.8521375801	 0.077547
H	-3.97475133	-3.094012552	-1.605845984	 0.092711
H	-2.3422144752	-2.4067496094	-3.170491451	 0.232378
H	-1.1528566078	-3.7767830312	-1.6614025239	 0.096321
H	-0.9450511437	-2.724421401	 0.8030199265	 0.085087
85.5663	192.6167	224.6147	316.5861	350.3425	416.8747	467.7226	493.0983	625.2168	700.3681	721.6352	779.7207	803.6665	812.8954	874.3616	899.9878	916.7855	946.7947	962.8424	988.3435	1001.267	1038.0188	1081.8172	1101.0039	1116.562	1140.4816	1166.2226	1201.2562	1214.1525	1239.0512	1268.3479	1307.5364	1327.3432	1372.9063	1401.3618	1440.1508	1780.5699	3060.4076	3116.6775	3122.9047	3133.3776	3179.2372	3193.0327	3482.3173	3818.236
ON=C1CC2C3NC3C12	ON=C1C[C@H]2[C@H]3N[C@H]3[C@@H]12	
InChI=1S/C6H8N2O/c9-8-3-1-2-4(3)6-5(2)7-6/h2,4-7,9H,1H2	InChI=1S/C6H8N2O/c9-8-3-1-2-4(3)6-5(2)7-6/h2,4-7,9H,1H2/t2-,4-,5-,6+/m1/s1
