17
gdb 13689	4.40342	1.13444	0.97898	4.2957	66.55	-0.242	0.0051	0.2471	1175.6044	0.140524	-400.979841	-400.971228	-400.970284	-401.014398	29.74	
C	-0.3486476516	 1.3886043606	 0.3490805756	-0.323507
N	-0.0603648909	-0.0348094836	 0.2690784412	-0.063836
C	 1.2426194643	-0.4462177104	-0.2282317907	-0.258274
C	 0.8712681033	-0.6634369694	 1.2018702529	 0.010283
C	 1.6100611208	 0.0794707922	 2.2846682774	-0.111902
O	 0.7827611515	 0.1739174419	 3.4567314469	-0.179022
C	 0.5893825831	 1.3855768061	 4.0080705584	 0.176977
O	-0.0695534956	 1.5537489848	 4.988925282	-0.273001
H	 0.5254309921	 2.0281426899	 0.5537321963	 0.093644
H	-0.7708442282	 1.7092431619	-0.6081471921	 0.133538
H	-1.099042708	 1.5639118144	 1.1259923211	 0.139363
H	 1.2575357838	-1.2770486625	-0.928427849	 0.124221
H	 1.9784574249	 0.3323926259	-0.4344580412	 0.10654
H	 0.5576317245	-1.6583639336	 1.5127412122	 0.110394
H	 2.5089513011	-0.4798015702	 2.5665705242	 0.129302
H	 1.9225592271	 1.0791956335	 1.9640074885	 0.110293
H	 1.1038172078	 2.1963894686	 3.4545064762	 0.074984
37.5405	51.2518	140.4689	177.122	232.8656	303.9266	342.8511	375.153	411.2407	524.5468	672.1374	751.7892	796.7567	915.7737	998.1562	1030.643	1037.567	1043.4825	1082.584	1116.5391	1125.9463	1150.8317	1167.8544	1200.9309	1215.6939	1297.6951	1342.4389	1369.0106	1417.9506	1444.9466	1450.325	1489.4953	1490.2145	1507.8473	1518.2984	1867.9885	2937.4555	2966.832	3037.1549	3070.8291	3079.0658	3081.7403	3109.62	3126.7316	3173.7175
CN1CC1COC=O	CN1C[C@H]1COC=O	
InChI=1S/C5H9NO2/c1-6-2-5(6)3-8-4-7/h4-5H,2-3H2,1H3	InChI=1S/C5H9NO2/c1-6-2-5(6)3-8-4-7/h4-5H,2-3H2,1H3/t5-,6?/m0/s1
