15
gdb 18092	4.44071	2.21216	1.64749	0.9912	65.55	-0.232	0.0053	0.2373	761.7245	0.123166	-358.860259	-358.854291	-358.853347	-358.890556	22.701	
C	 0.039592803	 1.5769321927	-0.0249151884	-0.193036
N	 1.4698116751	 1.8656115418	 0.2053956828	-0.224804
C	 2.0513154639	 0.7560483202	 0.4167194794	 0.042575
N	 1.274896901	-0.4159742403	 0.3166241295	-0.100072
C	 1.1384482078	-1.309238583	 1.398262106	 0.042574
N	-0.0357980981	-1.5406767507	 1.8243095366	-0.224803
C	-0.9613346543	-0.6875657417	 1.0513349488	-0.193035
C	-0.1039974365	 0.030113339	-0.0271734875	-0.000301
H	-0.5516738308	 2.0613496206	 0.7631626111	 0.117294
H	-0.2743045196	 2.0135750963	-0.976695944	 0.122975
H	 3.1058511999	 0.6652370469	 0.6591465464	 0.136338
H	 2.0312142895	-1.766026124	 1.8146480489	 0.136338
H	-1.7418843045	-1.306685297	 0.601325677	 0.122976
H	-1.4583857446	 0.0100139354	 1.7380995859	 0.117294
H	-0.3553478117	-0.3338535864	-1.0267464125	 0.097687
103.2178	166.8243	341.0813	458.5797	512.4617	659.6797	675.3834	703.4758	858.6801	875.8442	903.6484	946.8461	948.424	955.0671	956.5554	992.2425	1061.475	1095.0853	1189.4938	1195.2052	1208.1292	1234.8615	1303.3266	1305.3388	1322.4326	1325.5824	1350.3866	1375.7919	1485.8797	1500.0034	1675.8174	1707.4192	3024.5322	3026.884	3056.0887	3086.9908	3093.9787	3187.4109	3193.5047
C1N=CN2C=NCC12	C1N=CN2C=NC[C@@H]12	
InChI=1S/C5H7N3/c1-5-2-7-4-8(5)3-6-1/h3-5H,1-2H2	InChI=1S/C5H7N3/c1-5-2-7-4-8(5)3-6-1/h3-5H,1-2H2
