17
gdb 68612	2.41952	1.87038	1.50435	0.7289	67.49	-0.2387	0.0612	0.2999	933.8856	0.135911	-458.902915	-458.895504	-458.89456	-458.934397	29.638	
O	 0.0634270053	 1.3567666517	 0.1757349479	-0.47964
C	 0.038882726	-0.0167292456	 0.0483544982	 0.275801
C	 0.3745243684	-0.8287278284	-1.2608192689	-0.31406
C	-0.3362040769	-1.9458762753	-0.4551382449	-0.012674
O	 0.5388575679	-2.1592732214	 0.6681355683	-0.279139
C	 0.8554316738	-0.8056673736	 1.0776390495	-0.102495
C	-1.2650571895	-0.8434859904	 0.0679155472	 0.443096
C	-2.5123455978	-0.7531918392	 0.8050459515	-0.307904
O	-2.4187052429	-0.3642555551	-0.591931518	-0.310132
H	-0.6493733514	 1.7082390414	-0.3718852638	 0.293196
H	-0.2045745979	-0.4893568031	-2.1214683647	 0.118435
H	 1.4248491114	-0.9890313881	-1.5109857176	 0.106371
H	-0.6708116764	-2.8916521048	-0.872596442	 0.096833
H	 1.9339840265	-0.6261024592	 1.0081772474	 0.109734
H	 0.5229747189	-0.6290405545	 2.1065260582	 0.108508
H	-3.1037084454	-1.6473241346	 0.99164637	 0.128943
H	-2.6755155201	 0.0709908604	 1.4974503715	 0.125127
157.8154	176.8502	238.2853	310.0211	365.1087	381.5652	421.692	461.064	586.1797	621.2717	644.1299	690.936	813.1208	886.8742	892.6451	917.813	931.5987	953.2	999.0003	1021.0142	1069.2108	1090.0813	1108.0607	1120.0478	1129.9034	1158.035	1176.1867	1211.0299	1214.3937	1265.2076	1298.9429	1359.5084	1416.4235	1456.696	1482.2454	1526.8842	1551.4459	3030.6607	3074.8057	3076.7113	3091.9382	3147.9544	3165.7145	3181.3867	3784.2512
OC12CC(OC1)C21CO1	O[C@@]12C[C@@H](OC1)[C@]12CO1	
InChI=1S/C6H8O3/c7-5-1-4(8-2-5)6(5)3-9-6/h4,7H,1-3H2	InChI=1S/C6H8O3/c7-5-1-4(8-2-5)6(5)3-9-6/h4,7H,1-3H2/t4-,5+,6+/m1/s1
