16
gdb 88903	6.04788	0.58379	0.55977	5.9393	83.73	-0.2748	-0.0333	0.2415	1875.5841	0.123338	-400.716942	-400.707838	-400.706894	-400.751921	32.462	
O	-0.1591179331	 1.4428471125	 0.4387615549	-0.413788
C	-0.0047654107	 0.0699703384	 0.2251480717	 0.083763
C	-0.729750929	-0.905236096	 1.1183732687	-0.316707
C	-1.2073817396	-0.6635530198	-0.2985718143	-0.014763
C	-2.4974534613	 0.1081840959	-0.5452118308	-0.401493
C	-3.6870801446	-0.7043514541	-0.3450731254	 0.107911
C	-4.6655913282	-1.3934354835	-0.1761046987	 0.031702
C	-5.7716957554	-2.1692191887	 0.0165507995	 0.206976
N	-6.7129719312	-2.8303893918	 0.1814748673	-0.341712
H	 0.3052709247	 1.6753390255	 1.2493748542	 0.295132
H	 0.9671302385	-0.2226408389	-0.1709035122	 0.097753
H	-0.2617707953	-1.8529375133	 1.3594505407	 0.122357
H	-1.3291525247	-0.4777788385	 1.9159640936	 0.123346
H	-1.0163379098	-1.453856867	-1.0172587966	 0.10738
H	-2.5290607596	 0.9803980904	 0.1165921408	 0.161603
H	-2.5049696707	 0.505647799	-1.5686209034	 0.150541
41.0417	66.7621	149.4852	176.4924	221.0694	301.4728	310.8333	364.7522	432.1262	492.7545	532.8176	577.3867	581.3557	744.9799	773.0922	828.8279	882.9863	893.8964	987.1443	1037.671	1062.8643	1124.8949	1138.4944	1169.0946	1178.0594	1236.0906	1241.7425	1300.1005	1317.8361	1390.4604	1424.1453	1460.261	1488.8739	2264.4749	2400.9131	3028.9985	3077.622	3105.2478	3133.3671	3163.593	3223.0842	3812.1743
OC1CC1CC#CC#N	O[C@H]1C[C@H]1CC#CC#N	
InChI=1S/C7H7NO/c8-4-2-1-3-6-5-7(6)9/h6-7,9H,3,5H2	InChI=1S/C7H7NO/c8-4-2-1-3-6-5-7(6)9/h6-7,9H,3,5H2/t6-,7+/m1/s1
