20
gdb 75210	3.515	1.28958	1.09123	1.6288	80.39	-0.2356	0.0339	0.2695	1185.7012	0.17087	-403.16306	-403.154332	-403.153388	-403.196211	33.414	
C	-0.4077134829	 1.4542915298	 0.1111159281	-0.452113
C	 0.0092109232	 0.0211041401	-0.0442964549	 0.389148
N	-0.1393956155	-0.6068601719	-1.1336788062	-0.308213
C	 0.2100359172	-2.0150386777	-1.2358204125	-0.226189
C	 0.9974437182	-2.6108306912	-0.0754400804	 0.274505
C	 0.8349656333	-4.1016875194	 0.127608848	-0.468581
C	 2.3351302442	-1.9725301439	 0.2593763963	-0.35986
C	 1.1266721708	-1.7215387627	 1.1226141552	 0.077266
O	 0.5396417957	-0.4416248091	 1.1266231235	-0.257537
H	 0.4529509522	 2.0742382869	 0.3818881357	 0.135641
H	-0.8415981917	 1.8105766532	-0.8220451505	 0.143088
H	-1.140069113	 1.5489796192	 0.9194136767	 0.13673
H	-0.7301995403	-2.574690242	-1.340735873	 0.110858
H	 0.7490426631	-2.1644367272	-2.1816500862	 0.106885
H	 1.1847157953	-4.6564082423	-0.7512518393	 0.122174
H	 1.4120453997	-4.4533002871	 0.9891349281	 0.114028
H	-0.2150714762	-4.3676370021	 0.2946741647	 0.121075
H	 3.1278315194	-2.5985158423	 0.6552502512	 0.11339
H	 2.6731561825	-1.1495354457	-0.3624965121	 0.125347
H	 1.0841984849	-2.1417498946	 2.1214261477	 0.102358
76.1848	137.2629	199.9441	219.097	251.8488	293.8422	344.3045	373.839	404.2118	493.7635	556.5537	611.5358	671.4627	746.83	795.9544	877.6496	898.7924	931.5447	941.6642	984.1067	1015.4179	1040.9359	1058.5056	1063.0558	1105.0737	1129.0093	1134.3985	1176.6335	1240.7757	1254.6235	1291.6002	1336.5167	1365.6771	1407.5215	1415.8451	1421.0559	1474.7711	1476.8887	1480.5165	1490.0715	1492.4117	1506.4119	1759.4228	3000.597	3021.3316	3022.2974	3047.3802	3083.7456	3095.6842	3103.8861	3126.8117	3167.916	3169.6779	3216.2183
CC1=NCC2(C)CC2O1	CC1=NC[C@@]2(C)C[C@H]2O1	
InChI=1S/C7H11NO/c1-5-8-4-7(2)3-6(7)9-5/h6H,3-4H2,1-2H3	InChI=1S/C7H11NO/c1-5-8-4-7(2)3-6(7)9-5/h6H,3-4H2,1-2H3/t6-,7-/m1/s1
