18
gdb 93212	2.91762	1.38923	0.97835	1.8869	76.	-0.2278	-0.027	0.2009	1194.262	0.149805	-435.327223	-435.318691	-435.317747	-435.360048	32.922	
C	 0.0206300768	 1.5711283629	 0.0037315628	-0.384653
C	 0.0329386198	 0.0422020446	 0.0173415971	 0.05684
C	 0.656401556	-0.5148750109	-1.2665193097	-0.172819
N	 0.8025264966	-1.9614296177	-1.1460813913	-0.345101
C	 1.2280492841	-2.537560246	 0.0029896259	 0.388427
O	 1.5313885464	-3.7145468871	 0.1174254213	-0.389668
C	 1.2584744123	-1.5837673065	 1.1909884743	 0.264037
N	 1.9396109408	-2.1137206356	 2.2459356858	-0.541217
N	 0.7149452319	-0.425770401	 1.22170248	-0.320871
H	 1.0416259202	 1.9633945097	-0.046628742	 0.11888
H	-0.5446724384	 1.9572068832	-0.8511579928	 0.104589
H	-0.4357500149	 1.9452768557	 0.923018373	 0.128134
H	-1.0110468887	-0.3086793752	 0.0613148392	 0.085275
H	 0.0195748888	-0.2977267392	-2.1289013602	 0.11565
H	 1.6319155317	-0.0358473098	-1.4422353545	 0.110482
H	 0.8573748489	-2.538491125	-1.9726241502	 0.25339
H	 2.0829481928	-3.1116240818	 2.2057697958	 0.271777
H	 1.8068760849	-1.6804280403	 3.1449464653	 0.256845
88.8942	167.6633	215.1487	235.9394	283.6559	344.2125	369.4576	431.8607	462.7458	481.0458	523.9038	550.3144	577.825	609.1624	684.9423	756.5835	821.8806	869.9691	928.9819	948.8867	1060.0567	1094.4603	1132.9647	1150.3348	1208.4897	1261.8807	1294.8922	1342.6873	1349.4597	1382.7055	1405.8607	1426.8531	1474.4134	1485.514	1499.2411	1515.8034	1593.0527	1722.1188	1789.8187	2966.094	2990.1856	3036.6092	3081.273	3105.5553	3126.8206	3580.4708	3613.3646	3712.6799
CC1CNC(=O)C(N)=N1	C[C@H]1CNC(=O)C(=N1)N	
InChI=1S/C5H9N3O/c1-3-2-7-5(9)4(6)8-3/h3H,2H2,1H3,(H2,6,8)(H,7,9)	InChI=1S/C5H9N3O/c1-3-2-7-5(9)4(6)8-3/h3H,2H2,1H3,(H2,6,8)(H,7,9)/t3-/m0/s1
