15
gdb 10365	2.55881	2.08408	1.40486	4.0037	71.39	-0.2787	0.0115	0.2902	909.5061	0.118188	-325.492508	-325.484731	-325.483787	-325.52456	28.788	
C	-0.2974558924	-1.2784679663	-0.3610612001	-0.397925
C	-0.1572945653	-0.0992657846	-0.1797976764	 0.233514
C	 0.0495640626	 1.3150097326	 0.0811511611	-0.014139
C	-0.0841359331	 1.807267664	 1.5774380392	-0.24172
C	 1.1835834387	 2.6751116664	 1.3840024287	-0.22253
C	 1.5411532729	 1.8361017143	 0.1326606246	-0.24171
C	-0.7637335839	 2.139595347	-0.817230342	 0.257589
N	-1.3918801876	 2.8183123781	-1.5105273102	-0.340157
H	-0.4318848606	-2.318000053	-0.5331422648	 0.204035
H	-1.0210225684	 2.3008871755	 1.8365532517	 0.131734
H	 0.0826602637	 0.9633489729	 2.2488513031	 0.127894
H	 0.9351798795	 3.7067779806	 1.1251670448	 0.129669
H	 1.9081041219	 2.6816120084	 2.19916661	 0.114115
H	 2.2050143731	 1.0009961863	 0.3622401254	 0.127895
H	 1.8983225689	 2.3526367277	-0.7585086151	 0.131734
111.6085	129.4031	169.1223	194.0282	258.8565	461.8306	476.1323	527.3265	580.9426	586.2393	642.4156	655.9713	687.6103	796.486	869.1649	906.864	946.0487	970.4915	971.9008	1069.927	1114.5723	1203.5001	1210.1334	1255.8183	1266.0399	1282.3901	1297.6621	1471.9988	1485.0355	1503.6589	2241.7671	2355.2352	3078.9235	3083.2268	3086.6831	3127.9924	3147.6274	3153.1474	3500.6231
C#CC1(CCC1)C#N	C#CC1(CCC1)C#N	
InChI=1S/C7H7N/c1-2-7(6-8)4-3-5-7/h1H,3-5H2	InChI=1S/C7H7N/c1-2-7(6-8)4-3-5-7/h1H,3-5H2
