23
gdb 71611	2.77917	1.67146	1.5329	0.0901	87.96	-0.2716	0.0866	0.3581	1026.3347	0.209645	-351.170773	-351.163434	-351.16249	-351.201859	31.638	
C	-0.0371574757	 1.5292162946	 0.0079762935	-0.503907
C	 0.0142706534	 0.0189838235	-0.0007959174	 0.345761
C	 0.9672787222	-0.7814542786	-0.9391646342	-0.273872
C	 0.7327723257	-1.9101928289	 0.0850619727	-0.031971
C	 0.6480066565	-0.8120839324	 1.1859225922	-0.019688
C	-0.2894495732	-1.2997600076	 2.3000677456	-0.250095
C	-1.0883969025	-2.4415137756	 1.601744403	-0.20847
C	-0.8000724765	-2.1871821388	 0.1111149372	-0.009364
C	-1.3043508666	-0.751985691	-0.2368850232	-0.255045
H	 0.9575349127	 1.9638364403	 0.1555556558	 0.109734
H	-0.4337073435	 1.9173222599	-0.9379817893	 0.11282
H	-0.6857069039	 1.8992700466	 0.8110396695	 0.11241
H	 0.656420716	-0.9318539739	-1.9784257817	 0.080979
H	 1.9947200519	-0.4069195028	-0.9106768763	 0.088003
H	 1.3927366469	-2.7748944652	 0.1715053573	 0.052633
H	 1.6051985333	-0.4000881971	 1.5124043706	 0.055684
H	 0.2706214473	-1.6650141982	 3.1661480826	 0.094124
H	-0.943828372	-0.4996578112	 2.6636771527	 0.095892
H	-0.7055722777	-3.4221726618	 1.9069868504	 0.089967
H	-2.1584699383	-2.422117602	 1.8310917202	 0.090001
H	-1.1582150829	-2.9723504941	-0.5577136624	 0.0523
H	-2.1224596619	-0.4276158362	 0.4150824352	 0.084811
H	-1.6451018013	-0.6496825695	-1.272292104	 0.087292
200.526	216.1033	230.5184	303.2977	372.9947	409.4707	462.2183	534.7659	618.1375	693.7299	706.3034	807.3443	819.1869	829.1391	839.3907	894.6374	897.4453	909.817	944.7595	962.4881	976.0901	990.661	1005.5122	1041.8392	1061.0429	1075.3675	1087.0859	1131.0442	1148.6513	1169.0357	1195.12	1224.6413	1236.98	1243.2395	1253.4299	1260.2144	1279.7358	1291.473	1316.3342	1325.5153	1351.8828	1363.3409	1412.5603	1486.0325	1489.4987	1493.6084	1493.7447	1504.1778	1517.4329	3018.1346	3032.9412	3034.8328	3039.0753	3042.0197	3070.4479	3074.3999	3080.1261	3086.7908	3087.4131	3088.2318	3091.132	3095.9869	3104.4003
CC12CC3C1CCC3C2	C[C@@]12C[C@H]3[C@@H]1CC[C@H]3C2	
InChI=1S/C9H14/c1-9-4-6-2-3-8(9)7(6)5-9/h6-8H,2-5H2,1H3	InChI=1S/C9H14/c1-9-4-6-2-3-8(9)7(6)5-9/h6-8H,2-5H2,1H3/t6-,7+,8-,9+/m0/s1
