14
gdb 12259	3.39231	1.60454	1.22366	2.2544	53.76	-0.273	-0.0119	0.2612	947.5694	0.10601	-456.82155	-456.813545	-456.812601	-456.854448	27.947	
O	 0.0146376029	 1.3314005302	-0.315256484	-0.41943
C	 0.0568679955	-0.0641240488	-0.0958638758	-0.064744
C	-1.3118040936	-0.5887307963	 0.2929808204	 0.082212
O	-2.2640078349	-0.3988251	-0.8271736101	-0.264128
C	-2.4105986818	-1.7509399913	-1.0006230167	 0.417957
O	-3.0020241907	-2.3263673346	-1.8555447127	-0.321412
C	-1.5528000302	-2.1101005403	 0.227894785	-0.077565
O	-0.4056348253	-2.8848363975	 0.0083526263	-0.41824
H	-0.6096759931	 1.4859504994	-1.0335726372	 0.29581
H	 0.4262068015	-0.6132971617	-0.9721648694	 0.110082
H	 0.7585547252	-0.2400482499	 0.7255020827	 0.128579
H	-1.6973217591	-0.0794241473	 1.1783243615	 0.110636
H	-2.1643755544	-2.4885600597	 1.058369307	 0.113366
H	-0.6815363519	-3.7326816022	-0.357547817	 0.306876
79.7542	116.5367	151.5193	174.4132	264.7694	300.0725	404.4582	451.9842	484.8143	569.8068	709.007	770.6257	836.66	890.5853	937.7459	1007.5333	1082.468	1103.2126	1129.5274	1177.1748	1179.3352	1225.6952	1299.2428	1310.9464	1348.7554	1399.2567	1416.8726	1431.2739	1492.9435	1938.0665	3015.6819	3022.3842	3088.3827	3107.8191	3801.4154	3812.2088
OCC1OC(=O)C1O	OC[C@H]1OC(=O)[C@H]1O	
InChI=1S/C4H6O4/c5-1-2-3(6)4(7)8-2/h2-3,5-6H,1H2	InChI=1S/C4H6O4/c5-1-2-3(6)4(7)8-2/h2-3,5-6H,1H2/t2-,3+/m1/s1
