17
gdb 16936	3.55549	2.14103	1.95024	3.8403	66.81	-0.2321	0.0332	0.2653	768.6397	0.146641	-363.917786	-363.911695	-363.910751	-363.947736	25.097	
O	-0.0055573539	-0.0194601673	 0.075749557	-0.388602
C	 0.0004650382	 1.1856488702	-0.0259329401	 0.40988
N	-1.1033333782	 2.0196174222	-0.0844808945	-0.295285
C	-0.6575593899	 3.4135485287	 0.0440251413	-0.002633
C	-0.0755842922	 3.6262914427	 1.4665172363	-0.208944
C	 1.2121083845	 2.7413025231	 1.4246077699	-0.21821
C	 1.1922998522	 2.1539333063	-0.0236980251	-0.130003
C	 0.6201063325	 3.3451161022	-0.8171675277	-0.217114
H	-1.9892863022	 1.6950552756	 0.2742277587	 0.245181
H	-1.4288552361	 4.119080188	-0.2650989715	 0.077556
H	 0.1597533494	 4.6803197856	 1.6420030932	 0.103179
H	-0.7825855148	 3.3111047067	 2.2380319779	 0.101789
H	 2.1131055219	 3.3438814623	 1.5680196747	 0.105207
H	 1.2157679823	 1.9545552539	 2.1820630912	 0.120634
H	 2.1241281813	 1.6993631325	-0.3525370388	 0.084837
H	 0.4091138239	 3.1185482871	-1.864465546	 0.111978
H	 1.2323264112	 4.2482950502	-0.7464804566	 0.10055
156.9203	246.8269	405.7225	446.5814	480.3234	503.6233	599.3119	696.7234	761.7098	809.7363	820.3622	853.8075	872.2757	887.9528	944.4818	961.22	970.3255	998.8065	1039.1676	1054.4494	1119.0691	1152.6215	1181.0871	1200.9151	1233.0628	1248.4479	1286.1745	1294.3476	1310.6838	1335.8532	1358.5681	1403.0197	1486.5613	1490.2255	1511.6499	1842.6579	3054.0018	3062.6652	3066.9088	3097.0732	3115.9278	3117.3787	3123.5883	3147.407	3617.8137
O=C1NC2CCC1C2	O=C1N[C@H]2CC[C@@H]1C2	
InChI=1S/C6H9NO/c8-6-4-1-2-5(3-4)7-6/h4-5H,1-3H2,(H,7,8)	InChI=1S/C6H9NO/c8-6-4-1-2-5(3-4)7-6/h4-5H,1-3H2,(H,7,8)/t4-,5+/m1/s1
