18
gdb 51365	4.18517	0.95062	0.88366	4.5144	76.24	-0.2137	-0.0116	0.2021	1323.4856	0.146544	-401.854589	-401.846504	-401.84556	-401.888694	30.484	
O	-0.6666053545	 0.3720083322	 0.4117384142	-0.246118
C	 0.1023899707	 0.923592624	-0.3319804737	 0.14403
C	 1.1332465206	 1.9513311364	 0.0866628013	-0.274226
C	 1.2528807363	 3.0736377627	-0.9450648721	-0.035139
C	 1.3220404048	 4.5656387585	-0.7343668574	-0.087187
C	 2.3366885134	 5.0321562513	 0.348144937	-0.05483
N	 2.9633625382	 3.8454223208	 0.9874382775	-0.332959
C	 3.435479447	 4.3277238639	-0.3354804362	-0.056251
C	 2.4654389511	 3.8272154301	-1.4414354972	-0.094966
H	 0.1067328151	 0.6838117177	-1.4247736185	 0.063249
H	 0.8865993503	 2.3148189425	 1.0834464135	 0.138885
H	 2.0891016317	 1.420734208	 0.1785420299	 0.135189
H	 0.6088804185	 2.8853737483	-1.8073135765	 0.090915
H	 0.5976261083	 5.2444833636	-1.166954298	 0.092638
H	 2.3186974456	 5.9931905691	 0.8444108309	 0.097775
H	 3.6204345277	 4.1988776912	 1.6830947793	 0.230789
H	 4.4655790547	 4.6173734333	-0.4948780043	 0.096858
H	 2.7287229406	 3.8582004961	-2.4915156697	 0.091348
29.6405	66.1789	170.5437	213.2744	298.0343	391.1619	476.1677	505.9222	670.2209	704.2204	710.8541	732.1074	773.2504	835.295	847.4613	876.6975	906.6348	927.6388	968.8656	995.7542	1002.3261	1039.2846	1060.897	1066.7848	1087.0226	1119.8562	1136.431	1196.8935	1220.0832	1252.854	1261.0296	1263.2102	1316.7494	1349.8348	1377.7301	1427.5916	1435.7609	1452.7152	1836.0436	2819.8423	3043.1838	3076.659	3140.166	3179.2285	3189.2539	3196.688	3209.6543	3467.7887
O=CCC1C2C3NC3C12	O=CC[C@H]1[C@H]2[C@H]3N[C@H]3[C@@H]12	
InChI=1S/C7H9NO/c9-2-1-3-4-5(3)7-6(4)8-7/h2-8H,1H2	InChI=1S/C7H9NO/c9-2-1-3-4-5(3)7-6(4)8-7/h2-8H,1H2/t3-,4+,5-,6+,7-
