17
gdb 19949	3.6121	1.78756	1.39769	1.553	68.91	-0.2161	-0.0255	0.1906	917.3361	0.141848	-363.832485	-363.824944	-363.824	-363.864695	28.009	
O	 0.9775631481	 0.6158347887	-0.9762065586	-0.309239
C	 0.4006937927	 1.5005107284	-0.4083702914	 0.377914
C	-1.0027216396	 1.6407795493	 0.2055196638	-0.335762
C	-0.4257780855	 2.7805716295	 1.0953955048	-0.2485
C	 0.8385345267	 2.8695918115	 0.1840788704	-0.042762
N	 2.1175227124	 3.1038238997	 0.8104119985	-0.094111
C	 2.8667456999	 1.9672763119	 1.3470758557	-0.231747
C	 3.3228141368	 2.6600349024	 0.1097474282	-0.219239
H	-1.7316040617	 1.9907747547	-0.5324472696	 0.132676
H	-1.402100035	 0.7500725134	 0.6953497997	 0.130915
H	-1.0195559282	 3.6901068271	 1.1835793346	 0.113524
H	-0.1605845518	 2.4252369214	 2.0935496931	 0.121329
H	 0.6900345872	 3.6379765697	-0.5868808793	 0.107794
H	 3.362822869	 2.1521572781	 2.2955374522	 0.115802
H	 2.4630356418	 0.9657654695	 1.2247035924	 0.127076
H	 3.199290665	 2.1154312223	-0.8220425447	 0.138964
H	 4.159812832	 3.3523444225	 0.1418181701	 0.115367
72.5039	116.3571	158.4632	224.9904	330.2006	419.6158	447.8887	589.9747	642.7722	696.3227	767.0932	813.6937	852.2431	899.9934	918.6096	942.3372	1005.8648	1024.9948	1065.379	1088.5728	1100.0733	1129.8324	1134.8395	1177.53	1187.617	1196.5223	1225.0557	1243.2343	1257.0589	1328.6224	1354.829	1443.8221	1485.4421	1490.2516	1511.7575	1870.4181	3019.56	3061.7175	3082.9187	3108.6972	3112.2274	3118.9705	3145.3111	3192.8617	3206.9785
O=C1CCC1N1CC1	O=C1CC[C@H]1N1CC1	
InChI=1S/C6H9NO/c8-6-2-1-5(6)7-3-4-7/h5H,1-4H2	InChI=1S/C6H9NO/c8-6-2-1-5(6)7-3-4-7/h5H,1-4H2/t5-/m1/s1
