22
gdb 68399	2.19401	1.78712	1.5243	0.9875	80.4	-0.223	0.0623	0.2853	1031.0622	0.19483	-404.317509	-404.308856	-404.307911	-404.34973	35.413	
C	-0.0212409618	 1.518086273	 0.0607700782	-0.452535
C	 0.0190948361	-0.0165432907	 0.0321142464	 0.303103
C	-1.4208343078	-0.5349388305	-0.0918575963	-0.452473
C	 1.0043746382	-0.6086141195	-1.0400743745	-0.216825
N	 2.0166637463	-1.360023195	-0.225601938	-0.124605
C	 2.2580811758	-0.3586193772	 0.8807511765	-0.250003
C	 0.7659796548	-0.6165677187	 1.2533667538	 0.36295
O	 0.1675203479	-0.2984647659	 2.4680036802	-0.494181
C	 1.1000220002	-2.0557764758	 0.7546501764	-0.249989
H	 0.9734719208	 1.9667625645	 0.1273574248	 0.108907
H	-0.4942433498	 1.904415481	-0.8485819293	 0.109655
H	-0.603913771	 1.8695639054	 0.918131693	 0.127101
H	-1.8902442246	-0.1438749189	-1.0010486696	 0.10966
H	-1.4756158207	-1.625794	-0.1393010729	 0.10892
H	-2.020311553	-0.2076191897	 0.7634789485	 0.127087
H	 0.5140101051	-1.2979475001	-1.7329131265	 0.102506
H	 1.5116027304	 0.1644578367	-1.6238113452	 0.102525
H	 2.9661802993	-0.7674988286	 1.6076541363	 0.09519
H	 2.5857240489	 0.6307003614	 0.5550938999	 0.10268
H	 0.6767052106	-0.6989747838	 3.1798820623	 0.282461
H	 0.3249554808	-2.6824760206	 0.30889856	 0.102688
H	 1.6890583035	-2.639079357	 1.468632926	 0.09518
170.8011	193.4746	213.3126	257.0016	273.9152	300.0653	373.4609	375.9254	433.6754	463.7029	513.8754	533.7297	600.0203	641.7121	744.9112	821.7554	864.025	869.8176	928.9058	946.1284	968.3132	971.7109	992.2371	1005.43	1009.8535	1061.6207	1088.7484	1115.9126	1191.8258	1204.0809	1211.5818	1221.9853	1232.8876	1242.0516	1281.253	1307.704	1323.5958	1386.2659	1398.5264	1423.1086	1481.7107	1487.0973	1498.1034	1504.5967	1505.7895	1513.4351	1540.2616	3032.9384	3038.2431	3051.6108	3054.5114	3062.5786	3096.5049	3102.2266	3104.2957	3110.3257	3113.9249	3123.3512	3125.015	3815.1993
CC1(C)CN2CC1(O)C2	CC1(C)CN2C[C@]1(O)C2	
InChI=1S/C7H13NO/c1-6(2)3-8-4-7(6,9)5-8/h9H,3-5H2,1-2H3	InChI=1S/C7H13NO/c1-6(2)3-8-4-7(6,9)5-8/h9H,3-5H2,1-2H3
