19
gdb 117146	2.51876	0.9062	0.82231	3.7391	74.17	-0.2414	-0.0359	0.2055	1503.1671	0.154667	-460.173093	-460.162205	-460.161261	-460.211097	36.153	
C	 1.039550508	 1.3229236687	-0.69963597	-0.230404
O	 1.0877398686	-0.0841038466	-0.804146157	-0.231209
C	-0.1778365655	-0.6874632268	-0.7198014689	-0.15582
C	-0.0689844494	-2.1987339549	-0.9131953498	 0.338539
O	-0.933548144	-2.9283322454	-0.4844444031	-0.314772
C	 1.1448633512	-2.7321810718	-1.6639351117	-0.15501
C	 2.1897285489	-3.2201749496	-0.6264560306	-0.408242
C	 0.7575149531	-3.8994618512	-2.5600404476	 0.153767
O	 1.233290408	-4.0798995572	-3.6508641357	-0.253947
H	 0.43166992	 1.7660690256	-1.5030401718	 0.11385
H	 0.6230580246	 1.6433258367	 0.2670406927	 0.114642
H	 2.0647002139	 1.6892093911	-0.7846578112	 0.136839
H	-0.665938799	-0.5003765698	 0.2483434205	 0.124419
H	-0.857146957	-0.3036644575	-1.5037902836	 0.120102
H	 1.5972612984	-1.9502588268	-2.276081967	 0.11684
H	 3.0724123988	-3.606985793	-1.1421000306	 0.139606
H	 2.4936555791	-2.387574196	 0.0125683989	 0.144624
H	 1.7706982898	-4.0112228999	 0.0022362891	 0.139364
H	 0.0139812125	-4.5938871455	-2.1184159126	 0.10681
31.3629	56.1541	67.5322	85.6071	132.0998	215.9428	224.9796	239.0521	250.3537	287.1465	362.658	426.898	499.155	604.8214	645.9402	820.3039	902.2626	934.7612	969.7066	1007.341	1079.0629	1093.4481	1121.5461	1144.5914	1175.6805	1185.603	1228.6675	1246.9881	1295.1492	1338.4702	1382.5685	1394.3317	1410.6695	1470.0129	1485.3756	1489.6922	1495.6582	1503.6162	1513.7392	1800.6318	1833.069	2932.3267	2942.2667	2981.3918	3014.354	3031.3168	3045.4992	3106.5394	3125.2726	3128.3836	3131.0356
COCC(=O)C(C)C=O	COCC(=O)[C@@H](C)C=O	
InChI=1S/C6H10O3/c1-5(3-7)6(8)4-9-2/h3,5H,4H2,1-2H3	InChI=1S/C6H10O3/c1-5(3-7)6(8)4-9-2/h3,5H,4H2,1-2H3/t5-/m0/s1
