14
gdb 20570	4.633	1.38477	1.35499	2.627	58.95	-0.2767	-0.0455	0.2312	936.1158	0.106312	-415.833411	-415.825933	-415.824989	-415.865798	26.772	
C	 0.0032847476	 1.5435561078	-0.0282620432	-0.402572
C	 0.0054432327	 0.013169919	 0.053078998	 0.011372
O	 0.6606997479	-0.4483899129	 1.2277665701	-0.424053
C	-1.3829798106	-0.5526926886	-0.035352668	 0.276355
C	-2.0024537052	-1.3601012493	-0.933024217	-0.067584
O	-3.2520350826	-1.5874716426	-0.5307132758	-0.161082
N	-3.4089261353	-0.8791515639	 0.6979140033	 0.00065
N	-2.3220453458	-0.3002346647	 0.9466188823	-0.184425
H	 1.0249430063	 1.9165830264	 0.0785894485	 0.129402
H	-0.4022588089	 1.8875578988	-0.9849578549	 0.120547
H	-0.6125144478	 1.9671035413	 0.7717621869	 0.13355
H	 0.5922731243	-0.3928179531	-0.7777107304	 0.10079
H	 0.1194605988	-0.1849874215	 1.981528863	 0.293458
H	-1.6892627914	-1.8238797068	-1.8538792429	 0.173592
46.8666	144.7811	189.8128	257.176	325.423	350.4073	442.242	507.1581	638.6812	648.9949	686.3888	748.3552	856.7831	904.3783	984.4014	1016.065	1035.8244	1089.313	1107.1345	1150.4996	1257.5314	1263.7548	1324.9672	1373.3227	1402.7234	1425.2852	1465.4333	1489.2409	1495.3324	1617.9633	3039.1222	3059.8474	3112.8114	3127.6097	3285.0431	3795.0737
CC(O)C1=CON=N1	C[C@@H](O)c1conn1	
InChI=1S/C4H6N2O2/c1-3(7)4-2-8-6-5-4/h2-3,7H,1H3	InChI=1S/C4H6N2O2/c1-3(7)4-2-8-6-5-4/h2-3,7H,1H3/t3-/m1/s1
