21
gdb 114482	2.96006	1.28433	1.16583	1.8027	82.48	-0.237	0.0126	0.2496	1183.2871	0.184103	-387.091074	-387.082861	-387.081917	-387.124061	31.959	
C	 0.377017312	 1.4439953093	 0.1318212762	-0.383592
C	 0.155764744	-0.0707546731	 0.0633316068	-0.191019
C	 0.5210171506	-0.63042764	-1.3022000946	 0.156857
O	 1.9240860242	-0.4347701787	-1.6260608201	-0.318218
C	 2.1220285039	-1.8603851047	-1.8196557777	 0.098136
C	 2.8742279705	-2.5365930162	-0.7059719877	-0.083655
C	 2.0543277043	-3.2108417575	 0.1009716597	-0.056672
C	 0.6022624487	-3.1259178079	-0.3168115775	-0.281229
C	 0.6326910196	-2.1669401354	-1.5246312387	-0.121754
H	 1.418212403	 1.6842394662	-0.1004559011	 0.138381
H	-0.2583905642	 1.9712353626	-0.5885495608	 0.11093
H	 0.148051354	 1.8330565941	 1.1283592231	 0.108202
H	 0.7593796098	-0.5648040866	 0.8325952268	 0.103895
H	-0.895991641	-0.3095188326	 0.2712563022	 0.091247
H	-0.10246071	-0.1464393872	-2.0685544296	 0.067788
H	 2.525527707	-2.0610128855	-2.8190171264	 0.073645
H	 3.9495732519	-2.4591904879	-0.5929685444	 0.097954
H	 2.3670993727	-3.7746606474	 0.9742128741	 0.096663
H	 0.2099193001	-4.1121499143	-0.5965553946	 0.106233
H	-0.037928126	-2.768001775	 0.4985809824	 0.110518
H	 0.0338671649	-2.5236683922	-2.3624934081	 0.07569
73.2396	118.679	174.0772	232.2433	269.5064	301.5182	448.9099	471.803	499.3498	644.5605	735.2446	765.706	780.1624	816.3964	863.1522	878.1055	929.3383	948.9737	962.8036	973.9826	978.8617	1005.6643	1022.2827	1039.8257	1104.0465	1116.393	1126.0345	1141.8859	1193.3813	1224.1318	1260.0277	1285.9661	1292.3722	1313.5539	1330.4485	1342.2107	1353.0042	1379.9397	1404.4821	1416.0908	1476.2438	1490.5275	1498.1549	1509.7421	1676.9143	2986.849	3019.8996	3022.9601	3035.2265	3035.8728	3052.0436	3071.6667	3102.8333	3107.8489	3120.4484	3178.2168	3208.0926
CCC1OC2C=CCC12	CC[C@H]1O[C@H]2C=CC[C@@H]12	
InChI=1S/C8H12O/c1-2-7-6-4-3-5-8(6)9-7/h3,5-8H,2,4H2,1H3	InChI=1S/C8H12O/c1-2-7-6-4-3-5-8(6)9-7/h3,5-8H,2,4H2,1H3/t6-,7+,8-/m0/s1
