27
gdb 59980	2.8362	0.78348	0.72339	1.3372	92.63	-0.2597	0.0672	0.3268	1791.3944	0.249189	-390.709023	-390.696948	-390.696004	-390.746603	44.556	
C	 0.9268602049	-0.333466444	-1.1189615874	-0.387655
C	 0.058960563	 0.0322315947	 0.0934612883	 0.051851
C	 0.0252516855	 1.5538398781	 0.2897895486	-0.392843
C	-1.3720771149	-0.5280186032	-0.0185995473	-0.213501
C	-1.4760355717	-2.0567324787	 0.0715630067	 0.123876
O	-0.9216773364	-2.5441053166	 1.2958210414	-0.43674
C	-2.9069892819	-2.5995169463	-0.1647694683	 0.037695
C	-2.8742582517	-4.1261563502	-0.3182726375	-0.394986
C	-3.8952853734	-2.1885367809	 0.9371879351	-0.407884
H	 1.9364569897	 0.0770321804	-1.0125247953	 0.10985
H	 1.0269685233	-1.4153823026	-1.244618749	 0.119098
H	 0.5002528133	 0.0744457232	-2.0438936116	 0.106743
H	 0.513953726	-0.4200954066	 0.9835821979	 0.082877
H	-0.4355266347	 2.0522164923	-0.5720990202	 0.108995
H	-0.5512005887	 1.831028975	 1.1791419856	 0.10484
H	 1.0352268587	 1.9612198841	 0.4050965735	 0.108831
H	-1.9837135524	-0.0856753443	 0.7804506128	 0.080974
H	-1.8232313654	-0.1947783968	-0.9638322479	 0.089518
H	-0.8356033171	-2.4994303872	-0.70073744	 0.082201
H	-1.3825157815	-2.1061888761	 2.0196746217	 0.278271
H	-3.2538203407	-2.1638383378	-1.1122498025	 0.068888
H	-2.4566896993	-4.5889642978	 0.5810123488	 0.12764
H	-3.8785230423	-4.53096463	-0.4799209106	 0.103474
H	-2.2506545672	-4.4262265573	-1.1672426365	 0.10748
H	-3.5941256878	-2.5971355106	 1.9091124402	 0.109558
H	-3.9872709652	-1.1027239414	 1.0359182686	 0.114419
H	-4.8932060921	-2.5828092691	 0.7222826651	 0.116529
31.2916	76.0117	101.2643	137.9502	216.5068	218.5406	237.4295	248.2253	253.4811	288.2678	306.0499	324.6406	363.3813	387.5569	420.7623	447.846	538.7802	608.9823	796.2358	837.7024	855.2555	918.9297	928.7324	940.7551	958.6571	966.1261	967.6736	1009.4887	1039.0914	1098.4435	1115.8709	1130.6958	1175.2294	1194.2435	1203.2658	1235.0181	1288.933	1306.3099	1332.8892	1361.4327	1364.0692	1381.8098	1395.3707	1396.7988	1401.5895	1416.884	1422.053	1426.1545	1475.9752	1487.7018	1489.2318	1494.6735	1496.7537	1505.4017	1508.8611	1510.7826	1515.1299	2998.8558	3008.7245	3020.8237	3022.0815	3027.3513	3030.1311	3032.8204	3036.2578	3049.883	3084.9209	3091.6867	3094.3455	3096.3954	3097.9773	3107.0129	3107.3791	3113.3756	3804.2924
CC(C)CC(O)C(C)C	CC(C)C[C@@H](O)C(C)C	
InChI=1S/C8H18O/c1-6(2)5-8(9)7(3)4/h6-9H,5H2,1-4H3	InChI=1S/C8H18O/c1-6(2)5-8(9)7(3)4/h6-9H,5H2,1-4H3/t8-/m1/s1
