16
gdb 48827	2.57366	1.66662	1.18673	4.8263	70.06	-0.2428	-0.0359	0.2069	1033.2905	0.123673	-437.888874	-437.880955	-437.880011	-437.921855	29.205	
O	-0.3525014679	 0.1977025501	 0.486479765	-0.232225
C	-0.082227191	 1.2903427252	 0.0683799603	 0.096378
C	 1.2852463498	 1.8918921854	 0.0311894201	 0.095951
C	 1.4418971093	 3.3614353697	 0.3514643654	-0.267038
N	 1.5249434211	 2.9212824967	-1.0165847112	-0.131059
C	 2.9173037548	 2.7330854359	-1.513458358	-0.166964
C	 3.6612021275	 1.787935622	-0.5549137975	-0.358582
C	 2.55073765	 1.1003262887	 0.2614334067	 0.35505
O	 2.6704316649	 0.1135550448	 0.9332425093	-0.291546
H	-0.8546408493	 1.975858416	-0.3492126465	 0.085069
H	 0.5499430243	 3.9274005267	 0.6081653512	 0.140037
H	 2.3414386268	 3.6568864928	 0.8881413248	 0.133141
H	 2.836450224	 2.2922957832	-2.5104477789	 0.129936
H	 3.3882531168	 3.7137375433	-1.6183636141	 0.123635
H	 4.2540060063	 1.0298238727	-1.0700584069	 0.148053
H	 4.3381162628	 2.3035000269	 0.1347164204	 0.140163
59.3118	118.3786	169.7967	222.3067	280.7929	411.1796	439.8683	445.1908	561.4727	631.2892	654.7528	688.4011	772.4893	815.0213	892.8684	929.7984	976.8656	1001.9392	1020.5572	1049.538	1066.3137	1118.0222	1151.5405	1199.2753	1243.951	1279.9147	1292.3663	1334.3201	1362.8097	1423.7633	1457.5463	1499.0414	1511.3988	1820.0287	1868.4945	2874.8164	3058.7096	3065.5003	3099.1066	3106.8743	3124.0695	3186.6828
O=CC12CN1CCC2=O	O=C[C@]12CN1CCC2=O	
InChI=1S/C6H7NO2/c8-4-6-3-7(6)2-1-5(6)9/h4H,1-3H2	InChI=1S/C6H7NO2/c8-4-6-3-7(6)2-1-5(6)9/h4H,1-3H2/t6-,7?/m0/s1
