18
gdb 55932	4.07673	0.94691	0.86798	1.871	71.46	-0.2461	0.0328	0.2789	1338.7366	0.14661	-439.079843	-439.07077	-439.069826	-439.115743	32.478	
N	-0.1241933902	 1.2911667514	 0.2682658102	-0.525277
C	 0.0718747202	-0.0522019796	 0.1250346179	 0.418191
O	 1.1758426787	-0.5589818614	 0.1946171823	-0.362221
C	-1.1959675308	-0.8572015808	-0.1548779554	-0.342799
C	-0.9779496697	-2.3496486532	 0.0389170496	 0.013683
C	-0.7635708411	-2.8923808449	 1.5020874308	-0.25916
C	-2.0145437871	-3.7574932435	 1.3124366573	 0.033863
O	-3.1028398346	-2.8687295095	 1.0179682042	-0.251133
C	-2.2250064195	-3.2473916586	-0.0512053469	-0.009657
H	 0.6746313846	 1.8760491087	 0.4499485602	 0.259366
H	-1.0388673868	 1.7061769911	 0.2581134153	 0.258317
H	-2.0158130156	-0.5163845742	 0.4871372531	 0.12445
H	-1.5025841991	-0.6494772243	-1.189703022	 0.122329
H	-0.1746372525	-2.7018887236	-0.6109368743	 0.096836
H	 0.1618851446	-3.4623411721	 1.5990990359	 0.116333
H	-0.8274398244	-2.1623825055	 2.3129859802	 0.106341
H	-2.2687317281	-4.7140034681	 1.7541394314	 0.103095
H	-2.6804706686	-3.7053775719	-0.9224620797	 0.097443
18.4787	69.3435	87.5709	122.1768	195.826	307.5273	358.2682	446.7004	509.9703	563.8897	604.25	648.2327	734.4321	822.5918	841.1992	850.4942	862.7705	890.7684	939.6027	958.117	1000.9296	1037.9066	1066.5391	1082.3389	1117.3287	1152.0433	1197.2285	1232.1699	1238.3216	1240.1367	1264.1818	1289.4329	1355.8282	1387.1243	1408.2427	1463.2296	1474.7164	1616.4975	1792.4562	3018.2365	3069.8961	3072.6671	3099.9044	3132.7044	3173.6286	3191.8539	3604.4365	3741.9524
NC(=O)CC1CC2OC12	NC(=O)C[C@H]1C[C@H]2O[C@@H]12	
InChI=1S/C6H9NO2/c7-5(8)2-3-1-4-6(3)9-4/h3-4,6H,1-2H2,(H2,7,8)	InChI=1S/C6H9NO2/c7-5(8)2-3-1-4-6(3)9-4/h3-4,6H,1-2H2,(H2,7,8)/t3-,4-,6+/m1/s1
