22
gdb 6559	3.59077	1.28607	1.24674	1.0589	78.76	-0.2347	0.0815	0.3162	1140.0245	0.197238	-350.192582	-350.182967	-350.182023	-350.22676	36.401	
C	 0.013886473	 1.5405973858	 0.3508363415	-0.412717
C	 0.0405050178	 0.0477535675	-0.0148625549	 0.367953
C	 0.801788665	-0.7576294147	 1.0479606481	-0.407499
C	-1.3884740515	-0.4824086597	-0.1643950902	-0.398271
O	 0.6041814014	-0.1445966737	-1.3287499492	-0.290572
C	 1.9272872416	 0.2345199138	-1.5402602228	 0.145789
C	 3.0381659156	-0.7809323491	-1.4147728132	-0.285554
C	 2.5638279266	-0.3166731244	-2.7767502651	-0.290899
H	 1.0179638328	 1.9394155197	 0.5226094002	 0.113202
H	-0.4572596508	 2.1187385112	-0.4495604206	 0.119647
H	-0.5593377124	 1.6944730323	 1.2702138374	 0.112603
H	 0.3125551152	-0.652686804	 2.0216476659	 0.109994
H	 0.819034827	-1.8198829918	 0.7869046254	 0.114667
H	 1.8334046397	-0.4115293765	 1.1504173727	 0.119649
H	-1.9234797073	 0.08168872	-0.9335141571	 0.118252
H	-1.3715886384	-1.5341181909	-0.4635527376	 0.116806
H	-1.9366719313	-0.3954940142	 0.7782598669	 0.107585
H	 2.1625361753	 1.265023816	-1.2801054914	 0.082207
H	 4.00835639	-0.4535983024	-1.0556032888	 0.107247
H	 2.7554690747	-1.7827423055	-1.1136398038	 0.116833
H	 1.9641187038	-1.0125774097	-3.3523046299	 0.122726
H	 3.2024151823	 0.3312985403	-3.3663844134	 0.110352
39.257	109.4914	183.0276	201.2565	258.4918	267.4125	304.0333	327.9903	344.4135	392.8649	435.6934	479.9246	519.6051	728.2826	765.2369	809.9066	826.9591	903.0045	908.8859	921.5402	956.1197	967.3741	1024.4778	1040.2247	1049.8396	1058.6839	1070.0352	1129.8547	1193.234	1194.7904	1223.7312	1239.7491	1253.4738	1279.3319	1390.3129	1393.0671	1404.8625	1421.7705	1452.0783	1470.4417	1484.0013	1485.8063	1494.0748	1497.1523	1501.5916	1520.0067	3036.9275	3039.0776	3046.2065	3104.8958	3108.6657	3112.4495	3117.1227	3119.7401	3121.7856	3122.2701	3132.6674	3140.3235	3218.6214	3233.3436
CC(C)(C)OC1CC1	CC(C)(C)OC1CC1	
InChI=1S/C7H14O/c1-7(2,3)8-6-4-5-6/h6H,4-5H2,1-3H3	InChI=1S/C7H14O/c1-7(2,3)8-6-4-5-6/h6H,4-5H2,1-3H3
