15
gdb 74631	3.29667	1.84235	1.63099	1.1907	65.03	-0.215	0.0173	0.2323	846.8522	0.11581	-453.932157	-453.925939	-453.924994	-453.962405	26.004	
N	 0.0101357603	 1.3373057591	 0.1352465744	-0.588738
C	-0.0265793039	-0.0312946509	 0.0228712003	 0.450277
N	-1.1245852473	-0.6992815394	 0.0021837924	-0.313139
C	-0.9034171439	-2.1049359425	-0.0279269238	-0.065444
C	 0.3192279642	-2.6803276292	 0.7031980866	 0.019431
O	 1.2427180916	-1.6982095482	 1.1104449102	-0.240881
C	 1.2703174248	-0.8095999611	-0.0007104433	 0.018002
O	 1.2348824655	-1.6386313473	-1.1580251245	-0.245269
C	 0.314388889	-2.6424592025	-0.7944937379	 0.017749
H	 0.7989714664	 1.8102958414	-0.2777899595	 0.254635
H	-0.8774071837	 1.7932780716	-0.0256357051	 0.258024
H	-1.7993442072	-2.716304411	-0.0409611475	 0.099012
H	 0.2975920154	-3.5488953722	 1.3455605779	 0.119164
H	 2.1919004761	-0.225668098	 0.0142690723	 0.09895
H	 0.2894959827	-3.4775690896	-1.4797427726	 0.118227
179.0173	335.4804	357.1279	407.5501	461.8546	537.7343	558.539	608.5106	716.0844	733.6587	749.8408	773.069	795.2844	818.0451	893.8517	936.5448	964.7754	1004.2633	1006.7821	1050.6559	1058.3974	1098.0701	1105.8822	1138.9681	1236.2334	1245.0013	1281.0861	1330.8982	1340.7073	1365.0145	1450.0584	1626.0841	1701.1129	3112.5331	3166.4698	3219.2974	3228.0599	3563.2241	3678.7508
NC1=NC2C3OC1OC23	N[C]1[N][C@@H]2[C@@H]3O[C@H]1O[C@H]23	
InChI=1S/C5H6N2O2/c6-4-5-8-2-1(7-4)3(2)9-5/h1-3,5H,(H2,6,7)	InChI=1S/C5H6N2O2/c6-4-5-8-2-1(7-4)3(2)9-5/h1-3,5H,(H2,6,7)/t1-,2+,3-,5+
