14
gdb 7300	4.46681	1.18407	1.01028	6.006	58.81	-0.2819	-0.0091	0.2728	1093.0464	0.106286	-415.904565	-415.89605	-415.895106	-415.938278	29.869	
N	-0.0026543179	 1.2734910001	-0.0896344435	-0.51746
C	 0.041846669	-0.0777993586	 0.0011334165	 0.374916
O	 1.0732310797	-0.715781444	 0.1176123199	-0.36252
C	-1.3092601685	-0.8187543457	-0.0020076525	 0.03942
O	-1.076712464	-2.1758971093	-0.2132274947	-0.41926
C	-2.0282559359	-0.5839169063	 1.3563342986	-0.349322
C	-3.3426289704	-1.2171132456	 1.3941927846	 0.272492
N	-4.3936868486	-1.6958167949	 1.416657109	-0.299119
H	 0.8687775376	 1.7774621633	-0.1398506512	 0.275761
H	-0.8461933183	 1.758029512	-0.3451033412	 0.271615
H	-1.9460621942	-0.4255054788	-0.8070317234	 0.105943
H	-0.1193781621	-2.2895623568	-0.0791170062	 0.299115
H	-1.4035298276	-0.9987789091	 2.1545960849	 0.165509
H	-2.1475224886	 0.4873277236	 1.5534627294	 0.14291
54.0619	72.338	136.0814	220.8519	311.5001	319.5633	372.1846	394.4687	443.102	499.2851	539.6493	567.0759	660.5584	722.7034	860.9601	879.4687	972.312	1031.0917	1097.9006	1139.5498	1231.6521	1247.0132	1319.9656	1361.024	1370.8103	1453.6194	1468.7344	1624.1952	1795.0561	2366.9471	3011.8706	3047.5668	3094.2808	3594.5955	3647.4017	3724.8006
NC(=O)C(O)CC#N	NC(=O)[C@@H](O)CC#N	
InChI=1S/C4H6N2O2/c5-2-1-3(7)4(6)8/h3,7H,1H2,(H2,6,8)	InChI=1S/C4H6N2O2/c5-2-1-3(7)4(6)8/h3,7H,1H2,(H2,6,8)/t3-/m0/s1
