17
gdb 70500	2.73401	1.52421	1.13188	1.0641	83.29	-0.2241	-0.022	0.2021	1091.1572	0.134828	-384.655305	-384.647056	-384.646112	-384.687691	32.433	
O	-0.0186293453	 1.4116436453	 0.114175881	-0.457063
C	 0.0070157051	 0.0234039594	 0.0735905443	 0.293733
C	-0.3671291905	-0.7287745847	-1.1834924893	-0.340819
C	-1.2664840563	-0.7811617362	 0.040192387	-0.094637
C	-1.104973267	-1.9537241082	 1.0053229058	-0.269878
C	 0.3176175438	-1.8215984056	 1.4976671074	-0.1891
C	 0.9240113209	-0.7258591113	 1.0110996456	 0.156108
C	 2.2386323887	-0.2693320743	 1.2641796092	 0.187135
C	 3.3441440989	 0.1803249286	 1.4354320842	-0.431268
H	 0.8180560692	 1.7324174661	-0.2421729911	 0.288343
H	-0.7353191336	-0.1260656739	-2.0072382367	 0.114893
H	 0.2067606862	-1.6054431804	-1.4679771205	 0.111628
H	-2.2195558631	-0.2710267273	-0.024804515	 0.09971
H	-1.818675449	-1.9000290758	 1.8385908394	 0.117939
H	-1.277077554	-2.9221304592	 0.5170710151	 0.116386
H	 0.7886166473	-2.5493328212	 2.1475725351	 0.102841
H	 4.3227314087	 0.5543453387	 1.6083588184	 0.19405
119.9004	123.8796	238.6009	260.365	283.9416	352.194	399.8096	428.8276	507.7119	541.7843	580.6169	641.1924	647.7206	682.2031	732.4332	824.238	833.2112	848.4026	916.7718	948.2017	972.8434	1014.109	1042.0657	1077.2723	1078.2048	1133.2507	1185.1123	1220.4184	1254.421	1305.3304	1322.6677	1350.4676	1404.2984	1467.2129	1482.6805	1661.7973	2218.6885	3014.3378	3040.468	3120.7197	3190.3203	3207.5204	3215.4481	3501.8239	3789.3044
OC12CC1CC=C2C#C	O[C@]12C[C@H]1CC=C2C#C	
InChI=1S/C8H8O/c1-2-6-3-4-7-5-8(6,7)9/h1,3,7,9H,4-5H2	InChI=1S/C8H8O/c1-2-6-3-4-7-5-8(6,7)9/h1,3,7,9H,4-5H2/t7-,8+/m1/s1
