19
gdb 121682	7.32933	0.53374	0.50424	3.9885	79.06	-0.249	-0.0157	0.2333	2104.0172	0.154671	-423.003432	-422.992486	-422.991542	-423.041649	37.367	
O	 0.1223007691	 1.3956098067	 0.0561864451	-0.418505
C	 0.0894684472	-0.0176716921	-0.0531891848	-0.076981
C	-1.3630201061	-0.45889501	 0.0673563734	-0.165376
C	-1.521422044	-1.9745308306	-0.0302708358	-0.308359
C	-2.9708648424	-2.4401172247	 0.0373475648	 0.375129
O	-3.9032305184	-1.6789660761	 0.0240413228	-0.269994
C	-3.1489357144	-3.9691531004	 0.1305278573	-0.479513
C	-4.5205340644	-4.4296309355	 0.0081384057	 0.324966
C	-5.6521941339	-4.8165110897	-0.0958056695	-0.423119
H	 1.0364377354	 1.6837818919	-0.0197068832	 0.286256
H	 0.502812555	-0.3538216506	-1.019335184	 0.082295
H	 0.6931942616	-0.4936094484	 0.7382073862	 0.081331
H	-1.7667119359	-0.1013748676	 1.0200976462	 0.12069
H	-1.953590926	 0.0262258023	-0.7152134726	 0.127979
H	-1.1026047764	-2.35255163	-0.9752094768	 0.125211
H	-0.9535142753	-2.4895984818	 0.7574627623	 0.117553
H	-2.5097170129	-4.4383651656	-0.6295088671	 0.146999
H	-2.7223464354	-4.2824234579	 1.0945450971	 0.154434
H	-6.6560297228	-5.1497618699	-0.1881896471	 0.199005
26.9694	37.4265	74.988	89.6014	127.4296	162.4623	262.614	277.7367	305.4699	320.812	395.308	459.3191	493.5725	625.208	644.7756	694.7403	727.468	810.927	859.0829	921.5632	954.6364	1024.4476	1050.0907	1071.6325	1093.1087	1099.5801	1196.553	1233.0238	1238.3675	1299.18	1303.1018	1312.8042	1331.7792	1388.8274	1437.0396	1455.1022	1466.7355	1493.6744	1527.4159	1829.2057	2250.1743	2949.4556	2973.116	3002.2237	3012.5293	3031.868	3043.0393	3061.3722	3105.8092	3507.6198	3831.5172
OCCCC(=O)CC#C	OCCCC(=O)CC#C	
InChI=1S/C7H10O2/c1-2-4-7(9)5-3-6-8/h1,8H,3-6H2	InChI=1S/C7H10O2/c1-2-4-7(9)5-3-6-8/h1,8H,3-6H2
