18
gdb 10194	2.32682	1.69242	1.12627	3.7363	68.95	-0.2384	0.0282	0.2666	1105.3877	0.152634	-381.103461	-381.093826	-381.092882	-381.138595	32.647	
C	 0.3018797106	 1.156198751	 0.4469309924	-0.323639
N	-0.3920175915	 0.1919998608	-0.4012188771	-0.27124
C	 0.4608016761	-0.4746026714	-1.3790823755	-0.134699
C	 1.363092713	-1.5858252952	-0.777507652	-0.088206
O	 0.6140880635	-2.4819916677	 0.0122582484	-0.242406
C	 0.273459128	-3.7088544798	-0.6179068146	-0.255215
C	-0.3767194572	-1.0156107009	-2.4668324514	 0.302889
N	-1.013151273	-1.459106782	-3.323433975	-0.332978
H	 1.1452170866	 0.7500718874	 1.0295048582	 0.10592
H	 0.6829299184	 1.9761287056	-0.1718233055	 0.127855
H	-0.4168451344	 1.5815236411	 1.1522710822	 0.132468
H	-0.8282576723	-0.5280419229	 0.1669292946	 0.236628
H	 1.1172083757	 0.2803525189	-1.8321498734	 0.124836
H	 1.9165499984	-2.1044798134	-1.5719515214	 0.10933
H	 2.0923034061	-1.1037174457	-0.1165310446	 0.115946
H	-0.3700383987	-3.5640953062	-1.4930171344	 0.146079
H	 1.1750211884	-4.2574347924	-0.9258154613	 0.1134
H	-0.2630941077	-4.3023705672	 0.1257755003	 0.133033
54.0112	79.2323	112.1813	150.0723	168.8876	202.029	219.1641	279.2379	385.4783	420.1995	439.5723	560.4123	690.4516	742.0608	839.2188	916.4217	959.4763	1010.9885	1080.658	1122.9127	1152.4814	1162.1241	1181.2197	1200.2865	1230.9943	1287.5585	1308.8631	1355.484	1395.6991	1459.2834	1475.1478	1486.4468	1494.259	1498.4866	1503.9496	1512.8693	1523.2244	2356.1782	2967.1916	2999.9703	3013.5092	3033.3563	3062.8759	3069.7177	3074.9037	3112.7665	3125.4543	3521.5032
CNC(COC)C#N	CN[C@@H](COC)C#N	
InChI=1S/C5H10N2O/c1-7-5(3-6)4-8-2/h5,7H,4H2,1-2H3	InChI=1S/C5H10N2O/c1-7-5(3-6)4-8-2/h5,7H,4H2,1-2H3/t5-/m1/s1
