18
gdb 7599	2.76865	1.639	1.47129	3.398	64.07	-0.247	0.0596	0.3066	964.4074	0.150942	-422.05012	-422.041019	-422.040075	-422.083163	34.334	
C	 0.1219465925	 1.3747913911	-0.3663866062	-0.406489
C	 0.0475685486	-0.0549096078	 0.1835031991	 0.098978
O	 0.5341691565	-0.1097864249	 1.516161259	-0.440711
C	-1.3669519659	-0.6127238995	 0.1432276671	 0.352576
O	-2.2131023398	-0.0257077592	 1.1083550387	-0.477259
C	-1.9967501285	-1.0764702401	-1.1519422244	-0.397678
C	-1.614025533	-2.069929407	-0.0672091536	 0.060518
O	-0.5035253114	-2.8936973512	-0.2458059297	-0.413373
H	 1.1416602872	 1.7545480918	-0.2666353489	 0.127458
H	-0.166966039	 1.4157587586	-1.4218957269	 0.109531
H	-0.5361699357	 2.0461982944	 0.1985190528	 0.095519
H	 0.6932897762	-0.7107122556	-0.4076639191	 0.098849
H	-0.2113650436	 0.1370228255	 2.0783444081	 0.281352
H	-2.5040361793	 0.8276693287	 0.7671042012	 0.287989
H	-3.0508156268	-0.8731675507	-1.3084978046	 0.113385
H	-1.3778751269	-1.0560491464	-2.0434569382	 0.117502
H	-2.4296729833	-2.4933613238	 0.5176628915	 0.101034
H	-0.7310709579	-3.5612754938	-0.901180116	 0.29082
80.6683	156.9493	209.1323	236.0582	256.151	282.4118	295.7139	338.7782	400.0543	424.0748	456.3127	471.3204	534.7668	594.6102	723.8034	830.1481	887.7171	921.2259	939.4027	982.9535	1023.7579	1028.166	1087.1716	1101.4985	1116.2231	1171.9756	1236.3409	1260.5831	1297.462	1315.4897	1331.2644	1372.7934	1395.6266	1414.5735	1439.1656	1487.963	1497.9358	1500.1017	3025.5612	3073.5344	3096.8149	3114.4562	3122.8621	3126.763	3220.766	3770.6863	3794.9937	3809.0299
CC(O)C1(O)CC1O	C[C@@H](O)[C@@]1(O)C[C@H]1O	
InChI=1S/C5H10O3/c1-3(6)5(8)2-4(5)7/h3-4,6-8H,2H2,1H3	InChI=1S/C5H10O3/c1-3(6)5(8)2-4(5)7/h3-4,6-8H,2H2,1H3/t3-,4-,5+/m1/s1
