19
gdb 77599	2.35942	1.65412	1.35482	1.8486	76.28	-0.2188	0.0133	0.2321	1039.9649	0.158103	-423.015199	-423.006399	-423.005455	-423.047917	34.385	
C	-0.0327398806	 1.5248709195	 0.0299253392	-0.472612
C	 0.0456102976	 0.0181294969	 0.0048999348	 0.213015
C	 0.4477868001	-0.6745967088	-1.3054175305	-0.337973
C	 1.2846176942	-1.8581170888	-0.8671553996	-0.072857
C	 1.4352664483	-1.9046251844	 0.4579793206	-0.157091
C	 0.6817168168	-0.8063169246	 1.1213218654	 0.283774
O	 1.180883726	-0.1630105934	 2.2656821627	-0.483166
C	-0.827329325	-0.8003484488	 0.9513737125	 0.032515
O	-1.5682084166	-0.135541992	 1.9270518906	-0.44182
H	 0.9508914503	 1.9765467993	-0.1374698012	 0.117828
H	-0.7055516327	 1.8830912657	-0.7575745785	 0.117306
H	-0.4206569273	 1.8897168609	 0.9822020833	 0.123783
H	-0.4337396178	-0.9897601556	-1.8798351704	 0.113167
H	 1.0158391515	-0.0012210326	-1.9627655688	 0.107855
H	 1.6824442335	-2.5828145946	-1.5683520362	 0.098595
H	 1.9852779549	-2.6581954625	 1.0119359741	 0.091806
H	 1.2873657439	-0.8270662037	 2.9571876934	 0.290373
H	-1.3280614395	-1.6939401682	 0.5841481515	 0.091867
H	-0.9279877176	 0.1803273055	 2.5803172169	 0.283636
126.2031	172.6954	193.1737	240.5019	259.8135	267.8984	302.0777	386.2325	443.2481	481.5206	506.3067	541.6975	642.8138	698.6885	720.1824	771.5324	788.1113	902.2955	923.4775	945.3556	969.0352	984.0494	1043.7556	1070.7218	1099.6084	1124.3179	1164.7682	1183.9259	1204.3826	1245.272	1262.5533	1312.3055	1326.3142	1378.6539	1396.2606	1416.3387	1442.3724	1478.424	1488.4611	1499.2602	1670.0852	3005.2276	3033.0656	3034.8526	3088.071	3124.6377	3134.7302	3179.0176	3207.1973	3733.175	3784.7427
CC12CC=CC1(O)C2O	C[C@@]12CC=C[C@]1(O)[C@H]2O	
InChI=1S/C7H10O2/c1-6-3-2-4-7(6,9)5(6)8/h2,4-5,8-9H,3H2,1H3	InChI=1S/C7H10O2/c1-6-3-2-4-7(6,9)5(6)8/h2,4-5,8-9H,3H2,1H3/t5-,6-,7-/m0/s1
