24
gdb 78226	2.18749	1.48751	1.21724	1.5067	89.26	-0.2207	0.0769	0.2975	1215.2475	0.215879	-368.377996	-368.367973	-368.367029	-368.41183	39.015	
C	 2.032224083	 2.2078785391	 0.5052108267	-0.429515
C	 1.6488591243	 0.7444872398	 0.526998288	 0.015738
C	 1.1491122843	-0.1272146821	-0.5595462843	-0.089113
N	 2.5058320267	-0.3824009233	 0.0998962101	-0.166927
C	 3.1588862571	-0.0078200626	-1.2162856572	 0.01897
C	 4.209272891	-1.0280342289	-1.6189707435	-0.409298
C	 1.776042668	 0.0312919161	-1.9537765407	 0.30785
C	 1.48587503	-1.2246291958	-2.7856214097	-0.433661
C	 1.4354134322	 1.2713354903	-2.7831243996	-0.460099
H	 2.5309994842	 2.5290191217	-0.4084422612	 0.12616
H	 1.1370529918	 2.8266335768	 0.629523643	 0.12265
H	 2.7035881409	 2.4245184992	 1.3436981745	 0.123693
H	 1.1932283666	 0.4779192516	 1.4817523025	 0.091628
H	 0.3135630227	-0.8016099216	-0.3784557835	 0.080504
H	 3.6372937702	 0.9770374906	-1.174218222	 0.063584
H	 3.8156520486	-2.0467693168	-1.608353275	 0.122254
H	 4.6008239015	-0.8148250047	-2.6195874171	 0.108517
H	 5.0443763674	-0.9899928704	-0.9121955333	 0.120146
H	 1.6525802908	-2.1428931349	-2.2166849226	 0.125349
H	 0.4385140796	-1.2229171754	-3.1089280196	 0.109722
H	 2.1091410764	-1.2607077514	-3.6852447078	 0.112202
H	 2.0405539882	 1.2990191867	-3.6972334094	 0.111832
H	 0.3828966188	 1.2552982614	-3.0887765926	 0.113294
H	 1.6062107658	 2.2042981547	-2.2431020857	 0.114521
111.4796	174.9687	180.8496	199.7838	221.4688	245.194	248.8828	306.5755	321.0372	345.167	389.6142	407.4792	542.4036	606.1396	610.9734	691.8165	762.4059	785.7461	872.6528	905.3494	927.0794	945.8602	978.5174	1005.2079	1024.275	1066.3508	1068.2898	1078.4143	1106.8266	1127.4991	1181.7056	1200.5186	1235.7596	1241.9248	1271.0217	1288.7153	1372.4184	1376.983	1399.8422	1406.4397	1415.8756	1424.7965	1445.026	1478.209	1483.3878	1487.5548	1495.7096	1498.5268	1502.7136	1508.3682	1516.7918	3025.8163	3030.9708	3033.2343	3038.6484	3042.458	3083.1921	3091.898	3092.2022	3093.5045	3102.2227	3113.2864	3117.7273	3124.1554	3130.3919	3149.4236
CC1C2N1C(C)C2(C)C	C[C@H]1[C@@H]2N1[C@@H](C)C2(C)C	
InChI=1S/C8H15N/c1-5-7-8(3,4)6(2)9(5)7/h5-7H,1-4H3	InChI=1S/C8H15N/c1-5-7-8(3,4)6(2)9(5)7/h5-7H,1-4H3/t5-,6-,7-,9?/m0/s1
