17
gdb 101512	4.50156	0.58879	0.54238	1.2931	87.35	-0.2386	-0.0104	0.2281	1960.492	0.132401	-421.761668	-421.751315	-421.750371	-421.797663	36.854	
O	 0.3039993369	 0.5451730801	 0.9467171123	-0.407702
C	-0.0956467042	 0.2598904932	-0.3833533088	-0.097599
C	-1.4770253743	-0.4072974983	-0.4678668883	 0.105121
O	-1.8609039544	-0.5857588574	-1.8176497387	-0.417373
C	-1.503530195	-1.7197570924	 0.3448905788	-0.418338
C	-2.8195410884	-2.3268107195	 0.4319196267	 0.376947
C	-3.9189378283	-2.8270476673	 0.5067526087	-0.21965
C	-5.1562919479	-3.3868791441	 0.5896538626	 0.294338
C	-6.253778397	-3.8853691129	 0.6645089184	-0.562079
H	-0.2330070798	 1.2759687009	 1.2696081777	 0.290859
H	-0.1039869462	 1.1564152299	-1.0181684444	 0.106016
H	 0.6646347097	-0.421473287	-0.7870822829	 0.102701
H	-2.2262484961	 0.2757560863	-0.0480903493	 0.097768
H	-1.2962518605	-1.2627715288	-2.2074942079	 0.283762
H	-0.7944333903	-2.4281877115	-0.1106509215	 0.122764
H	-1.1113805216	-1.5027331342	 1.3458128881	 0.153891
H	-7.2192004423	-4.322010157	 0.7284738085	 0.188573
46.4416	68.6979	133.9839	155.3285	202.139	213.2505	280.3635	315.1386	356.127	363.8074	422.5285	462.6385	510.0359	533.2344	537.9858	589.2572	593.7909	747.7304	836.3982	905.2244	1019.0994	1066.6728	1096.7436	1111.3644	1172.6103	1181.0022	1188.0972	1307.32	1320.6144	1368.0996	1381.9925	1412.2664	1420.7178	1464.8087	1499.855	2182.607	2365.425	2993.4769	3008.9459	3034.9845	3059.4317	3064.6883	3506.5745	3797.6619	3817.9867
OCC(O)CC#CC#C	OC[C@@H](O)CC#CC#C	
InChI=1S/C7H8O2/c1-2-3-4-5-7(9)6-8/h1,7-9H,5-6H2	InChI=1S/C7H8O2/c1-2-3-4-5-7(9)6-8/h1,7-9H,5-6H2/t7-/m0/s1
