19
gdb 63064	3.22864	1.68725	1.43077	0.5005	74.19	-0.2308	0.07	0.3008	964.6382	0.159733	-422.98055	-422.973151	-422.972207	-423.011753	30.769	
C	-0.1028913818	 1.6029829201	-0.0521611622	-0.473387
C	 0.0115348833	 0.091851943	 0.0164933196	 0.42385
O	-1.2426934824	-0.5447234387	-0.1923819597	-0.482768
C	 1.1677544739	-0.6232846385	-0.7559854954	-0.002667
O	 2.3267488787	 0.0747666891	-0.2847063236	-0.268713
C	 2.2315479479	-0.3426866345	 1.0951664564	 0.063923
C	 2.4639703678	-1.8642964321	 0.9811250122	-0.246991
C	 1.0926360473	-1.8147782349	 0.2909557197	-0.062281
C	 0.6759565909	-0.6090953355	 1.2136118755	-0.098633
H	 0.8746916333	 2.0743111141	 0.0625407454	 0.137402
H	-0.5137839024	 1.915059366	-1.0213975804	 0.100705
H	-0.7756672352	 1.9699252938	 0.7292752246	 0.121053
H	-1.5804947634	-0.2457683248	-1.0437123981	 0.276849
H	 1.1847140497	-0.7456901662	-1.8393139255	 0.069179
H	 2.7998128492	 0.3227410194	 1.7427726509	 0.079293
H	 3.3508193058	-2.1866951809	 0.4297440802	 0.10032
H	 2.3952270875	-2.3746346616	 1.9457686439	 0.101392
H	 0.4596555749	-2.6703907594	 0.0799094508	 0.086306
H	 0.2143582449	-0.710651828	 2.1939755759	 0.075167
202.2428	204.6306	227.2868	300.6201	344.3279	372.5621	470.7518	516.7691	550.6046	608.2168	694.4949	772.8768	818.8633	829.142	856.1689	901.7038	922.0525	936.7069	950.2039	961.1222	994.979	1029.782	1041.1419	1069.4287	1094.3657	1121.5092	1151.5297	1166.0745	1171.7412	1196.6779	1212.134	1238.186	1252.0921	1277.8613	1280.1738	1324.2761	1389.4159	1401.5852	1482.6349	1486.2288	1497.5585	3021.7966	3057.8265	3090.1445	3117.1112	3119.7057	3133.2647	3138.9352	3141.8673	3174.7968	3798.3084
CC1(O)C2OC3CC2C13	C[C@@]1(O)[C@H]2O[C@@H]3C[C@H]2[C@H]13	
InChI=1S/C7H10O2/c1-7(8)5-3-2-4(5)9-6(3)7/h3-6,8H,2H2,1H3	InChI=1S/C7H10O2/c1-7(8)5-3-2-4(5)9-6(3)7/h3-6,8H,2H2,1H3/t3-,4+,5-,6-,7-/m0/s1
