18
gdb 26061	3.23768	1.16371	0.91767	1.9008	83.57	-0.204	0.046	0.25	1273.8122	0.147688	-364.816659	-364.807827	-364.806883	-364.850584	33.507	
C	 0.1538227375	 1.3448293132	-0.3644908107	-0.37611
C	 0.0307069381	-0.130140133	 0.0928206901	-0.292728
C	 0.6520716153	-0.3087271516	 1.4062619321	 0.345104
C	 1.1689818731	-0.4255928464	 2.4855951862	-0.478465
C	-1.405708679	-0.6047398055	 0.0697506824	 0.287243
C	-2.1980498931	-0.9155780243	 1.1512598798	-0.170772
N	-3.4355101589	-1.2752816472	 0.6807004859	-0.246975
C	-3.4514006299	-1.2037050618	-0.6883473598	-0.074122
C	-2.2065645715	-0.7899898395	-1.0980190846	-0.250745
H	 1.201861863	 1.6561258873	-0.3923402691	 0.118022
H	-0.2756813812	 1.4644621302	-1.3628357786	 0.116987
H	-0.3870685504	 1.9998922701	 0.3233696184	 0.12647
H	 0.6000408019	-0.7397965059	-0.6238301154	 0.109621
H	 1.6330010329	-0.5413873018	 3.4334454486	 0.190598
H	-1.97037476	-0.9164317589	 2.2041784359	 0.129082
H	-4.2081524237	-1.5629244127	 1.254409037	 0.260394
H	-4.3370842765	-1.4539321117	-1.2498884959	 0.117629
H	-1.8969269075	-0.6385728302	-2.1214123523	 0.088768
38.9147	125.1095	158.586	203.9793	239.3545	322.2621	378.4041	457.9412	471.8898	539.3664	616.1798	630.8282	639.595	663.2031	689.6724	708.1634	782.3403	826.7168	859.9651	905.5696	956.8675	1017.8911	1072.3385	1079.5361	1094.1374	1118.7638	1163.0853	1231.2318	1288.9001	1312.8053	1339.1244	1401.705	1414.8862	1465.9837	1490.1199	1496.0376	1521.972	1608.3988	2233.9747	2995.4835	3043.3439	3120.4574	3126.7062	3238.8459	3267.7929	3275.1985	3504.9427	3688.7698
CC(C#C)C1=CNC=C1	C[C@@H](C#C)c1c[nH]cc1	
InChI=1S/C8H9N/c1-3-7(2)8-4-5-9-6-8/h1,4-7,9H,2H3	InChI=1S/C8H9N/c1-3-7(2)8-4-5-9-6-8/h1,4-7,9H,2H3/t7-/m0/s1
