17
gdb 82034	2.7219	1.40786	1.24149	2.866	69.32	-0.257	-0.0454	0.2116	1061.4863	0.133457	-458.929433	-458.920947	-458.920003	-458.962412	31.906	
C	-0.0904323604	 1.5411277294	-0.0520338052	-0.396885
C	 0.0182218668	 0.0263826274	-0.0139679702	-0.120948
C	 0.695560772	-0.6782578935	-1.1964922969	 0.032846
O	 2.0165140606	-0.1465298375	-1.2981782858	-0.230533
C	 1.7933304123	-1.1966465446	-0.3599951963	-0.043571
C	 1.1906149208	-0.5696265595	 0.9176393613	 0.311768
O	 1.9808543147	 0.3250956812	 1.6186464042	-0.467668
C	 0.612691266	-1.609385667	 1.8434796079	 0.104062
O	 0.811126798	-1.5792385709	 3.0353328561	-0.279757
H	 0.8646665149	 1.9828713806	-0.3405094392	 0.151194
H	-0.8572962719	 1.8528176063	-0.7691332473	 0.113971
H	-0.3632465259	 1.9337647666	 0.931508855	 0.124831
H	-0.9449798677	-0.4367297998	 0.2278306406	 0.08037
H	 0.250462294	-1.0931077048	-2.0928419912	 0.110626
H	 2.4150147269	-2.0804584597	-0.4505884158	 0.114387
H	 1.9043933867	 0.0712559794	 2.5533539251	 0.293627
H	-0.0166097279	-2.3935150036	 1.3766824279	 0.10168
100.1327	128.1098	190.9914	215.6211	243.9995	315.0847	321.4699	412.6193	441.694	521.6746	559.5267	631.7225	738.8767	816.6633	848.9873	860.1784	874.369	892.6389	988.1626	1007.9564	1034.6236	1055.7897	1067.4073	1092.6079	1140.9851	1218.9316	1233.8841	1262.9272	1291.289	1348.7872	1375.0834	1387.3617	1409.3864	1436.8119	1485.7745	1498.1625	1802.343	2934.6499	3041.9485	3048.3135	3109.6153	3144.9963	3177.3658	3198.2897	3672.8455
CC1C2OC2C1(O)C=O	C[C@H]1[C@H]2O[C@H]2[C@]1(O)C=O	
InChI=1S/C6H8O3/c1-3-4-5(9-4)6(3,8)2-7/h2-5,8H,1H3	InChI=1S/C6H8O3/c1-3-4-5(9-4)6(3,8)2-7/h2-5,8H,1H3/t3-,4+,5+,6-/m0/s1
