19
gdb 70409	2.23222	1.56325	1.4194	2.936	75.43	-0.2511	-0.0287	0.2224	1049.6788	0.156638	-423.008882	-422.999706	-422.998762	-423.042488	34.531	
C	 0.0529699595	 1.5072473497	-0.0053841288	-0.515921
C	 0.1122849336	 0.0047332193	-0.0319340694	 0.310977
C	-0.8046692806	-0.8597429107	 0.805258691	-0.355274
C	 0.6795763007	-0.99358931	 0.9806606779	-0.069489
C	 1.237538742	-1.8728093401	-0.1369773953	-0.293944
C	 0.6790766574	-0.8526237502	-1.1941662956	 0.239601
O	-0.2149895401	-1.2855013017	-2.1939222802	-0.489316
C	 1.7876902366	-0.1238298388	-1.9382191414	 0.135092
O	 2.8874263727	 0.0860399385	-1.4960154849	-0.25914
H	 1.0243118306	 1.9509825624	-0.246217164	 0.138987
H	-0.6821256724	 1.889678421	-0.7235612807	 0.124228
H	-0.2389649672	 1.8653923027	 0.9869326393	 0.121539
H	-1.3362574356	-0.315827977	 1.5799043129	 0.118436
H	-1.3807673219	-1.6836859355	 0.3848624296	 0.095451
H	 1.176233315	-0.7786906302	 1.9182623739	 0.094156
H	 2.3275481964	-1.9067457731	-0.1691826136	 0.13128
H	 0.8258500397	-2.8840617654	-0.2118417422	 0.09664
H	-1.056174762	-1.4956906245	-1.7762144826	 0.28459
H	 1.4781032356	 0.2208460237	-2.9486372559	 0.092105
76.9779	123.1686	193.9367	197.7347	228.4626	260.4909	289.9654	344.1416	403.6457	441.1816	462.2472	597.4628	619.0278	695.6238	784.5079	816.2636	880.6597	892.2876	928.5292	975.7159	986.0939	1019.6223	1045.3848	1080.6776	1092.3422	1111.6428	1132.3928	1144.8237	1201.5361	1234.1814	1266.7954	1285.8887	1353.9501	1376.6127	1406.8511	1420.3755	1466.7844	1487.9669	1500.4306	1501.8935	1831.7896	2905.0293	3026.6628	3052.7631	3085.3045	3089.4002	3103.5936	3129.9566	3184.7678	3197.6456	3821.0207
CC12CC1CC2(O)C=O	C[C@]12C[C@H]1C[C@]2(O)C=O	
InChI=1S/C7H10O2/c1-6-2-5(6)3-7(6,9)4-8/h4-5,9H,2-3H2,1H3	InChI=1S/C7H10O2/c1-6-2-5(6)3-7(6,9)4-8/h4-5,9H,2-3H2,1H3/t5-,6-,7-/m0/s1
