12
gdb 130547	3.75742	1.27517	0.95207	5.5603	69.03	-0.2667	-0.0738	0.1929	1118.5919	0.078368	-431.660267	-431.652839	-431.651894	-431.69293	26.447	
O	-0.0095602347	-0.0289945057	 0.0036258461	-0.276518
C	-0.0484665461	 1.1819394077	 0.0069696392	 0.152701
C	 1.1586885799	 1.9891053777	 0.0008736971	 0.305667
C	 2.1908274044	 2.6070460206	-0.0044971404	-0.432164
C	-1.3327621553	 1.9301317324	 0.0174285553	 0.28131
N	-1.3776682659	 3.259843233	 0.0208202252	-0.263986
N	-2.6986235677	 3.4970934561	 0.0303238369	-0.174965
C	-3.3881218984	 2.3302112213	 0.0322738052	 0.023406
N	-2.5541690599	 1.3166520549	 0.0242642382	-0.280569
H	 3.1004038979	 3.1566202977	-0.0092442468	 0.213349
H	-3.0387029135	 4.4460826288	 0.0348193655	 0.292096
H	-4.4667408005	 2.2814939955	 0.0394736684	 0.159671
59.774	125.0671	181.5242	246.7494	285.7336	447.3951	495.8563	584.6124	655.3847	677.1527	682.7789	693.2658	709.6865	831.8885	868.6792	975.1137	998.0362	1081.2033	1116.6917	1166.7842	1308.8653	1369.0866	1447.8702	1467.7726	1538.2194	1757.8222	2218.8524	3260.6119	3497.5935	3649.4944
O=C(C#C)C1=NNC=N1	O=C(C#C)c1n[nH]cn1	
InChI=1S/C5H3N3O/c1-2-4(9)5-6-3-7-8-5/h1,3H,(H,6,7,8)	InChI=1S/C5H3N3O/c1-2-4(9)5-6-3-7-8-5/h1,3H,(H,6,7,8)
