18
gdb 9878	4.92013	0.99475	0.92712	5.305	72.76	-0.2573	0.0388	0.2961	1262.3914	0.153708	-343.982104	-343.973447	-343.972503	-344.015818	31.218	
C	 0.0178233952	 1.5952768931	-0.296427284	-0.471512
C	-0.064103998	 0.0933846188	-0.106243523	 0.333903
C	-1.3914409508	-0.4501193174	 0.3995075739	-0.236506
C	-1.6328676569	-0.0912528025	 1.8816044217	-0.337765
C	-2.8746121117	-0.6590199673	 2.3984939532	 0.256308
N	-3.8629842378	-1.1129224771	 2.7894701431	-0.308163
C	 0.7773187798	-0.7750340234	-0.9701898404	-0.288435
N	 1.1017276559	-0.6128753628	 0.4606705339	-0.345388
H	 0.9926249083	 1.8857261917	-0.7006980702	 0.118757
H	-0.7507377657	 1.94775529	-0.9931438468	 0.130278
H	-0.121600712	 2.1332309078	 0.6482754706	 0.124792
H	-2.2142808485	-0.0683423447	-0.2149476106	 0.116744
H	-1.3948096434	-1.5392004249	 0.3048249263	 0.127159
H	-0.7927261844	-0.465874967	 2.4763536905	 0.168907
H	-1.6699306357	 0.9945616752	 2.0224287402	 0.146403
H	 0.4316544985	-1.7662207095	-1.2510147536	 0.121681
H	 1.4178056505	-0.2962561275	-1.7065268632	 0.113119
H	 1.8843645768	 0.0285177275	 0.5646573985	 0.229718
64.859	78.2691	129.6115	215.3306	225.7611	346.5981	353.6506	385.1766	407.63	489.0774	533.4389	732.0267	766.2182	844.7594	911.2534	930.3167	951.4272	968.424	1002.0079	1029.4279	1036.2179	1079.1252	1119.516	1148.0669	1197.1822	1267.7055	1281.9411	1303.1539	1346.0102	1373.5617	1402.0705	1422.5806	1468.9869	1483.5814	1492.207	1501.4749	1515.4958	2361.4526	3027.2158	3045.8922	3053.7783	3084.753	3089.8119	3101.1017	3105.9899	3108.2645	3190.6303	3496.9934
CC1(CCC#N)CN1	C[C@@]1(CCC#N)CN1	
InChI=1S/C6H10N2/c1-6(5-8-6)3-2-4-7/h8H,2-3,5H2,1H3	InChI=1S/C6H10N2/c1-6(5-8-6)3-2-4-7/h8H,2-3,5H2,1H3/t6-/m1/s1
