17
gdb 123879	5.09807	1.12078	0.94745	1.5417	75.54	-0.1973	0.0213	0.2186	1212.0264	0.139651	-414.193175	-414.185637	-414.184693	-414.225839	27.773	
C	-0.1466252171	 1.5186535292	 0.038962969	-0.239086
C	 1.3815876915	 1.5235326361	-0.2371577756	-0.159093
N	 1.4414897246	 0.149675342	 0.281850201	-0.142094
C	-0.0212864248	-0.0086730877	 0.2966185339	-0.158963
C	 2.3150013832	-0.8043019066	-0.1586590041	 0.427673
N	 3.4957243313	-0.5076248496	-0.6970770155	-0.32296
N	 4.0018991335	-1.7550145119	-0.9328825354	-0.182361
C	 3.1285886242	-2.6977396773	-0.5467624507	 0.022197
N	 2.0400176187	-2.1423540401	-0.0491717038	-0.333904
H	-0.430716624	 2.0878643622	 0.9253434245	 0.114255
H	-0.7846605344	 1.8120876009	-0.7946666385	 0.110762
H	 1.6484372312	 1.5901393754	-1.2999640189	 0.108882
H	 1.9886807775	 2.2431482981	 0.3204182981	 0.112212
H	-0.4229028301	-0.3906092052	 1.239641814	 0.11382
H	-0.3957922538	-0.6348240769	-0.5226928599	 0.109616
H	 4.9150172812	-1.8534550247	-1.3423656187	 0.277659
H	 3.3179950473	-3.756612494	-0.6428315996	 0.141384
88.9215	94.1038	164.4678	177.9615	350.1073	459.0963	468.6422	511.9575	659.7839	748.6994	781.1173	843.9791	849.3711	882.7894	938.975	944.8697	989.348	992.5796	1080.6109	1117.9617	1139.4128	1142.0003	1158.0124	1193.1598	1202.5547	1228.7428	1268.2281	1291.2537	1305.552	1346.7333	1357.3818	1477.808	1491.0916	1512.7128	1532.4439	1537.2771	1610.0643	3017.1519	3026.2237	3071.9795	3077.4657	3090.0826	3143.9852	3254.4509	3678.4587
C1CN(C1)C1=NNC=N1	C1CN(C1)c1n[nH]cn1	
InChI=1S/C5H8N4/c1-2-9(3-1)5-6-4-7-8-5/h4H,1-3H2,(H,6,7,8)	InChI=1S/C5H8N4/c1-2-9(3-1)5-6-4-7-8-5/h4H,1-3H2,(H,6,7,8)
