16
gdb 129812	3.19267	1.39362	0.97371	4.2216	80.18	-0.1866	-0.0105	0.1761	1152.7284	0.127529	-430.259727	-430.25154	-430.250596	-430.291972	32.193	
N	 0.1005440832	 1.367161173	 0.1291693695	-0.591722
C	-0.0207277577	-0.0214298894	 0.0456688194	 0.427367
C	-1.1939248472	-0.7086069809	-0.0392552736	-0.24965
C	-1.2110608418	-2.1453770755	 0.0206198577	 0.246599
N	-2.3153141379	-2.8175963142	 0.0363251676	-0.57162
C	 0.1553000164	-2.7370298517	 0.0350556397	 0.315306
N	 0.2536942029	-4.1199124794	 0.0476459083	-0.559281
N	 1.261160278	-2.0590302996	 0.0708965202	-0.294381
N	 1.1564214693	-0.7026901487	 0.1070687609	-0.295389
H	 0.7961876158	 1.7547007537	-0.4972099188	 0.251386
H	-0.7846819405	 1.8371118226	-0.001391544	 0.260588
H	-2.1373347619	-0.1831901696	-0.1173484138	 0.094499
H	-2.1367143063	-3.8156933588	 0.1413643056	 0.197484
H	-0.4134469673	-4.5828891263	-0.5552912332	 0.250181
H	 1.199025001	-4.4446081741	-0.1053543552	 0.253132
H	 2.012447064	-0.2284113111	 0.3399621396	 0.265502
106.7208	184.8715	265.1603	313.08	322.1179	350.3706	381.1543	425.4518	460.3419	478.9808	523.7113	583.8359	627.3868	693.4823	717.5613	730.8994	760.1686	814.0916	838.4487	852.0832	1005.8054	1074.0349	1138.2662	1150.9865	1230.4473	1278.1363	1328.4489	1409.6228	1428.2591	1552.9488	1610.3486	1622.7713	1644.4299	1676.3079	1687.6934	3210.9435	3477.3599	3535.4129	3543.308	3637.8317	3647.5124	3657.9765
NC1=CC(=N)C(N)=NN1	N[C@@H]1C=C([NH])C(=NN1)N	
InChI=1S/C4H7N5/c5-2-1-3(6)8-9-4(2)7/h1H,(H2,7,9)(H4,5,6,8)	InChI=1S/C4H8N5/c5-2-1-3(6)8-9-4(2)7/h1,3,5,8H,6H2,(H2,7,9)/t3-/m0/s1
