18
gdb 30220	3.41233	1.31953	1.02164	0.8251	80.36	-0.1746	0.0611	0.2357	1175.2864	0.148441	-401.949334	-401.940911	-401.939967	-401.98285	31.591	
C	-0.0365644479	 1.6109203511	 0.0661278242	-0.393975
C	-0.012481344	 0.0867641207	 0.0276847257	-0.144683
C	 0.64224611	-0.5767235472	-1.2529150114	-0.187853
N	 1.5744732297	-1.2471190481	-0.3332774249	-0.036271
C	 1.0938157148	-0.6286978705	 0.7965221123	 0.31897
C	 1.9562315221	-0.8644966655	 1.8345589413	-0.321519
C	 3.0114376417	-1.67448041	 1.2776152288	-0.28225
C	 2.7581165219	-1.8611242015	-0.0716126843	 0.309376
O	 3.4126890827	-2.524187572	-1.060483131	-0.435854
H	 0.9524253318	 2.0258859494	-0.1524434871	 0.122996
H	-0.750519152	 2.0130994498	-0.6610100019	 0.114053
H	-0.3350984247	 1.9650405485	 1.0579483189	 0.125154
H	-1.0165746559	-0.3074051603	 0.2212815403	 0.088629
H	 0.0153839552	-1.2614109474	-1.8306248431	 0.121436
H	 1.1286632839	 0.1370584988	-1.9248229417	 0.124153
H	 1.8843537399	-0.5319045947	 2.8581784893	 0.09154
H	 3.8438354455	-2.0991404754	 1.8198621142	 0.081522
H	 4.2087979253	-2.9109241556	-0.6838108993	 0.304576
43.7661	107.4358	210.7162	229.359	252.4131	304.2259	333.6604	433.7611	563.0567	621.1307	637.0865	674.0521	707.6824	711.2258	770.0736	775.2917	867.2946	914.5256	955.7555	1026.1696	1075.6858	1102.1249	1116.2169	1134.7523	1174.7126	1232.22	1239.0529	1257.3622	1269.5784	1307.204	1358.1948	1392.4985	1410.942	1488.632	1495.3514	1499.9716	1530.5984	1581.551	1595.7772	3031.0104	3034.9569	3049.0684	3099.9177	3102.4141	3109.537	3229.8346	3254.4398	3845.5844
CC1CN2C1=CC=C2O	C[C@H]1Cn2c1ccc2O	
InChI=1S/C7H9NO/c1-5-4-8-6(5)2-3-7(8)9/h2-3,5,9H,4H2,1H3	InChI=1S/C7H9NO/c1-5-4-8-6(5)2-3-7(8)9/h2-3,5,9H,4H2,1H3/t5-/m0/s1
