22
gdb 121155	2.91691	1.02247	0.83819	2.1168	83.85	-0.2391	0.0761	0.3153	1467.9594	0.193576	-404.306219	-404.296663	-404.295719	-404.341301	35.336	
C	 0.2402024253	 1.3363607026	-0.3169288582	-0.38556
C	-0.0187667449	-0.0528213892	 0.2404886545	-0.038748
O	-1.1844571098	-0.5738929189	-0.3748052994	-0.256258
C	-1.5057650869	-1.8779075533	 0.0192484786	 0.082656
C	-2.2373335631	-2.1289548192	 1.3755334774	-0.258512
C	-3.1865193166	-3.119453448	 0.6345951638	-0.300951
C	-2.7196175272	-2.4867495987	-0.679101571	 0.327022
C	-3.5242172352	-1.7924061969	-1.7044544038	-0.292934
N	-2.8160780531	-3.0550274137	-2.014609252	-0.381983
H	 1.1359973386	 1.7693761368	 0.1380854212	 0.11569
H	 0.3859621346	 1.2943710341	-1.400159335	 0.125148
H	-0.6073433534	 1.996248715	-0.111148895	 0.127623
H	 0.8392668536	-0.7173764569	 0.043146799	 0.086755
H	-0.1501817914	-0.0117141293	 1.3333803462	 0.092892
H	-0.6222806859	-2.5333810127	-0.0721329116	 0.062703
H	-1.6474673215	-2.5194703695	 2.2066958911	 0.096962
H	-2.7620077825	-1.2237529889	 1.6917256908	 0.111411
H	-2.8629896852	-4.1602170041	 0.7268263988	 0.109981
H	-4.2515476525	-3.0590828156	 0.8666701122	 0.107096
H	-4.6082045425	-1.8723080639	-1.6890025954	 0.113482
H	-3.1313891959	-0.8606576057	-2.1001376743	 0.125767
H	-1.9669388944	-2.8520243738	-2.538630048	 0.229759
61.7364	78.0968	110.1746	128.1684	239.58	258.3409	275.6151	335.0952	355.4993	466.4401	536.6261	557.0424	737.7958	798.268	820.9722	838.2869	894.9094	905.1673	915.6825	957.7296	963.2133	984.955	1032.5507	1059.4896	1093.3481	1107.3538	1125.3908	1151.8067	1180.0193	1183.2474	1191.1267	1236.281	1246.4948	1264.6614	1288.2596	1295.1121	1305.8413	1372.814	1403.7573	1414.8475	1442.6917	1475.8424	1483.4125	1495.7883	1499.693	1514.8934	1528.9734	2949.1426	2962.6498	2993.1352	3044.8258	3061.9622	3068.2468	3109.3156	3113.255	3119.3761	3121.2218	3130.222	3201.1443	3482.3173
CCOC1CCC11CN1	CCO[C@H]1CC[C@]21CN2	
InChI=1S/C7H13NO/c1-2-9-6-3-4-7(6)5-8-7/h6,8H,2-5H2,1H3	InChI=1S/C7H13NO/c1-2-9-6-3-4-7(6)5-8-7/h6,8H,2-5H2,1H3/t6-,7+/m0/s1
