15
gdb 132046	2.32219	1.82656	1.0289	4.929	72.74	-0.2145	-0.0324	0.1821	1082.6904	0.112988	-461.985925	-461.978051	-461.977107	-462.018617	29.312	
C	-0.0240984316	 1.5341705369	 0.0180914197	-0.49765
C	-0.0040884067	 0.0292433372	 0.0075023759	 0.178498
C	-0.1069457953	-0.6764140277	-1.1529862766	 0.05944
F	-0.229491809	-0.0543132159	-2.3263254348	-0.063978
C	-0.0947629616	-2.1305908195	-1.23633131	 0.35265
O	-0.1838104606	-2.7996014796	-2.2502150878	-0.389648
N	 0.0360427016	-2.7253289856	 0.026761632	-0.378158
C	 0.141745245	-2.0555297243	 1.2116195939	 0.035159
C	 0.1250990324	-0.7002650882	 1.2340784199	-0.234124
H	 0.898314051	 1.9280543498	 0.4589615263	 0.139771
H	-0.1265805303	 1.9369824763	-0.9893747966	 0.149194
H	-0.8561528507	 1.90359995	 0.6276014713	 0.139815
H	 0.0479184835	-3.7355733527	 0.004059318	 0.264939
H	 0.2364468051	-2.6680224413	 2.0991697966	 0.136259
H	 0.2090197571	-0.1701650855	 2.1736058823	 0.107832
76.975	127.9	194.6049	291.1981	292.5673	317.8688	487.8437	515.1693	518.1258	558.4689	576.7996	690.4073	697.5866	766.8764	771.9965	851.7821	912.1672	972.0302	1055.1334	1058.0805	1117.1135	1186.8276	1236.6232	1264.6562	1335.2407	1407.7556	1445.959	1484.0613	1490.6705	1497.2677	1601.1003	1687.5433	1784.0449	3037.727	3089.0039	3153.471	3207.8369	3225.3325	3610.1042
CC1=C(F)C(=O)NC=C1	Cc1c(F)c(=O)[nH]cc1	
InChI=1S/C6H6FNO/c1-4-2-3-8-6(9)5(4)7/h2-3H,1H3,(H,8,9)	InChI=1S/C6H6FNO/c1-4-2-3-8-6(9)5(4)7/h2-3H,1H3,(H,8,9)
