16
gdb 102265	2.39083	1.08438	0.92784	2.726	67.89	-0.2633	0.0257	0.289	1306.0854	0.121635	-475.02045	-475.010531	-475.009587	-475.056501	35.103	
N	-0.1888281787	 1.2752344925	 0.1407280686	-0.562702
C	 0.0291859372	-0.06244923	-0.0074526746	 0.510695
O	 1.0974572341	-0.5794123655	-0.2321960772	-0.39131
O	-1.1437712662	-0.7360092273	 0.1752903729	-0.281013
C	-1.064653858	-2.1817238623	 0.0644577445	-0.112046
C	-1.0130031389	-2.7544354571	 1.4890249703	-0.071942
O	-2.1293814461	-2.3820513084	 2.2619197721	-0.41305
C	-2.2167615178	-2.637524428	-0.7015843402	 0.351842
C	-3.148951921	-3.0533059592	-1.3338356301	-0.445235
H	 0.5569622889	 1.8816496744	-0.1547225368	 0.273728
H	-1.1314973228	 1.6225506955	 0.0881467958	 0.2691
H	-0.1316414714	-2.426587154	-0.4525024853	 0.147105
H	-1.0062491696	-3.8470569695	 1.4362018902	 0.123594
H	-0.0652182904	-2.4257313846	 1.9421550257	 0.108072
H	-2.1929480018	-1.4214631581	 2.2156179547	 0.289324
H	-3.9757935476	-3.4184586584	-1.8915849607	 0.203837
27.468	74.9059	103.1976	147.8964	177.2169	263.0276	322.4569	359.3555	386.1514	397.8769	436.3055	513.2149	564.9416	619.7865	649.1388	678.5124	705.1459	780.0712	867.9809	882.7983	994.3822	1040.3742	1080.6034	1111.0344	1118.7243	1228.5656	1316.0956	1321.157	1377.0122	1400.6764	1428.0168	1497.1378	1612.0278	1835.7075	2246.262	2994.1367	3074.8645	3093.9371	3503.658	3612.8131	3742.1794	3804.7261
NC(=O)OC(CO)C#C	NC(=O)O[C@@H](CO)C#C	
InChI=1S/C5H7NO3/c1-2-4(3-7)9-5(6)8/h1,4,7H,3H2,(H2,6,8)	InChI=1S/C5H7NO3/c1-2-4(3-7)9-5(6)8/h1,4,7H,3H2,(H2,6,8)/t4-/m1/s1
