22
gdb 59507	2.40768	1.10654	0.83269	2.3506	83.9	-0.2315	-0.0262	0.2054	1440.4433	0.191059	-404.331393	-404.321013	-404.320069	-404.367512	37.528	
C	-2.5392901076	-1.8307571755	 2.6894102284	-0.378246
C	-1.4741046321	-1.6143947328	 1.6108175891	 0.067687
C	-1.6842041985	-0.2898313226	 0.8744246823	-0.399385
N	-0.1619967176	-1.6095888397	 2.267265711	-0.069131
C	 0.4441332644	-2.8936204383	 2.5930513453	-0.265712
C	 1.0623886729	-2.0039511883	 1.5699905709	-0.001391
C	 1.1317411712	-2.4289956543	 0.110227923	-0.309198
C	 1.4532589144	-1.2712913804	-0.8121079757	 0.1701
O	 0.8537013392	-1.0033352512	-1.8210079734	-0.239749
H	-2.4977889162	-1.0265236865	 3.430548578	 0.123881
H	-3.53878826	-1.8441915341	 2.2444472759	 0.111843
H	-2.3868580749	-2.7806745832	 3.2111365084	 0.111815
H	-1.5596446744	-2.4410323732	 0.8836021245	 0.059904
H	-1.5683519421	 0.5487632678	 1.5681889553	 0.121983
H	-0.9712033938	-0.1620697793	 0.0561690769	 0.132151
H	-2.690267435	-0.2487286741	 0.4456988897	 0.113574
H	 0.8752632215	-2.9937711441	 3.5862011432	 0.11498
H	-0.0448212354	-3.794471642	 2.2198212847	 0.106618
H	 1.924542155	-1.4099075742	 1.8762226306	 0.093026
H	 1.9617648456	-3.145519378	 0.0115185296	 0.129231
H	 0.2247321368	-2.9250806886	-0.2402204023	 0.1288
H	 2.3277732665	-0.6593963772	-0.4862451053	 0.077218
44.8371	64.3425	97.7434	175.3321	189.4433	215.9546	242.311	278.3834	345.3229	360.6278	409.0706	480.604	492.882	559.2874	710.9754	733.2009	861.4223	883.3628	924.7785	935.1844	962.6331	1002.5898	1029.505	1039.9043	1085.7938	1116.7924	1122.8632	1149.3512	1171.1818	1186.9917	1197.7363	1219.5922	1277.5003	1333.788	1361.3066	1368.2955	1399.3148	1419.1504	1420.8932	1428.9661	1454.1435	1484.4732	1487.5401	1498.4835	1510.8102	1512.1431	1833.5201	2852.6957	2937.757	3003.6977	3036.2623	3043.4941	3076.9797	3088.6991	3107.7433	3110.0135	3116.1817	3119.9175	3127.1027	3164.5449
CC(C)N1CC1CC=O	CC(C)N1C[C@H]1CC=O	
InChI=1S/C7H13NO/c1-6(2)8-5-7(8)3-4-9/h4,6-7H,3,5H2,1-2H3	InChI=1S/C7H13NO/c1-6(2)8-5-7(8)3-4-9/h4,6-7H,3,5H2,1-2H3/t7-,8?/m1/s1
