18
gdb 108385	2.31641	1.3991	1.09013	5.1746	76.45	-0.2557	0.0278	0.2834	1175.818	0.147052	-401.921894	-401.913191	-401.912247	-401.955657	31.925	
C	 0.1709229623	 1.5389038386	 0.1503925683	-0.37625
C	-0.0972195193	 0.0402026043	-0.0460680224	-0.306259
C	 0.6026171236	-0.5257746689	-1.2492867061	 0.265178
C	 0.1986378544	-0.3315450827	-2.7143629952	-0.144213
O	 0.6317047855	-1.6832515689	-3.0478625804	-0.274518
C	 0.9632863709	-1.9179470251	-1.6927123556	 0.037899
C	 2.0676449383	-0.9856909892	-1.2219155148	-0.273667
C	 3.0683535719	-0.4680351579	-2.1120803506	 0.310547
N	 3.8641719915	-0.0331815428	-2.8304439802	-0.347143
H	 1.2396726715	 1.7335963079	 0.2832605956	 0.130479
H	-0.1671801541	 2.119113961	-0.7143869349	 0.125594
H	-0.3552367537	 1.9164747202	 1.0316878735	 0.121253
H	 0.2181892929	-0.5132381153	 0.8467494674	 0.107447
H	-1.1759787057	-0.1341874819	-0.1485867381	 0.111322
H	-0.8845959013	-0.2382319205	-2.8456660706	 0.118978
H	 0.7232469517	 0.4292971939	-3.2999819173	 0.136655
H	 0.8031727708	-2.9074375537	-1.2791371626	 0.122801
H	 2.4222577488	-1.1983108191	-0.2169541761	 0.133898
71.7454	104.5838	140.5318	196.2999	209.9979	307.6302	339.5923	387.4331	416.0804	545.0357	624.0601	670.0245	780.3172	792.8688	829.1239	888.8448	922.6575	984.75	989.0167	994.5823	1028.2852	1050.5739	1064.7794	1093.8975	1131.3737	1160.0362	1219.2015	1255.0241	1274.4851	1326.73	1345.7537	1360.5076	1413.5973	1459.448	1481.2091	1499.0871	1505.4028	1509.0993	2351.8097	3023.1701	3039.1982	3041.3914	3057.4859	3100.4456	3108.7806	3115.4368	3155.6748	3181.2903
CCC12COC1C2C#N	CC[C@]12CO[C@H]1[C@H]2C#N	
InChI=1S/C7H9NO/c1-2-7-4-9-6(7)5(7)3-8/h5-6H,2,4H2,1H3	InChI=1S/C7H9NO/c1-2-7-4-9-6(7)5(7)3-8/h5-6H,2,4H2,1H3/t5-,6+,7-/m1/s1
