22
gdb 57302	2.61322	1.25003	1.07873	2.5823	83.27	-0.2425	0.0031	0.2456	1261.7744	0.1918	-404.356574	-404.346283	-404.345339	-404.392972	38.064	
C	 0.3463535935	 1.3490899179	-0.0340759136	-0.398923
C	-0.1757034064	-0.1071984788	-0.0091989284	 0.161503
C	 0.3731127599	-0.8236649933	 1.2333803417	-0.420433
C	-1.7161126196	-0.098595592	 0.0120884833	-0.397515
C	 0.277841221	-0.7324332025	-1.3432972277	 0.372583
O	-0.1953237681	-0.381434128	-2.4031491104	-0.352533
N	 1.3623024762	-1.6188819108	-1.2840417601	-0.094573
C	 1.2434140752	-3.0271845516	-0.9214622722	-0.233427
C	 1.5571682888	-2.6063286568	-2.3224332394	-0.223704
H	 1.44078652	 1.3762172465	-0.0442453209	 0.120117
H	-0.0188453058	 1.8716017005	-0.921446747	 0.135056
H	 0.0015614829	 1.8852468402	 0.8563571009	 0.109831
H	 0.0587708187	-0.2855391106	 2.1339866494	 0.110894
H	-0.0045775546	-1.8473155097	 1.3169993889	 0.107833
H	 1.4653022091	-0.8617864007	 1.2270793182	 0.12482
H	-2.1081273231	 0.3718636975	-0.8916572519	 0.139005
H	-2.1196132299	-1.1155952834	 0.0681074756	 0.105296
H	-2.0783321966	 0.4537457804	 0.8851933155	 0.107189
H	 2.0212090793	-3.418929544	-0.2719192854	 0.128179
H	 0.2471330593	-3.4189692967	-0.7321187008	 0.131915
H	 0.77386067	-2.6845073731	-3.070868791	 0.141105
H	 2.5727041705	-2.700941761	-2.6951034645	 0.125784
9.2586	102.6034	185.5404	194.0927	223.7307	260.3798	272.1716	292.3676	305.6502	339.1893	360.9289	379.2858	480.7906	570.899	678.6652	780.2667	816.8021	827.0203	918.9154	938.0085	946.067	958.6287	963.8886	1037.504	1046.6296	1054.3391	1116.5383	1127.8955	1133.7338	1172.8318	1178.4213	1223.1494	1254.8601	1275.8008	1367.3112	1389.4313	1396.0017	1428.6685	1476.8046	1489.3504	1491.0238	1494.0391	1500.361	1502.8603	1519.5941	1523.9172	1768.3233	3032.1337	3033.5365	3040.0139	3095.3516	3098.9234	3103.0329	3107.5165	3119.6336	3120.6826	3125.4929	3135.1047	3192.6382	3212.0686
CC(C)(C)C(=O)N1CC1	CC(C)(C)C(=O)N1CC1	
InChI=1S/C7H13NO/c1-7(2,3)6(9)8-4-5-8/h4-5H2,1-3H3	InChI=1S/C7H13NO/c1-7(2,3)6(9)8-4-5-8/h4-5H2,1-3H3
