16
gdb 55233	3.01931	1.33796	1.08822	1.6113	66.65	-0.2494	0.005	0.2543	1108.7975	0.125877	-471.220236	-471.212125	-471.211181	-471.253534	30.292	
N	-0.0918802078	 1.2674601106	 0.1189143819	-0.517312
C	-0.0822049877	-0.1070160138	 0.1421944105	 0.288039
N	 0.9635328042	-0.7811701303	 0.4140808147	-0.50513
C	-1.4154257211	-0.7302007301	-0.3011484626	 0.128371
O	-1.5050291603	-2.0895671007	 0.0200414723	-0.244425
C	-2.1398109022	-2.1668436208	 1.2935870361	-0.180329
C	-2.9498500323	-0.8913304815	 1.3733387646	 0.391918
N	-3.8540201202	-0.6290875705	 2.2062114937	-0.525906
O	-2.5119995026	-0.0764643609	 0.3615586661	-0.250146
H	 0.7260664499	 1.6991705746	 0.5241513443	 0.261168
H	-0.9682059938	 1.7146702701	 0.3390329947	 0.26241
H	 0.7665896071	-1.77441102	 0.2936373239	 0.228299
H	-1.5553582207	-0.6097034557	-1.3801547305	 0.13177
H	-2.7679669918	-3.0576952916	 1.3279605115	 0.155124
H	-1.406668522	-2.2067511239	 2.1097471193	 0.14472
H	-4.2368945487	 0.3056768545	 2.0606085494	 0.23143
71.025	81.8524	132.125	260.7087	344.7033	410.102	455.378	463.339	518.1904	547.5353	582.0772	662.1474	684.1518	794.9743	869.4938	878.5776	890.423	939.0683	988.6332	1007.3276	1028.6646	1062.0613	1122.4348	1160.1274	1172.3673	1214.2837	1275.1885	1334.7875	1356.7406	1371.9117	1441.9447	1496.3729	1620.2145	1737.9715	1804.6968	3029.6811	3069.6418	3129.295	3487.0062	3492.3949	3573.6314	3690.5023
NC(=N)C1OCC(=N)O1	NC(=N)[C@H]1OC[C]([NH])O1	
InChI=1S/C4H7N3O2/c5-2-1-8-4(9-2)3(6)7/h4-5H,1H2,(H3,6,7)	InChI=1S/C4H7N3O2/c5-2-1-8-4(9-2)3(6)7/h4-5H,1H2,(H3,6,7)/t4-/m0/s1
