14
gdb 49056	2.12319	1.85471	1.34473	4.8215	63.46	-0.2496	-0.0509	0.1987	967.3239	0.099801	-473.810851	-473.803044	-473.8021	-473.843943	27.851	
O	-0.380459681	 0.3345553856	-0.5667192934	-0.244536
C	 0.073522189	 1.0822303183	 0.2604916551	 0.072476
C	 1.3004359471	 1.9119941775	 0.0290103673	 0.192118
O	 1.4601057626	 3.0179481488	 0.9380000097	-0.320278
C	 1.6723764955	 3.948388189	-0.1541799825	-0.099279
C	 1.5997182388	 2.8151748245	-1.2016782288	-0.073664
N	 2.8298198976	 2.0572841139	-1.3976925603	-0.329737
C	 2.6878922802	 1.2324336183	-0.3002180903	 0.410649
O	 3.3819206562	 0.3985947731	 0.2001710664	-0.336691
H	-0.3807479492	 1.2214465839	 1.2651756232	 0.102215
H	 0.8495283721	 4.6691749339	-0.215411776	 0.123362
H	 2.6293077327	 4.4739547205	-0.0777896215	 0.119222
H	 0.9528419636	 2.9133598313	-2.0711478833	 0.124505
H	 3.6604753849	 2.2827434814	-1.9281783454	 0.259639
53.001	133.0771	161.1589	195.7453	249.6949	384.7065	460.7313	474.1706	557.0027	673.3698	715.215	754.9218	809.9875	854.5977	908.9501	994.3202	1011.2736	1058.6077	1078.7936	1095.5822	1102.4002	1162.5712	1196.4689	1276.0029	1331.922	1338.075	1368.7871	1400.8222	1506.1181	1819.4936	1910.4852	2907.9491	3036.4885	3094.2025	3140.1611	3590.8174
O=CC12OCC1NC2=O	O=C[C@]12OC[C@H]1NC2=O	
InChI=1S/C5H5NO3/c7-2-5-3(1-9-5)6-4(5)8/h2-3H,1H2,(H,6,8)	InChI=1S/C5H5NO3/c7-2-5-3(1-9-5)6-4(5)8/h2-3H,1H2,(H,6,8)/t3-,5+/m1/s1
