20
gdb 62735	2.45273	1.53934	1.24625	2.7404	81.21	-0.2512	0.023	0.2742	1114.6047	0.168957	-403.134157	-403.124744	-403.1238	-403.16768	35.609	
C	 0.0156163262	 1.5350231532	 0.0619399152	-0.462095
C	 0.0543385901	 0.0191868458	 0.0446013509	 0.237182
C	-1.1675332145	-0.6218427808	-0.5926460436	-0.462827
C	 1.3254954792	-0.742629983	-0.162727587	-0.001296
O	 2.4601424508	-0.0070476736	 0.3636931396	-0.276056
C	 1.9213891682	-0.1070107334	 1.6463457213	 0.390623
N	 2.4043673388	 0.2222268018	 2.7554777481	-0.562434
C	 0.6705504338	-0.8048429919	 1.2082537955	 0.138849
C	-0.0158194204	-1.8621221973	 2.0246303638	-0.498451
H	 0.9330923495	 1.9647077572	 0.4661778162	 0.141772
H	-0.1192623277	 1.9235526833	-0.9538905457	 0.116829
H	-0.8245829743	 1.88957574	 0.668560481	 0.121096
H	-1.3339888394	-0.1950620226	-1.5873919671	 0.125147
H	-1.0585430318	-1.7038029476	-0.7107333024	 0.12107
H	-2.0678899495	-0.4379152924	 0.0035449856	 0.128329
H	 1.5333675623	-1.4969350158	-0.9112579496	 0.11607
H	 3.3298842286	 0.6407966171	 2.6471318531	 0.228367
H	-0.4335624865	-1.4188936383	 2.9346365592	 0.142751
H	-0.8323881054	-2.3394586532	 1.4789838276	 0.121974
H	 0.690547542	-2.6389974085	 2.3336737283	 0.133099
127.5283	132.7418	176.3137	180.5078	213.9332	255.7504	280.5902	298.8766	353.2366	401.5037	501.2841	528.8277	620.5971	668.1724	724.9716	759.2603	859.8802	869.6309	901.5575	935.1144	973.2717	974.5556	1006.4145	1013.6977	1033.9348	1106.215	1144.3088	1162.7064	1190.2974	1225.2158	1288.294	1325.469	1405.8264	1414.8207	1429.0102	1437.0693	1481.227	1484.6171	1490.0381	1496.3597	1504.8806	1515.2746	1822.5572	3031.3886	3035.6827	3042.5093	3090.9496	3096.5503	3100.2201	3107.4288	3128.6017	3140.4544	3197.1383	3476.1366
CC1(C)C2OC(=N)C12C	CC1(C)[C@H]2O[C]([NH])[C@@]12C	
InChI=1S/C7H11NO/c1-6(2)4-7(6,3)5(8)9-4/h4,8H,1-3H3	InChI=1S/C7H11NO/c1-6(2)4-7(6,3)5(8)9-4/h4,8H,1-3H3/t4-,7+/m1/s1
