20
gdb 12566	3.05642	1.87841	1.27881	0.875	71.37	-0.2405	0.0853	0.3258	997.3165	0.177805	-386.135962	-386.127796	-386.126852	-386.168845	30.622	
C	 0.0913822394	 1.5786088428	 0.0607532623	-0.400711
C	-0.0108643138	 0.0563998753	 0.0271499141	 0.101758
C	 0.6165413172	-0.5014703814	-1.2608470543	-0.05963
O	 0.175937051	-1.7724369093	-1.7023863609	-0.266344
C	-0.037709338	-2.8064692408	-0.755253893	-0.05224
C	 0.838665108	-2.7922355056	 0.499427124	-0.234752
C	 0.4178551647	-1.7526488231	 1.5438281073	-0.066488
O	 0.6705073578	-0.4106827122	 1.1863863548	-0.252823
H	 1.1333630199	 1.8948240981	-0.0555908647	 0.125239
H	-0.5002633623	 2.0278604795	-0.7416084463	 0.116505
H	-0.270799287	 1.9549931264	 1.0202223142	 0.1257
H	-1.0718807028	-0.2423813296	 0.0718131095	 0.071955
H	 0.3889138898	 0.1717127186	-2.0942803354	 0.102443
H	 1.7085299279	-0.4886587943	-1.113871436	 0.094007
H	-1.0952177474	-2.8100808768	-0.4395154498	 0.085269
H	 0.1287219086	-3.7369947079	-1.3095105182	 0.10539
H	 0.7510541978	-3.7819392935	 0.9663849305	 0.101055
H	 1.893784832	-2.6592427995	 0.2342251161	 0.114705
H	-0.6549458944	-1.8909732597	 1.7688209676	 0.083354
H	 0.9723549215	-1.9120553571	 2.4741602381	 0.105608
42.9189	160.318	201.5355	214.8267	315.7218	335.1344	364.5306	384.4536	471.1268	528.7092	572.163	776.6491	842.7297	870.8615	907.6828	934.1207	957.3655	991.307	1033.2281	1094.5716	1115.5018	1133.0813	1153.2729	1160.4807	1191.8434	1240.0519	1277.1575	1313.6559	1317.4056	1334.9035	1375.3843	1379.1698	1403.924	1411.7103	1421.6387	1433.8842	1461.5519	1484.2743	1491.874	1495.4596	1503.156	1515.0746	2945.5996	2952.9342	2966.1938	2979.262	3026.6431	3043.0476	3056.096	3066.9705	3073.8174	3078.2746	3114.3819	3129.6189
CC1COCCCO1	C[C@H]1COCCCO1	
InChI=1S/C6H12O2/c1-6-5-7-3-2-4-8-6/h6H,2-5H2,1H3	InChI=1S/C6H12O2/c1-6-5-7-3-2-4-8-6/h6H,2-5H2,1H3/t6-/m0/s1
