20
gdb 98757	3.64558	1.03612	0.92272	3.1023	78.92	-0.2267	-0.0026	0.2241	1344.1277	0.169964	-403.120524	-403.111372	-403.110427	-403.155995	33.447	
C	-0.1000923208	 1.5190048448	 0.5659970317	-0.375294
C	-0.5162588514	 0.0581158995	 0.7203848367	-0.287217
C	-1.6487816874	-0.3509117037	-0.2095415582	 0.391984
O	-2.2699390672	 0.4559342633	-0.8630960614	-0.312674
C	-1.9533162363	-1.837539106	-0.3326718232	-0.100964
C	-1.9218094751	-2.8172751212	 0.9053922463	-0.257549
C	-3.3861228556	-3.1537765168	 0.6040288951	-0.038975
N	-4.1173685235	-1.8690691206	 0.71039669	-0.32963
C	-3.4204399301	-2.2165692814	-0.5511747009	-0.045395
H	 0.6851012287	 1.7776574439	 1.2819476327	 0.106697
H	 0.2742603792	 1.715443133	-0.442594955	 0.124397
H	-0.9539541683	 2.1805890802	 0.7284662151	 0.137633
H	 0.3293718796	-0.6255608972	 0.5623431502	 0.110687
H	-0.8552377234	-0.1442175665	 1.7460224433	 0.132836
H	-1.3109821522	-2.2322413569	-1.1290366223	 0.104086
H	-1.2362268677	-3.6534162819	 0.7548012007	 0.105316
H	-1.7476737605	-2.3725168734	 1.8877436164	 0.109551
H	-3.8918412488	-4.099520794	 0.7520104861	 0.09588
H	-5.1073253756	-2.066195228	 0.5667026137	 0.230452
H	-3.9585331637	-2.268664367	-1.488154847	 0.09818
22.8945	62.7321	125.6827	155.1498	191.9667	276.1346	340.4714	402.9562	450.1952	509.0422	662.8654	689.2849	747.7788	801.1614	824.3403	838.0132	897.5941	931.6548	955.3347	985.6331	995.5329	1014.8155	1032.7231	1060.8293	1083.5061	1103.878	1119.3573	1151.2147	1168.9737	1191.1392	1244.3689	1265.3521	1285.8449	1321.7036	1335.8345	1374.5016	1380.5329	1411.7477	1448.6041	1475.9699	1492.4616	1498.3707	1802.1856	3016.4229	3041.0428	3044.5311	3050.368	3069.5121	3117.9495	3126.0834	3131.3753	3191.6544	3209.2513	3477.2658
CCC(=O)C1CC2NC12	CCC(=O)[C@H]1C[C@H]2N[C@@H]12	
InChI=1S/C7H11NO/c1-2-6(9)4-3-5-7(4)8-5/h4-5,7-8H,2-3H2,1H3	InChI=1S/C7H11NO/c1-2-6(9)4-3-5-7(4)8-5/h4-5,7-8H,2-3H2,1H3/t4-,5-,7+/m1/s1
