14
gdb 5149	5.6794	1.24759	1.13295	5.4909	67.51	-0.2212	0.027	0.2483	1017.2512	0.109428	-341.63637	-341.629305	-341.628361	-341.668771	25.774	
N	-0.1682161763	-1.0970070879	-0.639867195	-0.314704
C	-0.0922667723	 0.0074937861	-0.3089102184	 0.265735
C	 0.0039357867	 1.4132071268	 0.1017644627	-0.458568
C	 1.4063250804	 1.9593901726	 0.0372961262	 0.284449
C	 2.1414789769	 2.4143855885	 1.1085623619	-0.17523
N	 3.3531509566	 2.8422697246	 0.6334460206	-0.231871
C	 3.4083990568	 2.6661965342	-0.725561947	-0.064015
C	 2.2138206878	 2.1198121696	-1.1268467851	-0.236962
H	-0.6749355315	 1.9922003124	-0.5372260855	 0.156692
H	-0.3877242133	 1.4966039024	 1.1213631076	 0.151506
H	 1.8995876919	 2.4657640503	 2.1582140958	 0.12354
H	 4.0909113501	 3.2250836377	 1.1978280042	 0.266711
H	 4.2864646725	 2.9411540386	-1.2870316943	 0.125814
H	 1.9444011036	 1.8532944142	-2.1373917136	 0.106904
29.7896	107.9497	281.9332	312.1995	382.0004	477.0542	486.2743	636.078	640.8493	692.433	736.0378	781.6568	835.8467	905.2717	921.7221	932.4742	979.0054	1083.986	1098.4768	1164.445	1205.3926	1287.5335	1291.6299	1343.3696	1421.2466	1457.0763	1465.0669	1526.4445	1611.1085	2360.9863	3030.0369	3076.1996	3249.0435	3260.7593	3273.759	3688.0316
N#CCC1=CNC=C1	N#CCc1c[nH]cc1	
InChI=1S/C6H6N2/c7-3-1-6-2-4-8-5-6/h2,4-5,8H,1H2	InChI=1S/C6H6N2/c7-3-1-6-2-4-8-5-6/h2,4-5,8H,1H2
