16
gdb 7113	7.10654	0.91612	0.83607	6.4203	65.5	-0.2497	-0.0061	0.2436	1345.8341	0.129391	-417.117898	-417.108654	-417.107709	-417.154239	30.907	
C	-0.1081782665	 1.5326227644	-0.1225528162	-0.379668
C	 0.0184432253	 0.076379231	 0.3200022968	-0.132051
N	-1.2706667985	-0.6025859268	 0.3259352912	-0.374467
C	-1.4001340308	-1.8881997171	-0.1418680267	 0.523454
O	-0.5110803595	-2.5266647567	-0.6495220986	-0.352274
N	-2.7274555637	-2.3665564377	 0.0032707814	-0.390704
C	-3.1733062999	-3.6671624412	-0.1815420262	 0.168044
O	-2.5059040074	-4.636220993	-0.414343943	-0.25762
H	 0.8726158106	 2.0173251393	-0.1139362586	 0.126329
H	-0.5187868114	 1.5989311377	-1.1341001878	 0.130092
H	-0.7629065285	 2.100775002	 0.5482238829	 0.110687
H	 0.6542614943	-0.4912807262	-0.3617413586	 0.157578
H	 0.4835861768	 0.0210187106	 1.3139935872	 0.109884
H	-1.9784104126	-0.2385236412	 0.9442772727	 0.236258
H	-3.4477901599	-1.6894138133	 0.2058953687	 0.247035
H	-4.2774987284	-3.7012476917	-0.0678471453	 0.077424
10.8931	51.9491	93.8469	160.1562	216.208	231.96	297.7182	350.7922	382.763	458.2776	552.0982	592.7737	761.0343	788.1622	858.2736	927.2267	956.7666	1028.3347	1073.6111	1123.3942	1164.2778	1173.4211	1225.4026	1302.6727	1389.6057	1414.2814	1450.0961	1492.0431	1495.3746	1506.6432	1513.6745	1534.522	1808.0259	1875.6775	2908.6733	3011.2137	3034.3741	3096.5759	3120.3911	3129.5891	3609.5054	3623.7922
CCNC(=O)NC=O	CCNC(=O)NC=O	
InChI=1S/C4H8N2O2/c1-2-5-4(8)6-3-7/h3H,2H2,1H3,(H2,5,6,7,8)	InChI=1S/C4H8N2O2/c1-2-5-4(8)6-3-7/h3H,2H2,1H3,(H2,5,6,7,8)
