20
gdb 112055	1.96262	1.61872	0.95878	1.3491	84.46	-0.2119	0.0008	0.2127	1278.802	0.171096	-399.356438	-399.346803	-399.345858	-399.392265	33.928	
C	 0.0182741523	 1.5039584901	-0.1815783799	-0.377044
C	-0.0540417754	-0.0104332882	 0.0298444637	-0.154106
N	-1.4136886739	-0.5198176141	 0.0554933433	-0.094105
C	-2.1733235473	-0.8361120609	 1.1670005341	 0.062614
N	-3.3591625054	-1.2661125433	 0.9581289066	-0.272916
C	-3.5166630235	-1.2723591291	-0.5037175093	-0.275033
C	-2.1881975657	-0.7659293079	-1.0804900524	 0.381859
N	-1.7496235136	-0.5679156296	-2.2540273386	-0.333775
C	-2.6092714672	-0.8635059241	-3.3822233765	-0.330352
H	 1.0623020165	 1.8317133726	-0.203489578	 0.117627
H	-0.4476131076	 1.7713133723	-1.1326292703	 0.148667
H	-0.493088006	 2.0407147422	 0.6235704837	 0.117405
H	 0.4699237481	-0.523132856	-0.7825700232	 0.135803
H	 0.4253995136	-0.2949708799	 0.9723087025	 0.11009
H	-1.7358736152	-0.7138515284	 2.1534593975	 0.13008
H	-3.7527870628	-2.2830768759	-0.8565279571	 0.138793
H	-4.3550408665	-0.6307057056	-0.7991526553	 0.138616
H	-2.7998149721	 0.0544606793	-3.9523405285	 0.124604
H	-2.095229491	-1.5527954771	-4.0628191075	 0.125552
H	-3.5814408173	-1.3074083664	-3.1228614847	 0.10562
37.9622	52.678	101.0099	152.2607	183.631	238.6596	259.5325	318.8831	393.9895	459.1394	532.1943	595.4319	620.2524	689.0497	783.7193	877.1471	934.2923	946.1282	984.0746	998.7981	1050.4852	1083.9958	1109.9418	1120.8043	1129.704	1172.3158	1192.369	1269.3844	1275.2716	1302.3987	1379.7073	1392.7971	1406.7525	1418.5846	1447.7345	1456.1773	1475.4256	1487.0089	1489.2194	1502.6779	1507.2059	1676.6249	1765.4673	2990.3696	3037.2628	3042.4186	3047.1389	3055.1873	3064.6058	3067.2318	3091.8284	3113.3629	3136.3216	3186.0084
CCN1C=NCC1=NC	CCN1C=NCC1=NC	
InChI=1S/C6H11N3/c1-3-9-5-8-4-6(9)7-2/h5H,3-4H2,1-2H3	InChI=1S/C6H11N3/c1-3-9-5-8-4-6(9)7-2/h5H,3-4H2,1-2H3
