19
gdb 81595	3.69438	1.18343	1.03541	2.6425	76.	-0.2325	0.0783	0.3109	1186.4208	0.160742	-419.089673	-419.082009	-419.081065	-419.122109	30.425	
O	 0.1652874214	 1.4862521547	 0.0553638359	-0.450909
C	 0.1249719475	 0.1001094967	 0.0602551627	 0.215677
C	-0.0929336592	-0.640857398	 1.4239173174	-0.132375
N	-1.4960952519	-0.0550725869	 1.3788909446	-0.363112
C	-1.2583773803	-0.6162970002	-0.0170887507	-0.107997
C	-0.6156797118	-1.8790503124	 0.6187765878	 0.069584
N	 0.204654665	-2.768017213	-0.177091292	-0.101024
C	 1.6587396203	-2.7612339535	-0.0224776408	-0.219154
C	 0.8453455318	-3.883570334	 0.5127128344	-0.225612
H	-0.5579882216	 1.7584018734	 0.6399908302	 0.290387
H	 0.9095177597	-0.2708708052	-0.5956588244	 0.099211
H	 0.508490468	-0.5939754745	 2.3340602259	 0.080751
H	-2.1472435231	-0.6539708789	 1.89519271	 0.21163
H	-2.0183027444	-0.557037328	-0.7975339846	 0.084165
H	-1.3459581146	-2.4725844097	 1.1799158613	 0.075039
H	 2.2289880309	-2.8759214975	-0.9402512239	 0.122144
H	 2.0983727584	-2.080933053	 0.703537441	 0.122471
H	 0.7400933441	-3.9439154183	 1.5951572253	 0.110401
H	 0.8090314697	-4.8396459517	-0.0022466998	 0.118722
67.1605	160.7235	186.7943	302.2838	335.21	389.9935	429.5155	537.9902	598.8776	673.5867	776.5993	806.2022	814.1939	846.814	864.0056	885.5868	908.3478	920.5087	932.805	1034.9075	1038.6694	1076.4109	1106.3172	1116.0926	1121.2573	1129.3246	1144.8239	1155.3235	1173.1725	1182.0027	1183.9583	1195.7404	1254.2819	1267.5267	1285.3525	1333.8209	1345.1846	1401.5799	1467.9318	1493.7006	1523.3489	3046.4782	3091.0383	3093.4323	3104.6566	3110.8926	3154.3869	3175.3594	3192.5983	3395.8797	3724.8004
OC1C2NC1C2N1CC1	O[C@H]1[C@H]2N[C@@H]1[C@H]2N1CC1	
InChI=1S/C6H10N2O/c9-6-3-5(4(6)7-3)8-1-2-8/h3-7,9H,1-2H2	InChI=1S/C6H10N2O/c9-6-3-5(4(6)7-3)8-1-2-8/h3-7,9H,1-2H2/t3-,4+,5-,6-
