20
gdb 58598	2.17483	1.22819	1.04497	2.3499	78.36	-0.2818	0.0258	0.3076	1270.6734	0.169084	-403.15079	-403.140987	-403.140043	-403.186093	35.905	
C	 0.0056841906	 1.375503959	 0.0535982623	-0.396956
C	-0.3626667662	-0.1008210328	-0.1846092124	-0.044734
C	 0.7897495022	-1.012591157	 0.2542720213	-0.413328
C	-1.6864894281	-0.4303723116	 0.5070164446	 0.419225
C	-2.938277063	 0.212855493	-0.1045460352	-0.416011
C	-3.2389791907	-0.3060141413	-1.4371830796	 0.26844
N	-3.4588167131	-0.7293268266	-2.4897671913	-0.312209
C	-1.9004481465	-1.6375991757	 1.3195065619	-0.227618
O	-1.6855174524	-0.3602059102	 1.9347106228	-0.283203
H	 0.9480652873	 1.6162169144	-0.4463310936	 0.120391
H	-0.7500361909	 2.0662338968	-0.3323905759	 0.114181
H	 0.1269038214	 1.5696427308	 1.1239298362	 0.135939
H	-0.5253949541	-0.2481593354	-1.2602968679	 0.102402
H	 0.9246484603	-0.9735012015	 1.3401933097	 0.133727
H	 0.6239155022	-2.0527425423	-0.0397718484	 0.119608
H	 1.7238266413	-0.6840457908	-0.2100792738	 0.11771
H	-3.7908114911	 0.028092723	 0.5557523294	 0.160664
H	-2.8162604255	 1.2990312451	-0.1681943106	 0.158418
H	-2.9072610608	-2.0406800509	 1.4227354323	 0.117236
H	-1.100803933	-2.3588738661	 1.4582307581	 0.126117
35.7693	71.7322	129.5868	208.4796	243.4927	271.2303	297.1145	339.6329	366.9781	396.9099	403.3761	457.9086	481.7643	613.3288	686.9438	850.6307	861.5622	910.3919	927.9457	937.7789	955.1024	971.5324	1012.6987	1105.4023	1120.849	1132.2639	1171.1358	1174.393	1201.8623	1238.9855	1317.0818	1338.399	1378.2678	1393.0092	1404.4512	1424.1759	1463.3155	1491.8998	1495.512	1508.7371	1516.0398	1538.1026	2361.8874	3026.4258	3037.7196	3041.5374	3061.7787	3097.6826	3101.2664	3107.4271	3110.2288	3113.6097	3117.7503	3196.4239
CC(C)C1(CC#N)CO1	CC(C)[C@@]1(CC#N)CO1	
InChI=1S/C7H11NO/c1-6(2)7(3-4-8)5-9-7/h6H,3,5H2,1-2H3	InChI=1S/C7H11NO/c1-6(2)7(3-4-8)5-9-7/h6H,3,5H2,1-2H3/t7-/m1/s1
