20
gdb 10185	2.16234	1.44436	0.91544	4.4247	76.55	-0.2431	0.0315	0.2746	1309.618	0.176085	-345.196222	-345.186358	-345.185414	-345.23144	34.51	
C	 0.0045008918	 1.5736284679	 0.0720386464	-0.391401
C	 0.122297549	 0.0535160819	 0.1009077162	-0.118619
N	 0.5479978089	-0.4556173673	-1.2039570451	-0.295839
C	 0.6400259851	-1.909694673	-1.2861699801	-0.096085
C	 0.8676420138	-2.3818080015	-2.7386365338	-0.189449
C	-0.3308381218	-2.1284440179	-3.6577443195	-0.40666
C	 1.7535188311	-2.3776422294	-0.4385904554	 0.306309
N	 2.6172087623	-2.7682890634	 0.2220668039	-0.334128
H	 0.9567800325	 2.0281847165	-0.214533027	 0.133827
H	-0.7569507918	 1.8990927603	-0.6466299385	 0.111051
H	-0.2839533982	 1.956403468	 1.0550576554	 0.121634
H	 0.8753485724	-0.2462910635	 0.8386024597	 0.131671
H	-0.8347192583	-0.3922157901	 0.4307865954	 0.080354
H	-0.1027373803	-0.1376438215	-1.9142865811	 0.220971
H	-0.2687310647	-2.4135638696	-0.9001914666	 0.098353
H	 1.7612023526	-1.8804694526	-3.1239898341	 0.128633
H	 1.0863570384	-3.4538543123	-2.7123232434	 0.12309
H	-1.2434178243	-2.5847478053	-3.2586393907	 0.123136
H	-0.5243268167	-1.0615943338	-3.8106374832	 0.123571
H	-0.1478326818	-2.5614883634	-4.6452200782	 0.129581
70.3223	81.2757	98.1072	145.812	169.0769	220.0925	251.1602	279.5015	335.1612	395.5217	439.053	543.1691	604.3509	725.9333	786.296	822.665	864.4739	908.939	970.3033	1013.1197	1057.2403	1086.7275	1113.1592	1154.9766	1162.5277	1201.9372	1281.7633	1294.5512	1324.3474	1356.2463	1384.6266	1392.7482	1414.5675	1415.5797	1478.7905	1480.7998	1494.7731	1498.2876	1501.2494	1515.6784	1525.481	2359.0333	2899.4637	2928.1544	3033.4004	3035.1978	3054.1677	3058.7806	3086.7529	3102.1053	3109.8792	3110.9921	3124.1713	3529.8776
CCNC(CC)C#N	CCN[C@@H](CC)C#N	
InChI=1S/C6H12N2/c1-3-6(5-7)8-4-2/h6,8H,3-4H2,1-2H3	InChI=1S/C6H12N2/c1-3-6(5-7)8-4-2/h6,8H,3-4H2,1-2H3/t6-/m0/s1
