21
gdb 112827	2.67213	1.03681	0.82456	2.4652	74.16	-0.2551	0.0576	0.3126	1411.869	0.182096	-461.334081	-461.3243	-461.323356	-461.368747	36.542	
O	-0.2476509882	 1.5198180402	-0.2648303507	-0.423081
C	 0.0190715381	 0.1441915494	-0.0266107988	-0.104347
C	-1.3193272995	-0.5635098654	 0.0553340282	 0.029707
C	-2.188739327	-0.6573591176	-1.2292059772	-0.276374
C	-2.6016257552	-2.0791645076	-0.7891580853	 0.139553
O	-2.7281758635	-3.1029009763	-1.7681203429	-0.43826
C	-1.380989371	-2.1199715741	 0.1874290509	-0.097708
C	-0.2070500286	-2.9203156801	-0.3778127882	-0.073449
O	-0.4996757406	-4.3045782127	-0.3931292586	-0.431416
H	 0.5924529408	 1.9820541625	-0.3385615696	 0.287529
H	 0.6316125263	-0.2831305871	-0.836186689	 0.083984
H	 0.5742268149	 0.0015663984	 0.9150150842	 0.090157
H	-1.8951421225	-0.098889183	 0.8617766582	 0.087508
H	-2.9744599131	 0.0837358206	-1.3829292203	 0.113372
H	-1.5590016484	-0.6853181215	-2.1274795971	 0.091578
H	-3.5459445621	-2.0759587075	-0.2378191757	 0.095944
H	-2.1747480963	-2.8668826911	-2.5194146497	 0.288478
H	-1.5993292674	-2.5036207382	 1.1877586894	 0.077096
H	 0.0644751206	-2.5590025789	-1.385653103	 0.065119
H	 0.6832356092	-2.7940479549	 0.2478803969	 0.106948
H	-1.3278516065	-4.3897394152	-0.8851675015	 0.287664
83.9237	105.9828	133.502	170.1279	219.9434	266.1572	295.0937	303.0293	348.1287	392.2335	425.3222	451.5696	600.8616	609.8016	683.1732	778.8982	845.5783	898.4715	916.8464	955.0085	1000.0755	1058.6345	1066.9476	1073.3107	1076.6298	1112.3594	1142.8702	1155.3964	1188.3412	1217.4913	1245.6998	1256.7089	1274.4174	1278.8703	1290.4333	1323.7529	1343.7489	1369.7405	1399.7376	1426.7953	1451.1397	1463.7822	1482.5103	1514.4092	1524.1083	2937.7927	2963.8325	2992.9635	3032.9586	3057.0072	3061.3532	3067.4064	3080.0347	3119.561	3744.4046	3823.5626	3828.6199
OCC1CC(O)C1CO	OC[C@H]1C[C@@H](O)[C@H]1CO	
InChI=1S/C6H12O3/c7-2-4-1-6(9)5(4)3-8/h4-9H,1-3H2	InChI=1S/C6H12O3/c7-2-4-1-6(9)5(4)3-8/h4-9H,1-3H2/t4-,5+,6-/m1/s1
