18
gdb 120362	3.19506	1.063	0.84489	3.6146	75.21	-0.2226	-0.0163	0.2062	1374.8694	0.14678	-439.113521	-439.104443	-439.103499	-439.148362	32.585	
C	 0.0532248412	 1.5211522477	 0.0324576765	-0.385371
C	-0.1203832302	 0.0180558621	-0.0993901643	-0.033496
O	 0.7602765569	-0.4406656958	-1.1105796395	-0.24391
C	 0.7654083958	-1.8379484485	-1.2782246148	-0.029137
C	-0.3787108775	-2.4359936385	-2.069632625	-0.171172
C	 0.1302258557	-3.0943615507	-3.1142440305	-0.014333
N	 1.5317521136	-3.016317521	-3.150084173	-0.332266
C	 2.0137667712	-2.2210382545	-2.1258008848	 0.401052
O	 3.1608073914	-1.9054937736	-1.9389116755	-0.349854
H	 1.0862068921	 1.7641583565	 0.295552166	 0.134177
H	-0.1862598734	 2.0185832393	-0.9115211279	 0.128835
H	-0.6087622847	 1.9134547079	 0.8103001397	 0.113935
H	 0.1107667832	-0.4866144899	 0.8536903672	 0.089236
H	-1.1643771552	-0.2271829386	-0.3521403986	 0.08759
H	 0.86673764	-2.3359699578	-0.2971560254	 0.098556
H	-1.4230460033	-2.374422617	-1.8067090992	 0.110478
H	-0.3813798516	-3.663927159	-3.8778412336	 0.132371
H	 2.1153333447	-3.3335595688	-3.9060943175	 0.263308
57.8821	67.1357	102.4447	152.0507	242.7414	292.7605	297.6632	354.9742	463.4968	514.1777	595.6296	650.0462	697.1582	737.4039	806.5016	820.4175	894.3994	913.3801	926.9191	1000.5678	1051.3687	1076.6703	1122.1732	1146.0381	1173.6195	1186.3929	1199.5948	1265.2999	1295.0552	1325.5768	1376.132	1401.4048	1410.1296	1434.1767	1482.3699	1499.6416	1526.0988	1670.3163	1857.3686	2944.0013	2961.6515	2990.4396	3046.3502	3120.2336	3126.0101	3229.0801	3260.0844	3663.7384
CCOC1C=CNC1=O	CCO[C@H]1C=CNC1=O	
InChI=1S/C6H9NO2/c1-2-9-5-3-4-7-6(5)8/h3-5H,2H2,1H3,(H,7,8)	InChI=1S/C6H9NO2/c1-2-9-5-3-4-7-6(5)8/h3-5H,2H2,1H3,(H,7,8)/t5-/m0/s1
