17
gdb 31974	3.29751	1.04346	0.84837	3.0794	74.59	-0.1958	0.0104	0.2063	1360.9346	0.136298	-455.161539	-455.152392	-455.151448	-455.196694	32.085	
C	 0.0203699809	 1.4324682448	 0.1524459974	-0.333752
N	 0.3547275824	 0.0280256424	-0.0684563758	-0.394554
C	 0.694641965	-0.7609636529	 1.0055208712	 0.388101
C	 0.5774302829	-2.0889547169	 1.2976787374	-0.225597
N	 1.2079442036	-2.3314193996	 2.5114913639	-0.289746
C	 1.6536362291	-1.1838712673	 2.9033741745	 0.336861
C	 2.4442571774	-0.8567755389	 4.1216007389	-0.165538
O	 3.8259603749	-0.6394919788	 3.8534119121	-0.412021
O	 1.374932234	-0.1649009852	 2.0193348106	-0.198336
H	 0.8656397745	 1.9361882616	 0.6247209431	 0.157371
H	-0.1593005756	 1.9022695262	-0.8168055421	 0.130374
H	-0.8662712971	 1.576844403	 0.7872148858	 0.120109
H	-0.2725784233	-0.4474800749	-0.700490821	 0.249099
H	 0.093642273	-2.8681536925	 0.7321524426	 0.1076
H	 2.0843794828	 0.0740254615	 4.5701373804	 0.123987
H	 2.2868594037	-1.6718053142	 4.8394644799	 0.119663
H	 4.1666537916	-1.4463826783	 3.4519140411	 0.286379
44.6832	64.0323	120.6848	150.3083	178.7577	288.5599	317.4933	363.2317	436.9412	465.1963	581.4842	655.3011	705.8879	732.4844	768.2783	789.9261	937.9856	976.2108	1003.2021	1046.1685	1071.2993	1124.7527	1149.9606	1160.371	1207.4806	1268.578	1299.512	1367.6165	1382.4045	1423.7807	1451.2081	1482.5963	1486.5296	1490.1399	1516.2869	1620.437	1658.0256	2996.2962	3029.2077	3092.5014	3100.2424	3142.3033	3266.8767	3606.7989	3805.7291
CNC1=CN=C(CO)O1	CNc1cnc(CO)o1	
InChI=1S/C5H8N2O2/c1-6-4-2-7-5(3-8)9-4/h2,6,8H,3H2,1H3	InChI=1S/C5H8N2O2/c1-6-4-2-7-5(3-8)9-4/h2,6,8H,3H2,1H3
