18
gdb 41425	3.35859	1.87557	1.52692	1.8723	73.51	-0.2399	0.0659	0.3058	894.088	0.150657	-401.876776	-401.870466	-401.869522	-401.907119	26.547	
C	 0.0488529929	 1.4818761475	-0.0574338863	-0.185721
O	 1.4952469175	 1.3886621943	 0.0126829289	-0.303476
C	 1.4352477296	-0.0124738645	 0.3915304891	 0.079961
C	 1.7095671984	-1.0179325767	-0.7120262672	-0.076705
C	 0.3326277739	-0.8169839751	-1.2631179795	-0.091094
N	 0.6862299756	-2.0984592149	-0.6934034982	-0.111412
C	-0.1066968005	-2.3051347341	 0.5562342897	-0.154566
C	-0.9299876681	-1.0023768472	 0.8083131535	-0.32695
C	-0.0768312256	-0.0375851591	 0.013993189	 0.262579
H	-0.3561083756	 2.0135748601	 0.8146776781	 0.101406
H	-0.2947918463	 1.9757063494	-0.9732440259	 0.106491
H	 1.8289503199	-0.1682981918	 1.4015316059	 0.073391
H	 2.6435045137	-1.2325755025	-1.2197256099	 0.097959
H	-0.0396354502	-0.7138369708	-2.2758803741	 0.092591
H	-0.7491256361	-3.1756072164	 0.4002563594	 0.112717
H	 0.5633182719	-2.5323158149	 1.3905857357	 0.112851
H	-1.9498718698	-1.0876570207	 0.4163859756	 0.104087
H	-0.9917909412	-0.7489799727	 1.8710035459	 0.105893
202.4949	237.5445	308.5052	374.6194	443.9886	514.2893	689.3146	703.6488	720.6605	768.1756	842.0282	859.5517	867.6513	893.6147	926.1838	956.956	982.4394	986.4702	1000.444	1012.0571	1024.9047	1069.6479	1127.0593	1136.4642	1158.1364	1181.2326	1196.8573	1223.6584	1239.5155	1259.1008	1276.6119	1306.7007	1312.1733	1327.3164	1355.4199	1372.6371	1490.6231	1506.0887	1518.7709	3004.187	3037.8277	3048.5105	3059.166	3062.1305	3086.2287	3105.9318	3169.662	3183.4975
C1OC2C3C4N3CCC124	C1O[C@@H]2[C@@H]3[C@H]4N3CC[C@@]124	
InChI=1S/C7H9NO/c1-2-8-4-5(8)7(1)3-9-6(4)7/h4-6H,1-3H2	InChI=1S/C7H9NO/c1-2-8-4-5(8)7(1)3-9-6(4)7/h4-6H,1-3H2/t4-,5+,6+,7-,8?/m0/s1
