20
gdb 111907	2.24404	1.38076	0.90225	3.7271	83.49	-0.226	0.0039	0.2299	1336.3056	0.171102	-399.375142	-399.365613	-399.364668	-399.409628	34.986	
C	-0.0182679796	 1.5619882591	-0.0279170717	-0.386137
C	 0.0381568633	 0.0340114052	-0.023817556	-0.162776
C	 0.701330921	-0.534219748	 1.2389964515	-0.047743
N	-0.0787717991	-0.2555840646	 2.4572117246	-0.291261
C	-0.3155243953	-1.3818171269	 3.0125496901	 0.36675
C	-1.0855233623	-1.5804240732	 4.2763761697	-0.492187
N	 0.220713081	-2.4864279782	 2.343481035	-0.380297
C	 0.8655015418	-2.055144518	 1.1869865874	 0.373731
N	 1.4563577752	-2.7110207861	 0.2734103087	-0.554091
H	 0.9887292003	 1.9936017386	-0.0041551197	 0.111354
H	-0.5181134062	 1.9320168084	-0.9283601365	 0.107695
H	-0.5613303586	 1.9324432152	 0.8455065854	 0.136513
H	-0.9742336793	-0.3810732454	-0.1004095613	 0.093624
H	 0.6003187324	-0.3425274341	-0.8848985561	 0.122622
H	 1.693177631	-0.0745911561	 1.3474327804	 0.111065
H	-1.4254686011	-0.6125382176	 4.6441818556	 0.1605
H	-1.9549040571	-2.2263753949	 4.1092240767	 0.13703
H	-0.4634039989	-2.056976945	 5.0422638564	 0.139328
H	 0.0891924019	-3.4491605393	 2.6054959381	 0.251005
H	 1.4377125096	-3.7172661689	 0.4478555918	 0.203275
79.9521	106.8075	142.917	162.1964	173.4026	243.6233	286.5635	333.4881	358.1168	420.7556	526.6804	604.1902	617.2473	658.851	702.1819	791.0413	851.1764	877.1811	942.3217	968.6221	983.7863	1021.5999	1061.2859	1072.7602	1100.2074	1132.4399	1137.0957	1229.0781	1264.8456	1273.4451	1318.1633	1326.5424	1370.7597	1400.9988	1410.1495	1440.9877	1480.8791	1483.0964	1484.0372	1495.6099	1509.6826	1714.0914	1759.0552	3016.7386	3034.193	3037.0063	3037.5028	3080.1451	3091.7749	3100.8636	3122.6022	3159.7503	3452.0025	3654.7398
CCC1N=C(C)NC1=N	CC[C@H]1N=C(C)N[C]1[NH]	
InChI=1S/C6H11N3/c1-3-5-6(7)9-4(2)8-5/h5H,3H2,1-2H3,(H2,7,8,9)	InChI=1S/C6H11N3/c1-3-5-6(7)9-4(2)8-5/h5H,3H2,1-2H3,(H2,7,8,9)/t5-/m1/s1
