19
gdb 84500	3.08145	1.38933	1.11958	3.0719	77.92	-0.241	0.0088	0.2499	1133.3813	0.158524	-423.009024	-423.000478	-422.999534	-423.041994	33.08	
C	 0.0580425734	 1.618234592	-0.0205061374	-0.422605
C	 0.0738824712	 0.0866865824	-0.0255499582	-0.049804
C	 0.8438732603	-0.5253441794	-1.1793884008	-0.074203
C	 1.589698387	-1.5618320027	-0.8011148641	-0.158414
C	 1.4380718766	-1.8105794329	 0.6556666063	 0.451655
C	 1.2913592276	-3.1572052596	 1.238978244	-0.254039
O	 2.4954856784	-2.4105941804	 1.398347955	-0.269471
C	 0.7496421547	-0.5620571807	 1.2285357939	-0.026596
O	 1.7728284763	 0.2464602722	 1.7851041922	-0.412809
H	 1.0736585325	 2.0181488213	 0.0362098571	 0.135463
H	-0.407451799	 1.9993565568	-0.9349033212	 0.117757
H	-0.519027221	 2.0118593253	 0.8248053126	 0.106324
H	-0.9678060247	-0.2653028733	-0.0693801734	 0.082935
H	 0.750899006	-0.1541000192	-2.194496574	 0.097635
H	 2.2094709636	-2.1867345457	-1.4324920893	 0.10515
H	 0.6969892192	-3.2910307001	 2.142807484	 0.11169
H	 1.3604231506	-4.0340983493	 0.5952697782	 0.110074
H	 0.0074978836	-0.8209363847	 1.995917226	 0.062813
H	 1.3547097138	 1.008726518	 2.1968762788	 0.286445
62.5423	197.1287	223.5447	241.9596	271.5851	304.6066	316.2333	348.861	445.1657	469.3167	578.8065	618.0348	725.3174	782.4543	831.4297	839.6542	896.1426	899.4003	933.4156	967.0447	974.5393	1005.4757	1078.2115	1097.2876	1124.5611	1131.7349	1155.9726	1162.9877	1204.2805	1251.7295	1282.3768	1322.197	1327.9782	1355.951	1391.8591	1414.9178	1446.4919	1497.1832	1508.4296	1526.5558	1676.6484	2984.9524	3008.0955	3029.5697	3070.8895	3092.5368	3121.4866	3157.3998	3184.148	3216.7408	3828.0745
CC1C=CC2(CO2)C1O	C[C@H]1C=C[C@]2(CO2)[C@H]1O	
InChI=1S/C7H10O2/c1-5-2-3-7(4-9-7)6(5)8/h2-3,5-6,8H,4H2,1H3	InChI=1S/C7H10O2/c1-5-2-3-7(4-9-7)6(5)8/h2-3,5-6,8H,4H2,1H3/t5-,6-,7-/m0/s1
