23
gdb 119986	2.24021	1.08416	0.90758	1.3808	83.81	-0.2263	0.0748	0.3011	1467.4771	0.202682	-425.391327	-425.380336	-425.379392	-425.427894	38.799	
C	 0.0333117846	 1.4671953064	 0.1782632236	-0.386011
C	-0.1638768468	-0.0228797235	 0.3939572942	-0.030942
O	 1.0744845035	-0.5741095182	 0.8304892807	-0.244615
C	 1.0225619357	-1.942144144	 1.0500543298	 0.064732
C	 1.9429814115	-2.4935285363	 2.114031707	-0.109423
C	 2.8541569931	-1.5542797977	 2.8744625288	-0.397772
C	 0.4350861428	-2.4680577442	 2.3377029032	 0.061999
O	-0.1220819654	-1.5262790079	 3.1967760072	-0.230587
C	-0.2074579654	-1.9796434342	 4.5339726717	-0.231266
H	 0.8109727993	 1.65000709	-0.56903295	 0.122998
H	-0.896880579	 1.9276925321	-0.1681073282	 0.111973
H	 0.3340094346	 1.9517871578	 1.1115090209	 0.127306
H	-0.9390620339	-0.2138568783	 1.1469600085	 0.111439
H	-0.4779956295	-0.5113183499	-0.5434176999	 0.080018
H	 0.8541133434	-2.5367944671	 0.149230962	 0.078259
H	 2.3661002241	-3.4716803693	 1.8991942704	 0.08195
H	 2.3338735695	-0.6292536157	 3.1249357706	 0.140293
H	 3.2090275607	-2.0187594061	 3.8005603949	 0.107066
H	 3.7314213393	-1.2930058792	 2.2738234188	 0.118687
H	-0.1027120058	-3.4181618358	 2.3082901311	 0.077985
H	-0.8365349679	-2.8793837477	 4.6132566922	 0.105875
H	 0.7822498081	-2.2106978096	 4.9504495113	 0.113287
H	-0.6640556764	-1.1764634417	 5.1172365012	 0.12675
58.4237	101.3397	108.033	118.403	159.4798	169.1114	190.2888	237.7668	248.7932	288.0853	315.1423	413.8465	520.3506	620.329	667.5532	757.402	796.9494	822.8649	876.8374	918.5172	978.5621	1014.3736	1063.0397	1073.2136	1106.2101	1128.4698	1149.8708	1150.3568	1169.381	1181.4938	1184.3441	1191.5133	1236.8257	1271.6785	1296.6429	1354.476	1363.3554	1399.0563	1411.8536	1419.4431	1456.4229	1482.8431	1484.6094	1485.6251	1495.4185	1500.7006	1501.6073	1508.942	1525.6637	2967.9253	2984.9401	3037.9795	3042.688	3042.8121	3043.8192	3063.4908	3075.3809	3093.6674	3117.6761	3117.9819	3120.7492	3132.3242	3150.1199
CCOC1C(C)C1OC	CCO[C@H]1[C@@H](C)[C@H]1OC	
InChI=1S/C7H14O2/c1-4-9-7-5(2)6(7)8-3/h5-7H,4H2,1-3H3	InChI=1S/C7H14O2/c1-4-9-7-5(2)6(7)8-3/h5-7H,4H2,1-3H3/t5-,6+,7-/m0/s1
