17
gdb 31499	3.23062	1.12288	0.84568	3.0346	73.45	-0.1827	0.0334	0.2161	1324.2218	0.135818	-455.187798	-455.17841	-455.177466	-455.222294	33.53	
C	 0.0164721336	 1.5266526477	 0.1499681574	-0.514527
C	 0.0359048636	 0.0446989716	 0.0136273203	 0.206985
C	 0.0080052565	-0.7842209303	-1.0805610282	 0.264017
O	-0.0306167895	-0.3963103278	-2.3792034765	-0.445773
N	 0.0164452343	-2.1053002146	-0.7309832001	-0.407361
C	 0.0553143213	-2.1035954463	 0.5889307804	 0.344707
C	 0.1216672034	-3.3029720304	 1.4776686767	-0.190182
O	-0.2517511509	-2.8873373427	 2.7869292451	-0.428992
N	 0.0761020532	-0.8439824779	 1.0835597028	-0.322174
H	 0.9099452186	 1.9154575102	 0.6555088	 0.122526
H	-0.0203188211	 1.9747154898	-0.8456751941	 0.151167
H	-0.8580708557	 1.8863789657	 0.707551871	 0.12349
H	-0.055068598	-1.2080181348	-2.8991204378	 0.297039
H	-0.5473682396	-4.0801536079	 1.0818814003	 0.121996
H	 1.141691745	-3.719892927	 1.4748149735	 0.112208
H	-0.0175069944	-3.5867021465	 3.4028422646	 0.296378
H	 0.0580299896	-0.6257359188	 2.0659475047	 0.268496
56.4587	118.0696	152.3824	183.4369	220.5291	243.6824	255.5539	339.0072	346.0063	384.7979	533.1853	557.9845	642.4944	660.2229	689.8697	725.3831	812.9665	991.005	1031.3231	1044.2002	1065.5924	1075.7929	1140.1704	1180.0499	1225.7039	1248.6705	1283.1452	1343.8173	1413.9659	1429.7322	1460.1842	1482.441	1498.4048	1504.452	1515.8063	1571.1164	1693.8236	2970.1328	3009.493	3016.6077	3050.2559	3124.3816	3668.3668	3811.4882	3845.0583
CC1=C(O)N=C(CO)N1	Cc1c(O)nc(CO)[nH]1	
InChI=1S/C5H8N2O2/c1-3-5(9)7-4(2-8)6-3/h8-9H,2H2,1H3,(H,6,7)	InChI=1S/C5H8N2O2/c1-3-5(9)7-4(2-8)6-3/h8-9H,2H2,1H3,(H,6,7)
