18
gdb 80795	1.95323	1.66623	1.23592	5.2228	77.76	-0.2806	0.0267	0.3073	1101.1848	0.147686	-401.913632	-401.905095	-401.904151	-401.946543	32.478	
C	-0.1450302675	 1.6069254041	 0.0019656225	-0.450579
C	 0.012670775	 0.0967104832	-0.013591931	 0.017777
C	 1.1857823634	-0.6165491726	-0.7687783746	-0.143883
C	 2.1478367097	-0.1681464312	 0.3658655452	-0.277929
C	 0.8542620182	-0.6521693916	 1.092681939	 0.193396
C	 0.6072981243	-0.6770050517	 2.5118173098	 0.152256
N	 0.4064382262	-0.6854477511	 3.6508778229	-0.353946
C	 0.8971355737	-1.8707533977	 0.1256303263	 0.119561
O	-0.3010772762	-2.576948821	-0.0022552776	-0.432442
H	 0.7897883354	 2.1527218047	 0.1496950257	 0.121466
H	-0.5779105575	 1.9435688197	-0.9462501579	 0.124758
H	-0.8338106193	 1.9055015486	 0.7991714499	 0.136862
H	-0.9523328052	-0.382399304	-0.181063879	 0.106245
H	 1.3861293676	-0.6036441709	-1.8398747139	 0.081522
H	 3.0417222517	-0.7755628565	 0.5290051375	 0.10847
H	 2.3762807547	 0.8922532961	 0.4405587211	 0.119889
H	 1.7528107255	-2.5399682798	 0.278620073	 0.082616
H	-0.1805616497	-3.2663766582	-0.6621248889	 0.293962
117.8471	140.5689	184.4677	197.1467	250.3623	278.3307	353.1383	394.3202	514.1859	527.3978	561.8593	571.1442	662.6232	781.3916	788.21	815.0158	917.6803	938.8523	956.6697	1015.2249	1046.9597	1092.7178	1098.0697	1133.6713	1151.6039	1165.7899	1181.7793	1208.152	1230.7891	1242.0309	1254.7094	1308.0458	1408.2632	1422.7207	1444.3413	1495.6139	1498.4979	1529.9552	2348.8969	3031.1771	3040.0068	3076.1831	3098.4731	3105.0362	3121.1466	3126.7003	3167.1189	3831.7144
CC1C2CC1(C#N)C2O	C[C@H]1[C@H]2C[C@]1(C#N)[C@H]2O	
InChI=1S/C7H9NO/c1-4-5-2-7(4,3-8)6(5)9/h4-6,9H,2H2,1H3	InChI=1S/C7H9NO/c1-4-5-2-7(4,3-8)6(5)9/h4-6,9H,2H2,1H3/t4-,5+,6-,7+/m0/s1
