27
gdb 96544	2.11778	1.37311	0.97931	0.1387	95.07	-0.2905	0.0792	0.3697	1378.2309	0.254787	-353.582546	-353.572923	-353.571979	-353.616205	38.761	
C	-0.1129699869	 1.5899943948	-0.0056659098	-0.420028
C	 0.0398163609	 0.0607648438	-0.0074809967	 0.062006
C	 0.6092840825	-0.4456910068	-1.3538765671	-0.196197
C	-0.0056121788	-1.7764247547	-1.8180413103	-0.188428
C	 0.3686634644	-3.016427179	-0.9938517159	-0.175432
C	 0.1656590124	-2.9092279766	 0.5274717626	-0.205384
C	 1.1571645321	-1.9530673337	 1.2144528645	-0.188144
C	 0.8038391379	-0.4467223953	 1.2470590058	 0.031265
C	 2.0821731813	 0.3489097909	 1.5581183561	-0.395226
H	 0.8384569844	 2.0938224216	-0.2049693985	 0.116216
H	-0.8191550162	 1.9051032412	-0.7810389935	 0.106259
H	-0.4893474993	 1.9563752044	 0.9561351688	 0.10636
H	-0.9772033993	-0.346420428	 0.0708579038	 0.066267
H	 0.4048209755	 0.3056270395	-2.1261551436	 0.086266
H	 1.7031609038	-0.5283589275	-1.3052060247	 0.089544
H	-1.0989037678	-1.6628243093	-1.8201001505	 0.090238
H	 0.2784797094	-1.9597888486	-2.8618999716	 0.086351
H	-0.2077117896	-3.8689054948	-1.374511569	 0.086802
H	 1.4244548077	-3.2621343987	-1.176159791	 0.090146
H	-0.8702357106	-2.6277140625	 0.7586479047	 0.090959
H	 0.3035762608	-3.910151786	 0.9536389209	 0.08826
H	 1.3094494968	-2.272805869	 2.2525055068	 0.088318
H	 2.1350775534	-2.0786220922	 0.7289113924	 0.088001
H	 0.1166918521	-0.291831406	 2.0915601813	 0.064557
H	 2.7833670221	 0.3241591199	 0.7154142174	 0.112456
H	 1.8754406732	 1.396625367	 1.7910873179	 0.111186
H	 2.5983805678	-0.0848907643	 2.4214044091	 0.107379
93.3992	135.3771	224.5562	242.6545	272.5169	282.0221	298.6895	328.1532	348.4312	378.449	403.8402	497.1371	510.9662	559.4874	704.1554	793.9688	813.9752	840.1152	865.5636	914.2337	934.6912	965.9229	969.3075	1002.2178	1010.8862	1046.0086	1071.9763	1080.3969	1093.5416	1117.1631	1162.0732	1187.1584	1214.1449	1225.4529	1247.1295	1293.6088	1307.0583	1334.652	1346.8246	1360.646	1365.7433	1375.7417	1390.7765	1392.1419	1396.3754	1403.7645	1410.2258	1416.0844	1482.7465	1484.926	1487.6904	1492.4832	1497.0226	1497.3955	1504.1793	1504.4957	1514.4708	2984.5243	3001.6491	3004.6272	3006.0591	3007.1426	3017.5224	3017.8056	3026.2166	3030.3163	3044.2065	3047.2807	3049.5861	3055.1036	3059.4606	3088.4558	3092.0573	3098.5045	3113.3231
CC1CCCCCC1C	C[C@H]1CCCCC[C@H]1C	
InChI=1S/C9H18/c1-8-6-4-3-5-7-9(8)2/h8-9H,3-7H2,1-2H3	InChI=1S/C9H18/c1-8-6-4-3-5-7-9(8)2/h8-9H,3-7H2,1-2H3/t8-,9+
