18
gdb 72674	2.3582	1.50837	1.4468	1.1923	78.49	-0.2265	0.0135	0.24	1041.8136	0.146003	-401.869754	-401.861081	-401.860137	-401.902842	33.117	
C	-0.2235891905	 1.554002268	-0.0021744418	-0.462556
C	 0.0220085951	 0.0669118614	 0.0141643013	 0.212059
C	-1.1789968869	-0.892053858	 0.1578087927	-0.118744
O	-0.5272273327	-1.6462730847	 1.2065353115	-0.328221
C	 0.6289689618	-0.7761326802	 1.19845216	 0.223179
C	 1.6987291118	-1.2749073819	 0.1952980175	-0.223111
N	 1.1134986835	-0.4105236886	-0.865191513	-0.356741
C	 1.0137463912	-0.2816836392	 2.4925762349	 0.254273
C	 1.3501467025	 0.1531833134	 3.5621935705	-0.416779
H	 0.7186476499	 2.0981313786	 0.0993677906	 0.132901
H	-0.6831662813	 1.8532710076	-0.9520453769	 0.12005
H	-0.8948408781	 1.8524636773	 0.8090080754	 0.124128
H	-2.1033407943	-0.4255887353	 0.5228329644	 0.105259
H	-1.4093261504	-1.5077710186	-0.7212431205	 0.09464
H	 2.7309448868	-0.9990215918	 0.434419566	 0.11394
H	 1.6346152324	-2.3566330941	 0.0385703568	 0.112
H	 0.8074074604	-0.8976008604	-1.701148992	 0.216727
H	 1.6430362589	 0.5306081864	 4.5108816327	 0.196996
91.0857	114.8469	176.0907	194.1086	255.2465	346.5008	364.2372	384.7246	511.3178	550.2709	554.0712	623.3005	638.729	666.5781	685.7753	770.5856	880.1074	901.3409	951.1244	967.7949	996.7482	1009.1238	1041.6562	1099.7297	1121.0617	1151.232	1189.4999	1212.1623	1233.907	1275.9193	1326.3568	1353.33	1370.8344	1413.0101	1481.8889	1488.6759	1498.8903	1516.4345	2233.7378	3003.4396	3030.9084	3032.9217	3050.1045	3085.4411	3097.2003	3125.055	3499.7994	3521.0549
CC12COC1(CN2)C#C	C[C@]12CO[C@]1(CN2)C#C	
InChI=1S/C7H9NO/c1-3-7-4-8-6(7,2)5-9-7/h1,8H,4-5H2,2H3	InChI=1S/C7H9NO/c1-3-7-4-8-6(7,2)5-9-7/h1,8H,4-5H2,2H3/t6-,7-/m0/s1
