18
gdb 17113	4.77395	1.62599	1.54595	0.8451	67.87	-0.2465	0.0996	0.3461	897.9407	0.155145	-384.913766	-384.906761	-384.905817	-384.944986	27.127	
C	 0.1257226918	 1.3295462717	 0.038631046	-0.246121
O	-0.0516856242	-0.0718190631	-0.0653515342	-0.245208
C	 0.6085562077	-0.6380067863	-1.1509204998	 0.257867
O	 2.0435695418	-0.5602061178	-1.0241542419	-0.304316
C	 2.4060417845	-1.9552225129	-0.9533378007	 0.10738
C	 1.5894413635	-2.5690241405	-2.1185556733	-0.233822
C	 0.4155358246	-2.1568867959	-1.1756269444	-0.103703
C	 1.3551012021	-2.5588291417	 0.0070483644	-0.228757
H	 1.178097037	 1.5866835698	 0.2056939238	 0.129848
H	-0.2246427159	 1.845039288	-0.8686485525	 0.104414
H	-0.4707644299	 1.6652209924	 0.8895633421	 0.125267
H	 0.3168062252	-0.1225990241	-2.0796314019	 0.063266
H	 3.4838852996	-2.0489414759	-0.8323288229	 0.079439
H	 1.673870194	-2.0814255143	-3.0929305185	 0.099907
H	 1.692476296	-3.6516798181	-2.2103109706	 0.102718
H	-0.603363288	-2.5228718462	-1.2857324696	 0.079045
H	 1.4448583875	-3.6407338455	 0.1161435353	 0.098028
H	 1.2066760328	-2.0665870997	 0.9680298886	 0.114749
104.8254	164.2345	189.2313	279.4592	402.5126	483.4485	528.629	555.4572	698.7124	832.7977	847.4863	853.2904	880.5535	922.739	944.407	965.0745	1005.8103	1026.9257	1039.6673	1061.6509	1100.2994	1109.5613	1127.5666	1161.3414	1179.8939	1215.5123	1229.5407	1246.9635	1255.842	1280.9845	1308.6793	1359.1497	1404.0425	1471.0009	1479.6999	1484.4695	1507.0486	1513.1339	2978.3703	2990.8844	3065.2919	3066.4078	3084.9871	3125.3129	3133.2764	3137.2629	3141.9083	3155.4935
COC1OC2CC1C2	CO[C@H]1O[C@@H]2C[C@H]1C2	
InChI=1S/C6H10O2/c1-7-6-4-2-5(3-4)8-6/h4-6H,2-3H2,1H3	InChI=1S/C6H10O2/c1-7-6-4-2-5(3-4)8-6/h4-6H,2-3H2,1H3/t4-,5+,6-/m0/s1
