19
gdb 41159	2.87279	1.8742	1.42889	1.6983	73.79	-0.2379	0.071	0.3089	948.6123	0.161908	-422.980139	-422.973428	-422.972483	-423.010829	28.33	
C	 0.0192422427	 1.5440856741	 0.0983805053	-0.210317
O	 1.4696134737	 1.468565722	-0.0724522382	-0.31425
C	 1.3178930598	 0.1313111889	-0.6314701826	 0.159423
C	 2.2180626085	-1.0526034081	-0.3182251146	-0.291151
C	 1.2532245127	-2.2867291243	-0.3493071054	-0.216436
C	-0.1266454351	-1.9494509363	 0.2662234862	 0.073761
C	 0.026310993	-0.8569914716	 1.3357568417	-0.281152
C	-0.0161740492	 0.0136999552	 0.0749828027	 0.373473
O	-0.8526353937	-0.9725343577	-0.5737206065	-0.337279
H	-0.2603374775	 2.0527809996	 1.0254414247	 0.111367
H	-0.4665499475	 2.023574386	-0.7620589402	 0.111377
H	 1.1511844204	 0.2090651564	-1.716559268	 0.077922
H	 3.0391115428	-1.1799500306	-1.0288709029	 0.102685
H	 2.6629767288	-0.9397289182	 0.6743393987	 0.116373
H	 1.0963108847	-2.623178563	-1.3796955467	 0.11824
H	 1.6994759469	-3.1239076891	 0.1984364192	 0.106393
H	-0.7371705227	-2.8337092484	 0.4580462541	 0.080695
H	-0.8880308485	-0.7332970085	 1.9188857244	 0.109553
H	 0.9041604803	-0.8390052364	 1.982670828	 0.109322
191.9665	236.7902	331.6505	368.0441	383.3806	469.2625	512.9523	556.943	583.5415	752.7602	799.2475	815.32	838.1972	862.3819	902.8609	932.3172	950.6468	960.6258	979.1927	1016.3176	1050.4912	1070.0219	1100.1869	1117.7921	1148.5245	1180.0256	1183.9441	1202.8064	1236.9334	1264.6846	1287.0242	1303.4549	1322.1352	1338.3722	1353.5588	1364.924	1412.6224	1471.2993	1485.6373	1508.6296	1515.6748	2988.1685	3016.5074	3043.1889	3059.8966	3078.64	3084.0494	3090.7011	3098.8309	3105.35	3140.8623
C1OC2CCC3CC12O3	C1O[C@H]2CC[C@H]3C[C@@]12O3	
InChI=1S/C7H10O2/c1-2-6-7(4-8-6)3-5(1)9-7/h5-6H,1-4H2	InChI=1S/C7H10O2/c1-2-6-7(4-8-6)3-5(1)9-7/h5-6H,1-4H2/t5-,6-,7+/m0/s1
