16
gdb 22905	2.16453	1.73167	0.99257	1.6101	71.81	-0.2362	-0.0406	0.1956	1131.3342	0.124879	-471.163099	-471.154579	-471.153634	-471.196334	31.838	
O	 0.0221235891	 1.250692232	 0.3982776937	-0.345491
N	-0.0150287027	-0.1199579181	 0.262032217	-0.247682
C	-1.1584742018	-0.6169032307	 0.0063994158	 0.328983
C	-1.2663028335	-2.127383442	-0.110270024	 0.084563
O	-0.3627713689	-2.8433102329	 0.6886762829	-0.436018
C	-2.733142008	-2.3719221097	 0.2923446051	-0.198714
N	-3.373886821	-1.1336247089	-0.1406589352	-0.347866
C	-2.523793044	-0.0334580146	-0.1284616846	 0.306399
N	-2.7931037963	 1.2093083314	-0.2287555902	-0.53139
H	 0.9507258732	 1.4145531116	 0.601450474	 0.3119
H	-1.1464445975	-2.4011960614	-1.1723304683	 0.098486
H	 0.4027230319	-2.2671427828	 0.8130256689	 0.293466
H	-3.1708856422	-3.2398368081	-0.2072101207	 0.118481
H	-2.7799296921	-2.5271952152	 1.3791327136	 0.118894
H	-4.3590996417	-0.990671665	 0.0178527708	 0.242885
H	-3.8032389944	 1.3592998945	-0.2916184792	 0.203104
63.6214	171.9773	195.5232	217.2495	265.0873	330.0044	347.9979	415.5754	454.5398	501.4224	509.9726	524.879	661.0113	694.2717	753.3057	794.3328	856.9837	968.8923	1035.6192	1055.8317	1071.334	1115.6485	1134.4481	1196.3258	1204.0704	1270.6969	1282.8741	1364.3553	1376.1061	1407.5632	1436.1517	1441.093	1529.5495	1726.5972	1756.3487	2956.2924	3011.9248	3092.455	3436.0342	3627.1024	3764.8582	3795.3989
ON=C1C(O)CNC1=N	ON=C1[C@@H](O)CN[C]1[NH]	
InChI=1S/C4H7N3O2/c5-4-3(7-9)2(8)1-6-4/h2,8-9H,1H2,(H2,5,6)	InChI=1S/C4H7N3O2/c5-4-3(7-9)2(8)1-6-4/h2,8-9H,1H2,(H2,5,6)/t2-/m0/s1
