18
gdb 121582	3.29617	0.84825	0.70141	2.2967	71.5	-0.236	-0.0567	0.1793	1591.3062	0.145176	-476.269697	-476.259268	-476.258324	-476.306773	35.51	
C	 0.0226511511	 1.3889703137	-0.2661102619	-0.469985
C	-0.0253133458	-0.0498426048	 0.171953041	 0.309492
O	 0.9368888292	-0.6839350752	 0.5422353845	-0.301761
C	-1.4240666611	-0.7096026762	 0.1220719173	 0.30442
O	-2.4045589878	-0.0928931135	-0.2640729981	-0.377111
N	-1.4019391677	-1.9906416239	 0.5406386771	-0.304869
C	-2.5669482772	-2.8492451807	 0.5629272032	-0.146653
C	-2.2731024514	-4.1792472309	-0.1158441943	-0.078569
O	-1.1984757212	-4.7772206404	 0.596968765	-0.420341
H	 1.0424063619	 1.7672266226	-0.1942222122	 0.136777
H	-0.3512341099	 1.4757017666	-1.2911887994	 0.15912
H	-0.65668717	 1.985661032	 0.3507243279	 0.159752
H	-0.506562098	-2.3723338359	 0.8129764356	 0.271808
H	-2.878043489	-3.040476522	 1.5983150907	 0.122277
H	-3.376797876	-2.3208871735	 0.0545953439	 0.143255
H	-3.1760667384	-4.8081218421	-0.0894869065	 0.096507
H	-2.0068452357	-4.0049032058	-1.1686439194	 0.101024
H	-0.886285373	-5.5401649698	 0.1026482057	 0.294857
36.1448	70.8437	77.7277	108.6974	117.3766	193.1658	262.117	285.8198	314.8771	377.5593	429.5966	503.89	538.7486	605.2495	662.6896	736.837	816.3371	888.1807	931.5911	979.8803	1033.274	1080.2284	1105.0368	1114.8351	1187.4615	1221.5227	1258.877	1273.0768	1316.5081	1384.147	1392.3228	1450.1284	1453.9608	1457.1135	1487.6887	1515.3963	1546.6987	1776.0572	1807.6402	2983.3034	3013.9158	3033.9272	3051.3797	3112.5794	3118.7376	3163.3151	3608.1794	3840.1679
CC(=O)C(=O)NCCO	CC(=O)C(=O)NCCO	
InChI=1S/C5H9NO3/c1-4(8)5(9)6-2-3-7/h7H,2-3H2,1H3,(H,6,9)	InChI=1S/C5H9NO3/c1-4(8)5(9)6-2-3-7/h7H,2-3H2,1H3,(H,6,9)
