15
gdb 56613	2.03088	1.3627	0.8833	2.6773	74.21	-0.253	-0.0355	0.2174	1262.0654	0.107314	-420.549976	-420.53998	-420.539036	-420.585447	35.159	
O	 1.5952796089	 1.2059197566	-0.7980339531	-0.409041
C	 0.5883686693	 0.4553789006	-0.1373596628	-0.059282
C	-0.0143120111	-0.5562143288	-1.0021482738	 0.293702
C	-0.4513728133	-1.4060526194	-1.7305786317	-0.419431
C	 1.1606841895	-0.1838283366	 1.1689244036	-0.275041
C	 1.9535054732	 0.8919103796	 1.9298995107	 0.173561
O	 3.1072254324	 0.7790730678	 2.233786227	-0.239033
C	 0.1051945412	-0.6941899099	 2.030512965	 0.303758
C	-0.7737945779	-1.0554528433	 2.7664488741	-0.436337
H	 2.2026897667	 0.5879058806	-1.2212780007	 0.294713
H	-0.1706513611	 1.1898473548	 0.1545719993	 0.135722
H	-0.8590614232	-2.1469542912	-2.3736921298	 0.208106
H	 1.8652363968	-0.9787381852	 0.9005351914	 0.126938
H	 1.3521225034	 1.7879342849	 2.1956379613	 0.093719
H	-1.5470455148	-1.3996827405	 3.4082757994	 0.207947
52.8202	81.2567	106.3708	159.5074	185.9577	208.4607	264.4627	318.2582	406.0624	425.7138	462.0206	488.1267	580.4541	595.7317	644.3288	649.4555	652.5459	682.8668	889.2153	959.0143	1022.3927	1034.4077	1064.9028	1098.8688	1203.0052	1255.4712	1294.749	1344.8465	1415.0785	1419.3738	1846.6335	2234.0211	2237.2857	2902.033	3049.659	3063.4787	3501.7413	3502.5014	3802.1647
OC(C#C)C(C=O)C#C	O[C@@H](C#C)[C@@H](C=O)C#C	
InChI=1S/C7H6O2/c1-3-6(5-8)7(9)4-2/h1-2,5-7,9H	InChI=1S/C7H6O2/c1-3-6(5-8)7(9)4-2/h1-2,5-7,9H/t6-,7+/m1/s1
