21
gdb 86424	2.49227	1.57047	1.1517	2.772	76.85	-0.2446	0.0654	0.31	1130.1192	0.184204	-424.224914	-424.216657	-424.215713	-424.25749	32.674	
C	-0.2822749571	 1.5402483047	 0.0100224068	-0.409546
C	 0.0791172688	 0.0561340023	-0.0408680532	 0.017265
C	 1.0299131743	-0.351875508	-1.1826945393	-0.260933
C	 1.5351572232	-1.7566326545	-0.7830618716	 0.13913
O	 2.7542027101	-2.1455012272	-1.3732010216	-0.445124
C	 1.6383775062	-1.6902769699	 0.7510289367	 0.081768
O	 2.8630835059	-1.0066748176	 1.1262770759	-0.311386
C	 2.1196552833	 0.1288049923	 1.6315644785	-0.084256
C	 0.7681519555	-0.5007792159	 1.223710669	-0.080923
H	 0.6075463283	 2.1685604754	 0.125979231	 0.115868
H	-0.7840800702	 1.8522143476	-0.9116098354	 0.118828
H	-0.9567671836	 1.757866061	 0.8454093097	 0.112681
H	-0.8534587863	-0.5136418176	-0.1614918	 0.076998
H	 0.552318647	-0.3408765513	-2.165770524	 0.099743
H	 1.8871848593	 0.3317326217	-1.2318144135	 0.099666
H	 0.7923487766	-2.5127515462	-1.0658930935	 0.082548
H	 3.4373778171	-1.6735265593	-0.8764923775	 0.286582
H	 1.5594244523	-2.6620690729	 1.2472305844	 0.076341
H	 2.2692254162	 0.2504443285	 2.7105918949	 0.105737
H	 2.4026671833	 1.060391643	 1.1275200689	 0.103993
H	 0.0777749396	-0.667561216	 2.0515859539	 0.075021
114.2614	141.2714	219.8584	228.7579	254.5396	310.4431	413.8621	474.4278	499.5898	530.9318	542.0663	635.5474	771.4823	832.2403	864.0319	898.2038	908.5835	937.6317	954.0413	979.3191	1015.4762	1028.676	1071.9873	1079.9918	1108.7132	1134.9581	1157.3133	1165.7487	1197.7159	1229.385	1250.749	1255.2207	1298.1569	1312.4975	1328.4527	1342.5057	1363.1084	1372.0027	1378.6158	1412.9599	1442.658	1490.7072	1496.2936	1500.0852	1524.8508	2998.3053	3020.722	3028.0248	3030.6388	3038.9258	3063.4838	3065.8984	3094.0712	3097.5301	3099.5552	3103.3302	3745.7979
CC1CC(O)C2OCC12	C[C@H]1C[C@@H](O)[C@H]2OC[C@@H]12	
InChI=1S/C7H12O2/c1-4-2-6(8)7-5(4)3-9-7/h4-8H,2-3H2,1H3	InChI=1S/C7H12O2/c1-4-2-6(8)7-5(4)3-9-7/h4-8H,2-3H2,1H3/t4-,5-,6+,7-/m0/s1
