21
gdb 81600	3.63556	0.94232	0.89421	0.7822	89.29	-0.2563	0.0594	0.3157	1410.2094	0.182049	-349.868787	-349.859933	-349.858988	-349.902597	34.537	
C	-0.0660612543	 1.5666347113	-0.4020442668	-0.442919
C	 0.0632982728	 0.0681234595	-0.1643375846	 0.065661
C	 1.2499173111	-0.767107116	-0.7531254208	-0.059659
C	 2.1624368493	-0.137552095	 0.3413474366	-0.23599
C	 0.8369775099	-0.5141660379	 1.0675422923	-0.088244
C	 0.9306817158	-1.8744732868	 0.3020900624	 0.067744
C	-0.2691919095	-2.8224494981	 0.1695959266	-0.417177
C	-0.0472924919	-3.8413188414	-0.8515012484	 0.314794
C	 0.1621451306	-4.6685909905	-1.6982893592	-0.461966
H	 0.866139841	 2.1197280338	-0.2672289133	 0.118182
H	-0.4183578813	 1.7584704486	-1.4218221607	 0.117676
H	-0.8062176619	 1.9966316429	 0.2822477368	 0.115897
H	-0.9179393002	-0.3857085945	-0.3253007779	 0.059192
H	 1.4925985012	-0.9210029746	-1.8059213227	 0.072045
H	 3.0482153577	-0.7137316293	 0.6223899017	 0.089994
H	 2.4036783943	 0.9209922404	 0.2507520998	 0.093158
H	 0.6013049041	-0.371387781	 2.1246459066	 0.063745
H	 1.8096228846	-2.4668889548	 0.5763057102	 0.073305
H	-0.4336075068	-3.3121630537	 1.1389232621	 0.128921
H	-1.1965482004	-2.2859766864	-0.0546993506	 0.13229
H	 0.3349856639	-5.4043044564	-2.4438023102	 0.193352
45.9618	111.2541	180.3223	243.9387	255.5387	314.8813	341.4358	384.3633	449.7169	582.5652	594.4486	615.4728	634.4809	748.4241	786.55	789.2279	818.4279	890.2239	897.4875	961.4336	984.9563	1015.7387	1021.5734	1024.5386	1047.4802	1091.0456	1113.152	1124.1767	1130.1874	1151.0227	1190.5363	1213.9689	1222.8279	1246.6415	1251.1746	1272.785	1321.1542	1410.9352	1419.7763	1430.2477	1472.9568	1497.6	1498.0553	1532.5387	2236.8732	3020.3396	3032.8912	3046.5343	3060.736	3063.8933	3077.9478	3085.9317	3087.6107	3100.9736	3117.6465	3140.5176	3507.2994
CC1C2CC1C2CC#C	C[C@H]1[C@H]2C[C@@H]1[C@H]2CC#C	
InChI=1S/C9H12/c1-3-4-7-8-5-9(7)6(8)2/h1,6-9H,4-5H2,2H3	InChI=1S/C9H12/c1-3-4-7-8-5-9(7)6(8)2/h1,6-9H,4-5H2,2H3/t6-,7-,8+,9-
