22
gdb 75162	4.24064	0.94251	0.8054	0.9679	89.5	-0.2249	0.0344	0.2593	1480.845	0.194657	-367.20129	-367.192357	-367.191413	-367.235238	34.143	
C	-0.1933782197	 1.4541344222	-0.195113482	-0.491135
C	-0.0404717963	-0.0324692905	-0.134957332	 0.335272
C	 0.0500196208	-0.8817373472	-1.1612974839	-0.165433
C	 0.1410655012	-2.3206233935	-0.7199857434	-0.268593
C	 0.446200699	-2.2014257931	 0.7955717559	 0.057468
C	-0.0204521363	-0.7775561281	 1.1840821761	-0.315989
N	-0.2201453699	-3.2351613317	 1.5780444392	-0.061789
C	 0.4852221295	-4.5071031632	 1.701077563	-0.222794
C	 0.394550974	-3.5745492196	 2.8577071793	-0.222716
H	 0.6225973484	 1.9604003212	 0.3368042439	 0.121344
H	-0.2047240789	 1.8180373072	-1.2263316678	 0.120799
H	-1.1242385026	 1.7767923771	 0.2894213605	 0.124216
H	 0.0214384658	-0.5900091227	-2.2063842911	 0.080657
H	-0.8113057028	-2.8481434876	-0.8690011537	 0.112948
H	 0.9063089265	-2.8940800237	-1.2557864363	 0.094481
H	 1.5421588365	-2.2536407743	 0.9299619718	 0.05256
H	 0.6322477804	-0.30891851	 1.9306370456	 0.092123
H	-1.0258053761	-0.8188310691	 1.6264858539	 0.112344
H	-0.1333822363	-5.3989316955	 1.6588410636	 0.114297
H	 1.4552790682	-4.6019268477	 1.2149680435	 0.108129
H	 1.3043856566	-3.0481062931	 3.1429178958	 0.10768
H	-0.2913829582	-3.7728221472	 3.6762830679	 0.11413
61.893	88.6736	173.7381	197.1204	247.3065	288.5702	309.5103	392.6471	445.1671	481.2222	569.6247	641.0928	785.1	823.7312	848.0655	879.4875	899.3579	908.2279	924.5723	967.169	1018.7895	1025.0521	1035.5177	1055.5382	1078.1419	1105.4429	1112.8488	1116.9233	1150.3068	1174.6329	1175.3292	1196.9947	1228.2333	1284.0083	1305.9839	1321.5863	1324.2105	1358.9074	1386.8792	1414.4459	1479.161	1482.6528	1489.7507	1492.4502	1493.2767	1519.6715	1725.0773	2921.2077	3009.5013	3013.6701	3015.2326	3047.4717	3053.2424	3058.2131	3092.2424	3096.77	3107.5527	3175.1045	3180.6433	3189.4157
CC1=CCC(C1)N1CC1	CC1=CC[C@@H](C1)N1CC1	
InChI=1S/C8H13N/c1-7-2-3-8(6-7)9-4-5-9/h2,8H,3-6H2,1H3	InChI=1S/C8H13N/c1-7-2-3-8(6-7)9-4-5-9/h2,8H,3-6H2,1H3/t8-/m0/s1
