20
gdb 71582	2.67949	1.75414	1.65261	1.052	83.95	-0.2106	0.0152	0.2258	960.7968	0.172589	-365.959895	-365.952534	-365.95159	-365.991104	30.614	
C	-0.0098128944	 1.4620708331	 0.0054904905	-0.520724
C	 0.0692606849	-0.0360761796	-0.0308290339	 0.343148
C	 0.6903173075	-0.9645149321	-1.1020535062	-0.269685
C	 0.0020763491	-1.8679546911	-0.0594252929	-0.025658
C	 0.6325732147	-1.0047539174	 1.0765120859	-0.074366
C	-0.0959019256	-0.9952796235	 2.3839657675	-0.093182
C	-1.4255387733	-0.9470347829	 2.3585881276	-0.077378
C	-2.0966060786	-0.9046482359	 1.0113991622	-0.223902
N	-1.1855451839	-0.9166329589	-0.1432277836	-0.159203
H	 0.9922858173	 1.9016049371	-0.0327273548	 0.121851
H	-0.5843203026	 1.8360540761	-0.8481065059	 0.129262
H	-0.493857305	 1.804201967	 0.9264626285	 0.126268
H	 0.2146506794	-0.9326453655	-2.0829027905	 0.099892
H	 1.7806318353	-1.0028049735	-1.1478496813	 0.088408
H	-0.1359450208	-2.950746533	-0.074190188	 0.075957
H	 1.7212687952	-1.0466322923	 1.1736247963	 0.059786
H	 0.4688441445	-1.0247512229	 3.3104703798	 0.086527
H	-2.035795833	-0.9369534631	 3.2573136499	 0.088256
H	-2.7850723264	-1.7538766905	 0.896644519	 0.112833
H	-2.7255991644	-0.0071182708	 0.9241820799	 0.111912
176.1446	194.5359	200.879	311.9942	374.2246	438.5705	470.472	560.6505	589.2459	614.0935	683.7598	757.1169	778.3662	789.9496	812.2256	905.612	927.4872	947.8185	980.2166	986.2057	999.6098	1014.6517	1039.8883	1073.0237	1106.6844	1123.4418	1153.2337	1164.7822	1176.8423	1202.4468	1225.1102	1227.0725	1269.8753	1317.1552	1353.6508	1369.5593	1402.1713	1406.7116	1464.0459	1482.4166	1489.241	1495.568	1712.2424	3002.6589	3025.0215	3031.4294	3060.7025	3071.8663	3098.1902	3101.3561	3106.6511	3149.61	3157.9815	3183.4055
CC12CC3C1C=CCN23	C[C@@]12C[C@H]3[C@@H]1C=CCN23	
InChI=1S/C8H11N/c1-8-5-7-6(8)3-2-4-9(7)8/h2-3,6-7H,4-5H2,1H3	InChI=1S/C8H11N/c1-8-5-7-6(8)3-2-4-9(7)8/h2-3,6-7H,4-5H2,1H3/t6-,7-,8+/m0/s1
