20
gdb 114471	4.27807	1.04211	1.00943	2.4178	77.91	-0.2202	0.0716	0.2918	1242.6195	0.171906	-403.064731	-403.056735	-403.055791	-403.097283	31.543	
O	-0.0550753404	 1.414764258	-0.2168009276	-0.421729
C	-0.0167979	 0.0358628322	 0.1181096715	-0.106963
C	-1.4309163134	-0.5064382102	 0.030071358	 0.018173
C	-2.0197950117	-0.5584695022	-1.4206753686	-0.257011
C	-2.1001049771	-2.1047852699	-1.3283006947	 0.033905
C	-1.5181093902	-2.0614447075	 0.1021381959	-0.052267
C	-2.8379830552	-2.6989841882	 0.5645866727	-0.04287
C	-4.0373201054	-1.9481658794	 0.154354864	-0.245741
N	-3.378434318	-2.7911278816	-0.860886163	-0.152625
H	 0.8452505992	 1.752614152	-0.213404471	 0.287318
H	 0.6379018084	-0.5228152161	-0.5723275012	 0.08146
H	 0.3746364194	-0.1207835401	 1.1370266409	 0.086023
H	-2.0554563063	 0.0198904888	 0.7582315396	 0.079119
H	-2.959376385	-0.0284047138	-1.5926485489	 0.10897
H	-1.3031929365	-0.2185430363	-2.1729766762	 0.108166
H	-1.6569324892	-2.6856423686	-2.1368220464	 0.079316
H	-0.6174080522	-2.6074281552	 0.3852883708	 0.066006
H	-2.8967798983	-3.5481916455	 1.2392650183	 0.091655
H	-4.9990094485	-2.3558591785	 0.4529069144	 0.119287
H	-4.0293236293	-0.866542728	 0.0701373515	 0.119809
89.8912	137.2196	190.9064	261.5693	298.7519	332.9872	386.0825	472.9866	548.2935	677.882	711.7368	726.2645	795.9821	851.2871	856.9256	901.5555	932.0868	938.3838	972.646	984.5246	1042.996	1056.475	1065.0252	1080.9237	1104.2803	1112.6391	1141.9922	1166.1252	1171.1765	1200.8036	1218.7333	1238.8736	1258.2729	1262.4621	1277.0308	1302.4523	1307.8793	1362.3255	1370.1948	1458.6806	1474.1602	1510.1248	1521.1439	2951.8178	2979.9386	3061.4086	3064.4461	3098.0914	3107.7351	3116.0958	3124.1699	3148.5565	3203.9543	3829.0078
OCC1CC2C1C1CN21	OC[C@H]1C[C@H]2[C@@H]1[C@H]1CN21	
InChI=1S/C7H11NO/c9-3-4-1-5-7(4)6-2-8(5)6/h4-7,9H,1-3H2	InChI=1S/C7H11NO/c9-3-4-1-5-7(4)6-2-8(5)6/h4-7,9H,1-3H2/t4-,5+,6-,7-,8?/m1/s1
