19
gdb 44752	2.88643	1.57292	1.22075	3.6094	81.7	-0.2376	-0.053	0.1846	1054.3791	0.16203	-385.909658	-385.902334	-385.901389	-385.941686	29.424	
O	 0.0278174048	 0.7331404164	 1.4083989181	-0.329885
C	-0.0072471257	 1.4228174089	 0.4051038755	 0.352162
C	-1.3863030835	 1.7421113109	-0.1958109189	-0.318251
C	-1.5189748268	 2.5998713334	-1.4527255859	-0.013529
C	-0.610554002	 2.1646877186	-2.6357418032	-0.23131
C	 0.4345267501	 3.2314890076	-2.1730528311	-0.055199
C	-0.7331786737	 3.9396752688	-1.4120231785	-0.231299
C	 1.4754944584	 2.6690243671	-1.2527803086	-0.057197
C	 1.2713309732	 1.9067488767	-0.1683163319	-0.142388
H	-1.8579366334	 0.7659131351	-0.3651443666	 0.130292
H	-1.9567793616	 2.1983180536	 0.6229867528	 0.130284
H	-2.5827784468	 2.689918312	-1.6898446546	 0.072525
H	-0.2736609453	 1.1255737284	-2.6669451538	 0.103964
H	-1.0477527894	 2.4302877849	-3.6016867933	 0.103196
H	 0.9098364643	 3.8111804442	-2.966217731	 0.069699
H	-1.204843997	 4.705251519	-2.0334619916	 0.103197
H	-0.4976115301	 4.3655317642	-0.4335644609	 0.103958
H	 2.5078151513	 2.9101605498	-1.4985426559	 0.105111
H	 2.1242507031	 1.5655491806	 0.4117955894	 0.104669
51.0511	231.6454	287.76	308.8392	353.8999	394.9266	464.7079	529.339	617.604	661.2123	782.4189	784.577	805.4002	824.1246	836.0002	879.2462	887.9649	940.3314	1003.996	1020.8526	1045.6825	1066.8715	1098.185	1115.0287	1163.0514	1168.9141	1198.0375	1227.5719	1261.7544	1269.6925	1283.8834	1303.8115	1333.4621	1370.858	1385.0135	1413.9278	1444.9421	1474.4283	1498.1212	1682.3194	1743.2646	3029.4647	3054.3067	3055.5937	3064.6249	3066.9857	3084.6249	3114.3777	3116.4793	3144.3956	3177.2528
O=C1CC2CC(C2)C=C1	O=C1C[C@@H]2C[C@@H](C2)C=C1	
InChI=1S/C8H10O/c9-8-2-1-6-3-7(4-6)5-8/h1-2,6-7H,3-5H2	InChI=1S/C8H10O/c9-8-2-1-6-3-7(4-6)5-8/h1-2,6-7H,3-5H2/t6-,7+
