18
gdb 85037	2.55726	1.60592	1.00574	0.6839	76.32	-0.2253	0.0015	0.2268	1161.9402	0.148173	-435.328103	-435.318771	-435.317827	-435.362814	32.688	
C	-0.0260849892	 1.3904419833	-0.0839047159	-0.337598
N	 0.0122490892	-0.0448005501	 0.0524426539	-0.100957
C	-1.1604373662	-0.880873794	-0.009810232	-0.305431
C	-0.5821025656	-2.2937981899	-0.0105638904	 0.411091
O	-1.184784711	-3.3410850959	-0.0098384019	-0.373534
N	 0.7876700199	-2.1349905724	-0.0170489714	-0.151245
C	 1.717278507	-3.2420056688	-0.027459703	-0.364614
C	 1.174554518	-0.7775079355	-0.0133229216	 0.454558
N	 2.3464381071	-0.2804750285	-0.0550820082	-0.598281
H	 0.9971164788	 1.7612614759	-0.0190245028	 0.176291
H	-0.4550200618	 1.695220849	-1.0489791159	 0.118279
H	-0.6244823546	 1.8417001453	 0.7164301888	 0.122946
H	-1.8321771151	-0.7476862068	 0.8482748546	 0.140107
H	-1.7537744006	-0.7238372555	-0.9228170084	 0.136181
H	 1.1252696061	-4.1581886979	-0.0169233996	 0.171342
H	 2.340413907	-3.2235148007	-0.9277414811	 0.141285
H	 2.3657227167	-3.2176252491	 0.8543670327	 0.142292
H	 3.0625289243	-0.9995836285	-0.0862300476	 0.21729
52.3123	114.2353	130.5071	152.8326	170.714	199.5302	276.2199	309.9759	379.9606	555.6264	586.1297	596.4599	639.5515	713.6534	738.3578	766.926	888.3307	1009.3149	1019.2324	1065.6543	1121.5214	1153.1491	1159.5627	1193.9142	1198.4729	1265.8429	1295.0779	1322.4799	1405.9944	1431.8704	1445.9536	1479.6411	1492.4421	1492.9286	1498.8415	1517.9873	1533.1441	1749.032	1841.6853	2997.9797	3003.6128	3035.0578	3036.2625	3057.055	3094.2083	3151.479	3153.6397	3545.9105
CN1CC(=O)N(C)C1=N	CN1CC(=O)N(C)[C]1[NH]	
InChI=1S/C5H9N3O/c1-7-3-4(9)8(2)5(7)6/h6H,3H2,1-2H3	InChI=1S/C5H9N3O/c1-7-3-4(9)8(2)5(7)6/h6H,3H2,1-2H3
