19
gdb 39588	3.45103	1.47032	1.08829	1.4002	82.73	-0.2299	0.0197	0.2496	1106.2795	0.162124	-385.904983	-385.897819	-385.896874	-385.936405	29.002	
C	-0.0517968145	 1.5380907648	 0.0624383696	-0.361498
C	 1.4132507342	 1.9227501127	-0.0101837403	-0.070824
C	 2.1864121519	 0.9049981171	-0.39152355	-0.094221
C	 1.3760848718	-0.3414384277	-0.6724128078	-0.113199
C	 1.8168614273	-1.6706892845	-0.0540037882	-0.10142
O	 0.8058823801	-2.6408495628	-0.2852821851	-0.253208
C	-0.423431535	-2.3616451389	 0.362734342	-0.106925
C	-0.784388704	-0.8999767632	 0.4095338566	-0.222575
C	 0.02353879	 0.0310289988	-0.0855735945	 0.324748
H	-0.5384970368	 1.8461394366	 0.9953194784	 0.112936
H	-0.6188934115	 2.0157148293	-0.7520953258	 0.115483
H	 1.7600122802	 2.9293635313	 0.1950506853	 0.09596
H	 3.2586717391	 0.9564284654	-0.5463295661	 0.094302
H	 1.3095160611	-0.5035688603	-1.7603525631	 0.093757
H	 2.72405206	-2.0665345422	-0.5202886587	 0.102191
H	 2.0068785101	-1.5407536982	 1.0235012669	 0.088224
H	-1.1832701749	-2.9426228088	-0.1755164318	 0.116321
H	-0.4063477759	-2.7509305185	 1.3978817124	 0.09609
H	-1.7008605031	-0.6442344807	 0.93654984	 0.083857
122.087	198.3279	274.8057	309.1112	349.0244	420.7167	473.4416	523.2861	634.9222	709.3263	751.3927	781.1481	802.8298	834.0604	895.7429	947.6141	969.4991	981.2138	995.2195	1021.7699	1030.4571	1058.4628	1089.9459	1131.6311	1144.8404	1164.8135	1177.8905	1239.4414	1257.5447	1277.2256	1292.157	1326.0463	1338.2125	1370.138	1383.6361	1412.2486	1474.9059	1489.4845	1501.7656	1673.5624	1760.7007	2931.7825	2967.3987	2982.6251	2984.5749	3034.9838	3048.821	3081.1447	3152.3852	3182.3918	3207.5197
C1C=CC2COCC=C12	C1C=C[C@H]2COCC=C12	
InChI=1S/C8H10O/c1-2-7-4-5-9-6-8(7)3-1/h1,3-4,8H,2,5-6H2	InChI=1S/C8H10O/c1-2-7-4-5-9-6-8(7)3-1/h1,3-4,8H,2,5-6H2/t8-/m0/s1
