14
gdb 130992	7.3246	0.72135	0.65941	1.0311	64.59	-0.2483	-0.047	0.2014	1551.4109	0.09924	-473.796718	-473.788635	-473.787691	-473.830986	27.729	
O	-0.228382982	 0.180258426	 0.5336152129	-0.228953
C	 0.0326675569	 1.0932599642	-0.2006988177	 0.140746
C	 1.3432792267	 1.8590563169	-0.1348049468	-0.173898
O	 1.3112159376	 2.8576914344	-1.1368679378	-0.266311
C	 2.4097148807	 3.6382139818	-1.2174015839	 0.227739
C	 3.5716286049	 3.652263935	-0.5050698559	-0.049396
O	 4.3683983277	 4.6358145493	-0.973692881	-0.167416
N	 3.7312531086	 5.2888893494	-2.0137034782	-0.116142
C	 2.5730127914	 4.6962790954	-2.1551475264	-0.057845
H	-0.6611389464	 1.4552902034	-0.9898211858	 0.107816
H	 1.4570951308	 2.3022091754	 0.865982368	 0.143388
H	 2.1809468085	 1.1630732306	-0.2923728411	 0.14339
H	 3.9626992289	 3.0698703751	 0.3116386691	 0.15287
H	 1.8804930457	 5.0284428131	-2.9143752454	 0.144011
50.0633	75.8944	112.2598	117.9496	299.1535	347.8414	378.4945	562.7034	606.588	671.3944	741.3711	747.6001	780.3098	894.7048	918.4222	926.9422	1021.9391	1059.6169	1095.5771	1112.2516	1137.969	1216.6096	1236.8834	1305.08	1348.1842	1402.728	1431.8086	1476.9851	1491.8215	1667.8729	1849.6581	2911.348	2991.0243	3030.6466	3256.1182	3285.4772
O=CCOC1=CON=C1	O=CCOc1conc1	
InChI=1S/C5H5NO3/c7-1-2-8-5-3-6-9-4-5/h1,3-4H,2H2	InChI=1S/C5H5NO3/c7-1-2-8-5-3-6-9-4-5/h1,3-4H,2H2
