21
gdb 108585	2.41331	1.44998	1.1887	1.2187	78.07	-0.2402	0.0839	0.3241	1170.1292	0.181655	-424.213209	-424.203913	-424.202969	-424.24736	34.366	
C	-0.4685554283	 1.421909893	-0.153694227	-0.374381
C	 0.3384298874	 0.141772146	 0.0948574398	-0.262242
C	 0.9132236913	-0.4387547307	-1.1704495386	 0.386461
O	-0.0528818556	-0.900902277	-2.1076387439	-0.295072
C	 0.2687174568	-2.258580854	-2.3404155877	 0.01447
O	 1.6767118577	-2.3711175251	-2.2420975531	-0.256326
C	 2.0529137265	-1.4061163947	-1.2829177086	-0.022545
C	 2.2253698049	 0.0163995558	-1.793069457	-0.10108
C	 2.3780131673	 0.3349473111	-3.2608376375	-0.40716
H	 0.1606023805	 2.2052768654	-0.5888673948	 0.11709
H	-1.2907573992	 1.2279671991	-0.8481249212	 0.134647
H	-0.8918033957	 1.806527406	 0.7789200118	 0.109812
H	 1.1624119066	 0.3444007891	 0.7895499284	 0.097531
H	-0.2984381125	-0.6131092945	 0.5734402446	 0.101129
H	-0.2204063981	-2.9048783255	-1.5902637001	 0.088744
H	-0.045855421	-2.5370880059	-3.3501632523	 0.118244
H	 2.6182251965	-1.7934168718	-0.4407634648	 0.098724
H	 2.8219822581	 0.6369503223	-1.1258376341	 0.083669
H	 3.4181285323	 0.2084687707	-3.5785104078	 0.117293
H	 1.7556541942	-0.3180408557	-3.8738607761	 0.134324
H	 2.0854456506	 1.3699227064	-3.4651908801	 0.116667
84.0852	105.6253	141.8603	176.8241	192.7043	214.8309	273.7468	329.7362	368.2477	487.9624	584.0196	655.3525	729.4157	747.8141	782.6307	820.2062	888.4647	938.3756	969.835	987.6887	1015.6625	1034.9842	1056.296	1081.2158	1116.1901	1126.5783	1136.5994	1152.8595	1180.8505	1224.7777	1227.4623	1248.1977	1305.1792	1339.9194	1364.5084	1407.3614	1415.4339	1422.4743	1452.8629	1474.922	1488.1832	1496.2521	1500.6223	1509.206	1538.5011	2945.8914	3022.7023	3039.6551	3041.2916	3060.9461	3090.9716	3097.7794	3107.7441	3117.4326	3119.7847	3143.1939	3153.3702
CCC12OCOC1C2C	CC[C@]12OCO[C@H]1[C@H]2C	
InChI=1S/C7H12O2/c1-3-7-5(2)6(7)8-4-9-7/h5-6H,3-4H2,1-2H3	InChI=1S/C7H12O2/c1-3-7-5(2)6(7)8-4-9-7/h5-6H,3-4H2,1-2H3/t5-,6+,7-/m1/s1
