20
gdb 12813	3.28572	1.96094	1.56199	1.3162	74.38	-0.2433	0.0864	0.3297	909.0664	0.179053	-349.003773	-348.996324	-348.99538	-349.03499	29.677	
C	-0.0393288144	 1.5299661279	 0.011811019	-0.4697
C	-0.006267423	 0.0171301081	 0.0277334099	 0.323252
C	-0.858858234	-0.7255904306	 1.0218348447	-0.317853
C	 0.6462748981	-0.7036780158	 1.193341565	-0.058625
C	 1.4463209165	-1.9824640193	 0.9521371423	-0.234046
C	 1.6356303305	-2.2593323406	-0.5437700696	-0.070741
O	 0.4495670717	-2.005556954	-1.2803611956	-0.24301
C	 0.1739066577	-0.61860143	-1.3421912739	-0.143896
H	 0.8873446682	 1.946605904	-0.4010669532	 0.114033
H	-0.8712541908	 1.9040484011	-0.597910197	 0.115648
H	-0.1643218512	 1.9330447928	 1.0215977765	 0.115355
H	-1.4669753258	-0.1486496915	 1.7108757135	 0.101325
H	-1.2993259515	-1.6644478315	 0.7007876027	 0.117181
H	 1.0186324138	-0.069042269	 1.9923283752	 0.077688
H	 2.4327514828	-1.9055274021	 1.4231483805	 0.096573
H	 0.9398532081	-2.8331357602	 1.4230334211	 0.105417
H	 2.4538172366	-1.6365802581	-0.9433935518	 0.084064
H	 1.8939250993	-3.3070789065	-0.7226960075	 0.103331
H	-0.7381410686	-0.5140787646	-1.9412138278	 0.103885
H	 0.9892495661	-0.10054386	-1.8792731339	 0.080118
130.9586	197.3591	230.0993	314.8105	326.4048	395.1165	407.927	451.7742	519.2401	605.1526	737.3291	774.2915	844.4342	871.1286	919.3761	942.6743	948.9608	965.9203	1025.3695	1059.9941	1064.2601	1092.2004	1126.9558	1136.4261	1144.9955	1149.949	1244.876	1256.9903	1280.4719	1321.6217	1334.7698	1366.6492	1374.4428	1414.5067	1420.958	1427.3116	1479.5308	1490.6292	1491.583	1493.7472	1502.0538	1507.2697	2939.0264	2962.3698	3017.7645	3029.4285	3054.4993	3067.5324	3074.6001	3084.5386	3097.9166	3123.22	3142.3121	3211.4555
CC12CC1CCOC2	C[C@]12C[C@H]1CCOC2	
InChI=1S/C7H12O/c1-7-4-6(7)2-3-8-5-7/h6H,2-5H2,1H3	InChI=1S/C7H12O/c1-7-4-6(7)2-3-8-5-7/h6H,2-5H2,1H3/t6-,7-/m1/s1
