21
gdb 64367	2.07124	1.81183	1.34494	1.5923	77.04	-0.2527	0.0776	0.3303	1070.1163	0.181454	-424.214244	-424.205184	-424.20424	-424.247722	34.736	
C	 0.1959651471	 1.5523850045	-0.1507382506	-0.422112
C	-0.0139692544	 0.0359503772	 0.0110658338	 0.172094
C	-1.498884786	-0.3175870518	 0.083445208	-0.439544
C	 0.7326492746	-0.7131680507	-1.1127608276	-0.114083
O	 2.1038907338	-0.6923351149	-0.7336475497	-0.258954
C	 2.1581882647	-0.8968388662	 0.6716375965	-0.147274
C	 0.7912459525	-0.4759274849	 1.2195176382	 0.381396
C	 0.5489198901	-0.0989082797	 2.6123195245	-0.25736
O	 0.1658206155	-1.3907495603	 2.1258994939	-0.273642
H	 1.2576894875	 1.7927243532	-0.2579816448	 0.129294
H	-0.3231838234	 1.9169891066	-1.043664791	 0.113704
H	-0.1950936315	 2.1015786974	 0.7114972418	 0.110767
H	-2.0075400961	-0.0131235943	-0.8377019295	 0.111415
H	-1.646551507	-1.3902637998	 0.2260857627	 0.131115
H	-1.9900374494	 0.1978250114	 0.9152034101	 0.116367
H	 0.3628445196	-1.7484781931	-1.1967009611	 0.090594
H	 0.6509327048	-0.2320840754	-2.0913250181	 0.106373
H	 2.326226576	-1.954942499	 0.9216309983	 0.110255
H	 2.9904324695	-0.3068191576	 1.0682346338	 0.111235
H	 1.3739116163	-0.0933031558	 3.3245698034	 0.114776
H	-0.275889604	 0.5678897933	 2.8630493274	 0.113583
56.7973	191.4811	198.8492	221.415	237.2299	264.5554	323.5465	342.3812	352.7957	431.2448	516.6641	530.1679	606.5598	703.531	834.6784	847.8417	901.9669	939.3349	952.7682	957.8532	967.0192	1000.5063	1037.9322	1075.358	1105.7083	1125.8294	1155.4573	1172.5723	1198.6395	1226.0071	1245.0157	1262.4706	1290.6714	1340.087	1380.5544	1401.1919	1413.3603	1438.2728	1482.3314	1485.8719	1501.9947	1503.8897	1508.3132	1518.1762	1535.009	2968.9448	2997.9943	3031.5823	3038.0497	3071.4282	3073.9083	3089.3317	3095.8342	3100.8134	3113.6082	3126.965	3156.5418
CC1(C)COCC11CO1	CC1(C)COC[C@]21CO2	
InChI=1S/C7H12O2/c1-6(2)3-8-4-7(6)5-9-7/h3-5H2,1-2H3	InChI=1S/C7H12O2/c1-6(2)3-8-4-7(6)5-9-7/h3-5H2,1-2H3/t7-/m1/s1
