18
gdb 38553	2.7376	2.24129	1.63423	1.6992	79.06	-0.2016	0.0069	0.2085	867.3202	0.151233	-364.752666	-364.746451	-364.745506	-364.782746	27.08	
C	-0.0200118434	 1.5494120231	 0.1270358035	-0.271973
C	 1.4525870287	 1.963685918	 0.0145130503	-0.021458
N	 2.3416088064	 1.9902558545	-1.1713684751	-0.427295
C	 2.2478174645	 0.762686688	-0.3940888915	 0.274483
C	 3.0631614755	 0.1873354955	 0.7311320016	-0.175785
C	 2.2710345365	-0.7198436999	 1.3200206439	-0.094517
C	 1.0393700198	-0.9993775593	 0.4893695799	-0.08909
C	 0.006393999	 0.0399662802	-0.1031247935	-0.041487
C	 1.2632430024	-0.32425353	-0.8264331078	-0.146026
H	-0.3916028083	 1.8431322841	 1.1153692566	 0.109095
H	-0.6841957199	 2.0269727438	-0.6078153789	 0.099752
H	 1.8388313578	 2.5958732023	 0.8079488997	 0.096901
H	 1.8331494314	 1.8697510488	-2.0459689048	 0.231732
H	 3.9851320252	 0.6054943965	 1.1135764839	 0.106967
H	 2.4728713296	-1.230560104	 2.2531358295	 0.097321
H	 0.6261380264	-2.002489046	 0.5232377023	 0.087308
H	-0.9290004536	-0.441047922	-0.3791083638	 0.083182
H	 1.3416183823	-0.8154074534	-1.7921604859	 0.080888
206.8198	294.4095	353.6342	423.3341	514.2061	556.1999	633.5494	671.9384	704.8839	729.4654	781.0535	801.3951	821.8437	828.9027	889.837	916.8907	946.9308	961.205	991.5487	1002.1612	1025.5812	1049.1936	1060.6319	1088.6687	1105.8617	1129.5758	1132.9624	1171.4773	1226.1525	1254.9096	1297.3253	1301.1763	1316.6752	1349.8162	1362.4974	1385.8883	1422.8709	1489.8031	1620.5639	3000.4148	3057.2131	3133.9259	3142.5841	3155.2227	3161.5923	3204.3551	3230.2107	3476.08
C1C2NC22C=CC3C1C23	C1[C@@H]2N[C@]32C=C[C@H]2[C@@H]1[C@@H]32	
InChI=1S/C8H9N/c1-2-8-6(9-8)3-5-4(1)7(5)8/h1-2,4-7,9H,3H2	InChI=1S/C8H9N/c1-2-8-6(9-8)3-5-4(1)7(5)8/h1-2,4-7,9H,3H2/t4-,5+,6-,7-,8-/m0/s1
