18
gdb 82706	2.4343	1.93886	1.52795	1.5721	74.67	-0.2243	-0.0239	0.2004	939.5571	0.148642	-401.90372	-401.896431	-401.895486	-401.935301	28.998	
C	-0.2469598576	 1.5791049989	-0.0266048891	-0.421203
C	 0.0369279558	 0.0892498631	-0.0363329462	 0.058044
C	 0.569304329	-0.6233564984	-1.3177011198	-0.211693
C	 1.5314861509	-1.3831134383	-0.3452059057	 0.00381
C	 2.7214652395	-0.454451585	-0.765237296	-0.184602
C	 2.4510935247	 0.2879717618	 0.5712756307	-0.186932
N	 1.1682277225	-0.4510827097	 0.8062443401	-0.160897
C	 1.8111295976	 0.0854206822	-1.8782062442	 0.427651
O	 2.0175390778	 0.7197475138	-2.8735276125	-0.318617
H	 0.5624241178	 2.1677448415	-0.467388947	 0.131678
H	-1.1539617614	 1.7892920497	-0.6023284534	 0.128527
H	-0.4092401171	 1.9258751998	 0.9995552464	 0.131313
H	-0.8580110049	-0.4481000132	 0.2971280025	 0.095425
H	-0.1416394429	-1.0561194955	-2.0221141301	 0.090821
H	 1.5741724045	-2.4587744821	-0.1913466848	 0.08675
H	 3.7373537026	-0.7550217882	-1.0219041446	 0.093127
H	 3.1734590908	-0.0072404534	 1.3377759574	 0.120932
H	 2.3866167805	 1.3793856028	 0.5571659061	 0.115867
113.7065	167.6166	202.2586	294.3637	372.2701	449.9258	494.084	541.3949	597.28	708.8104	750.4896	803.9374	832.7331	859.1677	872.9499	898.4072	943.1699	956.7617	990.1098	999.2064	1058.2513	1078.2337	1112.2644	1134.2187	1158.2674	1186.4236	1189.0742	1199.4028	1203.8155	1208.3809	1254.6315	1312.8341	1319.7931	1381.1792	1412.4551	1487.5206	1491.6503	1512.5231	1878.3316	3034.1883	3038.2584	3051.6364	3100.3061	3107.162	3111.1787	3115.1753	3116.1317	3144.566
CC1C2C3C(CN13)C2=O	C[C@H]1[C@@H]2[C@H]3[C@H](CN13)C2=O	
InChI=1S/C7H9NO/c1-3-5-6-4(7(5)9)2-8(3)6/h3-6H,2H2,1H3	InChI=1S/C7H9NO/c1-3-5-6-4(7(5)9)2-8(3)6/h3-6H,2H2,1H3/t3-,4-,5+,6+/m0/s1
