16
gdb 96697	2.73327	1.11846	0.9187	1.8434	76.05	-0.2676	-0.0436	0.224	1323.0023	0.119454	-437.882971	-437.872716	-437.871772	-437.919507	34.67	
C	 0.0050002722	 1.8068105581	 0.4599361011	-0.334123
N	 0.2361864422	 0.3992229226	 0.7049151148	-0.233969
C	-0.6302835955	-0.4569162444	 0.3891598373	 0.273017
O	-0.3740705508	-1.7812885732	 0.7462447012	-0.238873
C	-0.1897897391	-2.6834678432	-0.2699730407	 0.425061
C	-0.0024782054	-4.0646984605	 0.2996491317	-0.481402
O	-0.1770612515	-2.376463575	-1.4285276332	-0.330765
C	-1.9127002248	-0.2429277623	-0.2116758763	 0.336995
C	-2.9967924512	-0.0385839997	-0.6911635402	-0.507801
H	 0.8068874033	 2.1802414542	-0.1860845009	 0.14358
H	-0.9632202977	 2.0383939726	 0.0001195091	 0.124994
H	 0.0896597566	 2.3438295156	 1.411007404	 0.139655
H	-0.8976323672	-4.3622295109	 0.8533987671	 0.155224
H	 0.1859332108	-4.767520305	-0.5106817835	 0.151875
H	 0.8328705176	-4.0675332382	 1.0050005512	 0.159241
H	-3.9510313995	 0.1310121093	-1.1271604327	 0.21729
39.3196	67.2713	95.0431	121.7939	126.4855	165.5379	260.7748	299.4721	322.3656	353.295	498.7212	579.9949	596.0314	652.2445	665.1826	675.0308	713.2293	797.1658	915.1345	1014.0436	1063.2978	1086.641	1130.0366	1142.149	1189.1661	1244.0032	1394.7144	1436.3742	1468.2377	1474.0906	1485.3131	1493.5574	1743.5333	1849.2717	2225.6124	3016.1925	3059.1072	3089.5348	3091.3553	3125.1625	3172.361	3496.2802
CN=C(OC(C)=O)C#C	CN=C(OC(=O)C)C#C	
InChI=1S/C6H7NO2/c1-4-6(7-3)9-5(2)8/h1H,2-3H3	InChI=1S/C6H7NO2/c1-4-6(7-3)9-5(2)8/h1H,2-3H3
