23
gdb 88956	3.11555	0.91134	0.85899	1.3468	85.73	-0.2516	0.0797	0.3314	1486.8808	0.204507	-388.261105	-388.251219	-388.250275	-388.2962	37.878	
C	 0.244905738	 1.5767995309	 0.0597136153	-0.462814
C	-0.0245748267	 0.0832159902	 0.0793026246	 0.400801
C	-1.4674230875	-0.3225880467	 0.3548100613	-0.295218
C	-2.4780625349	 0.2162856101	-0.6414147523	-0.009964
C	-2.6852167709	-0.4582847623	-1.986336867	-0.322401
C	-3.7519453876	-0.5285125322	-0.9223550332	 0.083883
O	-3.9553833076	-1.7268101065	-0.2270817179	-0.416783
C	 0.7979386805	-0.7869627496	-0.8420507777	-0.291542
C	 1.0572936435	-0.8049686859	 0.6469926822	-0.313206
H	 1.3106568356	 1.782698887	-0.0809798876	 0.109071
H	-0.2954272727	 2.0756249121	-0.75252865	 0.115751
H	-0.0620605257	 2.0464474812	 1.0024239763	 0.110788
H	-1.5452363638	-1.4135024786	 0.3813179959	 0.103934
H	-1.7469652368	 0.0247725024	 1.3597948604	 0.094641
H	-2.5801333582	 1.2980801475	-0.6433637127	 0.086151
H	-2.8544304151	 0.1494470717	-2.8688097538	 0.106478
H	-2.1247711737	-1.3700460998	-2.1640688029	 0.111652
H	-4.6553024744	 0.0638598964	-1.0696628572	 0.082617
H	-4.3611890151	-2.3545585941	-0.8335291422	 0.287225
H	 0.3283166804	-1.6587728345	-1.2844724928	 0.104706
H	 1.5304826561	-0.3085584123	-1.4839864261	 0.103744
H	 1.9647630013	-0.3364075018	 1.013984905	 0.103972
H	 0.7586221251	-1.686601515	 1.2050716023	 0.106515
40.2273	90.0411	132.1098	207.6699	235.7652	280.1557	299.6183	340.9486	351.9326	363.9592	427.5815	487.9127	547.3185	731.7554	767.1439	786.6693	831.6149	861.1215	881.6946	884.7498	943.0311	948.5326	954.651	1000.7	1022.9893	1043.8586	1048.0222	1073.4815	1076.9746	1116.1209	1135.4752	1140.1015	1179.5073	1188.1804	1238.7755	1242.9702	1302.6073	1311.29	1342.6188	1359.4044	1407.1085	1417.5003	1426.6856	1467.8511	1479.1448	1488.2429	1496.0588	1500.9393	1511.9757	3007.0515	3021.1876	3080.5712	3082.5976	3092.2235	3096.9381	3123.6489	3129.0138	3131.4261	3143.981	3201.1546	3215.7835	3218.8942	3809.1141
CC1(CC2CC2O)CC1	CC1(C[C@H]2C[C@H]2O)CC1	
InChI=1S/C8H14O/c1-8(2-3-8)5-6-4-7(6)9/h6-7,9H,2-5H2,1H3	InChI=1S/C8H14O/c1-8(2-3-8)5-6-4-7(6)9/h6-7,9H,2-5H2,1H3/t6-,7-/m1/s1
