18
gdb 78992	2.95052	1.85263	1.48875	1.1341	74.26	-0.2224	0.0735	0.2959	931.3476	0.147925	-401.855495	-401.848315	-401.84737	-401.886553	29.684	
C	 0.0156616538	 1.5637672035	-0.0739120795	-0.323325
N	-0.0016880699	 0.1144420476	 0.030408671	-0.078508
C	-1.2303443393	-0.5538866106	 0.5005454144	-0.136423
C	-1.4931591402	-0.1860110294	 2.0010023222	-0.075774
C	-0.0511939723	-0.1670876632	 2.5035164683	-0.075774
C	-0.8548667078	-1.4468322778	 2.5373769794	-0.16927
C	-0.348832419	-1.7199094872	 1.0955732499	 0.439897
O	-0.1500808249	-2.9711080973	 0.5723358273	-0.483247
C	 0.6839999203	-0.528773942	 1.1676832678	-0.136416
H	 1.0306876271	 1.9015402485	-0.3087985367	 0.117205
H	-0.6410975328	 1.8796184358	-0.8914975705	 0.117204
H	-0.3124102362	 2.071153525	 0.8482530654	 0.103977
H	-2.0688983032	-0.6545677125	-0.1890180374	 0.068132
H	-2.2858269784	 0.4057655355	 2.437844776	 0.088487
H	 0.284262935	 0.439495847	 3.3335034388	 0.088487
H	-1.1308332726	-2.0977449145	 3.3537658158	 0.096156
H	 0.1642616358	-2.8668041174	-0.334131696	 0.29106
H	 1.7715584246	-0.6041835512	 1.1493563937	 0.068134
178.4514	220.9211	254.2182	298.9535	301.796	374.6836	563.0142	604.186	631.3986	692.4288	742.7512	789.8885	809.2282	819.8647	837.9659	895.6549	897.5024	926.1759	962.6963	979.3169	988.7713	1017.0949	1034.2285	1067.5998	1107.6592	1120.2815	1155.6678	1181.6707	1198.2634	1210.9566	1225.5353	1260.0726	1270.1005	1316.6117	1354.3918	1423.4827	1445.5276	1485.7841	1504.174	2971.3427	3060.362	3096.3914	3113.7292	3116.4734	3200.9675	3206.9457	3227.9675	3788.6038
CN1C2C3C4C3C2(O)C14	CN1[C@@H]2[C@@H]3[C@H]4[C@@H]3[C@]2(O)[C@@H]14	
InChI=1S/C7H9NO/c1-8-5-2-3-4(2)7(5,9)6(3)8/h2-6,9H,1H3	InChI=1S/C7H9NO/c1-8-5-2-3-4(2)7(5,9)6(3)8/h2-6,9H,1H3/t2-,3+,4-,5-,6+,7-
