19
gdb 78489	3.1744	1.31643	1.28903	2.0958	73.58	-0.2352	0.0727	0.3079	1071.4449	0.160657	-422.983335	-422.975578	-422.974634	-423.01566	30.294	
O	 0.3633376114	 1.1842483774	 0.1042543089	-0.446089
C	 0.1183075859	-0.1915717506	 0.0123004474	 0.15416
C	-1.3080060422	-0.649688747	-0.0024390542	-0.139061
C	-0.4300269199	-0.7115354416	-1.2865850965	-0.151483
C	-0.6046870012	-2.2401298758	-1.3131379487	 0.10782
O	 0.5025195564	-3.0914019276	-1.1140131384	-0.264921
C	 0.6816696984	-3.3452995629	 0.280661136	-0.083005
C	-0.6637500486	-3.0503612595	 0.9964939523	-0.258343
C	-1.4440169064	-2.1825257271	-0.0049007697	-0.060108
H	-0.2981968532	 1.650789922	-0.4181086458	 0.282082
H	 0.8892032062	-0.7138974072	 0.5668099043	 0.102334
H	-2.1070834377	 0.0402992257	 0.2458504197	 0.084729
H	-0.4371819764	-0.0701107254	-2.1619135782	 0.081561
H	-1.1353700253	-2.5754177929	-2.2082208106	 0.084037
H	 0.9923285629	-4.3898545372	 0.3877761942	 0.103813
H	 1.492682935	-2.7209792857	 0.6794613136	 0.103877
H	-1.2039008072	-3.9819707892	 1.1856618526	 0.10785
H	-0.5074579206	-2.5566697361	 1.9592376157	 0.11073
H	-2.4787049576	-2.5066755095	-0.1222759824	 0.080017
99.9763	160.3536	185.3763	187.9772	301.5223	358.3617	454.8901	565.2402	623.5666	690.0076	739.0603	791.03	802.4104	850.7734	896.0425	912.1104	927.6315	950.6564	981.5641	1007.8764	1019.7852	1074.1999	1083.1634	1097.4223	1109.7961	1118.5871	1141.2625	1185.9611	1219.5131	1235.5073	1249.7154	1271.5665	1274.9117	1311.1343	1330.9538	1354.3173	1362.0465	1394.0151	1451.7749	1489.8949	1536.1863	3006.5156	3055.0948	3065.3978	3070.5104	3097.5905	3109.77	3159.322	3172.639	3179.0232	3806.2217
OC1C2C1C1OCCC21	O[C@H]1[C@H]2[C@@H]1[C@H]1OCC[C@@H]21	
InChI=1S/C7H10O2/c8-6-4-3-1-2-9-7(3)5(4)6/h3-8H,1-2H2	InChI=1S/C7H10O2/c8-6-4-3-1-2-9-7(3)5(4)6/h3-8H,1-2H2/t3-,4+,5-,6-,7-/m0/s1
