13
gdb 25386	3.18008	1.40041	0.97226	5.4437	73.41	-0.2512	-0.1143	0.1369	1107.9496	0.089585	-452.771843	-452.76449	-452.763545	-452.804601	26.378	
N	-0.1564007418	 1.2921070828	 0.0082709277	-0.506932
C	 0.0007413862	 0.0405161271	 0.0017212655	 0.431232
O	-1.1869506367	-0.7109140901	 0.0036893444	-0.218426
C	-1.1359316948	-2.0438721455	-0.0037987885	 0.316234
C	-2.4573717908	-2.7320811455	-0.000570202	 0.09625
O	-3.5173421196	-2.1655757605	 0.0078876111	-0.230678
C	 0.0320657215	-2.7237803262	-0.0135571637	-0.240862
C	 1.2288869632	-1.9265190551	-0.0156386145	 0.028276
N	 1.2212552112	-0.6357153019	-0.0087194201	-0.286592
H	 0.762510848	 1.7312119449	 0.0050987986	 0.24168
H	-2.3658120279	-3.8386097894	-0.0070974926	 0.098868
H	 0.0543240432	-3.8048516594	-0.0194836465	 0.133396
H	 2.2022209282	-2.4160198809	-0.0234659194	 0.137555
58.295	108.4601	179.0364	228.0621	419.6686	425.3549	487.1887	566.104	604.2603	663.3512	757.6535	762.5166	815.8253	872.588	917.0332	977.4832	998.2798	1015.066	1028.4176	1090.7986	1196.0962	1255.4864	1393.9323	1412.0373	1440.6122	1594.135	1690.901	1736.7135	1816.4657	2915.5079	3139.7514	3231.4944	3524.8361
N=C1OC(C=O)=CC=N1	[NH]C1=NC=C[C@H](O1)C=O	
InChI=1S/C5H4N2O2/c6-5-7-2-1-4(3-8)9-5/h1-3,6H	InChI=1S/C5H5N2O2/c6-5-7-2-1-4(3-8)9-5/h1-4,6H/t4-/m0/s1
