22
gdb 6701	5.76135	0.71392	0.66254	0.8291	85.01	-0.2576	0.0585	0.3161	1731.9186	0.197546	-313.051443	-313.041133	-313.040189	-313.087072	37.213	
C	-0.0508118959	 1.566364064	-0.1477161629	-0.381522
C	 0.0276987931	 0.0365029194	-0.0447695094	 0.035866
C	 0.7435536607	-0.5485910603	-1.2700493696	-0.388072
C	 0.7116834477	-0.4340945389	 1.2522899207	-0.163534
C	-0.0303707062	-0.0726132538	 2.543146485	-0.184552
C	 0.6587798631	-0.6556867461	 3.794320899	-0.355078
C	-0.0305068718	-0.3230648075	 5.0352628559	 0.292732
C	-0.6186383471	-0.0349595912	 6.0433974144	-0.438339
H	 0.9523228735	 2.0100295259	-0.1298173921	 0.110115
H	-0.5286885773	 1.8690489413	-1.0852930182	 0.110436
H	-0.6257729765	 2.0079700498	 0.6712959938	 0.115745
H	-1.0002781007	-0.3549647458	-0.037779133	 0.071522
H	 1.7806044811	-0.195509602	-1.323161625	 0.111052
H	 0.7670553792	-1.6429491022	-1.2358672443	 0.108694
H	 0.2458984404	-0.251986021	-2.1992415523	 0.109195
H	 0.8296436821	-1.5256912022	 1.208377871	 0.088865
H	 1.7310016135	-0.0218718158	 1.2884238576	 0.089965
H	-0.1003647921	 1.0136818786	 2.6594399546	 0.112537
H	-1.0603481951	-0.4469071009	 2.4996628445	 0.107036
H	 0.7287455046	-1.7473275259	 3.6972890354	 0.127661
H	 1.6935845938	-0.2912079432	 3.8432157445	 0.128073
H	-1.12953285	 0.213219338	 6.9401606903	 0.191603
48.922	83.1154	94.0834	129.2564	206.1497	229.4978	253.8352	290.5845	350.3297	371.9337	420.7031	434.5077	542.2877	613.5032	632.6051	740.2266	812.6949	842.9527	926.1834	936.2642	966.4779	970.2842	1009.679	1023.5309	1056.8039	1138.092	1145.37	1192.3878	1222.2743	1264.0922	1300.4056	1326.7473	1332.2797	1367.2535	1374.9447	1394.0436	1401.3491	1422.9614	1472.7135	1478.2063	1489.6673	1495.0136	1503.3336	1505.1247	1512.6842	2238.1179	2991.5866	2998.9793	3013.2857	3022.6009	3028.2702	3031.2785	3037.7526	3042.9002	3086.2312	3087.8253	3093.0651	3098.8647	3107.9328	3508.5729
CC(C)CCCC#C	CC(C)CCCC#C	
InChI=1S/C8H14/c1-4-5-6-7-8(2)3/h1,8H,5-7H2,2-3H3	InChI=1S/C8H14/c1-4-5-6-7-8(2)3/h1,8H,5-7H2,2-3H3
