15
gdb 126128	4.62928	1.01391	0.84026	2.0383	67.49	-0.2673	-0.0724	0.1949	1313.5645	0.111846	-453.961529	-453.953214	-453.95227	-453.995889	28.678	
C	-0.0471299354	 1.5196917266	 0.0748725015	-0.386393
C	 0.0268531559	-0.0002271131	-0.0442485209	-0.28378
C	 0.744326533	-0.4603575829	-1.2982172177	 0.297683
O	 1.205597133	 0.2899853245	-2.1233825115	-0.281902
C	 0.8698051838	-1.9467842164	-1.4951031661	 0.289288
N	 0.3900803903	-2.8067941432	-0.6300440952	-0.15485
O	 0.7122741945	-4.0416841716	-1.180157542	-0.150746
C	 1.3568870925	-3.7790879361	-2.3255567777	 0.111277
N	 1.4911101246	-2.521509504	-2.5855162631	-0.282294
H	 0.9527592067	 1.9602802872	 0.0983419055	 0.134087
H	-0.5741755192	 1.9545227735	-0.7780591934	 0.13435
H	-0.5730873394	 1.8049848751	 0.9896979217	 0.115057
H	 0.5350770464	-0.4515218625	 0.8177150636	 0.140659
H	-0.97163784	-0.4566209222	-0.0440172449	 0.140578
H	 1.6917470434	-4.6274453048	-2.9040329699	 0.176985
44.6294	60.567	150.0012	168.7535	216.1359	282.55	362.7567	491.4206	538.3674	638.4731	716.0652	732.223	826.3965	907.4134	930.1535	956.7076	985.6433	1002.8196	1032.3768	1092.2664	1115.9378	1122.346	1274.5715	1298.0011	1349.4075	1399.5688	1415.045	1444.6345	1490.807	1491.7995	1497.8717	1577.6642	1808.7577	3033.9485	3053.4667	3059.7208	3126.0583	3128.2986	3271.1922
CCC(=O)C1=NOC=N1	CCC(=O)c1nocn1	
InChI=1S/C5H6N2O2/c1-2-4(8)5-6-3-9-7-5/h3H,2H2,1H3	InChI=1S/C5H6N2O2/c1-2-4(8)5-6-3-9-7-5/h3H,2H2,1H3
