15
gdb 12684	2.76269	2.41399	1.56341	1.6884	57.85	-0.2747	0.0117	0.2863	813.5964	0.120127	-436.950646	-436.943556	-436.942611	-436.981848	27.07	
O	-0.3019379956	 1.2508816991	 0.9582171399	-0.442803
C	 0.018307088	 0.1364358499	 0.159626676	 0.089815
C	 0.8154557028	-0.8744383272	 0.9890880517	-0.101465
O	-0.1654418159	-1.685668492	 1.6845381447	-0.236906
C	-1.3816279885	-1.5026278052	 1.1274823821	 0.410957
N	-2.4985201891	-1.8949906654	 1.5641032061	-0.572368
C	-1.2561754007	-0.6748826942	-0.1373230346	 0.015876
O	-2.3816723245	 0.1393039322	-0.3456675555	-0.441382
H	-1.197948951	 1.5072416734	 0.6932302271	 0.29429
H	 0.5610090061	 0.4314038201	-0.7482505062	 0.081554
H	 1.4337227843	-1.5269200934	 0.3633519236	 0.11722
H	 1.4362856976	-0.3824343572	 1.7391724901	 0.141815
H	-2.4212418627	-2.3950512133	 2.4489458291	 0.234559
H	-1.0863164912	-1.3434250169	-0.9954985836	 0.104032
H	-3.0865999197	-0.2592107498	 0.1902329894	 0.304805
111.8607	178.1269	269.3151	282.418	363.8856	435.5154	472.6264	530.9391	561.349	613.8493	722.175	791.0666	859.3726	882.7781	889.4382	961.0543	974.7312	1029.8306	1097.5277	1149.3328	1153.7164	1203.3825	1236.7189	1267.7428	1299.0683	1349.9239	1377.6788	1409.9745	1422.95	1437.2206	1503.1524	1785.5254	2988.7133	3018.6063	3055.307	3131.8788	3502.3328	3687.4716	3721.1453
OC1COC(=N)C1O	O[C@H]1CO[C]([NH])[C@H]1O	
InChI=1S/C4H7NO3/c5-4-3(7)2(6)1-8-4/h2-3,5-7H,1H2	InChI=1S/C4H7NO3/c5-4-3(7)2(6)1-8-4/h2-3,5-7H,1H2/t2-,3-/m0/s1
