17
gdb 45486	2.99427	1.70902	1.50905	3.9121	70.72	-0.2348	-0.0129	0.2219	921.1257	0.138489	-421.843269	-421.836707	-421.835763	-421.874323	26.664	
O	 0.0311853512	 0.0438335562	-0.5226322981	-0.326681
C	 0.0061170569	 1.1826801624	-0.1314755068	 0.421697
C	-1.2592883808	 2.0037228554	 0.1549420322	-0.323614
C	-0.7858292467	 3.3098669709	 0.8209056906	-0.077222
C	-0.6363347535	 3.1392841249	 2.3405393833	-0.078057
O	 0.5566612471	 2.3594174113	 2.5027370553	-0.257217
C	 1.4116206846	 2.7032487189	 1.4447153006	 0.104019
C	 0.7021858853	 3.4770264355	 0.3968609703	-0.137625
C	 1.1962384997	 2.0729780336	 0.0638660863	-0.20443
H	-1.7258674071	 2.2084476998	-0.8160926936	 0.132024
H	-1.977155285	 1.4273727296	 0.7443232584	 0.127634
H	-1.402199294	 4.169816449	 0.5563437963	 0.085761
H	-0.5226519286	 4.1129946173	 2.8397871359	 0.096326
H	-1.4595646694	 2.5941780847	 2.8101732094	 0.115571
H	 2.43563	 2.8967020345	 1.7453485867	 0.112541
H	 1.0748435725	 4.3770382321	-0.0743543587	 0.10138
H	 2.0801776776	 1.8809564036	-0.532552288	 0.107893
96.5144	176.673	368.175	390.4	457.3137	525.0224	620.6018	627.3127	729.1052	743.5537	772.5999	817.931	847.1949	872.6906	925.073	943.0614	946.814	966.8421	1011.7147	1044.3039	1057.5728	1091.8764	1098.3014	1154.2821	1164.0133	1185.6768	1208.6352	1247.7752	1278.6399	1287.3155	1320.4238	1336.386	1364.0748	1403.7282	1451.186	1514.2399	1837.2725	2995.6233	3045.2729	3094.7171	3104.354	3107.7305	3169.5543	3189.0427	3199.2289
O=C1CC2COC3C2C13	O=C1C[C@H]2CO[C@@H]3[C@H]2[C@H]13	
InChI=1S/C7H8O2/c8-4-1-3-2-9-7-5(3)6(4)7/h3,5-7H,1-2H2	InChI=1S/C7H8O2/c8-4-1-3-2-9-7-5(3)6(4)7/h3,5-7H,1-2H2/t3-,5+,6-,7+/m0/s1
