16
gdb 39168	3.22272	1.82446	1.31563	3.5378	69.7	-0.2482	0.0079	0.2561	943.1421	0.126717	-437.878924	-437.872249	-437.871305	-437.909971	26.313	
C	 0.0010905851	 1.4248658901	-0.2280808357	-0.160428
C	 1.4389592956	 1.97163299	 0.1184359583	-0.388883
C	 2.2255968982	 0.6868130259	 0.1458664246	 0.360856
O	 3.3378603593	 0.3696674845	-0.7131967829	-0.288341
C	 3.4350295812	 0.0632859274	 0.6840736487	-0.122445
C	 3.0703865664	-1.3926680671	 0.9538577513	-0.112421
O	 1.7188501898	-1.5842248983	 0.4515520457	-0.265263
C	 1.1946626935	-0.3780325877	 0.1650009682	 0.425332
N	-0.0131135484	-0.0406551027	-0.0059912126	-0.324648
H	-0.7645975764	 1.8857936972	 0.4022902215	 0.116374
H	-0.2701252141	 1.6388514055	-1.2683349753	 0.119962
H	 1.8275687737	 2.6709714801	-0.6240109592	 0.131989
H	 1.4392275306	 2.4708932019	 1.0912200747	 0.123985
H	 4.2131484788	 0.5642766984	 1.2509826646	 0.119507
H	 3.724752097	-2.0943886839	 0.4301966325	 0.138909
H	 3.0774216797	-1.6162508112	 2.0265711056	 0.125514
122.4668	220.5478	251.2898	312.0394	424.7749	451.568	616.1421	644.9591	719.0187	721.831	766.0494	817.6142	848.3351	889.7668	919.5679	929.9534	984.507	1021.9356	1052.4551	1069.9521	1086.6241	1121.4302	1190.6125	1223.4624	1235.1461	1259.7201	1284.6401	1314.0176	1338.412	1412.994	1468.5492	1480.6909	1497.4793	1506.3136	1768.5495	3041.9868	3046.7321	3067.8008	3086.3783	3106.2798	3125.6877	3173.9424
C1CC23OC2COC3=N1	C1C[C@@]23O[C@@H]2CO[C]3[N]1	
InChI=1S/C6H7NO2/c1-2-7-5-6(1)4(9-6)3-8-5/h4H,1-3H2	InChI=1S/C6H7NO2/c1-2-7-5-6(1)4(9-6)3-8-5/h4H,1-3H2/t4-,6-/m1/s1
