17
gdb 86471	2.50631	1.39244	1.04405	3.0971	79.41	-0.2547	-0.0049	0.2498	1174.5524	0.134526	-380.823283	-380.814215	-380.813271	-380.856937	33.778	
C	 0.8350464357	 1.5273203634	-0.1110163918	-0.418904
C	-0.0451465888	 0.2840333255	-0.0670838744	 0.071982
C	 0.1890998081	-0.7460817794	-1.2032435921	-0.293148
C	 0.9220447638	-1.6381004837	-0.1331975074	 0.007746
N	 0.3450081942	-0.7607345807	 0.9214449135	-0.339235
C	 0.5298117828	-3.0413040125	-0.0539460174	 0.27534
C	 0.1889742392	-4.1917381946	-0.0091969113	-0.399105
C	 2.3901313034	-1.5381084924	-0.2447972374	 0.257998
N	 3.5386448013	-1.4173554567	-0.3057801169	-0.349828
H	 1.8866346933	 1.2720410374	-0.2757640896	 0.142977
H	 0.5139082694	 2.1954190433	-0.9175266276	 0.125028
H	 0.7607335307	 2.0843944121	 0.8294868826	 0.12439
H	-1.0919607556	 0.5785283542	 0.0624804222	 0.087242
H	-0.7177458995	-1.2311514307	-1.5620366599	 0.134484
H	 0.8027405549	-0.425954095	-2.0446369162	 0.134072
H	 0.9972445291	-0.4777308878	 1.646136858	 0.232888
H	-0.1090550722	-5.2103005824	 0.0402350059	 0.206075
83.6202	128.5864	138.6347	187.8857	238.3009	257.7919	331.4079	385.8363	470.1591	481.1394	554.7172	588.0329	596.7951	647.476	664.9707	703.2668	807.6059	841.2253	920.426	946.9303	956.8176	1032.0973	1063.3038	1117.1352	1139.9129	1189.8226	1207.788	1261.3631	1303.2169	1350.7106	1406.5606	1414.5491	1477.161	1494.9432	1497.6531	2243.7285	2343.857	3030.4684	3041.9885	3097.7756	3100.3088	3112.4599	3165.3284	3499.5689	3526.7058
CC1CC(N1)(C#C)C#N	C[C@H]1C[C@@](N1)(C#C)C#N	
InChI=1S/C7H8N2/c1-3-7(5-8)4-6(2)9-7/h1,6,9H,4H2,2H3	InChI=1S/C7H8N2/c1-3-7(5-8)4-6(2)9-7/h1,6,9H,4H2,2H3/t6-,7-/m0/s1
