20
gdb 9283	6.25282	0.80634	0.75466	4.1233	73.27	-0.2765	0.0097	0.2862	1517.5597	0.17468	-386.173431	-386.163535	-386.162591	-386.209345	33.998	
C	 0.0054336201	 1.5484973625	-0.0759015865	-0.390918
C	-0.0244869035	 0.0202156557	 0.0234036386	-0.17397
C	-1.4396143271	-0.5852162144	 0.0812366767	 0.032205
C	-2.2431468041	-0.3557368947	-1.2046204981	-0.40273
C	-1.331291687	-2.0763704692	 0.4064464126	-0.086585
O	-2.6315359063	-2.6362029068	 0.6386394432	-0.181777
C	-2.9823085567	-3.7514222167	-0.0256083264	 0.17121
O	-4.0343182197	-4.2947693303	 0.1295673063	-0.276132
H	 1.0349466946	 1.9182883788	-0.05232843	 0.117069
H	-0.4504027198	 1.9077066578	-1.003136051	 0.122817
H	-0.5325478987	 2.0085122933	 0.7602645254	 0.118803
H	 0.5172618069	-0.4126910024	-0.8291503644	 0.096321
H	 0.5279959492	-0.2858589493	 0.921510076	 0.096176
H	-1.9786401751	-0.1167402367	 0.9162335929	 0.091159
H	-1.7249753007	-0.7837224428	-2.0720242479	 0.109811
H	-3.2308521641	-0.8188881108	-1.1362277227	 0.135536
H	-2.3919204434	 0.7094305383	-1.3989844432	 0.122973
H	-0.8353173641	-2.6164366756	-0.4126683957	 0.105403
H	-0.7441368964	-2.2298429567	 1.3185172589	 0.117282
H	-2.195326464	-4.09991479	-0.7238149448	 0.075347
35.0195	64.9575	85.2189	137.6913	211.0158	217.0529	250.8174	287.0896	331.1795	373.2037	420.2918	494.7952	675.7314	776.2887	830.3842	912.2153	929.0583	980.3558	1018.8289	1032.6183	1046.9076	1060.584	1138.9418	1156.6478	1186.3787	1218.7198	1287.0988	1307.9209	1316.7051	1380.87	1386.3696	1397.3767	1414.0624	1416.4462	1435.5307	1484.2088	1495.2666	1498.7812	1502.8929	1509.029	1513.8802	1865.4758	2938.7209	3004.1811	3007.2218	3018.5177	3031.7803	3036.7793	3043.0823	3069.8908	3103.1724	3103.4324	3110.9394	3124.2408
CCC(C)COC=O	CC[C@@H](C)COC=O	
InChI=1S/C6H12O2/c1-3-6(2)4-8-5-7/h5-6H,3-4H2,1-2H3	InChI=1S/C6H12O2/c1-3-6(2)4-8-5-7/h5-6H,3-4H2,1-2H3/t6-/m1/s1
