20
gdb 40437	3.40681	1.30618	1.19714	0.698	77.89	-0.2083	0.0883	0.2966	1116.6854	0.172076	-403.095393	-403.087538	-403.086593	-403.127773	31.128	
C	-0.7305626684	-0.5481552698	-1.1689763222	-0.231783
C	-0.9230290727	 0.8675995909	-0.7520492851	-0.228325
N	-0.0416184716	-0.0239232193	 0.0033825915	-0.143957
C	-0.4801497597	-0.4315656902	 1.3118403588	 0.324086
C	-0.4993598089	-1.8903452444	 1.7050411286	-0.369467
C	-1.7842139647	-1.0825051298	 1.7141954188	 0.062578
O	-2.2532341579	-0.5553068173	 2.9256081401	-0.260434
C	-1.1638050471	 0.1290857513	 3.5532398372	-0.093955
C	-0.1955946153	 0.5596495131	 2.433614507	-0.289558
H	-1.5722661049	-1.2231564004	-1.0278417516	 0.114005
H	-0.0917150502	-0.7952833094	-2.0120314117	 0.118271
H	-0.4316887221	 1.6744897979	-1.2876351741	 0.117697
H	-1.8851800745	 1.1222157054	-0.3118267572	 0.118272
H	-0.397429307	-2.6065736352	 0.8955942944	 0.115949
H	-0.0470111767	-2.2080475476	 2.6390323616	 0.115245
H	-2.5942461157	-1.3353933521	 1.0402253969	 0.099616
H	-1.5774347865	 0.9684007513	 4.1184436652	 0.111318
H	-0.6639136141	-0.5418425891	 4.2653920503	 0.100452
H	 0.846343761	 0.5523300591	 2.7653250258	 0.110779
H	-0.4272912427	 1.5674194055	 2.0720519156	 0.10921
83.8161	149.3995	207.5421	232.9372	277.3959	423.3716	453.5955	486.8662	521.8077	678.6449	694.2968	791.1694	827.0725	846.6528	882.5421	903.8365	910.2411	946.8441	976.3587	998.2271	1008.8095	1027.7557	1039.4715	1073.1656	1099.8928	1116.0196	1119.5714	1168.7317	1172.3804	1177.3525	1207.6301	1217.76	1246.7929	1280.8503	1310.1894	1330.5291	1383.526	1413.2328	1477.0207	1490.2153	1496.274	1518.206	1527.1508	3005.9315	3046.4276	3086.5645	3099.1969	3100.4042	3103.6361	3125.8499	3179.6971	3182.1921	3195.8058	3211.6938
C1CN1C12CC1OCC2	C1CN1[C@]12C[C@H]1OCC2	
InChI=1S/C7H11NO/c1-4-9-6-5-7(1,6)8-2-3-8/h6H,1-5H2	InChI=1S/C7H11NO/c1-4-9-6-5-7(1,6)8-2-3-8/h6H,1-5H2/t6-,7-/m1/s1
