17
gdb 127284	4.75918	1.25041	1.01108	3.3036	76.72	-0.2025	0.0239	0.2264	1161.0037	0.138717	-418.021847	-418.014086	-418.013142	-418.05477	28.379	
C	-0.1116577569	 1.385501314	 0.1079479491	-0.31104
N	 0.0594157719	-0.0397816229	-0.0389364006	 0.045384
C	-0.1675456554	-0.7980555646	-1.1515896913	-0.215686
C	 0.0298345207	-2.1062906762	-0.7755959941	 0.139903
C	 0.1157939628	-3.5450975528	-1.1822659173	-0.388361
C	 0.3064100585	-4.2132845615	 0.2250347935	-0.08507
O	 0.6557016123	-3.1814638385	 1.1881901728	-0.271917
C	 0.3704310238	-2.0090904847	 0.5787322445	 0.454144
N	 0.392656734	-0.7851884504	 1.062969468	-0.399399
H	 0.7647664204	 1.8141971398	 0.6005032461	 0.149608
H	-0.2212794741	 1.8318638935	-0.8825195401	 0.132846
H	-0.9986055444	 1.6198859586	 0.7067574783	 0.140808
H	-0.4429284688	-0.3347173719	-2.0862765472	 0.132184
H	-0.7761739258	-3.9384035633	-1.6790821055	 0.118322
H	 0.9700449109	-3.7486490683	-1.8390739914	 0.120156
H	-0.624451369	-4.6824430894	 0.5622120792	 0.117519
H	 1.1027686391	-4.9600357013	 0.2421062962	 0.1206
64.4218	96.0254	154.9819	237.2249	296.0547	316.8577	520.025	563.6393	591.5915	701.8031	733.8027	741.1554	784.0979	840.0002	855.3244	934.3174	980.4847	1011.7836	1072.0016	1077.882	1150.3216	1156.7333	1192.6834	1207.7103	1246.5643	1286.0642	1323.6532	1372.2614	1439.9804	1466.0726	1473.071	1479.3786	1497.7868	1512.6478	1524.0134	1555.016	1650.094	3027.7554	3035.7711	3041.1181	3073.3014	3102.2981	3111.9187	3138.351	3251.7873
CN1C=C2CCOC2=N1	Cn1cc2CCOc2n1	
InChI=1S/C6H8N2O/c1-8-4-5-2-3-9-6(5)7-8/h4H,2-3H2,1H3	InChI=1S/C6H8N2O/c1-8-4-5-2-3-9-6(5)7-8/h4H,2-3H2,1H3
