15
gdb 50891	6.52457	0.61167	0.56308	3.6533	69.76	-0.2916	-0.04	0.2515	1821.8705	0.110905	-453.993612	-453.98421	-453.983266	-454.029639	31.246	
N	-0.3069831196	 1.3226533315	 0.0130919624	-0.410551
C	-0.0665354556	 0.0903298153	 0.003312869	 0.114615
O	-1.1446585153	-0.7688416258	 0.0088938459	-0.207732
C	-0.8997177802	-2.112875876	-0.0014034711	 0.475212
O	 0.1951687952	-2.6068075636	-0.0146649124	-0.333997
C	-2.2073230822	-2.8701120938	 0.0067203425	-0.33472
C	-1.9692930631	-4.3879734438	-0.0022831525	-0.338351
C	-3.223919647	-5.1357644653	 0.0046400075	 0.257765
N	-4.2231376465	-5.7154715963	 0.0102779115	-0.295964
H	 0.5664240141	 1.8477414971	 0.0074784499	 0.245771
H	 0.890462509	-0.430604878	-0.0093760696	 0.149003
H	-2.7821929861	-2.5619679417	 0.8862245106	 0.167663
H	-2.7972939036	-2.5541500024	-0.859947741	 0.16768
H	-1.3861659328	-4.6721956499	-0.8836519785	 0.17183
H	-1.3717277764	-4.6803921272	 0.8666591857	 0.171777
50.0414	57.0738	93.1789	107.5368	141.4074	204.4737	278.0337	375.9868	391.5403	511.3258	563.491	569.4849	737.0883	785.2629	853.8578	935.7108	970.501	1000.51	1038.882	1067.9019	1070.6572	1176.8941	1187.3819	1256.5624	1303.7412	1306.4045	1385.0574	1400.761	1453.9097	1466.3418	1749.5201	1836.276	2367.5071	3060.0577	3069.226	3092.1592	3111.4621	3144.9455	3509.5227
N=COC(=O)CCC#N	[NH][CH]OC(=O)CCC#N	
InChI=1S/C5H6N2O2/c6-3-1-2-5(8)9-4-7/h4,7H,1-2H2	InChI=1S/C5H6N2O2/c6-3-1-2-5(8)9-4-7/h4,7H,1-2H2
