21
gdb 121310	3.32579	0.93518	0.7685	1.6706	78.95	-0.2402	-0.0251	0.2151	1524.225	0.181921	-424.254496	-424.245046	-424.244102	-424.289478	34.349	
C	 0.0883104527	 1.6186608777	-0.1596227752	-0.382752
C	 0.0558506691	 0.0906236869	-0.0799963106	-0.174614
C	 0.6728397113	-0.4453232021	 1.2181767768	-0.188226
C	 0.6535806067	-1.9736752278	 1.3316287782	-0.11686
C	 1.4895596352	-2.5775861689	 2.4689815043	-0.114144
O	 0.9209264347	-3.8611691278	 2.7314117961	-0.248167
C	-0.4809286277	-3.7371229642	 2.6060203522	-0.176741
C	-0.7218748997	-2.58166899	 1.6293450394	 0.360845
O	-1.7940121846	-2.219078852	 1.2192110326	-0.304053
H	 1.1141083768	 2.0007153082	-0.1022600809	 0.109953
H	-0.3477249079	 1.97618301	-1.0974096666	 0.114238
H	-0.4784364677	 2.0696378526	 0.6625505085	 0.116053
H	-0.9742743461	-0.2693286193	-0.1572522178	 0.133166
H	 0.5997255612	-0.3336175882	-0.9349116885	 0.090148
H	 1.7137493483	-0.1020563268	 1.2949217939	 0.096236
H	 0.1461473509	-0.0149338577	 2.0803120534	 0.100676
H	 0.9873834725	-2.4211193897	 0.3835317112	 0.110914
H	 2.5406825123	-2.7282556245	 2.2143873005	 0.119158
H	 1.4372397657	-1.9369676426	 3.3655862375	 0.095063
H	-0.9055881765	-4.6766282934	 2.2399429972	 0.138901
H	-0.9667571471	-3.4931287003	 3.5662334378	 0.120204
64.1708	85.2841	105.6462	155.4912	218.8113	247.6872	256.6848	329.0127	367.1677	469.1244	573.0319	623.0466	661.5197	725.3112	757.0357	870.2803	899.8914	936.0461	957.6313	991.2805	1028.6908	1056.1094	1066.6117	1094.3657	1135.8283	1147.3535	1174.4647	1209.7075	1239.7273	1251.7789	1277.7714	1311.1979	1321.8821	1338.6728	1344.1078	1391.8461	1399.3692	1413.203	1476.0455	1484.6944	1495.716	1500.7866	1512.2334	1517.7212	1848.882	2963.8269	2970.4846	3004.7199	3009.0316	3018.5258	3028.2005	3046.6528	3080.8895	3085.4362	3102.4066	3105.0978	3105.7259
CCCC1COCC1=O	CCC[C@H]1COCC1=O	
InChI=1S/C7H12O2/c1-2-3-6-4-9-5-7(6)8/h6H,2-5H2,1H3	InChI=1S/C7H12O2/c1-2-3-6-4-9-5-7(6)8/h6H,2-5H2,1H3/t6-/m0/s1
