17
gdb 13609	4.56786	1.28297	1.18771	1.1526	67.15	-0.2327	-0.0006	0.2321	1071.4394	0.140912	-400.997275	-400.988617	-400.987672	-401.030854	30.266	
C	-0.4520426016	 1.4326869603	 0.6605998759	-0.241418
O	-0.3623994518	 0.0321994296	 0.9499809766	-0.236389
C	 0.822278513	-0.5417212679	 0.6562130849	 0.456891
O	 1.7620343425	 0.0658611184	 0.1977782533	-0.376843
C	 0.7815153605	-1.9986085905	 0.9823714925	-0.128594
C	 1.6960541492	-2.9058990406	 0.2124578913	-0.234764
N	 1.9169761236	-2.6831388469	 1.6205747235	-0.082228
C	 3.101473749	-1.9349558035	 2.0361924693	-0.326602
H	-0.2663919084	 1.6199597408	-0.4000494019	 0.141955
H	-1.4664498118	 1.7267317147	 0.9297367166	 0.134815
H	 0.2782775801	 1.9948289222	 1.2481014328	 0.141506
H	-0.191259688	-2.3528852831	 1.3071711055	 0.107872
H	 1.3426727925	-3.8935693115	-0.0726971408	 0.120416
H	 2.3583526559	-2.4138467255	-0.4979130049	 0.132537
H	 3.3921987979	-1.1334344751	 1.3484619357	 0.144975
H	 2.916342548	-1.5032091892	 3.0247633194	 0.122374
H	 3.9259182192	-2.6485284323	 2.1284731604	 0.123498
57.1554	113.8662	150.9133	191.0335	196.0466	262.6248	308.2159	366.8682	413.0756	444.4314	685.9359	724.8447	797.667	865.5201	897.0747	998.2371	1033.552	1042.6657	1099.5147	1125.315	1137.7576	1172.6489	1178.3207	1202.6949	1214.721	1225.7241	1332.2344	1402.9189	1446.3588	1473.5269	1480.9889	1487.9196	1496.9065	1498.3705	1510.4968	1798.3543	3027.4827	3052.0584	3094.9788	3100.6259	3106.2144	3126.4611	3160.1324	3163.4458	3187.408
COC(=O)C1CN1C	COC(=O)[C@H]1CN1C	
InChI=1S/C5H9NO2/c1-6-3-4(6)5(7)8-2/h4H,3H2,1-2H3	InChI=1S/C5H9NO2/c1-6-3-4(6)5(7)8-2/h4H,3H2,1-2H3/t4-,6?/m1/s1
