19
gdb 69256	2.5596	1.54854	1.15649	3.4254	75.96	-0.2294	-0.0167	0.2127	1106.7672	0.159625	-423.036037	-423.027816	-423.026871	-423.068806	31.763	
C	-0.0406431404	 1.5107179191	-0.0234591178	-0.477211
C	-0.0256068101	-0.0041633643	 0.0019431545	 0.316167
C	-0.7784667085	-0.7194068221	 1.0813110087	-0.332432
C	 0.749932623	-0.6920347535	 1.1181550122	-0.155927
C	 1.5009908127	-1.9429545907	 0.8270229842	 0.388212
O	 2.2685175438	-2.4478903473	 1.6155879372	-0.323003
C	 1.2747826886	-2.5309858896	-0.5675446866	-0.198504
O	 1.1941496378	-1.5086475635	-1.5419757013	-0.232868
C	 0.0519675432	-0.6897457504	-1.3720546853	-0.160367
H	 0.8590450155	 1.9038983734	-0.5092036055	 0.130575
H	-0.911342662	 1.8860330535	-0.5735099038	 0.122956
H	-0.0852829396	 1.9228999765	 0.9893528961	 0.120617
H	-1.2844293502	-0.1366773796	 1.8433855298	 0.124863
H	-1.2658917515	-1.658843737	 0.8406428297	 0.120394
H	 1.20022516	-0.079023552	 1.892034981	 0.106563
H	 2.1287383666	-3.163856268	-0.815959041	 0.137432
H	 0.3650600998	-3.1590379706	-0.5723422959	 0.102921
H	-0.8601115535	-1.2828394493	-1.5525158298	 0.093429
H	 0.1178626548	 0.0681287154	-2.1571839563	 0.116186
75.1512	132.6605	233.4001	244.5422	322.3959	338.6779	383.6874	420.8504	461.6808	488.8732	562.4332	644.9786	730.4748	820.1509	873.2921	899.9788	924.0261	943.597	963.6947	996.6254	1035.455	1049.0049	1068.5231	1118.1174	1127.8366	1135.7863	1229.2753	1251.6831	1269.664	1316.1325	1324.5256	1352.18	1390.0544	1416.7113	1419.5661	1467.9719	1486.7922	1489.313	1499.524	1502.3623	1806.7421	2942.0885	2962.9883	3026.0504	3089.2586	3090.5074	3104.2631	3119.6149	3128.8157	3169.2189	3215.8736
CC12CC1C(=O)COC2	C[C@]12C[C@H]1C(=O)COC2	
InChI=1S/C7H10O2/c1-7-2-5(7)6(8)3-9-4-7/h5H,2-4H2,1H3	InChI=1S/C7H10O2/c1-7-2-5(7)6(8)3-9-4-7/h5H,2-4H2,1H3/t5-,7+/m0/s1
