19
gdb 102741	2.23947	1.08181	0.76529	2.3782	77.64	-0.2559	0.0546	0.3106	1471.0692	0.156278	-422.958447	-422.948363	-422.947419	-422.994336	35.902	
O	 0.2849837568	 0.2798445531	 0.0904531754	-0.420071
C	 0.1630618042	-0.8436720966	-0.7674250203	-0.094567
C	-1.3183954297	-1.2601888184	-0.7817755646	-0.169292
C	-2.2111804498	-0.1251171607	-1.3361914924	-0.218746
C	-3.6869495262	-0.3569712959	-1.1285408591	 0.095519
C	-4.699291985	 0.2357526274	-2.0109155564	-0.184735
O	-4.3786630815	-1.1528310798	-2.0934220399	-0.223863
C	-1.4701288469	-2.5119173754	-1.5180550713	 0.335241
C	-1.5540033422	-3.539631109	-2.1351341725	-0.462404
H	 1.1937679928	 0.5909766294	 0.0545818061	 0.291893
H	 0.4830080109	-0.6086206869	-1.7940051957	 0.0984
H	 0.7690839506	-1.6891452671	-0.4127154094	 0.102378
H	-1.6016599367	-1.4304102907	 0.2668759667	 0.113784
H	-1.918737136	 0.7973838065	-0.8235631209	 0.125552
H	-2.0156818692	 0.0060017643	-2.4061103856	 0.105312
H	-3.9819740801	-0.5660147266	-0.0975521675	 0.088618
H	-5.6902465097	 0.469033491	-1.6232809825	 0.111444
H	-4.3812855018	 0.8405204391	-2.8599109482	 0.110062
H	-1.6577596306	-4.4461397536	-2.6780849219	 0.195476
50.2031	74.9882	118.4218	140.8652	175.6121	199.4633	224.8273	290.7383	383.652	416.1543	474.848	518.5357	555.0682	632.7939	645.3077	784.4216	843.7429	860.8077	923.9047	964.6681	1004.7066	1044.6995	1069.9211	1086.0039	1110.3653	1146.0127	1159.5577	1170.4662	1224.637	1231.3694	1261.2799	1296.4546	1311.6422	1347.1218	1362.9091	1445.1145	1451.6778	1472.4253	1520.6395	1533.062	2239.1057	2984.3728	3006.408	3028.0024	3044.7935	3077.1645	3081.8764	3099.3337	3163.267	3505.7802	3838.8611
OCC(CC1CO1)C#C	OC[C@@H](C[C@H]1CO1)C#C	
InChI=1S/C7H10O2/c1-2-6(4-8)3-7-5-9-7/h1,6-8H,3-5H2	InChI=1S/C7H10O2/c1-2-6(4-8)3-7-5-9-7/h1,6-8H,3-5H2/t6-,7+/m1/s1
