16
gdb 28253	4.7246	1.20832	0.9757	0.8246	71.28	-0.1556	0.0712	0.2268	1151.991	0.125961	-437.902265	-437.894289	-437.893345	-437.934731	29.793	
O	 0.2545274492	 1.3025545256	 0.3202892152	-0.438935
C	 0.1782937663	-0.0291867196	 0.0479909482	 0.389658
C	 0.1073204131	-0.7568733055	-1.1153359273	-0.488292
C	-0.0170247378	-2.1326529496	-0.7066549639	 0.197881
C	 0.0000181777	-2.1433030912	 0.6454695154	 0.421868
N	 0.1274100045	-0.8772059937	 1.1452785057	-0.438388
O	-0.0025543549	-3.3350767524	 1.2924513293	-0.294291
C	-0.256694017	-4.2861727241	 0.2094621033	-0.088915
C	 0.0033339281	-3.5676683603	-1.1592839142	-0.369281
H	 0.261267859	 1.7771891281	-0.5160183474	 0.305589
H	 0.1219415642	-0.3500524857	-2.1147951551	 0.086856
H	 0.1042914313	-0.5790359599	 2.1044142085	 0.270395
H	 0.387828046	-5.1497275894	 0.3829702898	 0.117152
H	-1.3036827081	-4.5979619707	 0.2896014529	 0.114526
H	-0.7736442724	-3.8408514417	-1.88180208	 0.107232
H	 0.9665230708	-3.8653659597	-1.5965035003	 0.106944
118.6157	141.1239	153.303	240.1506	286.2758	309.343	361.7858	499.1079	543.2684	629.4711	672.2457	696.8579	715.5119	740.951	822.4868	850.967	929.9612	976.2186	1010.537	1073.1437	1121.7615	1152.328	1176.3482	1200.2737	1236.2827	1261.7023	1294.1979	1370.4072	1391.3799	1491.3401	1497.1736	1511.7289	1546.3547	1604.5203	1667.1539	3000.4672	3038.5972	3055.377	3117.7522	3242.1944	3689.9477	3851.7803
OC1=CC2=C(N1)OCC2	Oc1cc2c([nH]1)OCC2	
InChI=1S/C6H7NO2/c8-5-3-4-1-2-9-6(4)7-5/h3,7-8H,1-2H2	InChI=1S/C6H7NO2/c8-5-3-4-1-2-9-6(4)7-5/h3,7-8H,1-2H2
