18
gdb 92411	2.21161	1.63706	1.29134	1.7805	78.36	-0.2176	0.0231	0.2408	1063.7697	0.146516	-401.860388	-401.851748	-401.850804	-401.89374	32.902	
O	 0.2624099735	 1.1525619819	-0.7184083424	-0.42491
C	 0.1515265176	-0.0920642463	-0.0738898219	 0.046972
C	 0.205328986	-0.1341254924	 1.4775975254	-0.214336
N	-1.1324944046	-0.8052672548	 1.5575103448	-0.166452
C	-2.2353925813	 0.1796384168	 1.8056073202	-0.163572
C	-2.3786416543	 0.5017241668	 0.2977566857	-0.306045
C	-1.3104962634	-0.6011266929	 0.0398381191	 0.166643
C	-1.6931443968	-1.7209346784	-0.7851463398	 0.216546
C	-2.0075548773	-2.6457699152	-1.4874240973	-0.392195
H	 1.1944887604	 1.3442306557	-0.8587439164	 0.29089
H	 0.7957940234	-0.8451115779	-0.5419719071	 0.086426
H	 1.0044096842	-0.7420016458	 1.9117829342	 0.105207
H	 0.2286401801	 0.8646342747	 1.9284481594	 0.101185
H	-3.1076431786	-0.3172866844	 2.2401847613	 0.110825
H	-1.9473612572	 1.008343641	 2.4604200617	 0.1031
H	-3.3536814414	 0.290109236	-0.1415020984	 0.11613
H	-2.0494181047	 1.4940955045	-0.011678093	 0.13264
H	-2.2875785357	-3.4657647994	-2.1012813356	 0.190948
64.461	128.4911	163.9484	179.5425	242.2574	351.1084	380.0807	464.5398	515.4405	532.1518	596.5638	612.0887	645.7898	655.0921	754.9763	811.8412	856.1605	898.3413	922.9813	958.0405	985.3149	1034.0449	1059.2089	1109.2556	1142.8751	1169.0073	1191.4341	1209.9574	1230.0493	1258.0921	1276.4786	1288.6774	1307.3973	1318.8857	1431.7762	1482.4766	1489.0874	1512.4376	2228.9724	3030.6788	3035.1599	3042.7417	3086.7407	3089.326	3089.9106	3149.6293	3501.179	3828.2595
OC1CN2CCC12C#C	O[C@H]1CN2CC[C@@]12C#C	
InChI=1S/C7H9NO/c1-2-7-3-4-8(7)5-6(7)9/h1,6,9H,3-5H2	InChI=1S/C7H9NO/c1-2-7-3-4-8(7)5-6(7)9/h1,6,9H,3-5H2/t6-,7-/m0/s1
