17
gdb 124890	3.71086	1.25046	1.02457	2.6956	74.62	-0.234	0.0139	0.2479	1154.034	0.137098	-418.008914	-418.000919	-417.999975	-418.041998	30.05	
C	-0.3070713076	 1.3457601828	-0.7452683103	-0.486438
C	-0.0426290158	 0.0223374739	-0.0582929515	 0.293726
C	 1.1044364313	-0.8057969928	-0.4894915516	-0.212157
O	 1.1652256451	-0.0386626981	 0.7119899409	-0.261184
C	-1.1971690768	-0.6412527543	 0.597714005	 0.356281
C	-1.2513052301	-1.4942205813	 1.6840745689	-0.308316
C	-2.6190856136	-1.8020438041	 1.8307531657	-0.007948
N	-3.3699073559	-1.1947913621	 0.9156629541	-0.225155
N	-2.4835501718	-0.4936791363	 0.1809606139	-0.283657
H	 0.6299400485	 1.7636190634	-1.1192680526	 0.138629
H	-0.9856605436	 1.2242653244	-1.5975605545	 0.118761
H	-0.7533878901	 2.0631442895	-0.0499330039	 0.141142
H	 1.0598519685	-1.8847490014	-0.3545392159	 0.122144
H	 1.7424935006	-0.4569410909	-1.3013408993	 0.115101
H	-0.4167821943	-1.81574566	 2.2842422423	 0.116945
H	-3.0880971329	-2.4364686401	 2.5686006689	 0.112161
H	-2.8223124315	 0.0566704773	-0.5894518401	 0.269966
43.4669	153.9779	185.1409	213.2248	323.5313	357.542	415.8802	466.4213	517.9911	561.1212	683.5116	713.3077	807.9599	820.4796	868.4582	899.8893	922.8515	939.1992	1005.3718	1024.6856	1055.432	1097.8901	1132.2657	1138.6845	1162.0124	1175.5235	1270.768	1292.8606	1365.6227	1375.4015	1413.6518	1442.5983	1485.2379	1488.784	1502.3265	1523.8996	1604.4019	3035.2242	3080.1574	3100.9653	3132.4413	3175.0032	3245.6618	3281.3984	3676.8948
CC1(CO1)C1=CC=NN1	C[C@]1(CO1)c1ccn[nH]1	
InChI=1S/C6H8N2O/c1-6(4-9-6)5-2-3-7-8-5/h2-3H,4H2,1H3,(H,7,8)	InChI=1S/C6H8N2O/c1-6(4-9-6)5-2-3-7-8-5/h2-3H,4H2,1H3,(H,7,8)/t6-/m0/s1
