16
gdb 25574	4.11402	0.9807	0.84393	2.9778	72.71	-0.1932	-0.0335	0.1597	1318.1497	0.123889	-437.910798	-437.902464	-437.901519	-437.944891	30.282	
O	-0.6415685716	 1.3156594238	-1.2625503376	-0.233596
C	 0.0610893483	 2.0581591496	-0.6306983508	 0.140166
C	 1.3500507385	 1.6104684522	 0.0509107079	-0.174055
O	 2.129933304	 2.7054716188	 0.4887831859	-0.266723
C	 2.7388964798	 3.3926586956	-0.5117591758	 0.403929
C	 2.7822010191	 3.2446998713	-1.879837509	-0.288947
C	 3.6087899231	 4.3070843332	-2.3677216805	-0.140673
C	 4.0304739654	 5.0456475978	-1.2952160334	-0.09206
N	 3.4884033013	 4.4761710809	-0.1569164711	-0.327942
H	-0.1943462917	 3.1267681168	-0.4559034411	 0.099669
H	 1.0821352204	 1.0469066035	 0.951026525	 0.147004
H	 1.9146312922	 0.945592958	-0.6153855958	 0.141782
H	 2.29280315	 2.4844904623	-2.4657121892	 0.109394
H	 3.857267923	 4.4933686114	-3.4009343723	 0.097632
H	 4.6594438686	 5.9175222122	-1.2286353144	 0.11922
H	 3.6165263595	 4.7857616527	 0.7904824021	 0.265201
50.1198	58.3536	139.3795	226.4651	278.5787	342.9647	413.211	436.2367	603.0404	623.4883	643.0552	646.657	700.793	746.1815	760.7115	837.3665	890.5692	980.4413	1027.5275	1052.4264	1096.097	1105.8439	1122.3635	1147.2196	1255.6329	1284.6318	1296.7148	1346.5976	1405.0713	1419.3524	1456.4591	1497.5619	1530.9583	1618.1818	1838.8009	2897.6629	3029.2727	3089.4761	3249.8847	3268.0381	3280.7736	3686.7506
O=CCOC1=CC=CN1	O=CCOc1ccc[nH]1	
InChI=1S/C6H7NO2/c8-4-5-9-6-2-1-3-7-6/h1-4,7H,5H2	InChI=1S/C6H7NO2/c8-4-5-9-6-2-1-3-7-6/h1-4,7H,5H2
