12
gdb 130811	8.28305	0.6802	0.62859	5.9568	78.91	-0.266	-0.0792	0.1868	1618.4958	0.078753	-431.663413	-431.655767	-431.654823	-431.697055	25.822	
O	-0.0936935741	-0.014275104	-0.0007848646	-0.226268
C	 0.0070270451	 1.1914763216	 0.0071429224	-0.000167
C	 1.2566679482	 1.9050509022	-0.0009568004	 0.220228
C	 2.2859541584	 2.5385492929	-0.0071746247	 0.009665
C	 3.4881277313	 3.2825475163	-0.0144946023	 0.146824
N	 4.6871382167	 2.6953557896	-0.03208585	-0.245648
N	 5.515032534	 3.7524845801	-0.0329550931	-0.171481
C	 4.8146913773	 4.9100285271	-0.0163492745	-0.00639
N	 3.526311033	 4.6551349748	-0.0042361094	-0.285754
H	-0.8846747345	 1.8499997161	 0.02193903	 0.105531
H	 6.5119753296	 3.6043557098	-0.0449979813	 0.29489
H	 5.2796494951	 5.8842383036	-0.0138681121	 0.158571
56.8191	74.9406	110.2952	206.3088	267.058	419.2921	517.7666	526.0126	586.4489	683.4899	711.1909	783.0573	861.4424	963.2254	998.4786	1019.0007	1055.9305	1116.2444	1166.5985	1297.9054	1329.2118	1420.1695	1456.0287	1479.8099	1528.3064	1762.0211	2328.68	2925.5624	3264.2841	3652.8029
O=CC#CC1=NNC=N1	O=CC#Cc1n[nH]cn1	
InChI=1S/C5H3N3O/c9-3-1-2-5-6-4-7-8-5/h3-4H,(H,6,7,8)	InChI=1S/C5H3N3O/c9-3-1-2-5-6-4-7-8-5/h3-4H,(H,6,7,8)
