16
gdb 25994	4.71229	0.99532	0.826	2.3258	75.22	-0.213	-0.0066	0.2064	1318.13	0.125919	-434.101533	-434.093498	-434.092554	-434.134905	29.778	
C	 1.4263784367	-0.4600277949	 0.1275522699	-0.454222
C	 0.0299010955	 0.1009076394	 0.1056457237	 0.396445
N	-0.1351301611	 1.3667962875	 0.167678673	-0.520718
N	-1.0134021689	-0.8127985089	 0.0171896905	-0.447026
C	-1.0154561406	-2.1945462179	-0.0560000054	 0.325704
C	-0.0492776367	-3.1559840911	-0.0708747749	-0.11294
O	-0.6890733948	-4.3747450384	-0.1594420842	-0.14283
C	-1.9931716778	-4.0726492935	-0.1922070112	 0.091303
N	-2.2612051362	-2.8085946955	-0.1351778141	-0.323771
H	 2.1242636027	 0.3724376767	 0.197977155	 0.15308
H	 1.5712016771	-1.125730902	 0.9849175017	 0.139025
H	 1.6368571782	-1.0312759432	-0.7827231013	 0.139022
H	-1.1256320498	 1.6210602825	 0.1443440986	 0.198276
H	-1.9469194925	-0.4277647428	 0.0038976262	 0.253814
H	 1.0213100641	-3.1848102355	-0.032495174	 0.147026
H	-2.6889128659	-4.8939305323	-0.2617709435	 0.157812
55.2274	78.6878	181.4757	270.2043	327.5514	330.284	419.9292	529.4412	545.6043	563.8661	630.0191	671.2346	730.5651	770.3476	851.4665	871.5674	888.4295	946.4711	1024.9627	1038.3918	1076.789	1088.5517	1156.6717	1172.5079	1234.1561	1276.8508	1352.8009	1374.0059	1424.4161	1481.6853	1487.6254	1496.3017	1572.7381	1654.9114	1721.107	3042.0393	3102.1206	3169.495	3278.3315	3338.2234	3435.9409	3609.1067
CC(=N)NC1=COC=N1	CC(=N)Nc1cocn1	
InChI=1S/C5H7N3O/c1-4(6)8-5-2-9-3-7-5/h2-3H,1H3,(H2,6,8)	InChI=1S/C5H7N3O/c1-4(6)8-5-2-9-3-7-5/h2-3H,1H3,(H2,6,8)
