21
gdb 103950	3.62036	1.0214	0.95741	2.4474	79.19	-0.2514	0.0754	0.3268	1327.0866	0.179871	-424.187422	-424.177995	-424.17705	-424.221483	35.757	
C	-0.1597579879	 1.6119935996	-0.2545625292	-0.253349
O	-0.3383781036	 0.2127951636	-0.2126214299	-0.287514
C	 0.6092328018	-0.5478741747	-0.9336239491	 0.432266
C	 0.5338221005	-0.3123827689	-2.4408871745	-0.45063
C	 2.0760975803	-0.5316028482	-0.3694453028	-0.380811
C	 2.0206834943	-2.0590359662	-0.381601807	 0.478742
C	 2.9991134352	-3.0087630262	-0.9139574148	-0.271084
O	 2.7409592051	-2.9026892254	 0.4944706598	-0.273013
C	 0.5016022761	-2.0493712949	-0.5411719936	-0.372326
H	 0.8532364808	 1.9067494341	 0.057540563	 0.107622
H	-0.3516773196	 2.0345032158	-1.2507551395	 0.108169
H	-0.8786512129	 2.0424788745	 0.4468442116	 0.128472
H	 0.8322521351	 0.7051938207	-2.71096336	 0.117298
H	 1.2021553716	-1.0006970149	-2.9673829259	 0.119592
H	-0.4867229925	-0.4821366551	-2.7984590833	 0.124346
H	 2.8536926631	-0.040728273	-0.9597153559	 0.099911
H	 2.0937085119	-0.1499568011	 0.6553412561	 0.118535
H	 2.6610965995	-3.933648737	-1.3805377859	 0.114395
H	 3.9792297522	-2.6570368776	-1.2351076237	 0.113442
H	-0.0019292671	-2.1477066204	 0.4237147543	 0.124068
H	 0.0498730361	-2.731275935	-1.26541769	 0.101869
67.2668	103.3744	183.628	213.6906	248.84	290.1345	316.8232	343.3823	348.727	365.6005	436.239	496.4901	561.7921	695.7872	813.2915	848.372	864.3462	873.6878	914.3737	922.911	945.6227	980.3017	1051.9691	1103.3677	1125.5287	1136.357	1148.2256	1153.6334	1182.4861	1197.1885	1208.292	1217.8386	1244.3935	1279.6215	1294.1054	1403.0833	1435.3983	1454.8441	1475.3595	1481.2733	1484.6088	1492.2232	1506.5769	1510.9219	1537.9397	2987.1533	3033.6654	3040.1324	3056.8669	3065.4416	3075.8153	3106.8308	3111.0264	3113.2768	3117.0394	3124.7576	3162.151
COC1(C)CC2(CO2)C1	CO[C@@]1(C)C[C@]2(CO2)C1	
InChI=1S/C7H12O2/c1-6(8-2)3-7(4-6)5-9-7/h3-5H2,1-2H3	InChI=1S/C7H12O2/c1-6(8-2)3-7(4-6)5-9-7/h3-5H2,1-2H3/t6-,7+
