19
gdb 81272	2.62217	1.47059	1.24736	2.9095	75.09	-0.2288	-0.0171	0.2118	1099.8712	0.15897	-423.024544	-423.016236	-423.015291	-423.05714	31.951	
C	-0.0433458475	 1.5795361146	 0.0659287837	-0.426706
C	-0.0194031842	 0.0583492964	 0.06218881	 0.007962
C	 0.8267902466	-0.5994767062	-1.0630488226	 0.050371
O	 2.0310084192	-0.3457434293	-0.2621537103	-0.300929
C	 1.1416360136	-0.5882551603	 0.8757888062	-0.058997
C	 0.8476750381	-2.0816500625	 0.6736793427	 0.443406
O	 0.7424846029	-2.9676151883	 1.4755510943	-0.334329
C	 0.6658701569	-2.1235349838	-0.8655589688	-0.104558
C	-0.6170750193	-2.8091804014	-1.3276566382	-0.421807
H	 0.9621114119	 1.9821182705	-0.0781185259	 0.140818
H	-0.6842584369	 1.9559128719	-0.7386862017	 0.119721
H	-0.4389252826	 1.9621785987	 1.0120947749	 0.122122
H	-1.0185590888	-0.3578379204	 0.2284572598	 0.083465
H	 0.8752023736	-0.1992466399	-2.0765005342	 0.08487
H	 1.4991388335	-0.2329638701	 1.8405677811	 0.096484
H	 1.5375235581	-2.6210938173	-1.3055505198	 0.112511
H	-1.5115733572	-2.2901086327	-0.9696414718	 0.12107
H	-0.6687673772	-2.8567756034	-2.4197303103	 0.120368
H	-0.6507826007	-3.8309489965	-0.9388205291	 0.14416
122.7469	177.6385	191.0289	218.9797	238.2076	260.938	315.2381	452.7283	507.4994	537.6905	622.9268	706.3593	760.7797	800.2192	847.9016	867.8494	883.8154	926.3998	965.047	1019.9614	1055.2494	1065.7363	1074.3118	1111.5014	1113.8039	1156.882	1181.5257	1220.1279	1233.6536	1242.3701	1282.7508	1302.7993	1338.2825	1390.4524	1406.8533	1410.1092	1494.219	1497.7438	1499.0571	1504.5334	1877.411	3037.4703	3039.098	3051.1196	3055.1244	3099.5105	3108.0037	3114.0134	3116.17	3128.7593	3147.3789
CC1C2OC1C(=O)C2C	C[C@H]1[C@H]2O[C@@H]1C(=O)[C@H]2C	
InChI=1S/C7H10O2/c1-3-5(8)7-4(2)6(3)9-7/h3-4,6-7H,1-2H3	InChI=1S/C7H10O2/c1-3-5(8)7-4(2)6(3)9-7/h3-4,6-7H,1-2H3/t3-,4+,6+,7+/m1/s1
