21
gdb 75474	2.80825	1.18776	0.91606	0.4884	90.58	-0.2258	0.0299	0.2556	1327.0641	0.181763	-349.944457	-349.934978	-349.934034	-349.978925	35.706	
C	-0.5922695735	 1.4509108305	-0.1052949665	-0.497263
C	-0.1746945065	 0.0137758709	-0.0455671118	 0.33529
C	 0.2154770338	-0.7434872008	-1.0741618218	-0.158555
C	 0.5556091943	-2.1570732141	-0.6759764232	-0.249652
C	-0.0064664091	-2.2437085417	 0.7646824245	-0.230401
C	-0.1341184902	-0.7765654057	 1.257559882	-0.083743
C	 1.0557381475	-0.3812969553	 2.1813916076	-0.361524
C	 0.9379350264	 0.9249526059	 2.8181061156	 0.304768
C	 0.8315133592	 1.9891492123	 3.3684335796	-0.446866
H	 0.0560355608	 2.0848951697	 0.5080082889	 0.142855
H	-0.5747826004	 1.8251586044	-1.1328793375	 0.114518
H	-1.6087690377	 1.5807425157	 0.2880564137	 0.120854
H	 0.3012209124	-0.3871670916	-2.0959830527	 0.081653
H	 0.1086322053	-2.9060756232	-1.3397724235	 0.100912
H	 1.6405967367	-2.3321629444	-0.7099975973	 0.102064
H	-1.0013474388	-2.6981504882	 0.7374203907	 0.102341
H	 0.6088997543	-2.8588051578	 1.4282116394	 0.09108
H	-1.052166438	-0.6332738363	 1.8400596973	 0.078602
H	 1.1425977673	-1.141222162	 2.9686845251	 0.128992
H	 1.9882161661	-0.4281598634	 1.6041470589	 0.130317
H	 0.74224173	 2.9312449752	 3.8497486411	 0.193755
51.8108	100.7483	145.1016	180.0588	229.6431	257.4014	303.3249	342.3204	369.1375	457.5358	582.4681	605.8549	610.9884	630.7988	685.9955	796.9417	815.1794	847.1894	913.5479	933.7939	946.1361	988.0886	1002.7941	1038.4115	1050.6835	1066.3355	1086.5139	1164.0809	1180.2054	1219.4057	1245.9955	1271.9214	1293.7509	1323.5236	1330.0736	1358.1236	1372.2238	1416.3404	1468.0704	1477.335	1485.0003	1490.5102	1502.4397	1719.5513	2232.3849	3002.5251	3015.8448	3022.4506	3027.6456	3044.866	3052.5731	3058.279	3080.5854	3092.675	3112.2199	3179.5815	3505.7549
CC1=CCCC1CC#C	CC1=CCC[C@H]1CC#C	
InChI=1S/C9H12/c1-3-5-9-7-4-6-8(9)2/h1,6,9H,4-5,7H2,2H3	InChI=1S/C9H12/c1-3-5-9-7-4-6-8(9)2/h1,6,9H,4-5,7H2,2H3/t9-/m1/s1
