18
gdb 53605	3.64348	0.8265	0.70165	2.2005	81.66	-0.2435	0.0257	0.2692	1605.466	0.146371	-401.923113	-401.913449	-401.912505	-401.959811	33.246	
C	-0.0493856776	 1.5221457415	 0.0308372182	-0.497756
C	-0.0085235639	 0.0687044761	-0.0331971551	 0.095625
C	 0.0229050852	-1.1336146239	-0.0693225453	 0.061557
C	 0.0345373893	-2.5898725942	-0.1218130468	-0.377009
C	-1.3659906756	-3.2122787079	 0.0002629365	-0.119383
C	-1.4445114661	-4.7526013235	 0.0804957259	-0.10833
O	-2.0456978509	-4.6621886722	 1.4077978824	-0.253406
C	-1.9826582552	-3.2804540122	 1.3881710915	 0.437541
N	-2.3244100844	-2.4403832819	 2.2516780713	-0.531829
H	 0.8890997349	 1.9290288896	 0.4233777788	 0.147024
H	-0.2132917348	 1.9632188089	-0.9586408901	 0.144163
H	-0.8583079482	 1.8635537553	 0.6859007492	 0.155215
H	 0.4758131937	-2.9247572926	-1.0705165046	 0.128603
H	 0.6762391211	-2.9923106677	 0.6729943231	 0.132799
H	-2.0386509065	-2.7711443479	-0.7385172936	 0.118181
H	-2.1175790294	-5.2473798014	-0.6235767115	 0.120818
H	-0.4851017678	-5.2768095758	 0.120966028	 0.118522
H	-2.7000692438	-2.8974103503	 3.0847639317	 0.227666
26.7334	46.4868	71.876	131.6159	181.9427	232.1523	291.7688	321.03	380.2391	457.2718	464.0981	659.1447	741.7148	773.2997	804.4494	865.8776	890.7298	969.1074	993.1551	1014.7303	1051.6994	1054.9993	1074.5257	1120.3697	1160.6468	1172.0379	1195.5085	1230.479	1259.3182	1314.3802	1362.1892	1378.3207	1414.2863	1472.445	1477.9397	1479.045	1516.014	1825.9211	2379.4975	3009.4523	3027.2522	3040.9598	3055.4033	3086.8184	3090.3429	3093.2539	3116.2256	3472.6579
CC#CCC1COC1=N	CC#CC[C@H]1CO[C]1[NH]	
InChI=1S/C7H9NO/c1-2-3-4-6-5-9-7(6)8/h6,8H,4-5H2,1H3	InChI=1S/C7H9NO/c1-2-3-4-6-5-9-7(6)8/h6,8H,4-5H2,1H3/t6-/m0/s1
