21
gdb 94613	3.59818	0.88107	0.7809	2.5639	79.09	-0.2437	0.0795	0.3231	1521.539	0.1815	-424.185158	-424.175686	-424.174742	-424.22289	33.803	
C	-0.2363695211	 1.5484369438	-0.184753417	-0.409345
C	-0.026497003	 0.0512197145	-0.0027003329	-0.054858
C	 1.2257402385	-0.5752839538	-0.6556920279	-0.074529
O	 1.7187282044	-1.0476193363	 0.613544808	-0.299301
C	 0.5836064816	-0.4896914032	 1.3231777855	 0.145855
C	 1.0215303643	 0.4803664203	 2.4135245038	-0.24994
C	 1.7932681061	-0.2373148981	 3.4960043966	 0.100998
C	 1.7277547506	 0.165585425	 4.9047494478	-0.181977
O	 1.0134886652	-0.981309815	 4.4407808283	-0.240648
H	 0.6730114192	 2.1189397239	 0.0286830207	 0.12055
H	-0.5263422003	 1.7686576083	-1.2178585845	 0.118189
H	-1.0317686289	 1.9254156831	 0.4668497973	 0.120429
H	-0.9451398096	-0.4799550032	-0.2654685366	 0.082103
H	 1.0437428514	-1.3984459674	-1.3575183409	 0.100258
H	 1.9160617545	 0.1401335116	-1.1232815552	 0.095205
H	-0.0115735649	-1.2904460932	 1.7818100729	 0.089512
H	 1.6535541064	 1.2653853293	 1.9821941106	 0.101521
H	 0.1398353604	 0.9584309816	 2.8567178282	 0.102383
H	 2.6853132307	-0.7604847768	 3.1516554977	 0.111317
H	 2.5650031351	-0.0408413122	 5.5702549648	 0.113663
H	 1.1102047792	 1.017027138	 5.1902835627	 0.108614
4.2066	66.587	82.3667	130.3896	208.2953	243.2274	330.6653	350.5023	408.9673	487.0751	501.5775	729.2274	793.431	824.9151	859.0079	887.7902	910.8429	929.0237	963.4121	976.6619	1018.0474	1043.3533	1090.8563	1113.8837	1130.6134	1147.65	1157.9934	1160.2409	1174.9841	1189.7278	1239.9354	1263.7232	1287.1541	1296.0828	1311.2392	1358.1944	1384.3713	1401.7889	1415.7005	1442.1903	1455.5299	1497.5696	1500.895	1527.1219	1530.0327	3002.2639	3015.0211	3030.3961	3035.254	3044.0601	3069.7296	3077.9639	3080.5263	3096.2016	3107.3369	3119.9	3163.6824
CC1COC1CC1CO1	C[C@H]1CO[C@H]1C[C@H]1CO1	
InChI=1S/C7H12O2/c1-5-3-9-7(5)2-6-4-8-6/h5-7H,2-4H2,1H3	InChI=1S/C7H12O2/c1-5-3-9-7(5)2-6-4-8-6/h5-7H,2-4H2,1H3/t5-,6-,7-/m0/s1
