19
gdb 17579	2.65035	2.40279	1.83351	1.2696	75.42	-0.2252	0.0984	0.3236	846.5933	0.165652	-327.874141	-327.866476	-327.865531	-327.905397	30.279	
C	-0.0130781531	 1.5172840719	 0.0572155467	-0.495087
C	-0.0232993744	 0.0160207497	 0.0196213125	 0.325081
C	 1.1684173216	-0.8344918209	-0.3566045174	-0.390662
C	 0.5908999407	-0.9879227852	 1.0319242051	 0.325085
C	 1.3467328715	-0.705500504	 2.2985205157	-0.495089
C	-0.6775948914	-1.8061920715	 0.9410435378	-0.123153
N	-1.805553776	-0.9274741256	 1.3556345349	-0.343544
C	-1.266524897	-0.8435608665	-0.0295530974	-0.12316
H	 0.9559761846	 1.90218079	 0.3920069609	 0.113873
H	-0.2082164337	 1.9447348916	-0.933932367	 0.11503
H	-0.7802487007	 1.8886637421	 0.7441341193	 0.133197
H	 1.0743429489	-1.6317807894	-1.0902206224	 0.098838
H	 2.1161289731	-0.3046300522	-0.4061169525	 0.107012
H	 2.0366391049	 0.1357077405	 2.1732324731	 0.113873
H	 0.6553089898	-0.4579846692	 3.1103076223	 0.1332
H	 1.9428320904	-1.571440947	 2.6115377762	 0.11503
H	-0.7791494288	-2.8856491829	 0.9701479561	 0.085776
H	-2.6551534402	-1.4938495339	 1.3094556528	 0.218923
H	-1.9037343402	-1.0474741776	-0.8832341165	 0.085776
180.2941	204.3921	208.2067	218.0073	235.4876	375.3801	412.3005	491.1798	588.0673	603.0963	686.2266	761.7907	805.727	831.1293	850.2284	925.9396	932.8264	963.0465	985.9842	996.9363	1045.1362	1070.5864	1073.5123	1093.4432	1137.8197	1138.3179	1195.6174	1218.5314	1260.7449	1306.0493	1343.6502	1365.1588	1398.9399	1412.8887	1425.2249	1484.8325	1491.8191	1497.2616	1499.8293	1506.0559	3022.1538	3023.9562	3081.3978	3083.0314	3101.7355	3102.6492	3105.158	3164.1497	3177.2168	3186.9515	3442.8983
CC12CC1(C)C1NC21	C[C@@]12C[C@]1(C)[C@H]1N[C@@H]21	
InChI=1S/C7H11N/c1-6-3-7(6,2)5-4(6)8-5/h4-5,8H,3H2,1-2H3	InChI=1S/C7H11N/c1-6-3-7(6,2)5-4(6)8-5/h4-5,8H,3H2,1-2H3/t4-,5+,6+,7-
