13
gdb 21327	6.06491	1.39659	1.14362	3.477	63.23	-0.2523	0.0087	0.261	957.3764	0.098078	-357.677877	-357.671008	-357.670064	-357.711234	24.187	
N	-0.3598365628	-0.4987645489	-1.4285514084	-0.303336
C	-0.187479828	 0.282247117	-0.5948976425	 0.269306
C	 0.0770090018	 1.2848949038	 0.436541942	-0.46148
C	 1.4481692675	 1.8951848211	 0.3079581005	 0.392774
C	 2.1061332026	 2.8138817126	 1.1017371082	-0.310117
C	 3.3508098993	 3.0026542411	 0.4653071539	 0.003287
N	 3.4649689926	 2.2639719851	-0.6347828768	-0.224937
N	 2.2962730827	 1.6021612512	-0.7086495528	-0.241466
H	-0.6979940912	 2.0584285713	 0.3710079179	 0.17954
H	-0.0403734272	 0.8121500294	 1.418733426	 0.179429
H	 1.7389817862	 3.2759019579	 2.0039948268	 0.108263
H	 4.1654648159	 3.6450479648	 0.7654284165	 0.118969
H	 2.1352869305	 0.9574970337	-1.4670206713	 0.289769
8.3714	122.378	236.3267	329.1497	371.8047	496.5173	564.8154	649.7493	698.2775	726.6107	800.117	897.5051	938.5047	946.9619	951.3544	1034.2903	1064.0457	1138.1298	1217.8045	1237.1376	1288.095	1315.5476	1373.9145	1444.7378	1461.6044	1505.9736	1598.7602	2366.0049	3036.7417	3067.315	3247.3587	3268.6586	3646.6121
N#CCC1=CC=NN1	N#CCc1ccn[nH]1	
InChI=1S/C5H5N3/c6-3-1-5-2-4-7-8-5/h2,4H,1H2,(H,7,8)	InChI=1S/C5H5N3/c6-3-1-5-2-4-7-8-5/h2,4H,1H2,(H,7,8)
