16
gdb 79660	2.80712	1.5387	1.2309	5.0607	74.68	-0.2297	-0.0012	0.2285	1030.011	0.123736	-396.822839	-396.814934	-396.813989	-396.855245	30.016	
C	-0.2448004188	 1.5352156108	-0.0405920052	-0.298887
N	 0.1829082809	 0.1374695038	 0.0635837229	-0.114065
C	 1.4030145029	-0.4965323211	-0.2974533578	-0.109041
C	 2.7161391949	 0.1871399895	 0.2297455633	-0.072983
N	 2.3442481629	 1.4458034413	 0.9198631375	-0.335489
C	 2.2115513775	 0.1500317341	 1.612090256	-0.12472
C	 0.8672957217	-0.5301948452	 1.129925416	 0.192463
C	 0.248086095	-1.5910478623	 1.8626549667	 0.226309
N	-0.2189356218	-2.4450378335	 2.4887685101	-0.346971
H	 0.4004085797	 2.0932672314	-0.7204821599	 0.135502
H	-1.2713913352	 1.5480625476	-0.4233802592	 0.117359
H	-0.2179912428	 2.031231231	 0.9302697144	 0.138054
H	 1.4062275632	-1.2996284152	-1.0271324733	 0.12368
H	 3.7117936193	 0.0051961199	-0.1500199514	 0.110387
H	 3.2058304558	 1.8795720972	 1.2502763778	 0.242123
H	 2.7166665147	-0.0807930092	 2.5397074821	 0.11628
110.1728	134.9373	160.4599	232.2006	267.2129	395.7716	443.717	478.9794	542.2727	601.9641	675.8146	729.9897	745.3399	813.0618	824.3306	890.8103	912.8465	940.0947	963.3181	1005.3807	1029.158	1082.8913	1100.1247	1139.1893	1172.7667	1182.0853	1228.9761	1278.4247	1294.5036	1347.453	1420.278	1457.5337	1485.0025	1501.0964	2347.0697	3034.2166	3113.1591	3148.9708	3169.7654	3210.6476	3223.3833	3478.6667
CN1C2C3NC3C12C#N	CN1[C@H]2[C@H]3N[C@H]3[C@@]12C#N	
InChI=1S/C6H7N3/c1-9-5-3-4(8-3)6(5,9)2-7/h3-5,8H,1H3	InChI=1S/C6H7N3/c1-9-5-3-4(8-3)6(5,9)2-7/h3-5,8H,1H3/t3-,4+,5-,6+,9?/m0/s1
