19
gdb 51258	4.7156	0.89648	0.82665	2.5966	82.73	-0.2277	-0.0268	0.2009	1402.7466	0.159251	-385.900276	-385.891943	-385.890999	-385.934546	31.154	
O	 0.2668105603	-0.1874871127	-0.2604996257	-0.235678
C	 0.12316611	 1.0026300641	-0.1631286478	 0.16183
C	 1.2557170118	 2.0118745378	-0.0278469866	-0.377303
C	 1.2357326571	 2.9924159114	-1.1668064391	 0.288755
C	 0.914608393	 4.2907039982	-1.109326417	-0.185605
C	 1.0625975167	 4.9688391079	-2.427239207	-0.062264
C	 2.4750033734	 4.9891872105	-2.9825026229	-0.275084
C	 1.5374265711	 3.8793993496	-3.3784612689	-0.035864
C	 1.5864131808	 2.5733268254	-2.5875907618	-0.314154
H	-0.8894687786	 1.4680892635	-0.1811077534	 0.078116
H	 1.1118539319	 2.5437479468	 0.9215855662	 0.120321
H	 2.1974956197	 1.4549248736	 0.0215752909	 0.122471
H	 0.6249415982	 4.816762191	-0.2056231328	 0.091347
H	 0.3677024037	 5.7464054937	-2.7243329245	 0.087354
H	 2.7039451706	 5.7305100417	-3.7412391651	 0.110609
H	 3.2897616911	 4.7744775557	-2.2979098921	 0.11045
H	 1.1932012139	 3.8524602543	-4.4052645324	 0.087636
H	 2.5698350028	 2.0869907027	-2.6360473071	 0.113301
H	 0.8670227524	 1.8384577349	-2.9746001429	 0.113762
40.4104	51.7057	133.2364	231.9018	303.9318	338.8858	453.0703	473.1353	500.3046	623.9564	693.3189	787.1731	807.5053	818.4815	861.2661	879.6923	897.857	938.5169	976.4143	1006.1998	1023.5554	1048.1358	1063.2046	1071.7351	1094.1703	1105.2926	1168.5012	1184.4665	1206.3428	1217.3151	1283.964	1296.0065	1325.8259	1358.7395	1379.4472	1417.9601	1456.842	1473.3834	1485.0173	1693.5941	1834.341	2867.5954	3011.0908	3025.2153	3038.6321	3085.9913	3121.8594	3167.6215	3180.8574	3187.6664	3211.585
O=CCC1=CC2CC2C1	O=CCC1=C[C@H]2C[C@H]2C1	
InChI=1S/C8H10O/c9-2-1-6-3-7-5-8(7)4-6/h2-3,7-8H,1,4-5H2	InChI=1S/C8H10O/c9-2-1-6-3-7-5-8(7)4-6/h2-3,7-8H,1,4-5H2/t7-,8+/m0/s1
