17
gdb 19591	3.00862	2.89403	2.08912	1.5634	66.95	-0.2054	0.0797	0.2851	726.5391	0.143495	-363.784421	-363.77803	-363.777086	-363.814762	25.727	
C	-0.0359573643	 1.5440947402	-0.0410295053	-0.31516
N	-0.0451979904	 0.0829562745	 0.0399995415	-0.045756
C	-1.1859013798	-0.7164877575	 0.5363021839	-0.069961
C	-0.1641769686	-1.9007558418	 0.5921231674	-0.214837
C	 0.7552254036	-0.7028611319	 1.0035592753	-0.069961
C	 0.1410622358	-0.3929539976	 2.4064350078	 0.029229
O	-0.633563067	 0.8121660806	 2.4629995435	-0.241913
C	-1.2815363399	-0.4029433797	 2.0639961673	 0.029229
H	 0.7014428723	 1.9840341718	 0.6358221631	 0.123184
H	 0.2087087825	 1.8489002553	-1.0668639574	 0.100037
H	-1.0062639889	 1.9720827714	 0.224984758	 0.123188
H	-2.1010416412	-0.7405091713	-0.056003977	 0.071735
H	-0.3372556722	-2.6842244756	 1.3339930462	 0.094316
H	 0.0749665821	-2.3090184898	-0.3894538203	 0.111876
H	 1.8398818667	-0.7128428218	 0.8926267847	 0.071735
H	 0.5688287639	-0.7452162609	 3.3393379465	 0.101529
H	-2.0822385445	-0.7638284159	 2.7011917651	 0.101529
97.8032	262.0734	273.9112	396.8382	450.8759	505.3954	687.589	712.4997	721.3614	793.2937	813.4649	849.377	878.6438	892.1417	902.149	966.4573	971.5878	1036.5374	1055.7746	1062.8261	1100.0465	1126.3263	1133.4655	1214.391	1218.876	1222.8073	1228.9822	1249.7507	1269.4069	1276.2728	1305.9306	1390.4647	1448.5041	1480.2207	1488.916	1509.2268	3010.5539	3071.9623	3077.8547	3110.8264	3113.783	3114.5239	3152.5363	3163.9094	3176.8243
CN1C2CC1C1OC21	CN1[C@H]2C[C@@H]1[C@H]1O[C@@H]21	
InChI=1S/C6H9NO/c1-7-3-2-4(7)6-5(3)8-6/h3-6H,2H2,1H3	InChI=1S/C6H9NO/c1-7-3-2-4(7)6-5(3)8-6/h3-6H,2H2,1H3/t3-,4+,5-,6+
