18
gdb 115703	2.51101	1.229	1.02458	4.324	68.18	-0.2576	0.0156	0.2732	1205.2316	0.148627	-476.224939	-476.216241	-476.215296	-476.25873	31.918	
O	-0.5205060089	 1.6530046578	-0.082436096	-0.428769
C	-0.2899496543	 0.358155416	 0.4563374416	-0.115242
C	-1.4120403895	-0.5200944893	-0.0558277352	 0.069329
N	-1.3751598539	-0.8898620137	-1.4966358872	-0.341676
H	-1.8222232092	-0.2480562315	-2.1425280229	 0.237474
H	 0.2817394477	-1.8720005795	-1.2733685795	 0.309022
C	-2.0893362442	-2.152885453	-1.1747297786	-0.187611
C	-1.4921167774	-2.0470343835	 0.2602404098	-0.189144
C	-0.1325993641	-2.7313499264	 0.3742167499	 0.426859
O	 0.7166476639	-2.4946252612	-0.6489590016	-0.3833
O	 0.1752022287	-3.4383735121	 1.2954512588	-0.335086
H	 0.2341189239	 2.2087914715	 0.132163754	 0.294031
H	 0.6832437734	-0.0420293992	 0.1445436421	 0.108629
H	-0.3179408334	 0.3634124727	 1.5580994936	 0.101072
H	-2.3666036497	-0.047798451	 0.2197542487	 0.092202
H	-3.1823438903	-2.0545963286	-1.157102046	 0.111691
H	-1.8074059714	-3.0128824607	-1.7878042433	 0.125526
H	-2.1094382612	-2.3560668482	 1.1000104818	 0.104994
82.2005	103.6141	151.5746	199.2115	237.7088	252.7828	306.3871	401.4006	457.4254	480.4554	611.0253	730.3626	781.7818	811.3703	838.8186	874.2367	898.6368	973.4349	1004.6276	1023.3725	1055.929	1068.4675	1088.1048	1124.7517	1159.9723	1190.8918	1219.9939	1248.0129	1266.0233	1276.902	1316.5068	1346.8627	1357.3219	1393.6813	1439.6076	1471.8044	1518.2712	1523.4168	1862.7645	2977.0557	2996.7201	3020.1372	3042.9666	3094.9323	3152.8362	3438.118	3531.4216	3835.6281
OCC1[NH2+]CC1C([O-])=O	OC[C@H]1NC[C@H]1C(=O)O	
InChI=1S/C5H9NO3/c7-2-4-3(1-6-4)5(8)9/h3-4,6-7H,1-2H2,(H,8,9)	InChI=1S/C5H9NO3/c7-2-4-3(1-6-4)5(8)9/h3-4,6-7H,1-2H2,(H,8,9)/t3-,4-/m1/s1
