14
gdb 29177	2.30773	1.86109	1.03423	7.3657	66.57	-0.2032	-0.0205	0.1827	1058.852	0.101602	-470.067247	-470.058969	-470.058025	-470.100157	30.019	
N	 0.1293620326	 1.4112483187	 0.0798338482	-0.600477
C	-0.0108858928	 0.020584914	 0.0006745773	 0.295469
C	-1.0924486564	-0.7777468275	 0.0379991148	-0.152039
N	-0.6475008209	-2.1054679149	 0.0432714489	-0.377196
C	 0.7270629075	-2.1877661917	-0.0358446922	 0.489838
O	 1.4177340573	-3.1727839689	-0.0831988507	-0.381487
N	 1.1350904371	-0.8112095319	-0.0386261368	-0.197956
C	 2.4529605932	-0.3524259409	 0.0369726092	 0.16167
O	 3.4335470722	-1.0430418067	-0.0059126715	-0.270203
H	 0.4534048722	 1.8318151266	-0.7864678704	 0.256312
H	-0.740303795	 1.8524457353	 0.3504122633	 0.256394
H	-2.1376465522	-0.522825364	 0.0653882951	 0.1397
H	-1.2208215533	-2.9300153411	 0.0415815014	 0.272712
H	 2.4744037184	 0.7447606229	 0.1528770735	 0.107263
88.2278	165.6544	203.0171	213.0976	232.8993	264.9086	329.7005	439.5957	477.6267	560.2607	607.4818	638.0117	698.0256	759.4108	772.0216	796.9087	812.4399	1036.1839	1061.8507	1086.511	1134.5973	1190.1672	1291.1692	1345.6355	1391.999	1420.0185	1445.8343	1640.6179	1720.6944	1806.1762	1889.7928	2992.3234	3286.0035	3493.9509	3607.2996	3698.2219
NC1=CNC(=O)N1C=O	Nc1c[nH]c(=O)n1C=O	
InChI=1S/C4H5N3O2/c5-3-1-6-4(9)7(3)2-8/h1-2H,5H2,(H,6,9)	InChI=1S/C4H5N3O2/c5-3-1-6-4(9)7(3)2-8/h1-2H,5H2,(H,6,9)
