20
gdb 64762	2.93764	1.15788	1.05933	4.1326	84.18	-0.2529	0.0103	0.2632	1231.0039	0.171253	-366.049352	-366.040425	-366.03948	-366.08313	33.778	
C	-0.0064467766	 1.5617992308	-0.0141193197	-0.445866
C	 0.0108126756	 0.026488603	 0.0085653831	 0.254274
C	-1.453263395	-0.5162004893	 0.0165168445	-0.371854
C	-2.2016482765	-0.1463515561	 1.2162115924	 0.269464
N	-2.776386078	 0.1586179073	 2.1717456707	-0.320901
C	 0.7830302376	-0.5800736418	-1.2032718228	-0.262745
C	 1.6012089818	-1.7735666615	-0.6492082876	-0.261133
C	 1.6286399073	-1.502628899	 0.8357599237	-0.076141
C	 0.7819469173	-0.5387280435	 1.1888696641	-0.087943
H	 1.0141017416	 1.9542986993	 0.0143980832	 0.121523
H	-0.4883413249	 1.9368117995	-0.9243787752	 0.11413
H	-0.5499209658	 1.9677317756	 0.8449210747	 0.139076
H	-1.9945802441	-0.1360320451	-0.8582420242	 0.145318
H	-1.4428114394	-1.608970961	-0.0581316689	 0.148955
H	 0.1161981768	-0.8630156462	-2.0233511263	 0.096195
H	 1.4661989835	 0.1785646442	-1.5967490191	 0.107142
H	 1.1248320353	-2.7413486144	-0.8598888217	 0.109022
H	 2.6022757776	-1.8293314537	-1.0910147045	 0.109891
H	 2.2534910429	-2.0650603843	 1.521052162	 0.099648
H	 0.6022467129	-0.1931036239	 2.2010698016	 0.111946
65.8349	99.1238	138.547	240.266	253.9829	307.9707	345.6331	371.1781	402.4545	457.6081	533.1235	635.4456	717.6481	769.1802	799.502	845.6892	887.3424	913.7633	926.7091	959.0973	961.0665	979.777	1004.9046	1028.1439	1112.049	1121.5006	1151.6403	1197.789	1213.2199	1243.5794	1277.1403	1312.2875	1323.8774	1329.0396	1383.8833	1412.7397	1459.2677	1482.6438	1495.2412	1498.0493	1503.4254	1688.2448	2356.5565	3010.6049	3029.6443	3036.946	3049.5763	3059.6776	3081.6947	3093.9657	3098.6678	3113.2947	3183.1868	3207.8211
CC1(CC#N)CCC=C1	C[C@@]1(CC#N)CCC=C1	
InChI=1S/C8H11N/c1-8(6-7-9)4-2-3-5-8/h2,4H,3,5-6H2,1H3	InChI=1S/C8H11N/c1-8(6-7-9)4-2-3-5-8/h2,4H,3,5-6H2,1H3/t8-/m0/s1
