20
gdb 61984	4.10442	0.7452	0.72286	3.4318	82.99	-0.2467	0.03	0.2767	1638.7275	0.167748	-403.156942	-403.14591	-403.144966	-403.194888	38.47	
C	-0.6839353658	 1.4608522712	-0.2734185833	-0.376772
C	-0.0864033109	 0.0609584054	-0.0389682936	-0.161086
C	-1.1812519057	-1.0064853293	 0.2283413726	-0.164722
N	-1.9448792438	-0.7570252309	 1.4353798527	-0.313515
C	-3.2396604359	-0.3107655064	 1.4161474055	 0.407016
C	-3.899983756	-0.1941823141	 2.7819290033	-0.484684
O	-3.8290468229	-0.0428491623	 0.385533753	-0.371604
C	 0.7407675745	-0.3649849295	-1.1656398048	 0.328172
C	 1.3965572944	-0.7308312536	-2.1045471034	-0.468383
H	 0.109401589	 2.1946636	-0.4361431376	 0.12086
H	-1.3391235175	 1.4580813511	-1.1482317177	 0.14107
H	-1.2732826726	 1.7705472396	 0.5930666818	 0.120645
H	 0.5552382424	 0.1061182209	 0.8535155676	 0.095621
H	-1.8924802298	-1.0165179675	-0.6001891923	 0.156478
H	-0.7111364958	-1.9934011279	 0.2901022281	 0.113414
H	-1.5234341831	-0.9758175647	 2.3228289591	 0.242947
H	-3.1938208616	-0.2294751762	 3.6159890424	 0.111217
H	-4.4593592451	 0.742477748	 2.8209647511	 0.153977
H	-4.6185940344	-1.0113644895	 2.8984913303	 0.15326
H	 1.9852329908	-1.0459037643	-2.930172965	 0.196088
34.61	43.491	53.9276	79.2755	155.5716	203.2565	243.7186	262.2737	325.2669	359.6265	437.4951	475.0578	520.4161	532.5669	627.9463	629.6446	640.4886	643.2126	825.0051	849.8378	923.9414	955.7299	993.1803	1049.6579	1076.5379	1106.3634	1120.2463	1160.0654	1250.9759	1285.5632	1313.8394	1349.2086	1388.5034	1396.1254	1411.9856	1469.0374	1472.6866	1487.2157	1489.9232	1497.0938	1538.3243	1782.9052	2234.3728	2993.3344	3047.4676	3050.2595	3051.3963	3117.5303	3126.181	3127.6265	3131.5269	3140.4036	3505.1075	3645.9689
CC(CNC(C)=O)C#C	C[C@@H](CNC(=O)C)C#C	
InChI=1S/C7H11NO/c1-4-6(2)5-8-7(3)9/h1,6H,5H2,2-3H3,(H,8,9)	InChI=1S/C7H11NO/c1-4-6(2)5-8-7(3)9/h1,6H,5H2,2-3H3,(H,8,9)/t6-/m1/s1
