18
gdb 106215	2.84818	1.79703	1.35821	2.3596	75.47	-0.2233	-0.0105	0.2128	969.3993	0.149136	-401.855885	-401.848735	-401.847791	-401.887387	29.228	
O	-0.0137289048	 1.3449570781	 0.1865285652	-0.422199
C	 0.0540571715	-0.0446303724	-0.0887180527	-0.175001
C	-1.3402102388	-0.6242384469	-0.1215417807	 0.304229
C	-2.3012436023	-0.0882462297	-1.1708507421	-0.135337
C	-3.4732469608	-0.6145202569	-0.8204992575	-0.10438
C	-3.1222208708	-1.4165258314	 0.4112271956	-0.032705
C	-1.7391616056	-2.1090786656	 0.1954735213	-0.122089
C	-1.4668068178	-1.8122938993	 1.6733788364	-0.199827
N	-2.146382446	-0.5132108455	 1.23282692	-0.190242
H	-0.6426560406	 1.4446627781	 0.912793641	 0.295683
H	 0.5259199273	-0.151534476	-1.0721918409	 0.109316
H	 0.6953492264	-0.5674929949	 0.6357328681	 0.090648
H	-2.0417056833	 0.5910696156	-1.9697223238	 0.120387
H	-4.4543101225	-0.4998464795	-1.2577659863	 0.115033
H	-3.9001851212	-1.9049275232	 0.9992426201	 0.077026
H	-1.5185191729	-3.0063555243	-0.3966121061	 0.06507
H	-2.0472015377	-2.3665284877	 2.4161828311	 0.10097
H	-0.4361088399	-1.6913748286	 2.0108705513	 0.103419
86.5495	161.9658	335.7345	357.6393	434.5968	443.17	492.8931	500.0235	644.0706	685.3701	707.1065	746.0649	786.6634	834.047	856.073	914.0973	917.2944	936.9581	967.2374	988.6289	1043.2286	1047.3646	1081.3341	1089.9707	1111.9825	1140.3276	1156.3476	1200.1207	1232.5263	1240.9556	1249.0094	1267.244	1320.4613	1342.315	1371.4164	1440.9663	1507.3459	1541.1833	1642.2279	2996.4589	3024.8721	3060.6068	3063.5488	3115.3446	3122.5842	3230.4024	3256.9009	3770.0892
OCC12C=CC3C1CN23	OC[C@@]12C=C[C@H]3[C@@H]1CN23	
InChI=1S/C7H9NO/c9-4-7-2-1-6-5(7)3-8(6)7/h1-2,5-6,9H,3-4H2	InChI=1S/C7H9NO/c9-4-7-2-1-6-5(7)3-8(6)7/h1-2,5-6,9H,3-4H2/t5-,6-,7-/m0/s1
