14
gdb 124203	4.51798	0.80646	0.79046	5.264	71.15	-0.28	-0.0459	0.2341	1464.5453	0.100078	-428.966352	-428.957728	-428.956784	-429.003339	28.12	
C	-0.0025240383	 1.4934453135	-0.0083273599	-0.497435
C	-0.002432753	 0.0403169383	 0.0472201177	 0.06605
C	-0.0071691183	-1.1612681661	 0.0925296763	 0.101746
C	-0.0042873125	-2.6143911995	 0.1484901793	-0.309605
N	-1.3453645915	-3.1918907319	-0.0103455575	 0.180724
N	-2.1745063067	-3.4251531894	 0.9942261088	-0.109478
N	-3.2479057799	-3.8996385428	 0.4409094848	-0.082676
N	-3.0677187537	-3.9507619825	-0.8945462157	-0.082676
N	-1.8814080903	-3.5083120775	-1.1780714709	-0.109477
H	 0.6168976494	 1.8578543757	-0.8343480157	 0.15938
H	-1.0182351353	 1.874284747	-0.1579469506	 0.164917
H	 0.3834536643	 1.9249126038	 0.9209979117	 0.15938
H	 0.6069816268	-3.0474689684	-0.6480027368	 0.179575
H	 0.3700212488	-2.98029262	 1.1084988485	 0.179575
12.5932	25.3293	64.5912	192.5919	195.6274	328.1635	329.3667	370.7564	456.1169	705.6886	765.4109	765.8776	791.8408	942.2131	974.5836	1050.1384	1052.6983	1090.6955	1138.8902	1144.0664	1177.6581	1253.0346	1290.2971	1374.8142	1390.9691	1413.6473	1419.5364	1460.7127	1473.2061	1475.4255	2383.6516	3034.9464	3068.4501	3100.3565	3100.6566	3114.5027
CC#CCN1N=NN=N1	CC#CCn1nnnn1	
InChI=1S/C4H5N5/c1-2-3-4-9-7-5-6-8-9/h4H2,1H3	InChI=1S/C4H5N5/c1-2-3-4-9-7-5-6-8-9/h4H2,1H3
