17
gdb 35083	3.35919	1.43339	1.25535	5.2836	76.65	-0.241	-0.0115	0.2295	1022.6061	0.139374	-380.856425	-380.849431	-380.848487	-380.887821	27.976	
N	-0.0288699556	-1.1787774604	-0.1381567591	-0.326509
C	-0.006179781	-0.0271965027	-0.0449990281	 0.281444
C	 0.0073666084	 1.4373979265	 0.0441338704	-0.171743
C	-0.6914215565	 1.9273995203	 1.3089063559	-0.074796
C	-0.0071596945	 2.6939053918	 2.1534105309	-0.02394
C	 1.4295183513	 3.0107354534	 1.7959544874	-0.059333
C	 1.469727561	 3.5061967323	 0.322029352	-0.239926
C	 1.4568338265	 1.9878638404	 0.0131986126	-0.019823
N	 2.0650462664	 1.7039275954	 1.3594911119	-0.309043
H	-0.530774516	 1.811871628	-0.8385512083	 0.129626
H	-1.7212954767	 1.6293721455	 1.4706328675	 0.115759
H	-0.4485882831	 3.0963133482	 3.0584803953	 0.10487
H	 1.9622901792	 3.5632654367	 2.5703075385	 0.075527
H	 0.6576212565	 4.1425806373	-0.0409428362	 0.102703
H	 2.4366436914	 3.944472584	 0.0602850301	 0.103193
H	 2.0051331276	 1.6086193073	-0.8510415084	 0.090319
H	 3.0681617449	 1.8643964259	 1.2724222777	 0.221673
111.0754	147.6606	305.4999	353.3202	426.5835	436.9598	495.1776	571.4401	600.4969	707.7766	731.3332	835.2851	854.0397	871.8826	902.9443	927.8493	956.7531	960.7666	984.4628	1000.1565	1014.9889	1086.7122	1108.7504	1130.8475	1145.5957	1186.2232	1236.6569	1258.8183	1282.231	1299.826	1322.8388	1356.2507	1375.5929	1415.7075	1490.5894	1704.8132	2358.3107	3010.0039	3048.8809	3095.3853	3106.1348	3111.8492	3182.0916	3204.3427	3463.0466
N#CC1C=CC2CC1N2	N#C[C@H]1C=C[C@@H]2C[C@H]1N2	
InChI=1S/C7H8N2/c8-4-5-1-2-6-3-7(5)9-6/h1-2,5-7,9H,3H2	InChI=1S/C7H8N2/c8-4-5-1-2-6-3-7(5)9-6/h1-2,5-7,9H,3H2/t5-,6-,7-/m1/s1
