16
gdb 80194	2.41584	1.85109	1.50679	2.2639	64.69	-0.2498	0.007	0.2568	922.165	0.125615	-475.009985	-475.002594	-475.00165	-475.041679	29.252	
O	 0.0684987234	 1.2842989968	-0.1968053715	-0.422824
C	-0.0256555758	-0.0901032422	-0.0351640675	 0.081706
C	-0.4520719923	-0.6635600515	 1.2954970467	 0.027963
O	-0.9733254372	 0.2554422503	 2.2404098107	-0.216988
C	-2.0727155523	 0.8633426021	 1.7290517913	 0.399551
N	-2.6704143041	 1.8717755787	 2.1926930082	-0.55899
C	-2.5170665106	 0.1890767137	 0.4294394047	 0.003929
O	-2.7281878409	 1.1723066042	-0.5801255366	-0.432246
C	-1.38185067	-0.7538724602	 0.1027179045	-0.162856
H	-0.7419117362	 1.575004824	-0.6414031487	 0.301987
H	 0.7315133952	-0.6626711421	-0.5690639936	 0.104906
H	 0.0423019577	-1.5032250219	 1.7654671406	 0.118394
H	-2.209496947	 2.2475760279	 3.0209986323	 0.235936
H	-3.445485311	-0.3699244951	 0.6096263854	 0.110123
H	-3.1434260569	 1.9194773306	-0.1222591298	 0.302569
H	-1.5942216621	-1.6850652952	-0.4060989868	 0.106841
102.7674	198.5532	227.2065	277.8994	364.957	450.0546	464.0973	565.8318	574.6078	613.3096	647.6914	723.617	766.349	783.2659	808.3713	875.9897	882.9869	946.0716	1019.5935	1051.2558	1065.2682	1070.8163	1103.4179	1107.3361	1147.9735	1218.5313	1243.2436	1264.5103	1328.8908	1358.2758	1379.417	1400.8858	1421.4756	1446.671	1782.7772	3012.4027	3115.806	3194.6296	3208.8495	3498.6114	3701.7873	3722.7292
OC1C2OC(=N)C(O)C12	O[C@H]1[C@H]2O[C]([NH])[C@@H](O)[C@@H]12	
InChI=1S/C5H7NO3/c6-5-3(8)1-2(7)4(1)9-5/h1-4,6-8H	InChI=1S/C5H7NO3/c6-5-3(8)1-2(7)4(1)9-5/h1-4,6-8H/t1-,2-,3+,4+/m1/s1
