17
gdb 52985	4.36174	0.94611	0.86897	2.172	83.3	-0.2386	-0.0022	0.2364	1373.7473	0.136073	-380.828464	-380.819942	-380.818997	-380.864092	30.698	
C	 0.0006370738	 1.4539895895	 0.0202439809	-0.507588
C	-0.0060072788	-0.0009184583	-0.0002056463	 0.263239
C	-0.0254207743	-1.2051997304	-0.0215169705	-0.152147
C	 0.0160609587	-2.6375217863	-0.0226933909	 0.11727
C	-0.4152153152	-3.4225898836	-1.213776299	-0.270753
N	-1.2791116438	-3.4065690987	-0.007815653	-0.153256
C	-0.9546602143	-4.5053707194	 0.8476663921	 0.040199
N	 0.1827629371	-4.5524308149	 1.4113019166	-0.202123
C	 0.9317222861	-3.3621529696	 0.9815372674	-0.23661
H	 1.0241497979	 1.8447260496	 0.0099029452	 0.151443
H	-0.5203615668	 1.8647263311	-0.8514776246	 0.152597
H	-0.4941994675	 1.841165479	 0.9176579801	 0.153387
H	-0.8283766614	-2.8978071489	-2.0686837202	 0.132284
H	 0.1139667151	-4.346193334	-1.4366725907	 0.128259
H	-1.7216319846	-5.2601985356	 0.9976809032	 0.130652
H	 1.8963473729	-3.6585346453	 0.5566640456	 0.12292
H	 1.135990195	-2.7214869544	 1.8457486541	 0.130226
7.5322	92.0124	99.7719	238.5571	297.5963	337.2413	346.0695	445.5768	516.9861	530.157	549.7317	716.844	789.0763	834.3535	875.3105	933.5123	947.3109	974.7624	996.9544	1045.4984	1052.3482	1053.3841	1067.2447	1128.976	1154.0806	1202.6087	1245.8754	1296.3955	1325.0864	1384.3722	1414.5881	1475.6389	1477.3698	1481.3896	1496.6913	1682.307	2371.3186	3028.1598	3048.0827	3084.4379	3089.8048	3091.0161	3108.8156	3184.4155	3209.9684
CC#CC12CN1C=NC2	CC#C[C@]12CN1C=NC2	
InChI=1S/C7H8N2/c1-2-3-7-4-8-6-9(7)5-7/h6H,4-5H2,1H3	InChI=1S/C7H8N2/c1-2-3-7-4-8-6-9(7)5-7/h6H,4-5H2,1H3/t7-,9?/m0/s1
