16
gdb 12897	3.53721	1.81586	1.54638	3.5888	69.31	-0.2529	0.0107	0.2636	871.4364	0.130896	-342.758647	-342.751215	-342.75027	-342.790096	27.873	
C	-0.0012405954	 1.5222356638	 0.0766100771	-0.491551
C	-0.0209467462	 0.0270443107	-0.033904507	 0.340683
C	-1.2753272896	-0.8428005046	-0.1542179003	-0.312951
C	-0.5851745952	-1.8061269145	 0.844715417	-0.160922
N	 0.6126331784	-0.8971426809	 0.9871292021	-0.174628
C	 1.2007308992	-0.7576333613	-0.3757845148	-0.206333
C	 1.1956453866	-1.8336023982	-1.3327483528	 0.308226
N	 1.1877822535	-2.6982557354	-2.1017216883	-0.348165
H	 0.9771014262	 1.8779395079	 0.4116765393	 0.135788
H	-0.2216074126	 1.9836695998	-0.8925320756	 0.135127
H	-0.7529650947	 1.8664840997	 0.7942755744	 0.131937
H	-2.1590552433	-0.3572598023	 0.2635971942	 0.11719
H	-1.514124516	-1.2220688186	-1.150563548	 0.129697
H	-1.0873155871	-1.8783583623	 1.8100685684	 0.121759
H	-0.3388459346	-2.8091180948	 0.4882340495	 0.136508
H	 2.1395747207	-0.212414899	-0.3448348254	 0.137633
142.3707	149.5164	188.7326	236.0661	320.582	383.3751	396.5985	557.5027	576.2516	622.749	758.7794	779.9222	787.5245	872.4266	942.1589	963.0735	980.1348	1026.4806	1047.9444	1090.0166	1133.4696	1174.4492	1219.3176	1237.2257	1278.2339	1301.4672	1324.7244	1406.0334	1428.5777	1479.8744	1487.6398	1491.7183	1509.2852	2347.0889	3033.8953	3070.7246	3076.7473	3099.4769	3116.5173	3120.2969	3138.7304	3158.9154
CC12CCN1C2C#N	C[C@]12CCN1[C@H]2C#N	
InChI=1S/C6H8N2/c1-6-2-3-8(6)5(6)4-7/h5H,2-3H2,1H3	InChI=1S/C6H8N2/c1-6-2-3-8(6)5(6)4-7/h5H,2-3H2,1H3/t5-,6+,8?/m0/s1
