19
gdb 120052	4.43754	1.03225	0.99046	1.9501	75.22	-0.2304	0.076	0.3064	1277.553	0.158502	-422.946254	-422.938123	-422.937179	-422.979899	30.615	
C	 0.0697207687	 1.4792540722	-0.0788813774	-0.385254
C	 0.3250863801	-0.0167876014	-0.0183441992	-0.040079
O	 0.4741472026	-0.5002316132	-1.3415978534	-0.258656
C	 0.648816717	-1.8792875548	-1.4237080363	 0.198106
C	 0.905914516	-2.4467884853	-2.8052160271	-0.192844
C	 2.4331091953	-2.4066640777	-2.9626587721	 0.105364
O	 2.9900395102	-1.765443367	-1.8167333091	-0.281795
C	 2.0271160763	-2.5177928896	-1.0363442405	 0.000225
C	 1.8107833953	-3.5337821815	-2.2144489861	-0.152443
H	 0.9043780626	 1.9878223565	-0.5691690249	 0.132602
H	-0.8412064568	 1.6904102258	-0.6462509456	 0.124701
H	-0.0445355079	 1.8888165471	 0.9292983422	 0.112343
H	 1.2324821251	-0.2267958049	 0.5695877639	 0.093156
H	-0.5123615592	-0.5341511977	 0.4805940012	 0.082253
H	-0.1634540639	-2.4245438429	-0.9173271513	 0.065612
H	 0.2240282661	-2.5187044544	-3.641912078	 0.095867
H	 2.9545570629	-2.3509248535	-3.9083966128	 0.112473
H	 2.3428941403	-2.7122201456	-0.0140644024	 0.085674
H	 1.8163735793	-4.609843872	-2.3059380009	 0.102695
59.8465	63.7856	138.2183	229.1975	270.3214	342.3583	389.3804	584.2846	654.269	763.4606	769.9395	788.7188	802.7999	822.5187	836.0145	884.3481	915.7506	948.9952	978.2402	1002.9516	1026.1185	1029.8835	1052.6951	1066.9177	1094.6624	1142.3857	1153.0363	1168.6739	1178.7436	1190.7273	1226.1639	1251.4771	1298.5296	1326.0119	1369.776	1376.2228	1403.7402	1442.4626	1483.164	1499.4629	1526.9761	2956.3367	2984.4589	2992.3797	3044.9847	3118.6586	3123.4676	3149.6814	3208.3345	3213.1547	3229.7369
CCOC1C2C3OC1C23	CCO[C@H]1[C@H]2[C@H]3O[C@@H]1[C@@H]23	
InChI=1S/C7H10O2/c1-2-8-6-3-4-5(3)9-7(4)6/h3-7H,2H2,1H3	InChI=1S/C7H10O2/c1-2-8-6-3-4-5(3)9-7(4)6/h3-7H,2H2,1H3/t3-,4+,5-,6+,7-/m1/s1
