19
gdb 53900	2.03336	1.36989	0.94192	2.1543	81.89	-0.2419	-0.0186	0.2234	1305.8651	0.155669	-385.860911	-385.850868	-385.849923	-385.896796	36.08	
C	 0.1207580838	 1.4721801569	-0.1189133682	-0.481142
C	-0.1677713929	-0.0117119441	-0.0254459244	 0.385332
O	-0.5239851823	-0.5483468068	 0.9925867364	-0.284196
C	 0.013745514	-0.8244452403	-1.3403895796	-0.299668
C	 1.4408312	-0.8848062782	-1.6577539044	 0.331451
C	 2.6211826544	-0.9388574472	-1.8809981719	-0.465528
C	-0.618472316	-2.2018774616	-1.2386814707	 0.057663
C	-2.070871976	-2.3838317511	-1.588928742	-0.274795
C	-0.9975311618	-2.9502330711	-2.4874193725	-0.279418
H	 1.082537837	 1.647754683	-0.6090257918	 0.154146
H	-0.6488046885	 1.9538919388	-0.7344822841	 0.141008
H	 0.1129960507	 1.9162762353	 0.8769316423	 0.144151
H	-0.4878807681	-0.2570357715	-2.1387705924	 0.107532
H	 3.6602171064	-0.9936841016	-2.0935770795	 0.200578
H	-0.2440408144	-2.7838875059	-0.4048023027	 0.108305
H	-2.6586960567	-3.0651248472	-0.9847961494	 0.119088
H	-2.6240730479	-1.5198402837	-1.9439650723	 0.107054
H	-0.8271038768	-2.4657066952	-3.443424008	 0.112487
H	-0.848897765	-4.0239654386	-2.5049585947	 0.11595
41.6646	67.2997	126.672	131.307	148.0994	170.4012	313.1456	342.886	380.78	412.0708	508.5048	566.9704	605.258	621.0237	643.1252	759.7973	811.4505	834.2816	867.3709	925.7622	961.6142	975.4078	1011.2391	1060.1483	1064.353	1080.5708	1130.1348	1154.4312	1194.6352	1196.4788	1228.8271	1264.0619	1283.1163	1380.2736	1409.5986	1464.1656	1472.0259	1475.7161	1507.5919	1827.3276	2228.64	2995.5006	3038.6983	3107.598	3130.1924	3134.8583	3157.1354	3181.7005	3209.0883	3224.343	3503.3527
CC(=O)C(C#C)C1CC1	CC(=O)[C@@H](C#C)C1CC1	
InChI=1S/C8H10O/c1-3-8(6(2)9)7-4-5-7/h1,7-8H,4-5H2,2H3	InChI=1S/C8H10O/c1-3-8(6(2)9)7-4-5-7/h1,7-8H,4-5H2,2H3/t8-/m1/s1
