17
gdb 61701	2.33377	1.33554	1.07875	4.3293	75.86	-0.2497	-0.0403	0.2094	1167.2842	0.130386	-421.808613	-421.798489	-421.797544	-421.843688	35.695	
C	-0.2746126262	 1.4374047405	-0.1275413861	-0.427416
C	 0.076346078	-0.0540549519	 0.0267517593	-0.025363
C	 0.9352533488	-0.3312945791	 1.2847855836	-0.33127
C	 0.217332009	-0.1381455226	 2.5992713994	 0.143625
O	-0.9738263538	 0.006853542	 2.7114227885	-0.224066
C	-1.2180287756	-0.9068827603	 0.0700662213	 0.171458
O	-2.279165234	-0.5370165692	-0.3446321447	-0.24649
C	 0.8099634679	-0.5452982775	-1.1432149413	 0.315582
C	 1.3966829011	-0.9774186776	-2.0998002294	-0.455848
H	 0.6342695521	 2.0300453398	-0.2597252808	 0.117023
H	-0.9179932555	 1.5773302806	-0.9968425929	 0.15005
H	-0.8137777855	 1.78805682	 0.7547008265	 0.143606
H	 1.3032076446	-1.3681645243	 1.2787814596	 0.146865
H	 1.8395587707	 0.2890047746	 1.2738164977	 0.141086
H	 0.8769311939	-0.1664002676	 3.4950474391	 0.095056
H	-1.0642503664	-1.935005803	 0.4654346985	 0.082125
H	 1.912970701	-1.3440921341	-2.9526695383	 0.203976
74.7889	107.8128	130.857	150.0615	174.1797	194.2579	224.1742	267.4628	326.2707	350.6209	465.9918	522.5063	561.4717	632.1923	646.5067	692.6813	722.9886	780.6461	884.395	925.9172	964.7291	1000.6218	1026.7514	1155.6166	1176.1198	1183.2141	1277.0237	1345.6519	1400.0871	1414.6351	1417.4859	1442.9843	1486.7393	1499.1642	1824.7159	1845.3685	2226.6926	2887.2519	2887.9771	3018.0524	3059.281	3065.8849	3137.6308	3154.044	3499.3203
CC(CC=O)(C=O)C#C	C[C@@](CC=O)(C=O)C#C	
InChI=1S/C7H8O2/c1-3-7(2,6-9)4-5-8/h1,5-6H,4H2,2H3	InChI=1S/C7H8O2/c1-3-7(2,6-9)4-5-8/h1,5-6H,4H2,2H3/t7-/m1/s1
