22
gdb 11788	3.84923	1.59606	1.47649	0.1028	81.24	-0.2828	0.0838	0.3666	991.3202	0.202725	-313.073197	-313.065597	-313.064653	-313.10479	30.752	
C	 0.0520367262	 1.528347418	 0.1527107289	-0.38358
C	-0.0642310895	 0.0136271667	-0.0615591593	-0.290224
C	 0.6858832352	-0.5031922194	-1.2737025898	 0.381056
C	 2.2433726532	-0.4262677689	-1.3978540843	-0.255074
C	 2.0241965047	-1.5541180429	-2.4444431931	-0.014457
C	 0.8619152838	-2.0336116592	-1.531877913	-0.267996
C	 1.2649180577	-0.811832013	-3.5608786176	-0.211015
C	 0.2497392451	-0.0153223351	-2.6771720397	-0.247133
H	 1.0987784942	 1.8336891071	 0.2572980242	 0.117213
H	-0.3747979671	 2.0889071709	-0.6850030899	 0.117596
H	-0.4759910832	 1.837301149	 1.0601057963	 0.110235
H	 0.3053158127	-0.5052671945	 0.8326162982	 0.08917
H	-1.1241335691	-0.2614930482	-0.1546410617	 0.091384
H	 2.693333665	 0.5125561307	-1.7370734436	 0.082407
H	 2.7490049619	-0.7797596264	-0.495038859	 0.089066
H	 2.8315567044	-2.2222853735	-2.7459255802	 0.053905
H	 1.2118590097	-2.5648095413	-0.6425710743	 0.088716
H	 0.0314703784	-2.5791177077	-1.9929991701	 0.08121
H	 1.9186336104	-0.1575841019	-4.145575249	 0.091795
H	 0.7714140905	-1.4983717604	-4.2553346848	 0.092278
H	-0.7924717842	-0.2737260497	-2.8914796147	 0.090026
H	 0.3547444	 1.0670930997	-2.7936546435	 0.09342
88.1753	176.3939	221.995	281.3155	327.4177	393.6416	446.405	506.4432	582.7026	671.6947	778.796	827.8322	830.5986	838.44	890.0827	896.7553	933.8654	959.2606	968.7235	975.538	991.051	1007.7225	1065.2178	1079.1727	1092.7536	1126.3901	1148.9842	1169.3467	1203.9949	1235.3395	1241.355	1247.1571	1270.1148	1281.8072	1310.4598	1331.391	1342.2113	1376.6522	1410.6466	1482.683	1485.8645	1493.0804	1500.6944	1502.1875	1507.895	1532.7589	3007.463	3034.2911	3036.8216	3038.7865	3041.4486	3044.0141	3053.6466	3079.3067	3096.1863	3101.067	3101.7536	3102.6376	3106.0559	3109.6819
CCC12CC(C1)CC2	CC[C@@]12C[C@@H](C1)CC2	
InChI=1S/C8H14/c1-2-8-4-3-7(5-8)6-8/h7H,2-6H2,1H3	InChI=1S/C8H14/c1-2-8-4-3-7(5-8)6-8/h7H,2-6H2,1H3/t7-,8+
