18
gdb 55646	2.29241	1.24015	1.10313	4.7566	73.84	-0.2558	0.0142	0.27	1211.1405	0.144461	-439.091538	-439.081425	-439.080481	-439.126509	37.573	
C	 0.0073233146	 1.5120991349	-0.1900857298	-0.404496
C	 0.0433343218	-0.0133985245	-0.0305875826	 0.166079
O	 0.8770895588	-0.2833475225	 1.0799732816	-0.445905
C	-1.3878149292	-0.5595181839	 0.2329008844	-0.342453
C	-1.387170399	-2.0664978211	 0.460861278	 0.433241
N	-2.4276673157	-2.7504071348	-0.0788261549	-0.516842
O	-0.5215441262	-2.6265569134	 1.1211135269	-0.379643
C	 0.5764023637	-0.6316282515	-1.2636393497	 0.363685
C	 1.0007519993	-1.1336239049	-2.2702852035	-0.517791
H	 1.0237759859	 1.8833173385	-0.3372073032	 0.138472
H	-0.6030850844	 1.8061114575	-1.0478439767	 0.115665
H	-0.3999273106	 1.962845759	 0.7192304355	 0.11994
H	 0.7292236264	-1.2207875574	 1.3007713771	 0.299184
H	-1.7569125888	-0.0861697156	 1.1500383799	 0.139757
H	-2.0566065948	-0.2799561648	-0.5866232096	 0.103598
H	-3.0756441301	-2.32089289	-0.7148224779	 0.265269
H	-2.4393251141	-3.7530224538	 0.0210995654	 0.266214
H	 1.3956422624	-1.5812008118	-3.1487966109	 0.196027
48.173	91.0524	164.9081	191.6365	227.3164	238.5338	261.3979	323.3959	353.0532	410.7981	427.5531	524.7103	559.9095	570.862	626.7007	638.0093	654.7771	662.9422	682.8479	779.8315	863.6033	901.4897	953.7103	978.6992	1081.2437	1095.6538	1149.3815	1184.9706	1271.5701	1290.1182	1397.4409	1404.384	1449.3007	1463.3725	1479.524	1493.739	1620.6629	1765.0326	2227.0635	3043.0194	3048.9649	3095.7781	3126.8915	3136.948	3500.5723	3599.7006	3611.126	3738.7797
CC(O)(CC(N)=O)C#C	C[C@@](O)(CC(=O)N)C#C	
InChI=1S/C6H9NO2/c1-3-6(2,9)4-5(7)8/h1,9H,4H2,2H3,(H2,7,8)	InChI=1S/C6H9NO2/c1-3-6(2,9)4-5(7)8/h1,9H,4H2,2H3,(H2,7,8)/t6-/m0/s1
