20
gdb 16968	3.13759	2.10577	1.91177	1.3233	72.88	-0.2561	0.077	0.3331	828.0424	0.180946	-349.027401	-349.020577	-349.019633	-349.058053	28.204	
O	 0.0154354472	 1.4317478062	-0.1094770355	-0.440638
C	 0.0161102296	 0.0172766638	 0.0093522439	 0.147397
C	 0.647205205	-0.5289405868	 1.3352287358	-0.252435
C	-0.5020283235	-1.348711254	 1.964776929	 0.007786
C	-1.5690568538	-0.3672169736	 2.4994293002	-0.206165
C	-2.1893515768	 0.2269711137	 1.1939226172	-0.205469
C	-1.4293812342	-0.5165840992	 0.0713052249	-0.017728
C	-1.1999564752	-1.9057860897	 0.7026802343	-0.22404
H	 0.9297275677	 1.7299994343	-0.1143767029	 0.280811
H	 0.5268894976	-0.4244617206	-0.8592680352	 0.058991
H	 1.5197015496	-1.1576067807	 1.1303623102	 0.087632
H	 0.971551959	 0.2977505637	 1.9760597011	 0.090739
H	-0.1706963739	-2.0855720497	 2.6994205273	 0.052044
H	-2.3215400435	-0.8986967839	 3.0906097527	 0.089344
H	-1.1318563998	 0.4003023873	 3.1448996176	 0.092059
H	-3.2611355756	 0.0173474795	 1.1316609333	 0.086959
H	-2.0547668803	 1.3062382011	 1.1163543386	 0.118495
H	-1.9342033487	-0.4956363224	-0.8961276025	 0.056901
H	-0.5570620006	-2.5583367151	 0.1023207808	 0.086877
H	-2.1323854699	-2.4360226638	 0.919790399	 0.090441
110.6953	265.7808	274.2791	347.2833	413.6759	437.69	503.2339	555.0077	743.7798	762.5925	813.3303	819.8118	839.3436	889.6846	929.5977	948.4529	954.9119	961.3248	972.7694	1000.3552	1055.4597	1057.9823	1108.1344	1131.1241	1148.8818	1180.1532	1189.8363	1221.2281	1254.2512	1270.3983	1282.622	1290.6251	1318.8118	1335.2772	1340.1393	1353.4266	1367.072	1425.3669	1481.4198	1489.3585	1494.9888	1517.8311	2976.3779	3039.4046	3042.6805	3044.5237	3060.6491	3082.5433	3085.2225	3090.5739	3092.5055	3099.4976	3127.7939	3826.1713
OC1CC2CCC1C2	O[C@H]1C[C@H]2CC[C@@H]1C2	
InChI=1S/C7H12O/c8-7-4-5-1-2-6(7)3-5/h5-8H,1-4H2	InChI=1S/C7H12O/c8-7-4-5-1-2-6(7)3-5/h5-8H,1-4H2/t5-,6+,7-/m0/s1
