19
gdb 97301	3.92057	0.89992	0.7761	4.5723	85.02	-0.2397	-0.0159	0.2237	1523.6896	0.157939	-419.232464	-419.222799	-419.221855	-419.267586	33.884	
C	 0.0037277165	 1.5247193213	-0.0625790768	-0.309313
N	-0.0027680201	 0.0858540492	 0.0828335748	-0.181897
C	 0.4985807908	-0.5956037736	-0.8551284353	 0.087101
N	 0.5596487507	-1.9795953309	-0.8470572822	-0.130449
C	 1.1100409304	-2.898419662	-1.8559868056	-0.194304
C	 0.7020066243	-4.0820782968	-0.9293123275	-0.137593
C	 1.8023088678	-4.9885431354	-0.3926163331	-0.403569
C	 0.1857303009	-2.9983293885	 0.0441525143	 0.425047
O	-0.3157529308	-2.9881092532	 1.1291439924	-0.333792
H	 0.5479616914	 1.9749489216	 0.7756817502	 0.131608
H	 0.4586887565	 1.8772580452	-1.0035525103	 0.092998
H	-1.0239129847	 1.9026491225	-0.0109361322	 0.131471
H	 0.9355577046	-0.16666125	-1.7707607597	 0.082917
H	 0.5974215523	-2.8525667809	-2.8215037635	 0.119398
H	 2.189133741	-2.7879513262	-2.004828218	 0.11846
H	-0.1237621496	-4.6705142375	-1.3400117912	 0.109412
H	 2.6416584597	-4.4035756959	-0.0024469664	 0.126347
H	 1.4168421736	-5.6056131151	 0.4239256048	 0.143954
H	 2.1833603346	-5.6537618737	-1.1736161147	 0.122202
59.1555	99.2454	121.2656	145.638	206.0495	210.2202	224.9027	320.9128	339.4793	376.4884	456.9517	523.2841	691.5214	760.086	787.1518	869.368	930.4691	977.0151	995.1297	1026.0095	1085.9366	1108.7109	1137.1627	1138.6087	1147.793	1173.5351	1187.5869	1240.2695	1278.9346	1350.0733	1391.4298	1411.7733	1416.4482	1446.6789	1476.6617	1495.2066	1496.7808	1502.0794	1522.4608	1751.4303	1894.032	2961.0921	2989.4843	3037.2456	3041.6988	3057.9961	3070.3157	3077.0108	3092.3629	3108.1204	3117.857
CN=CN1CC(C)C1=O	CN=CN1C[C@@H](C)C1=O	
InChI=1S/C6H10N2O/c1-5-3-8(4-7-2)6(5)9/h4-5H,3H2,1-2H3	InChI=1S/C6H10N2O/c1-5-3-8(4-7-2)6(5)9/h4-5H,3H2,1-2H3/t5-/m1/s1
