18
gdb 83403	2.71144	1.33896	1.11607	2.9651	73.	-0.244	0.0172	0.2612	1145.9135	0.14697	-439.077929	-439.068978	-439.068033	-439.111663	33.198	
C	 0.0102330523	 1.4963684527	-0.2315290755	-0.428091
C	 0.1095226843	 0.003856991	-0.0187163662	-0.075992
C	 1.3898088385	-0.7468781057	-0.0285267314	 0.053705
O	 2.4744084848	 0.0235740288	 0.4930333742	-0.278586
C	 1.8355226143	 0.0894206714	 1.7931873901	-0.173136
C	 0.597717431	-0.6453251221	 1.2791170689	 0.142806
C	-0.2020385402	-1.718107089	 1.9241961947	 0.308322
N	 0.0420866544	-1.9146659996	 3.2578373196	-0.542647
O	-0.9986833003	-2.3992775352	 1.3022822299	-0.374373
H	 0.9412399439	 1.9977736604	 0.0430119182	 0.135377
H	-0.1805433563	 1.7129605199	-1.2876560006	 0.125858
H	-0.8083549902	 1.9295763806	 0.3519424304	 0.120442
H	-0.7090957034	-0.5937260251	-0.4132231261	 0.126636
H	 1.6270004103	-1.6115597821	-0.6376466807	 0.120638
H	 2.4141069114	-0.4881243132	 2.5242196455	 0.110303
H	 1.7125989728	 1.1198355237	 2.1471476972	 0.109103
H	 0.5425253018	-1.2397293374	 3.8098764106	 0.257684
H	-0.5613323293	-2.5615375291	 3.7400383212	 0.261952
62.0493	144.9833	173.3759	189.6919	244.8118	251.5812	267.0933	368.7727	437.7246	493.2736	556.9045	605.2139	654.7357	719.8739	768.2906	809.3475	912.288	937.5742	986.7578	991.9638	1009.9284	1073.2323	1080.7185	1087.8922	1102.8959	1132.2123	1170.6254	1216.6829	1231.4437	1298.9038	1355.0691	1374.1268	1411.5664	1466.2515	1492.9617	1503.7143	1519.0099	1618.0565	1776.213	3017.5625	3040.3574	3065.0563	3100.2198	3123.5092	3156.3217	3186.5176	3596.3928	3728.5376
CC1C2OCC12C(N)=O	C[C@H]1[C@H]2OC[C@@]12C(=O)N	
InChI=1S/C6H9NO2/c1-3-4-6(3,2-9-4)5(7)8/h3-4H,2H2,1H3,(H2,7,8)	InChI=1S/C6H9NO2/c1-3-4-6(3,2-9-4)5(7)8/h3-4H,2H2,1H3,(H2,7,8)/t3-,4+,6+/m0/s1
