16
gdb 28593	5.43158	0.98976	0.891	3.2043	74.84	-0.1976	0.012	0.2097	1282.2458	0.126505	-434.068372	-434.0604	-434.059456	-434.101532	29.382	
N	 0.1605061816	 1.3596347454	-0.0785634666	-0.598361
C	-0.0335821433	-0.0098405018	-0.0101949882	 0.330782
C	-1.1017914894	-0.8357755549	 0.1415381366	-0.189431
N	-0.6387862578	-2.1461758137	 0.2520496245	-0.325935
C	 0.6457167394	-2.0568518152	 0.1609345106	 0.409166
O	 1.0972513796	-0.7733996884	-0.0005238629	-0.203519
C	 1.6418853814	-3.1369925818	 0.1914401812	-0.123567
C	 1.5081851446	-4.212285341	 1.2203624046	-0.22611
N	 1.2046633826	-4.4916264901	-0.1853905051	-0.313377
H	 0.8882142949	 1.6251859412	-0.7313196461	 0.260332
H	-0.6944828643	 1.8603793987	-0.2786300312	 0.260276
H	-2.1506712169	-0.5913512573	 0.1727467198	 0.111335
H	 2.6290842994	-2.8511220651	-0.158473736	 0.105331
H	 2.40171192	-4.6958792345	 1.6057365852	 0.121623
H	 0.6852709952	-4.1148222047	 1.9223039776	 0.130875
H	 0.194804533	-4.4607242968	-0.3211047638	 0.250579
47.9979	155.6493	163.3408	185.2278	289.4084	326.5179	419.0345	469.7647	655.8161	672.9566	709.3764	737.9888	758.1048	782.6809	827.4317	886.7862	971.988	980.2422	1009.0694	1019.1478	1101.5832	1113.0093	1132.6769	1149.8626	1189.9072	1220.9865	1275.9716	1288.7558	1312.8115	1388.5759	1451.8479	1503.0511	1619.0621	1628.3152	1676.2656	3110.9542	3159.3108	3205.6569	3270.2839	3483.2716	3537.873	3640.6688
NC1=CN=C(O1)C1CN1	Nc1cnc(o1)[C@H]1CN1	
InChI=1S/C5H7N3O/c6-4-2-8-5(9-4)3-1-7-3/h2-3,7H,1,6H2	InChI=1S/C5H7N3O/c6-4-2-8-5(9-4)3-1-7-3/h2-3,7H,1,6H2/t3-/m1/s1
