19
gdb 84097	2.57685	1.55473	1.11911	2.6493	76.5	-0.2403	-0.0009	0.2394	1132.3463	0.157868	-423.023106	-423.014238	-423.013294	-423.056153	33.981	
C	-0.1000984084	 1.5057698691	 0.0193394343	-0.503857
C	-0.0973502016	 0.0118632462	-0.0550906669	 0.283106
C	-0.0680424909	-0.7576009048	-1.1472304097	-0.23373
C	-0.0066319877	-2.2437513274	-0.8296014857	 0.084791
O	 1.1507474592	-2.8744377778	-1.3564031974	-0.436269
C	-0.0312905151	-2.2503927658	 0.7021716284	-0.068826
O	 1.1536680626	-1.649849218	 1.2505902023	-0.311206
C	-0.077599084	-0.8657742616	 1.1789590059	 0.326577
C	-0.6432654065	-0.4138956355	 2.4950348375	-0.500865
H	 0.7824639089	 1.8771751124	 0.5551878313	 0.136058
H	-0.1045707648	 1.9514906751	-0.9784892021	 0.130028
H	-0.9764815896	 1.8808243262	 0.5620869173	 0.128939
H	 0.0025236638	-0.3985981614	-2.1684634321	 0.100076
H	-0.8592625872	-2.7940854179	-1.2436522172	 0.08912
H	 1.8914962373	-2.495689954	-0.8643128855	 0.287191
H	-0.4267199268	-3.097670699	 1.2559967037	 0.095022
H	-0.1100249124	 0.4661627116	 2.8699561263	 0.130759
H	-1.7003301421	-0.1465218073	 2.3914142172	 0.12756
H	-0.5537378945	-1.2079908601	 3.2396880226	 0.135527
129.1533	144.9138	180.7274	196.9945	238.5584	257.4864	300.7191	414.4564	450.6472	477.5472	548.4877	560.4185	599.8524	664.4941	753.4457	797.0974	874.1319	878.9396	908.3618	994.0145	1011.9313	1039.5783	1060.6497	1065.0934	1077.1658	1108.1821	1141.4368	1231.6656	1271.4526	1286.3693	1309.2128	1345.3064	1405.8671	1414.6219	1432.6771	1446.6634	1477.4956	1481.787	1488.0258	1497.625	1708.1842	3021.108	3037.4443	3048.3732	3068.4165	3098.7591	3116.5972	3128.2134	3149.7899	3191.5008	3764.4692
CC1=CC(O)C2OC12C	CC1=C[C@@H](O)[C@H]2O[C@@]12C	
InChI=1S/C7H10O2/c1-4-3-5(8)6-7(4,2)9-6/h3,5-6,8H,1-2H3	InChI=1S/C7H10O2/c1-4-3-5(8)6-7(4,2)9-6/h3,5-6,8H,1-2H3/t5-,6-,7+/m1/s1
