24
gdb 119044	1.98327	1.15798	0.83752	2.2732	87.09	-0.2331	0.0819	0.3149	1525.5721	0.215459	-405.52265	-405.511522	-405.510578	-405.55928	39.838	
C	 0.4551199328	-0.223928105	 2.3724763301	-0.377356
C	-0.572479821	-1.3071418167	 2.0185836639	-0.249977
C	-1.6828623775	-0.8079318633	 1.1044307263	 0.289875
C	-2.7216159964	 0.0370155613	 1.8310292043	-0.134917
O	-3.6023362743	 0.6262762255	 0.8987902399	-0.236439
C	-4.5778579563	 1.4464959489	 1.4961213886	-0.226688
N	-1.2641573553	-0.369858454	-0.2377744519	-0.381102
C	-2.1363450046	-1.5562087236	-0.1033277338	-0.03108
C	-1.5830338522	-2.8830273149	-0.5653047923	-0.406696
H	 1.2658819134	-0.6390729542	 2.9790219128	 0.107856
H	 0.8861297866	 0.1929488276	 1.4580029638	 0.137478
H	 0.0097666237	 0.5990488039	 2.9411789414	 0.109312
H	-0.0537130456	-2.1388173012	 1.5353506725	 0.103935
H	-1.0214662162	-1.716884029	 2.9337876432	 0.088755
H	-3.280559326	-0.5936216658	 2.5442050355	 0.092236
H	-2.2232187128	 0.8251264036	 2.4206100561	 0.091208
H	-4.1222899306	 2.2763067088	 2.0585718413	 0.108152
H	-5.1948652768	 1.8584464616	 0.6940399988	 0.129773
H	-5.2215804804	 0.8776939627	 2.1848470042	 0.108027
H	-1.8335031044	 0.4280062582	-0.5121936637	 0.233717
H	-3.1825993992	-1.3966325795	-0.3563484462	 0.089816
H	-0.5092062669	-2.9590895213	-0.3816644785	 0.125806
H	-2.0845833014	-3.7178754723	-0.0627273071	 0.110726
H	-1.7393606986	-3.0003407514	-1.6432890792	 0.117582
63.1618	77.3707	93.4961	145.722	161.4351	207.2708	222.1472	223.6754	251.7954	293.9552	338.103	385.4535	467.2577	528.851	543.6114	718.7406	774.5009	791.4852	885.9806	934.0794	990.5809	998.7543	1026.5616	1033.4144	1054.2555	1088.1534	1107.2657	1135.3232	1150.4931	1165.8197	1187.4473	1226.1244	1252.7991	1259.3987	1287.0704	1321.4738	1340.4228	1378.4995	1403.9165	1406.3563	1429.4937	1463.4358	1479.0127	1481.2348	1484.791	1492.2146	1498.2781	1501.1259	1505.4741	1511.4067	1526.4695	2947.9735	2975.0712	2976.7081	3020.8431	3020.8938	3032.6296	3038.255	3085.8996	3090.1893	3105.5364	3116.3576	3118.6506	3120.7856	3136.688	3494.0303
CCC1(COC)NC1C	CC[C@@]1(COC)N[C@H]1C	
InChI=1S/C7H15NO/c1-4-7(5-9-3)6(2)8-7/h6,8H,4-5H2,1-3H3	InChI=1S/C7H15NO/c1-4-7(5-9-3)6(2)8-7/h6,8H,4-5H2,1-3H3/t6-,7-/m0/s1
