24
gdb 58273	2.4948	0.92045	0.87968	3.3005	86.78	-0.2379	0.0377	0.2756	1548.6247	0.214459	-405.601941	-405.590126	-405.589182	-405.640369	41.854	
C	 0.0898995221	 1.3644437315	-0.2594710742	-0.395416
C	-0.2453231942	-0.1065336002	 0.0182769049	 0.045553
C	 0.6508179356	-0.6853457366	 1.1210574181	-0.401617
C	-1.7494479016	-0.3482684656	 0.3173132984	 0.060286
C	-2.2966532996	 0.4033920973	 1.5335175061	-0.424438
N	-2.5789657959	-0.0381496121	-0.8463803486	-0.321092
C	-2.7687596802	-0.9218929991	-1.8679485937	 0.411058
C	-3.6740383309	-0.4383579242	-2.9922162276	-0.483483
O	-2.2557417436	-2.0282263132	-1.8825270551	-0.38401
H	 1.1268416396	 1.4653695381	-0.5953207308	 0.115286
H	-0.550925411	 1.7806092683	-1.0436607238	 0.101965
H	-0.0223423816	 1.9850329118	 0.6368362544	 0.110554
H	-0.0500583761	-0.6775665555	-0.8970363165	 0.100567
H	 0.557608784	-0.1274026442	 2.0595969927	 0.110575
H	 0.4057364095	-1.7330470841	 1.3254232019	 0.118201
H	 1.7032964057	-0.6429345714	 0.8228560887	 0.113405
H	-1.8659030632	-1.4247533286	 0.4802983603	 0.107576
H	-1.7211585028	 0.1683719967	 2.4318978161	 0.129053
H	-2.2585796778	 1.4894473758	 1.3907417352	 0.114833
H	-3.3380374417	 0.1235329023	 1.7175262411	 0.122155
H	-3.0172331307	 0.8665398544	-0.8946779136	 0.239
H	-3.1116823448	-0.4573521014	-3.9295792988	 0.150973
H	-4.50564019	-1.139970518	-3.09792582	 0.151572
H	-4.0741712109	 0.5673765381	-2.8382521651	 0.107442
28.9181	44.8717	65.9252	86.7861	174.628	212.9224	240.8578	256.5767	264.4548	279.1942	319.4243	373.0049	406.3382	425.229	505.5028	560.146	624.1145	647.088	768.105	889.6395	914.2887	930.9237	960.6402	967.7373	1003.8347	1033.9123	1048.6073	1053.8348	1142.3759	1172.7013	1180.0404	1212.0623	1261.5972	1323.3792	1350.3766	1373.3859	1389.5813	1395.6986	1404.2838	1411.8605	1424.3618	1470.4319	1484.8927	1486.5563	1490.8763	1496.0915	1506.8314	1508.8763	1511.2771	1526.6755	1770.1438	3026.5245	3028.8235	3037.1312	3039.3045	3047.9666	3058.4874	3090.7649	3097.4509	3098.6332	3100.5786	3103.5924	3125.5592	3125.9568	3127.4298	3646.3336
CC(C)C(C)NC(C)=O	CC(C)[C@@H](C)NC(=O)C	
InChI=1S/C7H15NO/c1-5(2)6(3)8-7(4)9/h5-6H,1-4H3,(H,8,9)	InChI=1S/C7H15NO/c1-5(2)6(3)8-7(4)9/h5-6H,1-4H3,(H,8,9)/t6-/m1/s1
