23
gdb 79526	2.81362	1.67218	1.58037	0.2012	87.33	-0.2696	0.0813	0.3509	1012.6355	0.210517	-351.175874	-351.168777	-351.167833	-351.206777	30.849	
C	-0.1541397071	 1.5552764195	 0.0271462831	-0.426834
C	 0.0333051781	 0.0387483403	 0.0245676619	 0.041708
C	 0.9446245637	-0.521648858	-1.0693690407	-0.012584
C	 2.4357103616	-0.2825841629	-0.6115695734	-0.015812
C	 2.7200127306	-1.7737742617	-0.9108660078	-0.225358
C	 1.2074199692	-2.0307464973	-0.7156225633	-0.025369
C	 0.8357447644	-2.075900712	 0.7923473295	-0.225646
C	 0.852328073	-0.5807113578	 1.1885133707	-0.018464
C	 2.2783774345	-0.0486958767	 0.9151113703	-0.225406
H	 0.7983024603	 2.0918419128	-0.0118963632	 0.116821
H	-0.7408249991	 1.8729228801	-0.8416115281	 0.111402
H	-0.687664469	 1.887308424	 0.9246860804	 0.110227
H	-0.9561081226	-0.4354652787	-0.0222582195	 0.059724
H	 0.7099793843	-0.2929564314	-2.1091267499	 0.052435
H	 3.046554426	 0.4701859845	-1.1127926668	 0.053979
H	 3.0249207736	-1.9282953457	-1.9507327397	 0.08923
H	 3.4203547469	-2.3027409147	-0.2545196409	 0.081947
H	 0.7364425312	-2.8183333716	-1.3067143692	 0.053895
H	-0.165637664	-2.4965417122	 0.9356889075	 0.089155
H	 1.5358476696	-2.6841264179	 1.3751011274	 0.086599
H	 0.4776683559	-0.3769322583	 2.1947205856	 0.048096
H	 3.0420907719	-0.5783401988	 1.4947025448	 0.088005
H	 2.3602367469	 1.0121124345	 1.1697116113	 0.092251
181.9048	220.1836	272.6687	338.6148	369.2643	460.6331	497.052	569.2958	616.9922	722.7626	795.4082	818.1915	831.7678	857.8339	872.8031	893.5517	915.7028	925.7875	949.4518	972.4938	976.1128	985.2219	1033.6615	1056.6081	1073.7718	1083.3421	1094.2054	1117.9807	1136.1821	1154.9559	1184.793	1226.4046	1233.2499	1238.8503	1265.3972	1273.7237	1279.7013	1304.08	1312.3839	1332.9797	1348.3665	1356.6255	1389.4192	1412.4356	1487.9254	1489.6286	1498.2073	1502.3778	1516.1626	3014.9395	3029.8734	3031.4704	3034.1425	3044.3327	3074.6563	3078.04	3079.8241	3081.9621	3085.752	3090.6629	3091.2643	3108.3789	3113.9006
CC1C2C3CC2CC1C3	C[C@H]1[C@H]2[C@@H]3C[C@H]2C[C@H]1C3	
InChI=1S/C9H14/c1-5-6-2-7-4-8(3-6)9(5)7/h5-9H,2-4H2,1H3	InChI=1S/C9H14/c1-5-6-2-7-4-8(3-6)9(5)7/h5-9H,2-4H2,1H3/t5-,6-,7+,8-,9+/m1/s1
