17
gdb 62432	3.77721	1.24064	1.20748	5.3371	78.76	-0.2404	-0.0173	0.2231	1076.6707	0.136489	-380.863911	-380.856048	-380.855104	-380.895988	30.317	
C	-0.1656343396	 1.5698755405	 0.0277944592	-0.477313
C	-0.0134206147	 0.063202499	-0.0529999826	 0.142265
C	-1.0621057397	-0.6458049782	 0.6587597246	 0.269947
N	-1.9258822454	-1.190606324	 1.2010696973	-0.342818
C	 0.5885162081	-0.6672634093	-1.2388824815	-0.105965
C	 1.3934302215	 0.1281266618	-2.2030861339	-0.078628
C	 2.4664305557	 0.6315281865	-1.5907658162	-0.088397
C	 2.4906972508	 0.2143112818	-0.137971657	-0.213745
N	 1.2909658268	-0.6361944772	 0.0584085162	-0.131647
H	 0.5015809949	 2.0817102801	-0.6658423823	 0.137623
H	-1.1948382295	 1.8495400301	-0.2127475713	 0.145824
H	 0.0445272217	 1.9176007657	 1.0445849779	 0.141953
H	 0.1393767408	-1.6079806931	-1.5461852086	 0.117111
H	 1.1235118186	 0.2507308449	-3.2438784332	 0.114699
H	 3.2212778612	 1.2670053688	-2.0385660492	 0.11393
H	 3.379474359	-0.3795714293	 0.1089134607	 0.130525
H	 2.4823290898	 1.0676152717	 0.55229455	 0.124635
135.9288	158.2144	188.1585	243.2329	255.0856	354.9873	424.6662	473.5115	559.9544	572.2341	661.7273	739.416	748.1613	787.6903	829.2873	879.3581	929.5714	952.9479	957.3992	1018.9879	1025.5945	1063.6284	1092.8993	1108.7084	1124.6957	1202.3043	1240.2329	1290.1159	1314.8688	1350.7788	1368.0427	1411.9565	1481.6183	1491.9135	1497.5095	1663.5209	2352.714	3023.7704	3047.8648	3050.1867	3111.9717	3146.3028	3147.3328	3202.6674	3230.045
CC1(C#N)C2C=CCN12	C[C@@]1(C#N)[C@H]2C=CCN12	
InChI=1S/C7H8N2/c1-7(5-8)6-3-2-4-9(6)7/h2-3,6H,4H2,1H3	InChI=1S/C7H8N2/c1-7(5-8)6-3-2-4-9(6)7/h2-3,6H,4H2,1H3/t6-,7-,9?/m1/s1
