17
gdb 70398	2.47526	1.51801	1.33724	2.7603	74.24	-0.2452	0.0237	0.2689	1040.2111	0.132143	-421.751544	-421.742468	-421.741524	-421.784759	34.391	
C	-0.1968157335	 1.5161534928	 0.0886590409	-0.516482
C	 0.1088197952	 0.0561495234	 0.0380220647	 0.396331
O	-0.7305464006	-0.8485315641	 0.7575498598	-0.28574
C	 0.6818197971	-0.9116741225	 0.9923760804	-0.024806
C	 1.2568990354	-1.7982457081	-0.1126569374	-0.323705
C	 0.6870185317	-0.7481790098	-1.163214842	 0.182655
O	-0.3175316856	-1.1814000372	-2.0510343797	-0.462992
C	 1.7553000565	-0.0365105559	-1.8572564637	 0.281185
C	 2.6288077697	 0.5303426861	-2.4596814967	-0.4852
H	 0.6471547145	 2.1005708368	-0.2876948183	 0.136041
H	-1.0720354826	 1.7427235614	-0.5296250462	 0.141665
H	-0.414421118	 1.8206082435	 1.1155587568	 0.13308
H	 1.0298348717	-0.7661608943	 2.0081792713	 0.104603
H	 2.3453898312	-1.8694565544	-0.1321008712	 0.116304
H	 0.798755455	-2.7868265985	-0.18208345	 0.11823
H	 0.1104350485	-1.5157360171	-2.8465064342	 0.286122
H	 3.3988390337	 1.0369256079	-2.9878500846	 0.202711
115.1594	130.724	185.5219	198.6922	226.3116	246.7342	305.7731	370.5454	453.817	484.1737	529.8459	537.7966	627.6748	668.0027	672.9948	680.9973	780.0852	869.1847	883.5625	940.1014	945.8151	981.2629	1043.4827	1094.6066	1104.2318	1116.5564	1193.0313	1220.4509	1240.296	1266.991	1358.9153	1401.5344	1449.1174	1470.5854	1484.1636	1496.0905	2225.9998	3042.3758	3075.774	3109.4471	3128.7943	3143.8866	3191.8195	3498.1893	3812.8621
CC12OC1CC2(O)C#C	C[C@]12O[C@H]1C[C@]2(O)C#C	
InChI=1S/C7H8O2/c1-3-7(8)4-5-6(7,2)9-5/h1,5,8H,4H2,2H3	InChI=1S/C7H8O2/c1-3-7(8)4-5-6(7,2)9-5/h1,5,8H,4H2,2H3/t5-,6-,7+/m0/s1
