21
gdb 108198	3.02897	1.48723	1.31411	1.4609	76.86	-0.2475	0.0812	0.3287	1081.9466	0.184206	-424.251494	-424.243384	-424.24244	-424.284038	32.	
C	 0.0178291595	 1.5576423319	-0.0415881139	-0.38266
C	 0.0279491004	 0.0270285725	-0.0598198992	-0.269981
C	 0.7350256347	-0.5565329911	-1.2629837425	 0.502007
C	 0.861035048	-2.0950786164	-1.3653061992	-0.258755
C	 2.0498141058	-2.2208336311	-2.3644064976	-0.226097
C	 2.3371476454	-0.7298864014	-2.6455838462	 0.03734
C	 1.1734726363	-0.1369610732	-3.4613302439	-0.089361
O	 0.126060282	-0.0960738316	-2.4835399121	-0.314825
O	 2.0850301064	-0.1218352376	-1.3706362656	-0.286985
H	 1.0373957805	 1.9506138814	-0.0167182851	 0.129479
H	-0.4728688022	 1.9474761786	-0.9364660348	 0.131422
H	-0.5165846844	 1.9294747113	 0.8373820507	 0.104729
H	 0.5172592094	-0.3672199767	 0.8377271093	 0.106365
H	-0.9963127409	-0.3627333653	-0.0590949007	 0.110169
H	 1.095552922	-2.535863042	-0.3929719891	 0.102522
H	-0.0655489662	-2.5377459884	-1.7350151361	 0.109332
H	 2.9171579561	-2.6951104915	-1.90014802	 0.107348
H	 1.8003573204	-2.778759307	-3.270370021	 0.102201
H	 3.3382771965	-0.4828621126	-2.9962667898	 0.084203
H	 1.3908806831	 0.8773266712	-3.8171203241	 0.102866
H	 0.8803982473	-0.7621526211	-4.3124590491	 0.098679
88.5322	145.7714	186.6641	215.9961	302.1641	365.5863	374.6434	438.8774	579.3049	628.7309	656.5919	759.5864	790.066	832.0057	838.6303	854.6804	907.2163	944.9595	953.6849	972.9748	1004.1231	1011.5212	1029.4798	1052.2698	1071.1826	1134.4508	1144.6573	1179.3528	1188.5044	1210.4064	1242.8146	1287.2369	1298.2515	1318.1344	1327.3845	1344.1148	1373.0126	1403.4745	1406.6713	1471.7671	1479.2985	1491.9166	1497.9596	1512.6035	1522.1213	3021.5776	3042.6322	3050.0242	3062.1779	3065.4593	3072.7717	3079.7796	3108.403	3119.5682	3127.809	3133.2926	3134.1782
CCC12CCC(CO1)O2	CC[C@@]12CC[C@@H](CO1)O2	
InChI=1S/C7H12O2/c1-2-7-4-3-6(9-7)5-8-7/h6H,2-5H2,1H3	InChI=1S/C7H12O2/c1-2-7-4-3-6(9-7)5-8-7/h6H,2-5H2,1H3/t6-,7+/m0/s1
