15
gdb 96739	1.92152	1.37531	0.89305	4.2174	69.15	-0.2912	-0.0352	0.256	1273.2611	0.109569	-453.974192	-453.964487	-453.963543	-454.010348	32.076	
C	-0.6850729483	 0.7122951497	 2.4021978652	-0.351224
N	-0.4254512817	-0.5260502244	 1.6911495558	-0.231428
C	-1.0049862782	-0.819796092	 0.6190545262	 0.371832
C	-0.7814282393	-2.1519294885	-0.0675003677	-0.384008
C	-0.2127282276	-1.9780105102	-1.4044123039	 0.255754
N	 0.2414602887	-1.8114371654	-2.4532777408	-0.294556
O	-1.9589008451	-0.0503857512	-0.0450598019	-0.214402
C	-1.5625350968	 1.1083639021	-0.6656252502	 0.171217
O	-2.3460956097	 1.8419171466	-1.1730938934	-0.24392
H	-0.8795849607	 0.4662774165	 3.4504422978	 0.15089
H	 0.2215333867	 1.3261090707	 2.3845256752	 0.149997
H	-1.5240782704	 1.3005570107	 2.0142396439	 0.139011
H	-0.1127116633	-2.7541332837	 0.5502865762	 0.183041
H	-1.7402374956	-2.6757404936	-0.1594035994	 0.180678
H	-0.4691610886	 1.2462823028	-0.6371256629	 0.117119
41.9238	55.3833	112.9082	130.8354	147.0248	214.8312	265.419	278.0145	360.6371	384.5395	465.9319	561.4933	620.3088	733.223	903.9911	924.1599	944.7427	1035.897	1056.7529	1092.1743	1127.4044	1137.8337	1192.9507	1240.2819	1322.2181	1415.4806	1437.4635	1445.6768	1484.1723	1503.1249	1784.2611	1883.0746	2367.4142	3010.4921	3027.1024	3053.6609	3099.1809	3103.9228	3129.3487
CN=C(CC#N)OC=O	CN=C(CC#N)OC=O	
InChI=1S/C5H6N2O2/c1-7-5(2-3-6)9-4-8/h4H,2H2,1H3	InChI=1S/C5H6N2O2/c1-7-5(2-3-6)9-4-8/h4H,2H2,1H3
