20
gdb 50162	4.80296	0.88053	0.8526	4.4294	82.11	-0.2381	0.0279	0.266	1412.7848	0.171357	-403.147824	-403.139048	-403.138104	-403.183466	31.83	
O	 0.1477197205	-0.0017351227	 0.8394699911	-0.335422
C	 0.1096051071	 1.1791291407	 0.5558077259	 0.133759
N	 1.1192438772	 1.8605420189	-0.0229713776	-0.039315
C	 2.4525786967	 1.4189255197	-0.4240211952	-0.229642
C	 2.7459951283	 2.8811642877	-0.8846943409	 0.342647
C	 4.0145755961	 3.5890664477	-0.3500841539	-0.281356
C	 4.675111568	 3.3823397999	-1.7408502693	-0.20814
C	 3.2602602358	 3.1180859483	-2.3254469388	-0.281564
C	 1.3098325214	 3.2545420708	-0.4249786027	-0.263349
H	-0.771499618	 1.827920254	 0.7447561065	 0.064295
H	 3.0614227055	 1.0504773595	 0.4095125425	 0.120289
H	 2.4445758706	 0.6620894613	-1.21669646	 0.119986
H	 3.8240615246	 4.6469992674	-0.1425882652	 0.104272
H	 4.5022637169	 3.1465677725	 0.5226167393	 0.104574
H	 5.2438391117	 4.2161914414	-2.1568275359	 0.103086
H	 5.3026448506	 2.4876036819	-1.7671681285	 0.110408
H	 3.1426434712	 2.2973409757	-3.0380788078	 0.104541
H	 2.8239964547	 4.0225115543	-2.7615862874	 0.104307
H	 0.640060586	 3.5891292957	-1.2270336605	 0.11328
H	 1.2623944652	 3.9739147553	 0.4021545083	 0.113344
11.7131	82.9592	97.1687	184.5215	247.1191	324.0477	375.9604	382.4143	404.5746	610.2924	692.8901	778.9396	805.3271	863.8917	877.6128	901.4086	934.9543	943.7588	944.2526	968.7108	1033.7449	1067.8495	1138.817	1151.6453	1160.4748	1178.6188	1188.462	1211.5448	1232.7284	1257.5626	1258.5527	1278.4339	1287.6351	1301.3748	1344.0068	1403.111	1454.1344	1473.3585	1484.2533	1501.3892	1506.5748	1521.8263	1790.6845	2912.5218	3009.3836	3027.2607	3045.9624	3051.3888	3053.7942	3065.8449	3070.2077	3096.9175	3101.2862	3123.0535
O=CN1CC2(CCC2)C1	O=CN1CC2(CCC2)C1	
InChI=1S/C7H11NO/c9-6-8-4-7(5-8)2-1-3-7/h6H,1-5H2	InChI=1S/C7H11NO/c9-6-8-4-7(5-8)2-1-3-7/h6H,1-5H2
