21
gdb 75617	2.04618	1.66253	1.08673	2.5738	82.9	-0.2334	-0.0156	0.2179	1194.7671	0.180601	-387.093651	-387.084112	-387.083168	-387.127976	35.757	
C	-0.5444987345	 0.9678122444	-1.4937781867	-0.408025
C	 0.2091245499	-0.2398922927	-0.952722904	-0.183118
C	 1.7146329504	-0.333569712	-1.2672406979	 0.39124
O	 2.3711690463	-0.0647696978	-2.2328331925	-0.307516
C	 2.0727447893	-0.720187124	 0.1807019949	-0.183123
C	 3.2601167987	-0.0127066744	 0.8201240981	-0.408024
C	 0.617916107	-0.3282270034	 0.5382908131	 0.338332
C	 0.2137621102	 0.6396077045	 1.6129180407	-0.315276
C	-0.2065656878	-0.8125320984	 1.6886728407	-0.329517
H	-0.0669966649	 1.9022860426	-1.1841889141	 0.122949
H	-0.557609169	 0.9446098691	-2.5873639606	 0.135137
H	-1.5819471035	 0.9826436093	-1.1434856608	 0.116807
H	-0.2839629631	-1.1688173007	-1.2718371742	 0.100028
H	 2.2031583261	-1.8097978653	 0.2407911526	 0.100028
H	 3.1458627684	 1.0742677916	 0.7698511198	 0.122948
H	 3.375967669	-0.2951139233	 1.8718124771	 0.116807
H	 4.1830573445	-0.2771230063	 0.2958100794	 0.135138
H	 0.973717488	 0.987501367	 2.3050704868	 0.115349
H	-0.5457873782	 1.3791278442	 1.380902779	 0.115349
H	-1.250196155	-1.0516569819	 1.5078294062	 0.112243
H	 0.2703270584	-1.4435309925	 2.4326238422	 0.112243
47.8113	176.992	182.1472	193.5955	206.9424	215.3986	223.8148	253.1814	428.0693	438.8811	497.595	555.4143	595.5228	732.7001	775.0967	792.6689	821.3456	915.2604	919.6001	949.7956	971.6519	976.1063	1048.5216	1052.008	1083.2604	1088.9957	1110.6333	1111.201	1157.2575	1187.7611	1188.5653	1241.1239	1244.3594	1321.5055	1344.3033	1378.2197	1404.1404	1406.6959	1466.8905	1491.8665	1492.1705	1495.9191	1499.0121	1508.5258	1884.1675	3010.6415	3015.4214	3036.2748	3037.0364	3103.9277	3104.4785	3115.149	3115.7078	3118.5908	3129.0337	3196.9984	3214.5822
CC1C(=O)C(C)C11CC1	C[C@H]1C(=O)[C@@H](C)C21CC2	
InChI=1S/C8H12O/c1-5-7(9)6(2)8(5)3-4-8/h5-6H,3-4H2,1-2H3	InChI=1S/C8H12O/c1-5-7(9)6(2)8(5)3-4-8/h5-6H,3-4H2,1-2H3/t5-,6+
