20
gdb 72233	2.54354	1.91333	1.34221	1.0727	78.01	-0.2122	0.0696	0.2818	1009.968	0.171936	-403.107506	-403.099537	-403.098592	-403.139269	32.329	
C	-0.0837741389	 1.5222492786	 0.0672046028	-0.504493
C	 0.0248786441	 0.026495119	 0.0237409795	 0.286766
C	 0.8074622588	-0.7933440362	-0.9926916627	-0.234104
N	-0.1609222585	-1.9428024857	-0.833343616	-0.121674
C	 0.3903708793	-2.9009910761	 0.1540302056	-0.160515
C	 0.623833971	-2.099693345	 1.4663078083	-0.314059
C	-0.249889999	-0.8655355211	 1.2343065148	 0.365765
O	-0.7877357403	-0.1792281455	 2.3209185778	-0.479302
C	-1.0477993649	-1.0517018844	-0.0355381577	-0.177822
H	 0.8774280018	 1.9769840304	 0.335051398	 0.118966
H	-0.3805454056	 1.9211688448	-0.9092638233	 0.115341
H	-0.8177422864	 1.8388797432	 0.8112058114	 0.13795
H	 0.7399884145	-0.3804542511	-2.0046731359	 0.105441
H	 1.855517846	-1.0377409563	-0.7780586925	 0.092004
H	-0.3523546484	-3.6902015148	 0.3108923022	 0.101938
H	 1.2963277165	-3.3667234378	-0.243264947	 0.103724
H	 0.2830735496	-2.6421978444	 2.3554727701	 0.089149
H	 1.6765775001	-1.8467705021	 1.6282469342	 0.10581
H	-1.4217059943	-0.7593598555	 2.757109555	 0.283109
H	-2.1252164254	-1.0159869398	-0.1483947046	 0.086004
172.6749	196.3692	222.817	258.4887	284.8736	352.5295	393.7338	422.0727	454.4915	586.0848	613.4152	677.7069	723.6853	768.2682	825.2001	868.0074	917.0841	934.6574	948.8194	955.6487	970.6263	1016.8842	1031.6887	1087.0607	1134.1182	1155.9084	1171.4845	1191.8999	1202.2686	1217.9662	1245.9567	1265.4308	1291.7627	1307.1105	1340.6982	1355.0366	1413.0425	1443.4312	1489.5585	1490.7523	1496.7271	1499.6657	1520.3313	3017.0098	3027.6955	3036.0878	3049.173	3069.506	3073.8584	3082.0529	3102.7513	3128.0293	3178.1128	3790.9344
CC12CN3CCC1(O)C23	C[C@@]12CN3CC[C@]1(O)[C@@H]23	
InChI=1S/C7H11NO/c1-6-4-8-3-2-7(6,9)5(6)8/h5,9H,2-4H2,1H3	InChI=1S/C7H11NO/c1-6-4-8-3-2-7(6,9)5(6)8/h5,9H,2-4H2,1H3/t5-,6+,7+/m1/s1
