19
gdb 54813	3.05321	1.3712	1.26667	2.3787	81.12	-0.222	-0.0088	0.2131	1095.582	0.159262	-385.908797	-385.900507	-385.899563	-385.941998	31.622	
C	-0.0339171174	 1.4761529211	 0.3923314299	-0.479988
C	 0.1779886494	 0.0050061348	 0.0643125075	 0.3837
O	 1.2902430897	-0.4451383322	-0.1193823677	-0.322553
C	-1.0687988234	-0.8110457789	-0.0018831758	-0.11776
C	-1.1667920056	-2.2358353401	-0.5125868618	-0.086459
C	 0.094116505	-3.0927949419	-0.6666502606	-0.267032
C	 0.5985402614	-3.2405608851	 0.7510191464	-0.040184
C	-0.2048894176	-2.6457863568	 1.6355102109	-0.078726
C	-1.3601094875	-1.9912764687	 0.9635680228	-0.094593
H	 0.9310420883	 1.975382596	 0.4870141661	 0.137682
H	-0.6180525734	 1.9601568892	-0.3993332147	 0.13582
H	-0.6044092879	 1.5864856687	 1.3213891573	 0.135452
H	-1.9591102616	-0.2145655429	-0.1835702486	 0.086979
H	-2.0136922076	-2.4458555375	-1.1557519975	 0.089017
H	-0.1582597737	-4.0653574478	-1.109553819	 0.101217
H	 0.8473050666	-2.6273013164	-1.3084326637	 0.136632
H	 1.5323320657	-3.7377129548	 0.9859320733	 0.097071
H	-0.0460944983	-2.6003538931	 2.7063452349	 0.092008
H	-2.3354231523	-1.9773592435	 1.4380622303	 0.091718
57.2224	124.748	160.1454	175.6893	288.3376	319.0287	413.7027	469.6445	615.4379	619.9537	703.8926	733.8001	759.9041	772.9739	806.5146	882.601	924.874	929.1051	946.3216	962.8758	969.2355	1015.0972	1036.5689	1052.7209	1069.3601	1111.0144	1136.45	1155.7204	1195.3289	1213.8254	1301.5539	1309.2093	1363.5967	1374.5461	1383.9663	1423.2733	1461.503	1465.579	1475.9584	1667.0151	1785.2168	3021.8089	3032.3445	3090.099	3092.4872	3137.8401	3150.9004	3163.0632	3175.9502	3192.8291	3217.3078
CC(=O)C1C2CC=CC12	CC(=O)[C@H]1[C@H]2CC=C[C@@H]12	
InChI=1S/C8H10O/c1-5(9)8-6-3-2-4-7(6)8/h2-3,6-8H,4H2,1H3	InChI=1S/C8H10O/c1-5(9)8-6-3-2-4-7(6)8/h2-3,6-8H,4H2,1H3/t6-,7+,8-/m1/s1
