17
gdb 53042	3.71031	0.89788	0.81125	1.8043	80.05	-0.2256	0.0321	0.2577	1452.4237	0.134137	-421.751192	-421.742103	-421.741159	-421.786775	32.585	
C	-0.0083803738	 1.517779264	-0.0025914203	-0.510822
C	-0.0032981262	 0.0628826548	-0.0021759821	 0.282005
C	 0.0016245364	-1.1434747173	-0.0009466603	-0.24983
C	 0.0223027475	-2.561782651	 0.003189618	 0.104965
C	 0.7411314971	-3.4693298658	-0.9969618329	-0.151952
O	-0.3122101617	-4.4752320775	-0.9178333578	-0.307786
C	-1.0936528896	-3.6291932499	-0.069708199	-0.025203
C	-0.3624152908	-3.4386246422	 1.2087113667	 0.062505
O	 0.4648542522	-4.4278006155	 1.7187477193	-0.431061
H	 0.7388931851	 1.9126494541	-0.6999735156	 0.151116
H	-0.9837067046	 1.9150775309	-0.3058515271	 0.148767
H	 0.2213441072	 1.9205826512	 0.9902544813	 0.14989
H	 0.788513654	-3.0511322736	-2.0059700995	 0.125364
H	 1.7175147796	-3.8631082784	-0.69577473	 0.118085
H	-2.1610721304	-3.5711548429	-0.2519087534	 0.115638
H	-0.8817004023	-2.8825773983	 1.9831677199	 0.119554
H	 0.4642477203	-5.1412761327	 1.0653040929	 0.298765
15.8938	88.8753	99.1082	222.9491	252.4943	275.3511	299.8596	413.6327	447.8739	453.5711	505.3673	562.3968	652.6513	787.6644	818.4461	870.313	934.1783	986.4189	1007.424	1021.4541	1051.0469	1053.3461	1059.9751	1072.9849	1115.1603	1160.8217	1213.1996	1277.4045	1304.9498	1322.3371	1396.0353	1415.3071	1464.6867	1475.4202	1478.7401	1509.9362	2359.444	3023.9639	3042.9454	3083.2031	3086.1182	3103.8083	3167.9233	3179.2477	3745.3173
CC#CC12COC1C2O	CC#C[C@]12CO[C@H]1[C@H]2O	
InChI=1S/C7H8O2/c1-2-3-7-4-9-6(7)5(7)8/h5-6,8H,4H2,1H3	InChI=1S/C7H8O2/c1-2-3-7-4-9-6(7)5(7)8/h5-6,8H,4H2,1H3/t5-,6+,7-/m1/s1
