20
gdb 69852	2.24723	2.06386	1.50053	1.3751	77.66	-0.219	0.0719	0.2909	971.2477	0.172157	-403.100693	-403.092898	-403.091954	-403.132216	32.396	
C	-0.0347060869	 1.4641788723	-0.0405630111	-0.489939
C	 0.0367754259	-0.035537215	-0.0464683478	 0.262774
N	-0.6260681428	-0.8551708795	 1.0033463604	-0.389066
C	 0.8524104203	-0.8978921061	 0.832520061	-0.080389
C	 1.3664782442	-1.9538981225	-0.1693647023	-0.054766
C	 0.0993054297	-2.2922444702	-1.0049624673	-0.295138
C	 0.2236433622	-0.7926089547	-1.3978957388	 0.369525
O	-0.3491037809	-0.2431234352	-2.5443801754	-0.487739
C	 1.7690374401	-1.0157216012	-1.3604270992	-0.253835
H	 0.7382526601	 1.8964343942	-0.6840822271	 0.132803
H	-1.002116046	 1.8191387095	-0.4146506392	 0.118911
H	 0.1020435642	 1.86248048	 0.9705359237	 0.110537
H	-0.8292887845	-0.2449319567	 1.7944397559	 0.220591
H	 1.4934359614	-0.5142463609	 1.6191757194	 0.086548
H	 2.0309454543	-2.7333691193	 0.1988663829	 0.066439
H	 0.339013717	-2.9364578226	-1.8527152184	 0.092923
H	-0.7932632007	-2.6269538201	-0.4808567109	 0.119363
H	-1.3070768452	-0.2789678577	-2.447243041	 0.281216
H	 2.4050106	-0.153185587	-1.1403449698	 0.088781
H	 2.1378895178	-1.5544419973	-2.2360892752	 0.100459
173.6224	196.9405	240.5948	274.7359	312.09	385.2108	440.5391	475.5718	528.1599	549.2572	603.1099	635.0327	726.5972	817.1042	849.657	859.768	882.5746	920.0123	926.2348	959.386	971.4413	1002.0399	1016.0296	1036.8509	1068.2548	1087.258	1120.6911	1133.8928	1154.773	1186.0097	1224.6163	1226.4372	1266.1301	1276.6568	1323.6585	1334.5355	1355.9503	1411.0264	1434.7953	1474.2449	1482.2193	1496.6664	1516.9841	3025.2639	3054.5176	3084.9144	3087.2155	3101.5355	3121.9594	3129.5843	3164.2821	3167.8634	3470.2569	3803.3738
CC12NC1C1CC2(O)C1	C[C@]12N[C@H]1[C@H]1C[C@]2(O)C1	
InChI=1S/C7H11NO/c1-6-5(8-6)4-2-7(6,9)3-4/h4-5,8-9H,2-3H2,1H3	InChI=1S/C7H11NO/c1-6-5(8-6)4-2-7(6,9)3-4/h4-5,8-9H,2-3H2,1H3/t4-,5-,6-,7-/m0/s1
