17
gdb 78466	3.52328	1.46468	1.43199	2.0991	70.06	-0.2382	0.0052	0.2434	956.4791	0.137642	-421.780374	-421.77371	-421.772766	-421.811004	28.077	
O	-0.1484743103	 1.4593992709	 0.0147020448	-0.435342
C	 0.0153318677	 0.0697254623	-0.0109719654	 0.068664
C	-0.3841527045	-0.7057732614	 1.2286376841	-0.106948
C	-1.2695145458	-0.7006474198	-0.0035091498	-0.06259
C	-1.3070982976	-2.2231646852	-0.3602346685	-0.004561
O	-1.3258930159	-2.8047842644	 0.9570001591	-0.242229
C	-0.0725565052	-2.2307967642	 1.3743728701	-0.001551
C	 0.8430162714	-2.6720840361	 0.2319755393	-0.084515
C	 0.0698643965	-2.6666077745	-0.8542437031	-0.082314
H	 0.6181372299	 1.8381027873	 0.4575666096	 0.286273
H	 0.8466729703	-0.2860383287	-0.6144794709	 0.088443
H	-0.6671061558	-0.1501235732	 2.1142535362	 0.097543
H	-2.198171948	-0.144448064	-0.0212179914	 0.105247
H	-2.1775499234	-2.5376113919	-0.9331643141	 0.07932
H	 0.1828652192	-2.5534521739	 2.382277264	 0.077694
H	 1.9081427416	-2.8428455016	 0.3074051155	 0.10739
H	 0.3457176298	-2.8309448115	-1.8867486793	 0.109474
225.5565	247.2459	304.6627	310.1834	378.6553	499.6748	516.2835	617.9087	720.0461	736.0497	768.3787	804.8234	849.4071	873.9425	900.3052	908.7215	915.0362	943.7491	965.1256	971.4274	979.5939	1012.6604	1090.5106	1094.9072	1103.4209	1145.0632	1163.0045	1222.918	1230.1126	1243.2986	1262.7011	1290.2535	1316.1587	1329.3321	1333.6637	1447.5443	1637.2986	3129.8353	3135.2876	3139.3355	3186.9981	3197.6273	3217.2314	3242.9155	3809.0559
OC1C2C1C1OC2C=C1	O[C@H]1[C@H]2[C@@H]1[C@@H]1O[C@H]2C=C1	
InChI=1S/C7H8O2/c8-7-5-3-1-2-4(9-3)6(5)7/h1-8H	InChI=1S/C7H8O2/c8-7-5-3-1-2-4(9-3)6(5)7/h1-8H/t3-,4+,5+,6-,7-
