19
gdb 116663	2.62401	0.96678	0.71269	0.8069	86.69	-0.2343	-0.0128	0.2215	1579.8873	0.159282	-415.397138	-415.387304	-415.386359	-415.432487	34.764	
C	 0.0729939231	 0.9048517619	-1.0277286048	-0.399463
C	-0.3961107264	 0.3561227796	 0.3218915383	-0.111404
N	-1.5698277997	-0.5031778425	 0.357865179	-0.260239
C	-2.1843687277	-0.7864785347	-0.7088020879	 0.118102
N	-3.3227604789	-1.6154913817	-0.7032494312	-0.122714
C	-3.9771652935	-1.9071610021	-1.9055939265	 0.094977
N	-3.5718439461	-1.4420371217	-3.0161425618	-0.465293
C	-3.8006947571	-2.1477366777	 0.5002037362	 0.097316
N	-4.8244348428	-2.8986237082	 0.5398291731	-0.466683
H	 0.9601419048	 1.5272916323	-0.8780298621	 0.11592
H	 0.342546507	 0.1035452655	-1.7235336142	 0.127719
H	-0.6922486624	 1.5258137615	-1.5049146539	 0.127715
H	 0.4211167484	-0.2075471498	 0.7918030716	 0.115128
H	-0.5962753558	 1.1910981999	 1.0068335967	 0.115123
H	-1.9431551704	-0.4561585973	-1.7176892304	 0.148245
H	-4.8354645973	-2.557401654	-1.7366748856	 0.151345
H	-4.1752154218	-1.7654321551	-3.7693001634	 0.234893
H	-3.1831208356	-1.8270510987	 1.3391184824	 0.144481
H	-5.0114158078	-3.1817394074	 1.4992935443	 0.23483
53.2999	108.9343	128.0495	173.6979	195.0678	208.7746	242.2334	286.8083	288.4503	387.5504	421.4211	517.677	643.7257	713.9268	779.0251	820.7	837.6911	889.2691	911.9632	1012.4656	1065.1713	1087.2444	1092.2483	1093.297	1148.0275	1153.1182	1197.0831	1311.1175	1320.4605	1357.2503	1377.7183	1401.1312	1409.0778	1415.9359	1431.2205	1482.8563	1494.1151	1506.1697	1711.4871	1725.3482	1757.48	3015.1095	3034.6701	3035.8104	3105.4117	3110.3282	3139.5295	3140.1638	3152.616	3511.5726	3513.1832
CCN=CN(C=N)C=N	CCN=CN(C=N)C=N	
InChI=1S/C5H10N4/c1-2-8-5-9(3-6)4-7/h3-7H,2H2,1H3	InChI=1S/C5H10N4/c1-2-8-5-9(3-6)4-7/h3-7H,2H2,1H3
