21
gdb 123234	8.37368	0.40184	0.39483	3.8194	78.81	-0.261	0.0085	0.2695	2675.8914	0.179686	-461.374499	-461.363466	-461.362522	-461.413168	36.435	
C	-0.141537545	 1.3478659081	-0.2015609542	-0.229491
O	-0.0032089973	-0.0465567661	-0.0715645697	-0.231063
C	 0.66475627	-0.6370993847	-1.1628838834	-0.049142
C	 0.7588271473	-2.137059827	-0.9148216571	-0.203843
C	 1.47352338	-2.8760935439	-2.0499047288	-0.192628
C	 1.5705554382	-4.3738496066	-1.7850714606	-0.090428
O	 2.3162750491	-5.0233513803	-2.8235432575	-0.174255
C	 1.6452789976	-5.7860668643	-3.7048323701	 0.170547
O	 2.1744284736	-6.3335616049	-4.6244298044	-0.274286
H	 0.8358838588	 1.8522148042	-0.2658881978	 0.104538
H	-0.7252690037	 1.619873739	-1.0955344826	 0.104139
H	-0.6667946743	 1.7091512497	 0.6858084532	 0.12852
H	 0.1209816	-0.4364340201	-2.1031236522	 0.0858
H	 1.673898994	-0.2037469996	-1.2791662487	 0.087124
H	 1.2841070455	-2.2990032373	 0.034289174	 0.112425
H	-0.2562049328	-2.5308540438	-0.7814771528	 0.110022
H	 0.9457347145	-2.7177952687	-2.9990865686	 0.10801
H	 2.4870828746	-2.4808670056	-2.1859372109	 0.120283
H	 2.1048330227	-4.5738596827	-0.8512238542	 0.127668
H	 0.5720368471	-4.824119296	-1.7041738333	 0.111685
H	 0.5622897701	-5.8521241395	-3.4766074404	 0.074375
27.3798	52.0335	72.8002	95.5889	125.2123	135.1212	161.0441	236.8348	264.8815	284.4043	377.6645	448.5069	495.6992	680.626	750.1932	806.906	939.0428	978.4271	1020.9051	1044.3876	1053.0066	1057.5027	1101.3052	1138.9968	1166.3959	1177.0703	1208.0362	1223.88	1252.5032	1275.5963	1302.2057	1316.1677	1335.1873	1369.0109	1409.946	1430.0259	1434.8207	1482.4269	1486.1795	1489.7841	1496.2583	1505.4025	1514.2875	1533.5666	1867.4574	2934.2624	2941.0703	2966.5713	2970.1742	3012.2935	3018.5648	3025.4506	3034.5399	3059.1858	3076.218	3094.9132	3115.0195
COCCCCOC=O	COCCCCOC=O	
InChI=1S/C6H12O3/c1-8-4-2-3-5-9-6-7/h6H,2-5H2,1H3	InChI=1S/C6H12O3/c1-8-4-2-3-5-9-6-7/h6H,2-5H2,1H3
