18
gdb 77035	1.97253	1.23782	0.87517	5.8678	77.74	-0.2561	-0.0314	0.2247	1342.1007	0.146113	-401.960169	-401.950676	-401.949732	-401.995409	33.603	
C	 0.0813231421	 1.5919218184	 0.1776386982	-0.416672
C	 0.1088148027	 0.0849245538	 0.0177775187	-0.054978
C	 0.4149114997	-0.6187340967	-1.2676153471	-0.032468
C	 0.7213506748	 0.1303204994	-2.5592370597	-0.375808
C	 1.5337160989	-0.6628187127	-3.4832430262	 0.269064
N	 2.1687738646	-1.2996496716	-4.2082828365	-0.295743
C	 1.4089232362	-0.7210416205	-0.1097756754	-0.120607
C	 2.7334397592	-0.0558607761	-0.1354432686	 0.165274
O	 3.7067589421	-0.4962343714	 0.4250772075	-0.26053
H	 0.8097325147	 2.1103630274	-0.4494496644	 0.123231
H	-0.9101133289	 1.9811922565	-0.0767273627	 0.130681
H	 0.2910867593	 1.8697865639	 1.2151423813	 0.13898
H	-0.6329670112	-0.4159622146	 0.6342066373	 0.111395
H	-0.1319623345	-1.5393054361	-1.4477860185	 0.121478
H	-0.2195682491	 0.384443545	-3.0620270186	 0.160329
H	 1.2358433223	 1.0772027915	-2.3765609178	 0.154582
H	 1.442808497	-1.6719626895	 0.4109855776	 0.115998
H	 2.7955085	 0.8988342633	-0.702608625	 0.065793
41.9645	90.3765	116.0871	180.9935	205.4654	228.9713	246.1961	379.242	392.4085	418.3956	498.0725	506.3703	567.5462	724.624	833.536	903.7848	918.4721	932.4264	971.7294	997.6937	1033.6326	1060.8498	1103.4314	1150.1512	1155.7741	1185.7361	1241.2656	1261.7402	1319.9645	1343.6015	1390.8989	1423.6826	1433.0092	1456.1254	1468.5848	1497.048	1507.9782	1813.5	2365.434	2879.0897	3042.9903	3046.4931	3098.5838	3102.8071	3122.3817	3143.8111	3156.4024	3176.8049
CC1C(CC#N)C1C=O	C[C@H]1[C@@H](CC#N)[C@H]1C=O	
InChI=1S/C7H9NO/c1-5-6(2-3-8)7(5)4-9/h4-7H,2H2,1H3	InChI=1S/C7H9NO/c1-5-6(2-3-8)7(5)4-9/h4-7H,2H2,1H3/t5-,6+,7-/m0/s1
