19
gdb 65138	3.00685	1.42378	1.30217	2.57	74.29	-0.2341	0.0789	0.313	1060.5194	0.158339	-422.954417	-422.946223	-422.945278	-422.987422	31.546	
C	 0.7055633737	 0.1237142862	-1.3711334767	-0.462148
C	 0.0325527404	-0.0006924587	-0.0227033567	 0.401968
C	 0.8311211015	-0.2749978946	 1.1843016671	-0.226474
O	 0.3583388255	 1.0426834929	 0.9099518937	-0.268673
C	-1.4051913682	-0.464056805	-0.050571884	-0.124717
C	-2.5771573912	 0.2444357241	 0.6055004442	-0.154721
C	-2.4847650967	 1.7517789753	 0.3725620805	-0.09018
O	-2.2813743357	 1.5567683376	-1.0583426307	-0.288303
C	-2.4738403028	 0.1507785007	-0.9025810891	 0.069557
H	 1.7495831879	 0.4266609296	-1.2577070955	 0.120586
H	 0.6733326448	-0.8298823671	-1.909461746	 0.115067
H	 0.1825080213	 0.8734044568	-1.9714861584	 0.149882
H	 0.3670782292	-0.7678187523	 2.0383425709	 0.107975
H	 1.9085769624	-0.4132096044	 1.0986202517	 0.108254
H	-1.511492135	-1.5469129131	 0.007401667	 0.098155
H	-3.2439633538	-0.2469250053	 1.3009996413	 0.098182
H	-3.4389741985	 2.2615831999	 0.5451679132	 0.105283
H	-1.6621813517	 2.2928644572	 0.8415948605	 0.138986
H	-3.055620453	-0.3672912199	-1.657116223	 0.101321
50.1032	153.8199	193.7904	222.252	310.5621	331.4753	354.2411	400.3022	534.23	577.1358	741.294	773.7137	784.6905	815.9655	869.8951	889.7678	930.1271	960.9799	967.1363	993.4593	1016.6296	1041.9937	1051.6536	1076.3937	1094.2025	1122.209	1133.115	1148.9606	1171.2426	1174.5646	1257.8456	1266.5573	1314.1553	1352.8246	1378.5802	1409.6825	1437.7584	1481.0449	1502.7766	1509.9705	1528.0479	3038.5251	3042.7182	3075.0289	3108.7775	3117.5629	3127.3903	3132.448	3160.6196	3171.8575	3202.5033
CC1(CO1)C1C2COC12	C[C@]1(CO1)[C@H]1[C@H]2CO[C@@H]12	
InChI=1S/C7H10O2/c1-7(3-9-7)5-4-2-8-6(4)5/h4-6H,2-3H2,1H3	InChI=1S/C7H10O2/c1-7(3-9-7)5-4-2-8-6(4)5/h4-6H,2-3H2,1H3/t4-,5+,6-,7+/m1/s1
