17
gdb 26993	3.02243	1.20084	0.88833	2.536	80.	-0.2104	0.0261	0.2365	1271.6322	0.136753	-380.930456	-380.921614	-380.92067	-380.965239	31.742	
C	-0.511962932	 1.555175037	 0.2785405319	-0.508759
C	-0.1591998742	 0.1067769113	 0.1146246242	 0.187915
C	 0.2082364707	-0.5360748368	-1.0512234596	 0.238205
C	 0.3349209688	-0.0065322071	-2.4528921922	-0.456214
C	 1.3275485251	-0.739887519	-3.2418466415	 0.261909
N	 2.0910463	-1.3638763049	-3.8446738326	-0.31384
N	 0.4097658596	-1.8652080878	-0.7610350622	-0.295217
C	 0.1937926349	-2.0841619789	 0.5733336154	-0.084644
C	-0.1662351315	-0.8858374365	 1.1400948519	-0.225251
H	-0.097268648	 2.173173354	-0.5248208517	 0.114427
H	-1.5968581087	 1.7191426868	 0.2831729864	 0.129276
H	-0.1246703488	 1.948767521	 1.2237389054	 0.130448
H	-0.6183310812	-0.0501660916	-2.9996257831	 0.164104
H	 0.6207250921	 1.0503789025	-2.4251565167	 0.167703
H	 0.7609160783	-2.5438900799	-1.416250685	 0.272711
H	 0.3267047374	-3.0635086121	 1.0036061566	 0.12286
H	-0.4086925824	-0.7234976181	 2.1796791426	 0.094366
30.6066	73.9734	115.3972	217.3877	235.6603	271.2001	377.1472	389.7472	497.1061	511.0081	627.8224	639.8739	656.5105	723.9429	770.3236	828.5153	916.0003	937.1797	941.4127	984.2509	1059.6236	1076.1289	1114.9708	1178.022	1219.1746	1269.0074	1302.0591	1327.2192	1420.3991	1434.8456	1459.2943	1482.3081	1489.1311	1499.8956	1516.3599	1628.0482	2360.1861	3003.2994	3021.934	3072.2701	3074.2022	3097.9154	3242.1703	3271.9073	3662.2288
CC1=C(CC#N)NC=C1	Cc1c(CC#N)[nH]cc1	
InChI=1S/C7H8N2/c1-6-3-5-9-7(6)2-4-8/h3,5,9H,2H2,1H3	InChI=1S/C7H8N2/c1-6-3-5-9-7(6)2-4-8/h3,5,9H,2H2,1H3
