19
gdb 71403	3.968	1.31473	1.25898	1.3065	79.77	-0.2326	0.0698	0.3024	1080.9213	0.160408	-381.987341	-381.979771	-381.978827	-382.018968	30.473	
C	-0.0131272304	 1.4429585812	 0.0372531808	-0.496675
C	 0.0820721531	-0.046541481	-0.0838426694	 0.332455
C	-0.5598910642	-0.928283843	-1.1491918284	-0.29033
C	-0.3948918535	-2.0494426862	-0.1053484178	-0.129589
N	-0.3350083734	-0.971579572	 1.0303186887	-0.193828
C	 1.1224833854	-0.8596358484	 0.6268019934	-0.181185
C	 1.10797775	-2.2417909091	 0.0466304421	 0.440236
C	 1.8106052265	-3.4497883227	 0.5088174499	-0.324059
N	 2.0877274884	-2.8650981552	-0.8297532545	-0.38752
H	 0.5998511363	 1.9356067317	-0.7257833833	 0.125344
H	-1.0477156882	 1.7802760544	-0.0854519417	 0.124483
H	 0.3357186741	 1.775418226	 1.0197509762	 0.130394
H	-1.6109717825	-0.6576204741	-1.2849497859	 0.106563
H	-0.0743794707	-1.0442044311	-2.1241800661	 0.099564
H	-1.0937203479	-2.8810030743	-0.0272478577	 0.08279
H	 1.8582109875	-0.4136315959	 1.2863265724	 0.095014
H	 2.6335879092	-3.3731722456	 1.2143892123	 0.123295
H	 1.2493923607	-4.3794016291	 0.5674885022	 0.113754
H	 1.6235640296	-3.4100110055	-1.5537324631	 0.229295
139.5506	193.1394	213.763	250.7529	324.2535	368.2935	447.4012	482.8228	597.2985	636.2874	753.1534	782.1747	793.5851	867.9365	889.8735	898.9463	933.4942	960.7338	966.0334	974.376	998.9507	1010.6907	1041.0604	1062.9509	1086.1948	1129.0538	1149.809	1174.0487	1203.5276	1235.2718	1241.1943	1264.7573	1300.3195	1314.3299	1382.4858	1422.1329	1459.9042	1483.3593	1492.7306	1497.1501	1526.4033	3030.6232	3039.5599	3095.6108	3098.1741	3102.3404	3108.3247	3129.2301	3183.5601	3187.3775	3485.9446
CC12CC3N1C2C31CN1	C[C@]12C[C@@H]3N1[C@H]2[C@]13CN1	
InChI=1S/C7H10N2/c1-6-2-4-7(3-8-7)5(6)9(4)6/h4-5,8H,2-3H2,1H3	InChI=1S/C7H10N2/c1-6-2-4-7(3-8-7)5(6)9(4)6/h4-5,8H,2-3H2,1H3/t4-,5+,6+,7+,9?/m0/s1
