20
gdb 76173	2.05132	1.43667	1.19138	3.8402	80.96	-0.2672	0.0172	0.2844	1182.4897	0.167716	-403.15796	-403.147454	-403.14651	-403.192638	38.483	
C	-0.0512729698	 1.5238523318	 0.1350573216	-0.431344
C	 0.0226241852	 0.0219940068	-0.0289351899	-0.113022
C	 0.677571137	-0.6715106197	-1.20568223	 0.246761
C	 0.0281843837	-1.9482876848	-1.7090422896	-0.457814
C	 1.3506839811	 0.1394272309	-2.2987370603	-0.449743
C	 1.361054141	-0.7029621299	 0.1597618914	 0.199017
O	 2.5310289975	 0.0547851704	 0.2784444977	-0.450391
C	 1.3812737252	-1.9283799523	 0.928416699	 0.257213
N	 1.4010056585	-2.8922081773	 1.5689819572	-0.358323
H	 0.8908164817	 2.0096131564	-0.1250907808	 0.13398
H	-0.8371954935	 1.9442256131	-0.5008943481	 0.129208
H	-0.2908514061	 1.7865617239	 1.1710439084	 0.124194
H	-0.8300189923	-0.5121066043	 0.383281705	 0.102544
H	-0.7607885836	-1.70674846	-2.4299054331	 0.120404
H	 0.7605534252	-2.5872791784	-2.2140668609	 0.128474
H	-0.4202953172	-2.530184384	-0.900139496	 0.136583
H	 1.9091196575	 0.9893533515	-1.9088695967	 0.139069
H	 2.051917549	-0.4898396679	-2.8565490485	 0.126604
H	 0.5996950234	 0.5081433221	-3.0061119832	 0.118844
H	 2.5964406766	 0.3707136916	 1.1873280368	 0.297743
118.7843	138.7381	148.0731	152.0866	193.4198	212.7243	222.8648	280.3398	297.7099	328.0012	361.216	433.5739	438.683	517.8549	578.1519	595.8892	679.5887	723.9347	800.1011	966.3332	973.627	982.4886	1020.3339	1045.3301	1077.2306	1128.3466	1149.3094	1164.1289	1200.5965	1286.1796	1294.561	1362.0955	1405.2889	1414.3075	1423.1153	1439.8853	1479.3788	1486.8775	1492.6777	1500.5069	1507.2705	1517.2387	2339.6838	3032.7535	3038.4579	3041.3026	3094.0583	3095.5207	3097.5118	3119.7818	3128.7522	3144.354	3156.5994	3791.0087
CC1C(C)(C)C1(O)C#N	C[C@H]1C(C)(C)[C@]1(O)C#N	
InChI=1S/C7H11NO/c1-5-6(2,3)7(5,9)4-8/h5,9H,1-3H3	InChI=1S/C7H11NO/c1-5-6(2,3)7(5,9)4-8/h5,9H,1-3H3/t5-,7-/m0/s1
