17
gdb 116821	15.4061	0.39184	0.38485	1.8085	119.6	-0.2304	-0.0445	0.1858	2749.3894	0.133268	-347.494701	-347.484533	-347.483589	-347.530604	35.733	
C	-0.0146608266	 1.5830849957	 0.0104803379	-0.381944
C	 0.0140463336	 0.0538450716	 0.0019868778	-0.159907
C	-1.406235267	-0.5539558746	 0.0127351309	-0.377604
C	-1.4119838627	-2.0067781796	 0.0050492027	 0.105793
C	-1.3994688553	-3.2202435106	-0.0015175471	-0.272408
C	-1.3857104183	-4.5714174214	-0.0089753278	 0.569932
C	-1.3741289948	-5.7900528073	-0.0157300301	-0.010396
C	-1.3615290404	-7.1429541389	-0.0232633284	 0.174526
C	-1.3502981014	-8.3527653329	-0.0301006239	-0.705026
H	 0.999253985	 1.9933713899	 0.0026173973	 0.11958
H	-0.5402402325	 1.9765006779	-0.8666212439	 0.11901
H	-0.52268563	 1.9670099857	 0.9020120442	 0.119011
H	 0.5473087468	-0.3105038795	-0.882664878	 0.116187
H	 0.5646241081	-0.3199211397	 0.8719812373	 0.116187
H	-1.9504798877	-0.1944093267	 0.8971230859	 0.138104
H	-1.9677583061	-0.1850435043	-0.8568700142	 0.138103
H	-1.3412196806	-9.4143797053	-0.0359856604	 0.190852
48.3709	56.1864	103.2819	128.563	211.2584	243.6912	251.0866	308.2901	359.215	426.0409	475.7394	479.7584	552.8186	554.009	607.925	651.3191	656.5746	743.3055	870.564	880.1095	965.3787	1043.3473	1105.1003	1118.4843	1256.5197	1286.9725	1321.2981	1328.7541	1380.1649	1414.871	1465.0015	1491.853	1499.5896	1508.2654	2153.2658	2295.2331	2338.9392	3006.896	3032.4445	3035.2832	3046.0712	3078.0758	3104.1857	3110.0597	3503.8928
CCCC#CC#CC#C	CCCC#CC#CC#C	
InChI=1S/C9H8/c1-3-5-7-9-8-6-4-2/h1H,4,6H2,2H3	InChI=1S/C9H8/c1-3-5-7-9-8-6-4-2/h1H,4,6H2,2H3
