19
gdb 81551	4.04276	1.19638	1.05105	1.9588	74.82	-0.2452	0.0634	0.3086	1154.2752	0.159602	-422.940751	-422.932902	-422.931958	-422.973151	30.662	
O	 0.1880522878	 1.4201774001	-0.236078333	-0.451438
C	 0.0479002706	 0.045206582	-0.0311748462	 0.189314
C	 0.0003564039	-0.5766366486	 1.4034030492	-0.171064
C	-1.4651419553	-0.05250139	 1.5158567348	-0.267779
C	-1.3561005804	-0.6366417411	 0.0729676984	-0.171052
C	-0.6043636435	-1.8277906242	 0.718314654	 0.375622
C	 0.1824425899	-2.9143856689	-0.0348659607	-0.179098
O	-0.4948652341	-3.9522052223	 0.702504736	-0.277313
C	-1.2746204441	-2.9999952246	 1.4545538492	-0.172196
H	-0.4085825219	 1.8951493966	 0.3511202128	 0.283786
H	 0.7488481366	-0.4257502411	-0.7246004782	 0.088296
H	 0.7768173806	-0.5576012407	 2.1698991409	 0.077659
H	-2.1230719712	-0.5797956188	 2.2104418421	 0.106239
H	-1.6161242517	 1.026011576	 1.6211349451	 0.080408
H	-2.1367940537	-0.6864861865	-0.6878226754	 0.07766
H	-0.0076103619	-2.9871213754	-1.113999187	 0.103532
H	 1.2670631404	-2.9307254282	 0.1362199736	 0.103532
H	-1.0772756251	-3.0691947033	 2.5326003369	 0.101946
H	-2.3518931569	-3.1255873509	 1.2824263476	 0.101947
83.4392	170.2633	204.2038	224.5259	303.8146	361.4612	419.0994	428.2072	543.5834	654.9692	728.7058	815.6452	858.3738	862.5337	886.3658	898.963	962.2866	978.8611	1001.6892	1033.9836	1039.4504	1068.1919	1072.7838	1088.2468	1129.5946	1149.3762	1159.7104	1166.3312	1176.7816	1190.5144	1194.4451	1239.0179	1268.258	1285.6298	1304.4836	1310.9816	1390.5711	1465.3464	1507.0146	1532.6759	1540.0804	2994.5888	3006.2799	3039.9297	3040.6443	3051.5347	3087.4184	3100.7551	3105.9529	3110.8132	3818.8009
OC1C2CC1C21COC1	O[C@H]1[C@H]2C[C@@H]1C12COC1	
InChI=1S/C7H10O2/c8-6-4-1-5(6)7(4)2-9-3-7/h4-6,8H,1-3H2	InChI=1S/C7H10O2/c8-6-4-1-5(6)7(4)2-9-3-7/h4-6,8H,1-3H2/t4-,5+,6+
