16
gdb 64867	2.91265	1.21344	0.99256	2.7432	69.73	-0.284	-0.0504	0.2336	1171.7475	0.123126	-437.898776	-437.890321	-437.889377	-437.932184	31.221	
O	 0.3525381806	 1.4125213006	-0.3709504942	-0.475404
C	-0.0533477078	 0.1659089895	 0.081104532	 0.346174
C	 0.0804373252	-0.0928096666	 1.6195299968	-0.298366
C	-1.3760151049	-0.6614542018	 1.6472121654	-0.16127
C	-1.5971847831	-0.0526647007	 0.2238930778	-0.298367
C	-1.4431057081	-2.1141554857	 1.6860732965	 0.27775
N	-1.4787342554	-3.2702843284	 1.6956976272	-0.326979
C	 0.6057960793	-0.9236397015	-0.7426084358	 0.101322
O	 1.3620631473	-0.6514792442	-1.6437950969	-0.274252
H	 0.9623492891	 1.2435420359	-1.1089718528	 0.295531
H	 0.8806891615	-0.747202508	 1.9694266348	 0.133053
H	 0.1397337791	 0.8671726806	 2.1342886196	 0.140655
H	-2.0188339707	-0.257439701	 2.4315274787	 0.135245
H	-2.0868019729	 0.9204523256	 0.2820077967	 0.140652
H	-2.1049278828	-0.6757546276	-0.5143588946	 0.133049
H	 0.3609921336	-1.9705885066	-0.4784805511	 0.131207
67.0509	115.0465	167.1023	215.2236	304.2113	305.0892	378.2869	403.1599	453.4071	521.9911	564.1328	566.1025	773.8129	784.3018	836.2251	838.588	923.3573	924.1775	962.4712	1000.9136	1082.8053	1097.3711	1123.0976	1164.0323	1189.2987	1245.0983	1256.605	1310.1443	1351.382	1392.8623	1443.3039	1463.8921	1485.0471	1807.8883	2351.1703	2959.7711	3081.2987	3082.9562	3094.633	3147.4086	3147.9356	3663.2961
OC1(CC(C1)C#N)C=O	O[C@]1(C[C@@H](C1)C#N)C=O	
InChI=1S/C6H7NO2/c7-3-5-1-6(9,2-5)4-8/h4-5,9H,1-2H2	InChI=1S/C6H7NO2/c7-3-5-1-6(9,2-5)4-8/h4-5,9H,1-2H2/t5-,6-
