17
gdb 27633	3.05558	1.22424	0.88365	0.8192	86.95	-0.2054	0.0009	0.2062	1298.4747	0.133857	-384.710992	-384.701789	-384.700845	-384.744866	33.63	
C	 0.1018247269	 1.4586211786	-0.0475010588	-0.493795
C	-0.063911441	-0.0176029917	-0.0338226928	 0.370157
C	-1.1391973107	-0.8414278048	-0.0701926163	-0.408639
C	-0.6291441031	-2.1926875217	-0.0279618387	 0.07645
C	-1.3723598495	-3.3946136543	-0.0440052883	 0.232435
C	-2.0153981377	-4.413643127	-0.0582760292	-0.45363
C	 0.7360034958	-2.0781247464	 0.0316877038	 0.249801
C	 1.826839034	-3.0813135498	 0.0949041101	-0.506317
O	 1.0845096945	-0.7646152398	 0.0284351371	-0.210872
H	 0.6919356442	 1.7892937128	-0.9098399303	 0.139099
H	-0.8771622113	 1.9399433595	-0.0981553843	 0.137865
H	 0.6131099971	 1.8145275584	 0.8542229293	 0.139103
H	-2.1760612798	-0.55020076	-0.1209598328	 0.115481
H	-2.5800543183	-5.3123156423	-0.0708827918	 0.183844
H	 2.5064716274	-2.9901404012	-0.7602479315	 0.139548
H	 2.4275424494	-2.9649319222	 1.0043557379	 0.139545
H	 1.395229692	-4.0840994481	 0.0899169069	 0.149924
115.3085	121.8527	132.1848	138.6429	205.3528	251.0489	285.1724	372.2937	475.4332	514.0145	537.1516	561.4561	634.82	637.3677	653.6172	690.3666	773.1313	804.3592	942.8228	1014.5198	1032.783	1059.2349	1067.1497	1133.9802	1162.3937	1253.0783	1282.1046	1392.0306	1415.6386	1422.4244	1471.624	1473.9871	1483.6677	1491.2711	1611.041	1655.9811	2229.8916	3029.1685	3030.7364	3078.8785	3080.768	3130.772	3136.9819	3265.1626	3504.7306
CC1=CC(C#C)=C(C)O1	Cc1cc(C#C)c(C)o1	
InChI=1S/C8H8O/c1-4-8-5-6(2)9-7(8)3/h1,5H,2-3H3	InChI=1S/C8H8O/c1-4-8-5-6(2)9-7(8)3/h1,5H,2-3H3
