20
gdb 39466	2.4019	1.69901	1.10833	1.367	79.69	-0.238	0.0056	0.2436	1114.4774	0.173976	-403.111638	-403.103972	-403.103027	-403.143488	30.961	
C	 0.0772262433	 1.5482237535	-0.2348603522	-0.124525
O	 1.4379643095	 1.9640748801	-0.337554142	-0.244666
C	 2.0404709168	 2.4178443611	 0.8625748809	-0.087497
C	 2.7533855974	 1.3331153189	 1.648344947	-0.028602
N	 2.7045583137	 1.4697166531	 3.1221748826	-0.350636
C	 2.0426723258	 0.3275210632	 2.4760781378	 0.014682
C	 0.5246753647	 0.2456081237	 2.5195263193	-0.277126
C	 0.0114249636	-0.4733414213	 1.2953534073	-0.048815
C	-0.1422481215	 0.0848036198	 0.0938288256	-0.051193
H	-0.4419231852	 2.1826073433	 0.5001961675	 0.098008
H	-0.3632511704	 1.7621349809	-1.2136456043	 0.105431
H	 2.7717683016	 3.1788990711	 0.5644169639	 0.102875
H	 1.3063731595	 2.9136140581	 1.5118464661	 0.101134
H	 3.6925289645	 1.0051105571	 1.2064215769	 0.084413
H	 3.5863314911	 1.1840868061	 3.5390407876	 0.231456
H	 2.5374150989	-0.6404975838	 2.5539563282	 0.081386
H	 0.2107302961	-0.273977064	 3.4315160615	 0.100686
H	 0.1195926371	 1.2600310667	 2.5810348183	 0.113677
H	-0.1738538274	-1.54052505	 1.4002551448	 0.09004
H	-0.458425289	-0.5445366775	-0.7346384967	 0.089271
155.3931	160.4644	243.4587	252.6577	356.8079	369.9784	427.9298	487.9161	503.9276	570.8664	640.3135	731.1746	784.2763	851.8804	882.486	930.1729	938.9332	967.9213	981.2104	1001.0635	1009.3465	1020.9949	1031.1043	1068.5378	1120.7427	1147.5804	1176.6815	1221.5625	1264.4731	1266.3175	1273.1009	1284.1126	1313.4139	1326.9017	1383.885	1399.7208	1417.8093	1426.9596	1477.1852	1486.6313	1489.0416	1510.3373	1715.9557	2986.0689	3011.175	3044.6226	3056.3718	3072.3175	3086.4854	3105.698	3125.2566	3138.0275	3163.4199	3505.7699
C1OCC2NC2CC=C1	C1OC[C@H]2N[C@H]2CC=C1	
InChI=1S/C7H11NO/c1-2-4-9-5-7-6(3-1)8-7/h1-2,6-8H,3-5H2/b2-1-	InChI=1S/C7H11NO/c1-2-4-9-5-7-6(3-1)8-7/h1-2,6-8H,3-5H2/b2-1-/t6-,7+/m0/s1
