17
gdb 22062	4.13696	0.78072	0.74591	2.1482	69.5	-0.2493	0.003	0.2522	1520.622	0.133698	-492.287276	-492.277136	-492.276192	-492.323459	35.471	
C	 0.351688692	-1.1323805797	-1.1006410852	-0.491706
C	-0.4728074163	-0.379841335	-0.0936234113	 0.362636
C	-0.9232130766	-1.06185937	 1.1688937171	-0.162945
O	 0.2091512795	-1.4343716639	 1.9806061076	-0.262444
C	 0.5608262227	-2.7469323861	 1.9703967217	 0.508562
N	 1.6364779991	-2.9357946715	 2.7859194596	-0.556566
O	 0.0229753815	-3.6118567047	 1.3162947662	-0.402107
N	-0.8583384637	 0.8332273929	-0.2168761951	-0.162718
O	-0.4253647447	 1.3955864309	-1.4231559228	-0.393028
H	 1.3778099075	-0.7485157328	-1.1188701083	 0.144858
H	 0.3774391165	-2.1970196754	-0.8648249615	 0.152006
H	-0.0552683161	-0.9841824654	-2.1049037224	 0.14677
H	-1.5213163407	-0.372369963	 1.7656928526	 0.124554
H	-1.4929371438	-1.9665692332	 0.9406371522	 0.14512
H	 1.8918250204	-2.213709024	 3.4372797138	 0.267918
H	 1.8778043706	-3.8872358369	 3.0011136099	 0.271116
H	-0.803401748	 2.2804875879	-1.382649484	 0.307975
45.8915	71.6556	75.5255	112.2454	211.5077	251.3739	295.7539	301.2522	361.0359	383.8073	414.8247	502.5738	531.4363	563.6431	661.0658	669.597	783.0594	818.6422	870.7445	979.8719	991.7267	1047.8193	1068.0882	1111.8785	1115.2904	1268.3254	1299.6586	1344.2916	1391.1682	1404.292	1422.1968	1477.5469	1486.4415	1488.2911	1609.5958	1730.7824	1825.0153	3044.2666	3071.8215	3102.7317	3140.1583	3150.2498	3619.199	3751.5903	3818.8184
CC(COC(N)=O)=NO	CC(=NO)COC(=O)N	
InChI=1S/C4H8N2O3/c1-3(6-8)2-9-4(5)7/h8H,2H2,1H3,(H2,5,7)	InChI=1S/C4H8N2O3/c1-3(6-8)2-9-4(5)7/h8H,2H2,1H3,(H2,5,7)
