18
gdb 11864	6.10633	1.06881	1.01038	1.9276	68.68	-0.2572	0.0732	0.3304	1171.8973	0.152854	-384.900302	-384.89221	-384.891265	-384.933156	30.024	
O	-0.0138961771	 1.3424756449	-0.2862355824	-0.42171
C	 0.0099873978	-0.0487674535	-0.0036441998	-0.093417
C	-1.4224108119	-0.5322588543	 0.0693269415	 0.049454
C	-2.248915801	-0.5480055924	-1.2537986052	-0.318696
C	-2.7449353746	-1.9373079105	-0.8507009222	 0.467273
C	-4.1142606846	-2.452619407	-0.8224182332	-0.265638
O	-3.1366793051	-2.959950214	-1.744529936	-0.271477
C	-1.6536377804	-2.0680805823	 0.214845939	-0.349144
H	 0.8933783318	 1.6506466014	-0.3672551523	 0.287563
H	 0.544245299	-0.6077311706	-0.7903324126	 0.082327
H	 0.5221041905	-0.2562423599	 0.950790818	 0.085886
H	-1.9493442053	 0.0237428602	 0.8498834362	 0.083507
H	-2.9917356993	 0.2381665229	-1.4014402672	 0.109165
H	-1.6023462038	-0.5940643595	-2.1362413524	 0.112029
H	-4.4188072685	-3.1460126605	-0.0388214494	 0.112603
H	-4.9215846272	-1.8743819436	-1.2710013953	 0.114294
H	-0.8035132872	-2.6488803969	-0.1598902336	 0.110536
H	-1.9397011432	-2.4525726943	 1.196497907	 0.105444
58.0666	104.2105	190.3753	264.7252	311.8106	319.1533	350.2061	413.5367	450.8748	561.6326	733.5507	823.0762	844.8601	879.8624	887.9344	925.6726	968.3545	1008.4089	1043.0099	1071.7963	1090.75	1126.3577	1143.7702	1162.4957	1194.1145	1202.7593	1220.6017	1235.6511	1255.4941	1284.5642	1290.4815	1364.6268	1433.7652	1462.3805	1465.6809	1490.4468	1519.8717	1537.843	2953.6791	2981.4196	3046.9288	3056.5121	3070.5155	3075.6803	3108.5534	3117.6238	3162.0214	3829.6216
OCC1CC2(CO2)C1	OC[C@H]1C[C@]2(CO2)C1	
InChI=1S/C6H10O2/c7-3-5-1-6(2-5)4-8-6/h5,7H,1-4H2	InChI=1S/C6H10O2/c7-3-5-1-6(2-5)4-8-6/h5,7H,1-4H2/t5-,6+
