19
gdb 55805	4.11601	0.9963	0.90371	3.9727	77.26	-0.2279	0.042	0.2699	1313.7097	0.159992	-419.161914	-419.153585	-419.152641	-419.195745	31.916	
N	-1.9185730526	-0.4239579914	 2.0426160578	-0.506646
C	-2.6118765938	 0.002241796	 0.9576879064	 0.382187
O	-3.4905462866	 0.8424221951	 0.9857633411	-0.368651
C	-2.1737561485	-0.6513986755	-0.3620961209	-0.274385
N	-1.3991151369	-1.8727522245	-0.1484023274	-0.119536
C	-0.8185631871	-2.6003573285	-1.3509955614	-0.003462
C	-0.7046433106	-3.8366533751	-0.4221749555	-0.210489
C	-2.1120453581	-3.2200910085	-0.2156922921	-0.013193
C	-2.2311356455	-3.1037502154	-1.7635200559	-0.239011
H	-2.1072928395	-0.0140632272	 2.9412100383	 0.255612
H	-1.1909458246	-1.1087973342	 1.9107091884	 0.258406
H	-3.0805625331	-0.74776755	-0.971736351	 0.119068
H	-1.527388054	 0.0754402528	-0.8703447798	 0.130413
H	-0.0454817912	-2.1425431018	-1.9706615624	 0.085882
H	-0.6600906356	-4.8136541404	-0.9048467064	 0.100246
H	-0.0145515272	-3.7360648035	 0.416082498	 0.10035
H	-2.8753578447	-3.4982857734	 0.5122638494	 0.09233
H	-2.9307792757	-2.3705988326	-2.1631007016	 0.111098
H	-2.2817957847	-4.0379974316	-2.3283997149	 0.099783
52.8857	58.1807	151.8697	285.5102	310.7353	332.3322	395.5061	526.5127	557.027	575.4556	622.9512	712.3445	747.0764	785.85	830.2852	861.861	896.0705	905.6837	912.4155	994.2789	1002.5297	1025.1188	1066.7238	1073.3505	1109.1196	1117.9634	1122.1883	1177.8552	1186.2687	1193.7884	1223.848	1253.6498	1266.3509	1276.9932	1342.4335	1357.6534	1464.4555	1484.5368	1528.9762	1575.1809	1807.5897	3020.7104	3060.693	3071.6733	3079.3963	3101.6181	3111.8286	3144.747	3158.1667	3577.7065	3730.5485
NC(=O)CN1C2CC1C2	NC(=O)CN1[C@H]2C[C@@H]1C2	
InChI=1S/C6H10N2O/c7-6(9)3-8-4-1-5(8)2-4/h4-5H,1-3H2,(H2,7,9)	InChI=1S/C6H10N2O/c7-6(9)3-8-4-1-5(8)2-4/h4-5H,1-3H2,(H2,7,9)/t4-,5+
