19
gdb 81426	2.4025	1.94706	1.47758	0.5199	73.37	-0.254	0.0636	0.3176	960.5246	0.160159	-422.983923	-422.976425	-422.975481	-423.015274	31.029	
C	-0.0350557743	 1.4797617768	 0.0547418893	-0.497086
C	 0.0907756441	-0.0129918931	-0.0263288492	 0.410272
O	-0.511948158	-0.7820820746	 1.0314545063	-0.297223
C	 0.9042543346	-0.9078649151	 0.8156553798	-0.050058
C	 1.3348305658	-1.9915563078	-0.1959266788	-0.130423
C	 0.0218570161	-2.2400016283	-0.9874363686	-0.225577
C	 0.1808918956	-0.7496844421	-1.3874612269	-0.161375
C	 1.7262263712	-1.0707954921	-1.4146391144	 0.171698
O	 2.6937956366	-0.0673688586	-1.2976639745	-0.444041
H	 0.7002474813	 1.9651364716	-0.5965632338	 0.128243
H	-1.0283747341	 1.8022910644	-0.2766523161	 0.133442
H	 0.1095537567	 1.8275036641	 1.0809910057	 0.130638
H	 1.5345819131	-0.5949650203	 1.642729436	 0.098725
H	 1.9744527483	-2.800588945	 0.154571404	 0.067404
H	 0.1725280588	-2.9139611423	-1.8321137683	 0.099074
H	-0.8615031561	-2.5133071385	-0.4171714446	 0.126267
H	-0.3360027742	-0.3084521659	-2.2394528349	 0.063224
H	 2.0041730522	-1.6525919323	-2.2965406891	 0.089943
H	 2.5292823321	 0.4246593791	-0.4865805118	 0.286853
176.1354	206.9584	228.3725	310.8368	339.2211	393.9813	458.401	483.7438	531.8332	606.8347	656.6261	740.6367	787.6626	811.379	828.6041	851.9463	875.9513	924.9715	958.1017	997.5346	1006.5357	1013.0993	1047.7669	1074.9506	1114.9957	1119.0072	1138.9549	1184.9379	1206.278	1229.2451	1236.2407	1253.4012	1289.492	1304.3675	1310.5297	1408.2314	1441.261	1448.5438	1485.3233	1492.5577	1501.5597	3031.9737	3088.6829	3092.1719	3096.4026	3118.838	3120.4274	3125.2891	3159.5893	3176.704	3814.7386
CC12OC1C1CC2C1O	C[C@]12O[C@H]1[C@H]1C[C@@H]2[C@H]1O	
InChI=1S/C7H10O2/c1-7-4-2-3(5(4)8)6(7)9-7/h3-6,8H,2H2,1H3	InChI=1S/C7H10O2/c1-7-4-2-3(5(4)8)6(7)9-7/h3-6,8H,2H2,1H3/t3-,4+,5-,6-,7+/m0/s1
