20
gdb 36941	4.53491	0.91818	0.81113	0.8703	75.85	-0.2354	0.093	0.3284	1426.7893	0.17172	-440.244038	-440.235394	-440.23445	-440.278777	31.215	
C	-0.0744803344	 1.4906695811	 0.172887626	-0.179829
C	 0.0466619373	-0.0018185508	-0.0865302059	 0.10813
C	-1.2875840264	-0.7820363789	 0.0187036941	-0.11118
O	-1.3142447355	-1.6181776281	-1.1338803046	-0.2493
C	-0.0450929271	-1.5109438995	-1.7418510034	 0.025952
O	 0.4438119109	-0.232917165	-1.4384744373	-0.248397
N	 1.2316270463	 2.1293277848	 0.2207151587	-0.067676
C	 1.7755951973	 2.5881267351	-1.0547988008	-0.20552
C	 1.2588811761	 3.5627218238	-0.0560377946	-0.227522
H	-0.7386438525	 1.9223136861	-0.5980716137	 0.090913
H	-0.5585220086	 1.6369992876	 1.1469618558	 0.106551
H	 0.7984350541	-0.4269931648	 0.5943258344	 0.086014
H	-1.335631767	-1.3796659247	 0.937356205	 0.104016
H	-2.1591256333	-0.1170181729	-0.0130200039	 0.105956
H	 0.6350724658	-2.292757927	-1.3543801367	 0.080793
H	-0.1519735064	-1.6086597612	-2.8260889671	 0.118005
H	 2.8443157736	 2.4465975836	-1.1854160461	 0.116366
H	 1.1808647421	 2.4169486837	-1.9484325456	 0.122531
H	 0.3152859928	 4.0565296589	-0.2839818795	 0.107827
H	 1.940875905	 4.1473339582	 0.5547181453	 0.11637
40.3503	78.1151	93.4777	166.7798	228.2401	299.2738	347.1908	404.472	497.9048	697.435	747.2756	767.7546	833.353	861.2971	900.4528	933.7418	962.7434	1022.9494	1025.6235	1048.5261	1080.1324	1092.9206	1112.209	1117.9481	1120.4185	1139.102	1171.6963	1185.7983	1198.5954	1224.4634	1235.5294	1291.3295	1315.564	1325.9919	1364.1641	1371.6254	1417.6644	1437.6471	1476.5436	1494.2893	1523.2756	1525.0586	1543.4536	2925.2387	2939.4153	2999.2811	3017.1966	3045.0759	3057.3349	3085.8127	3094.0614	3111.9806	3179.1747	3199.3702
C(C1COCO1)N1CC1	C([C@H]1COCO1)N1CC1	
InChI=1S/C6H11NO2/c1-2-7(1)3-6-4-8-5-9-6/h6H,1-5H2	InChI=1S/C6H11NO2/c1-2-7(1)3-6-4-8-5-9-6/h6H,1-5H2/t6-/m0/s1
