16
gdb 23296	2.7012	1.39626	1.19969	2.1777	68.2	-0.2487	0.0067	0.2555	1066.4586	0.123853	-474.933664	-474.92575	-474.924806	-474.966123	30.286	
O	-0.1008342263	 1.3796887373	 0.0641476806	-0.397033
N	 0.066535844	-0.0189922832	-0.0019440891	-0.299151
C	-1.0435483905	-0.6044567336	-0.0968972662	 0.510361
C	-2.5382550025	-0.3453631388	-0.0075364642	-0.017512
C	-3.0687139454	-0.8769535554	-1.3531586701	-0.263693
C	-2.2419353751	-2.2137968233	-1.3928931865	 0.116929
O	-1.2967553276	-2.3042273332	-2.4362910713	-0.431435
C	-1.4992366678	-2.0435168677	-0.0464605918	-0.030074
O	-2.5887681403	-1.5704287554	 0.8171959413	-0.307048
H	 0.8085809263	 1.6853908683	 0.1490889485	 0.309267
H	-2.9735379784	 0.5370379114	 0.4546010437	 0.107685
H	-4.1478932669	-1.0399819025	-1.3138608474	 0.111867
H	-2.8226488765	-0.2322763891	-2.2011009881	 0.114795
H	-2.8919428924	-3.0963926208	-1.3569333441	 0.081311
H	-1.7673268338	-2.4405042786	-3.2639836894	 0.290442
H	-0.9094268369	-2.8665131355	 0.3494109242	 0.10329
95.7838	156.0949	211.0131	249.8354	278.5008	363.1623	424.1609	452.0539	481.5327	539.3016	679.182	732.7052	741.9022	847.9918	861.0876	872.7066	915.1976	934.6357	962.0169	1009.1163	1057.5993	1081.2755	1136.0376	1158.2788	1170.814	1212.3293	1216.896	1256.6306	1286.8221	1311.6474	1334.6965	1410.7617	1421.5162	1472.5997	1830.3415	3029.5246	3067.4286	3124.3931	3163.2725	3165.6156	3819.4821	3829.1284
ON=C1C2CC(O)C1O2	ON=C1[C@H]2C[C@@H](O)[C@@H]1O2	
InChI=1S/C5H7NO3/c7-2-1-3-4(6-8)5(2)9-3/h2-3,5,7-8H,1H2	InChI=1S/C5H7NO3/c7-2-1-3-4(6-8)5(2)9-3/h2-3,5,7-8H,1H2/t2-,3-,5+/m1/s1
