17
gdb 88654	3.32108	1.15562	1.0312	3.985	68.39	-0.2435	-0.0014	0.2421	1176.485	0.13563	-458.968385	-458.960309	-458.959364	-459.001527	30.625	
O	-0.0996652632	 1.4513510577	 0.6244812342	-0.429858
C	-0.0020135537	 0.1836370217	 0.0612585385	 0.147578
C	-0.3373644057	-1.0740857428	 0.8206280519	-0.353171
C	-1.210206189	-0.630349287	-0.3458686609	-0.091664
C	-2.6064329702	-0.1232895387	-0.1203843151	 0.105253
C	-3.6863156363	-1.1126520321	 0.3662690648	-0.428918
C	-3.7205646177	-0.2330840836	 1.6125770842	 0.454415
O	-4.2970434503	-0.1744929549	 2.6470384088	-0.304752
O	-2.745817964	 0.6280342331	 1.1483280015	-0.270164
H	-0.8863201935	 1.4814403047	 1.1833930231	 0.30072
H	 0.8535236704	 0.1490495405	-0.6055393028	 0.111263
H	 0.2844415952	-1.954673034	 0.7021026705	 0.117902
H	-0.7409503456	-0.9404733057	 1.8193635611	 0.129804
H	-1.1265579248	-1.1958554319	-1.2710911053	 0.099383
H	-2.9329859108	 0.5225657653	-0.9400759006	 0.112074
H	-4.622125173	-1.1375893186	-0.1938662428	 0.148402
H	-3.3372546378	-2.1289030138	 0.5573889488	 0.151733
73.5525	89.6521	171.0552	246.8212	285.9448	413.8977	453.2358	501.0052	508.9027	524.353	636.8611	705.5073	771.762	795.4212	827.6184	885.0231	921.621	976.2482	985.4849	1040.4273	1046.2001	1062.9009	1100.532	1124.8001	1128.1548	1143.4149	1153.6114	1225.6336	1230.2578	1285.0214	1354.9855	1375.5046	1396.6103	1451.5458	1452.7781	1490.3627	1947.7904	3075.601	3091.2381	3131.6029	3135.3465	3150.7446	3166.8797	3219.9797	3779.0032
OC1CC1C1CC(=O)O1	O[C@H]1C[C@H]1[C@H]1CC(=O)O1	
InChI=1S/C6H8O3/c7-4-1-3(4)5-2-6(8)9-5/h3-5,7H,1-2H2	InChI=1S/C6H8O3/c7-4-1-3(4)5-2-6(8)9-5/h3-5,7H,1-2H2/t3-,4+,5-/m1/s1
