16
gdb 45314	3.68566	1.43872	1.2092	5.215	69.12	-0.2587	-0.0008	0.2579	1013.617	0.127481	-437.953028	-437.946112	-437.945167	-437.984706	26.837	
O	 0.1979096673	-0.0265342522	 0.0505669908	-0.393894
C	 0.0928863757	 1.162829214	-0.0613052938	 0.473032
N	-0.9555965988	 1.9606005069	 0.332815634	-0.366079
C	-0.8483654778	 3.3333312283	-0.1087835152	-0.021269
C	-0.9389088655	 4.3753705285	 1.0352359413	-0.273392
C	 0.5047366695	 4.6757538374	 1.3554992365	-0.053848
C	 1.3538884348	 4.123572366	 0.4921901376	-0.088684
C	 0.6424682479	 3.3374329469	-0.5760620638	 0.071212
O	 1.052633619	 1.9597470689	-0.6235230992	-0.249864
H	-1.8287787146	 1.5199907167	 0.5670330287	 0.261068
H	-1.5513700506	 3.5561190269	-0.9192976547	 0.087888
H	-1.4710174301	 5.2774307844	 0.7068506239	 0.11478
H	-1.4900063258	 3.9806691063	 1.8961926698	 0.116399
H	 0.7913139952	 5.2951705627	 2.1983303613	 0.107888
H	 2.4333190742	 4.209585486	 0.5096619148	 0.11315
H	 0.7922884095	 3.7456581421	-1.580014842	 0.101612
96.5643	110.329	287.0396	346.7678	421.3308	468.7748	527.6337	617.8674	682.2901	761.1535	765.9514	792.661	825.3888	877.771	918.8904	943.9573	961.5827	986.5103	1012.0169	1052.9123	1069.6557	1105.2081	1131.0828	1189.3861	1232.2804	1248.0919	1314.4002	1325.1482	1353.3146	1372.5154	1401.1297	1426.437	1477.7085	1688.8187	1891.0018	3022.6354	3036.909	3063.7002	3066.1941	3191.7326	3221.7311	3671.13
O=C1NC2CC=CC2O1	O=C1N[C@H]2CC=C[C@H]2O1	
InChI=1S/C6H7NO2/c8-6-7-4-2-1-3-5(4)9-6/h1,3-5H,2H2,(H,7,8)	InChI=1S/C6H7NO2/c8-6-7-4-2-1-3-5(4)9-6/h1,3-5H,2H2,(H,7,8)/t4-,5+/m0/s1
