19
gdb 54681	3.39466	1.11285	0.86788	2.232	79.75	-0.2424	-0.0475	0.1949	1323.5526	0.159096	-423.056256	-423.047569	-423.046624	-423.090016	32.294	
C	 0.0224761969	 1.505130566	 0.1275355885	-0.49144
C	 0.0592533914	-0.0129944478	 0.0889266994	 0.315598
O	 1.1179842121	-0.6087362369	 0.0803605565	-0.308995
C	-1.2518163953	-0.7429622832	 0.0640860074	 0.174314
C	-1.2353200452	-2.0819571837	 0.0614106117	-0.116495
C	-2.4791089037	-2.9131486632	 0.0816122859	-0.129014
O	-3.6580656178	-2.1718473447	 0.3172589444	-0.243881
C	-3.6879284213	-0.9585312788	-0.4141327305	-0.087199
C	-2.574808001	-0.0087353366	 0.0385931792	-0.322764
H	 1.0387205012	 1.8834153238	 0.2393353935	 0.141523
H	-0.4100998904	 1.9031776741	-0.7976711967	 0.140264
H	-0.6027029824	 1.8664355589	 0.9512857945	 0.136885
H	-0.2788986469	-2.5971171281	 0.0443848215	 0.125594
H	-2.5522139386	-3.4780261628	-0.8676866907	 0.107085
H	-2.4194018139	-3.6613991427	 0.8817395358	 0.129124
H	-3.5864798167	-1.1594785662	-1.4936261409	 0.092134
H	-4.675699476	-0.5225963246	-0.2429307962	 0.11128
H	-2.8136341405	 0.3951993176	 1.0314605375	 0.120448
H	-2.5373152218	 0.849006169	-0.6432762309	 0.105537
57.5281	113.9893	170.1308	209.1899	235.2774	298.2088	343.384	411.9175	441.9533	516.3697	565.851	607.9371	663.6636	785.8401	862.3336	866.8688	922.9729	971.1019	989.84	1021.2957	1041.818	1047.6133	1067.0736	1098.3649	1168.6963	1225.4426	1240.8661	1270.7565	1297.7735	1321.8409	1371.7492	1381.6303	1388.6047	1420.707	1460.698	1471.7311	1475.3942	1479.8007	1500.9087	1684.4944	1781.2466	2925.4777	2970.1194	3018.6464	3036.1049	3046.6098	3060.775	3092.7007	3095.7805	3155.2132	3180.7857
CC(=O)C1=CCOCC1	CC(=O)C1=CCOCC1	
InChI=1S/C7H10O2/c1-6(8)7-2-4-9-5-3-7/h2H,3-5H2,1H3	InChI=1S/C7H10O2/c1-6(8)7-2-4-9-5-3-7/h2H,3-5H2,1H3
