20
gdb 38981	2.94897	1.65289	1.22115	2.1533	78.46	-0.2393	0.0894	0.3287	1049.2196	0.174272	-403.111986	-403.104806	-403.103862	-403.143343	29.539	
C	-0.0230939959	 1.5629739242	-0.1038100817	-0.271919
C	 1.505895392	 1.5729270587	 0.0573868717	-0.090304
N	 2.1518276682	 0.7977337646	-1.003315393	-0.382471
C	 1.5449891076	 0.0698686169	 0.0954050439	 0.360984
C	 2.3178178047	-0.9586187552	 0.8675895452	-0.189489
O	 1.6099137989	-1.3737539097	 2.0274875079	-0.242369
C	 0.2823192144	-1.7847135636	 1.7395186853	-0.073632
C	-0.574451889	-0.6002752959	 1.2783653018	-0.221491
C	 0.0093969858	-0.0016623939	-0.0092597039	-0.06901
H	-0.5601533907	 2.0173848309	 0.7324040285	 0.10893
H	-0.3953750939	 2.0004071348	-1.0365648893	 0.096471
H	 2.10437879	 2.3099106093	 0.5811373259	 0.095779
H	 1.6001275511	 0.7647540989	-1.8599435038	 0.221029
H	 2.5122835866	-1.8289559788	 0.214997387	 0.088002
H	 3.2834143419	-0.5688467886	 1.2009095347	 0.118678
H	 0.28516908	-2.5815437394	 0.9748856608	 0.08302
H	-0.1090240185	-2.2128360334	 2.6670178145	 0.10726
H	-1.6169144886	-0.9085149583	 1.1394164885	 0.09486
H	-0.5572744908	 0.1473252952	 2.0800264206	 0.105252
H	-0.3606041738	-0.5465575667	-0.8870592248	 0.06042
147.6408	158.3175	299.1436	360.327	373.2373	434.7677	453.786	478.1406	560.3851	675.0868	749.6374	792.2275	830.6034	875.4775	898.5868	934.4892	969.9471	988.9489	996.4086	1006.7339	1046.5065	1064.7221	1090.0432	1113.1591	1129.5487	1161.9548	1184.1481	1222.5079	1228.9545	1248.5758	1254.7914	1279.577	1309.8983	1310.9759	1337.6334	1368.392	1375.7732	1408.7298	1456.6808	1475.1062	1487.6603	1490.1314	1498.0927	2943.4331	2954.3886	3017.4601	3031.0166	3043.7348	3077.7193	3083.6531	3091.9941	3104.1162	3176.3767	3445.1949
C1C2NC22COCCC12	C1[C@@H]2N[C@]32COCC[C@@H]13	
InChI=1S/C7H11NO/c1-2-9-4-7-5(1)3-6(7)8-7/h5-6,8H,1-4H2	InChI=1S/C7H11NO/c1-2-9-4-7-5(1)3-6(7)8-7/h5-6,8H,1-4H2/t5-,6-,7+/m0/s1
