20
gdb 37319	2.31341	2.23599	1.47052	1.2974	80.55	-0.2138	0.072	0.2858	955.0373	0.174427	-365.955055	-365.948284	-365.94734	-365.985653	29.473	
C	-0.0087787688	 1.5613462296	-0.1043039261	-0.319534
C	 1.2802487935	 0.7939310207	 0.0201357524	-0.034898
C	 2.1285881491	 0.7793479368	 1.2592152192	-0.02837
C	 1.787351531	 1.5349336719	 2.5204557216	-0.319839
C	 1.6326296589	 0.0347870765	 2.4941355391	 0.016859
N	 0.3766327203	-0.6666367217	 2.4904812921	-0.101398
C	-0.91228677	 0.0072790799	 2.5358906282	-0.262272
C	-0.4757631393	-0.6664203923	 1.2797259829	-0.012777
C	-0.0598568954	 0.0595321589	 0.0343979109	-0.029631
H	-0.3339021276	 2.1754714139	 0.727707317	 0.110103
H	-0.2553069325	 1.9811133564	-1.0734744468	 0.111571
H	 1.8572351276	 0.6935150955	-0.8928605283	 0.08668
H	 3.1871525034	 0.6697220403	 1.0491872959	 0.084022
H	 2.6033085968	 1.9437289673	 3.1067027977	 0.111089
H	 0.8973911819	 2.1533849332	 2.52839019	 0.109364
H	 2.3859890499	-0.5258861835	 3.0399222903	 0.093197
H	-1.6550965296	-0.4597114929	 3.1792446311	 0.110308
H	-0.9470345785	 1.0938078801	 2.5451570646	 0.104092
H	-0.8924923682	-1.6501915911	 1.0729578945	 0.086742
H	-0.3059804525	-0.4869581294	-0.8694828763	 0.084692
202.4093	220.0384	357.3025	377.7799	446.9136	463.6809	515.9509	553.0092	669.909	703.1799	733.613	772.1471	808.2773	825.2593	855.6592	893.4306	917.3418	936.4143	975.4606	1023.8532	1039.1913	1050.2623	1058.9584	1077.9904	1096.3178	1103.9853	1123.3636	1128.6369	1129.7825	1135.8489	1161.4811	1164.8565	1241.6959	1252.2983	1356.9857	1361.3514	1389.4286	1400.4147	1410.975	1418.7825	1483.943	1494.2033	1518.7882	3096.171	3112.9619	3134.2562	3136.8888	3140.1045	3148.9972	3160.6681	3168.3106	3174.666	3217.6054	3222.8506
C1C2C3CC3N3CC3C12	C1[C@H]2[C@H]3C[C@H]3N3C[C@H]3[C@@H]12	
InChI=1S/C8H11N/c1-4-5(1)8-3-9(8)7-2-6(4)7/h4-8H,1-3H2	InChI=1S/C8H11N/c1-4-5(1)8-3-9(8)7-2-6(4)7/h4-8H,1-3H2/t4-,5+,6-,7-,8+,9?/m1/s1
