17
gdb 122783	5.42325	0.56839	0.51946	1.405	73.76	-0.2741	-0.0409	0.2332	2009.8841	0.132632	-458.945513	-458.935241	-458.934297	-458.982393	34.811	
O	-0.2134380521	 1.437520674	 0.0124627885	-0.418574
C	-0.0363134829	 0.0308145222	 0.0024752884	-0.07309
C	-1.4223696408	-0.603400553	 0.0122229926	-0.193486
C	-1.3538620661	-2.1204836775	 0.0026133259	-0.070332
O	-2.709686101	-2.6132506138	 0.0127654434	-0.232638
C	-2.8361524247	-3.9506297681	 0.0076122287	 0.295748
O	-1.9169876813	-4.7310401423	-0.0046915697	-0.353657
C	-4.231664547	-4.3356327333	 0.0189860752	 0.223943
C	-5.372415814	-4.7123414183	 0.0284891993	-0.3575
H	 0.6547484577	 1.8509048924	 0.0068470192	 0.288389
H	 0.5195276587	-0.2962994266	-0.8917158843	 0.090294
H	 0.5367649455	-0.3067347852	 0.8817789116	 0.090301
H	-1.9645283587	-0.2629410545	 0.9005400898	 0.12271
H	-1.9816915262	-0.2525256667	-0.8612749758	 0.122718
H	-0.8445584906	-2.5063136102	-0.8870493703	 0.126205
H	-0.8275092455	-2.516751253	 0.8776267368	 0.126256
H	-6.3819179011	-5.044599226	 0.0361131108	 0.212712
39.589	65.8659	82.3408	118.2501	155.8156	175.4458	260.1303	270.7184	297.797	342.1374	461.0051	572.1262	608.2404	657.2805	697.4923	769.9266	779.6874	881.959	911.6445	1007.0394	1033.8452	1077.6949	1099.9792	1172.5422	1230.9512	1244.8308	1255.4235	1299.8596	1308.5247	1320.9756	1421.5749	1468.5858	1497.9338	1514.5567	1531.4732	1792.3878	2237.419	2959.2076	2984.194	3042.568	3054.7554	3079.0138	3106.4694	3497.5143	3832.104
OCCCOC(=O)C#C	OCCCOC(=O)C#C	
InChI=1S/C6H8O3/c1-2-6(8)9-5-3-4-7/h1,7H,3-5H2	InChI=1S/C6H8O3/c1-2-6(8)9-5-3-4-7/h1,7H,3-5H2
