17
gdb 81196	3.21759	1.55298	1.42716	2.1498	73.32	-0.2353	-0.0054	0.23	960.7574	0.136982	-421.726253	-421.719536	-421.718592	-421.756954	28.285	
O	 0.0234097069	 1.4704658407	-0.0733045292	-0.44921
C	 0.1053130457	 0.0885189699	-0.0283550433	 0.158385
C	 0.0270718176	-0.6095644268	 1.3390029519	-0.074827
O	-1.4212945137	-0.1547619676	 1.4141686083	-0.405986
C	-1.2300235232	-0.7500106509	 0.0484854411	 0.373026
C	-2.0221199464	-1.3041094831	-1.0805893546	-0.249586
C	-1.3804475667	-2.4272824294	-1.450878667	-0.043664
C	-0.1704557181	-2.7844565892	-0.5605895349	-0.351128
C	-0.4988537315	-1.919736217	 0.6712988747	 0.008943
H	-0.6652682288	 1.698079398	 0.5689041422	 0.287513
H	 0.8682748055	-0.2389546644	-0.7360758259	 0.09057
H	 0.6044111966	-0.4575660392	 2.2519778455	 0.096276
H	-2.8469305176	-0.8367387158	-1.6018857917	 0.116732
H	-1.6263264868	-3.0089355358	-2.3330672655	 0.106347
H	-0.1088804755	-3.8543960262	-0.3412129568	 0.113277
H	 0.7608690478	-2.5119692955	-1.0710398075	 0.125612
H	-1.1484404818	-2.4542538177	 1.3669717627	 0.097721
197.8909	226.7002	314.8432	346.1683	429.4307	509.0575	554.8378	594.1902	627.1789	655.5703	726.4372	734.4623	792.4173	842.5797	881.1916	887.4067	922.0121	940.9273	947.9261	990.6335	1039.2381	1074.9432	1117.4282	1125.7463	1144.2692	1163.5135	1171.7027	1201.5848	1214.8543	1260.844	1297.6079	1309.4297	1355.7613	1380.3059	1459.2115	1486.8329	1604.6741	3041.6673	3079.472	3099.0382	3111.6177	3117.7519	3189.9345	3226.935	3732.047
OC1C2OC11C=CCC21	O[C@H]1[C@H]2O[C@]31C=CC[C@@H]23	
InChI=1S/C7H8O2/c8-6-5-4-2-1-3-7(4,6)9-5/h1,3-6,8H,2H2	InChI=1S/C7H8O2/c8-6-5-4-2-1-3-7(4,6)9-5/h1,3-6,8H,2H2/t4-,5-,6-,7+/m0/s1
