19
gdb 13779	3.55904	1.34881	1.08385	2.8986	74.45	-0.2387	-0.0293	0.2094	1126.8824	0.163027	-365.046267	-365.037299	-365.036355	-365.079835	32.584	
C	-0.1216876007	 1.5973309811	 0.2420958995	-0.382206
C	 0.1199880567	 0.0935694665	 0.0912911586	 0.06418
C	 0.8816976872	-0.4842770793	 1.2836265458	-0.389443
N	-1.1967193582	-0.5573413105	-0.0053541047	-0.069282
C	-1.8081456459	-0.7049117898	-1.2979870422	-0.253136
C	-1.3462059145	-1.9219115893	-0.5361475587	-0.093921
C	-0.2135886074	-2.7011589808	-1.0989410239	 0.15595
O	-0.140646736	-3.9045410734	-1.0361759915	-0.268783
H	 0.8295759396	 2.1331007174	 0.3144035751	 0.115152
H	-0.6713085255	 1.9952949589	-0.6165833996	 0.115475
H	-0.7076238004	 1.7997629626	 1.1437715884	 0.127706
H	 0.7160856705	-0.0608265663	-0.8233083438	 0.067856
H	 0.3053460639	-0.3471820219	 2.2036584499	 0.129694
H	 1.0705875504	-1.55526873	 1.1601926927	 0.125093
H	 1.8470175732	 0.0169579531	 1.4002193068	 0.117703
H	-2.874131821	-0.5065345371	-1.3704818724	 0.13082
H	-1.2279517475	-0.4291141068	-2.1800750726	 0.117158
H	-2.0774674067	-2.5350805792	-0.0157198129	 0.113146
H	 0.5745810123	-2.1047693053	-1.6083098444	 0.07684
68.4828	106.0723	181.5052	214.743	221.0534	253.4037	309.8956	334.366	377.1655	433.2791	486.656	582.9934	705.8966	865.8029	875.7551	923.0508	933.8939	963.9936	978.9819	1026.5757	1070.7186	1112.2771	1116.8615	1146.703	1172.1741	1188.7997	1198.5505	1306.3877	1338.2844	1363.0425	1369.3968	1400.5514	1420.191	1444.6421	1482.4709	1486.1875	1495.1489	1503.66	1510.2266	1810.0095	2886.1815	2959.4358	3036.8394	3041.3819	3078.2788	3108.6638	3110.7196	3114.1078	3120.4482	3148.9282	3175.762
CC(C)N1CC1C=O	CC(C)N1C[C@H]1C=O	
InChI=1S/C6H11NO/c1-5(2)7-3-6(7)4-8/h4-6H,3H2,1-2H3	InChI=1S/C6H11NO/c1-5(2)7-3-6(7)4-8/h4-6H,3H2,1-2H3/t6-,7?/m0/s1
