22
gdb 105409	2.03207	1.43719	1.07909	3.4617	82.42	-0.2439	0.0313	0.2752	1247.6426	0.193697	-404.37249	-404.362672	-404.361728	-404.407238	36.464	
C	 0.0430302724	 1.3486206794	-0.6803262188	-0.396182
C	-0.1054957508	-0.0652043804	-0.1127404931	-0.217946
C	-1.548845481	-0.4618210548	 0.243578491	 0.357523
C	-2.4621303491	-0.6986209975	-0.9953832219	-0.281971
C	-2.1983861541	-2.2236737029	-0.8670910541	-0.218218
C	-1.6759948525	-1.9809587182	 0.5738321573	-0.237647
N	-2.125708339	 0.4496734851	 1.2294245786	-0.330574
C	-1.732753935	 0.5042098127	 2.526599431	 0.146164
O	-0.872980046	-0.1935427222	 3.0264515348	-0.333611
H	 1.0902875347	 1.5640969826	-0.9117856623	 0.118034
H	-0.531260089	 1.4811299449	-1.6041301179	 0.110381
H	-0.2989471844	 2.1011154556	 0.0368243083	 0.115454
H	 0.2804100284	-0.7958663575	-0.8342813584	 0.093375
H	 0.4959612494	-0.1709194599	 0.7956572988	 0.133322
H	-3.5054469546	-0.4497792885	-0.7773690408	 0.095897
H	-2.1727897603	-0.2058393964	-1.9267820768	 0.102884
H	-3.0621278208	-2.88164746	-0.9789313785	 0.101814
H	-1.4159104212	-2.568087162	-1.5476282101	 0.108186
H	-0.7591531812	-2.486198146	 0.8815952795	 0.110227
H	-2.4443205536	-2.1590812469	 1.3286846569	 0.107023
H	-2.8361724178	 1.0960381466	 0.9237132781	 0.243314
H	-2.3011314544	 1.2654880465	 3.1000051584	 0.072552
63.8622	113.315	140.4245	164.5927	190.8764	216.9358	251.1494	320.7073	357.9877	399.6841	459.7196	534.5689	606.1273	699.665	771.4337	793.6481	832.7517	860.2335	901.9238	941.2657	957.7538	994.3373	1021.4895	1028.947	1037.5734	1069.2451	1131.7269	1183.6162	1192.0696	1207.0174	1223.8557	1257.5622	1272.689	1282.1004	1294.1423	1331.0615	1363.8622	1409.8411	1428.9456	1469.1959	1481.4404	1485.7291	1499.8557	1503.2998	1506.4906	1508.2364	1795.1663	2918.4553	3033.0494	3035.9763	3049.9194	3068.9853	3078.4389	3082.0988	3101.0287	3105.5155	3110.6363	3118.6172	3136.7744	3625.3324
CCC1(CCC1)NC=O	CCC1(CCC1)NC=O	
InChI=1S/C7H13NO/c1-2-7(8-6-9)4-3-5-7/h6H,2-5H2,1H3,(H,8,9)	InChI=1S/C7H13NO/c1-2-7(8-6-9)4-3-5-7/h6H,2-5H2,1H3,(H,8,9)
