21
gdb 114125	4.14739	0.86784	0.81604	1.8356	78.94	-0.2545	0.072	0.3265	1498.5919	0.181185	-424.190315	-424.18079	-424.179846	-424.225072	35.32	
C	 0.0812128667	 1.5015799655	-0.0742535883	-0.380467
C	 0.0290464296	-0.0254546389	 0.032882808	-0.188508
C	-1.3920987854	-0.576531971	 0.0431356738	 0.012367
C	-2.2569350088	-0.4843141529	-1.2733929191	-0.315879
C	-2.3952910818	-2.0137101023	-1.2346495659	 0.400484
C	-3.4705628735	-2.8950933973	-1.7836672854	-0.178856
O	-3.4263261841	-2.9599391395	-3.201115682	-0.413947
O	-1.0505155015	-2.53967336	-1.2919726064	-0.297261
C	-1.5608871453	-2.106008549	-0.0236898737	-0.077266
H	 1.1141706469	 1.8626943977	-0.0849265445	 0.113929
H	-0.4024867184	 1.8530465826	-0.9920620191	 0.118985
H	-0.4292943628	 1.9776634717	 0.770597015	 0.111375
H	 0.57153803	-0.4809083934	-0.8029784473	 0.112351
H	 0.5427091028	-0.3462105027	 0.9491386318	 0.092677
H	-1.9575285494	-0.1700827687	 0.8895060283	 0.073624
H	-3.2017836447	 0.0443737094	-1.128382504	 0.106561
H	-1.7548241984	-0.0953756472	-2.1623696397	 0.110471
H	-3.3824982821	-3.8926322501	-1.3270954631	 0.096638
H	-4.4563307599	-2.4918634643	-1.5289058652	 0.112538
H	-2.548974038	-3.2821587165	-3.4365682476	 0.293287
H	-1.5529263519	-2.8336353632	 0.7815553645	 0.096899
69.8763	78.9992	127.9993	144.7283	212.4583	264.858	304.0386	338.5005	399.8112	429.6288	448.175	600.1424	700.3876	714.8911	775.0826	816.2795	889.9063	899.2034	928.9823	941.6186	975.6894	985.2332	1017.1987	1059.5097	1073.2489	1111.8768	1125.1159	1170.1757	1191.0729	1218.8417	1239.6097	1255.0692	1280.9313	1290.7174	1341.553	1367.6861	1386.1292	1413.4027	1419.5382	1457.3217	1482.1704	1488.4424	1490.4763	1499.8184	1507.339	2992.5894	3019.1817	3029.7681	3041.9714	3067.6591	3069.3591	3077.1623	3097.6939	3103.6136	3124.5294	3169.7789	3803.8137
CCC1CC2(CO)OC12	CC[C@H]1C[C@@]2(CO)O[C@@H]12	
InChI=1S/C7H12O2/c1-2-5-3-7(4-8)6(5)9-7/h5-6,8H,2-4H2,1H3	InChI=1S/C7H12O2/c1-2-5-3-7(4-8)6(5)9-7/h5-6,8H,2-4H2,1H3/t5-,6-,7-/m0/s1
