18
gdb 86974	2.71358	1.35671	1.19175	3.461	73.04	-0.2514	-0.0366	0.2148	1117.5733	0.147379	-439.108793	-439.100339	-439.099394	-439.142246	31.13	
C	-0.0484315916	 1.5502986827	 0.0175795067	-0.389284
C	 0.0699164595	 0.0264903048	 0.0581278959	 0.057457
C	 0.6766064478	-0.5401959656	-1.2343929216	-0.265268
C	 1.023027556	-2.0229171172	-1.0285101403	 0.007104
O	 1.8220098308	-2.2167309874	 0.1286903893	-0.218009
C	 1.5920500334	-1.3748142794	 1.1728622033	 0.136488
N	 0.8399260148	-0.3642368912	 1.2404665241	-0.272969
C	-0.242451206	-2.8701797206	-0.9615012719	 0.160056
O	-0.6277068345	-3.4558596676	 0.0122345871	-0.229924
H	 0.9391932014	 2.0092765913	-0.0964568593	 0.119059
H	-0.6792656584	 1.8738832179	-0.8168292717	 0.106808
H	-0.4832211064	 1.916112933	 0.9508718654	 0.131137
H	-0.9408061748	-0.3888324428	 0.1846870177	 0.099539
H	-0.0073750607	-0.4271410311	-2.0825980988	 0.111552
H	 1.5965901483	 0.0000300632	-1.4824823847	 0.12083
H	 1.6142451503	-2.3942503073	-1.8756329247	 0.113557
H	 2.1971825325	-1.6843834024	 2.0221097005	 0.13045
H	-0.8063187225	-2.8873727202	-1.9239929872	 0.081417
77.3458	88.7233	153.4762	237.1714	262.4199	299.6127	353.8075	381.0824	453.0194	577.9725	585.3887	732.8745	776.7924	799.8077	859.5022	906.0122	911.1621	963.7192	978.4586	1007.3457	1041.3886	1110.2767	1136.5377	1148.3568	1180.4363	1248.8774	1270.0947	1325.3287	1346.2627	1369.3901	1379.4546	1404.0744	1407.4215	1421.5488	1478.3318	1487.5011	1498.2722	1734.3427	1848.4599	2858.0657	2994.1279	3030.0139	3035.971	3045.198	3086.2446	3106.1492	3125.6927	3168.4222
CC1CC(OC=N1)C=O	C[C@H]1C[C@@H](OC=N1)C=O	
InChI=1S/C6H9NO2/c1-5-2-6(3-8)9-4-7-5/h3-6H,2H2,1H3	InChI=1S/C6H9NO2/c1-5-2-6(3-8)9-4-7-5/h3-6H,2H2,1H3/t5-,6+/m0/s1
