17
gdb 102874	2.70595	0.88754	0.73201	3.7374	74.21	-0.2729	-0.0023	0.2707	1562.367	0.13322	-455.136072	-455.1259	-455.124956	-455.172579	34.386	
C	-0.2046848556	 1.2679848312	-0.0416421425	-0.31947
N	 0.1497868819	-0.1328894833	 0.0655812874	-0.196507
C	 0.5134619883	-0.7245857847	-0.976070807	 0.133052
O	 0.8575428324	-2.0430398599	-0.9155627559	-0.225521
C	 1.2944394677	-2.6589380134	-2.1240665212	-0.064972
C	 1.7918255926	-4.0532110896	-1.7119250683	-0.072428
O	 0.7765893277	-4.8132933516	-1.1150148531	-0.403665
C	 0.2038477561	-2.7338403263	-3.1139314659	 0.289246
N	-0.6344029089	-2.7665550175	-3.9077761937	-0.307169
H	 0.4295064975	 1.8551851491	 0.6311788182	 0.135315
H	-0.1095289272	 1.677866813	-1.0593550935	 0.105448
H	-1.2386462585	 1.4058865043	 0.2920284991	 0.139165
H	 0.5891679491	-0.2812943189	-1.9789260436	 0.099991
H	 2.1240678717	-2.0912900452	-2.5684139581	 0.131973
H	 2.1284865651	-4.5943024615	-2.6005456322	 0.135971
H	 2.6546890028	-3.9022780404	-1.0462984384	 0.114835
H	 0.4533097772	-4.3146729352	-0.3550508711	 0.304736
45.9793	62.5353	90.389	121.2269	194.3637	205.5206	221.2969	290.6711	316.1178	381.3848	424.7573	434.127	516.2082	627.032	728.8585	850.0682	925.9422	964.8435	1020.7917	1047.2264	1090.1992	1117.0876	1141.2787	1155.7266	1212.6064	1246.443	1299.2719	1347.9516	1400.6908	1410.6406	1428.0655	1449.3906	1479.8645	1491.2171	1503.4885	1787.7717	2361.5012	2980.1744	3000.7181	3017.5316	3025.7851	3070.2247	3090.0098	3101.4518	3798.4417
CN=COC(CO)C#N	CN=CO[C@@H](CO)C#N	
InChI=1S/C5H8N2O2/c1-7-4-9-5(2-6)3-8/h4-5,8H,3H2,1H3	InChI=1S/C5H8N2O2/c1-7-4-9-5(2-6)3-8/h4-5,8H,3H2,1H3/t5-/m1/s1
