19
gdb 53713	11.30627	0.40867	0.39833	3.0354	82.78	-0.251	-0.029	0.222	2630.2359	0.154498	-423.000015	-422.988679	-422.987735	-423.040469	36.343	
C	 0.0540111096	 1.4765194058	-0.0354989659	-0.496541
C	 0.02051201	 0.0218096292	-0.0888788609	 0.079997
C	 0.006431103	-1.1810582672	-0.1360699572	 0.03378
C	-0.0463276522	-2.6367710396	-0.1853023388	-0.352631
C	-1.4514788719	-3.1732827156	 0.1031098312	-0.044729
O	-1.3970028392	-4.5836560833	 0.0321074677	-0.245329
C	-2.6289293036	-5.208118823	 0.2785228461	-0.145029
C	-2.4294972862	-6.7103356486	 0.1718093421	 0.139
O	-3.3096798603	-7.5124869711	 0.3331205408	-0.236417
H	 0.783701432	 1.8316774685	 0.7005431881	 0.148696
H	 0.3270535391	 1.9050890998	-1.0061259258	 0.148565
H	-0.9228216141	 1.8867658352	 0.2435977382	 0.147763
H	 0.2689331407	-3.001630704	-1.1704975834	 0.136531
H	 0.6480123249	-3.0733294229	 0.543004353	 0.136531
H	-1.7852846692	-2.846949807	 1.1004247893	 0.103142
H	-2.1683987917	-2.7745518199	-0.6314614205	 0.103151
H	-3.020385407	-4.973418609	 1.2831985569	 0.123291
H	-3.4027909168	-4.901302226	-0.4458377546	 0.123293
H	-1.384358687	-7.0031748813	-0.0715974663	 0.096936
10.8128	36.1348	57.2004	58.2002	109.1862	120.4789	142.3481	223.4337	270.5445	320.1721	391.7178	393.2749	522.6479	557.9869	740.2938	783.105	798.5188	1013.3808	1038.9616	1051.0948	1053.8615	1088.5325	1097.9121	1116.9448	1164.1176	1180.1915	1225.7177	1242.8193	1302.5094	1310.7098	1349.7852	1400.2118	1415.5346	1431.5124	1477.8017	1478.4357	1479.2651	1483.5674	1527.2151	1845.6073	2376.9439	2899.0755	2958.7551	2978.0108	2987.781	3009.3841	3026.6476	3028.6658	3065.2503	3087.2053	3087.3819
CC#CCCOCC=O	CC#CCCOCC=O	
InChI=1S/C7H10O2/c1-2-3-4-6-9-7-5-8/h5H,4,6-7H2,1H3	InChI=1S/C7H10O2/c1-2-3-4-6-9-7-5-8/h5H,4,6-7H2,1H3
