19
gdb 105807	2.52419	1.43648	1.2321	3.0219	74.46	-0.2316	0.0488	0.2804	1115.1712	0.158038	-422.943338	-422.935005	-422.934061	-422.976178	32.647	
C	-0.1856269955	 1.5345054465	-0.0292114608	-0.374254
C	 0.0945746621	 0.0256206029	 0.0297720961	-0.293029
C	 0.7378114214	-0.4917731319	-1.2284009642	 0.237563
C	-0.0074387981	-1.0090062809	-2.433439206	 0.103309
O	 0.0410079814	-0.5649713339	-3.7451567543	-0.430063
C	 0.9395263104	-1.9571315826	-1.7320325952	-0.250677
C	 2.4333075733	-1.6219098515	-1.9701765864	 0.030714
O	 2.5551361311	-0.5261360179	-2.9090981053	-0.27293
C	 2.2520733165	-0.2485670943	-1.5236051628	-0.03427
H	 0.7364005376	 2.1045963075	-0.1866210574	 0.116664
H	-0.865347601	 1.773110622	-0.8529220738	 0.130539
H	-0.6389802565	 1.8872004832	 0.90217202	 0.113503
H	 0.7338885619	-0.1978066002	 0.8955145482	 0.096127
H	-0.8427636419	-0.5183622424	 0.1983463894	 0.103037
H	-1.0409172668	-1.237379003	-2.1752369518	 0.105969
H	 0.9744249459	-0.3885874643	-3.9253681079	 0.294749
H	 0.6191706989	-2.8804805162	-1.2636196849	 0.092392
H	 3.2759399183	-2.298006174	-1.8975715404	 0.117847
H	 2.910405981	 0.4370568011	-1.0032372826	 0.112812
80.3961	132.5041	197.8137	256.4978	293.8411	302.1068	360.2758	446.6741	515.2264	574.1113	630.7787	709.6244	744.9367	774.3173	783.7121	802.49	862.5098	878.5542	937.9399	951.9488	958.1661	978.9005	1003.2528	1056.2955	1084.6449	1098.4531	1159.9378	1184.6517	1218.5528	1243.4662	1263.1463	1301.8195	1331.4271	1335.26	1363.4802	1409.9859	1430.8314	1479.333	1490.9798	1497.2264	1505.876	3006.7528	3035.5214	3049.5769	3102.3766	3112.4135	3122.8523	3178.5628	3185.3484	3202.7021	3742.734
CCC12C(O)C1C1OC21	CC[C@]12[C@@H](O)[C@H]1[C@H]1O[C@@H]21	
InChI=1S/C7H10O2/c1-2-7-3(5(7)8)4-6(7)9-4/h3-6,8H,2H2,1H3	InChI=1S/C7H10O2/c1-2-7-3(5(7)8)4-6(7)9-4/h3-6,8H,2H2,1H3/t3-,4-,5+,6-,7-/m1/s1
