17
gdb 71074	2.58048	1.55728	1.32781	2.829	73.36	-0.235	0.0076	0.2425	1022.6067	0.134943	-421.798755	-421.790716	-421.789772	-421.830995	31.213	
C	-0.1133204442	 1.5192848107	-0.0858105271	-0.527303
C	-0.0443963726	 0.0359942363	 0.0570389676	 0.294287
C	 0.0003749177	-1.0618309354	-1.054952664	-0.329604
C	 1.2884252502	-1.5393521826	-0.476537402	 0.448732
O	 2.2962180071	-2.0148125672	-0.9210581446	-0.347007
C	 0.9027093157	-0.9306913233	 0.8888928173	-0.244119
C	-0.3638393299	-1.7426629744	 1.3098337154	-0.305748
C	-1.0322511428	-1.0687065629	 0.1129679198	 0.351967
O	-2.3766714839	-0.9538336066	-0.1508666906	-0.460668
H	 0.8267511368	 1.9270441781	-0.4718137445	 0.134952
H	-0.9144717893	 1.7989734386	-0.7763788985	 0.14032
H	-0.3191422058	 1.9990929833	 0.8772121925	 0.132134
H	-0.3299283115	-0.9683446939	-2.0811270274	 0.108191
H	 1.654038115	-0.6313426161	 1.6144892625	 0.095524
H	-0.2766202269	-2.8349176234	 1.3258581416	 0.102299
H	-0.7859118753	-1.3815423059	 2.2520325546	 0.11393
H	-2.6894208903	-1.7817263153	-0.5335523726	 0.292113
113.2867	181.8214	197.8477	244.9496	274.1266	339.129	389.4141	484.9991	489.3233	543.9464	626.6204	660.1543	698.9751	765.7176	817.5648	834.987	914.079	923.9077	939.3514	1025.7752	1057.3276	1083.5088	1113.3685	1119.7497	1124.7472	1145.833	1194.6058	1225.2115	1248.8491	1292.7881	1343.1441	1415.5876	1479.9096	1485.7915	1493.6013	1524.4503	1875.6612	3031.911	3038.004	3093.5295	3103.0209	3109.6698	3163.566	3212.5973	3790.876
CC12C3C(=O)C1CC23O	C[C@@]12[C@H]3C(=O)[C@@H]1C[C@@]23O	
InChI=1S/C7H8O2/c1-6-3-2-7(6,9)5(6)4(3)8/h3,5,9H,2H2,1H3	InChI=1S/C7H8O2/c1-6-3-2-7(6,9)5(6)4(3)8/h3,5,9H,2H2,1H3/t3-,5+,6-,7-/m0/s1
