16
gdb 125837	2.95172	1.4646	1.03581	4.2179	71.6	-0.2495	-0.0295	0.22	1122.8113	0.124212	-434.002922	-433.994926	-433.993982	-434.036109	28.975	
C	-0.252385426	 1.418317007	 0.1042402976	-0.498274
C	-0.0240477388	-0.0535779821	 0.0579049096	 0.274089
N	 0.0625752119	-0.7334402771	-1.0508155688	-0.136378
O	 0.2897573099	-2.0343575263	-0.6893835242	-0.165076
N	 0.3380007125	-2.1711744014	 0.6759648394	-0.16166
C	 0.1516406078	-0.9671626788	 1.1502288874	 0.291808
N	 0.2084635912	-0.6323314278	 2.4967396966	-0.150628
C	-1.0459758683	-0.4659705215	 3.2471435728	-0.235733
C	-0.1579520272	-1.6376330318	 3.4880214805	-0.219042
H	 0.536817085	 1.910198115	 0.6814120046	 0.151393
H	-0.2656995604	 1.8297206929	-0.9062225327	 0.155872
H	-1.2051308377	 1.6539050477	 0.5904207723	 0.140759
H	-1.0576734161	 0.3685084431	 3.9407537706	 0.132504
H	-1.976850249	-0.6468520879	 2.7159837717	 0.134435
H	-0.4838824059	-2.6043971912	 3.1171066729	 0.152783
H	 0.4781803812	-1.6631490399	 4.3667036897	 0.133148
63.308	125.7938	160.8318	178.5268	266.6095	294.8432	424.915	521.0286	573.397	627.0575	700.8317	762.9149	822.8383	897.9783	919.3747	927.1546	935.9789	1010.9645	1046.5458	1068.8644	1071.7035	1115.3303	1138.1239	1171.3661	1180.441	1215.7532	1332.6638	1414.8167	1433.1732	1478.2262	1486.6556	1491.9987	1517.1564	1552.7576	1630.1957	3043.6808	3099.478	3115.8436	3128.5217	3145.9546	3206.3248	3222.9508
CC1=NON=C1N1CC1	Cc1nonc1N1CC1	
InChI=1S/C5H7N3O/c1-4-5(7-9-6-4)8-2-3-8/h2-3H2,1H3	InChI=1S/C5H7N3O/c1-4-5(7-9-6-4)8-2-3-8/h2-3H2,1H3
