19
gdb 103697	1.89981	1.81634	1.10833	3.1488	76.75	-0.2624	0.0114	0.2738	1145.9158	0.157707	-419.202555	-419.192666	-419.191722	-419.236802	36.317	
C	-0.1247258455	 1.8128930733	 0.3202008908	-0.455802
C	-0.1063041102	 0.3194129574	 0.0743391016	 0.249721
C	-1.3813591374	-0.1849393847	-0.6250674484	-0.157125
O	-1.2173678573	-1.4215547283	-1.2893183858	-0.416005
N	 1.1584192599	-0.2820062021	-0.3427752968	-0.388082
C	 0.6384432535	-0.608914445	 1.0067508854	 0.130227
C	 1.4726566904	-0.142576768	 2.1884938225	-0.457542
C	 0.0467691024	-1.9141541717	 1.2183052068	 0.253386
N	-0.4383682576	-2.9491173708	 1.407871245	-0.369666
H	 0.7811981137	 2.1607552531	 0.8162570642	 0.135061
H	-0.2042745761	 2.3419476688	-0.6354371443	 0.133692
H	-0.9872641709	 2.0946315358	 0.9342165892	 0.126017
H	-2.2132188803	-0.2116017655	 0.0923186676	 0.115072
H	-1.6426143008	 0.5458902526	-1.3987032905	 0.120383
H	-1.3591137964	-2.1365865522	-0.6581271463	 0.308741
H	 0.940488286	-1.04091128	-0.9907672875	 0.251584
H	 1.985022901	 0.7875470141	 1.9437017111	 0.142428
H	 0.8503337836	 0.0105501085	 3.0751457427	 0.134807
H	 2.2327164719	-0.8915386753	 2.4295052927	 0.143104
110.6422	137.9126	149.6367	159.4419	169.1118	238.8211	244.8742	302.1654	358.2064	395.3245	433.7978	476.067	566.2533	586.3928	600.1434	654.5696	717.817	839.3272	904.9863	959.3111	974.8763	1058.6064	1088.067	1093.0191	1111.5858	1131.3028	1153.1814	1228.867	1279.502	1320.8749	1371.9084	1407.0652	1412.0551	1423.2643	1432.8099	1478.5276	1484.3404	1490.6218	1499.2509	1508.1418	2328.564	3011.0154	3040.0876	3051.1032	3067.7529	3099.4062	3115.4969	3145.4021	3158.6517	3457.6704	3797.6544
CC1(CO)NC1(C)C#N	C[C@@]1(CO)N[C@]1(C)C#N	
InChI=1S/C6H10N2O/c1-5(3-7)6(2,4-9)8-5/h8-9H,4H2,1-2H3	InChI=1S/C6H10N2O/c1-5(3-7)6(2,4-9)8-5/h8-9H,4H2,1-2H3/t5-,6+/m1/s1
