17
gdb 108766	2.29059	1.30077	0.86634	3.5255	72.61	-0.238	-0.0463	0.1917	1283.8356	0.134862	-458.988964	-458.979995	-458.979051	-459.023114	32.668	
O	 0.1746563511	 1.3307058627	-0.0029566427	-0.404242
C	-0.0136196988	-0.0694527912	 0.0204994276	-0.170067
C	-1.4479699162	-0.4964917193	 0.0504607679	 0.293052
C	-2.5312763609	 0.2882002707	 0.1311630869	-0.306761
C	-3.771105833	-0.5163857505	 0.0937248428	 0.393815
O	-4.9062965444	-0.1218902902	 0.2191558039	-0.329608
C	-3.3440432346	-1.9762948301	-0.1387469317	-0.371582
C	-1.8098413212	-1.9705764763	 0.0009186426	 0.011787
O	-1.1024185739	-2.5698701214	-1.0795992818	-0.433796
H	-0.1504918521	 1.6571759206	-0.8483984424	 0.289832
H	 0.4837166094	-0.5746552354	-0.8210757876	 0.132236
H	 0.4879483442	-0.431834028	 0.9283818345	 0.13221
H	-2.5333119222	 1.3657662248	 0.2289762721	 0.120382
H	-3.8636682494	-2.6470381485	 0.5497590213	 0.124762
H	-3.6133761736	-2.2634486929	-1.1606119567	 0.138743
H	-1.5050819354	-2.44160766	 0.9500365274	 0.087692
H	-1.2479188089	-3.5202755351	-1.0423163941	 0.291545
74.5238	95.414	144.7226	170.6944	266.8297	275.75	307.5985	370.8197	421.9742	502.27	545.5786	553.0821	622.6234	688.6103	827.0713	852.2634	884.3859	949.6651	986.7415	1007.6214	1073.2368	1097.6032	1134.6735	1170.8877	1187.4539	1197.3925	1232.0693	1248.8945	1270.0256	1340.3227	1390.385	1412.1102	1419.9625	1450.8877	1476.4997	1683.0239	1817.9753	2962.6593	3000.8327	3038.4029	3059.9138	3114.3387	3228.7736	3815.9637	3825.0985
OCC1=CC(=O)CC1O	OCC1=CC(=O)C[C@H]1O	
InChI=1S/C6H8O3/c7-3-4-1-5(8)2-6(4)9/h1,6-7,9H,2-3H2	InChI=1S/C6H8O3/c7-3-4-1-5(8)2-6(4)9/h1,6-7,9H,2-3H2/t6-/m1/s1
