21
gdb 93799	2.40918	1.40708	1.03248	3.7258	79.45	-0.2132	0.0323	0.2455	1235.0215	0.184531	-420.450917	-420.441779	-420.440835	-420.484743	34.896	
C	-0.1742267488	 1.5635646042	 0.048212083	-0.400738
C	-0.0143047195	 0.044160818	-0.0024090337	 0.048785
C	 0.6701436949	-0.4326281848	-1.2890935743	-0.1714
N	 1.0153222851	-1.8484600936	-1.2624793536	-0.298167
C	 1.9190576732	-2.1930841576	-0.1552209898	-0.092036
C	 3.3908885158	-1.9825460492	-0.5446651796	-0.37055
C	 1.6397053654	-1.4757755806	 1.1761754227	 0.390949
O	 2.1917430253	-1.816391689	 2.208187874	-0.389331
N	 0.7723673862	-0.4205948597	 1.1367434449	-0.320094
H	 0.800865428	 2.0575792256	-0.0111064765	 0.128623
H	-0.7929380686	 1.911088815	-0.784921673	 0.123728
H	-0.6605641385	 1.8795260301	 0.9774332876	 0.118343
H	-1.0186754836	-0.4113058029	 0.0350776116	 0.075253
H	 0.015555593	-0.2366049769	-2.1444325448	 0.106091
H	 1.5872734847	 0.1491239599	-1.4443774381	 0.11328
H	 0.1638538267	-2.3954026108	-1.1849960356	 0.21832
H	 1.783386088	-3.2575289949	 0.0612907286	 0.105358
H	 3.5927844904	-0.9359479202	-0.7949079712	 0.113611
H	 4.0363379282	-2.2617867127	 0.2905920798	 0.14157
H	 3.6321767721	-2.5938986463	-1.4173232749	 0.119397
H	 0.591351852	-0.0090708535	 2.0427658431	 0.239007
67.1753	97.928	222.644	227.0355	252.5809	270.0216	284.6741	374.2308	444.1432	464.1567	481.0089	537.9297	596.4421	646.2041	726.2677	773.55	796.8783	870.5948	893.8766	968.2978	988.2207	1027.5609	1071.6337	1085.3901	1103.2372	1159.9591	1176.2752	1199.9477	1259.6604	1306.0405	1332.8479	1344.6009	1372.5163	1383.898	1393.8669	1404.8901	1410.324	1464.4736	1477.6494	1489.6691	1493.5723	1497.1239	1501.3343	1501.8395	1778.0855	2948.5053	3031.2102	3035.2687	3046.4165	3061.8392	3083.6649	3101.4981	3114.3227	3116.8845	3142.8256	3513.7915	3583.3127
CC1CNC(C)C(=O)N1	C[C@H]1CN[C@@H](C)C(=O)N1	
InChI=1S/C6H12N2O/c1-4-3-7-5(2)6(9)8-4/h4-5,7H,3H2,1-2H3,(H,8,9)	InChI=1S/C6H12N2O/c1-4-3-7-5(2)6(9)8-4/h4-5,7H,3H2,1-2H3,(H,8,9)/t4-,5-/m0/s1
