22
gdb 36920	4.39668	0.89387	0.78719	0.9434	88.77	-0.23	0.0281	0.2581	1505.7182	0.195609	-367.190849	-367.182156	-367.181211	-367.225048	33.007	
C	-0.0320255063	 1.5320301695	 0.1749408685	-0.153221
C	 0.0473842481	 0.0111081025	-0.0146252667	-0.015862
C	-1.3426857804	-0.674073138	 0.1079667178	-0.23112
C	-1.3614065873	-1.8064677415	-0.9506202551	-0.2534
C	-0.2345159242	-1.4219754259	-1.8794306269	-0.068342
C	 0.5251470181	-0.4516175898	-1.3751816162	-0.063408
N	 1.2888255457	 2.1519865679	 0.1885638199	-0.065469
C	 1.7678859831	 2.7136887455	-1.071708364	-0.217662
C	 1.3204354531	 3.6015011651	 0.0353682744	-0.224125
H	-0.6865738287	 1.9664338261	-0.6043354921	 0.075796
H	-0.5032400118	 1.7426269022	 1.1435348144	 0.099698
H	 0.7366900191	-0.3632493107	 0.7559046954	 0.08586
H	-1.5424094973	-1.0350689872	 1.1200747249	 0.097342
H	-2.1233690512	 0.0578615532	-0.1304178124	 0.098588
H	-1.170193011	-2.7909993747	-0.5004866574	 0.104667
H	-2.328593303	-1.888963341	-1.459818393	 0.10019
H	-0.0587728872	-1.9266603145	-2.8236433243	 0.087431
H	 1.4180010963	-0.0525116581	-1.8424875664	 0.094881
H	 2.8255175707	 2.578978195	-1.2811396847	 0.114878
H	 1.1171544754	 2.6416535319	-1.9419324842	 0.111734
H	 0.3731417861	 4.1219949246	-0.1003103399	 0.10684
H	 2.0441494626	 4.127762078	 0.651501698	 0.114703
60.2703	77.7884	107.4099	168.0681	268.1185	324.2669	355.3641	419.0176	517.3231	638.8327	750.0745	766.2925	769.0177	834.6319	848.831	856.6062	900.552	929.6433	944.8263	974.7258	983.0252	1025.4992	1035.7072	1060.5656	1097.2239	1102.9189	1115.7325	1118.9164	1140.5658	1167.1867	1172.4318	1195.445	1230.5028	1267.7725	1282.8942	1314.9638	1320.8753	1325.4836	1348.5404	1388.7161	1393.5771	1481.9854	1486.0371	1494.7821	1500.3434	1523.4931	1686.4541	2923.1792	3000.002	3006.9655	3034.5647	3039.635	3053.6572	3090.4572	3095.1973	3095.672	3172.9537	3180.2219	3187.5623	3208.9242
C(C1CCC=C1)N1CC1	C([C@H]1CCC=C1)N1CC1	
InChI=1S/C8H13N/c1-2-4-8(3-1)7-9-5-6-9/h1,3,8H,2,4-7H2	InChI=1S/C8H13N/c1-2-4-8(3-1)7-9-5-6-9/h1,3,8H,2,4-7H2/t8-/m1/s1
